drugbank_target|P0A988 DNA polymerase III subunit beta (DB06998)
 OpenBabel12092120393D

  0  0  0     0  0            999 V3000
M  V30 BEGIN CTAB
M  V30 COUNTS 14455 15506 0 0 0
M  V30 BEGIN ATOM
M  V30 1 H -1.547 9.37743 -1.21644 0
M  V30 2 O -1.44 8.89599 -0.40059 0
M  V30 3 P 0 8.91 0 0
M  V30 4 O 0.22 10.1746 0.733838 0
M  V30 5 O 0.79 8.73346 -1.23964 0
M  V30 6 O 0.25 7.66872 0.971405 0
M  V30 7 C -0.69 7.42405 2.04668 0
M  V30 8 C 0.04 6.86059 3.24661 0
M  V30 9 O 0.25 5.42934 3.03695 0
M  V30 10 C 1.44 7.41287 3.50796 0
M  V30 11 O 1.83 7.27073 4.86816 0
M  V30 12 C 2.32 6.5273 2.63741 0
M  V30 13 C 1.61 5.1842 2.73198 0
M  V30 14 N 1.66 4.38762 1.4784 0
M  V30 15 H -1.178 8.36899 2.3252 0
M  V30 16 H -1.45 6.70391 1.71179 0
M  V30 17 H -0.582 7.03638 4.13219 0
M  V30 18 H 2.073 4.59931 3.54016 0
M  V30 19 H 2.353 6.88995 1.59871 0
M  V30 20 H 3.344 6.4684 3.0373 0
M  V30 21 H 1.51 8.47002 3.20749 0
M  V30 22 P 3.37998 7.20834 5.23717 0
M  V30 23 O 3.59998 7.79853 6.57286 0
M  V30 24 O 4.16998 7.79239 4.12957 0
M  V30 25 O 3.62998 5.63315 5.29344 0
M  V30 26 C 2.68998 4.80255 6.01876 0
M  V30 27 C 3.41998 3.64202 6.65911 0
M  V30 28 O 3.62998 2.60694 5.64732 0
M  V30 29 C 4.81998 3.93473 7.1943 0
M  V30 30 O 5.20998 3.02071 8.21205 0
M  V30 31 C 5.69998 3.73047 5.97036 0
M  V30 32 C 4.98998 2.58828 5.25741 0
M  V30 33 N 5.03998 2.68068 3.77503 0
M  V30 34 H 2.20098 5.40332 6.79951 0
M  V30 35 H 1.93098 4.41613 5.32378 0
M  V30 36 H 2.79798 3.26331 7.47797 0
M  V30 37 P 6.75996 2.75334 8.47391 0
M  V30 38 O 6.97996 2.44571 9.90142 0
M  V30 39 O 7.54996 3.87688 7.92115 0
M  V30 40 O 7.00996 1.4459 7.59357 0
M  V30 41 C 6.06996 0.347608 7.69215 0
M  V30 42 C 6.79996 -0.96767 7.52806 0
M  V30 43 O 7.00996 -1.21036 6.1011 0
M  V30 44 C 8.19996 -1.04544 8.13308 0
M  V30 45 O 8.58996 -2.38311 8.41922 0
M  V30 46 C 9.07996 -0.491279 7.02284 0
M  V30 47 C 8.36996 -0.996264 5.77469 0
M  V30 48 N 8.41996 -0.0501916 4.62973 0
M  V30 49 H 5.58096 0.374722 8.67691 0
M  V30 50 H 5.31096 0.443485 6.90277 0
M  V30 51 H 6.17796 -1.75537 7.96793 0
M  V30 52 P 10.1399 -2.75334 8.47391 0
M  V30 53 O 10.3599 -3.84166 9.4489 0
M  V30 54 O 10.9299 -1.51964 8.6881 0
M  V30 55 O 10.3899 -3.29363 6.99321 0
M  V30 56 C 9.44994 -4.23956 6.42656 0
M  V30 57 C 10.1799 -5.20775 5.52155 0
M  V30 58 O 10.3899 -4.56534 4.22446 0
M  V30 59 C 11.5799 -5.62629 5.96531 0
M  V30 60 O 11.9699 -6.87667 5.41053 0
M  V30 61 C 12.4599 -4.52537 5.39283 0
M  V30 62 C 11.7499 -4.20027 4.08623 0
M  V30 63 N 11.7999 -2.7613 3.71522 0
M  V30 64 C 11.9499 -2.45612 2.37989 0
M  V30 65 O 12.0399 -3.30919 1.51621 0
M  V30 66 N 11.9899 -1.10684 2.08435 0
M  V30 67 C 11.8999 -0.0690084 2.9792 0
M  V30 68 O 11.9499 1.10553 2.59426 0
M  V30 69 C 11.7499 -0.481522 4.35345 0
M  V30 70 C 11.6399 0.618778 5.36443 0
M  V30 71 C 11.6999 -1.78906 4.67968 0
M  V30 72 H 8.95994 -4.797 7.24003 0
M  V30 73 H 8.69094 -3.69802 5.84429 0
M  V30 74 H 9.55794 -6.10356 5.41441 0
M  V30 75 H 12.2129 -4.78651 3.27911 0
M  V30 76 H 12.4919 -3.64957 6.05871 0
M  V30 77 H 13.4839 -4.8868 5.2125 0
M  V30 78 H 11.6499 -5.66726 7.06352 0
M  V30 79 H 11.5789 -2.07737 5.72367 0
M  V30 80 H 12.6089 0.754375 5.86871 0
M  V30 81 H 10.8719 0.359721 6.10641 0
M  V30 82 H 11.3599 1.55533 4.8581 0
M  V30 83 H 12.0959 -0.862651 1.12037 0
M  V30 84 P 13.5199 -7.20834 5.23717 0
M  V30 85 O 13.7399 -8.66104 5.38572 0
M  V30 86 O 14.3099 -6.33544 6.1349 0
M  V30 87 O 13.7699 -6.7751 3.72168 0
M  V30 88 C 12.8299 -7.20825 2.7076 0
M  V30 89 C 13.5599 -7.45864 1.40599 0
M  V30 90 O 13.7699 -6.17651 0.734225 0
M  V30 91 C 14.9599 -8.05808 1.51899 0
M  V30 92 O 15.3499 -8.74358 0.335205 0
M  V30 93 C 15.8399 -6.83093 1.70294 0
M  V30 94 C 15.1299 -5.79992 0.836974 0
M  V30 95 N 15.1799 -4.41864 1.38293 0
M  V30 96 H 12.3409 -8.13644 3.0377 0
M  V30 97 H 12.0709 -6.42788 2.55485 0
M  V30 98 H 12.9379 -8.12039 0.792769 0
M  V30 99 P 16.8999 -8.91 1.09116e-15 0
M  V30 100 O 17.1199 -10.1726 -0.733694 0
M  V30 101 O 17.6899 -8.73148 1.23936 0
M  V30 102 O 17.1499 -7.66872 -0.971405 0
M  V30 103 C 16.2099 -7.42309 -2.04641 0
M  V30 104 C 16.9399 -6.86059 -3.24661 0
M  V30 105 O 17.1499 -5.42847 -3.03646 0
M  V30 106 C 18.3399 -7.41196 -3.50753 0
M  V30 107 O 18.7299 -7.27073 -4.86816 0
M  V30 108 C 19.2199 -6.5273 -2.63741 0
M  V30 109 C 18.5099 -5.1842 -2.73198 0
M  V30 110 N 18.5599 -4.38762 -1.4784 0
M  V30 111 H 15.7209 -8.36803 -2.32493 0
M  V30 112 H 15.4509 -6.70197 -1.71129 0
M  V30 113 H 16.3179 -7.03551 -4.13168 0
M  V30 114 P 20.2799 -7.20834 -5.23717 0
M  V30 115 O 20.4999 -7.79853 -6.57286 0
M  V30 116 O 21.0699 -7.79239 -4.12957 0
M  V30 117 O 20.5299 -5.63315 -5.29344 0
M  V30 118 C 19.5899 -4.80255 -6.01876 0
M  V30 119 C 20.3199 -3.64202 -6.65911 0
M  V30 120 O 20.5299 -2.60694 -5.64732 0
M  V30 121 C 21.7199 -3.93473 -7.1943 0
M  V30 122 O 22.1099 -3.02071 -8.21205 0
M  V30 123 C 22.5999 -3.73047 -5.97036 0
M  V30 124 C 21.8899 -2.58828 -5.25741 0
M  V30 125 N 21.9399 -2.68068 -3.77503 0
M  V30 126 C 21.8599 -3.79715 -2.96723 0
M  V30 127 N 21.9399 -3.5377 -1.68852 0
M  V30 128 C 22.0799 -2.15054 -1.63254 0
M  V30 129 C 22.2099 -1.28964 -0.518571 0
M  V30 130 N 22.3299 0.0538097 -0.918425 0
M  V30 131 C 22.3299 0.494275 -2.22578 0
M  V30 132 N 22.4599 1.81086 -2.40434 0
M  V30 133 N 22.1999 -0.313645 -3.27502 0
M  V30 134 C 22.0799 -1.61829 -2.91033 0
M  V30 135 H 19.1009 -5.40332 -6.79951 0
M  V30 136 H 18.8309 -4.41613 -5.32378 0
M  V30 137 H 19.6979 -3.26331 -7.47797 0
M  V30 138 P 23.6599 -2.75334 -8.47391 0
M  V30 139 O 23.8799 -2.44571 -9.90142 0
M  V30 140 O 24.4499 -3.87688 -7.92115 0
M  V30 141 O 23.9099 -1.4459 -7.59357 0
M  V30 142 C 22.9699 -0.347608 -7.69215 0
M  V30 143 C 23.6999 0.96767 -7.52806 0
M  V30 144 O 23.9099 1.21036 -6.1011 0
M  V30 145 C 25.0999 1.04544 -8.13308 0
M  V30 146 O 25.4899 2.38311 -8.41922 0
M  V30 147 C 25.9799 0.491279 -7.02284 0
M  V30 148 C 25.2699 0.996264 -5.77469 0
M  V30 149 N 25.3199 0.0501916 -4.62973 0
M  V30 150 H 22.4809 -0.374722 -8.67691 0
M  V30 151 H 22.2109 -0.443485 -6.90277 0
M  V30 152 H 23.0779 1.75537 -7.96793 0
M  V30 153 P 27.0398 2.75334 -8.47391 0
M  V30 154 O 27.2598 3.84204 -9.44982 0
M  V30 155 O 27.8298 1.51982 -8.68909 0
M  V30 156 O 27.2898 3.29363 -6.99321 0
M  V30 157 C 26.3498 4.24066 -6.42823 0
M  V30 158 C 27.0798 5.20775 -5.52155 0
M  V30 159 O 27.2898 4.56607 -4.22514 0
M  V30 160 C 28.4798 5.62697 -5.96604 0
M  V30 161 O 28.8698 6.87667 -5.41053 0
M  V30 162 C 29.3598 4.52537 -5.39283 0
M  V30 163 C 28.6498 4.20027 -4.08623 0
M  V30 164 N 28.6998 2.76189 -3.71603 0
M  V30 165 H 25.8618 4.79756 -7.24086 0
M  V30 166 H 25.5898 3.69963 -5.84682 0
M  V30 167 H 26.4578 6.10431 -5.41508 0
M  V30 168 H 29.1128 4.78816 -3.28024 0
M  V30 169 H 29.3928 3.64957 -6.05871 0
M  V30 170 H 30.3838 4.88748 -5.21323 0
M  V30 171 H 28.5498 5.66789 -7.0643 0
M  V30 172 P 30.4198 7.20834 -5.23717 0
M  V30 173 O 30.6398 8.66104 -5.38572 0
M  V30 174 O 31.2098 6.33544 -6.1349 0
M  V30 175 O 30.6698 6.7751 -3.72168 0
M  V30 176 C 29.7298 7.20825 -2.7076 0
M  V30 177 C 30.4598 7.45864 -1.40599 0
M  V30 178 O 30.6698 6.17651 -0.734225 0
M  V30 179 C 31.8598 8.05808 -1.51899 0
M  V30 180 O 32.2498 8.74358 -0.335205 0
M  V30 181 C 32.7398 6.83093 -1.70294 0
M  V30 182 C 32.0298 5.79992 -0.836974 0
M  V30 183 N 32.0798 4.41864 -1.38293 0
M  V30 184 H 29.2408 8.13644 -3.0377 0
M  V30 185 H 28.9708 6.42788 -2.55485 0
M  V30 186 H 29.8378 8.12039 -0.792769 0
M  V30 187 P 33.7998 8.91 -2.18232e-15 0
M  V30 188 O 34.0198 10.1726 0.733694 0
M  V30 189 O 34.5898 8.73148 -1.23936 0
M  V30 190 O 34.0498 7.66872 0.971405 0
M  V30 191 C 33.1098 7.42309 2.04641 0
M  V30 192 C 33.8398 6.86059 3.24661 0
M  V30 193 O 34.0498 5.42847 3.03646 0
M  V30 194 C 35.2398 7.41196 3.50753 0
M  V30 195 O 35.6298 7.27073 4.86816 0
M  V30 196 C 36.1198 6.5273 2.63741 0
M  V30 197 C 35.4098 5.1842 2.73198 0
M  V30 198 N 35.4598 4.38762 1.4784 0
M  V30 199 H 32.6208 8.36803 2.32493 0
M  V30 200 H 32.3508 6.70197 1.71129 0
M  V30 201 H 33.2178 7.03551 4.13168 0
M  V30 202 P 37.1798 7.20834 5.23717 0
M  V30 203 O 37.3998 7.79853 6.57286 0
M  V30 204 O 37.9698 7.79239 4.12957 0
M  V30 205 O 37.4298 5.63315 5.29344 0
M  V30 206 C 36.4898 4.80255 6.01876 0
M  V30 207 C 37.2198 3.64202 6.65911 0
M  V30 208 O 37.4298 2.60694 5.64732 0
M  V30 209 C 38.6198 3.93473 7.1943 0
M  V30 210 O 39.0098 3.02071 8.21205 0
M  V30 211 C 39.4998 3.73047 5.97036 0
M  V30 212 C 38.7898 2.58828 5.25741 0
M  V30 213 N 38.8398 2.68068 3.77503 0
M  V30 214 H 36.0008 5.40332 6.79951 0
M  V30 215 H 35.7308 4.41613 5.32378 0
M  V30 216 H 36.5978 3.26331 7.47797 0
M  V30 217 P 40.5598 2.75334 8.47391 0
M  V30 218 O 40.7798 2.44571 9.90142 0
M  V30 219 O 41.3498 3.87688 7.92115 0
M  V30 220 O 40.8098 1.4459 7.59357 0
M  V30 221 C 39.8698 0.347608 7.69215 0
M  V30 222 C 40.5998 -0.96767 7.52806 0
M  V30 223 O 40.8098 -1.21036 6.1011 0
M  V30 224 C 41.9998 -1.04544 8.13308 0
M  V30 225 O 42.3898 -2.38311 8.41922 0
M  V30 226 C 42.8798 -0.491279 7.02284 0
M  V30 227 C 42.1698 -0.996264 5.77469 0
M  V30 228 N 42.2198 -0.0501916 4.62973 0
M  V30 229 H 39.3808 0.374722 8.67691 0
M  V30 230 H 39.1108 0.443485 6.90277 0
M  V30 231 H 39.9778 -1.75537 7.96793 0
M  V30 232 P 43.9397 -2.75334 8.47391 0
M  V30 233 O 44.1597 -3.84128 9.44797 0
M  V30 234 O 44.7297 -1.51947 8.68712 0
M  V30 235 O 44.1897 -3.29363 6.99321 0
M  V30 236 C 43.2497 -4.24011 6.4274 0
M  V30 237 C 43.9797 -5.20775 5.52155 0
M  V30 238 O 44.1897 -4.56534 4.22446 0
M  V30 239 C 45.3797 -5.62629 5.96531 0
M  V30 240 O 45.7697 -6.87667 5.41053 0
M  V30 241 C 46.2597 -4.52537 5.39283 0
M  V30 242 C 45.5497 -4.20027 4.08623 0
M  V30 243 N 45.5997 -2.76189 3.71603 0
M  V30 244 H 42.7607 -4.797 7.24003 0
M  V30 245 H 42.4907 -3.69856 5.84513 0
M  V30 246 H 43.3577 -6.10356 5.41441 0
M  V30 247 P 47.3197 -7.20834 5.23717 0
M  V30 248 O 47.5397 -8.66104 5.38572 0
M  V30 249 O 48.1097 -6.33544 6.1349 0
M  V30 250 O 47.5697 -6.7751 3.72168 0
M  V30 251 C 46.6297 -7.20825 2.7076 0
M  V30 252 C 47.3597 -7.45864 1.40599 0
M  V30 253 O 47.5697 -6.17651 0.734225 0
M  V30 254 C 48.7597 -8.05808 1.51899 0
M  V30 255 O 49.1497 -8.74358 0.335205 0
M  V30 256 C 49.6397 -6.83093 1.70294 0
M  V30 257 C 48.9297 -5.79992 0.836974 0
M  V30 258 N 48.9797 -4.41864 1.38293 0
M  V30 259 H 46.1407 -8.13644 3.0377 0
M  V30 260 H 45.8707 -6.42788 2.55485 0
M  V30 261 H 46.7377 -8.12039 0.792769 0
M  V30 262 P 50.6997 -8.91 3.27348e-15 0
M  V30 263 O 50.9197 -10.1726 -0.733694 0
M  V30 264 O 51.4897 -8.73148 1.23936 0
M  V30 265 O 50.9497 -7.66872 -0.971405 0
M  V30 266 C 50.0097 -7.42309 -2.04641 0
M  V30 267 C 50.7397 -6.86059 -3.24661 0
M  V30 268 O 50.9497 -5.42847 -3.03646 0
M  V30 269 C 52.1397 -7.41196 -3.50753 0
M  V30 270 O 52.5297 -7.27073 -4.86816 0
M  V30 271 C 53.0197 -6.5273 -2.63741 0
M  V30 272 C 52.3097 -5.1842 -2.73198 0
M  V30 273 N 52.3597 -4.38762 -1.4784 0
M  V30 274 H 49.5207 -8.36803 -2.32493 0
M  V30 275 H 49.2507 -6.70197 -1.71129 0
M  V30 276 H 50.1177 -7.03551 -4.13168 0
M  V30 277 P 54.0797 -7.20834 -5.23717 0
M  V30 278 O 54.2997 -7.79853 -6.57286 0
M  V30 279 O 54.8697 -7.79239 -4.12957 0
M  V30 280 O 54.3297 -5.63315 -5.29344 0
M  V30 281 C 53.3897 -4.80255 -6.01876 0
M  V30 282 C 54.1197 -3.64202 -6.65911 0
M  V30 283 O 54.3297 -2.60694 -5.64732 0
M  V30 284 C 55.5197 -3.93473 -7.1943 0
M  V30 285 O 55.9097 -3.02071 -8.21205 0
M  V30 286 C 56.3997 -3.73047 -5.97036 0
M  V30 287 C 55.6897 -2.58828 -5.25741 0
M  V30 288 N 55.7397 -2.68068 -3.77503 0
M  V30 289 H 52.9007 -5.40332 -6.79951 0
M  V30 290 H 52.6307 -4.41613 -5.32378 0
M  V30 291 H 53.4977 -3.26331 -7.47797 0
M  V30 292 P 57.4597 -2.75334 -8.47391 0
M  V30 293 O 57.6797 -2.44571 -9.90142 0
M  V30 294 O 58.2497 -3.87688 -7.92115 0
M  V30 295 O 57.7097 -1.4459 -7.59357 0
M  V30 296 C 56.7697 -0.347608 -7.69215 0
M  V30 297 C 57.4997 0.96767 -7.52806 0
M  V30 298 O 57.7097 1.21036 -6.1011 0
M  V30 299 C 58.8997 1.04544 -8.13308 0
M  V30 300 O 59.2897 2.38311 -8.41922 0
M  V30 301 C 59.7797 0.491279 -7.02284 0
M  V30 302 C 59.0697 0.996264 -5.77469 0
M  V30 303 N 59.1197 0.0501916 -4.62973 0
M  V30 304 H 56.2807 -0.374722 -8.67691 0
M  V30 305 H 56.0107 -0.443485 -6.90277 0
M  V30 306 H 56.8777 1.75537 -7.96793 0
M  V30 307 P 60.8396 2.75334 -8.47391 0
M  V30 308 O 61.0596 3.84128 -9.44797 0
M  V30 309 O 61.6296 1.51947 -8.68712 0
M  V30 310 O 61.0896 3.29363 -6.99321 0
M  V30 311 C 60.1496 4.24011 -6.4274 0
M  V30 312 C 60.8796 5.20775 -5.52155 0
M  V30 313 O 61.0896 4.56534 -4.22446 0
M  V30 314 C 62.2796 5.62629 -5.96531 0
M  V30 315 O 62.6696 6.87667 -5.41053 0
M  V30 316 C 63.1596 4.52537 -5.39283 0
M  V30 317 C 62.4496 4.20027 -4.08623 0
M  V30 318 N 62.4996 2.76189 -3.71603 0
M  V30 319 C 62.4196 1.64862 -4.52822 0
M  V30 320 N 62.4996 0.512671 -3.88633 0
M  V30 321 C 62.6396 0.888083 -2.54977 0
M  V30 322 C 62.7696 0.094668 -1.38677 0
M  V30 323 O 62.7896 -1.13053 -1.28163 0
M  V30 324 N 62.8896 0.890102 -0.232633 0
M  V30 325 C 62.8896 2.26958 -0.21772 0
M  V30 326 N 63.0196 2.84626 0.97925 0
M  V30 327 N 62.7596 3.0178 -1.31033 0
M  V30 328 C 62.6396 2.26781 -2.43843 0
M  V30 329 H 59.6606 4.797 -7.24003 0
M  V30 330 H 59.3906 3.69856 -5.84513 0
M  V30 331 H 60.2576 6.10356 -5.41441 0
M  V30 332 H 62.9126 4.79061 -3.27488 0
M  V30 333 H 63.1916 3.64906 -6.05785 0
M  V30 334 H 64.1836 4.8868 -5.2125 0
M  V30 335 H 62.3496 5.66726 -7.06352 0
M  V30 336 H 62.3006 1.71169 -5.60966 0
M  V30 337 H 62.9826 0.419134 0.644739 0
M  V30 338 H 63.0196 3.87332 1.06098 0
M  V30 339 H 63.1206 2.26417 1.82483 0
M  V30 340 P 64.2196 7.20834 -5.23717 0
M  V30 341 O 64.4396 8.66104 -5.38572 0
M  V30 342 O 65.0096 6.33544 -6.1349 0
M  V30 343 O 64.4696 6.7751 -3.72168 0
M  V30 344 C 63.5296 7.20825 -2.7076 0
M  V30 345 C 64.2596 7.45864 -1.40599 0
M  V30 346 O 64.4696 6.17651 -0.734225 0
M  V30 347 C 65.6596 8.05808 -1.51899 0
M  V30 348 O 66.0496 8.74358 -0.335205 0
M  V30 349 C 66.5396 6.83093 -1.70294 0
M  V30 350 C 65.8296 5.79992 -0.836974 0
M  V30 351 N 65.8796 4.41864 -1.38293 0
M  V30 352 H 63.0406 8.13644 -3.0377 0
M  V30 353 H 62.7706 6.42788 -2.55485 0
M  V30 354 H 63.6376 8.12039 -0.792769 0
M  V30 355 P 67.5996 8.91 -4.36464e-15 0
M  V30 356 O 67.8196 10.1726 0.733694 0
M  V30 357 O 68.3896 8.73148 -1.23936 0
M  V30 358 O 67.8496 7.66872 0.971405 0
M  V30 359 C 66.9096 7.42309 2.04641 0
M  V30 360 C 67.6396 6.86059 3.24661 0
M  V30 361 O 67.8496 5.42847 3.03646 0
M  V30 362 C 69.0396 7.41196 3.50753 0
M  V30 363 O 69.4296 7.27073 4.86816 0
M  V30 364 C 69.9196 6.5273 2.63741 0
M  V30 365 C 69.2096 5.1842 2.73198 0
M  V30 366 N 69.2596 4.38762 1.4784 0
M  V30 367 H 66.4206 8.36803 2.32493 0
M  V30 368 H 66.1506 6.70197 1.71129 0
M  V30 369 H 67.0176 7.03551 4.13168 0
M  V30 370 P 70.9796 7.20834 5.23717 0
M  V30 371 O 71.1996 7.79853 6.57286 0
M  V30 372 O 71.7696 7.79239 4.12957 0
M  V30 373 O 71.2296 5.63315 5.29344 0
M  V30 374 C 70.2896 4.80255 6.01876 0
M  V30 375 C 71.0196 3.64202 6.65911 0
M  V30 376 O 71.2296 2.60694 5.64732 0
M  V30 377 C 72.4196 3.93473 7.1943 0
M  V30 378 O 72.8096 3.02071 8.21205 0
M  V30 379 C 73.2996 3.73047 5.97036 0
M  V30 380 C 72.5896 2.58828 5.25741 0
M  V30 381 N 72.6396 2.68068 3.77503 0
M  V30 382 C 72.5596 3.79715 2.96723 0
M  V30 383 N 72.6396 3.5377 1.68852 0
M  V30 384 C 72.7796 2.15054 1.63254 0
M  V30 385 C 72.9096 1.28964 0.518571 0
M  V30 386 O 72.9296 1.56826 -0.679156 0
M  V30 387 N 73.0296 -0.0538097 0.918425 0
M  V30 388 C 73.0296 -0.494275 2.22578 0
M  V30 389 N 73.1596 -1.81086 2.40434 0
M  V30 390 N 72.8996 0.313645 3.27502 0
M  V30 391 C 72.7796 1.61829 2.91033 0
M  V30 392 H 69.8006 5.40332 6.79951 0
M  V30 393 H 69.5306 4.41613 5.32378 0
M  V30 394 H 70.3976 3.26331 7.47797 0
M  V30 395 H 73.0526 1.63422 5.56814 0
M  V30 396 H 73.3316 4.63374 5.34244 0
M  V30 397 H 74.3236 3.44728 6.25838 0
M  V30 398 H 72.4896 4.96652 7.57263 0
M  V30 399 H 72.4406 4.80617 3.3614 0
M  V30 400 H 73.1226 -0.742702 0.199384 0
M  V30 401 H 73.1596 -2.20598 3.35588 0
M  V30 402 H 73.2606 -2.43518 1.58945 0
M  V30 403 P 74.3596 2.75334 8.47391 0
M  V30 404 O 74.5796 2.44571 9.90142 0
M  V30 405 O 75.1496 3.87688 7.92115 0
M  V30 406 O 74.6096 1.4459 7.59357 0
M  V30 407 C 73.6696 0.347608 7.69215 0
M  V30 408 C 74.3996 -0.96767 7.52806 0
M  V30 409 O 74.6096 -1.21036 6.1011 0
M  V30 410 C 75.7996 -1.04544 8.13308 0
M  V30 411 O 76.1896 -2.38311 8.41922 0
M  V30 412 C 76.6796 -0.491279 7.02284 0
M  V30 413 C 75.9696 -0.996264 5.77469 0
M  V30 414 N 76.0196 -0.0501916 4.62973 0
M  V30 415 C 75.9396 1.32786 4.63244 0
M  V30 416 N 76.0196 1.86957 3.44545 0
M  V30 417 C 76.1596 0.780241 2.58481 0
M  V30 418 C 76.2896 0.738536 1.17757 0
M  V30 419 O 76.3096 1.66794 0.372349 0
M  V30 420 N 76.4096 -0.58337 0.711393 0
M  V30 421 C 76.4096 -1.70816 1.51017 0
M  V30 422 N 76.5396 -2.87826 0.880757 0
M  V30 423 N 76.2796 -1.67126 2.8339 0
M  V30 424 C 76.1596 -0.401421 3.30572 0
M  V30 425 H 73.1806 0.374722 8.67691 0
M  V30 426 H 72.9106 0.443485 6.90277 0
M  V30 427 H 73.7776 -1.75537 7.96793 0
M  V30 428 H 76.4326 -1.95076 5.46529 0
M  V30 429 H 76.7116 0.608565 7.04577 0
M  V30 430 H 77.7036 -0.889672 7.08939 0
M  V30 431 H 75.8696 -0.43308 9.04564 0
M  V30 432 H 75.8206 1.91249 5.54442 0
M  V30 433 H 76.5026 -0.718054 -0.275244 0
M  V30 434 H 76.5396 -3.75721 1.41832 0
M  V30 435 H 76.6406 -2.90436 -0.145468 0
M  V30 436 P 77.7395 -2.75334 8.47391 0
M  V30 437 O 77.9595 -3.84128 9.44797 0
M  V30 438 O 78.5295 -1.51947 8.68712 0
M  V30 439 O 77.9895 -3.29363 6.99321 0
M  V30 440 C 77.0495 -4.24011 6.4274 0
M  V30 441 C 77.7795 -5.20775 5.52155 0
M  V30 442 O 77.9895 -4.56534 4.22446 0
M  V30 443 C 79.1795 -5.62629 5.96531 0
M  V30 444 O 79.5695 -6.87667 5.41053 0
M  V30 445 C 80.0595 -4.52537 5.39283 0
M  V30 446 C 79.3495 -4.20027 4.08623 0
M  V30 447 N 79.3995 -2.76189 3.71603 0
M  V30 448 C 79.3195 -1.64862 4.52822 0
M  V30 449 N 79.3995 -0.512671 3.88633 0
M  V30 450 C 79.5395 -0.888083 2.54977 0
M  V30 451 C 79.6695 -0.094668 1.38677 0
M  V30 452 N 79.7895 -0.890102 0.232633 0
M  V30 453 C 79.7895 -2.26958 0.21772 0
M  V30 454 N 79.9195 -2.84626 -0.97925 0
M  V30 455 N 79.6595 -3.0178 1.31033 0
M  V30 456 C 79.5395 -2.26781 2.43843 0
M  V30 457 H 76.5605 -4.797 7.24003 0
M  V30 458 H 76.2905 -3.69856 5.84513 0
M  V30 459 H 77.1575 -6.10356 5.41441 0
M  V30 460 P 81.1195 -7.20834 5.23717 0
M  V30 461 O 81.3395 -8.66104 5.38572 0
M  V30 462 O 81.9095 -6.33544 6.1349 0
M  V30 463 O 81.3695 -6.7751 3.72168 0
M  V30 464 C 80.4295 -7.20825 2.7076 0
M  V30 465 C 81.1595 -7.45864 1.40599 0
M  V30 466 O 81.3695 -6.17651 0.734225 0
M  V30 467 C 82.5595 -8.05808 1.51899 0
M  V30 468 O 82.9495 -8.74358 0.335205 0
M  V30 469 C 83.4395 -6.83093 1.70294 0
M  V30 470 C 82.7295 -5.79992 0.836974 0
M  V30 471 N 82.7795 -4.41864 1.38293 0
M  V30 472 H 79.9405 -8.13644 3.0377 0
M  V30 473 H 79.6705 -6.42788 2.55485 0
M  V30 474 H 80.5375 -8.12039 0.792769 0
M  V30 475 P 84.4995 -8.91 5.4558e-15 0
M  V30 476 O 84.7195 -10.1736 -0.733766 0
M  V30 477 O 85.2895 -8.73247 1.2395 0
M  V30 478 O 84.7495 -7.66872 -0.971405 0
M  V30 479 C 83.8095 -7.42212 -2.04614 0
M  V30 480 C 84.5395 -6.86059 -3.24661 0
M  V30 481 O 84.7495 -5.42847 -3.03646 0
M  V30 482 C 85.9395 -7.41196 -3.50753 0
M  V30 483 O 86.3295 -7.27073 -4.86816 0
M  V30 484 C 86.8195 -6.5273 -2.63741 0
M  V30 485 C 86.1095 -5.1842 -2.73198 0
M  V30 486 N 86.1595 -4.38668 -1.47808 0
M  V30 487 C 86.3095 -3.02239 -1.60048 0
M  V30 488 O 86.3995 -2.46459 -2.67869 0
M  V30 489 N 86.3495 -2.32436 -0.408571 0
M  V30 490 C 86.2595 -2.85471 0.854993 0
M  V30 491 O 86.3095 -2.12566 1.8531 0
M  V30 492 C 86.1095 -4.28918 0.887335 0
M  V30 493 C 85.9995 -4.91066 2.24619 0
M  V30 494 C 86.0595 -5.00349 -0.255399 0
M  V30 495 H 83.3195 -8.36803 -2.32493 0
M  V30 496 H 83.0505 -6.701 -1.71105 0
M  V30 497 H 83.9175 -7.03551 -4.13168 0
M  V30 498 H 86.5725 -4.59773 -3.53894 0
M  V30 499 H 86.8515 -6.88995 -1.59871 0
M  V30 500 H 87.8435 -6.46749 -3.03687 0
M  V30 501 H 86.0095 -8.46908 -3.20714 0
M  V30 502 H 85.9385 -6.08548 -0.206986 0
M  V30 503 H 86.9685 -5.34836 2.53099 0
M  V30 504 H 85.2315 -5.69638 2.2291 0
M  V30 505 H 85.7195 -4.13971 2.98044 0
M  V30 506 H 86.4555 -1.33211 -0.474216 0
M  V30 507 P 87.8795 -7.20834 -5.23717 0
M  V30 508 O 88.0995 -7.79853 -6.57286 0
M  V30 509 O 88.6695 -7.79239 -4.12957 0
M  V30 510 O 88.1295 -5.63315 -5.29344 0
M  V30 511 C 87.1895 -4.80255 -6.01876 0
M  V30 512 C 87.9195 -3.64202 -6.65911 0
M  V30 513 O 88.1295 -2.60694 -5.64732 0
M  V30 514 C 89.3195 -3.93473 -7.1943 0
M  V30 515 O 89.7095 -3.02071 -8.21205 0
M  V30 516 C 90.1995 -3.73047 -5.97036 0
M  V30 517 C 89.4895 -2.58828 -5.25741 0
M  V30 518 N 89.5395 -2.68068 -3.77503 0
M  V30 519 H 86.7005 -5.40332 -6.79951 0
M  V30 520 H 86.4305 -4.41613 -5.32378 0
M  V30 521 H 87.2975 -3.26331 -7.47797 0
M  V30 522 P 91.2595 -2.75334 -8.47391 0
M  V30 523 O 91.4795 -2.44571 -9.90142 0
M  V30 524 O 92.0495 -3.87688 -7.92115 0
M  V30 525 O 91.5095 -1.4459 -7.59357 0
M  V30 526 C 90.5695 -0.347608 -7.69215 0
M  V30 527 C 91.2995 0.96767 -7.52806 0
M  V30 528 O 91.5095 1.21036 -6.1011 0
M  V30 529 C 92.6995 1.04544 -8.13308 0
M  V30 530 O 93.0895 2.38311 -8.41922 0
M  V30 531 C 93.5795 0.491279 -7.02284 0
M  V30 532 C 92.8695 0.996264 -5.77469 0
M  V30 533 N 92.9195 0.0501916 -4.62973 0
M  V30 534 H 90.0805 -0.374722 -8.67691 0
M  V30 535 H 89.8105 -0.443485 -6.90277 0
M  V30 536 H 90.6775 1.75537 -7.96793 0
M  V30 537 P 94.6394 2.75334 -8.47391 0
M  V30 538 O 94.8594 3.84128 -9.44797 0
M  V30 539 O 95.4294 1.51947 -8.68712 0
M  V30 540 O 94.8894 3.29363 -6.99321 0
M  V30 541 C 93.9494 4.24011 -6.4274 0
M  V30 542 C 94.6794 5.20775 -5.52155 0
M  V30 543 O 94.8894 4.56534 -4.22446 0
M  V30 544 C 96.0794 5.62629 -5.96531 0
M  V30 545 O 96.4694 6.87667 -5.41053 0
M  V30 546 C 96.9594 4.52537 -5.39283 0
M  V30 547 C 96.2494 4.20027 -4.08623 0
M  V30 548 N 96.2994 2.76189 -3.71603 0
M  V30 549 H 93.4604 4.797 -7.24003 0
M  V30 550 H 93.1904 3.69856 -5.84513 0
M  V30 551 H 94.0574 6.10356 -5.41441 0
M  V30 552 P 98.0194 7.20834 -5.23717 0
M  V30 553 O 98.2394 8.66104 -5.38572 0
M  V30 554 O 98.8094 6.33544 -6.1349 0
M  V30 555 O 98.2694 6.7751 -3.72168 0
M  V30 556 C 97.3294 7.20825 -2.7076 0
M  V30 557 C 98.0594 7.45864 -1.40599 0
M  V30 558 O 98.2694 6.17651 -0.734225 0
M  V30 559 C 99.4594 8.05808 -1.51899 0
M  V30 560 O 99.8494 8.74358 -0.335205 0
M  V30 561 C 100.339 6.83093 -1.70294 0
M  V30 562 C 99.6294 5.79992 -0.836974 0
M  V30 563 N 99.6794 4.41864 -1.38293 0
M  V30 564 H 96.8404 8.13644 -3.0377 0
M  V30 565 H 96.5704 6.42788 -2.55485 0
M  V30 566 H 97.4374 8.12039 -0.792769 0
M  V30 567 P 101.399 8.91 -6.54696e-15 0
M  V30 568 O 101.619 10.1726 0.733694 0
M  V30 569 O 102.189 8.73148 -1.23936 0
M  V30 570 O 101.649 7.66872 0.971405 0
M  V30 571 C 100.709 7.42309 2.04641 0
M  V30 572 C 101.439 6.86059 3.24661 0
M  V30 573 O 101.649 5.42847 3.03646 0
M  V30 574 C 102.839 7.41196 3.50753 0
M  V30 575 O 103.229 7.27073 4.86816 0
M  V30 576 C 103.719 6.5273 2.63741 0
M  V30 577 C 103.009 5.1842 2.73198 0
M  V30 578 N 103.059 4.38762 1.4784 0
M  V30 579 C 102.979 4.81605 0.168631 0
M  V30 580 N 103.059 3.85454 -0.713363 0
M  V30 581 C 103.199 2.6994 0.0566958 0
M  V30 582 C 103.329 1.34815 -0.338502 0
M  V30 583 O 103.349 0.869548 -1.47125 0
M  V30 584 N 103.449 0.496304 0.77465 0
M  V30 585 C 103.449 0.908403 2.09122 0
M  V30 586 N 103.579 -0.0517805 3.00955 0
M  V30 587 N 103.319 2.17875 2.46519 0
M  V30 588 C 103.199 3.01988 1.4033 0
M  V30 589 H 100.22 8.36803 2.32493 0
M  V30 590 H 99.9504 6.70197 1.71129 0
M  V30 591 H 100.817 7.03551 4.13168 0
M  V30 592 H 103.472 4.59498 3.54415 0
M  V30 593 H 103.751 6.88898 1.59848 0
M  V30 594 H 104.743 6.46749 3.03687 0
M  V30 595 H 102.909 8.46908 3.20714 0
M  V30 596 H 102.86 5.86405 -0.105564 0
M  V30 597 H 103.542 -0.483664 0.597855 0
M  V30 598 H 103.579 0.187865 4.0116 0
M  V30 599 H 103.68 -1.03585 2.71726 0
M  V30 600 P 104.779 7.20834 5.23717 0
M  V30 601 O 104.999 7.79853 6.57286 0
M  V30 602 O 105.569 7.79239 4.12957 0
M  V30 603 O 105.029 5.63315 5.29344 0
M  V30 604 C 104.089 4.80255 6.01876 0
M  V30 605 C 104.819 3.64202 6.65911 0
M  V30 606 O 105.029 2.60694 5.64732 0
M  V30 607 C 106.219 3.93473 7.1943 0
M  V30 608 O 106.609 3.02071 8.21205 0
M  V30 609 C 107.099 3.73047 5.97036 0
M  V30 610 C 106.389 2.58828 5.25741 0
M  V30 611 N 106.439 2.68068 3.77503 0
M  V30 612 H 103.6 5.40332 6.79951 0
M  V30 613 H 103.33 4.41613 5.32378 0
M  V30 614 H 104.197 3.26331 7.47797 0
M  V30 615 P 108.159 2.75334 8.47391 0
M  V30 616 O 108.379 2.44571 9.90142 0
M  V30 617 O 108.949 3.87688 7.92115 0
M  V30 618 O 108.409 1.4459 7.59357 0
M  V30 619 C 107.469 0.347608 7.69215 0
M  V30 620 C 108.199 -0.96767 7.52806 0
M  V30 621 O 108.409 -1.21036 6.1011 0
M  V30 622 C 109.599 -1.04544 8.13308 0
M  V30 623 O 109.989 -2.38311 8.41922 0
M  V30 624 C 110.479 -0.491279 7.02284 0
M  V30 625 C 109.769 -0.996264 5.77469 0
M  V30 626 N 109.819 -0.0501916 4.62973 0
M  V30 627 H 106.98 0.374722 8.67691 0
M  V30 628 H 106.71 0.443485 6.90277 0
M  V30 629 H 107.577 -1.75537 7.96793 0
M  V30 630 P 111.539 -2.75334 8.47391 0
M  V30 631 O 111.759 -3.84128 9.44797 0
M  V30 632 O 112.329 -1.51947 8.68712 0
M  V30 633 O 111.789 -3.29363 6.99321 0
M  V30 634 C 110.849 -4.24011 6.4274 0
M  V30 635 C 111.579 -5.20775 5.52155 0
M  V30 636 O 111.789 -4.56534 4.22446 0
M  V30 637 C 112.979 -5.62629 5.96531 0
M  V30 638 O 113.369 -6.87667 5.41053 0
M  V30 639 C 113.859 -4.52537 5.39283 0
M  V30 640 C 113.149 -4.20027 4.08623 0
M  V30 641 N 113.199 -2.76189 3.71603 0
M  V30 642 H 110.36 -4.797 7.24003 0
M  V30 643 H 110.09 -3.69856 5.84513 0
M  V30 644 H 110.957 -6.10356 5.41441 0
M  V30 645 P 114.919 -7.20834 5.23717 0
M  V30 646 O 115.139 -8.66104 5.38572 0
M  V30 647 O 115.709 -6.33544 6.1349 0
M  V30 648 O 115.169 -6.7751 3.72168 0
M  V30 649 C 114.229 -7.20825 2.7076 0
M  V30 650 C 114.959 -7.45864 1.40599 0
M  V30 651 O 115.169 -6.17651 0.734225 0
M  V30 652 C 116.359 -8.05808 1.51899 0
M  V30 653 O 116.749 -8.74358 0.335205 0
M  V30 654 C 117.239 -6.83093 1.70294 0
M  V30 655 C 116.529 -5.79992 0.836974 0
M  V30 656 N 116.579 -4.41864 1.38293 0
M  V30 657 H 113.74 -8.13644 3.0377 0
M  V30 658 H 113.47 -6.42788 2.55485 0
M  V30 659 H 114.337 -8.12039 0.792769 0
M  V30 660 P 118.299 -8.91 7.63812e-15 0
M  V30 661 O 118.519 -10.1726 -0.733694 0
M  V30 662 O 119.089 -8.73148 1.23936 0
M  V30 663 O 118.549 -7.66872 -0.971405 0
M  V30 664 C 117.609 -7.42309 -2.04641 0
M  V30 665 C 118.339 -6.86059 -3.24661 0
M  V30 666 O 118.549 -5.42847 -3.03646 0
M  V30 667 C 119.739 -7.41196 -3.50753 0
M  V30 668 O 120.129 -7.27073 -4.86816 0
M  V30 669 C 120.619 -6.5273 -2.63741 0
M  V30 670 C 119.909 -5.1842 -2.73198 0
M  V30 671 N 119.959 -4.38762 -1.4784 0
M  V30 672 H 117.12 -8.36803 -2.32493 0
M  V30 673 H 116.85 -6.70197 -1.71129 0
M  V30 674 H 117.717 -7.03551 -4.13168 0
M  V30 675 P 121.679 -7.20834 -5.23717 0
M  V30 676 O 121.899 -7.79853 -6.57286 0
M  V30 677 O 122.469 -7.79239 -4.12957 0
M  V30 678 O 121.929 -5.63315 -5.29344 0
M  V30 679 C 120.989 -4.80255 -6.01876 0
M  V30 680 C 121.719 -3.64202 -6.65911 0
M  V30 681 O 121.929 -2.60694 -5.64732 0
M  V30 682 C 123.119 -3.93473 -7.1943 0
M  V30 683 O 123.509 -3.02071 -8.21205 0
M  V30 684 C 123.999 -3.73047 -5.97036 0
M  V30 685 C 123.289 -2.58828 -5.25741 0
M  V30 686 N 123.339 -2.68068 -3.77503 0
M  V30 687 H 120.5 -5.40332 -6.79951 0
M  V30 688 H 120.23 -4.41613 -5.32378 0
M  V30 689 H 121.097 -3.26331 -7.47797 0
M  V30 690 P 125.059 -2.75334 -8.47391 0
M  V30 691 O 125.279 -2.44619 -9.90336 0
M  V30 692 O 125.849 -3.87776 -7.92294 0
M  V30 693 O 125.309 -1.4459 -7.59357 0
M  V30 694 C 124.369 -0.347653 -7.69315 0
M  V30 695 C 125.099 0.96767 -7.52806 0
M  V30 696 O 125.309 1.21055 -6.10208 0
M  V30 697 C 126.499 1.04557 -8.13408 0
M  V30 698 O 126.889 2.38311 -8.41922 0
M  V30 699 C 127.379 0.491279 -7.02284 0
M  V30 700 C 126.669 0.996264 -5.77469 0
M  V30 701 N 126.719 0.0501916 -4.62973 0
M  V30 702 C 126.639 -1.31969 -4.65661 0
M  V30 703 N 126.709 -1.86649 -3.48119 0
M  V30 704 C 126.859 -0.792089 -2.62406 0
M  V30 705 C 126.989 -0.705684 -1.2207 0
M  V30 706 N 126.999 -1.76207 -0.413762 0
M  V30 707 N 127.109 0.518981 -0.685754 0
M  V30 708 C 127.099 1.57595 -1.49174 0
M  V30 709 N 126.979 1.62909 -2.80066 0
M  V30 710 C 126.859 0.388195 -3.3073 0
M  V30 711 H 123.881 -0.374765 -8.67791 0
M  V30 712 H 123.609 -0.443613 -6.90476 0
M  V30 713 H 124.477 1.75559 -7.96891 0
M  V30 714 H 127.132 1.94563 -5.46818 0
M  V30 715 H 127.412 -0.608651 -7.04676 0
M  V30 716 H 128.403 0.889796 -7.09039 0
M  V30 717 H 126.569 0.433128 -9.04664 0
M  V30 718 H 126.528 -1.89246 -5.57664 0
M  V30 719 H 126.909 -2.71005 -0.804694 0
M  V30 720 H 127.098 -1.63189 0.603768 0
M  V30 721 H 127.206 2.53475 -0.997614 0
M  V30 722 P 128.439 2.75334 -8.47391 0
M  V30 723 O 128.659 3.84128 -9.44797 0
M  V30 724 O 129.229 1.51947 -8.68712 0
M  V30 725 O 128.689 3.29363 -6.99321 0
M  V30 726 C 127.749 4.24011 -6.4274 0
M  V30 727 C 128.479 5.20775 -5.52155 0
M  V30 728 O 128.689 4.56534 -4.22446 0
M  V30 729 C 129.879 5.62629 -5.96531 0
M  V30 730 O 130.269 6.87667 -5.41053 0
M  V30 731 C 130.759 4.52537 -5.39283 0
M  V30 732 C 130.049 4.20027 -4.08623 0
M  V30 733 N 130.099 2.76189 -3.71603 0
M  V30 734 H 127.26 4.797 -7.24003 0
M  V30 735 H 126.99 3.69856 -5.84513 0
M  V30 736 H 127.857 6.10356 -5.41441 0
M  V30 737 P 131.819 7.20834 -5.23717 0
M  V30 738 O 132.039 8.66104 -5.38572 0
M  V30 739 O 132.609 6.33544 -6.1349 0
M  V30 740 O 132.069 6.7751 -3.72168 0
M  V30 741 C 131.129 7.20825 -2.7076 0
M  V30 742 C 131.859 7.45864 -1.40599 0
M  V30 743 O 132.069 6.17651 -0.734225 0
M  V30 744 C 133.259 8.05808 -1.51899 0
M  V30 745 O 133.649 8.74358 -0.335205 0
M  V30 746 C 134.139 6.83093 -1.70294 0
M  V30 747 C 133.429 5.79992 -0.836974 0
M  V30 748 N 133.479 4.41864 -1.38293 0
M  V30 749 C 133.399 3.99538 -2.69438 0
M  V30 750 N 133.479 2.69909 -2.84277 0
M  V30 751 C 133.619 2.21719 -1.5408 0
M  V30 752 C 133.749 0.891712 -1.06628 0
M  V30 753 O 133.769 -0.161298 -1.70137 0
M  V30 754 N 133.869 0.856846 0.334985 0
M  V30 755 C 133.869 1.9641 1.15789 0
M  V30 756 N 133.999 1.72708 2.46522 0
M  V30 757 N 133.739 3.21165 0.713741 0
M  V30 758 C 133.619 3.26797 -0.639748 0
M  V30 759 H 130.64 8.13644 -3.0377 0
M  V30 760 H 130.37 6.42788 -2.55485 0
M  V30 761 H 131.237 8.12039 -0.792769 0
M  V30 762 H 133.892 5.80061 0.166416 0
M  V30 763 H 134.171 6.51287 -2.75604 0
M  V30 764 H 135.163 7.01734 -1.34462 0
M  V30 765 H 133.329 8.73674 -2.38337 0
M  V30 766 H 133.28 4.68207 -3.53221 0
M  V30 767 H 133.962 -0.0398818 0.767965 0
M  V30 768 H 133.999 2.50995 3.13503 0
M  V30 769 H 134.1 0.759148 2.80716 0
M  V30 770 P 135.199 8.91 -8.72928e-15 0
M  V30 771 O 135.419 10.1736 0.733766 0
M  V30 772 O 135.989 8.73247 -1.2395 0
M  V30 773 O 135.449 7.66872 0.971405 0
M  V30 774 C 134.509 7.42212 2.04614 0
M  V30 775 C 135.239 6.86059 3.24661 0
M  V30 776 O 135.449 5.42847 3.03646 0
M  V30 777 C 136.639 7.41196 3.50753 0
M  V30 778 O 137.029 7.27073 4.86816 0
M  V30 779 C 137.519 6.5273 2.63741 0
M  V30 780 C 136.809 5.1842 2.73198 0
M  V30 781 N 136.859 4.38668 1.47808 0
M  V30 782 C 137.009 3.02239 1.60048 0
M  V30 783 O 137.099 2.46459 2.67869 0
M  V30 784 N 137.049 2.32436 0.408571 0
M  V30 785 C 136.959 2.85471 -0.854993 0
M  V30 786 O 137.009 2.12566 -1.8531 0
M  V30 787 C 136.809 4.28918 -0.887335 0
M  V30 788 C 136.699 4.91066 -2.24619 0
M  V30 789 C 136.759 5.00349 0.255399 0
M  V30 790 H 134.019 8.36803 2.32493 0
M  V30 791 H 133.75 6.701 1.71105 0
M  V30 792 H 134.617 7.03551 4.13168 0
M  V30 793 H 137.272 4.59773 3.53894 0
M  V30 794 H 137.551 6.88995 1.59871 0
M  V30 795 H 138.543 6.46749 3.03687 0
M  V30 796 H 136.709 8.46908 3.20714 0
M  V30 797 H 136.638 6.08548 0.206986 0
M  V30 798 H 137.668 5.34836 -2.53099 0
M  V30 799 H 135.931 5.69638 -2.2291 0
M  V30 800 H 136.419 4.13971 -2.98044 0
M  V30 801 H 137.155 1.33211 0.474216 0
M  V30 802 P 138.579 7.20834 5.23717 0
M  V30 803 O 138.799 7.79853 6.57286 0
M  V30 804 O 139.369 7.79239 4.12957 0
M  V30 805 O 138.829 5.63315 5.29344 0
M  V30 806 C 137.889 4.80255 6.01876 0
M  V30 807 C 138.619 3.64202 6.65911 0
M  V30 808 O 138.829 2.60694 5.64732 0
M  V30 809 C 140.019 3.93473 7.1943 0
M  V30 810 O 140.409 3.02071 8.21205 0
M  V30 811 C 140.899 3.73047 5.97036 0
M  V30 812 C 140.189 2.58828 5.25741 0
M  V30 813 N 140.239 2.68068 3.77503 0
M  V30 814 H 137.4 5.40332 6.79951 0
M  V30 815 H 137.13 4.41613 5.32378 0
M  V30 816 H 137.997 3.26331 7.47797 0
M  V30 817 P 141.959 2.75334 8.47391 0
M  V30 818 O 142.179 2.44571 9.90142 0
M  V30 819 O 142.749 3.87688 7.92115 0
M  V30 820 O 142.209 1.4459 7.59357 0
M  V30 821 C 141.269 0.347608 7.69215 0
M  V30 822 C 141.999 -0.96767 7.52806 0
M  V30 823 O 142.209 -1.21036 6.1011 0
M  V30 824 C 143.399 -1.04544 8.13308 0
M  V30 825 O 143.789 -2.38311 8.41922 0
M  V30 826 C 144.279 -0.491279 7.02284 0
M  V30 827 C 143.569 -0.996264 5.77469 0
M  V30 828 N 143.619 -0.0501916 4.62973 0
M  V30 829 H 140.78 0.374722 8.67691 0
M  V30 830 H 140.51 0.443485 6.90277 0
M  V30 831 H 141.377 -1.75537 7.96793 0
M  V30 832 P 145.339 -2.75334 8.47391 0
M  V30 833 O 145.559 -3.84128 9.44797 0
M  V30 834 O 146.129 -1.51947 8.68712 0
M  V30 835 O 145.589 -3.29363 6.99321 0
M  V30 836 C 144.649 -4.24011 6.4274 0
M  V30 837 C 145.379 -5.20775 5.52155 0
M  V30 838 O 145.589 -4.56534 4.22446 0
M  V30 839 C 146.779 -5.62629 5.96531 0
M  V30 840 O 147.169 -6.87667 5.41053 0
M  V30 841 C 147.659 -4.52537 5.39283 0
M  V30 842 C 146.949 -4.20027 4.08623 0
M  V30 843 N 146.999 -2.76189 3.71603 0
M  V30 844 H 144.16 -4.797 7.24003 0
M  V30 845 H 143.89 -3.69856 5.84513 0
M  V30 846 H 144.757 -6.10356 5.41441 0
M  V30 847 P 148.719 -7.20834 5.23717 0
M  V30 848 O 148.939 -8.66189 5.38625 0
M  V30 849 O 149.509 -6.33615 6.1356 0
M  V30 850 O 148.969 -6.7751 3.72168 0
M  V30 851 C 148.029 -7.20732 2.70725 0
M  V30 852 C 148.759 -7.45864 1.40599 0
M  V30 853 O 148.969 -6.17651 0.734225 0
M  V30 854 C 150.159 -8.05808 1.51899 0
M  V30 855 O 150.549 -8.74358 0.335205 0
M  V30 856 C 151.039 -6.83093 1.70294 0
M  V30 857 C 150.329 -5.79992 0.836974 0
M  V30 858 N 150.379 -4.41769 1.38263 0
M  V30 859 C 150.529 -3.38591 0.481702 0
M  V30 860 O 150.619 -3.56839 -0.718452 0
M  V30 861 N 150.569 -2.1206 1.03569 0
M  V30 862 C 150.479 -1.80696 2.36966 0
M  V30 863 O 150.529 -0.630473 2.74862 0
M  V30 864 C 150.329 -2.94845 3.23898 0
M  V30 865 C 150.219 -2.65253 4.70362 0
M  V30 866 C 150.279 -4.19803 2.73435 0
M  V30 867 H 147.539 -8.13644 3.0377 0
M  V30 868 H 147.27 -6.42695 2.55448 0
M  V30 869 H 148.137 -8.12039 0.792769 0
M  V30 870 H 150.792 -5.79978 -0.160587 0
M  V30 871 H 151.071 -6.51379 2.75643 0
M  V30 872 H 152.063 -7.01734 1.34462 0
M  V30 873 H 150.229 -8.73674 2.38337 0
M  V30 874 H 150.158 -5.04492 3.4095 0
M  V30 875 H 151.188 -2.83924 5.1913 0
M  V30 876 H 149.451 -3.29824 5.15163 0
M  V30 877 H 149.939 -1.59723 4.84449 0
M  V30 878 H 150.675 -1.35644 0.399345 0
M  V30 879 P 152.099 -8.91 9.82044e-15 0
M  V30 880 O 152.319 -10.1726 -0.733694 0
M  V30 881 O 152.889 -8.73148 1.23936 0
M  V30 882 O 152.349 -7.66872 -0.971405 0
M  V30 883 C 151.409 -7.42309 -2.04641 0
M  V30 884 C 152.139 -6.86059 -3.24661 0
M  V30 885 O 152.349 -5.42847 -3.03646 0
M  V30 886 C 153.539 -7.41196 -3.50753 0
M  V30 887 O 153.929 -7.27073 -4.86816 0
M  V30 888 C 154.419 -6.5273 -2.63741 0
M  V30 889 C 153.709 -5.1842 -2.73198 0
M  V30 890 N 153.759 -4.38762 -1.4784 0
M  V30 891 C 153.679 -4.81605 -0.168631 0
M  V30 892 N 153.759 -3.85454 0.713363 0
M  V30 893 C 153.899 -2.6994 -0.0566958 0
M  V30 894 C 154.029 -1.34815 0.338502 0
M  V30 895 O 154.049 -0.869548 1.47125 0
M  V30 896 N 154.149 -0.496304 -0.77465 0
M  V30 897 C 154.149 -0.908403 -2.09122 0
M  V30 898 N 154.279 0.0517805 -3.00955 0
M  V30 899 N 154.019 -2.17875 -2.46519 0
M  V30 900 C 153.899 -3.01988 -1.4033 0
M  V30 901 H 150.92 -8.36803 -2.32493 0
M  V30 902 H 150.65 -6.70197 -1.71129 0
M  V30 903 H 151.517 -7.03551 -4.13168 0
M  V30 904 H 154.172 -4.59498 -3.54415 0
M  V30 905 H 154.451 -6.88898 -1.59848 0
M  V30 906 H 155.443 -6.46749 -3.03687 0
M  V30 907 H 153.609 -8.46908 -3.20714 0
M  V30 908 H 153.56 -5.86405 0.105564 0
M  V30 909 H 154.242 0.483664 -0.597855 0
M  V30 910 H 154.279 -0.187865 -4.0116 0
M  V30 911 H 154.38 1.03585 -2.71726 0
M  V30 912 P 155.479 -7.20834 -5.23717 0
M  V30 913 O 155.699 -7.7993 -6.57351 0
M  V30 914 O 156.269 -7.79328 -4.13004 0
M  V30 915 O 155.729 -5.63315 -5.29344 0
M  V30 916 C 154.789 -4.80193 -6.01798 0
M  V30 917 C 155.519 -3.64202 -6.65911 0
M  V30 918 O 155.729 -2.60694 -5.64732 0
M  V30 919 C 156.919 -3.93473 -7.1943 0
M  V30 920 O 157.309 -3.02071 -8.21205 0
M  V30 921 C 157.799 -3.73047 -5.97036 0
M  V30 922 C 157.089 -2.58828 -5.25741 0
M  V30 923 N 157.139 -2.6801 -3.77422 0
M  V30 924 C 157.289 -1.50443 -3.07133 0
M  V30 925 O 157.379 -0.419406 -3.61576 0
M  V30 926 N 157.329 -1.6403 -1.69677 0
M  V30 927 C 157.239 -2.81206 -0.986255 0
M  V30 928 O 157.289 -2.80892 0.249754 0
M  V30 929 C 157.089 -3.99158 -1.80325 0
M  V30 930 C 156.979 -5.29309 -1.06921 0
M  V30 931 C 157.039 -3.89779 -3.1476 0
M  V30 932 H 154.299 -5.40332 -6.79951 0
M  V30 933 H 154.03 -4.41549 -5.32301 0
M  V30 934 H 154.897 -3.26331 -7.47797 0
M  V30 935 H 157.552 -1.6395 -5.56554 0
M  V30 936 H 157.831 -4.63439 -5.3432 0
M  V30 937 H 158.823 -3.44728 -6.25838 0
M  V30 938 H 156.989 -4.96652 -7.57263 0
M  V30 939 H 156.918 -4.80159 -3.74441 0
M  V30 940 H 157.948 -5.81459 -1.09608 0
M  V30 941 H 156.211 -5.9187 -1.54487 0
M  V30 942 H 156.699 -5.10095 -0.0220288 0
M  V30 943 H 157.435 -0.798962 -1.16664 0
M  V30 944 P 158.859 -2.75334 -8.47391 0
M  V30 945 O 159.079 -2.44571 -9.90142 0
M  V30 946 O 159.649 -3.87688 -7.92115 0
M  V30 947 O 159.109 -1.4459 -7.59357 0
M  V30 948 C 158.169 -0.347608 -7.69215 0
M  V30 949 C 158.899 0.96767 -7.52806 0
M  V30 950 O 159.109 1.21036 -6.1011 0
M  V30 951 C 160.299 1.04544 -8.13308 0
M  V30 952 O 160.689 2.38311 -8.41922 0
M  V30 953 C 161.179 0.491279 -7.02284 0
M  V30 954 C 160.469 0.996264 -5.77469 0
M  V30 955 N 160.519 0.0501916 -4.62973 0
M  V30 956 H 157.68 -0.374722 -8.67691 0
M  V30 957 H 157.41 -0.443485 -6.90277 0
M  V30 958 H 158.277 1.75537 -7.96793 0
M  V30 959 P 162.239 2.75334 -8.47391 0
M  V30 960 O 162.459 3.84128 -9.44797 0
M  V30 961 O 163.029 1.51947 -8.68712 0
M  V30 962 O 162.489 3.29363 -6.99321 0
M  V30 963 C 161.549 4.24011 -6.4274 0
M  V30 964 C 162.279 5.20775 -5.52155 0
M  V30 965 O 162.489 4.56534 -4.22446 0
M  V30 966 C 163.679 5.62629 -5.96531 0
M  V30 967 O 164.069 6.87667 -5.41053 0
M  V30 968 C 164.559 4.52537 -5.39283 0
M  V30 969 C 163.849 4.20027 -4.08623 0
M  V30 970 N 163.899 2.76189 -3.71603 0
M  V30 971 H 161.06 4.797 -7.24003 0
M  V30 972 H 160.79 3.69856 -5.84513 0
M  V30 973 H 161.657 6.10356 -5.41441 0
M  V30 974 P 165.619 7.20834 -5.23717 0
M  V30 975 O 165.839 8.66104 -5.38572 0
M  V30 976 O 166.409 6.33544 -6.1349 0
M  V30 977 O 165.869 6.7751 -3.72168 0
M  V30 978 C 164.929 7.20825 -2.7076 0
M  V30 979 C 165.659 7.45864 -1.40599 0
M  V30 980 O 165.869 6.17651 -0.734225 0
M  V30 981 C 167.059 8.05808 -1.51899 0
M  V30 982 O 167.449 8.74358 -0.335205 0
M  V30 983 C 167.939 6.83093 -1.70294 0
M  V30 984 C 167.229 5.79992 -0.836974 0
M  V30 985 N 167.279 4.41864 -1.38293 0
M  V30 986 H 164.44 8.13644 -3.0377 0
M  V30 987 H 164.17 6.42788 -2.55485 0
M  V30 988 H 165.037 8.12039 -0.792769 0
M  V30 989 P 168.999 8.91 -1.09116e-14 0
M  V30 990 O 169.219 10.1746 0.733838 0
M  V30 991 O 169.789 8.73346 -1.23964 0
M  V30 992 O 169.249 7.66872 0.971405 0
M  V30 993 C 168.309 7.42405 2.04668 0
M  V30 994 C 169.039 6.86059 3.24661 0
M  V30 995 O 169.249 5.42934 3.03695 0
M  V30 996 C 170.439 7.41287 3.50796 0
M  V30 997 O 170.829 7.27073 4.86816 0
M  V30 998 C 171.319 6.5273 2.63741 0
M  V30 999 C 170.609 5.1842 2.73198 0
M  V30 1000 N 170.659 4.38762 1.4784 0
M  V30 1001 H 167.821 8.36899 2.3252 0
M  V30 1002 H 167.549 6.70391 1.71179 0
M  V30 1003 H 168.417 7.03638 4.13219 0
M  V30 1004 H 171.072 4.59931 3.54016 0
M  V30 1005 H 171.352 6.88995 1.59871 0
M  V30 1006 H 172.343 6.4684 3.0373 0
M  V30 1007 H 170.509 8.47002 3.20749 0
M  V30 1008 P 172.379 7.20834 5.23717 0
M  V30 1009 O 172.599 7.79853 6.57286 0
M  V30 1010 O 173.169 7.79239 4.12957 0
M  V30 1011 O 172.629 5.63315 5.29344 0
M  V30 1012 C 171.689 4.80255 6.01876 0
M  V30 1013 C 172.419 3.64202 6.65911 0
M  V30 1014 O 172.629 2.60694 5.64732 0
M  V30 1015 C 173.819 3.93473 7.1943 0
M  V30 1016 O 174.209 3.02071 8.21205 0
M  V30 1017 C 174.699 3.73047 5.97036 0
M  V30 1018 C 173.989 2.58828 5.25741 0
M  V30 1019 N 174.039 2.68068 3.77503 0
M  V30 1020 H 171.2 5.40332 6.79951 0
M  V30 1021 H 170.93 4.41613 5.32378 0
M  V30 1022 H 171.797 3.26331 7.47797 0
M  V30 1023 P 175.759 2.75334 8.47391 0
M  V30 1024 O 175.979 2.44619 9.90336 0
M  V30 1025 O 176.549 3.87776 7.92294 0
M  V30 1026 O 176.009 1.4459 7.59357 0
M  V30 1027 C 175.069 0.347653 7.69315 0
M  V30 1028 C 175.799 -0.96767 7.52806 0
M  V30 1029 O 176.009 -1.21055 6.10208 0
M  V30 1030 C 177.199 -1.04557 8.13408 0
M  V30 1031 O 177.589 -2.38311 8.41922 0
M  V30 1032 C 178.079 -0.491279 7.02284 0
M  V30 1033 C 177.369 -0.996264 5.77469 0
M  V30 1034 N 177.419 -0.0501916 4.62973 0
M  V30 1035 H 174.581 0.374765 8.67791 0
M  V30 1036 H 174.309 0.443613 6.90476 0
M  V30 1037 H 175.177 -1.75559 7.96891 0
M  V30 1038 H 177.832 -1.94563 5.46818 0
M  V30 1039 H 178.112 0.608651 7.04676 0
M  V30 1040 H 179.103 -0.889796 7.09039 0
M  V30 1041 H 177.269 -0.433128 9.04664 0
M  V30 1042 P 179.139 -2.75334 8.47391 0
M  V30 1043 O 179.359 -3.84128 9.44797 0
M  V30 1044 O 179.929 -1.51947 8.68712 0
M  V30 1045 O 179.389 -3.29363 6.99321 0
M  V30 1046 C 178.449 -4.24011 6.4274 0
M  V30 1047 C 179.179 -5.20775 5.52155 0
M  V30 1048 O 179.389 -4.56534 4.22446 0
M  V30 1049 C 180.579 -5.62629 5.96531 0
M  V30 1050 O 180.969 -6.87667 5.41053 0
M  V30 1051 C 181.459 -4.52537 5.39283 0
M  V30 1052 C 180.749 -4.20027 4.08623 0
M  V30 1053 N 180.799 -2.76189 3.71603 0
M  V30 1054 H 177.96 -4.797 7.24003 0
M  V30 1055 H 177.69 -3.69856 5.84513 0
M  V30 1056 H 178.557 -6.10356 5.41441 0
M  V30 1057 P 182.519 -7.20834 5.23717 0
M  V30 1058 O 182.739 -8.66274 5.38678 0
M  V30 1059 O 183.309 -6.33687 6.13629 0
M  V30 1060 O 182.769 -6.7751 3.72168 0
M  V30 1061 C 181.829 -7.20919 2.70795 0
M  V30 1062 C 182.559 -7.45864 1.40599 0
M  V30 1063 O 182.769 -6.17751 0.734343 0
M  V30 1064 C 183.959 -8.05906 1.51917 0
M  V30 1065 O 184.349 -8.74358 0.335205 0
M  V30 1066 C 184.839 -6.83093 1.70294 0
M  V30 1067 C 184.129 -5.79992 0.836974 0
M  V30 1068 N 184.179 -4.41864 1.38293 0
M  V30 1069 C 184.099 -4.02089 2.69407 0
M  V30 1070 N 184.169 -2.73403 2.85089 0
M  V30 1071 C 184.319 -2.25086 1.5642 0
M  V30 1072 C 184.449 -0.942887 1.04836 0
M  V30 1073 N 184.459 0.150999 1.80369 0
M  V30 1074 N 184.569 -0.812565 -0.28167 0
M  V30 1075 C 184.559 -1.90572 -1.03784 0
M  V30 1076 N 184.439 -3.167 -0.683905 0
M  V30 1077 C 184.319 -3.26538 0.652815 0
M  V30 1078 H 181.341 -8.13738 3.03804 0
M  V30 1079 H 181.069 -6.42974 2.55559 0
M  V30 1080 H 181.937 -8.12139 0.792866 0
M  V30 1081 H 184.592 -5.80178 -0.160643 0
M  V30 1082 H 184.872 -6.51379 2.75643 0
M  V30 1083 H 185.863 -7.01832 1.3448 0
M  V30 1084 H 184.029 -8.73771 2.38364 0
M  V30 1085 H 183.988 -4.7189 3.52311 0
M  V30 1086 H 184.369 0.0721434 2.82608 0
M  V30 1087 H 184.558 1.0785 1.36544 0
M  V30 1088 H 184.666 -1.73207 -2.10241 0
M  V30 1089 P 185.899 -8.91 -8.29613e-14 0
M  V30 1090 O 186.119 -10.1726 -0.733694 0
M  V30 1091 O 186.689 -8.73148 1.23936 0
M  V30 1092 O 186.149 -7.66872 -0.971405 0
M  V30 1093 C 185.209 -7.42309 -2.04641 0
M  V30 1094 C 185.939 -6.86059 -3.24661 0
M  V30 1095 O 186.149 -5.42847 -3.03646 0
M  V30 1096 C 187.339 -7.41196 -3.50753 0
M  V30 1097 O 187.729 -7.27073 -4.86816 0
M  V30 1098 C 188.219 -6.5273 -2.63741 0
M  V30 1099 C 187.509 -5.1842 -2.73198 0
M  V30 1100 N 187.559 -4.38762 -1.4784 0
M  V30 1101 C 187.479 -4.81605 -0.168631 0
M  V30 1102 N 187.559 -3.85454 0.713363 0
M  V30 1103 C 187.699 -2.6994 -0.0566958 0
M  V30 1104 C 187.829 -1.34815 0.338502 0
M  V30 1105 N 187.949 -0.496304 -0.77465 0
M  V30 1106 C 187.949 -0.908403 -2.09122 0
M  V30 1107 N 188.079 0.0517805 -3.00955 0
M  V30 1108 N 187.819 -2.17875 -2.46519 0
M  V30 1109 C 187.699 -3.01988 -1.4033 0
M  V30 1110 H 184.72 -8.36803 -2.32493 0
M  V30 1111 H 184.45 -6.70197 -1.71129 0
M  V30 1112 H 185.317 -7.03551 -4.13168 0
M  V30 1113 P 189.279 -7.20834 -5.23717 0
M  V30 1114 O 189.499 -7.79853 -6.57286 0
M  V30 1115 O 190.069 -7.79239 -4.12957 0
M  V30 1116 O 189.529 -5.63315 -5.29344 0
M  V30 1117 C 188.589 -4.80255 -6.01876 0
M  V30 1118 C 189.319 -3.64202 -6.65911 0
M  V30 1119 O 189.529 -2.60694 -5.64732 0
M  V30 1120 C 190.719 -3.93473 -7.1943 0
M  V30 1121 O 191.109 -3.02071 -8.21205 0
M  V30 1122 C 191.599 -3.73047 -5.97036 0
M  V30 1123 C 190.889 -2.58828 -5.25741 0
M  V30 1124 N 190.939 -2.68068 -3.77503 0
M  V30 1125 H 188.1 -5.40332 -6.79951 0
M  V30 1126 H 187.83 -4.41613 -5.32378 0
M  V30 1127 H 188.697 -3.26331 -7.47797 0
M  V30 1128 P 192.659 -2.75334 -8.47391 0
M  V30 1129 O 192.879 -2.44619 -9.90336 0
M  V30 1130 O 193.449 -3.87776 -7.92294 0
M  V30 1131 O 192.909 -1.4459 -7.59357 0
M  V30 1132 C 191.969 -0.347653 -7.69315 0
M  V30 1133 C 192.699 0.96767 -7.52806 0
M  V30 1134 O 192.909 1.21055 -6.10208 0
M  V30 1135 C 194.099 1.04557 -8.13408 0
M  V30 1136 O 194.489 2.38311 -8.41922 0
M  V30 1137 C 194.979 0.491279 -7.02284 0
M  V30 1138 C 194.269 0.996264 -5.77469 0
M  V30 1139 N 194.319 0.0501916 -4.62973 0
M  V30 1140 C 194.239 -1.31969 -4.65661 0
M  V30 1141 N 194.309 -1.86649 -3.48119 0
M  V30 1142 C 194.459 -0.792089 -2.62406 0
M  V30 1143 C 194.589 -0.705684 -1.2207 0
M  V30 1144 N 194.599 -1.76207 -0.413762 0
M  V30 1145 N 194.709 0.518981 -0.685754 0
M  V30 1146 C 194.699 1.57595 -1.49174 0
M  V30 1147 N 194.579 1.62909 -2.80066 0
M  V30 1148 C 194.459 0.388195 -3.3073 0
M  V30 1149 H 191.481 -0.374765 -8.67791 0
M  V30 1150 H 191.209 -0.443613 -6.90476 0
M  V30 1151 H 192.077 1.75559 -7.96891 0
M  V30 1152 H 194.732 1.94563 -5.46818 0
M  V30 1153 H 195.012 -0.608651 -7.04676 0
M  V30 1154 H 196.003 0.889796 -7.09039 0
M  V30 1155 H 194.169 0.433128 -9.04664 0
M  V30 1156 H 194.128 -1.89246 -5.57664 0
M  V30 1157 H 194.509 -2.71005 -0.804694 0
M  V30 1158 H 194.698 -1.63189 0.603768 0
M  V30 1159 H 194.806 2.53475 -0.997614 0
M  V30 1160 P 196.039 2.75334 -8.47391 0
M  V30 1161 O 196.259 3.84128 -9.44797 0
M  V30 1162 O 196.829 1.51947 -8.68712 0
M  V30 1163 O 196.289 3.29363 -6.99321 0
M  V30 1164 C 195.349 4.24011 -6.4274 0
M  V30 1165 C 196.079 5.20775 -5.52155 0
M  V30 1166 O 196.289 4.56534 -4.22446 0
M  V30 1167 C 197.479 5.62629 -5.96531 0
M  V30 1168 O 197.869 6.87667 -5.41053 0
M  V30 1169 C 198.359 4.52537 -5.39283 0
M  V30 1170 C 197.649 4.20027 -4.08623 0
M  V30 1171 N 197.699 2.76189 -3.71603 0
M  V30 1172 H 194.86 4.797 -7.24003 0
M  V30 1173 H 194.59 3.69856 -5.84513 0
M  V30 1174 H 195.457 6.10356 -5.41441 0
M  V30 1175 P 199.419 7.20834 -5.23717 0
M  V30 1176 O 199.639 8.66104 -5.38572 0
M  V30 1177 O 200.209 6.33544 -6.1349 0
M  V30 1178 O 199.669 6.7751 -3.72168 0
M  V30 1179 C 198.729 7.20825 -2.7076 0
M  V30 1180 C 199.459 7.45864 -1.40599 0
M  V30 1181 O 199.669 6.17651 -0.734225 0
M  V30 1182 C 200.859 8.05808 -1.51899 0
M  V30 1183 O 201.249 8.74358 -0.335205 0
M  V30 1184 C 201.739 6.83093 -1.70294 0
M  V30 1185 C 201.029 5.79992 -0.836974 0
M  V30 1186 N 201.079 4.41864 -1.38293 0
M  V30 1187 H 198.24 8.13644 -3.0377 0
M  V30 1188 H 197.97 6.42788 -2.55485 0
M  V30 1189 H 198.837 8.12039 -0.792769 0
M  V30 1190 P 202.799 8.91 2.40144e-13 0
M  V30 1191 O 203.019 10.1726 0.733694 0
M  V30 1192 O 203.589 8.73148 -1.23936 0
M  V30 1193 O 203.049 7.66872 0.971405 0
M  V30 1194 C 202.109 7.42309 2.04641 0
M  V30 1195 C 202.839 6.86059 3.24661 0
M  V30 1196 O 203.049 5.42847 3.03646 0
M  V30 1197 C 204.239 7.41196 3.50753 0
M  V30 1198 O 204.629 7.27073 4.86816 0
M  V30 1199 C 205.119 6.5273 2.63741 0
M  V30 1200 C 204.409 5.1842 2.73198 0
M  V30 1201 N 204.459 4.38762 1.4784 0
M  V30 1202 H 201.62 8.36803 2.32493 0
M  V30 1203 H 201.35 6.70197 1.71129 0
M  V30 1204 H 202.217 7.03551 4.13168 0
M  V30 1205 P 206.179 7.20834 5.23717 0
M  V30 1206 O 206.399 7.79853 6.57286 0
M  V30 1207 O 206.969 7.79239 4.12957 0
M  V30 1208 O 206.429 5.63315 5.29344 0
M  V30 1209 C 205.489 4.80255 6.01876 0
M  V30 1210 C 206.219 3.64202 6.65911 0
M  V30 1211 O 206.429 2.60694 5.64732 0
M  V30 1212 C 207.619 3.93473 7.1943 0
M  V30 1213 O 208.009 3.02071 8.21205 0
M  V30 1214 C 208.499 3.73047 5.97036 0
M  V30 1215 C 207.789 2.58828 5.25741 0
M  V30 1216 N 207.839 2.68068 3.77503 0
M  V30 1217 H 205 5.40332 6.79951 0
M  V30 1218 H 204.73 4.41613 5.32378 0
M  V30 1219 H 205.597 3.26331 7.47797 0
M  V30 1220 P 209.559 2.75334 8.47391 0
M  V30 1221 O 209.779 2.44619 9.90336 0
M  V30 1222 O 210.349 3.87776 7.92294 0
M  V30 1223 O 209.809 1.4459 7.59357 0
M  V30 1224 C 208.869 0.347653 7.69315 0
M  V30 1225 C 209.599 -0.96767 7.52806 0
M  V30 1226 O 209.809 -1.21055 6.10208 0
M  V30 1227 C 210.999 -1.04557 8.13408 0
M  V30 1228 O 211.389 -2.38311 8.41922 0
M  V30 1229 C 211.879 -0.491279 7.02284 0
M  V30 1230 C 211.169 -0.996264 5.77469 0
M  V30 1231 N 211.219 -0.0501916 4.62973 0
M  V30 1232 H 208.381 0.374765 8.67791 0
M  V30 1233 H 208.109 0.443613 6.90476 0
M  V30 1234 H 208.977 -1.75559 7.96891 0
M  V30 1235 H 211.632 -1.94563 5.46818 0
M  V30 1236 H 211.912 0.608651 7.04676 0
M  V30 1237 H 212.903 -0.889796 7.09039 0
M  V30 1238 H 211.069 -0.433128 9.04664 0
M  V30 1239 P 212.939 -2.75334 8.47391 0
M  V30 1240 O 213.159 -3.84128 9.44797 0
M  V30 1241 O 213.729 -1.51947 8.68712 0
M  V30 1242 O 213.189 -3.29363 6.99321 0
M  V30 1243 C 212.249 -4.24011 6.4274 0
M  V30 1244 C 212.979 -5.20775 5.52155 0
M  V30 1245 O 213.189 -4.56534 4.22446 0
M  V30 1246 C 214.379 -5.62629 5.96531 0
M  V30 1247 O 214.769 -6.87667 5.41053 0
M  V30 1248 C 215.259 -4.52537 5.39283 0
M  V30 1249 C 214.549 -4.20027 4.08623 0
M  V30 1250 N 214.599 -2.76189 3.71603 0
M  V30 1251 H 211.76 -4.797 7.24003 0
M  V30 1252 H 211.49 -3.69856 5.84513 0
M  V30 1253 H 212.357 -6.10356 5.41441 0
M  V30 1254 P 216.319 -7.20834 5.23717 0
M  V30 1255 O 216.539 -8.66104 5.38572 0
M  V30 1256 O 217.109 -6.33544 6.1349 0
M  V30 1257 O 216.569 -6.7751 3.72168 0
M  V30 1258 C 215.629 -7.20825 2.7076 0
M  V30 1259 C 216.359 -7.45864 1.40599 0
M  V30 1260 O 216.569 -6.17651 0.734225 0
M  V30 1261 C 217.759 -8.05808 1.51899 0
M  V30 1262 O 218.149 -8.74358 0.335205 0
M  V30 1263 C 218.639 -6.83093 1.70294 0
M  V30 1264 C 217.929 -5.79992 0.836974 0
M  V30 1265 N 217.979 -4.41864 1.38293 0
M  V30 1266 H 215.14 -8.13644 3.0377 0
M  V30 1267 H 214.87 -6.42788 2.55485 0
M  V30 1268 H 215.737 -8.12039 0.792769 0
M  V30 1269 P 219.699 -8.91 -3.97326e-13 0
M  V30 1270 O 219.919 -10.1726 -0.733694 0
M  V30 1271 O 220.489 -8.73148 1.23936 0
M  V30 1272 O 219.949 -7.66872 -0.971405 0
M  V30 1273 C 219.009 -7.42309 -2.04641 0
M  V30 1274 C 219.739 -6.86059 -3.24661 0
M  V30 1275 O 219.949 -5.42847 -3.03646 0
M  V30 1276 C 221.139 -7.41196 -3.50753 0
M  V30 1277 O 221.529 -7.27073 -4.86816 0
M  V30 1278 C 222.019 -6.5273 -2.63741 0
M  V30 1279 C 221.309 -5.1842 -2.73198 0
M  V30 1280 N 221.359 -4.38762 -1.4784 0
M  V30 1281 C 221.279 -4.81605 -0.168631 0
M  V30 1282 N 221.359 -3.85454 0.713363 0
M  V30 1283 C 221.499 -2.6994 -0.0566958 0
M  V30 1284 C 221.629 -1.34815 0.338502 0
M  V30 1285 O 221.649 -0.869548 1.47125 0
M  V30 1286 N 221.749 -0.496304 -0.77465 0
M  V30 1287 C 221.749 -0.908403 -2.09122 0
M  V30 1288 N 221.879 0.0517805 -3.00955 0
M  V30 1289 N 221.619 -2.17875 -2.46519 0
M  V30 1290 C 221.499 -3.01988 -1.4033 0
M  V30 1291 H 218.52 -8.36803 -2.32493 0
M  V30 1292 H 218.25 -6.70197 -1.71129 0
M  V30 1293 H 219.117 -7.03551 -4.13168 0
M  V30 1294 H 221.772 -4.59498 -3.54415 0
M  V30 1295 H 222.051 -6.88898 -1.59848 0
M  V30 1296 H 223.043 -6.46749 -3.03687 0
M  V30 1297 H 221.209 -8.46908 -3.20714 0
M  V30 1298 H 221.16 -5.86405 0.105564 0
M  V30 1299 H 221.842 0.483664 -0.597855 0
M  V30 1300 H 221.879 -0.187865 -4.0116 0
M  V30 1301 H 221.98 1.03585 -2.71726 0
M  V30 1302 P 223.079 -7.20834 -5.23717 0
M  V30 1303 O 223.299 -7.80006 -6.57415 0
M  V30 1304 O 223.869 -7.79416 -4.13051 0
M  V30 1305 O 223.329 -5.63315 -5.29344 0
M  V30 1306 C 222.389 -4.80318 -6.01954 0
M  V30 1307 C 223.119 -3.64202 -6.65911 0
M  V30 1308 O 223.329 -2.60736 -5.64823 0
M  V30 1309 C 224.519 -3.93521 -7.19518 0
M  V30 1310 O 224.909 -3.02071 -8.21205 0
M  V30 1311 C 225.399 -3.73047 -5.97036 0
M  V30 1312 C 224.689 -2.58828 -5.25741 0
M  V30 1313 N 224.739 -2.68068 -3.77503 0
M  V30 1314 C 224.659 -3.80474 -2.99159 0
M  V30 1315 N 224.729 -3.55622 -1.71925 0
M  V30 1316 C 224.879 -2.1832 -1.65733 0
M  V30 1317 C 225.009 -1.28842 -0.572777 0
M  V30 1318 N 225.019 -1.66875 0.70098 0
M  V30 1319 N 225.129 0.016788 -0.859836 0
M  V30 1320 C 225.119 0.398145 -2.13316 0
M  V30 1321 N 224.999 -0.328224 -3.22333 0
M  V30 1322 C 224.879 -1.62992 -2.90383 0
M  V30 1323 H 221.901 -5.40394 -6.8003 0
M  V30 1324 H 221.629 -4.41741 -5.32532 0
M  V30 1325 H 222.497 -3.26371 -7.47889 0
M  V30 1326 H 225.152 -1.64007 -5.56746 0
M  V30 1327 H 225.432 -4.63439 -5.3432 0
M  V30 1328 H 226.423 -3.44776 -6.25925 0
M  V30 1329 H 224.589 -4.96707 -7.57347 0
M  V30 1330 H 224.548 -4.8089 -3.39924 0
M  V30 1331 H 224.929 -2.66547 0.941919 0
M  V30 1332 H 225.118 -0.965341 1.44766 0
M  V30 1333 H 225.226 1.46427 -2.29697 0
M  V30 1334 P 226.459 -2.75334 -8.47391 0
M  V30 1335 O 226.679 -2.44595 -9.90239 0
M  V30 1336 O 227.249 -3.87732 -7.92204 0
M  V30 1337 O 226.709 -1.4459 -7.59357 0
M  V30 1338 C 225.769 -0.347563 -7.69115 0
M  V30 1339 C 226.499 0.96767 -7.52806 0
M  V30 1340 O 226.709 1.21036 -6.1011 0
M  V30 1341 C 227.899 1.04544 -8.13308 0
M  V30 1342 O 228.289 2.38311 -8.41922 0
M  V30 1343 C 228.779 0.491279 -7.02284 0
M  V30 1344 C 228.069 0.996264 -5.77469 0
M  V30 1345 N 228.119 0.0501808 -4.62873 0
M  V30 1346 C 228.269 0.588177 -3.36904 0
M  V30 1347 O 228.359 1.78598 -3.17173 0
M  V30 1348 N 228.309 -0.329694 -2.33686 0
M  V30 1349 C 228.219 -1.6953 -2.45079 0
M  V30 1350 O 228.269 -2.41926 -1.44899 0
M  V30 1351 C 228.069 -2.16933 -3.80505 0
M  V30 1352 C 227.959 -3.65373 -3.97621 0
M  V30 1353 C 228.019 -1.30326 -4.83752 0
M  V30 1354 H 225.279 -0.374722 -8.67691 0
M  V30 1355 H 225.01 -0.443421 -6.90177 0
M  V30 1356 H 225.877 1.75537 -7.96793 0
M  V30 1357 H 228.532 1.94496 -5.46629 0
M  V30 1358 H 228.811 -0.608651 -7.04676 0
M  V30 1359 H 229.803 0.889672 -7.08939 0
M  V30 1360 H 227.969 0.43308 -9.04564 0
M  V30 1361 H 227.898 -1.68366 -5.8516 0
M  V30 1362 H 228.928 -4.05985 -4.30448 0
M  V30 1363 H 227.191 -3.88028 -4.72875 0
M  V30 1364 H 227.679 -4.11381 -3.01609 0
M  V30 1365 H 228.415 0.0393617 -1.41345 0
M  V30 1366 P 229.839 2.75334 -8.47391 0
M  V30 1367 O 230.059 3.84166 -9.4489 0
M  V30 1368 O 230.629 1.51964 -8.6881 0
M  V30 1369 O 230.089 3.29363 -6.99321 0
M  V30 1370 C 229.149 4.23956 -6.42656 0
M  V30 1371 C 229.879 5.20775 -5.52155 0
M  V30 1372 O 230.089 4.56534 -4.22446 0
M  V30 1373 C 231.279 5.62629 -5.96531 0
M  V30 1374 O 231.669 6.87667 -5.41053 0
M  V30 1375 C 232.159 4.52537 -5.39283 0
M  V30 1376 C 231.449 4.20027 -4.08623 0
M  V30 1377 N 231.499 2.7613 -3.71522 0
M  V30 1378 C 231.649 2.45612 -2.37989 0
M  V30 1379 O 231.739 3.30919 -1.51621 0
M  V30 1380 N 231.689 1.10684 -2.08435 0
M  V30 1381 C 231.599 0.0690084 -2.9792 0
M  V30 1382 O 231.649 -1.10553 -2.59426 0
M  V30 1383 C 231.449 0.481522 -4.35345 0
M  V30 1384 C 231.339 -0.618778 -5.36443 0
M  V30 1385 C 231.399 1.78906 -4.67968 0
M  V30 1386 H 228.659 4.797 -7.24003 0
M  V30 1387 H 228.39 3.69802 -5.84429 0
M  V30 1388 H 229.257 6.10356 -5.41441 0
M  V30 1389 H 231.912 4.78651 -3.27911 0
M  V30 1390 H 232.191 3.64957 -6.05871 0
M  V30 1391 H 233.183 4.8868 -5.2125 0
M  V30 1392 H 231.349 5.66726 -7.06352 0
M  V30 1393 H 231.278 2.07737 -5.72367 0
M  V30 1394 H 232.308 -0.754375 -5.86871 0
M  V30 1395 H 230.571 -0.359721 -6.10641 0
M  V30 1396 H 231.059 -1.55533 -4.8581 0
M  V30 1397 H 231.795 0.862651 -1.12037 0
M  V30 1398 P 233.219 7.20834 -5.23717 0
M  V30 1399 O 233.439 8.66104 -5.38572 0
M  V30 1400 O 234.009 6.33544 -6.1349 0
M  V30 1401 O 233.469 6.7751 -3.72168 0
M  V30 1402 C 232.529 7.20825 -2.7076 0
M  V30 1403 C 233.259 7.45864 -1.40599 0
M  V30 1404 O 233.469 6.17651 -0.734225 0
M  V30 1405 C 234.659 8.05808 -1.51899 0
M  V30 1406 O 235.049 8.74358 -0.335205 0
M  V30 1407 C 235.539 6.83093 -1.70294 0
M  V30 1408 C 234.829 5.79992 -0.836974 0
M  V30 1409 N 234.879 4.41864 -1.38293 0
M  V30 1410 H 232.04 8.13644 -3.0377 0
M  V30 1411 H 231.77 6.42788 -2.55485 0
M  V30 1412 H 232.637 8.12039 -0.792769 0
M  V30 1413 P 236.599 8.91 5.54508e-13 0
M  V30 1414 O 236.819 10.1726 0.733694 0
M  V30 1415 O 237.389 8.73148 -1.23936 0
M  V30 1416 O 236.849 7.66872 0.971405 0
M  V30 1417 C 235.909 7.42309 2.04641 0
M  V30 1418 C 236.639 6.86059 3.24661 0
M  V30 1419 O 236.849 5.42847 3.03646 0
M  V30 1420 C 238.039 7.41196 3.50753 0
M  V30 1421 O 238.429 7.27073 4.86816 0
M  V30 1422 C 238.919 6.5273 2.63741 0
M  V30 1423 C 238.209 5.1842 2.73198 0
M  V30 1424 N 238.259 4.38762 1.4784 0
M  V30 1425 H 235.42 8.36803 2.32493 0
M  V30 1426 H 235.15 6.70197 1.71129 0
M  V30 1427 H 236.017 7.03551 4.13168 0
M  V30 1428 P 239.979 7.20834 5.23717 0
M  V30 1429 O 240.199 7.80006 6.57415 0
M  V30 1430 O 240.769 7.79416 4.13051 0
M  V30 1431 O 240.229 5.63315 5.29344 0
M  V30 1432 C 239.289 4.80318 6.01954 0
M  V30 1433 C 240.019 3.64202 6.65911 0
M  V30 1434 O 240.229 2.60736 5.64823 0
M  V30 1435 C 241.419 3.93521 7.19518 0
M  V30 1436 O 241.809 3.02071 8.21205 0
M  V30 1437 C 242.299 3.73047 5.97036 0
M  V30 1438 C 241.589 2.58828 5.25741 0
M  V30 1439 N 241.639 2.68068 3.77503 0
M  V30 1440 C 241.559 3.80474 2.99159 0
M  V30 1441 N 241.629 3.55622 1.71925 0
M  V30 1442 C 241.779 2.1832 1.65733 0
M  V30 1443 C 241.909 1.28842 0.572777 0
M  V30 1444 N 241.919 1.66875 -0.70098 0
M  V30 1445 N 242.029 -0.016788 0.859836 0
M  V30 1446 C 242.019 -0.398145 2.13316 0
M  V30 1447 N 241.899 0.328224 3.22333 0
M  V30 1448 C 241.779 1.62992 2.90383 0
M  V30 1449 H 238.801 5.40394 6.8003 0
M  V30 1450 H 238.529 4.41741 5.32532 0
M  V30 1451 H 239.397 3.26371 7.47889 0
M  V30 1452 H 242.052 1.64007 5.56746 0
M  V30 1453 H 242.332 4.63439 5.3432 0
M  V30 1454 H 243.323 3.44776 6.25925 0
M  V30 1455 H 241.489 4.96707 7.57347 0
M  V30 1456 H 241.448 4.8089 3.39924 0
M  V30 1457 H 241.829 2.66547 -0.941919 0
M  V30 1458 H 242.018 0.965341 -1.44766 0
M  V30 1459 H 242.126 -1.46427 2.29697 0
M  V30 1460 P 243.359 2.75334 8.47391 0
M  V30 1461 O 243.579 2.44571 9.90142 0
M  V30 1462 O 244.149 3.87688 7.92115 0
M  V30 1463 O 243.609 1.4459 7.59357 0
M  V30 1464 C 242.669 0.347608 7.69215 0
M  V30 1465 C 243.399 -0.96767 7.52806 0
M  V30 1466 O 243.609 -1.21036 6.1011 0
M  V30 1467 C 244.799 -1.04544 8.13308 0
M  V30 1468 O 245.189 -2.38311 8.41922 0
M  V30 1469 C 245.679 -0.491279 7.02284 0
M  V30 1470 C 244.969 -0.996264 5.77469 0
M  V30 1471 N 245.019 -0.0501916 4.62973 0
M  V30 1472 C 244.939 1.32786 4.63244 0
M  V30 1473 N 245.019 1.86957 3.44545 0
M  V30 1474 C 245.159 0.780241 2.58481 0
M  V30 1475 C 245.289 0.738536 1.17757 0
M  V30 1476 N 245.409 -0.58337 0.711393 0
M  V30 1477 C 245.409 -1.70816 1.51017 0
M  V30 1478 N 245.539 -2.87826 0.880757 0
M  V30 1479 N 245.279 -1.67126 2.8339 0
M  V30 1480 C 245.159 -0.401421 3.30572 0
M  V30 1481 H 242.18 0.374722 8.67691 0
M  V30 1482 H 241.91 0.443485 6.90277 0
M  V30 1483 H 242.777 -1.75537 7.96793 0
M  V30 1484 P 246.739 -2.75334 8.47391 0
M  V30 1485 O 246.959 -3.84128 9.44797 0
M  V30 1486 O 247.529 -1.51947 8.68712 0
M  V30 1487 O 246.989 -3.29363 6.99321 0
M  V30 1488 C 246.049 -4.24011 6.4274 0
M  V30 1489 C 246.779 -5.20775 5.52155 0
M  V30 1490 O 246.989 -4.56534 4.22446 0
M  V30 1491 C 248.179 -5.62629 5.96531 0
M  V30 1492 O 248.569 -6.87667 5.41053 0
M  V30 1493 C 249.059 -4.52537 5.39283 0
M  V30 1494 C 248.349 -4.20027 4.08623 0
M  V30 1495 N 248.399 -2.76189 3.71603 0
M  V30 1496 H 245.56 -4.797 7.24003 0
M  V30 1497 H 245.29 -3.69856 5.84513 0
M  V30 1498 H 246.157 -6.10356 5.41441 0
M  V30 1499 P 250.119 -7.20834 5.23717 0
M  V30 1500 O 250.339 -8.66104 5.38572 0
M  V30 1501 O 250.909 -6.33544 6.1349 0
M  V30 1502 O 250.369 -6.7751 3.72168 0
M  V30 1503 C 249.429 -7.20825 2.7076 0
M  V30 1504 C 250.159 -7.45864 1.40599 0
M  V30 1505 O 250.369 -6.17651 0.734225 0
M  V30 1506 C 251.559 -8.05808 1.51899 0
M  V30 1507 O 251.949 -8.74358 0.335205 0
M  V30 1508 C 252.439 -6.83093 1.70294 0
M  V30 1509 C 251.729 -5.79992 0.836974 0
M  V30 1510 N 251.779 -4.41864 1.38293 0
M  V30 1511 H 248.94 -8.13644 3.0377 0
M  V30 1512 H 248.67 -6.42788 2.55485 0
M  V30 1513 H 249.537 -8.12039 0.792769 0
M  V30 1514 P 253.498 -8.91 -7.1169e-13 0
M  V30 1515 O 253.718 -10.1726 -0.733694 0
M  V30 1516 O 254.288 -8.73148 1.23936 0
M  V30 1517 O 253.748 -7.66872 -0.971405 0
M  V30 1518 C 252.808 -7.42309 -2.04641 0
M  V30 1519 C 253.538 -6.86059 -3.24661 0
M  V30 1520 O 253.748 -5.42847 -3.03646 0
M  V30 1521 C 254.938 -7.41196 -3.50753 0
M  V30 1522 O 255.328 -7.27073 -4.86816 0
M  V30 1523 C 255.818 -6.5273 -2.63741 0
M  V30 1524 C 255.108 -5.1842 -2.73198 0
M  V30 1525 N 255.158 -4.38762 -1.4784 0
M  V30 1526 H 252.319 -8.36803 -2.32493 0
M  V30 1527 H 252.049 -6.70197 -1.71129 0
M  V30 1528 H 252.916 -7.03551 -4.13168 0
M  V30 1529 P 256.878 -7.20834 -5.23717 0
M  V30 1530 O 257.098 -7.79853 -6.57286 0
M  V30 1531 O 257.668 -7.79239 -4.12957 0
M  V30 1532 O 257.128 -5.63315 -5.29344 0
M  V30 1533 C 256.188 -4.80255 -6.01876 0
M  V30 1534 C 256.918 -3.64202 -6.65911 0
M  V30 1535 O 257.128 -2.60694 -5.64732 0
M  V30 1536 C 258.318 -3.93473 -7.1943 0
M  V30 1537 O 258.708 -3.02071 -8.21205 0
M  V30 1538 C 259.198 -3.73047 -5.97036 0
M  V30 1539 C 258.488 -2.58828 -5.25741 0
M  V30 1540 N 258.538 -2.68068 -3.77503 0
M  V30 1541 H 255.699 -5.40332 -6.79951 0
M  V30 1542 H 255.429 -4.41613 -5.32378 0
M  V30 1543 H 256.296 -3.26331 -7.47797 0
M  V30 1544 P 260.258 -2.75334 -8.47391 0
M  V30 1545 O 260.478 -2.44571 -9.90142 0
M  V30 1546 O 261.048 -3.87688 -7.92115 0
M  V30 1547 O 260.508 -1.4459 -7.59357 0
M  V30 1548 C 259.568 -0.347608 -7.69215 0
M  V30 1549 C 260.298 0.96767 -7.52806 0
M  V30 1550 O 260.508 1.21036 -6.1011 0
M  V30 1551 C 261.698 1.04544 -8.13308 0
M  V30 1552 O 262.088 2.38311 -8.41922 0
M  V30 1553 C 262.578 0.491279 -7.02284 0
M  V30 1554 C 261.868 0.996264 -5.77469 0
M  V30 1555 N 261.918 0.0501916 -4.62973 0
M  V30 1556 H 259.079 -0.374722 -8.67691 0
M  V30 1557 H 258.809 -0.443485 -6.90277 0
M  V30 1558 H 259.676 1.75537 -7.96793 0
M  V30 1559 P 263.638 2.75334 -8.47391 0
M  V30 1560 O 263.858 3.84166 -9.4489 0
M  V30 1561 O 264.428 1.51964 -8.6881 0
M  V30 1562 O 263.888 3.29363 -6.99321 0
M  V30 1563 C 262.948 4.24011 -6.4274 0
M  V30 1564 C 263.678 5.20775 -5.52155 0
M  V30 1565 O 263.888 4.56534 -4.22446 0
M  V30 1566 C 265.078 5.62629 -5.96531 0
M  V30 1567 O 265.468 6.87667 -5.41053 0
M  V30 1568 C 265.958 4.52537 -5.39283 0
M  V30 1569 C 265.248 4.20027 -4.08623 0
M  V30 1570 N 265.298 2.7613 -3.71522 0
M  V30 1571 C 265.448 2.43702 -2.37085 0
M  V30 1572 O 265.538 3.3531 -1.54039 0
M  V30 1573 N 265.498 0.951103 -2.10621 0
M  V30 1574 C 265.398 0.165021 -2.93537 0
M  V30 1575 N 265.448 -1.09723 -2.53253 0
M  V30 1576 C 265.248 0.469576 -4.32458 0
M  V30 1577 C 265.198 1.78658 -4.65921 0
M  V30 1578 H 262.458 4.79645 -7.23919 0
M  V30 1579 H 262.189 3.69802 -5.84429 0
M  V30 1580 H 263.056 6.10431 -5.41508 0
M  V30 1581 H 265.711 4.78733 -3.27967 0
M  V30 1582 H 265.99 3.64957 -6.05871 0
M  V30 1583 H 266.982 4.8868 -5.2125 0
M  V30 1584 H 265.148 5.66726 -7.06352 0
M  V30 1585 H 265.076 2.06987 -5.70299 0
M  V30 1586 H 265.178 -0.314383 -5.07728 0
M  V30 1587 H 265.566 -1.31363 -1.5319 0
M  V30 1588 H 265.369 -1.85978 -3.21943 0
M  V30 1589 P 267.018 7.20834 -5.23717 0
M  V30 1590 O 267.238 8.66104 -5.38572 0
M  V30 1591 O 267.808 6.33544 -6.1349 0
M  V30 1592 O 267.268 6.7751 -3.72168 0
M  V30 1593 C 266.328 7.20825 -2.7076 0
M  V30 1594 C 267.058 7.45864 -1.40599 0
M  V30 1595 O 267.268 6.17651 -0.734225 0
M  V30 1596 C 268.458 8.05808 -1.51899 0
M  V30 1597 O 268.848 8.74358 -0.335205 0
M  V30 1598 C 269.338 6.83093 -1.70294 0
M  V30 1599 C 268.628 5.79992 -0.836974 0
M  V30 1600 N 268.678 4.41864 -1.38293 0
M  V30 1601 C 268.598 3.99538 -2.69438 0
M  V30 1602 N 268.678 2.69909 -2.84277 0
M  V30 1603 C 268.818 2.21719 -1.5408 0
M  V30 1604 C 268.948 0.891712 -1.06628 0
M  V30 1605 N 269.068 0.856846 0.334985 0
M  V30 1606 C 269.068 1.9641 1.15789 0
M  V30 1607 N 269.198 1.72708 2.46522 0
M  V30 1608 N 268.938 3.21165 0.713741 0
M  V30 1609 C 268.818 3.26797 -0.639748 0
M  V30 1610 H 265.839 8.13644 -3.0377 0
M  V30 1611 H 265.569 6.42788 -2.55485 0
M  V30 1612 H 266.436 8.12039 -0.792769 0
M  V30 1613 P 270.398 8.91 8.68872e-13 0
M  V30 1614 O 270.618 10.1726 0.733694 0
M  V30 1615 O 271.188 8.73148 -1.23936 0
M  V30 1616 O 270.648 7.66872 0.971405 0
M  V30 1617 C 269.708 7.42309 2.04641 0
M  V30 1618 C 270.438 6.86059 3.24661 0
M  V30 1619 O 270.648 5.42847 3.03646 0
M  V30 1620 C 271.838 7.41196 3.50753 0
M  V30 1621 O 272.228 7.27073 4.86816 0
M  V30 1622 C 272.718 6.5273 2.63741 0
M  V30 1623 C 272.008 5.1842 2.73198 0
M  V30 1624 N 272.058 4.38762 1.4784 0
M  V30 1625 C 271.978 4.81605 0.168631 0
M  V30 1626 N 272.058 3.85454 -0.713363 0
M  V30 1627 C 272.198 2.6994 0.0566958 0
M  V30 1628 C 272.328 1.34815 -0.338502 0
M  V30 1629 O 272.348 0.869548 -1.47125 0
M  V30 1630 N 272.448 0.496304 0.77465 0
M  V30 1631 C 272.448 0.908403 2.09122 0
M  V30 1632 N 272.578 -0.0517805 3.00955 0
M  V30 1633 N 272.318 2.17875 2.46519 0
M  V30 1634 C 272.198 3.01988 1.4033 0
M  V30 1635 H 269.219 8.36803 2.32493 0
M  V30 1636 H 268.949 6.70197 1.71129 0
M  V30 1637 H 269.816 7.03551 4.13168 0
M  V30 1638 H 272.471 4.59498 3.54415 0
M  V30 1639 H 272.75 6.88898 1.59848 0
M  V30 1640 H 273.742 6.46749 3.03687 0
M  V30 1641 H 271.908 8.46908 3.20714 0
M  V30 1642 H 271.859 5.86405 -0.105564 0
M  V30 1643 H 272.541 -0.483664 0.597855 0
M  V30 1644 H 272.578 0.187865 4.0116 0
M  V30 1645 H 272.679 -1.03585 2.71726 0
M  V30 1646 P 273.778 7.20834 5.23717 0
M  V30 1647 O 273.998 7.79853 6.57286 0
M  V30 1648 O 274.568 7.79239 4.12957 0
M  V30 1649 O 274.028 5.63315 5.29344 0
M  V30 1650 C 273.088 4.80255 6.01876 0
M  V30 1651 C 273.818 3.64202 6.65911 0
M  V30 1652 O 274.028 2.60694 5.64732 0
M  V30 1653 C 275.218 3.93473 7.1943 0
M  V30 1654 O 275.608 3.02071 8.21205 0
M  V30 1655 C 276.098 3.73047 5.97036 0
M  V30 1656 C 275.388 2.58828 5.25741 0
M  V30 1657 N 275.438 2.68068 3.77503 0
M  V30 1658 H 272.599 5.40332 6.79951 0
M  V30 1659 H 272.329 4.41613 5.32378 0
M  V30 1660 H 273.196 3.26331 7.47797 0
M  V30 1661 P 277.158 2.75334 8.47391 0
M  V30 1662 O 277.378 2.44571 9.90142 0
M  V30 1663 O 277.948 3.87688 7.92115 0
M  V30 1664 O 277.408 1.4459 7.59357 0
M  V30 1665 C 276.468 0.347608 7.69215 0
M  V30 1666 C 277.198 -0.96767 7.52806 0
M  V30 1667 O 277.408 -1.21036 6.1011 0
M  V30 1668 C 278.598 -1.04544 8.13308 0
M  V30 1669 O 278.988 -2.38311 8.41922 0
M  V30 1670 C 279.478 -0.491279 7.02284 0
M  V30 1671 C 278.768 -0.996264 5.77469 0
M  V30 1672 N 278.818 -0.0501916 4.62973 0
M  V30 1673 H 275.979 0.374722 8.67691 0
M  V30 1674 H 275.709 0.443485 6.90277 0
M  V30 1675 H 276.576 -1.75537 7.96793 0
M  V30 1676 P 280.538 -2.75334 8.47391 0
M  V30 1677 O 280.758 -3.84128 9.44797 0
M  V30 1678 O 281.328 -1.51947 8.68712 0
M  V30 1679 O 280.788 -3.29363 6.99321 0
M  V30 1680 C 279.848 -4.24011 6.4274 0
M  V30 1681 C 280.578 -5.20775 5.52155 0
M  V30 1682 O 280.788 -4.56534 4.22446 0
M  V30 1683 C 281.978 -5.62629 5.96531 0
M  V30 1684 O 282.368 -6.87667 5.41053 0
M  V30 1685 C 282.858 -4.52537 5.39283 0
M  V30 1686 C 282.148 -4.20027 4.08623 0
M  V30 1687 N 282.198 -2.76189 3.71603 0
M  V30 1688 H 279.359 -4.797 7.24003 0
M  V30 1689 H 279.089 -3.69856 5.84513 0
M  V30 1690 H 279.956 -6.10356 5.41441 0
M  V30 1691 P 283.918 -7.20834 5.23717 0
M  V30 1692 O 284.138 -8.66104 5.38572 0
M  V30 1693 O 284.708 -6.33544 6.1349 0
M  V30 1694 O 284.168 -6.7751 3.72168 0
M  V30 1695 C 283.228 -7.20825 2.7076 0
M  V30 1696 C 283.958 -7.45864 1.40599 0
M  V30 1697 O 284.168 -6.17651 0.734225 0
M  V30 1698 C 285.358 -8.05808 1.51899 0
M  V30 1699 O 285.748 -8.74358 0.335205 0
M  V30 1700 C 286.238 -6.83093 1.70294 0
M  V30 1701 C 285.528 -5.79992 0.836974 0
M  V30 1702 N 285.578 -4.41864 1.38293 0
M  V30 1703 C 285.498 -3.99538 2.69438 0
M  V30 1704 N 285.578 -2.69909 2.84277 0
M  V30 1705 C 285.718 -2.21719 1.5408 0
M  V30 1706 C 285.848 -0.891712 1.06628 0
M  V30 1707 O 285.868 0.161298 1.70137 0
M  V30 1708 N 285.968 -0.856846 -0.334985 0
M  V30 1709 C 285.968 -1.9641 -1.15789 0
M  V30 1710 N 286.098 -1.72708 -2.46522 0
M  V30 1711 N 285.838 -3.21165 -0.713741 0
M  V30 1712 C 285.718 -3.26797 0.639748 0
M  V30 1713 H 282.739 -8.13644 3.0377 0
M  V30 1714 H 282.469 -6.42788 2.55485 0
M  V30 1715 H 283.336 -8.12039 0.792769 0
M  V30 1716 H 285.991 -5.80061 -0.166416 0
M  V30 1717 H 286.27 -6.51287 2.75604 0
M  V30 1718 H 287.262 -7.01734 1.34462 0
M  V30 1719 H 285.428 -8.73674 2.38337 0
M  V30 1720 H 285.379 -4.68207 3.53221 0
M  V30 1721 H 286.061 0.0398818 -0.767965 0
M  V30 1722 H 286.098 -2.50995 -3.13503 0
M  V30 1723 H 286.199 -0.759148 -2.80716 0
M  V30 1724 P 287.298 -8.91 -1.02605e-12 0
M  V30 1725 O 287.518 -10.1746 -0.733838 0
M  V30 1726 O 288.088 -8.73346 1.23964 0
M  V30 1727 O 287.548 -7.66872 -0.971405 0
M  V30 1728 C 286.608 -7.42405 -2.04668 0
M  V30 1729 C 287.338 -6.86059 -3.24661 0
M  V30 1730 O 287.548 -5.42934 -3.03695 0
M  V30 1731 C 288.738 -7.41287 -3.50796 0
M  V30 1732 O 289.128 -7.27073 -4.86816 0
M  V30 1733 C 289.618 -6.5273 -2.63741 0
M  V30 1734 C 288.908 -5.1842 -2.73198 0
M  V30 1735 N 288.958 -4.38762 -1.4784 0
M  V30 1736 C 288.878 -4.83651 -0.183876 0
M  V30 1737 N 288.948 -3.88759 0.699393 0
M  V30 1738 C 289.098 -2.7404 -0.0575568 0
M  V30 1739 C 289.228 -1.37902 0.293928 0
M  V30 1740 N 289.238 -0.938021 1.54797 0
M  V30 1741 N 289.348 -0.491817 -0.70549 0
M  V30 1742 C 289.338 -0.931735 -1.95979 0
M  V30 1743 N 289.218 -2.16017 -2.41481 0
M  V30 1744 C 289.098 -3.02547 -1.39121 0
M  V30 1745 H 286.12 -8.36899 -2.3252 0
M  V30 1746 H 285.848 -6.70391 -1.71179 0
M  V30 1747 H 286.716 -7.03638 -4.13219 0
M  V30 1748 H 289.371 -4.59931 -3.54016 0
M  V30 1749 H 289.651 -6.88995 -1.59871 0
M  V30 1750 H 290.642 -6.4684 -3.0373 0
M  V30 1751 H 288.808 -8.47002 -3.20749 0
M  V30 1752 H 288.767 -5.8885 0.0765548 0
M  V30 1753 H 289.148 -1.60276 2.32875 0
M  V30 1754 H 289.337 0.0699355 1.73859 0
M  V30 1755 H 289.445 -0.165507 -2.71897 0
M  V30 1756 P 290.678 -7.20834 -5.23717 0
M  V30 1757 O 290.898 -7.79853 -6.57286 0
M  V30 1758 O 291.468 -7.79239 -4.12957 0
M  V30 1759 O 290.928 -5.63315 -5.29344 0
M  V30 1760 C 289.988 -4.80255 -6.01876 0
M  V30 1761 C 290.718 -3.64202 -6.65911 0
M  V30 1762 O 290.928 -2.60694 -5.64732 0
M  V30 1763 C 292.118 -3.93473 -7.1943 0
M  V30 1764 O 292.508 -3.02071 -8.21205 0
M  V30 1765 C 292.998 -3.73047 -5.97036 0
M  V30 1766 C 292.288 -2.58828 -5.25741 0
M  V30 1767 N 292.338 -2.68068 -3.77503 0
M  V30 1768 H 289.499 -5.40332 -6.79951 0
M  V30 1769 H 289.229 -4.41613 -5.32378 0
M  V30 1770 H 290.096 -3.26331 -7.47797 0
M  V30 1771 P 294.058 -2.75334 -8.47391 0
M  V30 1772 O 294.278 -2.44571 -9.90142 0
M  V30 1773 O 294.848 -3.87688 -7.92115 0
M  V30 1774 O 294.308 -1.4459 -7.59357 0
M  V30 1775 C 293.368 -0.347608 -7.69215 0
M  V30 1776 C 294.098 0.96767 -7.52806 0
M  V30 1777 O 294.308 1.21036 -6.1011 0
M  V30 1778 C 295.498 1.04544 -8.13308 0
M  V30 1779 O 295.888 2.38311 -8.41922 0
M  V30 1780 C 296.378 0.491279 -7.02284 0
M  V30 1781 C 295.668 0.996264 -5.77469 0
M  V30 1782 N 295.718 0.0501916 -4.62973 0
M  V30 1783 H 292.879 -0.374722 -8.67691 0
M  V30 1784 H 292.609 -0.443485 -6.90277 0
M  V30 1785 H 293.476 1.75537 -7.96793 0
M  V30 1786 P 297.438 2.75334 -8.47391 0
M  V30 1787 O 297.658 3.84204 -9.44982 0
M  V30 1788 O 298.228 1.51982 -8.68909 0
M  V30 1789 O 297.688 3.29363 -6.99321 0
M  V30 1790 C 296.748 4.24066 -6.42823 0
M  V30 1791 C 297.478 5.20775 -5.52155 0
M  V30 1792 O 297.688 4.56607 -4.22514 0
M  V30 1793 C 298.878 5.62697 -5.96604 0
M  V30 1794 O 299.268 6.87667 -5.41053 0
M  V30 1795 C 299.758 4.52537 -5.39283 0
M  V30 1796 C 299.048 4.20027 -4.08623 0
M  V30 1797 N 299.098 2.76189 -3.71603 0
M  V30 1798 C 299.018 1.66944 -4.54297 0
M  V30 1799 N 299.088 0.536169 -3.91344 0
M  V30 1800 C 299.238 0.901569 -2.58849 0
M  V30 1801 C 299.368 0.146599 -1.40236 0
M  V30 1802 N 299.378 -1.18234 -1.37046 0
M  V30 1803 N 299.488 0.822941 -0.249738 0
M  V30 1804 C 299.478 2.15179 -0.280525 0
M  V30 1805 N 299.358 2.96414 -1.30822 0
M  V30 1806 C 299.238 2.25804 -2.44748 0
M  V30 1807 H 296.26 4.79756 -7.24086 0
M  V30 1808 H 295.988 3.69963 -5.84682 0
M  V30 1809 H 296.856 6.10431 -5.41508 0
M  V30 1810 H 299.511 4.78816 -3.28024 0
M  V30 1811 H 299.791 3.64957 -6.05871 0
M  V30 1812 H 300.782 4.88748 -5.21323 0
M  V30 1813 H 298.948 5.66789 -7.0643 0
M  V30 1814 H 298.907 1.74684 -5.62396 0
M  V30 1815 H 299.288 -1.71949 -2.24394 0
M  V30 1816 H 299.477 -1.67511 -0.470742 0
M  V30 1817 H 299.585 2.63704 0.6828 0
M  V30 1818 P 300.818 7.20834 -5.23717 0
M  V30 1819 O 301.038 8.66104 -5.38572 0
M  V30 1820 O 301.608 6.33544 -6.1349 0
M  V30 1821 O 301.068 6.7751 -3.72168 0
M  V30 1822 C 300.128 7.20825 -2.7076 0
M  V30 1823 C 300.858 7.45864 -1.40599 0
M  V30 1824 O 301.068 6.17651 -0.734225 0
M  V30 1825 C 302.258 8.05808 -1.51899 0
M  V30 1826 O 302.648 8.74358 -0.335205 0
M  V30 1827 C 303.138 6.83093 -1.70294 0
M  V30 1828 C 302.428 5.79992 -0.836974 0
M  V30 1829 N 302.478 4.41864 -1.38293 0
M  V30 1830 H 299.639 8.13644 -3.0377 0
M  V30 1831 H 299.369 6.42788 -2.55485 0
M  V30 1832 H 300.236 8.12039 -0.792769 0
M  V30 1833 P 304.198 8.91 1.18324e-12 0
M  V30 1834 O 304.418 10.1726 0.733694 0
M  V30 1835 O 304.988 8.73148 -1.23936 0
M  V30 1836 O 304.448 7.66872 0.971405 0
M  V30 1837 C 303.508 7.42309 2.04641 0
M  V30 1838 C 304.238 6.86059 3.24661 0
M  V30 1839 O 304.448 5.42847 3.03646 0
M  V30 1840 C 305.638 7.41196 3.50753 0
M  V30 1841 O 306.028 7.27073 4.86816 0
M  V30 1842 C 306.518 6.5273 2.63741 0
M  V30 1843 C 305.808 5.1842 2.73198 0
M  V30 1844 N 305.858 4.38762 1.4784 0
M  V30 1845 H 303.019 8.36803 2.32493 0
M  V30 1846 H 302.749 6.70197 1.71129 0
M  V30 1847 H 303.616 7.03551 4.13168 0
M  V30 1848 P 307.578 7.20834 5.23717 0
M  V30 1849 O 307.798 7.79853 6.57286 0
M  V30 1850 O 308.368 7.79239 4.12957 0
M  V30 1851 O 307.828 5.63315 5.29344 0
M  V30 1852 C 306.888 4.80255 6.01876 0
M  V30 1853 C 307.618 3.64202 6.65911 0
M  V30 1854 O 307.828 2.60694 5.64732 0
M  V30 1855 C 309.018 3.93473 7.1943 0
M  V30 1856 O 309.408 3.02071 8.21205 0
M  V30 1857 C 309.898 3.73047 5.97036 0
M  V30 1858 C 309.188 2.58828 5.25741 0
M  V30 1859 N 309.238 2.68068 3.77503 0
M  V30 1860 H 306.399 5.40332 6.79951 0
M  V30 1861 H 306.129 4.41613 5.32378 0
M  V30 1862 H 306.996 3.26331 7.47797 0
M  V30 1863 P 310.958 2.75334 8.47391 0
M  V30 1864 O 311.178 2.44571 9.90142 0
M  V30 1865 O 311.748 3.87688 7.92115 0
M  V30 1866 O 311.208 1.4459 7.59357 0
M  V30 1867 C 310.268 0.347608 7.69215 0
M  V30 1868 C 310.998 -0.96767 7.52806 0
M  V30 1869 O 311.208 -1.21036 6.1011 0
M  V30 1870 C 312.398 -1.04544 8.13308 0
M  V30 1871 O 312.788 -2.38311 8.41922 0
M  V30 1872 C 313.278 -0.491279 7.02284 0
M  V30 1873 C 312.568 -0.996264 5.77469 0
M  V30 1874 N 312.618 -0.0501916 4.62973 0
M  V30 1875 H 309.779 0.374722 8.67691 0
M  V30 1876 H 309.509 0.443485 6.90277 0
M  V30 1877 H 310.376 -1.75537 7.96793 0
M  V30 1878 P 314.338 -2.75334 8.47391 0
M  V30 1879 O 314.558 -3.84128 9.44797 0
M  V30 1880 O 315.128 -1.51947 8.68712 0
M  V30 1881 O 314.588 -3.29363 6.99321 0
M  V30 1882 C 313.648 -4.24011 6.4274 0
M  V30 1883 C 314.378 -5.20775 5.52155 0
M  V30 1884 O 314.588 -4.56534 4.22446 0
M  V30 1885 C 315.778 -5.62629 5.96531 0
M  V30 1886 O 316.168 -6.87667 5.41053 0
M  V30 1887 C 316.658 -4.52537 5.39283 0
M  V30 1888 C 315.948 -4.20027 4.08623 0
M  V30 1889 N 315.998 -2.76189 3.71603 0
M  V30 1890 C 315.918 -1.64862 4.52822 0
M  V30 1891 N 315.998 -0.512671 3.88633 0
M  V30 1892 C 316.138 -0.888083 2.54977 0
M  V30 1893 C 316.268 -0.094668 1.38677 0
M  V30 1894 O 316.288 1.13053 1.28163 0
M  V30 1895 N 316.388 -0.890102 0.232633 0
M  V30 1896 C 316.388 -2.26958 0.21772 0
M  V30 1897 N 316.518 -2.84626 -0.97925 0
M  V30 1898 N 316.258 -3.0178 1.31033 0
M  V30 1899 C 316.138 -2.26781 2.43843 0
M  V30 1900 H 313.159 -4.797 7.24003 0
M  V30 1901 H 312.889 -3.69856 5.84513 0
M  V30 1902 H 313.756 -6.10356 5.41441 0
M  V30 1903 H 316.411 -4.79061 3.27488 0
M  V30 1904 H 316.69 -3.64906 6.05785 0
M  V30 1905 H 317.682 -4.8868 5.2125 0
M  V30 1906 H 315.848 -5.66726 7.06352 0
M  V30 1907 H 315.799 -1.71169 5.60966 0
M  V30 1908 H 316.481 -0.419134 -0.644739 0
M  V30 1909 H 316.518 -3.87332 -1.06098 0
M  V30 1910 H 316.619 -2.26417 -1.82483 0
M  V30 1911 P 317.718 -7.20834 5.23717 0
M  V30 1912 O 317.938 -8.66104 5.38572 0
M  V30 1913 O 318.508 -6.33544 6.1349 0
M  V30 1914 O 317.968 -6.7751 3.72168 0
M  V30 1915 C 317.028 -7.20825 2.7076 0
M  V30 1916 C 317.758 -7.45864 1.40599 0
M  V30 1917 O 317.968 -6.17651 0.734225 0
M  V30 1918 C 319.158 -8.05808 1.51899 0
M  V30 1919 O 319.548 -8.74358 0.335205 0
M  V30 1920 C 320.038 -6.83093 1.70294 0
M  V30 1921 C 319.328 -5.79992 0.836974 0
M  V30 1922 N 319.378 -4.41864 1.38293 0
M  V30 1923 H 316.539 -8.13644 3.0377 0
M  V30 1924 H 316.269 -6.42788 2.55485 0
M  V30 1925 H 317.136 -8.12039 0.792769 0
M  V30 1926 P 321.098 -8.91 -1.34042e-12 0
M  V30 1927 O 321.318 -10.1726 -0.733694 0
M  V30 1928 O 321.888 -8.73148 1.23936 0
M  V30 1929 O 321.348 -7.66872 -0.971405 0
M  V30 1930 C 320.408 -7.42309 -2.04641 0
M  V30 1931 C 321.138 -6.86059 -3.24661 0
M  V30 1932 O 321.348 -5.42847 -3.03646 0
M  V30 1933 C 322.538 -7.41196 -3.50753 0
M  V30 1934 O 322.928 -7.27073 -4.86816 0
M  V30 1935 C 323.418 -6.5273 -2.63741 0
M  V30 1936 C 322.708 -5.1842 -2.73198 0
M  V30 1937 N 322.758 -4.38762 -1.4784 0
M  V30 1938 C 322.678 -4.81605 -0.168631 0
M  V30 1939 N 322.758 -3.85454 0.713363 0
M  V30 1940 C 322.898 -2.6994 -0.0566958 0
M  V30 1941 C 323.028 -1.34815 0.338502 0
M  V30 1942 N 323.148 -0.496304 -0.77465 0
M  V30 1943 C 323.148 -0.908403 -2.09122 0
M  V30 1944 N 323.278 0.0517805 -3.00955 0
M  V30 1945 N 323.018 -2.17875 -2.46519 0
M  V30 1946 C 322.898 -3.01988 -1.4033 0
M  V30 1947 H 319.919 -8.36803 -2.32493 0
M  V30 1948 H 319.649 -6.70197 -1.71129 0
M  V30 1949 H 320.516 -7.03551 -4.13168 0
M  V30 1950 P 324.478 -7.20834 -5.23717 0
M  V30 1951 O 324.698 -7.80006 -6.57415 0
M  V30 1952 O 325.268 -7.79416 -4.13051 0
M  V30 1953 O 324.728 -5.63315 -5.29344 0
M  V30 1954 C 323.788 -4.80318 -6.01954 0
M  V30 1955 C 324.518 -3.64202 -6.65911 0
M  V30 1956 O 324.728 -2.60736 -5.64823 0
M  V30 1957 C 325.918 -3.93521 -7.19518 0
M  V30 1958 O 326.308 -3.02071 -8.21205 0
M  V30 1959 C 326.798 -3.73047 -5.97036 0
M  V30 1960 C 326.088 -2.58828 -5.25741 0
M  V30 1961 N 326.138 -2.68068 -3.77503 0
M  V30 1962 H 323.3 -5.40394 -6.8003 0
M  V30 1963 H 323.028 -4.41741 -5.32532 0
M  V30 1964 H 323.896 -3.26371 -7.47889 0
M  V30 1965 H 326.551 -1.64007 -5.56746 0
M  V30 1966 H 326.831 -4.63439 -5.3432 0
M  V30 1967 H 327.822 -3.44776 -6.25925 0
M  V30 1968 H 325.988 -4.96707 -7.57347 0
M  V30 1969 P 327.858 -2.75334 -8.47391 0
M  V30 1970 O 328.078 -2.44571 -9.90142 0
M  V30 1971 O 328.648 -3.87688 -7.92115 0
M  V30 1972 O 328.108 -1.4459 -7.59357 0
M  V30 1973 C 327.168 -0.347608 -7.69215 0
M  V30 1974 C 327.898 0.96767 -7.52806 0
M  V30 1975 O 328.108 1.21036 -6.1011 0
M  V30 1976 C 329.298 1.04544 -8.13308 0
M  V30 1977 O 329.688 2.38311 -8.41922 0
M  V30 1978 C 330.178 0.491279 -7.02284 0
M  V30 1979 C 329.468 0.996264 -5.77469 0
M  V30 1980 N 329.518 0.0501916 -4.62973 0
M  V30 1981 H 326.679 -0.374722 -8.67691 0
M  V30 1982 H 326.409 -0.443485 -6.90277 0
M  V30 1983 H 327.276 1.75537 -7.96793 0
M  V30 1984 P 331.238 2.75334 -8.47391 0
M  V30 1985 O 331.458 3.84128 -9.44797 0
M  V30 1986 O 332.028 1.51947 -8.68712 0
M  V30 1987 O 331.488 3.29363 -6.99321 0
M  V30 1988 C 330.548 4.24011 -6.4274 0
M  V30 1989 C 331.278 5.20775 -5.52155 0
M  V30 1990 O 331.488 4.56534 -4.22446 0
M  V30 1991 C 332.678 5.62629 -5.96531 0
M  V30 1992 O 333.068 6.87667 -5.41053 0
M  V30 1993 C 333.558 4.52537 -5.39283 0
M  V30 1994 C 332.848 4.20027 -4.08623 0
M  V30 1995 N 332.898 2.76189 -3.71603 0
M  V30 1996 H 330.059 4.797 -7.24003 0
M  V30 1997 H 329.789 3.69856 -5.84513 0
M  V30 1998 H 330.656 6.10356 -5.41441 0
M  V30 1999 P 334.618 7.20834 -5.23717 0
M  V30 2000 O 334.838 8.66104 -5.38572 0
M  V30 2001 O 335.408 6.33544 -6.1349 0
M  V30 2002 O 334.868 6.7751 -3.72168 0
M  V30 2003 C 333.928 7.20825 -2.7076 0
M  V30 2004 C 334.658 7.45864 -1.40599 0
M  V30 2005 O 334.868 6.17651 -0.734225 0
M  V30 2006 C 336.058 8.05808 -1.51899 0
M  V30 2007 O 336.448 8.74358 -0.335205 0
M  V30 2008 C 336.938 6.83093 -1.70294 0
M  V30 2009 C 336.228 5.79992 -0.836974 0
M  V30 2010 N 336.278 4.41864 -1.38293 0
M  V30 2011 C 336.198 3.99538 -2.69438 0
M  V30 2012 N 336.278 2.69909 -2.84277 0
M  V30 2013 C 336.418 2.21719 -1.5408 0
M  V30 2014 C 336.548 0.891712 -1.06628 0
M  V30 2015 N 336.668 0.856846 0.334985 0
M  V30 2016 C 336.668 1.9641 1.15789 0
M  V30 2017 N 336.798 1.72708 2.46522 0
M  V30 2018 N 336.538 3.21165 0.713741 0
M  V30 2019 C 336.418 3.26797 -0.639748 0
M  V30 2020 H 333.439 8.13644 -3.0377 0
M  V30 2021 H 333.169 6.42788 -2.55485 0
M  V30 2022 H 334.036 8.12039 -0.792769 0
M  V30 2023 P 337.998 8.91 1.4976e-12 0
M  V30 2024 O 338.218 10.1726 0.733694 0
M  V30 2025 O 338.788 8.73148 -1.23936 0
M  V30 2026 O 338.248 7.66872 0.971405 0
M  V30 2027 C 337.308 7.42309 2.04641 0
M  V30 2028 C 338.038 6.86059 3.24661 0
M  V30 2029 O 338.248 5.42847 3.03646 0
M  V30 2030 C 339.438 7.41196 3.50753 0
M  V30 2031 O 339.828 7.27073 4.86816 0
M  V30 2032 C 340.318 6.5273 2.63741 0
M  V30 2033 C 339.608 5.1842 2.73198 0
M  V30 2034 N 339.658 4.38762 1.4784 0
M  V30 2035 H 336.819 8.36803 2.32493 0
M  V30 2036 H 336.549 6.70197 1.71129 0
M  V30 2037 H 337.416 7.03551 4.13168 0
M  V30 2038 P 341.378 7.20834 5.23717 0
M  V30 2039 O 341.598 7.79853 6.57286 0
M  V30 2040 O 342.168 7.79239 4.12957 0
M  V30 2041 O 341.628 5.63315 5.29344 0
M  V30 2042 C 340.688 4.80255 6.01876 0
M  V30 2043 C 341.418 3.64202 6.65911 0
M  V30 2044 O 341.628 2.60694 5.64732 0
M  V30 2045 C 342.818 3.93473 7.1943 0
M  V30 2046 O 343.208 3.02071 8.21205 0
M  V30 2047 C 343.698 3.73047 5.97036 0
M  V30 2048 C 342.988 2.58828 5.25741 0
M  V30 2049 N 343.038 2.68068 3.77503 0
M  V30 2050 C 342.958 3.79715 2.96723 0
M  V30 2051 N 343.038 3.5377 1.68852 0
M  V30 2052 C 343.178 2.15054 1.63254 0
M  V30 2053 C 343.308 1.28964 0.518571 0
M  V30 2054 O 343.328 1.56826 -0.679156 0
M  V30 2055 N 343.428 -0.0538097 0.918425 0
M  V30 2056 C 343.428 -0.494275 2.22578 0
M  V30 2057 N 343.558 -1.81086 2.40434 0
M  V30 2058 N 343.298 0.313645 3.27502 0
M  V30 2059 C 343.178 1.61829 2.91033 0
M  V30 2060 H 340.199 5.40332 6.79951 0
M  V30 2061 H 339.929 4.41613 5.32378 0
M  V30 2062 H 340.796 3.26331 7.47797 0
M  V30 2063 H 343.451 1.63422 5.56814 0
M  V30 2064 H 343.73 4.63374 5.34244 0
M  V30 2065 H 344.722 3.44728 6.25838 0
M  V30 2066 H 342.888 4.96652 7.57263 0
M  V30 2067 H 342.839 4.80617 3.3614 0
M  V30 2068 H 343.521 -0.742702 0.199384 0
M  V30 2069 H 343.558 -2.20598 3.35588 0
M  V30 2070 H 343.659 -2.43518 1.58945 0
M  V30 2071 P 344.758 2.75334 8.47391 0
M  V30 2072 O 344.978 2.44571 9.90142 0
M  V30 2073 O 345.548 3.87688 7.92115 0
M  V30 2074 O 345.008 1.4459 7.59357 0
M  V30 2075 C 344.068 0.347608 7.69215 0
M  V30 2076 C 344.798 -0.96767 7.52806 0
M  V30 2077 O 345.008 -1.21036 6.1011 0
M  V30 2078 C 346.198 -1.04544 8.13308 0
M  V30 2079 O 346.588 -2.38311 8.41922 0
M  V30 2080 C 347.078 -0.491279 7.02284 0
M  V30 2081 C 346.368 -0.996264 5.77469 0
M  V30 2082 N 346.418 -0.0501916 4.62973 0
M  V30 2083 C 346.338 1.32786 4.63244 0
M  V30 2084 N 346.418 1.86957 3.44545 0
M  V30 2085 C 346.558 0.780241 2.58481 0
M  V30 2086 C 346.688 0.738536 1.17757 0
M  V30 2087 N 346.808 -0.58337 0.711393 0
M  V30 2088 C 346.808 -1.70816 1.51017 0
M  V30 2089 N 346.938 -2.87826 0.880757 0
M  V30 2090 N 346.678 -1.67126 2.8339 0
M  V30 2091 C 346.558 -0.401421 3.30572 0
M  V30 2092 H 343.579 0.374722 8.67691 0
M  V30 2093 H 343.309 0.443485 6.90277 0
M  V30 2094 H 344.176 -1.75537 7.96793 0
M  V30 2095 P 348.138 -2.75334 8.47391 0
M  V30 2096 O 348.358 -3.84128 9.44797 0
M  V30 2097 O 348.928 -1.51947 8.68712 0
M  V30 2098 O 348.388 -3.29363 6.99321 0
M  V30 2099 C 347.448 -4.24011 6.4274 0
M  V30 2100 C 348.178 -5.20775 5.52155 0
M  V30 2101 O 348.388 -4.56534 4.22446 0
M  V30 2102 C 349.578 -5.62629 5.96531 0
M  V30 2103 O 349.968 -6.87667 5.41053 0
M  V30 2104 C 350.458 -4.52537 5.39283 0
M  V30 2105 C 349.748 -4.20027 4.08623 0
M  V30 2106 N 349.798 -2.76189 3.71603 0
M  V30 2107 H 346.959 -4.797 7.24003 0
M  V30 2108 H 346.689 -3.69856 5.84513 0
M  V30 2109 H 347.556 -6.10356 5.41441 0
M  V30 2110 P 351.518 -7.20834 5.23717 0
M  V30 2111 O 351.738 -8.66104 5.38572 0
M  V30 2112 O 352.308 -6.33544 6.1349 0
M  V30 2113 O 351.768 -6.7751 3.72168 0
M  V30 2114 C 350.828 -7.20825 2.7076 0
M  V30 2115 C 351.558 -7.45864 1.40599 0
M  V30 2116 O 351.768 -6.17651 0.734225 0
M  V30 2117 C 352.958 -8.05808 1.51899 0
M  V30 2118 O 353.348 -8.74358 0.335205 0
M  V30 2119 C 353.838 -6.83093 1.70294 0
M  V30 2120 C 353.128 -5.79992 0.836974 0
M  V30 2121 N 353.178 -4.41864 1.38293 0
M  V30 2122 C 353.098 -3.99538 2.69438 0
M  V30 2123 N 353.178 -2.69909 2.84277 0
M  V30 2124 C 353.318 -2.21719 1.5408 0
M  V30 2125 C 353.448 -0.891712 1.06628 0
M  V30 2126 N 353.568 -0.856846 -0.334985 0
M  V30 2127 C 353.568 -1.9641 -1.15789 0
M  V30 2128 N 353.698 -1.72708 -2.46522 0
M  V30 2129 N 353.438 -3.21165 -0.713741 0
M  V30 2130 C 353.318 -3.26797 0.639748 0
M  V30 2131 H 350.339 -8.13644 3.0377 0
M  V30 2132 H 350.069 -6.42788 2.55485 0
M  V30 2133 H 350.936 -8.12039 0.792769 0
M  V30 2134 P 354.898 -8.91 -1.65478e-12 0
M  V30 2135 O 355.118 -10.1726 -0.733694 0
M  V30 2136 O 355.688 -8.73148 1.23936 0
M  V30 2137 O 355.148 -7.66872 -0.971405 0
M  V30 2138 C 354.208 -7.42309 -2.04641 0
M  V30 2139 C 354.938 -6.86059 -3.24661 0
M  V30 2140 O 355.148 -5.42847 -3.03646 0
M  V30 2141 C 356.338 -7.41196 -3.50753 0
M  V30 2142 O 356.728 -7.27073 -4.86816 0
M  V30 2143 C 357.218 -6.5273 -2.63741 0
M  V30 2144 C 356.508 -5.1842 -2.73198 0
M  V30 2145 N 356.558 -4.38762 -1.4784 0
M  V30 2146 H 353.719 -8.36803 -2.32493 0
M  V30 2147 H 353.449 -6.70197 -1.71129 0
M  V30 2148 H 354.316 -7.03551 -4.13168 0
M  V30 2149 P 358.278 -7.20834 -5.23717 0
M  V30 2150 O 358.498 -7.79853 -6.57286 0
M  V30 2151 O 359.068 -7.79239 -4.12957 0
M  V30 2152 O 358.528 -5.63315 -5.29344 0
M  V30 2153 C 357.588 -4.80255 -6.01876 0
M  V30 2154 C 358.318 -3.64202 -6.65911 0
M  V30 2155 O 358.528 -2.60694 -5.64732 0
M  V30 2156 C 359.718 -3.93473 -7.1943 0
M  V30 2157 O 360.108 -3.02071 -8.21205 0
M  V30 2158 C 360.598 -3.73047 -5.97036 0
M  V30 2159 C 359.888 -2.58828 -5.25741 0
M  V30 2160 N 359.938 -2.68068 -3.77503 0
M  V30 2161 H 357.099 -5.40332 -6.79951 0
M  V30 2162 H 356.829 -4.41613 -5.32378 0
M  V30 2163 H 357.696 -3.26331 -7.47797 0
M  V30 2164 P 361.658 -2.75334 -8.47391 0
M  V30 2165 O 361.878 -2.44571 -9.90142 0
M  V30 2166 O 362.448 -3.87688 -7.92115 0
M  V30 2167 O 361.908 -1.4459 -7.59357 0
M  V30 2168 C 360.968 -0.347608 -7.69215 0
M  V30 2169 C 361.698 0.96767 -7.52806 0
M  V30 2170 O 361.908 1.21036 -6.1011 0
M  V30 2171 C 363.098 1.04544 -8.13308 0
M  V30 2172 O 363.488 2.38311 -8.41922 0
M  V30 2173 C 363.978 0.491279 -7.02284 0
M  V30 2174 C 363.268 0.996264 -5.77469 0
M  V30 2175 N 363.318 0.0501916 -4.62973 0
M  V30 2176 H 360.479 -0.374722 -8.67691 0
M  V30 2177 H 360.209 -0.443485 -6.90277 0
M  V30 2178 H 361.076 1.75537 -7.96793 0
M  V30 2179 P 365.038 2.75334 -8.47391 0
M  V30 2180 O 365.258 3.84128 -9.44797 0
M  V30 2181 O 365.828 1.51947 -8.68712 0
M  V30 2182 O 365.288 3.29363 -6.99321 0
M  V30 2183 C 364.348 4.24011 -6.4274 0
M  V30 2184 C 365.078 5.20775 -5.52155 0
M  V30 2185 O 365.288 4.56534 -4.22446 0
M  V30 2186 C 366.478 5.62629 -5.96531 0
M  V30 2187 O 366.868 6.87667 -5.41053 0
M  V30 2188 C 367.358 4.52537 -5.39283 0
M  V30 2189 C 366.648 4.20027 -4.08623 0
M  V30 2190 N 366.698 2.76189 -3.71603 0
M  V30 2191 H 363.859 4.797 -7.24003 0
M  V30 2192 H 363.589 3.69856 -5.84513 0
M  V30 2193 H 364.456 6.10356 -5.41441 0
M  V30 2194 P 368.418 7.20834 -5.23717 0
M  V30 2195 O 368.638 8.66189 -5.38625 0
M  V30 2196 O 369.208 6.33615 -6.1356 0
M  V30 2197 O 368.668 6.7751 -3.72168 0
M  V30 2198 C 367.728 7.20732 -2.70725 0
M  V30 2199 C 368.458 7.45864 -1.40599 0
M  V30 2200 O 368.668 6.17651 -0.734225 0
M  V30 2201 C 369.858 8.05808 -1.51899 0
M  V30 2202 O 370.248 8.74358 -0.335205 0
M  V30 2203 C 370.738 6.83093 -1.70294 0
M  V30 2204 C 370.028 5.79992 -0.836974 0
M  V30 2205 N 370.078 4.41769 -1.38263 0
M  V30 2206 C 370.228 3.38591 -0.481702 0
M  V30 2207 O 370.318 3.56839 0.718452 0
M  V30 2208 N 370.268 2.1206 -1.03569 0
M  V30 2209 C 370.178 1.80696 -2.36966 0
M  V30 2210 O 370.228 0.630473 -2.74862 0
M  V30 2211 C 370.028 2.94845 -3.23898 0
M  V30 2212 C 369.918 2.65253 -4.70362 0
M  V30 2213 C 369.978 4.19803 -2.73435 0
M  V30 2214 H 367.238 8.13644 -3.0377 0
M  V30 2215 H 366.969 6.42695 -2.55448 0
M  V30 2216 H 367.836 8.12039 -0.792769 0
M  V30 2217 H 370.491 5.79978 0.160587 0
M  V30 2218 H 370.77 6.51379 -2.75643 0
M  V30 2219 H 371.762 7.01734 -1.34462 0
M  V30 2220 H 369.928 8.73674 -2.38337 0
M  V30 2221 H 369.857 5.04492 -3.4095 0
M  V30 2222 H 370.887 2.83924 -5.1913 0
M  V30 2223 H 369.15 3.29824 -5.15163 0
M  V30 2224 H 369.638 1.59723 -4.84449 0
M  V30 2225 H 370.374 1.35644 -0.399345 0
M  V30 2226 P 371.798 8.91 1.81197e-12 0
M  V30 2227 O 372.018 10.1726 0.733694 0
M  V30 2228 O 372.588 8.73148 -1.23936 0
M  V30 2229 O 372.048 7.66872 0.971405 0
M  V30 2230 C 371.108 7.42309 2.04641 0
M  V30 2231 C 371.838 6.86059 3.24661 0
M  V30 2232 O 372.048 5.42847 3.03646 0
M  V30 2233 C 373.238 7.41196 3.50753 0
M  V30 2234 O 373.628 7.27073 4.86816 0
M  V30 2235 C 374.118 6.5273 2.63741 0
M  V30 2236 C 373.408 5.1842 2.73198 0
M  V30 2237 N 373.458 4.38762 1.4784 0
M  V30 2238 H 370.619 8.36803 2.32493 0
M  V30 2239 H 370.349 6.70197 1.71129 0
M  V30 2240 H 371.216 7.03551 4.13168 0
M  V30 2241 P 375.178 7.20834 5.23717 0
M  V30 2242 O 375.398 7.79853 6.57286 0
M  V30 2243 O 375.968 7.79239 4.12957 0
M  V30 2244 O 375.428 5.63315 5.29344 0
M  V30 2245 C 374.488 4.80255 6.01876 0
M  V30 2246 C 375.218 3.64202 6.65911 0
M  V30 2247 O 375.428 2.60694 5.64732 0
M  V30 2248 C 376.618 3.93473 7.1943 0
M  V30 2249 O 377.008 3.02071 8.21205 0
M  V30 2250 C 377.498 3.73047 5.97036 0
M  V30 2251 C 376.788 2.58828 5.25741 0
M  V30 2252 N 376.838 2.68068 3.77503 0
M  V30 2253 H 373.999 5.40332 6.79951 0
M  V30 2254 H 373.729 4.41613 5.32378 0
M  V30 2255 H 374.596 3.26331 7.47797 0
M  V30 2256 P 378.558 2.75334 8.47391 0
M  V30 2257 O 378.778 2.44619 9.90336 0
M  V30 2258 O 379.348 3.87776 7.92294 0
M  V30 2259 O 378.808 1.4459 7.59357 0
M  V30 2260 C 377.868 0.347653 7.69315 0
M  V30 2261 C 378.598 -0.96767 7.52806 0
M  V30 2262 O 378.808 -1.21055 6.10208 0
M  V30 2263 C 379.998 -1.04557 8.13408 0
M  V30 2264 O 380.388 -2.38311 8.41922 0
M  V30 2265 C 380.878 -0.491279 7.02284 0
M  V30 2266 C 380.168 -0.996264 5.77469 0
M  V30 2267 N 380.218 -0.0501916 4.62973 0
M  V30 2268 C 380.138 1.31969 4.65661 0
M  V30 2269 N 380.208 1.86649 3.48119 0
M  V30 2270 C 380.358 0.792089 2.62406 0
M  V30 2271 C 380.488 0.705684 1.2207 0
M  V30 2272 N 380.498 1.76207 0.413762 0
M  V30 2273 N 380.608 -0.518981 0.685754 0
M  V30 2274 C 380.598 -1.57595 1.49174 0
M  V30 2275 N 380.478 -1.62909 2.80066 0
M  V30 2276 C 380.358 -0.388195 3.3073 0
M  V30 2277 H 377.38 0.374765 8.67791 0
M  V30 2278 H 377.108 0.443613 6.90476 0
M  V30 2279 H 377.976 -1.75559 7.96891 0
M  V30 2280 H 380.631 -1.94563 5.46818 0
M  V30 2281 H 380.911 0.608651 7.04676 0
M  V30 2282 H 381.902 -0.889796 7.09039 0
M  V30 2283 H 380.068 -0.433128 9.04664 0
M  V30 2284 H 380.027 1.89246 5.57664 0
M  V30 2285 H 380.408 2.71005 0.804694 0
M  V30 2286 H 380.597 1.63189 -0.603768 0
M  V30 2287 H 380.705 -2.53475 0.997614 0
M  V30 2288 P 381.938 -2.75334 8.47391 0
M  V30 2289 O 382.158 -3.84204 9.44982 0
M  V30 2290 O 382.728 -1.51982 8.68909 0
M  V30 2291 O 382.188 -3.29363 6.99321 0
M  V30 2292 C 381.248 -4.24066 6.42823 0
M  V30 2293 C 381.978 -5.20775 5.52155 0
M  V30 2294 O 382.188 -4.56607 4.22514 0
M  V30 2295 C 383.378 -5.62697 5.96604 0
M  V30 2296 O 383.768 -6.87667 5.41053 0
M  V30 2297 C 384.258 -4.52537 5.39283 0
M  V30 2298 C 383.548 -4.20027 4.08623 0
M  V30 2299 N 383.598 -2.76189 3.71603 0
M  V30 2300 C 383.518 -1.66944 4.54297 0
M  V30 2301 N 383.588 -0.536169 3.91344 0
M  V30 2302 C 383.738 -0.901569 2.58849 0
M  V30 2303 C 383.868 -0.146599 1.40236 0
M  V30 2304 N 383.878 1.18234 1.37046 0
M  V30 2305 N 383.988 -0.822941 0.249738 0
M  V30 2306 C 383.978 -2.15179 0.280525 0
M  V30 2307 N 383.858 -2.96414 1.30822 0
M  V30 2308 C 383.738 -2.25804 2.44748 0
M  V30 2309 H 380.76 -4.79756 7.24086 0
M  V30 2310 H 380.488 -3.69963 5.84682 0
M  V30 2311 H 381.356 -6.10431 5.41508 0
M  V30 2312 H 384.011 -4.78816 3.28024 0
M  V30 2313 H 384.291 -3.64957 6.05871 0
M  V30 2314 H 385.282 -4.88748 5.21323 0
M  V30 2315 H 383.448 -5.66789 7.0643 0
M  V30 2316 H 383.407 -1.74684 5.62396 0
M  V30 2317 H 383.788 1.71949 2.24394 0
M  V30 2318 H 383.977 1.67511 0.470742 0
M  V30 2319 H 384.085 -2.63704 -0.6828 0
M  V30 2320 P 385.318 -7.20834 5.23717 0
M  V30 2321 O 385.538 -8.66104 5.38572 0
M  V30 2322 O 386.108 -6.33544 6.1349 0
M  V30 2323 O 385.568 -6.7751 3.72168 0
M  V30 2324 C 384.628 -7.20825 2.7076 0
M  V30 2325 C 385.358 -7.45864 1.40599 0
M  V30 2326 O 385.568 -6.17651 0.734225 0
M  V30 2327 C 386.758 -8.05808 1.51899 0
M  V30 2328 O 387.148 -8.74358 0.335205 0
M  V30 2329 C 387.638 -6.83093 1.70294 0
M  V30 2330 C 386.928 -5.79992 0.836974 0
M  V30 2331 N 386.978 -4.41864 1.38293 0
M  V30 2332 H 384.139 -8.13644 3.0377 0
M  V30 2333 H 383.869 -6.42788 2.55485 0
M  V30 2334 H 384.736 -8.12039 0.792769 0
M  V30 2335 P 388.698 -8.91 -1.96915e-12 0
M  V30 2336 O 388.918 -10.1726 -0.733694 0
M  V30 2337 O 389.488 -8.73148 1.23936 0
M  V30 2338 O 388.948 -7.66872 -0.971405 0
M  V30 2339 C 388.008 -7.42309 -2.04641 0
M  V30 2340 C 388.738 -6.86059 -3.24661 0
M  V30 2341 O 388.948 -5.42847 -3.03646 0
M  V30 2342 C 390.138 -7.41196 -3.50753 0
M  V30 2343 O 390.528 -7.27073 -4.86816 0
M  V30 2344 C 391.018 -6.5273 -2.63741 0
M  V30 2345 C 390.308 -5.1842 -2.73198 0
M  V30 2346 N 390.358 -4.38762 -1.4784 0
M  V30 2347 H 387.519 -8.36803 -2.32493 0
M  V30 2348 H 387.249 -6.70197 -1.71129 0
M  V30 2349 H 388.116 -7.03551 -4.13168 0
M  V30 2350 P 392.078 -7.20834 -5.23717 0
M  V30 2351 O 392.298 -7.79853 -6.57286 0
M  V30 2352 O 392.868 -7.79239 -4.12957 0
M  V30 2353 O 392.328 -5.63315 -5.29344 0
M  V30 2354 C 391.388 -4.80255 -6.01876 0
M  V30 2355 C 392.118 -3.64202 -6.65911 0
M  V30 2356 O 392.328 -2.60694 -5.64732 0
M  V30 2357 C 393.518 -3.93473 -7.1943 0
M  V30 2358 O 393.908 -3.02071 -8.21205 0
M  V30 2359 C 394.398 -3.73047 -5.97036 0
M  V30 2360 C 393.688 -2.58828 -5.25741 0
M  V30 2361 N 393.738 -2.68068 -3.77503 0
M  V30 2362 H 390.899 -5.40332 -6.79951 0
M  V30 2363 H 390.629 -4.41613 -5.32378 0
M  V30 2364 H 391.496 -3.26331 -7.47797 0
M  V30 2365 P 395.458 -2.75334 -8.47391 0
M  V30 2366 O 395.678 -2.44571 -9.90142 0
M  V30 2367 O 396.248 -3.87688 -7.92115 0
M  V30 2368 O 395.708 -1.4459 -7.59357 0
M  V30 2369 C 394.768 -0.347608 -7.69215 0
M  V30 2370 C 395.498 0.96767 -7.52806 0
M  V30 2371 O 395.708 1.21036 -6.1011 0
M  V30 2372 C 396.898 1.04544 -8.13308 0
M  V30 2373 O 397.288 2.38311 -8.41922 0
M  V30 2374 C 397.778 0.491279 -7.02284 0
M  V30 2375 C 397.068 0.996264 -5.77469 0
M  V30 2376 N 397.118 0.0501916 -4.62973 0
M  V30 2377 H 394.279 -0.374722 -8.67691 0
M  V30 2378 H 394.009 -0.443485 -6.90277 0
M  V30 2379 H 394.876 1.75537 -7.96793 0
M  V30 2380 P 398.838 2.75334 -8.47391 0
M  V30 2381 O 399.058 3.84128 -9.44797 0
M  V30 2382 O 399.628 1.51947 -8.68712 0
M  V30 2383 O 399.088 3.29363 -6.99321 0
M  V30 2384 C 398.148 4.24011 -6.4274 0
M  V30 2385 C 398.878 5.20775 -5.52155 0
M  V30 2386 O 399.088 4.56534 -4.22446 0
M  V30 2387 C 400.278 5.62629 -5.96531 0
M  V30 2388 O 400.668 6.87667 -5.41053 0
M  V30 2389 C 401.158 4.52537 -5.39283 0
M  V30 2390 C 400.448 4.20027 -4.08623 0
M  V30 2391 N 400.498 2.76189 -3.71603 0
M  V30 2392 H 397.659 4.797 -7.24003 0
M  V30 2393 H 397.389 3.69856 -5.84513 0
M  V30 2394 H 398.256 6.10356 -5.41441 0
M  V30 2395 P 402.218 7.20834 -5.23717 0
M  V30 2396 O 402.438 8.66104 -5.38572 0
M  V30 2397 O 403.008 6.33544 -6.1349 0
M  V30 2398 O 402.468 6.7751 -3.72168 0
M  V30 2399 C 401.528 7.20825 -2.7076 0
M  V30 2400 C 402.258 7.45864 -1.40599 0
M  V30 2401 O 402.468 6.17651 -0.734225 0
M  V30 2402 C 403.658 8.05808 -1.51899 0
M  V30 2403 O 404.048 8.74358 -0.335205 0
M  V30 2404 C 404.538 6.83093 -1.70294 0
M  V30 2405 C 403.828 5.79992 -0.836974 0
M  V30 2406 N 403.878 4.41864 -1.38293 0
M  V30 2407 H 401.039 8.13644 -3.0377 0
M  V30 2408 H 400.769 6.42788 -2.55485 0
M  V30 2409 H 401.636 8.12039 -0.792769 0
M  V30 2410 P 405.598 8.91 2.12633e-12 0
M  V30 2411 O 405.818 10.1726 0.733694 0
M  V30 2412 O 406.388 8.73148 -1.23936 0
M  V30 2413 O 405.848 7.66872 0.971405 0
M  V30 2414 C 404.908 7.42309 2.04641 0
M  V30 2415 C 405.638 6.86059 3.24661 0
M  V30 2416 O 405.848 5.42847 3.03646 0
M  V30 2417 C 407.038 7.41196 3.50753 0
M  V30 2418 O 407.428 7.27073 4.86816 0
M  V30 2419 C 407.918 6.5273 2.63741 0
M  V30 2420 C 407.208 5.1842 2.73198 0
M  V30 2421 N 407.258 4.38762 1.4784 0
M  V30 2422 H 404.419 8.36803 2.32493 0
M  V30 2423 H 404.149 6.70197 1.71129 0
M  V30 2424 H 405.016 7.03551 4.13168 0
M  V30 2425 P 408.978 7.20834 5.23717 0
M  V30 2426 O 409.198 7.80006 6.57415 0
M  V30 2427 O 409.768 7.79416 4.13051 0
M  V30 2428 O 409.228 5.63315 5.29344 0
M  V30 2429 C 408.288 4.80318 6.01954 0
M  V30 2430 C 409.018 3.64202 6.65911 0
M  V30 2431 O 409.228 2.60736 5.64823 0
M  V30 2432 C 410.418 3.93521 7.19518 0
M  V30 2433 O 410.808 3.02071 8.21205 0
M  V30 2434 C 411.298 3.73047 5.97036 0
M  V30 2435 C 410.588 2.58828 5.25741 0
M  V30 2436 N 410.638 2.68068 3.77503 0
M  V30 2437 H 407.8 5.40394 6.8003 0
M  V30 2438 H 407.528 4.41741 5.32532 0
M  V30 2439 H 408.396 3.26371 7.47889 0
M  V30 2440 H 411.051 1.64007 5.56746 0
M  V30 2441 H 411.331 4.63439 5.3432 0
M  V30 2442 H 412.322 3.44776 6.25925 0
M  V30 2443 H 410.488 4.96707 7.57347 0
M  V30 2444 P 412.358 2.75334 8.47391 0
M  V30 2445 O 412.578 2.44571 9.90142 0
M  V30 2446 O 413.148 3.87688 7.92115 0
M  V30 2447 O 412.608 1.4459 7.59357 0
M  V30 2448 C 411.668 0.347608 7.69215 0
M  V30 2449 C 412.398 -0.96767 7.52806 0
M  V30 2450 O 412.608 -1.21036 6.1011 0
M  V30 2451 C 413.798 -1.04544 8.13308 0
M  V30 2452 O 414.188 -2.38311 8.41922 0
M  V30 2453 C 414.678 -0.491279 7.02284 0
M  V30 2454 C 413.968 -0.996264 5.77469 0
M  V30 2455 N 414.018 -0.0501916 4.62973 0
M  V30 2456 H 411.179 0.374722 8.67691 0
M  V30 2457 H 410.909 0.443485 6.90277 0
M  V30 2458 H 411.776 -1.75537 7.96793 0
M  V30 2459 P 415.738 -2.75334 8.47391 0
M  V30 2460 O 415.958 -3.84128 9.44797 0
M  V30 2461 O 416.528 -1.51947 8.68712 0
M  V30 2462 O 415.988 -3.29363 6.99321 0
M  V30 2463 C 415.048 -4.24011 6.4274 0
M  V30 2464 C 415.778 -5.20775 5.52155 0
M  V30 2465 O 415.988 -4.56534 4.22446 0
M  V30 2466 C 417.178 -5.62629 5.96531 0
M  V30 2467 O 417.568 -6.87667 5.41053 0
M  V30 2468 C 418.058 -4.52537 5.39283 0
M  V30 2469 C 417.348 -4.20027 4.08623 0
M  V30 2470 N 417.398 -2.76189 3.71603 0
M  V30 2471 H 414.559 -4.797 7.24003 0
M  V30 2472 H 414.289 -3.69856 5.84513 0
M  V30 2473 H 415.156 -6.10356 5.41441 0
M  V30 2474 P 419.118 -7.20834 5.23717 0
M  V30 2475 O 419.338 -8.66104 5.38572 0
M  V30 2476 O 419.908 -6.33544 6.1349 0
M  V30 2477 O 419.368 -6.7751 3.72168 0
M  V30 2478 C 418.428 -7.20825 2.7076 0
M  V30 2479 C 419.158 -7.45864 1.40599 0
M  V30 2480 O 419.368 -6.17651 0.734225 0
M  V30 2481 C 420.558 -8.05808 1.51899 0
M  V30 2482 O 420.948 -8.74358 0.335205 0
M  V30 2483 C 421.438 -6.83093 1.70294 0
M  V30 2484 C 420.728 -5.79992 0.836974 0
M  V30 2485 N 420.778 -4.41864 1.38293 0
M  V30 2486 H 417.939 -8.13644 3.0377 0
M  V30 2487 H 417.669 -6.42788 2.55485 0
M  V30 2488 H 418.536 -8.12039 0.792769 0
M  V30 2489 P 422.497 -8.91 -2.28351e-12 0
M  V30 2490 O 422.717 -10.1726 -0.733694 0
M  V30 2491 O 423.287 -8.73148 1.23936 0
M  V30 2492 O 422.747 -7.66872 -0.971405 0
M  V30 2493 C 421.807 -7.42309 -2.04641 0
M  V30 2494 C 422.537 -6.86059 -3.24661 0
M  V30 2495 O 422.747 -5.42847 -3.03646 0
M  V30 2496 C 423.937 -7.41196 -3.50753 0
M  V30 2497 O 424.327 -7.27073 -4.86816 0
M  V30 2498 C 424.817 -6.5273 -2.63741 0
M  V30 2499 C 424.107 -5.1842 -2.73198 0
M  V30 2500 N 424.157 -4.38762 -1.4784 0
M  V30 2501 H 421.318 -8.36803 -2.32493 0
M  V30 2502 H 421.048 -6.70197 -1.71129 0
M  V30 2503 H 421.915 -7.03551 -4.13168 0
M  V30 2504 P 425.877 -7.20834 -5.23717 0
M  V30 2505 O 426.097 -7.79853 -6.57286 0
M  V30 2506 O 426.667 -7.79239 -4.12957 0
M  V30 2507 O 426.127 -5.63315 -5.29344 0
M  V30 2508 C 425.187 -4.80255 -6.01876 0
M  V30 2509 C 425.917 -3.64202 -6.65911 0
M  V30 2510 O 426.127 -2.60694 -5.64732 0
M  V30 2511 C 427.317 -3.93473 -7.1943 0
M  V30 2512 O 427.707 -3.02071 -8.21205 0
M  V30 2513 C 428.197 -3.73047 -5.97036 0
M  V30 2514 C 427.487 -2.58828 -5.25741 0
M  V30 2515 N 427.537 -2.68068 -3.77503 0
M  V30 2516 H 424.698 -5.40332 -6.79951 0
M  V30 2517 H 424.428 -4.41613 -5.32378 0
M  V30 2518 H 425.295 -3.26331 -7.47797 0
M  V30 2519 P 429.257 -2.75334 -8.47391 0
M  V30 2520 O 429.477 -2.44571 -9.90142 0
M  V30 2521 O 430.047 -3.87688 -7.92115 0
M  V30 2522 O 429.507 -1.4459 -7.59357 0
M  V30 2523 C 428.567 -0.347608 -7.69215 0
M  V30 2524 C 429.297 0.96767 -7.52806 0
M  V30 2525 O 429.507 1.21036 -6.1011 0
M  V30 2526 C 430.697 1.04544 -8.13308 0
M  V30 2527 O 431.087 2.38311 -8.41922 0
M  V30 2528 C 431.577 0.491279 -7.02284 0
M  V30 2529 C 430.867 0.996264 -5.77469 0
M  V30 2530 N 430.917 0.0501916 -4.62973 0
M  V30 2531 H 428.078 -0.374722 -8.67691 0
M  V30 2532 H 427.808 -0.443485 -6.90277 0
M  V30 2533 H 428.675 1.75537 -7.96793 0
M  V30 2534 P 432.637 2.75334 -8.47391 0
M  V30 2535 O 432.857 3.84166 -9.4489 0
M  V30 2536 O 433.427 1.51964 -8.6881 0
M  V30 2537 O 432.887 3.29363 -6.99321 0
M  V30 2538 C 431.947 4.23956 -6.42656 0
M  V30 2539 C 432.677 5.20775 -5.52155 0
M  V30 2540 O 432.887 4.56534 -4.22446 0
M  V30 2541 C 434.077 5.62629 -5.96531 0
M  V30 2542 O 434.467 6.87667 -5.41053 0
M  V30 2543 C 434.957 4.52537 -5.39283 0
M  V30 2544 C 434.247 4.20027 -4.08623 0
M  V30 2545 N 434.297 2.7613 -3.71522 0
M  V30 2546 C 434.447 2.45612 -2.37989 0
M  V30 2547 O 434.537 3.30919 -1.51621 0
M  V30 2548 N 434.487 1.10684 -2.08435 0
M  V30 2549 C 434.397 0.0690084 -2.9792 0
M  V30 2550 O 434.447 -1.10553 -2.59426 0
M  V30 2551 C 434.247 0.481522 -4.35345 0
M  V30 2552 C 434.137 -0.618778 -5.36443 0
M  V30 2553 C 434.197 1.78906 -4.67968 0
M  V30 2554 H 431.457 4.797 -7.24003 0
M  V30 2555 H 431.188 3.69802 -5.84429 0
M  V30 2556 H 432.055 6.10356 -5.41441 0
M  V30 2557 H 434.71 4.78651 -3.27911 0
M  V30 2558 H 434.989 3.64957 -6.05871 0
M  V30 2559 H 435.981 4.8868 -5.2125 0
M  V30 2560 H 434.147 5.66726 -7.06352 0
M  V30 2561 H 434.076 2.07737 -5.72367 0
M  V30 2562 H 435.106 -0.754375 -5.86871 0
M  V30 2563 H 433.369 -0.359721 -6.10641 0
M  V30 2564 H 433.857 -1.55533 -4.8581 0
M  V30 2565 H 434.593 0.862651 -1.12037 0
M  V30 2566 P 436.017 7.20834 -5.23717 0
M  V30 2567 O 436.237 8.66104 -5.38572 0
M  V30 2568 O 436.807 6.33544 -6.1349 0
M  V30 2569 O 436.267 6.7751 -3.72168 0
M  V30 2570 C 435.327 7.20825 -2.7076 0
M  V30 2571 C 436.057 7.45864 -1.40599 0
M  V30 2572 O 436.267 6.17651 -0.734225 0
M  V30 2573 C 437.457 8.05808 -1.51899 0
M  V30 2574 O 437.847 8.74358 -0.335205 0
M  V30 2575 C 438.337 6.83093 -1.70294 0
M  V30 2576 C 437.627 5.79992 -0.836974 0
M  V30 2577 N 437.677 4.41864 -1.38293 0
M  V30 2578 H 434.838 8.13644 -3.0377 0
M  V30 2579 H 434.568 6.42788 -2.55485 0
M  V30 2580 H 435.435 8.12039 -0.792769 0
M  V30 2581 P 439.397 8.91 2.44069e-12 0
M  V30 2582 O 439.617 10.1726 0.733694 0
M  V30 2583 O 440.187 8.73148 -1.23936 0
M  V30 2584 O 439.647 7.66872 0.971405 0
M  V30 2585 C 438.707 7.42309 2.04641 0
M  V30 2586 C 439.437 6.86059 3.24661 0
M  V30 2587 O 439.647 5.42847 3.03646 0
M  V30 2588 C 440.837 7.41196 3.50753 0
M  V30 2589 O 441.227 7.27073 4.86816 0
M  V30 2590 C 441.717 6.5273 2.63741 0
M  V30 2591 C 441.007 5.1842 2.73198 0
M  V30 2592 N 441.057 4.38762 1.4784 0
M  V30 2593 H 438.218 8.36803 2.32493 0
M  V30 2594 H 437.948 6.70197 1.71129 0
M  V30 2595 H 438.815 7.03551 4.13168 0
M  V30 2596 P 442.777 7.20834 5.23717 0
M  V30 2597 O 442.997 7.79853 6.57286 0
M  V30 2598 O 443.567 7.79239 4.12957 0
M  V30 2599 O 443.027 5.63315 5.29344 0
M  V30 2600 C 442.087 4.80255 6.01876 0
M  V30 2601 C 442.817 3.64202 6.65911 0
M  V30 2602 O 443.027 2.60694 5.64732 0
M  V30 2603 C 444.217 3.93473 7.1943 0
M  V30 2604 O 444.607 3.02071 8.21205 0
M  V30 2605 C 445.097 3.73047 5.97036 0
M  V30 2606 C 444.387 2.58828 5.25741 0
M  V30 2607 N 444.437 2.68068 3.77503 0
M  V30 2608 H 441.598 5.40332 6.79951 0
M  V30 2609 H 441.328 4.41613 5.32378 0
M  V30 2610 H 442.195 3.26331 7.47797 0
M  V30 2611 P 446.157 2.75334 8.47391 0
M  V30 2612 O 446.377 2.44619 9.90336 0
M  V30 2613 O 446.947 3.87776 7.92294 0
M  V30 2614 O 446.407 1.4459 7.59357 0
M  V30 2615 C 445.467 0.347653 7.69315 0
M  V30 2616 C 446.197 -0.96767 7.52806 0
M  V30 2617 O 446.407 -1.21055 6.10208 0
M  V30 2618 C 447.597 -1.04557 8.13408 0
M  V30 2619 O 447.987 -2.38311 8.41922 0
M  V30 2620 C 448.477 -0.491279 7.02284 0
M  V30 2621 C 447.767 -0.996264 5.77469 0
M  V30 2622 N 447.817 -0.0501916 4.62973 0
M  V30 2623 C 447.737 1.31969 4.65661 0
M  V30 2624 N 447.807 1.86649 3.48119 0
M  V30 2625 C 447.957 0.792089 2.62406 0
M  V30 2626 C 448.087 0.705684 1.2207 0
M  V30 2627 N 448.097 1.76207 0.413762 0
M  V30 2628 N 448.207 -0.518981 0.685754 0
M  V30 2629 C 448.197 -1.57595 1.49174 0
M  V30 2630 N 448.077 -1.62909 2.80066 0
M  V30 2631 C 447.957 -0.388195 3.3073 0
M  V30 2632 H 444.979 0.374765 8.67791 0
M  V30 2633 H 444.707 0.443613 6.90476 0
M  V30 2634 H 445.575 -1.75559 7.96891 0
M  V30 2635 H 448.23 -1.94563 5.46818 0
M  V30 2636 H 448.51 0.608651 7.04676 0
M  V30 2637 H 449.501 -0.889796 7.09039 0
M  V30 2638 H 447.667 -0.433128 9.04664 0
M  V30 2639 H 447.626 1.89246 5.57664 0
M  V30 2640 H 448.007 2.71005 0.804694 0
M  V30 2641 H 448.196 1.63189 -0.603768 0
M  V30 2642 H 448.304 -2.53475 0.997614 0
M  V30 2643 P 449.537 -2.75334 8.47391 0
M  V30 2644 O 449.757 -3.84166 9.4489 0
M  V30 2645 O 450.327 -1.51964 8.6881 0
M  V30 2646 O 449.787 -3.29363 6.99321 0
M  V30 2647 C 448.847 -4.23956 6.42656 0
M  V30 2648 C 449.577 -5.20775 5.52155 0
M  V30 2649 O 449.787 -4.56534 4.22446 0
M  V30 2650 C 450.977 -5.62629 5.96531 0
M  V30 2651 O 451.367 -6.87667 5.41053 0
M  V30 2652 C 451.857 -4.52537 5.39283 0
M  V30 2653 C 451.147 -4.20027 4.08623 0
M  V30 2654 N 451.197 -2.7613 3.71522 0
M  V30 2655 C 451.347 -2.45612 2.37989 0
M  V30 2656 O 451.437 -3.30919 1.51621 0
M  V30 2657 N 451.387 -1.10684 2.08435 0
M  V30 2658 C 451.297 -0.0690084 2.9792 0
M  V30 2659 O 451.347 1.10553 2.59426 0
M  V30 2660 C 451.147 -0.481522 4.35345 0
M  V30 2661 C 451.037 0.618778 5.36443 0
M  V30 2662 C 451.097 -1.78906 4.67968 0
M  V30 2663 H 448.357 -4.797 7.24003 0
M  V30 2664 H 448.088 -3.69802 5.84429 0
M  V30 2665 H 448.955 -6.10356 5.41441 0
M  V30 2666 H 451.61 -4.78651 3.27911 0
M  V30 2667 H 451.889 -3.64957 6.05871 0
M  V30 2668 H 452.881 -4.8868 5.2125 0
M  V30 2669 H 451.047 -5.66726 7.06352 0
M  V30 2670 H 450.976 -2.07737 5.72367 0
M  V30 2671 H 452.006 0.754375 5.86871 0
M  V30 2672 H 450.269 0.359721 6.10641 0
M  V30 2673 H 450.757 1.55533 4.8581 0
M  V30 2674 H 451.493 -0.862651 1.12037 0
M  V30 2675 P 452.917 -7.20834 5.23717 0
M  V30 2676 O 453.137 -8.66274 5.38678 0
M  V30 2677 O 453.707 -6.33687 6.13629 0
M  V30 2678 O 453.167 -6.7751 3.72168 0
M  V30 2679 C 452.227 -7.20919 2.70795 0
M  V30 2680 C 452.957 -7.45864 1.40599 0
M  V30 2681 O 453.167 -6.17751 0.734343 0
M  V30 2682 C 454.357 -8.05906 1.51917 0
M  V30 2683 O 454.747 -8.74358 0.335205 0
M  V30 2684 C 455.237 -6.83093 1.70294 0
M  V30 2685 C 454.527 -5.79992 0.836974 0
M  V30 2686 N 454.577 -4.41864 1.38293 0
M  V30 2687 H 451.739 -8.13738 3.03804 0
M  V30 2688 H 451.467 -6.42974 2.55559 0
M  V30 2689 H 452.335 -8.12139 0.792866 0
M  V30 2690 H 454.99 -5.80178 -0.160643 0
M  V30 2691 H 455.27 -6.51379 2.75643 0
M  V30 2692 H 456.261 -7.01832 1.3448 0
M  V30 2693 H 454.427 -8.73771 2.38364 0
M  V30 2694 P 456.297 -8.91 -2.59788e-12 0
M  V30 2695 O 456.517 -10.1726 -0.733694 0
M  V30 2696 O 457.087 -8.73148 1.23936 0
M  V30 2697 O 456.547 -7.66872 -0.971405 0
M  V30 2698 C 455.607 -7.42309 -2.04641 0
M  V30 2699 C 456.337 -6.86059 -3.24661 0
M  V30 2700 O 456.547 -5.42847 -3.03646 0
M  V30 2701 C 457.737 -7.41196 -3.50753 0
M  V30 2702 O 458.127 -7.27073 -4.86816 0
M  V30 2703 C 458.617 -6.5273 -2.63741 0
M  V30 2704 C 457.907 -5.1842 -2.73198 0
M  V30 2705 N 457.957 -4.38762 -1.4784 0
M  V30 2706 H 455.118 -8.36803 -2.32493 0
M  V30 2707 H 454.848 -6.70197 -1.71129 0
M  V30 2708 H 455.715 -7.03551 -4.13168 0
M  V30 2709 P 459.677 -7.20834 -5.23717 0
M  V30 2710 O 459.897 -7.79853 -6.57286 0
M  V30 2711 O 460.467 -7.79239 -4.12957 0
M  V30 2712 O 459.927 -5.63315 -5.29344 0
M  V30 2713 C 458.987 -4.80255 -6.01876 0
M  V30 2714 C 459.717 -3.64202 -6.65911 0
M  V30 2715 O 459.927 -2.60694 -5.64732 0
M  V30 2716 C 461.117 -3.93473 -7.1943 0
M  V30 2717 O 461.507 -3.02071 -8.21205 0
M  V30 2718 C 461.997 -3.73047 -5.97036 0
M  V30 2719 C 461.287 -2.58828 -5.25741 0
M  V30 2720 N 461.337 -2.68068 -3.77503 0
M  V30 2721 C 461.257 -3.79715 -2.96723 0
M  V30 2722 N 461.337 -3.5377 -1.68852 0
M  V30 2723 C 461.477 -2.15054 -1.63254 0
M  V30 2724 C 461.607 -1.28964 -0.518571 0
M  V30 2725 N 461.727 0.0538097 -0.918425 0
M  V30 2726 C 461.727 0.494275 -2.22578 0
M  V30 2727 N 461.857 1.81086 -2.40434 0
M  V30 2728 N 461.597 -0.313645 -3.27502 0
M  V30 2729 C 461.477 -1.61829 -2.91033 0
M  V30 2730 H 458.498 -5.40332 -6.79951 0
M  V30 2731 H 458.228 -4.41613 -5.32378 0
M  V30 2732 H 459.095 -3.26331 -7.47797 0
M  V30 2733 P 463.057 -2.75334 -8.47391 0
M  V30 2734 O 463.277 -2.44571 -9.90142 0
M  V30 2735 O 463.847 -3.87688 -7.92115 0
M  V30 2736 O 463.307 -1.4459 -7.59357 0
M  V30 2737 C 462.367 -0.347608 -7.69215 0
M  V30 2738 C 463.097 0.96767 -7.52806 0
M  V30 2739 O 463.307 1.21036 -6.1011 0
M  V30 2740 C 464.497 1.04544 -8.13308 0
M  V30 2741 O 464.887 2.38311 -8.41922 0
M  V30 2742 C 465.377 0.491279 -7.02284 0
M  V30 2743 C 464.667 0.996264 -5.77469 0
M  V30 2744 N 464.717 0.0501916 -4.62973 0
M  V30 2745 H 461.878 -0.374722 -8.67691 0
M  V30 2746 H 461.608 -0.443485 -6.90277 0
M  V30 2747 H 462.475 1.75537 -7.96793 0
M  V30 2748 P 466.437 2.75334 -8.47391 0
M  V30 2749 O 466.657 3.84128 -9.44797 0
M  V30 2750 O 467.227 1.51947 -8.68712 0
M  V30 2751 O 466.687 3.29363 -6.99321 0
M  V30 2752 C 465.747 4.24011 -6.4274 0
M  V30 2753 C 466.477 5.20775 -5.52155 0
M  V30 2754 O 466.687 4.56534 -4.22446 0
M  V30 2755 C 467.877 5.62629 -5.96531 0
M  V30 2756 O 468.267 6.87667 -5.41053 0
M  V30 2757 C 468.757 4.52537 -5.39283 0
M  V30 2758 C 468.047 4.20027 -4.08623 0
M  V30 2759 N 468.097 2.76189 -3.71603 0
M  V30 2760 H 465.258 4.797 -7.24003 0
M  V30 2761 H 464.988 3.69856 -5.84513 0
M  V30 2762 H 465.855 6.10356 -5.41441 0
M  V30 2763 P 469.817 7.20834 -5.23717 0
M  V30 2764 O 470.037 8.66104 -5.38572 0
M  V30 2765 O 470.607 6.33544 -6.1349 0
M  V30 2766 O 470.067 6.7751 -3.72168 0
M  V30 2767 C 469.127 7.20825 -2.7076 0
M  V30 2768 C 469.857 7.45864 -1.40599 0
M  V30 2769 O 470.067 6.17651 -0.734225 0
M  V30 2770 C 471.257 8.05808 -1.51899 0
M  V30 2771 O 471.647 8.74358 -0.335205 0
M  V30 2772 C 472.137 6.83093 -1.70294 0
M  V30 2773 C 471.427 5.79992 -0.836974 0
M  V30 2774 N 471.477 4.41864 -1.38293 0
M  V30 2775 H 468.638 8.13644 -3.0377 0
M  V30 2776 H 468.368 6.42788 -2.55485 0
M  V30 2777 H 469.235 8.12039 -0.792769 0
M  V30 2778 P 473.197 8.91 2.75506e-12 0
M  V30 2779 O 473.417 10.1746 0.733838 0
M  V30 2780 O 473.987 8.73346 -1.23964 0
M  V30 2781 O 473.447 7.66872 0.971405 0
M  V30 2782 C 472.507 7.42405 2.04668 0
M  V30 2783 C 473.237 6.86059 3.24661 0
M  V30 2784 O 473.447 5.42934 3.03695 0
M  V30 2785 C 474.637 7.41287 3.50796 0
M  V30 2786 O 475.027 7.27073 4.86816 0
M  V30 2787 C 475.517 6.5273 2.63741 0
M  V30 2788 C 474.807 5.1842 2.73198 0
M  V30 2789 N 474.857 4.38762 1.4784 0
M  V30 2790 C 474.777 4.83651 0.183876 0
M  V30 2791 N 474.847 3.88759 -0.699393 0
M  V30 2792 C 474.997 2.7404 0.0575568 0
M  V30 2793 C 475.127 1.37902 -0.293928 0
M  V30 2794 N 475.137 0.938021 -1.54797 0
M  V30 2795 N 475.247 0.491817 0.70549 0
M  V30 2796 C 475.237 0.931735 1.95979 0
M  V30 2797 N 475.117 2.16017 2.41481 0
M  V30 2798 C 474.997 3.02547 1.39121 0
M  V30 2799 H 472.019 8.36899 2.3252 0
M  V30 2800 H 471.747 6.70391 1.71179 0
M  V30 2801 H 472.615 7.03638 4.13219 0
M  V30 2802 H 475.27 4.59931 3.54016 0
M  V30 2803 H 475.55 6.88995 1.59871 0
M  V30 2804 H 476.541 6.4684 3.0373 0
M  V30 2805 H 474.707 8.47002 3.20749 0
M  V30 2806 H 474.666 5.8885 -0.0765548 0
M  V30 2807 H 475.047 1.60276 -2.32875 0
M  V30 2808 H 475.236 -0.0699355 -1.73859 0
M  V30 2809 H 475.344 0.165507 2.71897 0
M  V30 2810 P 476.577 7.20834 5.23717 0
M  V30 2811 O 476.797 7.7993 6.57351 0
M  V30 2812 O 477.367 7.79328 4.13004 0
M  V30 2813 O 476.827 5.63315 5.29344 0
M  V30 2814 C 475.887 4.80193 6.01798 0
M  V30 2815 C 476.617 3.64202 6.65911 0
M  V30 2816 O 476.827 2.60694 5.64732 0
M  V30 2817 C 478.017 3.93473 7.1943 0
M  V30 2818 O 478.407 3.02071 8.21205 0
M  V30 2819 C 478.897 3.73047 5.97036 0
M  V30 2820 C 478.187 2.58828 5.25741 0
M  V30 2821 N 478.237 2.6801 3.77422 0
M  V30 2822 C 478.387 1.50443 3.07133 0
M  V30 2823 O 478.477 0.419406 3.61576 0
M  V30 2824 N 478.427 1.6403 1.69677 0
M  V30 2825 C 478.337 2.81206 0.986255 0
M  V30 2826 O 478.387 2.80892 -0.249754 0
M  V30 2827 C 478.187 3.99158 1.80325 0
M  V30 2828 C 478.077 5.29309 1.06921 0
M  V30 2829 C 478.137 3.89779 3.1476 0
M  V30 2830 H 475.397 5.40332 6.79951 0
M  V30 2831 H 475.128 4.41549 5.32301 0
M  V30 2832 H 475.995 3.26331 7.47797 0
M  V30 2833 H 478.65 1.6395 5.56554 0
M  V30 2834 H 478.929 4.63439 5.3432 0
M  V30 2835 H 479.921 3.44728 6.25838 0
M  V30 2836 H 478.087 4.96652 7.57263 0
M  V30 2837 H 478.016 4.80159 3.74441 0
M  V30 2838 H 479.046 5.81459 1.09608 0
M  V30 2839 H 477.309 5.9187 1.54487 0
M  V30 2840 H 477.797 5.10095 0.0220288 0
M  V30 2841 H 478.533 0.798962 1.16664 0
M  V30 2842 P 479.957 2.75334 8.47391 0
M  V30 2843 O 480.177 2.44571 9.90142 0
M  V30 2844 O 480.747 3.87688 7.92115 0
M  V30 2845 O 480.207 1.4459 7.59357 0
M  V30 2846 C 479.267 0.347608 7.69215 0
M  V30 2847 C 479.997 -0.96767 7.52806 0
M  V30 2848 O 480.207 -1.21036 6.1011 0
M  V30 2849 C 481.397 -1.04544 8.13308 0
M  V30 2850 O 481.787 -2.38311 8.41922 0
M  V30 2851 C 482.277 -0.491279 7.02284 0
M  V30 2852 C 481.567 -0.996264 5.77469 0
M  V30 2853 N 481.617 -0.0501916 4.62973 0
M  V30 2854 H 478.778 0.374722 8.67691 0
M  V30 2855 H 478.508 0.443485 6.90277 0
M  V30 2856 H 479.375 -1.75537 7.96793 0
M  V30 2857 P 483.337 -2.75334 8.47391 0
M  V30 2858 O 483.557 -3.84128 9.44797 0
M  V30 2859 O 484.127 -1.51947 8.68712 0
M  V30 2860 O 483.587 -3.29363 6.99321 0
M  V30 2861 C 482.647 -4.24011 6.4274 0
M  V30 2862 C 483.377 -5.20775 5.52155 0
M  V30 2863 O 483.587 -4.56534 4.22446 0
M  V30 2864 C 484.777 -5.62629 5.96531 0
M  V30 2865 O 485.167 -6.87667 5.41053 0
M  V30 2866 C 485.657 -4.52537 5.39283 0
M  V30 2867 C 484.947 -4.20027 4.08623 0
M  V30 2868 N 484.997 -2.76189 3.71603 0
M  V30 2869 H 482.158 -4.797 7.24003 0
M  V30 2870 H 481.888 -3.69856 5.84513 0
M  V30 2871 H 482.755 -6.10356 5.41441 0
M  V30 2872 P 486.717 -7.20834 5.23717 0
M  V30 2873 O 486.937 -8.66104 5.38572 0
M  V30 2874 O 487.507 -6.33544 6.1349 0
M  V30 2875 O 486.967 -6.7751 3.72168 0
M  V30 2876 C 486.027 -7.20825 2.7076 0
M  V30 2877 C 486.757 -7.45864 1.40599 0
M  V30 2878 O 486.967 -6.17651 0.734225 0
M  V30 2879 C 488.157 -8.05808 1.51899 0
M  V30 2880 O 488.547 -8.74358 0.335205 0
M  V30 2881 C 489.037 -6.83093 1.70294 0
M  V30 2882 C 488.327 -5.79992 0.836974 0
M  V30 2883 N 488.377 -4.41864 1.38293 0
M  V30 2884 H 485.538 -8.13644 3.0377 0
M  V30 2885 H 485.268 -6.42788 2.55485 0
M  V30 2886 H 486.135 -8.12039 0.792769 0
M  V30 2887 P 490.097 -8.91 -2.91224e-12 0
M  V30 2888 O 490.317 -10.1746 -0.733838 0
M  V30 2889 O 490.887 -8.73346 1.23964 0
M  V30 2890 O 490.347 -7.66872 -0.971405 0
M  V30 2891 C 489.407 -7.42405 -2.04668 0
M  V30 2892 C 490.137 -6.86059 -3.24661 0
M  V30 2893 O 490.347 -5.42934 -3.03695 0
M  V30 2894 C 491.537 -7.41287 -3.50796 0
M  V30 2895 O 491.927 -7.27073 -4.86816 0
M  V30 2896 C 492.417 -6.5273 -2.63741 0
M  V30 2897 C 491.707 -5.1842 -2.73198 0
M  V30 2898 N 491.757 -4.38762 -1.4784 0
M  V30 2899 H 488.919 -8.36899 -2.3252 0
M  V30 2900 H 488.647 -6.70391 -1.71179 0
M  V30 2901 H 489.515 -7.03638 -4.13219 0
M  V30 2902 H 492.17 -4.59931 -3.54016 0
M  V30 2903 H 492.45 -6.88995 -1.59871 0
M  V30 2904 H 493.441 -6.4684 -3.0373 0
M  V30 2905 H 491.607 -8.47002 -3.20749 0
M  V30 2906 P 493.477 -7.20834 -5.23717 0
M  V30 2907 O 493.697 -7.80006 -6.57415 0
M  V30 2908 O 494.267 -7.79416 -4.13051 0
M  V30 2909 O 493.727 -5.63315 -5.29344 0
M  V30 2910 C 492.787 -4.80318 -6.01954 0
M  V30 2911 C 493.517 -3.64202 -6.65911 0
M  V30 2912 O 493.727 -2.60736 -5.64823 0
M  V30 2913 C 494.917 -3.93521 -7.19518 0
M  V30 2914 O 495.307 -3.02071 -8.21205 0
M  V30 2915 C 495.797 -3.73047 -5.97036 0
M  V30 2916 C 495.087 -2.58828 -5.25741 0
M  V30 2917 N 495.137 -2.68068 -3.77503 0
M  V30 2918 C 495.057 -3.80474 -2.99159 0
M  V30 2919 N 495.127 -3.55622 -1.71925 0
M  V30 2920 C 495.277 -2.1832 -1.65733 0
M  V30 2921 C 495.407 -1.28842 -0.572777 0
M  V30 2922 N 495.417 -1.66875 0.70098 0
M  V30 2923 N 495.527 0.016788 -0.859836 0
M  V30 2924 C 495.517 0.398145 -2.13316 0
M  V30 2925 N 495.397 -0.328224 -3.22333 0
M  V30 2926 C 495.277 -1.62992 -2.90383 0
M  V30 2927 H 492.299 -5.40394 -6.8003 0
M  V30 2928 H 492.027 -4.41741 -5.32532 0
M  V30 2929 H 492.895 -3.26371 -7.47889 0
M  V30 2930 H 495.55 -1.64007 -5.56746 0
M  V30 2931 H 495.83 -4.63439 -5.3432 0
M  V30 2932 H 496.821 -3.44776 -6.25925 0
M  V30 2933 H 494.987 -4.96707 -7.57347 0
M  V30 2934 H 494.946 -4.8089 -3.39924 0
M  V30 2935 H 495.327 -2.66547 0.941919 0
M  V30 2936 H 495.516 -0.965341 1.44766 0
M  V30 2937 H 495.624 1.46427 -2.29697 0
M  V30 2938 P 496.857 -2.75334 -8.47391 0
M  V30 2939 O 497.077 -2.44619 -9.90336 0
M  V30 2940 O 497.647 -3.87776 -7.92294 0
M  V30 2941 O 497.107 -1.4459 -7.59357 0
M  V30 2942 C 496.167 -0.347653 -7.69315 0
M  V30 2943 C 496.897 0.96767 -7.52806 0
M  V30 2944 O 497.107 1.21055 -6.10208 0
M  V30 2945 C 498.297 1.04557 -8.13408 0
M  V30 2946 O 498.687 2.38311 -8.41922 0
M  V30 2947 C 499.177 0.491279 -7.02284 0
M  V30 2948 C 498.467 0.996264 -5.77469 0
M  V30 2949 N 498.517 0.0501916 -4.62973 0
M  V30 2950 H 495.679 -0.374765 -8.67791 0
M  V30 2951 H 495.407 -0.443613 -6.90476 0
M  V30 2952 H 496.275 1.75559 -7.96891 0
M  V30 2953 H 498.93 1.94563 -5.46818 0
M  V30 2954 H 499.21 -0.608651 -7.04676 0
M  V30 2955 H 500.201 0.889796 -7.09039 0
M  V30 2956 H 498.367 0.433128 -9.04664 0
M  V30 2957 P 500.237 2.75334 -8.47391 0
M  V30 2958 O 500.457 3.84128 -9.44797 0
M  V30 2959 O 501.027 1.51947 -8.68712 0
M  V30 2960 O 500.487 3.29363 -6.99321 0
M  V30 2961 C 499.547 4.24011 -6.4274 0
M  V30 2962 C 500.277 5.20775 -5.52155 0
M  V30 2963 O 500.487 4.56534 -4.22446 0
M  V30 2964 C 501.677 5.62629 -5.96531 0
M  V30 2965 O 502.067 6.87667 -5.41053 0
M  V30 2966 C 502.557 4.52537 -5.39283 0
M  V30 2967 C 501.847 4.20027 -4.08623 0
M  V30 2968 N 501.897 2.76189 -3.71603 0
M  V30 2969 H 499.058 4.797 -7.24003 0
M  V30 2970 H 498.788 3.69856 -5.84513 0
M  V30 2971 H 499.655 6.10356 -5.41441 0
M  V30 2972 P 503.617 7.20834 -5.23717 0
M  V30 2973 O 503.837 8.66104 -5.38572 0
M  V30 2974 O 504.407 6.33544 -6.1349 0
M  V30 2975 O 503.867 6.7751 -3.72168 0
M  V30 2976 C 502.927 7.20825 -2.7076 0
M  V30 2977 C 503.657 7.45864 -1.40599 0
M  V30 2978 O 503.867 6.17651 -0.734225 0
M  V30 2979 C 505.057 8.05808 -1.51899 0
M  V30 2980 O 505.447 8.74358 -0.335205 0
M  V30 2981 C 505.937 6.83093 -1.70294 0
M  V30 2982 C 505.227 5.79992 -0.836974 0
M  V30 2983 N 505.277 4.41864 -1.38293 0
M  V30 2984 H 502.438 8.13644 -3.0377 0
M  V30 2985 H 502.168 6.42788 -2.55485 0
M  V30 2986 H 503.035 8.12039 -0.792769 0
M  V30 2987 P 506.997 8.91 3.06942e-12 0
M  V30 2988 O 507.217 10.1726 0.733694 0
M  V30 2989 O 507.787 8.73148 -1.23936 0
M  V30 2990 O 507.247 7.66872 0.971405 0
M  V30 2991 C 506.307 7.42309 2.04641 0
M  V30 2992 C 507.037 6.86059 3.24661 0
M  V30 2993 O 507.247 5.42847 3.03646 0
M  V30 2994 C 508.437 7.41196 3.50753 0
M  V30 2995 O 508.827 7.27073 4.86816 0
M  V30 2996 C 509.317 6.5273 2.63741 0
M  V30 2997 C 508.607 5.1842 2.73198 0
M  V30 2998 N 508.657 4.38762 1.4784 0
M  V30 2999 H 505.818 8.36803 2.32493 0
M  V30 3000 H 505.548 6.70197 1.71129 0
M  V30 3001 H 506.415 7.03551 4.13168 0
M  V30 3002 P 510.377 7.20834 5.23717 0
M  V30 3003 O 510.597 7.79853 6.57286 0
M  V30 3004 O 511.167 7.79239 4.12957 0
M  V30 3005 O 510.627 5.63315 5.29344 0
M  V30 3006 C 509.687 4.80255 6.01876 0
M  V30 3007 C 510.417 3.64202 6.65911 0
M  V30 3008 O 510.627 2.60694 5.64732 0
M  V30 3009 C 511.817 3.93473 7.1943 0
M  V30 3010 O 512.207 3.02071 8.21205 0
M  V30 3011 C 512.697 3.73047 5.97036 0
M  V30 3012 C 511.987 2.58828 5.25741 0
M  V30 3013 N 512.037 2.68068 3.77503 0
M  V30 3014 C 511.957 3.79715 2.96723 0
M  V30 3015 N 512.037 3.5377 1.68852 0
M  V30 3016 C 512.177 2.15054 1.63254 0
M  V30 3017 C 512.307 1.28964 0.518571 0
M  V30 3018 N 512.427 -0.0538097 0.918425 0
M  V30 3019 C 512.427 -0.494275 2.22578 0
M  V30 3020 N 512.557 -1.81086 2.40434 0
M  V30 3021 N 512.297 0.313645 3.27502 0
M  V30 3022 C 512.177 1.61829 2.91033 0
M  V30 3023 H 509.198 5.40332 6.79951 0
M  V30 3024 H 508.928 4.41613 5.32378 0
M  V30 3025 H 509.795 3.26331 7.47797 0
M  V30 3026 P 513.757 2.75334 8.47391 0
M  V30 3027 O 513.977 2.44595 9.90239 0
M  V30 3028 O 514.547 3.87732 7.92204 0
M  V30 3029 O 514.007 1.4459 7.59357 0
M  V30 3030 C 513.067 0.347563 7.69115 0
M  V30 3031 C 513.797 -0.96767 7.52806 0
M  V30 3032 O 514.007 -1.21036 6.1011 0
M  V30 3033 C 515.197 -1.04544 8.13308 0
M  V30 3034 O 515.587 -2.38311 8.41922 0
M  V30 3035 C 516.077 -0.491279 7.02284 0
M  V30 3036 C 515.367 -0.996264 5.77469 0
M  V30 3037 N 515.417 -0.0501808 4.62873 0
M  V30 3038 C 515.567 -0.588177 3.36904 0
M  V30 3039 O 515.657 -1.78598 3.17173 0
M  V30 3040 N 515.607 0.329694 2.33686 0
M  V30 3041 C 515.517 1.6953 2.45079 0
M  V30 3042 C 515.367 2.16933 3.80505 0
M  V30 3043 C 515.317 1.30326 4.83752 0
M  V30 3044 H 512.577 0.374722 8.67691 0
M  V30 3045 H 512.308 0.443421 6.90177 0
M  V30 3046 H 513.175 -1.75537 7.96793 0
M  V30 3047 H 515.83 -1.94496 5.46629 0
M  V30 3048 H 516.109 0.608651 7.04676 0
M  V30 3049 H 517.101 -0.889672 7.08939 0
M  V30 3050 H 515.267 -0.43308 9.04564 0
M  V30 3051 H 515.196 1.68366 5.8516 0
M  V30 3052 P 517.137 -2.75334 8.47391 0
M  V30 3053 O 517.357 -3.84166 9.4489 0
M  V30 3054 O 517.927 -1.51964 8.6881 0
M  V30 3055 O 517.387 -3.29363 6.99321 0
M  V30 3056 C 516.447 -4.23956 6.42656 0
M  V30 3057 C 517.177 -5.20775 5.52155 0
M  V30 3058 O 517.387 -4.56534 4.22446 0
M  V30 3059 C 518.577 -5.62629 5.96531 0
M  V30 3060 O 518.967 -6.87667 5.41053 0
M  V30 3061 C 519.457 -4.52537 5.39283 0
M  V30 3062 C 518.747 -4.20027 4.08623 0
M  V30 3063 N 518.797 -2.7613 3.71522 0
M  V30 3064 C 518.947 -2.45612 2.37989 0
M  V30 3065 O 519.037 -3.30919 1.51621 0
M  V30 3066 N 518.987 -1.10684 2.08435 0
M  V30 3067 C 518.897 -0.0690084 2.9792 0
M  V30 3068 C 518.747 -0.481522 4.35345 0
M  V30 3069 C 518.697 -1.78906 4.67968 0
M  V30 3070 H 515.957 -4.797 7.24003 0
M  V30 3071 H 515.688 -3.69802 5.84429 0
M  V30 3072 H 516.555 -6.10356 5.41441 0
M  V30 3073 H 519.21 -4.78651 3.27911 0
M  V30 3074 H 519.489 -3.64957 6.05871 0
M  V30 3075 H 520.481 -4.8868 5.2125 0
M  V30 3076 H 518.647 -5.66726 7.06352 0
M  V30 3077 H 518.576 -2.07737 5.72367 0
M  V30 3078 P 520.517 -7.20834 5.23717 0
M  V30 3079 O 520.737 -8.66104 5.38572 0
M  V30 3080 O 521.307 -6.33544 6.1349 0
M  V30 3081 O 520.767 -6.7751 3.72168 0
M  V30 3082 C 519.827 -7.20825 2.7076 0
M  V30 3083 C 520.557 -7.45864 1.40599 0
M  V30 3084 O 520.767 -6.17651 0.734225 0
M  V30 3085 C 521.957 -8.05808 1.51899 0
M  V30 3086 O 522.347 -8.74358 0.335205 0
M  V30 3087 C 522.837 -6.83093 1.70294 0
M  V30 3088 C 522.127 -5.79992 0.836974 0
M  V30 3089 N 522.177 -4.41864 1.38293 0
M  V30 3090 H 519.338 -8.13644 3.0377 0
M  V30 3091 H 519.068 -6.42788 2.55485 0
M  V30 3092 H 519.935 -8.12039 0.792769 0
M  V30 3093 P 523.897 -8.91 -3.22661e-12 0
M  V30 3094 O 524.117 -10.1726 -0.733694 0
M  V30 3095 O 524.687 -8.73148 1.23936 0
M  V30 3096 O 524.147 -7.66872 -0.971405 0
M  V30 3097 C 523.207 -7.42309 -2.04641 0
M  V30 3098 C 523.937 -6.86059 -3.24661 0
M  V30 3099 O 524.147 -5.42847 -3.03646 0
M  V30 3100 C 525.337 -7.41196 -3.50753 0
M  V30 3101 O 525.727 -7.27073 -4.86816 0
M  V30 3102 C 526.217 -6.5273 -2.63741 0
M  V30 3103 C 525.507 -5.1842 -2.73198 0
M  V30 3104 N 525.557 -4.38762 -1.4784 0
M  V30 3105 H 522.718 -8.36803 -2.32493 0
M  V30 3106 H 522.448 -6.70197 -1.71129 0
M  V30 3107 H 523.315 -7.03551 -4.13168 0
M  V30 3108 P 527.277 -7.20834 -5.23717 0
M  V30 3109 O 527.497 -7.79853 -6.57286 0
M  V30 3110 O 528.067 -7.79239 -4.12957 0
M  V30 3111 O 527.527 -5.63315 -5.29344 0
M  V30 3112 C 526.587 -4.80255 -6.01876 0
M  V30 3113 C 527.317 -3.64202 -6.65911 0
M  V30 3114 O 527.527 -2.60694 -5.64732 0
M  V30 3115 C 528.717 -3.93473 -7.1943 0
M  V30 3116 O 529.107 -3.02071 -8.21205 0
M  V30 3117 C 529.597 -3.73047 -5.97036 0
M  V30 3118 C 528.887 -2.58828 -5.25741 0
M  V30 3119 N 528.937 -2.68068 -3.77503 0
M  V30 3120 C 528.857 -3.79715 -2.96723 0
M  V30 3121 N 528.937 -3.5377 -1.68852 0
M  V30 3122 C 529.077 -2.15054 -1.63254 0
M  V30 3123 C 529.207 -1.28964 -0.518571 0
M  V30 3124 O 529.227 -1.56826 0.679156 0
M  V30 3125 N 529.327 0.0538097 -0.918425 0
M  V30 3126 C 529.327 0.494275 -2.22578 0
M  V30 3127 N 529.457 1.81086 -2.40434 0
M  V30 3128 N 529.197 -0.313645 -3.27502 0
M  V30 3129 C 529.077 -1.61829 -2.91033 0
M  V30 3130 H 526.098 -5.40332 -6.79951 0
M  V30 3131 H 525.828 -4.41613 -5.32378 0
M  V30 3132 H 526.695 -3.26331 -7.47797 0
M  V30 3133 H 529.35 -1.63422 -5.56814 0
M  V30 3134 H 529.629 -4.63374 -5.34244 0
M  V30 3135 H 530.621 -3.44728 -6.25838 0
M  V30 3136 H 528.787 -4.96652 -7.57263 0
M  V30 3137 H 528.738 -4.80617 -3.3614 0
M  V30 3138 H 529.42 0.742702 -0.199384 0
M  V30 3139 H 529.457 2.20598 -3.35588 0
M  V30 3140 H 529.558 2.43518 -1.58945 0
M  V30 3141 P 530.657 -2.75334 -8.47391 0
M  V30 3142 O 530.877 -2.44619 -9.90336 0
M  V30 3143 O 531.447 -3.87776 -7.92294 0
M  V30 3144 O 530.907 -1.4459 -7.59357 0
M  V30 3145 C 529.967 -0.347653 -7.69315 0
M  V30 3146 C 530.697 0.96767 -7.52806 0
M  V30 3147 O 530.907 1.21055 -6.10208 0
M  V30 3148 C 532.097 1.04557 -8.13408 0
M  V30 3149 O 532.487 2.38311 -8.41922 0
M  V30 3150 C 532.977 0.491279 -7.02284 0
M  V30 3151 C 532.267 0.996264 -5.77469 0
M  V30 3152 N 532.317 0.0501916 -4.62973 0
M  V30 3153 H 529.479 -0.374765 -8.67791 0
M  V30 3154 H 529.207 -0.443613 -6.90476 0
M  V30 3155 H 530.075 1.75559 -7.96891 0
M  V30 3156 H 532.73 1.94563 -5.46818 0
M  V30 3157 H 533.01 -0.608651 -7.04676 0
M  V30 3158 H 534.001 0.889796 -7.09039 0
M  V30 3159 H 532.167 0.433128 -9.04664 0
M  V30 3160 P 534.037 2.75334 -8.47391 0
M  V30 3161 O 534.257 3.84128 -9.44797 0
M  V30 3162 O 534.827 1.51947 -8.68712 0
M  V30 3163 O 534.287 3.29363 -6.99321 0
M  V30 3164 C 533.347 4.24011 -6.4274 0
M  V30 3165 C 534.077 5.20775 -5.52155 0
M  V30 3166 O 534.287 4.56534 -4.22446 0
M  V30 3167 C 535.477 5.62629 -5.96531 0
M  V30 3168 O 535.867 6.87667 -5.41053 0
M  V30 3169 C 536.357 4.52537 -5.39283 0
M  V30 3170 C 535.647 4.20027 -4.08623 0
M  V30 3171 N 535.697 2.76189 -3.71603 0
M  V30 3172 H 532.858 4.797 -7.24003 0
M  V30 3173 H 532.588 3.69856 -5.84513 0
M  V30 3174 H 533.455 6.10356 -5.41441 0
M  V30 3175 P 537.417 7.20834 -5.23717 0
M  V30 3176 O 537.637 8.66104 -5.38572 0
M  V30 3177 O 538.207 6.33544 -6.1349 0
M  V30 3178 O 537.667 6.7751 -3.72168 0
M  V30 3179 C 536.727 7.20825 -2.7076 0
M  V30 3180 C 537.457 7.45864 -1.40599 0
M  V30 3181 O 537.667 6.17651 -0.734225 0
M  V30 3182 C 538.857 8.05808 -1.51899 0
M  V30 3183 O 539.247 8.74358 -0.335205 0
M  V30 3184 C 539.737 6.83093 -1.70294 0
M  V30 3185 C 539.027 5.79992 -0.836974 0
M  V30 3186 N 539.077 4.41864 -1.38293 0
M  V30 3187 H 536.238 8.13644 -3.0377 0
M  V30 3188 H 535.968 6.42788 -2.55485 0
M  V30 3189 H 536.835 8.12039 -0.792769 0
M  V30 3190 P 540.797 8.91 3.38379e-12 0
M  V30 3191 O 541.017 10.1726 0.733694 0
M  V30 3192 O 541.587 8.73148 -1.23936 0
M  V30 3193 O 541.047 7.66872 0.971405 0
M  V30 3194 C 540.107 7.42309 2.04641 0
M  V30 3195 C 540.837 6.86059 3.24661 0
M  V30 3196 O 541.047 5.42847 3.03646 0
M  V30 3197 C 542.237 7.41196 3.50753 0
M  V30 3198 O 542.627 7.27073 4.86816 0
M  V30 3199 C 543.117 6.5273 2.63741 0
M  V30 3200 C 542.407 5.1842 2.73198 0
M  V30 3201 N 542.457 4.38762 1.4784 0
M  V30 3202 H 539.618 8.36803 2.32493 0
M  V30 3203 H 539.348 6.70197 1.71129 0
M  V30 3204 H 540.215 7.03551 4.13168 0
M  V30 3205 P 544.177 7.20834 5.23717 0
M  V30 3206 O 544.397 7.7993 6.57351 0
M  V30 3207 O 544.967 7.79328 4.13004 0
M  V30 3208 O 544.427 5.63315 5.29344 0
M  V30 3209 C 543.487 4.80193 6.01798 0
M  V30 3210 C 544.217 3.64202 6.65911 0
M  V30 3211 O 544.427 2.60694 5.64732 0
M  V30 3212 C 545.617 3.93473 7.1943 0
M  V30 3213 O 546.007 3.02071 8.21205 0
M  V30 3214 C 546.497 3.73047 5.97036 0
M  V30 3215 C 545.787 2.58828 5.25741 0
M  V30 3216 N 545.837 2.6801 3.77422 0
M  V30 3217 C 545.987 1.50443 3.07133 0
M  V30 3218 O 546.077 0.419406 3.61576 0
M  V30 3219 N 546.027 1.6403 1.69677 0
M  V30 3220 C 545.937 2.81206 0.986255 0
M  V30 3221 O 545.987 2.80892 -0.249754 0
M  V30 3222 C 545.787 3.99158 1.80325 0
M  V30 3223 C 545.677 5.29309 1.06921 0
M  V30 3224 C 545.737 3.89779 3.1476 0
M  V30 3225 H 542.997 5.40332 6.79951 0
M  V30 3226 H 542.728 4.41549 5.32301 0
M  V30 3227 H 543.595 3.26331 7.47797 0
M  V30 3228 H 546.25 1.6395 5.56554 0
M  V30 3229 H 546.529 4.63439 5.3432 0
M  V30 3230 H 547.521 3.44728 6.25838 0
M  V30 3231 H 545.687 4.96652 7.57263 0
M  V30 3232 H 545.616 4.80159 3.74441 0
M  V30 3233 H 546.646 5.81459 1.09608 0
M  V30 3234 H 544.909 5.9187 1.54487 0
M  V30 3235 H 545.397 5.10095 0.0220288 0
M  V30 3236 H 546.133 0.798962 1.16664 0
M  V30 3237 P 547.557 2.75334 8.47391 0
M  V30 3238 O 547.777 2.44571 9.90142 0
M  V30 3239 O 548.347 3.87688 7.92115 0
M  V30 3240 O 547.807 1.4459 7.59357 0
M  V30 3241 C 546.867 0.347608 7.69215 0
M  V30 3242 C 547.597 -0.96767 7.52806 0
M  V30 3243 O 547.807 -1.21036 6.1011 0
M  V30 3244 C 548.997 -1.04544 8.13308 0
M  V30 3245 O 549.387 -2.38311 8.41922 0
M  V30 3246 C 549.877 -0.491279 7.02284 0
M  V30 3247 C 549.167 -0.996264 5.77469 0
M  V30 3248 N 549.217 -0.0501916 4.62973 0
M  V30 3249 H 546.378 0.374722 8.67691 0
M  V30 3250 H 546.108 0.443485 6.90277 0
M  V30 3251 H 546.975 -1.75537 7.96793 0
M  V30 3252 P 550.937 -2.75334 8.47391 0
M  V30 3253 O 551.157 -3.84128 9.44797 0
M  V30 3254 O 551.727 -1.51947 8.68712 0
M  V30 3255 O 551.187 -3.29363 6.99321 0
M  V30 3256 C 550.247 -4.24011 6.4274 0
M  V30 3257 C 550.977 -5.20775 5.52155 0
M  V30 3258 O 551.187 -4.56534 4.22446 0
M  V30 3259 C 552.377 -5.62629 5.96531 0
M  V30 3260 O 552.767 -6.87667 5.41053 0
M  V30 3261 C 553.257 -4.52537 5.39283 0
M  V30 3262 C 552.547 -4.20027 4.08623 0
M  V30 3263 N 552.597 -2.76189 3.71603 0
M  V30 3264 C 552.517 -1.64862 4.52822 0
M  V30 3265 N 552.597 -0.512671 3.88633 0
M  V30 3266 C 552.737 -0.888083 2.54977 0
M  V30 3267 C 552.867 -0.094668 1.38677 0
M  V30 3268 O 552.887 1.13053 1.28163 0
M  V30 3269 N 552.987 -0.890102 0.232633 0
M  V30 3270 C 552.987 -2.26958 0.21772 0
M  V30 3271 N 553.117 -2.84626 -0.97925 0
M  V30 3272 N 552.857 -3.0178 1.31033 0
M  V30 3273 C 552.737 -2.26781 2.43843 0
M  V30 3274 H 549.758 -4.797 7.24003 0
M  V30 3275 H 549.488 -3.69856 5.84513 0
M  V30 3276 H 550.355 -6.10356 5.41441 0
M  V30 3277 H 553.01 -4.79061 3.27488 0
M  V30 3278 H 553.289 -3.64906 6.05785 0
M  V30 3279 H 554.281 -4.8868 5.2125 0
M  V30 3280 H 552.447 -5.66726 7.06352 0
M  V30 3281 H 552.398 -1.71169 5.60966 0
M  V30 3282 H 553.08 -0.419134 -0.644739 0
M  V30 3283 H 553.117 -3.87332 -1.06098 0
M  V30 3284 H 553.218 -2.26417 -1.82483 0
M  V30 3285 P 554.317 -7.20834 5.23717 0
M  V30 3286 O 554.537 -8.66104 5.38572 0
M  V30 3287 O 555.107 -6.33544 6.1349 0
M  V30 3288 O 554.567 -6.7751 3.72168 0
M  V30 3289 C 553.627 -7.20825 2.7076 0
M  V30 3290 C 554.357 -7.45864 1.40599 0
M  V30 3291 O 554.567 -6.17651 0.734225 0
M  V30 3292 C 555.757 -8.05808 1.51899 0
M  V30 3293 O 556.147 -8.74358 0.335205 0
M  V30 3294 C 556.637 -6.83093 1.70294 0
M  V30 3295 C 555.927 -5.79992 0.836974 0
M  V30 3296 N 555.977 -4.41864 1.38293 0
M  V30 3297 H 553.138 -8.13644 3.0377 0
M  V30 3298 H 552.868 -6.42788 2.55485 0
M  V30 3299 H 553.735 -8.12039 0.792769 0
M  V30 3300 P 557.697 -8.91 -3.54097e-12 0
M  V30 3301 O 557.917 -10.1726 -0.733694 0
M  V30 3302 O 558.487 -8.73148 1.23936 0
M  V30 3303 O 557.947 -7.66872 -0.971405 0
M  V30 3304 C 557.007 -7.42309 -2.04641 0
M  V30 3305 C 557.737 -6.86059 -3.24661 0
M  V30 3306 O 557.947 -5.42847 -3.03646 0
M  V30 3307 C 559.137 -7.41196 -3.50753 0
M  V30 3308 O 559.527 -7.27073 -4.86816 0
M  V30 3309 C 560.017 -6.5273 -2.63741 0
M  V30 3310 C 559.307 -5.1842 -2.73198 0
M  V30 3311 N 559.357 -4.38762 -1.4784 0
M  V30 3312 H 556.518 -8.36803 -2.32493 0
M  V30 3313 H 556.248 -6.70197 -1.71129 0
M  V30 3314 H 557.115 -7.03551 -4.13168 0
M  V30 3315 P 561.077 -7.20834 -5.23717 0
M  V30 3316 O 561.297 -7.79853 -6.57286 0
M  V30 3317 O 561.867 -7.79239 -4.12957 0
M  V30 3318 O 561.327 -5.63315 -5.29344 0
M  V30 3319 C 560.387 -4.80255 -6.01876 0
M  V30 3320 C 561.117 -3.64202 -6.65911 0
M  V30 3321 O 561.327 -2.60694 -5.64732 0
M  V30 3322 C 562.517 -3.93473 -7.1943 0
M  V30 3323 O 562.907 -3.02071 -8.21205 0
M  V30 3324 C 563.397 -3.73047 -5.97036 0
M  V30 3325 C 562.687 -2.58828 -5.25741 0
M  V30 3326 N 562.737 -2.68068 -3.77503 0
M  V30 3327 H 559.898 -5.40332 -6.79951 0
M  V30 3328 H 559.628 -4.41613 -5.32378 0
M  V30 3329 H 560.495 -3.26331 -7.47797 0
M  V30 3330 P 564.457 -2.75334 -8.47391 0
M  V30 3331 O 564.677 -2.44571 -9.90142 0
M  V30 3332 O 565.247 -3.87688 -7.92115 0
M  V30 3333 O 564.707 -1.4459 -7.59357 0
M  V30 3334 C 563.767 -0.347608 -7.69215 0
M  V30 3335 C 564.497 0.96767 -7.52806 0
M  V30 3336 O 564.707 1.21036 -6.1011 0
M  V30 3337 C 565.897 1.04544 -8.13308 0
M  V30 3338 O 566.287 2.38311 -8.41922 0
M  V30 3339 C 566.777 0.491279 -7.02284 0
M  V30 3340 C 566.067 0.996264 -5.77469 0
M  V30 3341 N 566.117 0.0501916 -4.62973 0
M  V30 3342 C 566.037 -1.32786 -4.63244 0
M  V30 3343 N 566.117 -1.86957 -3.44545 0
M  V30 3344 C 566.257 -0.780241 -2.58481 0
M  V30 3345 C 566.387 -0.738536 -1.17757 0
M  V30 3346 N 566.507 0.58337 -0.711393 0
M  V30 3347 C 566.507 1.70816 -1.51017 0
M  V30 3348 N 566.637 2.87826 -0.880757 0
M  V30 3349 N 566.377 1.67126 -2.8339 0
M  V30 3350 C 566.257 0.401421 -3.30572 0
M  V30 3351 H 563.278 -0.374722 -8.67691 0
M  V30 3352 H 563.008 -0.443485 -6.90277 0
M  V30 3353 H 563.875 1.75537 -7.96793 0
M  V30 3354 P 567.837 2.75334 -8.47391 0
M  V30 3355 O 568.057 3.84166 -9.4489 0
M  V30 3356 O 568.627 1.51964 -8.6881 0
M  V30 3357 O 568.087 3.29363 -6.99321 0
M  V30 3358 C 567.147 4.23956 -6.42656 0
M  V30 3359 C 567.877 5.20775 -5.52155 0
M  V30 3360 O 568.087 4.56534 -4.22446 0
M  V30 3361 C 569.277 5.62629 -5.96531 0
M  V30 3362 O 569.667 6.87667 -5.41053 0
M  V30 3363 C 570.157 4.52537 -5.39283 0
M  V30 3364 C 569.447 4.20027 -4.08623 0
M  V30 3365 N 569.497 2.7613 -3.71522 0
M  V30 3366 C 569.647 2.45612 -2.37989 0
M  V30 3367 O 569.737 3.30919 -1.51621 0
M  V30 3368 N 569.687 1.10684 -2.08435 0
M  V30 3369 C 569.597 0.0690084 -2.9792 0
M  V30 3370 O 569.647 -1.10553 -2.59426 0
M  V30 3371 C 569.447 0.481522 -4.35345 0
M  V30 3372 C 569.337 -0.618778 -5.36443 0
M  V30 3373 C 569.397 1.78906 -4.67968 0
M  V30 3374 H 566.657 4.797 -7.24003 0
M  V30 3375 H 566.388 3.69802 -5.84429 0
M  V30 3376 H 567.255 6.10356 -5.41441 0
M  V30 3377 H 569.91 4.78651 -3.27911 0
M  V30 3378 H 570.189 3.64957 -6.05871 0
M  V30 3379 H 571.181 4.8868 -5.2125 0
M  V30 3380 H 569.347 5.66726 -7.06352 0
M  V30 3381 H 569.276 2.07737 -5.72367 0
M  V30 3382 H 570.306 -0.754375 -5.86871 0
M  V30 3383 H 568.569 -0.359721 -6.10641 0
M  V30 3384 H 569.057 -1.55533 -4.8581 0
M  V30 3385 H 569.793 0.862651 -1.12037 0
M  V30 3386 P 571.217 7.20834 -5.23717 0
M  V30 3387 O 571.437 8.66104 -5.38572 0
M  V30 3388 O 572.007 6.33544 -6.1349 0
M  V30 3389 O 571.467 6.7751 -3.72168 0
M  V30 3390 C 570.527 7.20825 -2.7076 0
M  V30 3391 C 571.257 7.45864 -1.40599 0
M  V30 3392 O 571.467 6.17651 -0.734225 0
M  V30 3393 C 572.657 8.05808 -1.51899 0
M  V30 3394 O 573.047 8.74358 -0.335205 0
M  V30 3395 C 573.537 6.83093 -1.70294 0
M  V30 3396 C 572.827 5.79992 -0.836974 0
M  V30 3397 N 572.877 4.41864 -1.38293 0
M  V30 3398 H 570.038 8.13644 -3.0377 0
M  V30 3399 H 569.768 6.42788 -2.55485 0
M  V30 3400 H 570.635 8.12039 -0.792769 0
M  V30 3401 P 574.597 8.91 3.69815e-12 0
M  V30 3402 O 574.817 10.1746 0.733838 0
M  V30 3403 O 575.387 8.73346 -1.23964 0
M  V30 3404 O 574.847 7.66872 0.971405 0
M  V30 3405 C 573.907 7.42405 2.04668 0
M  V30 3406 C 574.637 6.86059 3.24661 0
M  V30 3407 O 574.847 5.42934 3.03695 0
M  V30 3408 C 576.037 7.41287 3.50796 0
M  V30 3409 O 576.427 7.27073 4.86816 0
M  V30 3410 C 576.917 6.5273 2.63741 0
M  V30 3411 C 576.207 5.1842 2.73198 0
M  V30 3412 N 576.257 4.38762 1.4784 0
M  V30 3413 C 576.177 4.83651 0.183876 0
M  V30 3414 N 576.247 3.88759 -0.699393 0
M  V30 3415 C 576.397 2.7404 0.0575568 0
M  V30 3416 C 576.527 1.37902 -0.293928 0
M  V30 3417 N 576.537 0.938021 -1.54797 0
M  V30 3418 N 576.647 0.491817 0.70549 0
M  V30 3419 C 576.637 0.931735 1.95979 0
M  V30 3420 N 576.517 2.16017 2.41481 0
M  V30 3421 C 576.397 3.02547 1.39121 0
M  V30 3422 H 573.419 8.36899 2.3252 0
M  V30 3423 H 573.147 6.70391 1.71179 0
M  V30 3424 H 574.015 7.03638 4.13219 0
M  V30 3425 H 576.67 4.59931 3.54016 0
M  V30 3426 H 576.95 6.88995 1.59871 0
M  V30 3427 H 577.941 6.4684 3.0373 0
M  V30 3428 H 576.107 8.47002 3.20749 0
M  V30 3429 H 576.066 5.8885 -0.0765548 0
M  V30 3430 H 576.447 1.60276 -2.32875 0
M  V30 3431 H 576.636 -0.0699355 -1.73859 0
M  V30 3432 H 576.744 0.165507 2.71897 0
M  V30 3433 P 577.977 7.20834 5.23717 0
M  V30 3434 O 578.197 7.7993 6.57351 0
M  V30 3435 O 578.767 7.79328 4.13004 0
M  V30 3436 O 578.227 5.63315 5.29344 0
M  V30 3437 C 577.287 4.80193 6.01798 0
M  V30 3438 C 578.017 3.64202 6.65911 0
M  V30 3439 O 578.227 2.60694 5.64732 0
M  V30 3440 C 579.417 3.93473 7.1943 0
M  V30 3441 O 579.807 3.02071 8.21205 0
M  V30 3442 C 580.297 3.73047 5.97036 0
M  V30 3443 C 579.587 2.58828 5.25741 0
M  V30 3444 N 579.637 2.6801 3.77422 0
M  V30 3445 C 579.787 1.50443 3.07133 0
M  V30 3446 O 579.877 0.419406 3.61576 0
M  V30 3447 N 579.827 1.6403 1.69677 0
M  V30 3448 C 579.737 2.81206 0.986255 0
M  V30 3449 O 579.787 2.80892 -0.249754 0
M  V30 3450 C 579.587 3.99158 1.80325 0
M  V30 3451 C 579.477 5.29309 1.06921 0
M  V30 3452 C 579.537 3.89779 3.1476 0
M  V30 3453 H 576.797 5.40332 6.79951 0
M  V30 3454 H 576.528 4.41549 5.32301 0
M  V30 3455 H 577.395 3.26331 7.47797 0
M  V30 3456 H 580.05 1.6395 5.56554 0
M  V30 3457 H 580.329 4.63439 5.3432 0
M  V30 3458 H 581.321 3.44728 6.25838 0
M  V30 3459 H 579.487 4.96652 7.57263 0
M  V30 3460 H 579.416 4.80159 3.74441 0
M  V30 3461 H 580.446 5.81459 1.09608 0
M  V30 3462 H 578.709 5.9187 1.54487 0
M  V30 3463 H 579.197 5.10095 0.0220288 0
M  V30 3464 H 579.933 0.798962 1.16664 0
M  V30 3465 P 581.357 2.75334 8.47391 0
M  V30 3466 O 581.577 2.44571 9.90142 0
M  V30 3467 O 582.147 3.87688 7.92115 0
M  V30 3468 O 581.607 1.4459 7.59357 0
M  V30 3469 C 580.667 0.347608 7.69215 0
M  V30 3470 C 581.397 -0.96767 7.52806 0
M  V30 3471 O 581.607 -1.21036 6.1011 0
M  V30 3472 C 582.797 -1.04544 8.13308 0
M  V30 3473 O 583.187 -2.38311 8.41922 0
M  V30 3474 C 583.677 -0.491279 7.02284 0
M  V30 3475 C 582.967 -0.996264 5.77469 0
M  V30 3476 N 583.017 -0.0501916 4.62973 0
M  V30 3477 H 580.178 0.374722 8.67691 0
M  V30 3478 H 579.908 0.443485 6.90277 0
M  V30 3479 H 580.775 -1.75537 7.96793 0
M  V30 3480 P 584.737 -2.75334 8.47391 0
M  V30 3481 O 584.957 -3.84128 9.44797 0
M  V30 3482 O 585.527 -1.51947 8.68712 0
M  V30 3483 O 584.987 -3.29363 6.99321 0
M  V30 3484 C 584.047 -4.24011 6.4274 0
M  V30 3485 C 584.777 -5.20775 5.52155 0
M  V30 3486 O 584.987 -4.56534 4.22446 0
M  V30 3487 C 586.177 -5.62629 5.96531 0
M  V30 3488 O 586.567 -6.87667 5.41053 0
M  V30 3489 C 587.057 -4.52537 5.39283 0
M  V30 3490 C 586.347 -4.20027 4.08623 0
M  V30 3491 N 586.397 -2.76189 3.71603 0
M  V30 3492 C 586.317 -1.64862 4.52822 0
M  V30 3493 N 586.397 -0.512671 3.88633 0
M  V30 3494 C 586.537 -0.888083 2.54977 0
M  V30 3495 C 586.667 -0.094668 1.38677 0
M  V30 3496 O 586.687 1.13053 1.28163 0
M  V30 3497 N 586.787 -0.890102 0.232633 0
M  V30 3498 C 586.787 -2.26958 0.21772 0
M  V30 3499 N 586.917 -2.84626 -0.97925 0
M  V30 3500 N 586.657 -3.0178 1.31033 0
M  V30 3501 C 586.537 -2.26781 2.43843 0
M  V30 3502 H 583.558 -4.797 7.24003 0
M  V30 3503 H 583.288 -3.69856 5.84513 0
M  V30 3504 H 584.155 -6.10356 5.41441 0
M  V30 3505 H 586.81 -4.79061 3.27488 0
M  V30 3506 H 587.089 -3.64906 6.05785 0
M  V30 3507 H 588.081 -4.8868 5.2125 0
M  V30 3508 H 586.247 -5.66726 7.06352 0
M  V30 3509 H 586.198 -1.71169 5.60966 0
M  V30 3510 H 586.88 -0.419134 -0.644739 0
M  V30 3511 H 586.917 -3.87332 -1.06098 0
M  V30 3512 H 587.018 -2.26417 -1.82483 0
M  V30 3513 P 588.117 -7.20834 5.23717 0
M  V30 3514 O 588.337 -8.66274 5.38678 0
M  V30 3515 O 588.907 -6.33687 6.13629 0
M  V30 3516 O 588.367 -6.7751 3.72168 0
M  V30 3517 C 587.427 -7.20919 2.70795 0
M  V30 3518 C 588.157 -7.45864 1.40599 0
M  V30 3519 O 588.367 -6.17751 0.734343 0
M  V30 3520 C 589.557 -8.05906 1.51917 0
M  V30 3521 O 589.947 -8.74358 0.335205 0
M  V30 3522 C 590.437 -6.83093 1.70294 0
M  V30 3523 C 589.727 -5.79992 0.836974 0
M  V30 3524 N 589.777 -4.41864 1.38293 0
M  V30 3525 H 586.939 -8.13738 3.03804 0
M  V30 3526 H 586.667 -6.42974 2.55559 0
M  V30 3527 H 587.535 -8.12139 0.792866 0
M  V30 3528 H 590.19 -5.80178 -0.160643 0
M  V30 3529 H 590.47 -6.51379 2.75643 0
M  V30 3530 H 591.461 -7.01832 1.3448 0
M  V30 3531 H 589.627 -8.73771 2.38364 0
M  V30 3532 P 591.496 -8.91 -3.85533e-12 0
M  V30 3533 O 591.716 -10.1726 -0.733694 0
M  V30 3534 O 592.286 -8.73148 1.23936 0
M  V30 3535 O 591.746 -7.66872 -0.971405 0
M  V30 3536 C 590.806 -7.42309 -2.04641 0
M  V30 3537 C 591.536 -6.86059 -3.24661 0
M  V30 3538 O 591.746 -5.42847 -3.03646 0
M  V30 3539 C 592.937 -7.41196 -3.50753 0
M  V30 3540 O 593.327 -7.27073 -4.86816 0
M  V30 3541 C 593.817 -6.5273 -2.63741 0
M  V30 3542 C 593.106 -5.1842 -2.73198 0
M  V30 3543 N 593.156 -4.38762 -1.4784 0
M  V30 3544 C 593.077 -4.81605 -0.168631 0
M  V30 3545 N 593.156 -3.85454 0.713363 0
M  V30 3546 C 593.296 -2.6994 -0.0566958 0
M  V30 3547 C 593.426 -1.34815 0.338502 0
M  V30 3548 N 593.546 -0.496304 -0.77465 0
M  V30 3549 C 593.546 -0.908403 -2.09122 0
M  V30 3550 N 593.676 0.0517805 -3.00955 0
M  V30 3551 N 593.416 -2.17875 -2.46519 0
M  V30 3552 C 593.296 -3.01988 -1.4033 0
M  V30 3553 H 590.317 -8.36803 -2.32493 0
M  V30 3554 H 590.048 -6.70197 -1.71129 0
M  V30 3555 H 590.914 -7.03551 -4.13168 0
M  V30 3556 P 594.876 -7.20834 -5.23717 0
M  V30 3557 O 595.096 -7.79853 -6.57286 0
M  V30 3558 O 595.666 -7.79239 -4.12957 0
M  V30 3559 O 595.126 -5.63315 -5.29344 0
M  V30 3560 C 594.186 -4.80255 -6.01876 0
M  V30 3561 C 594.916 -3.64202 -6.65911 0
M  V30 3562 O 595.126 -2.60694 -5.64732 0
M  V30 3563 C 596.316 -3.93473 -7.1943 0
M  V30 3564 O 596.706 -3.02071 -8.21205 0
M  V30 3565 C 597.196 -3.73047 -5.97036 0
M  V30 3566 C 596.486 -2.58828 -5.25741 0
M  V30 3567 N 596.536 -2.68068 -3.77503 0
M  V30 3568 H 593.697 -5.40332 -6.79951 0
M  V30 3569 H 593.427 -4.41613 -5.32378 0
M  V30 3570 H 594.294 -3.26331 -7.47797 0
M  V30 3571 P 598.256 -2.75334 -8.47391 0
M  V30 3572 O 598.476 -2.44619 -9.90336 0
M  V30 3573 O 599.046 -3.87776 -7.92294 0
M  V30 3574 O 598.506 -1.4459 -7.59357 0
M  V30 3575 C 597.566 -0.347653 -7.69315 0
M  V30 3576 C 598.296 0.96767 -7.52806 0
M  V30 3577 O 598.506 1.21055 -6.10208 0
M  V30 3578 C 599.696 1.04557 -8.13408 0
M  V30 3579 O 600.086 2.38311 -8.41922 0
M  V30 3580 C 600.576 0.491279 -7.02284 0
M  V30 3581 C 599.866 0.996264 -5.77469 0
M  V30 3582 N 599.916 0.0501916 -4.62973 0
M  V30 3583 C 599.836 -1.31969 -4.65661 0
M  V30 3584 N 599.906 -1.86649 -3.48119 0
M  V30 3585 C 600.056 -0.792089 -2.62406 0
M  V30 3586 C 600.186 -0.705684 -1.2207 0
M  V30 3587 N 600.196 -1.76207 -0.413762 0
M  V30 3588 N 600.306 0.518981 -0.685754 0
M  V30 3589 C 600.296 1.57595 -1.49174 0
M  V30 3590 N 600.176 1.62909 -2.80066 0
M  V30 3591 C 600.056 0.388195 -3.3073 0
M  V30 3592 H 597.078 -0.374765 -8.67791 0
M  V30 3593 H 596.806 -0.443613 -6.90476 0
M  V30 3594 H 597.674 1.75559 -7.96891 0
M  V30 3595 H 600.329 1.94563 -5.46818 0
M  V30 3596 H 600.609 -0.608651 -7.04676 0
M  V30 3597 H 601.6 0.889796 -7.09039 0
M  V30 3598 H 599.766 0.433128 -9.04664 0
M  V30 3599 H 599.725 -1.89246 -5.57664 0
M  V30 3600 H 600.106 -2.71005 -0.804694 0
M  V30 3601 H 600.295 -1.63189 0.603768 0
M  V30 3602 H 600.403 2.53475 -0.997614 0
M  V30 3603 P 601.636 2.75334 -8.47391 0
M  V30 3604 O 601.856 3.84128 -9.44797 0
M  V30 3605 O 602.426 1.51947 -8.68712 0
M  V30 3606 O 601.886 3.29363 -6.99321 0
M  V30 3607 C 600.946 4.24011 -6.4274 0
M  V30 3608 C 601.676 5.20775 -5.52155 0
M  V30 3609 O 601.886 4.56534 -4.22446 0
M  V30 3610 C 603.076 5.62629 -5.96531 0
M  V30 3611 O 603.466 6.87667 -5.41053 0
M  V30 3612 C 603.956 4.52537 -5.39283 0
M  V30 3613 C 603.246 4.20027 -4.08623 0
M  V30 3614 N 603.296 2.76189 -3.71603 0
M  V30 3615 H 600.457 4.797 -7.24003 0
M  V30 3616 H 600.187 3.69856 -5.84513 0
M  V30 3617 H 601.054 6.10356 -5.41441 0
M  V30 3618 P 605.016 7.20834 -5.23717 0
M  V30 3619 O 605.236 8.66189 -5.38625 0
M  V30 3620 O 605.806 6.33615 -6.1356 0
M  V30 3621 O 605.266 6.7751 -3.72168 0
M  V30 3622 C 604.326 7.20825 -2.7076 0
M  V30 3623 C 605.056 7.45864 -1.40599 0
M  V30 3624 O 605.266 6.17651 -0.734225 0
M  V30 3625 C 606.456 8.05808 -1.51899 0
M  V30 3626 O 606.846 8.74358 -0.335205 0
M  V30 3627 C 607.336 6.83093 -1.70294 0
M  V30 3628 C 606.626 5.79992 -0.836974 0
M  V30 3629 N 606.676 4.41769 -1.38263 0
M  V30 3630 C 606.826 3.36514 -0.485617 0
M  V30 3631 O 606.916 3.61814 0.724703 0
M  V30 3632 N 606.876 2.00746 -1.14492 0
M  V30 3633 C 606.776 1.85887 -2.27776 0
M  V30 3634 N 606.826 0.600907 -2.69379 0
M  V30 3635 C 606.626 2.92182 -3.22265 0
M  V30 3636 C 606.576 4.18399 -2.71925 0
M  V30 3637 H 603.836 8.1355 -3.03735 0
M  V30 3638 H 603.567 6.42695 -2.55448 0
M  V30 3639 H 604.434 8.12139 -0.792866 0
M  V30 3640 H 607.089 5.80078 0.160615 0
M  V30 3641 H 607.368 6.51379 -2.75643 0
M  V30 3642 H 608.36 7.01734 -1.34462 0
M  V30 3643 H 606.526 8.73674 -2.38337 0
M  V30 3644 H 606.454 5.02669 -3.39718 0
M  V30 3645 H 606.556 2.73001 -4.29239 0
M  V30 3646 H 606.944 -0.162318 -2.01146 0
M  V30 3647 H 606.747 0.387742 -3.69773 0
M  V30 3648 P 608.396 8.91 4.01252e-12 0
M  V30 3649 O 608.616 10.1726 0.733694 0
M  V30 3650 O 609.186 8.73148 -1.23936 0
M  V30 3651 O 608.646 7.66872 0.971405 0
M  V30 3652 C 607.706 7.42309 2.04641 0
M  V30 3653 C 608.436 6.86059 3.24661 0
M  V30 3654 O 608.646 5.42847 3.03646 0
M  V30 3655 C 609.836 7.41196 3.50753 0
M  V30 3656 O 610.226 7.27073 4.86816 0
M  V30 3657 C 610.716 6.5273 2.63741 0
M  V30 3658 C 610.006 5.1842 2.73198 0
M  V30 3659 N 610.056 4.38762 1.4784 0
M  V30 3660 H 607.217 8.36803 2.32493 0
M  V30 3661 H 606.947 6.70197 1.71129 0
M  V30 3662 H 607.814 7.03551 4.13168 0
M  V30 3663 P 611.776 7.20834 5.23717 0
M  V30 3664 O 611.996 7.80006 6.57415 0
M  V30 3665 O 612.566 7.79416 4.13051 0
M  V30 3666 O 612.026 5.63315 5.29344 0
M  V30 3667 C 611.086 4.80318 6.01954 0
M  V30 3668 C 611.816 3.64202 6.65911 0
M  V30 3669 O 612.026 2.60736 5.64823 0
M  V30 3670 C 613.216 3.93521 7.19518 0
M  V30 3671 O 613.606 3.02071 8.21205 0
M  V30 3672 C 614.096 3.73047 5.97036 0
M  V30 3673 C 613.386 2.58828 5.25741 0
M  V30 3674 N 613.436 2.68068 3.77503 0
M  V30 3675 H 610.598 5.40394 6.8003 0
M  V30 3676 H 610.326 4.41741 5.32532 0
M  V30 3677 H 611.194 3.26371 7.47889 0
M  V30 3678 H 613.849 1.64007 5.56746 0
M  V30 3679 H 614.129 4.63439 5.3432 0
M  V30 3680 H 615.12 3.44776 6.25925 0
M  V30 3681 H 613.286 4.96707 7.57347 0
M  V30 3682 P 615.156 2.75334 8.47391 0
M  V30 3683 O 615.376 2.44571 9.90142 0
M  V30 3684 O 615.946 3.87688 7.92115 0
M  V30 3685 O 615.406 1.4459 7.59357 0
M  V30 3686 C 614.466 0.347608 7.69215 0
M  V30 3687 C 615.196 -0.96767 7.52806 0
M  V30 3688 O 615.406 -1.21036 6.1011 0
M  V30 3689 C 616.596 -1.04544 8.13308 0
M  V30 3690 O 616.986 -2.38311 8.41922 0
M  V30 3691 C 617.476 -0.491279 7.02284 0
M  V30 3692 C 616.766 -0.996264 5.77469 0
M  V30 3693 N 616.816 -0.0501916 4.62973 0
M  V30 3694 H 613.977 0.374722 8.67691 0
M  V30 3695 H 613.707 0.443485 6.90277 0
M  V30 3696 H 614.574 -1.75537 7.96793 0
M  V30 3697 P 618.536 -2.75334 8.47391 0
M  V30 3698 O 618.756 -3.84128 9.44797 0
M  V30 3699 O 619.326 -1.51947 8.68712 0
M  V30 3700 O 618.786 -3.29363 6.99321 0
M  V30 3701 C 617.846 -4.24011 6.4274 0
M  V30 3702 C 618.576 -5.20775 5.52155 0
M  V30 3703 O 618.786 -4.56534 4.22446 0
M  V30 3704 C 619.976 -5.62629 5.96531 0
M  V30 3705 O 620.366 -6.87667 5.41053 0
M  V30 3706 C 620.856 -4.52537 5.39283 0
M  V30 3707 C 620.146 -4.20027 4.08623 0
M  V30 3708 N 620.196 -2.76189 3.71603 0
M  V30 3709 H 617.357 -4.797 7.24003 0
M  V30 3710 H 617.087 -3.69856 5.84513 0
M  V30 3711 H 617.954 -6.10356 5.41441 0
M  V30 3712 P 621.916 -7.20834 5.23717 0
M  V30 3713 O 622.136 -8.66104 5.38572 0
M  V30 3714 O 622.706 -6.33544 6.1349 0
M  V30 3715 O 622.166 -6.7751 3.72168 0
M  V30 3716 C 621.226 -7.20825 2.7076 0
M  V30 3717 C 621.956 -7.45864 1.40599 0
M  V30 3718 O 622.166 -6.17651 0.734225 0
M  V30 3719 C 623.356 -8.05808 1.51899 0
M  V30 3720 O 623.746 -8.74358 0.335205 0
M  V30 3721 C 624.236 -6.83093 1.70294 0
M  V30 3722 C 623.526 -5.79992 0.836974 0
M  V30 3723 N 623.576 -4.41864 1.38293 0
M  V30 3724 C 623.496 -3.99538 2.69438 0
M  V30 3725 N 623.576 -2.69909 2.84277 0
M  V30 3726 C 623.716 -2.21719 1.5408 0
M  V30 3727 C 623.846 -0.891712 1.06628 0
M  V30 3728 O 623.866 0.161298 1.70137 0
M  V30 3729 N 623.966 -0.856846 -0.334985 0
M  V30 3730 C 623.966 -1.9641 -1.15789 0
M  V30 3731 N 624.096 -1.72708 -2.46522 0
M  V30 3732 N 623.836 -3.21165 -0.713741 0
M  V30 3733 C 623.716 -3.26797 0.639748 0
M  V30 3734 H 620.737 -8.13644 3.0377 0
M  V30 3735 H 620.467 -6.42788 2.55485 0
M  V30 3736 H 621.334 -8.12039 0.792769 0
M  V30 3737 H 623.989 -5.80061 -0.166416 0
M  V30 3738 H 624.268 -6.51287 2.75604 0
M  V30 3739 H 625.26 -7.01734 1.34462 0
M  V30 3740 H 623.426 -8.73674 2.38337 0
M  V30 3741 H 623.377 -4.68207 3.53221 0
M  V30 3742 H 624.059 0.0398818 -0.767965 0
M  V30 3743 H 624.096 -2.50995 -3.13503 0
M  V30 3744 H 624.197 -0.759148 -2.80716 0
M  V30 3745 P 625.296 -8.91 -4.1697e-12 0
M  V30 3746 O 625.516 -10.1726 -0.733694 0
M  V30 3747 O 626.086 -8.73148 1.23936 0
M  V30 3748 O 625.546 -7.66872 -0.971405 0
M  V30 3749 C 624.606 -7.42309 -2.04641 0
M  V30 3750 C 625.336 -6.86059 -3.24661 0
M  V30 3751 O 625.546 -5.42847 -3.03646 0
M  V30 3752 C 626.736 -7.41196 -3.50753 0
M  V30 3753 O 627.126 -7.27073 -4.86816 0
M  V30 3754 C 627.616 -6.5273 -2.63741 0
M  V30 3755 C 626.906 -5.1842 -2.73198 0
M  V30 3756 N 626.956 -4.38762 -1.4784 0
M  V30 3757 H 624.117 -8.36803 -2.32493 0
M  V30 3758 H 623.847 -6.70197 -1.71129 0
M  V30 3759 H 624.714 -7.03551 -4.13168 0
M  V30 3760 P 628.676 -7.20834 -5.23717 0
M  V30 3761 O 628.896 -7.79853 -6.57286 0
M  V30 3762 O 629.466 -7.79239 -4.12957 0
M  V30 3763 O 628.926 -5.63315 -5.29344 0
M  V30 3764 C 627.986 -4.80255 -6.01876 0
M  V30 3765 C 628.716 -3.64202 -6.65911 0
M  V30 3766 O 628.926 -2.60694 -5.64732 0
M  V30 3767 C 630.116 -3.93473 -7.1943 0
M  V30 3768 O 630.506 -3.02071 -8.21205 0
M  V30 3769 C 630.996 -3.73047 -5.97036 0
M  V30 3770 C 630.286 -2.58828 -5.25741 0
M  V30 3771 N 630.336 -2.68068 -3.77503 0
M  V30 3772 H 627.497 -5.40332 -6.79951 0
M  V30 3773 H 627.227 -4.41613 -5.32378 0
M  V30 3774 H 628.094 -3.26331 -7.47797 0
M  V30 3775 P 632.056 -2.75334 -8.47391 0
M  V30 3776 O 632.276 -2.44571 -9.90142 0
M  V30 3777 O 632.846 -3.87688 -7.92115 0
M  V30 3778 O 632.306 -1.4459 -7.59357 0
M  V30 3779 C 631.366 -0.347608 -7.69215 0
M  V30 3780 C 632.096 0.96767 -7.52806 0
M  V30 3781 O 632.306 1.21036 -6.1011 0
M  V30 3782 C 633.496 1.04544 -8.13308 0
M  V30 3783 O 633.886 2.38311 -8.41922 0
M  V30 3784 C 634.376 0.491279 -7.02284 0
M  V30 3785 C 633.666 0.996264 -5.77469 0
M  V30 3786 N 633.716 0.0501916 -4.62973 0
M  V30 3787 H 630.877 -0.374722 -8.67691 0
M  V30 3788 H 630.607 -0.443485 -6.90277 0
M  V30 3789 H 631.474 1.75537 -7.96793 0
M  V30 3790 P 635.436 2.75334 -8.47391 0
M  V30 3791 O 635.656 3.84128 -9.44797 0
M  V30 3792 O 636.226 1.51947 -8.68712 0
M  V30 3793 O 635.686 3.29363 -6.99321 0
M  V30 3794 C 634.746 4.24011 -6.4274 0
M  V30 3795 C 635.476 5.20775 -5.52155 0
M  V30 3796 O 635.686 4.56534 -4.22446 0
M  V30 3797 C 636.876 5.62629 -5.96531 0
M  V30 3798 O 637.266 6.87667 -5.41053 0
M  V30 3799 C 637.756 4.52537 -5.39283 0
M  V30 3800 C 637.046 4.20027 -4.08623 0
M  V30 3801 N 637.096 2.76189 -3.71603 0
M  V30 3802 H 634.257 4.797 -7.24003 0
M  V30 3803 H 633.987 3.69856 -5.84513 0
M  V30 3804 H 634.854 6.10356 -5.41441 0
M  V30 3805 P 638.816 7.20834 -5.23717 0
M  V30 3806 O 639.036 8.66104 -5.38572 0
M  V30 3807 O 639.606 6.33544 -6.1349 0
M  V30 3808 O 639.066 6.7751 -3.72168 0
M  V30 3809 C 638.126 7.20825 -2.7076 0
M  V30 3810 C 638.856 7.45864 -1.40599 0
M  V30 3811 O 639.066 6.17651 -0.734225 0
M  V30 3812 C 640.256 8.05808 -1.51899 0
M  V30 3813 O 640.646 8.74358 -0.335205 0
M  V30 3814 C 641.136 6.83093 -1.70294 0
M  V30 3815 C 640.426 5.79992 -0.836974 0
M  V30 3816 N 640.476 4.41864 -1.38293 0
M  V30 3817 H 637.637 8.13644 -3.0377 0
M  V30 3818 H 637.367 6.42788 -2.55485 0
M  V30 3819 H 638.234 8.12039 -0.792769 0
M  V30 3820 P 642.196 8.91 4.32688e-12 0
M  V30 3821 O 642.416 10.1746 0.733838 0
M  V30 3822 O 642.986 8.73346 -1.23964 0
M  V30 3823 O 642.446 7.66872 0.971405 0
M  V30 3824 C 641.506 7.42405 2.04668 0
M  V30 3825 C 642.236 6.86059 3.24661 0
M  V30 3826 O 642.446 5.42934 3.03695 0
M  V30 3827 C 643.636 7.41287 3.50796 0
M  V30 3828 O 644.026 7.27073 4.86816 0
M  V30 3829 C 644.516 6.5273 2.63741 0
M  V30 3830 C 643.806 5.1842 2.73198 0
M  V30 3831 N 643.856 4.38762 1.4784 0
M  V30 3832 H 641.018 8.36899 2.3252 0
M  V30 3833 H 640.746 6.70391 1.71179 0
M  V30 3834 H 641.614 7.03638 4.13219 0
M  V30 3835 H 644.269 4.59931 3.54016 0
M  V30 3836 H 644.549 6.88995 1.59871 0
M  V30 3837 H 645.54 6.4684 3.0373 0
M  V30 3838 H 643.706 8.47002 3.20749 0
M  V30 3839 P 645.576 7.20834 5.23717 0
M  V30 3840 O 645.796 7.79853 6.57286 0
M  V30 3841 O 646.366 7.79239 4.12957 0
M  V30 3842 O 645.826 5.63315 5.29344 0
M  V30 3843 C 644.886 4.80255 6.01876 0
M  V30 3844 C 645.616 3.64202 6.65911 0
M  V30 3845 O 645.826 2.60694 5.64732 0
M  V30 3846 C 647.016 3.93473 7.1943 0
M  V30 3847 O 647.406 3.02071 8.21205 0
M  V30 3848 C 647.896 3.73047 5.97036 0
M  V30 3849 C 647.186 2.58828 5.25741 0
M  V30 3850 N 647.236 2.68068 3.77503 0
M  V30 3851 H 644.397 5.40332 6.79951 0
M  V30 3852 H 644.127 4.41613 5.32378 0
M  V30 3853 H 644.994 3.26331 7.47797 0
M  V30 3854 P 648.956 2.75334 8.47391 0
M  V30 3855 O 649.176 2.44571 9.90142 0
M  V30 3856 O 649.746 3.87688 7.92115 0
M  V30 3857 O 649.206 1.4459 7.59357 0
M  V30 3858 C 648.266 0.347608 7.69215 0
M  V30 3859 C 648.996 -0.96767 7.52806 0
M  V30 3860 O 649.206 -1.21036 6.1011 0
M  V30 3861 C 650.396 -1.04544 8.13308 0
M  V30 3862 O 650.786 -2.38311 8.41922 0
M  V30 3863 C 651.276 -0.491279 7.02284 0
M  V30 3864 C 650.566 -0.996264 5.77469 0
M  V30 3865 N 650.616 -0.0501916 4.62973 0
M  V30 3866 H 647.777 0.374722 8.67691 0
M  V30 3867 H 647.507 0.443485 6.90277 0
M  V30 3868 H 648.374 -1.75537 7.96793 0
M  V30 3869 P 652.336 -2.75334 8.47391 0
M  V30 3870 O 652.556 -3.84128 9.44797 0
M  V30 3871 O 653.126 -1.51947 8.68712 0
M  V30 3872 O 652.586 -3.29363 6.99321 0
M  V30 3873 C 651.646 -4.24011 6.4274 0
M  V30 3874 C 652.376 -5.20775 5.52155 0
M  V30 3875 O 652.586 -4.56534 4.22446 0
M  V30 3876 C 653.776 -5.62629 5.96531 0
M  V30 3877 O 654.166 -6.87667 5.41053 0
M  V30 3878 C 654.656 -4.52537 5.39283 0
M  V30 3879 C 653.946 -4.20027 4.08623 0
M  V30 3880 N 653.996 -2.76189 3.71603 0
M  V30 3881 H 651.157 -4.797 7.24003 0
M  V30 3882 H 650.887 -3.69856 5.84513 0
M  V30 3883 H 651.754 -6.10356 5.41441 0
M  V30 3884 P 655.716 -7.20834 5.23717 0
M  V30 3885 O 655.936 -8.66104 5.38572 0
M  V30 3886 O 656.506 -6.33544 6.1349 0
M  V30 3887 O 655.966 -6.7751 3.72168 0
M  V30 3888 C 655.026 -7.20825 2.7076 0
M  V30 3889 C 655.756 -7.45864 1.40599 0
M  V30 3890 O 655.966 -6.17651 0.734225 0
M  V30 3891 C 657.156 -8.05808 1.51899 0
M  V30 3892 O 657.546 -8.74358 0.335205 0
M  V30 3893 C 658.036 -6.83093 1.70294 0
M  V30 3894 C 657.326 -5.79992 0.836974 0
M  V30 3895 N 657.376 -4.41864 1.38293 0
M  V30 3896 H 654.537 -8.13644 3.0377 0
M  V30 3897 H 654.267 -6.42788 2.55485 0
M  V30 3898 H 655.134 -8.12039 0.792769 0
M  V30 3899 P 659.096 -8.91 -4.48406e-12 0
M  V30 3900 O 659.316 -10.1726 -0.733694 0
M  V30 3901 O 659.886 -8.73148 1.23936 0
M  V30 3902 O 659.346 -7.66872 -0.971405 0
M  V30 3903 C 658.406 -7.42309 -2.04641 0
M  V30 3904 C 659.136 -6.86059 -3.24661 0
M  V30 3905 O 659.346 -5.42847 -3.03646 0
M  V30 3906 C 660.536 -7.41196 -3.50753 0
M  V30 3907 O 660.926 -7.27073 -4.86816 0
M  V30 3908 C 661.416 -6.5273 -2.63741 0
M  V30 3909 C 660.706 -5.1842 -2.73198 0
M  V30 3910 N 660.756 -4.38762 -1.4784 0
M  V30 3911 H 657.917 -8.36803 -2.32493 0
M  V30 3912 H 657.647 -6.70197 -1.71129 0
M  V30 3913 H 658.514 -7.03551 -4.13168 0
M  V30 3914 P 662.476 -7.20834 -5.23717 0
M  V30 3915 O 662.696 -7.79853 -6.57286 0
M  V30 3916 O 663.266 -7.79239 -4.12957 0
M  V30 3917 O 662.726 -5.63315 -5.29344 0
M  V30 3918 C 661.786 -4.80255 -6.01876 0
M  V30 3919 C 662.516 -3.64202 -6.65911 0
M  V30 3920 O 662.726 -2.60694 -5.64732 0
M  V30 3921 C 663.916 -3.93473 -7.1943 0
M  V30 3922 O 664.306 -3.02071 -8.21205 0
M  V30 3923 C 664.796 -3.73047 -5.97036 0
M  V30 3924 C 664.086 -2.58828 -5.25741 0
M  V30 3925 N 664.136 -2.68068 -3.77503 0
M  V30 3926 C 664.056 -3.79715 -2.96723 0
M  V30 3927 N 664.136 -3.5377 -1.68852 0
M  V30 3928 C 664.276 -2.15054 -1.63254 0
M  V30 3929 C 664.406 -1.28964 -0.518571 0
M  V30 3930 N 664.526 0.0538097 -0.918425 0
M  V30 3931 C 664.526 0.494275 -2.22578 0
M  V30 3932 N 664.656 1.81086 -2.40434 0
M  V30 3933 N 664.396 -0.313645 -3.27502 0
M  V30 3934 C 664.276 -1.61829 -2.91033 0
M  V30 3935 H 661.297 -5.40332 -6.79951 0
M  V30 3936 H 661.027 -4.41613 -5.32378 0
M  V30 3937 H 661.894 -3.26331 -7.47797 0
M  V30 3938 P 665.856 -2.75334 -8.47391 0
M  V30 3939 O 666.076 -2.44571 -9.90142 0
M  V30 3940 O 666.646 -3.87688 -7.92115 0
M  V30 3941 O 666.106 -1.4459 -7.59357 0
M  V30 3942 C 665.166 -0.347608 -7.69215 0
M  V30 3943 C 665.896 0.96767 -7.52806 0
M  V30 3944 O 666.106 1.21036 -6.1011 0
M  V30 3945 C 667.296 1.04544 -8.13308 0
M  V30 3946 O 667.686 2.38311 -8.41922 0
M  V30 3947 C 668.176 0.491279 -7.02284 0
M  V30 3948 C 667.466 0.996264 -5.77469 0
M  V30 3949 N 667.516 0.0501916 -4.62973 0
M  V30 3950 H 664.677 -0.374722 -8.67691 0
M  V30 3951 H 664.407 -0.443485 -6.90277 0
M  V30 3952 H 665.274 1.75537 -7.96793 0
M  V30 3953 P 669.236 2.75334 -8.47391 0
M  V30 3954 O 669.456 3.84128 -9.44797 0
M  V30 3955 O 670.026 1.51947 -8.68712 0
M  V30 3956 O 669.486 3.29363 -6.99321 0
M  V30 3957 C 668.546 4.24011 -6.4274 0
M  V30 3958 C 669.276 5.20775 -5.52155 0
M  V30 3959 O 669.486 4.56534 -4.22446 0
M  V30 3960 C 670.676 5.62629 -5.96531 0
M  V30 3961 O 671.066 6.87667 -5.41053 0
M  V30 3962 C 671.556 4.52537 -5.39283 0
M  V30 3963 C 670.846 4.20027 -4.08623 0
M  V30 3964 N 670.896 2.76189 -3.71603 0
M  V30 3965 C 670.816 1.64862 -4.52822 0
M  V30 3966 N 670.896 0.512671 -3.88633 0
M  V30 3967 C 671.036 0.888083 -2.54977 0
M  V30 3968 C 671.166 0.094668 -1.38677 0
M  V30 3969 O 671.186 -1.13053 -1.28163 0
M  V30 3970 N 671.286 0.890102 -0.232633 0
M  V30 3971 C 671.286 2.26958 -0.21772 0
M  V30 3972 N 671.416 2.84626 0.97925 0
M  V30 3973 N 671.156 3.0178 -1.31033 0
M  V30 3974 C 671.036 2.26781 -2.43843 0
M  V30 3975 H 668.057 4.797 -7.24003 0
M  V30 3976 H 667.787 3.69856 -5.84513 0
M  V30 3977 H 668.654 6.10356 -5.41441 0
M  V30 3978 H 671.309 4.79061 -3.27488 0
M  V30 3979 H 671.588 3.64906 -6.05785 0
M  V30 3980 H 672.58 4.8868 -5.2125 0
M  V30 3981 H 670.746 5.66726 -7.06352 0
M  V30 3982 H 670.697 1.71169 -5.60966 0
M  V30 3983 H 671.379 0.419134 0.644739 0
M  V30 3984 H 671.416 3.87332 1.06098 0
M  V30 3985 H 671.517 2.26417 1.82483 0
M  V30 3986 P 672.616 7.20834 -5.23717 0
M  V30 3987 O 672.836 8.66104 -5.38572 0
M  V30 3988 O 673.406 6.33544 -6.1349 0
M  V30 3989 O 672.866 6.7751 -3.72168 0
M  V30 3990 C 671.926 7.20825 -2.7076 0
M  V30 3991 C 672.656 7.45864 -1.40599 0
M  V30 3992 O 672.866 6.17651 -0.734225 0
M  V30 3993 C 674.056 8.05808 -1.51899 0
M  V30 3994 O 674.446 8.74358 -0.335205 0
M  V30 3995 C 674.936 6.83093 -1.70294 0
M  V30 3996 C 674.226 5.79992 -0.836974 0
M  V30 3997 N 674.276 4.41864 -1.38293 0
M  V30 3998 H 671.437 8.13644 -3.0377 0
M  V30 3999 H 671.167 6.42788 -2.55485 0
M  V30 4000 H 672.034 8.12039 -0.792769 0
M  V30 4001 P 675.996 8.91 4.64125e-12 0
M  V30 4002 O 676.216 10.1726 0.733694 0
M  V30 4003 O 676.786 8.73148 -1.23936 0
M  V30 4004 O 676.246 7.66872 0.971405 0
M  V30 4005 C 675.306 7.42309 2.04641 0
M  V30 4006 C 676.036 6.86059 3.24661 0
M  V30 4007 O 676.246 5.42847 3.03646 0
M  V30 4008 C 677.436 7.41196 3.50753 0
M  V30 4009 O 677.826 7.27073 4.86816 0
M  V30 4010 C 678.316 6.5273 2.63741 0
M  V30 4011 C 677.606 5.1842 2.73198 0
M  V30 4012 N 677.656 4.38762 1.4784 0
M  V30 4013 H 674.817 8.36803 2.32493 0
M  V30 4014 H 674.547 6.70197 1.71129 0
M  V30 4015 H 675.414 7.03551 4.13168 0
M  V30 4016 P 679.376 7.20834 5.23717 0
M  V30 4017 O 679.596 7.79853 6.57286 0
M  V30 4018 O 680.166 7.79239 4.12957 0
M  V30 4019 O 679.626 5.63315 5.29344 0
M  V30 4020 C 678.686 4.80255 6.01876 0
M  V30 4021 C 679.416 3.64202 6.65911 0
M  V30 4022 O 679.626 2.60694 5.64732 0
M  V30 4023 C 680.816 3.93473 7.1943 0
M  V30 4024 O 681.206 3.02071 8.21205 0
M  V30 4025 C 681.696 3.73047 5.97036 0
M  V30 4026 C 680.986 2.58828 5.25741 0
M  V30 4027 N 681.036 2.68068 3.77503 0
M  V30 4028 H 678.197 5.40332 6.79951 0
M  V30 4029 H 677.927 4.41613 5.32378 0
M  V30 4030 H 678.794 3.26331 7.47797 0
M  V30 4031 P 682.756 2.75334 8.47391 0
M  V30 4032 O 682.976 2.44571 9.90142 0
M  V30 4033 O 683.546 3.87688 7.92115 0
M  V30 4034 O 683.006 1.4459 7.59357 0
M  V30 4035 C 682.066 0.347608 7.69215 0
M  V30 4036 C 682.796 -0.96767 7.52806 0
M  V30 4037 O 683.006 -1.21036 6.1011 0
M  V30 4038 C 684.196 -1.04544 8.13308 0
M  V30 4039 O 684.586 -2.38311 8.41922 0
M  V30 4040 C 685.076 -0.491279 7.02284 0
M  V30 4041 C 684.366 -0.996264 5.77469 0
M  V30 4042 N 684.416 -0.0501916 4.62973 0
M  V30 4043 H 681.577 0.374722 8.67691 0
M  V30 4044 H 681.307 0.443485 6.90277 0
M  V30 4045 H 682.174 -1.75537 7.96793 0
M  V30 4046 P 686.136 -2.75334 8.47391 0
M  V30 4047 O 686.356 -3.84204 9.44982 0
M  V30 4048 O 686.926 -1.51982 8.68909 0
M  V30 4049 O 686.386 -3.29363 6.99321 0
M  V30 4050 C 685.446 -4.24066 6.42823 0
M  V30 4051 C 686.176 -5.20775 5.52155 0
M  V30 4052 O 686.386 -4.56607 4.22514 0
M  V30 4053 C 687.576 -5.62697 5.96604 0
M  V30 4054 O 687.966 -6.87667 5.41053 0
M  V30 4055 C 688.456 -4.52537 5.39283 0
M  V30 4056 C 687.746 -4.20027 4.08623 0
M  V30 4057 N 687.796 -2.76189 3.71603 0
M  V30 4058 H 684.958 -4.79756 7.24086 0
M  V30 4059 H 684.686 -3.69963 5.84682 0
M  V30 4060 H 685.554 -6.10431 5.41508 0
M  V30 4061 H 688.209 -4.78816 3.28024 0
M  V30 4062 H 688.489 -3.64957 6.05871 0
M  V30 4063 H 689.48 -4.88748 5.21323 0
M  V30 4064 H 687.646 -5.66789 7.0643 0
M  V30 4065 P 689.516 -7.20834 5.23717 0
M  V30 4066 O 689.736 -8.66104 5.38572 0
M  V30 4067 O 690.306 -6.33544 6.1349 0
M  V30 4068 O 689.766 -6.7751 3.72168 0
M  V30 4069 C 688.826 -7.20825 2.7076 0
M  V30 4070 C 689.556 -7.45864 1.40599 0
M  V30 4071 O 689.766 -6.17651 0.734225 0
M  V30 4072 C 690.956 -8.05808 1.51899 0
M  V30 4073 O 691.346 -8.74358 0.335205 0
M  V30 4074 C 691.836 -6.83093 1.70294 0
M  V30 4075 C 691.126 -5.79992 0.836974 0
M  V30 4076 N 691.176 -4.41864 1.38293 0
M  V30 4077 C 691.096 -3.99538 2.69438 0
M  V30 4078 N 691.176 -2.69909 2.84277 0
M  V30 4079 C 691.316 -2.21719 1.5408 0
M  V30 4080 C 691.446 -0.891712 1.06628 0
M  V30 4081 N 691.566 -0.856846 -0.334985 0
M  V30 4082 C 691.566 -1.9641 -1.15789 0
M  V30 4083 N 691.696 -1.72708 -2.46522 0
M  V30 4084 N 691.436 -3.21165 -0.713741 0
M  V30 4085 C 691.316 -3.26797 0.639748 0
M  V30 4086 H 688.337 -8.13644 3.0377 0
M  V30 4087 H 688.067 -6.42788 2.55485 0
M  V30 4088 H 688.934 -8.12039 0.792769 0
M  V30 4089 P 692.896 -8.91 -4.67181e-12 0
M  V30 4090 O 693.116 -10.1746 -0.733838 0
M  V30 4091 O 693.686 -8.73346 1.23964 0
M  V30 4092 O 693.146 -7.66872 -0.971405 0
M  V30 4093 C 692.206 -7.42405 -2.04668 0
M  V30 4094 C 692.936 -6.86059 -3.24661 0
M  V30 4095 O 693.146 -5.42934 -3.03695 0
M  V30 4096 C 694.336 -7.41287 -3.50796 0
M  V30 4097 O 694.726 -7.27073 -4.86816 0
M  V30 4098 C 695.216 -6.5273 -2.63741 0
M  V30 4099 C 694.506 -5.1842 -2.73198 0
M  V30 4100 N 694.556 -4.38762 -1.4784 0
M  V30 4101 H 691.718 -8.36899 -2.3252 0
M  V30 4102 H 691.446 -6.70391 -1.71179 0
M  V30 4103 H 692.314 -7.03638 -4.13219 0
M  V30 4104 H 694.969 -4.59931 -3.54016 0
M  V30 4105 H 695.249 -6.88995 -1.59871 0
M  V30 4106 H 696.24 -6.4684 -3.0373 0
M  V30 4107 H 694.406 -8.47002 -3.20749 0
M  V30 4108 P 696.276 -7.20834 -5.23717 0
M  V30 4109 O 696.496 -7.79853 -6.57286 0
M  V30 4110 O 697.066 -7.79239 -4.12957 0
M  V30 4111 O 696.526 -5.63315 -5.29344 0
M  V30 4112 C 695.586 -4.80255 -6.01876 0
M  V30 4113 C 696.316 -3.64202 -6.65911 0
M  V30 4114 O 696.526 -2.60694 -5.64732 0
M  V30 4115 C 697.716 -3.93473 -7.1943 0
M  V30 4116 O 698.106 -3.02071 -8.21205 0
M  V30 4117 C 698.596 -3.73047 -5.97036 0
M  V30 4118 C 697.886 -2.58828 -5.25741 0
M  V30 4119 N 697.936 -2.68068 -3.77503 0
M  V30 4120 H 695.097 -5.40332 -6.79951 0
M  V30 4121 H 694.827 -4.41613 -5.32378 0
M  V30 4122 H 695.694 -3.26331 -7.47797 0
M  V30 4123 P 699.656 -2.75334 -8.47391 0
M  V30 4124 O 699.876 -2.44571 -9.90142 0
M  V30 4125 O 700.446 -3.87688 -7.92115 0
M  V30 4126 O 699.906 -1.4459 -7.59357 0
M  V30 4127 C 698.966 -0.347608 -7.69215 0
M  V30 4128 C 699.696 0.96767 -7.52806 0
M  V30 4129 O 699.906 1.21036 -6.1011 0
M  V30 4130 C 701.096 1.04544 -8.13308 0
M  V30 4131 O 701.486 2.38311 -8.41922 0
M  V30 4132 C 701.976 0.491279 -7.02284 0
M  V30 4133 C 701.266 0.996264 -5.77469 0
M  V30 4134 N 701.316 0.0501916 -4.62973 0
M  V30 4135 H 698.477 -0.374722 -8.67691 0
M  V30 4136 H 698.207 -0.443485 -6.90277 0
M  V30 4137 H 699.074 1.75537 -7.96793 0
M  V30 4138 P 703.036 2.75334 -8.47391 0
M  V30 4139 O 703.256 3.84128 -9.44797 0
M  V30 4140 O 703.826 1.51947 -8.68712 0
M  V30 4141 O 703.286 3.29363 -6.99321 0
M  V30 4142 C 702.346 4.24011 -6.4274 0
M  V30 4143 C 703.076 5.20775 -5.52155 0
M  V30 4144 O 703.286 4.56534 -4.22446 0
M  V30 4145 C 704.476 5.62629 -5.96531 0
M  V30 4146 O 704.866 6.87667 -5.41053 0
M  V30 4147 C 705.356 4.52537 -5.39283 0
M  V30 4148 C 704.646 4.20027 -4.08623 0
M  V30 4149 N 704.696 2.76189 -3.71603 0
M  V30 4150 C 704.616 1.64862 -4.52822 0
M  V30 4151 N 704.696 0.512671 -3.88633 0
M  V30 4152 C 704.836 0.888083 -2.54977 0
M  V30 4153 C 704.966 0.094668 -1.38677 0
M  V30 4154 O 704.986 -1.13053 -1.28163 0
M  V30 4155 N 705.086 0.890102 -0.232633 0
M  V30 4156 C 705.086 2.26958 -0.21772 0
M  V30 4157 N 705.216 2.84626 0.97925 0
M  V30 4158 N 704.956 3.0178 -1.31033 0
M  V30 4159 C 704.836 2.26781 -2.43843 0
M  V30 4160 H 701.857 4.797 -7.24003 0
M  V30 4161 H 701.587 3.69856 -5.84513 0
M  V30 4162 H 702.454 6.10356 -5.41441 0
M  V30 4163 H 705.109 4.79061 -3.27488 0
M  V30 4164 H 705.388 3.64906 -6.05785 0
M  V30 4165 H 706.38 4.8868 -5.2125 0
M  V30 4166 H 704.546 5.66726 -7.06352 0
M  V30 4167 H 704.497 1.71169 -5.60966 0
M  V30 4168 H 705.179 0.419134 0.644739 0
M  V30 4169 H 705.216 3.87332 1.06098 0
M  V30 4170 H 705.317 2.26417 1.82483 0
M  V30 4171 P 706.416 7.20834 -5.23717 0
M  V30 4172 O 706.636 8.66104 -5.38572 0
M  V30 4173 O 707.206 6.33544 -6.1349 0
M  V30 4174 O 706.666 6.7751 -3.72168 0
M  V30 4175 C 705.726 7.20825 -2.7076 0
M  V30 4176 C 706.456 7.45864 -1.40599 0
M  V30 4177 O 706.666 6.17651 -0.734225 0
M  V30 4178 C 707.856 8.05808 -1.51899 0
M  V30 4179 O 708.246 8.74358 -0.335205 0
M  V30 4180 C 708.736 6.83093 -1.70294 0
M  V30 4181 C 708.026 5.79992 -0.836974 0
M  V30 4182 N 708.076 4.41864 -1.38293 0
M  V30 4183 C 707.996 3.99538 -2.69438 0
M  V30 4184 N 708.076 2.69909 -2.84277 0
M  V30 4185 C 708.216 2.21719 -1.5408 0
M  V30 4186 C 708.346 0.891712 -1.06628 0
M  V30 4187 O 708.366 -0.161298 -1.70137 0
M  V30 4188 N 708.466 0.856846 0.334985 0
M  V30 4189 C 708.466 1.9641 1.15789 0
M  V30 4190 N 708.596 1.72708 2.46522 0
M  V30 4191 N 708.336 3.21165 0.713741 0
M  V30 4192 C 708.216 3.26797 -0.639748 0
M  V30 4193 H 705.237 8.13644 -3.0377 0
M  V30 4194 H 704.967 6.42788 -2.55485 0
M  V30 4195 H 705.834 8.12039 -0.792769 0
M  V30 4196 H 708.489 5.80061 0.166416 0
M  V30 4197 H 708.768 6.51287 -2.75604 0
M  V30 4198 H 709.76 7.01734 -1.34462 0
M  V30 4199 H 707.926 8.73674 -2.38337 0
M  V30 4200 H 707.877 4.68207 -3.53221 0
M  V30 4201 H 708.559 -0.0398818 0.767965 0
M  V30 4202 H 708.596 2.50995 3.13503 0
M  V30 4203 H 708.697 0.759148 2.80716 0
M  V30 4204 P 709.796 8.91 4.82899e-12 0
M  V30 4205 O 710.016 10.1726 0.733694 0
M  V30 4206 O 710.586 8.73148 -1.23936 0
M  V30 4207 O 710.046 7.66872 0.971405 0
M  V30 4208 C 709.106 7.42309 2.04641 0
M  V30 4209 C 709.836 6.86059 3.24661 0
M  V30 4210 O 710.046 5.42847 3.03646 0
M  V30 4211 C 711.236 7.41196 3.50753 0
M  V30 4212 O 711.626 7.27073 4.86816 0
M  V30 4213 C 712.116 6.5273 2.63741 0
M  V30 4214 C 711.406 5.1842 2.73198 0
M  V30 4215 N 711.456 4.38762 1.4784 0
M  V30 4216 H 708.617 8.36803 2.32493 0
M  V30 4217 H 708.347 6.70197 1.71129 0
M  V30 4218 H 709.214 7.03551 4.13168 0
M  V30 4219 P 713.176 7.20834 5.23717 0
M  V30 4220 O 713.396 7.79853 6.57286 0
M  V30 4221 O 713.966 7.79239 4.12957 0
M  V30 4222 O 713.426 5.63315 5.29344 0
M  V30 4223 C 712.486 4.80255 6.01876 0
M  V30 4224 C 713.216 3.64202 6.65911 0
M  V30 4225 O 713.426 2.60694 5.64732 0
M  V30 4226 C 714.616 3.93473 7.1943 0
M  V30 4227 O 715.006 3.02071 8.21205 0
M  V30 4228 C 715.496 3.73047 5.97036 0
M  V30 4229 C 714.786 2.58828 5.25741 0
M  V30 4230 N 714.836 2.68068 3.77503 0
M  V30 4231 H 711.997 5.40332 6.79951 0
M  V30 4232 H 711.727 4.41613 5.32378 0
M  V30 4233 H 712.594 3.26331 7.47797 0
M  V30 4234 P 716.556 2.75334 8.47391 0
M  V30 4235 O 716.776 2.44571 9.90142 0
M  V30 4236 O 717.346 3.87688 7.92115 0
M  V30 4237 O 716.806 1.4459 7.59357 0
M  V30 4238 C 715.866 0.347608 7.69215 0
M  V30 4239 C 716.596 -0.96767 7.52806 0
M  V30 4240 O 716.806 -1.21036 6.1011 0
M  V30 4241 C 717.996 -1.04544 8.13308 0
M  V30 4242 O 718.386 -2.38311 8.41922 0
M  V30 4243 C 718.876 -0.491279 7.02284 0
M  V30 4244 C 718.166 -0.996264 5.77469 0
M  V30 4245 N 718.216 -0.0501916 4.62973 0
M  V30 4246 H 715.377 0.374722 8.67691 0
M  V30 4247 H 715.107 0.443485 6.90277 0
M  V30 4248 H 715.974 -1.75537 7.96793 0
M  V30 4249 P 719.936 -2.75334 8.47391 0
M  V30 4250 O 720.156 -3.84128 9.44797 0
M  V30 4251 O 720.726 -1.51947 8.68712 0
M  V30 4252 O 720.186 -3.29363 6.99321 0
M  V30 4253 C 719.246 -4.24011 6.4274 0
M  V30 4254 C 719.976 -5.20775 5.52155 0
M  V30 4255 O 720.186 -4.56534 4.22446 0
M  V30 4256 C 721.376 -5.62629 5.96531 0
M  V30 4257 O 721.766 -6.87667 5.41053 0
M  V30 4258 C 722.256 -4.52537 5.39283 0
M  V30 4259 C 721.546 -4.20027 4.08623 0
M  V30 4260 N 721.596 -2.76189 3.71603 0
M  V30 4261 H 718.757 -4.797 7.24003 0
M  V30 4262 H 718.487 -3.69856 5.84513 0
M  V30 4263 H 719.354 -6.10356 5.41441 0
M  V30 4264 P 723.316 -7.20834 5.23717 0
M  V30 4265 O 723.536 -8.66104 5.38572 0
M  V30 4266 O 724.106 -6.33544 6.1349 0
M  V30 4267 O 723.566 -6.7751 3.72168 0
M  V30 4268 C 722.626 -7.20825 2.7076 0
M  V30 4269 C 723.356 -7.45864 1.40599 0
M  V30 4270 O 723.566 -6.17651 0.734225 0
M  V30 4271 C 724.756 -8.05808 1.51899 0
M  V30 4272 O 725.146 -8.74358 0.335205 0
M  V30 4273 C 725.636 -6.83093 1.70294 0
M  V30 4274 C 724.926 -5.79992 0.836974 0
M  V30 4275 N 724.976 -4.41864 1.38293 0
M  V30 4276 C 724.896 -3.99538 2.69438 0
M  V30 4277 N 724.976 -2.69909 2.84277 0
M  V30 4278 C 725.116 -2.21719 1.5408 0
M  V30 4279 C 725.246 -0.891712 1.06628 0
M  V30 4280 N 725.366 -0.856846 -0.334985 0
M  V30 4281 C 725.366 -1.9641 -1.15789 0
M  V30 4282 N 725.496 -1.72708 -2.46522 0
M  V30 4283 N 725.236 -3.21165 -0.713741 0
M  V30 4284 C 725.116 -3.26797 0.639748 0
M  V30 4285 H 722.137 -8.13644 3.0377 0
M  V30 4286 H 721.867 -6.42788 2.55485 0
M  V30 4287 H 722.734 -8.12039 0.792769 0
M  V30 4288 P 726.696 -8.91 -4.98617e-12 0
M  V30 4289 O 726.916 -10.1726 -0.733694 0
M  V30 4290 O 727.486 -8.73148 1.23936 0
M  V30 4291 O 726.946 -7.66872 -0.971405 0
M  V30 4292 C 726.006 -7.42309 -2.04641 0
M  V30 4293 C 726.736 -6.86059 -3.24661 0
M  V30 4294 O 726.946 -5.42847 -3.03646 0
M  V30 4295 C 728.136 -7.41196 -3.50753 0
M  V30 4296 O 728.526 -7.27073 -4.86816 0
M  V30 4297 C 729.016 -6.5273 -2.63741 0
M  V30 4298 C 728.306 -5.1842 -2.73198 0
M  V30 4299 N 728.356 -4.38762 -1.4784 0
M  V30 4300 H 725.517 -8.36803 -2.32493 0
M  V30 4301 H 725.247 -6.70197 -1.71129 0
M  V30 4302 H 726.114 -7.03551 -4.13168 0
M  V30 4303 P 730.076 -7.20834 -5.23717 0
M  V30 4304 O 730.296 -7.79853 -6.57286 0
M  V30 4305 O 730.866 -7.79239 -4.12957 0
M  V30 4306 O 730.326 -5.63315 -5.29344 0
M  V30 4307 C 729.386 -4.80255 -6.01876 0
M  V30 4308 C 730.116 -3.64202 -6.65911 0
M  V30 4309 O 730.326 -2.60694 -5.64732 0
M  V30 4310 C 731.516 -3.93473 -7.1943 0
M  V30 4311 O 731.906 -3.02071 -8.21205 0
M  V30 4312 C 732.396 -3.73047 -5.97036 0
M  V30 4313 C 731.686 -2.58828 -5.25741 0
M  V30 4314 N 731.736 -2.68068 -3.77503 0
M  V30 4315 H 728.897 -5.40332 -6.79951 0
M  V30 4316 H 728.627 -4.41613 -5.32378 0
M  V30 4317 H 729.494 -3.26331 -7.47797 0
M  V30 4318 P 733.456 -2.75334 -8.47391 0
M  V30 4319 O 733.676 -2.44571 -9.90142 0
M  V30 4320 O 734.246 -3.87688 -7.92115 0
M  V30 4321 O 733.706 -1.4459 -7.59357 0
M  V30 4322 C 732.766 -0.347608 -7.69215 0
M  V30 4323 C 733.496 0.96767 -7.52806 0
M  V30 4324 O 733.706 1.21036 -6.1011 0
M  V30 4325 C 734.896 1.04544 -8.13308 0
M  V30 4326 O 735.286 2.38311 -8.41922 0
M  V30 4327 C 735.776 0.491279 -7.02284 0
M  V30 4328 C 735.066 0.996264 -5.77469 0
M  V30 4329 N 735.116 0.0501916 -4.62973 0
M  V30 4330 H 732.277 -0.374722 -8.67691 0
M  V30 4331 H 732.007 -0.443485 -6.90277 0
M  V30 4332 H 732.874 1.75537 -7.96793 0
M  V30 4333 P 736.836 2.75334 -8.47391 0
M  V30 4334 O 737.056 3.84128 -9.44797 0
M  V30 4335 O 737.626 1.51947 -8.68712 0
M  V30 4336 O 737.086 3.29363 -6.99321 0
M  V30 4337 C 736.146 4.24011 -6.4274 0
M  V30 4338 C 736.876 5.20775 -5.52155 0
M  V30 4339 O 737.086 4.56534 -4.22446 0
M  V30 4340 C 738.276 5.62629 -5.96531 0
M  V30 4341 O 738.666 6.87667 -5.41053 0
M  V30 4342 C 739.156 4.52537 -5.39283 0
M  V30 4343 C 738.446 4.20027 -4.08623 0
M  V30 4344 N 738.496 2.76189 -3.71603 0
M  V30 4345 C 738.416 1.64862 -4.52822 0
M  V30 4346 N 738.496 0.512671 -3.88633 0
M  V30 4347 C 738.636 0.888083 -2.54977 0
M  V30 4348 C 738.766 0.094668 -1.38677 0
M  V30 4349 O 738.786 -1.13053 -1.28163 0
M  V30 4350 N 738.886 0.890102 -0.232633 0
M  V30 4351 C 738.886 2.26958 -0.21772 0
M  V30 4352 N 739.016 2.84626 0.97925 0
M  V30 4353 N 738.756 3.0178 -1.31033 0
M  V30 4354 C 738.636 2.26781 -2.43843 0
M  V30 4355 H 735.657 4.797 -7.24003 0
M  V30 4356 H 735.387 3.69856 -5.84513 0
M  V30 4357 H 736.254 6.10356 -5.41441 0
M  V30 4358 H 738.909 4.79061 -3.27488 0
M  V30 4359 H 739.188 3.64906 -6.05785 0
M  V30 4360 H 740.18 4.8868 -5.2125 0
M  V30 4361 H 738.346 5.66726 -7.06352 0
M  V30 4362 H 738.297 1.71169 -5.60966 0
M  V30 4363 H 738.979 0.419134 0.644739 0
M  V30 4364 H 739.016 3.87332 1.06098 0
M  V30 4365 H 739.117 2.26417 1.82483 0
M  V30 4366 P 740.216 7.20834 -5.23717 0
M  V30 4367 O 740.436 8.66104 -5.38572 0
M  V30 4368 O 741.006 6.33544 -6.1349 0
M  V30 4369 O 740.466 6.7751 -3.72168 0
M  V30 4370 C 739.526 7.20825 -2.7076 0
M  V30 4371 C 740.256 7.45864 -1.40599 0
M  V30 4372 O 740.466 6.17651 -0.734225 0
M  V30 4373 C 741.656 8.05808 -1.51899 0
M  V30 4374 O 742.046 8.74358 -0.335205 0
M  V30 4375 C 742.536 6.83093 -1.70294 0
M  V30 4376 C 741.826 5.79992 -0.836974 0
M  V30 4377 N 741.876 4.41864 -1.38293 0
M  V30 4378 H 739.037 8.13644 -3.0377 0
M  V30 4379 H 738.767 6.42788 -2.55485 0
M  V30 4380 H 739.634 8.12039 -0.792769 0
M  V30 4381 P 743.596 8.91 5.14336e-12 0
M  V30 4382 O 743.816 10.1726 0.733694 0
M  V30 4383 O 744.386 8.73148 -1.23936 0
M  V30 4384 O 743.846 7.66872 0.971405 0
M  V30 4385 C 742.906 7.42309 2.04641 0
M  V30 4386 C 743.636 6.86059 3.24661 0
M  V30 4387 O 743.846 5.42847 3.03646 0
M  V30 4388 C 745.036 7.41196 3.50753 0
M  V30 4389 O 745.426 7.27073 4.86816 0
M  V30 4390 C 745.916 6.5273 2.63741 0
M  V30 4391 C 745.206 5.1842 2.73198 0
M  V30 4392 N 745.256 4.38762 1.4784 0
M  V30 4393 H 742.417 8.36803 2.32493 0
M  V30 4394 H 742.147 6.70197 1.71129 0
M  V30 4395 H 743.014 7.03551 4.13168 0
M  V30 4396 P 746.976 7.20834 5.23717 0
M  V30 4397 O 747.196 7.79853 6.57286 0
M  V30 4398 O 747.766 7.79239 4.12957 0
M  V30 4399 O 747.226 5.63315 5.29344 0
M  V30 4400 C 746.286 4.80255 6.01876 0
M  V30 4401 C 747.016 3.64202 6.65911 0
M  V30 4402 O 747.226 2.60694 5.64732 0
M  V30 4403 C 748.416 3.93473 7.1943 0
M  V30 4404 O 748.806 3.02071 8.21205 0
M  V30 4405 C 749.296 3.73047 5.97036 0
M  V30 4406 C 748.586 2.58828 5.25741 0
M  V30 4407 N 748.636 2.68068 3.77503 0
M  V30 4408 H 745.797 5.40332 6.79951 0
M  V30 4409 H 745.527 4.41613 5.32378 0
M  V30 4410 H 746.394 3.26331 7.47797 0
M  V30 4411 P 750.356 2.75334 8.47391 0
M  V30 4412 O 750.576 2.44571 9.90142 0
M  V30 4413 O 751.146 3.87688 7.92115 0
M  V30 4414 O 750.606 1.4459 7.59357 0
M  V30 4415 C 749.666 0.347608 7.69215 0
M  V30 4416 C 750.396 -0.96767 7.52806 0
M  V30 4417 O 750.606 -1.21036 6.1011 0
M  V30 4418 C 751.796 -1.04544 8.13308 0
M  V30 4419 O 752.186 -2.38311 8.41922 0
M  V30 4420 C 752.676 -0.491279 7.02284 0
M  V30 4421 C 751.966 -0.996264 5.77469 0
M  V30 4422 N 752.016 -0.0501916 4.62973 0
M  V30 4423 H 749.177 0.374722 8.67691 0
M  V30 4424 H 748.907 0.443485 6.90277 0
M  V30 4425 H 749.774 -1.75537 7.96793 0
M  V30 4426 P 753.736 -2.75334 8.47391 0
M  V30 4427 O 753.956 -3.84128 9.44797 0
M  V30 4428 O 754.526 -1.51947 8.68712 0
M  V30 4429 O 753.986 -3.29363 6.99321 0
M  V30 4430 C 753.046 -4.24011 6.4274 0
M  V30 4431 C 753.776 -5.20775 5.52155 0
M  V30 4432 O 753.986 -4.56534 4.22446 0
M  V30 4433 C 755.176 -5.62629 5.96531 0
M  V30 4434 O 755.566 -6.87667 5.41053 0
M  V30 4435 C 756.056 -4.52537 5.39283 0
M  V30 4436 C 755.346 -4.20027 4.08623 0
M  V30 4437 N 755.396 -2.76189 3.71603 0
M  V30 4438 C 755.316 -1.64862 4.52822 0
M  V30 4439 N 755.396 -0.512671 3.88633 0
M  V30 4440 C 755.536 -0.888083 2.54977 0
M  V30 4441 C 755.666 -0.094668 1.38677 0
M  V30 4442 N 755.786 -0.890102 0.232633 0
M  V30 4443 C 755.786 -2.26958 0.21772 0
M  V30 4444 N 755.916 -2.84626 -0.97925 0
M  V30 4445 N 755.656 -3.0178 1.31033 0
M  V30 4446 C 755.536 -2.26781 2.43843 0
M  V30 4447 H 752.557 -4.797 7.24003 0
M  V30 4448 H 752.287 -3.69856 5.84513 0
M  V30 4449 H 753.154 -6.10356 5.41441 0
M  V30 4450 P 757.116 -7.20834 5.23717 0
M  V30 4451 O 757.336 -8.66274 5.38678 0
M  V30 4452 O 757.906 -6.33687 6.13629 0
M  V30 4453 O 757.366 -6.7751 3.72168 0
M  V30 4454 C 756.426 -7.20919 2.70795 0
M  V30 4455 C 757.156 -7.45864 1.40599 0
M  V30 4456 O 757.366 -6.17751 0.734343 0
M  V30 4457 C 758.556 -8.05906 1.51917 0
M  V30 4458 O 758.946 -8.74358 0.335205 0
M  V30 4459 C 759.436 -6.83093 1.70294 0
M  V30 4460 C 758.726 -5.79992 0.836974 0
M  V30 4461 N 758.776 -4.41864 1.38293 0
M  V30 4462 C 758.696 -4.02089 2.69407 0
M  V30 4463 N 758.766 -2.73403 2.85089 0
M  V30 4464 C 758.916 -2.25086 1.5642 0
M  V30 4465 C 759.046 -0.942887 1.04836 0
M  V30 4466 N 759.056 0.150999 1.80369 0
M  V30 4467 N 759.166 -0.812565 -0.28167 0
M  V30 4468 C 759.156 -1.90572 -1.03784 0
M  V30 4469 N 759.036 -3.167 -0.683905 0
M  V30 4470 C 758.916 -3.26538 0.652815 0
M  V30 4471 H 755.938 -8.13738 3.03804 0
M  V30 4472 H 755.666 -6.42974 2.55559 0
M  V30 4473 H 756.534 -8.12139 0.792866 0
M  V30 4474 H 759.189 -5.80178 -0.160643 0
M  V30 4475 H 759.469 -6.51379 2.75643 0
M  V30 4476 H 760.46 -7.01832 1.3448 0
M  V30 4477 H 758.626 -8.73771 2.38364 0
M  V30 4478 H 758.585 -4.7189 3.52311 0
M  V30 4479 H 758.966 0.0721434 2.82608 0
M  V30 4480 H 759.155 1.0785 1.36544 0
M  V30 4481 H 759.263 -1.73207 -2.10241 0
M  V30 4482 P 760.496 -8.91 -5.30054e-12 0
M  V30 4483 O 760.716 -10.1746 -0.733838 0
M  V30 4484 O 761.286 -8.73346 1.23964 0
M  V30 4485 O 760.746 -7.66872 -0.971405 0
M  V30 4486 C 759.806 -7.42405 -2.04668 0
M  V30 4487 C 760.536 -6.86059 -3.24661 0
M  V30 4488 O 760.746 -5.42934 -3.03695 0
M  V30 4489 C 761.936 -7.41287 -3.50796 0
M  V30 4490 O 762.326 -7.27073 -4.86816 0
M  V30 4491 C 762.816 -6.5273 -2.63741 0
M  V30 4492 C 762.106 -5.1842 -2.73198 0
M  V30 4493 N 762.156 -4.38762 -1.4784 0
M  V30 4494 H 759.318 -8.36899 -2.3252 0
M  V30 4495 H 759.046 -6.70391 -1.71179 0
M  V30 4496 H 759.914 -7.03638 -4.13219 0
M  V30 4497 H 762.569 -4.59931 -3.54016 0
M  V30 4498 H 762.849 -6.88995 -1.59871 0
M  V30 4499 H 763.84 -6.4684 -3.0373 0
M  V30 4500 H 762.006 -8.47002 -3.20749 0
M  V30 4501 P 763.875 -7.20834 -5.23717 0
M  V30 4502 O 764.095 -7.79853 -6.57286 0
M  V30 4503 O 764.665 -7.79239 -4.12957 0
M  V30 4504 O 764.125 -5.63315 -5.29344 0
M  V30 4505 C 763.185 -4.80255 -6.01876 0
M  V30 4506 C 763.915 -3.64202 -6.65911 0
M  V30 4507 O 764.125 -2.60694 -5.64732 0
M  V30 4508 C 765.315 -3.93473 -7.1943 0
M  V30 4509 O 765.705 -3.02071 -8.21205 0
M  V30 4510 C 766.195 -3.73047 -5.97036 0
M  V30 4511 C 765.485 -2.58828 -5.25741 0
M  V30 4512 N 765.535 -2.68068 -3.77503 0
M  V30 4513 H 762.696 -5.40332 -6.79951 0
M  V30 4514 H 762.426 -4.41613 -5.32378 0
M  V30 4515 H 763.293 -3.26331 -7.47797 0
M  V30 4516 P 767.255 -2.75334 -8.47391 0
M  V30 4517 O 767.475 -2.44571 -9.90142 0
M  V30 4518 O 768.045 -3.87688 -7.92115 0
M  V30 4519 O 767.505 -1.4459 -7.59357 0
M  V30 4520 C 766.565 -0.347608 -7.69215 0
M  V30 4521 C 767.295 0.96767 -7.52806 0
M  V30 4522 O 767.505 1.21036 -6.1011 0
M  V30 4523 C 768.695 1.04544 -8.13308 0
M  V30 4524 O 769.085 2.38311 -8.41922 0
M  V30 4525 C 769.575 0.491279 -7.02284 0
M  V30 4526 C 768.865 0.996264 -5.77469 0
M  V30 4527 N 768.915 0.0501916 -4.62973 0
M  V30 4528 C 768.835 -1.32786 -4.63244 0
M  V30 4529 N 768.915 -1.86957 -3.44545 0
M  V30 4530 C 769.055 -0.780241 -2.58481 0
M  V30 4531 C 769.185 -0.738536 -1.17757 0
M  V30 4532 O 769.205 -1.66794 -0.372349 0
M  V30 4533 N 769.305 0.58337 -0.711393 0
M  V30 4534 C 769.305 1.70816 -1.51017 0
M  V30 4535 N 769.435 2.87826 -0.880757 0
M  V30 4536 N 769.175 1.67126 -2.8339 0
M  V30 4537 C 769.055 0.401421 -3.30572 0
M  V30 4538 H 766.076 -0.374722 -8.67691 0
M  V30 4539 H 765.806 -0.443485 -6.90277 0
M  V30 4540 H 766.673 1.75537 -7.96793 0
M  V30 4541 H 769.328 1.95076 -5.46529 0
M  V30 4542 H 769.607 -0.608565 -7.04577 0
M  V30 4543 H 770.599 0.889672 -7.08939 0
M  V30 4544 H 768.765 0.43308 -9.04564 0
M  V30 4545 H 768.716 -1.91249 -5.54442 0
M  V30 4546 H 769.398 0.718054 0.275244 0
M  V30 4547 H 769.435 3.75721 -1.41832 0
M  V30 4548 H 769.536 2.90436 0.145468 0
M  V30 4549 P 770.635 2.75334 -8.47391 0
M  V30 4550 O 770.855 3.84128 -9.44797 0
M  V30 4551 O 771.425 1.51947 -8.68712 0
M  V30 4552 O 770.885 3.29363 -6.99321 0
M  V30 4553 C 769.945 4.24011 -6.4274 0
M  V30 4554 C 770.675 5.20775 -5.52155 0
M  V30 4555 O 770.885 4.56534 -4.22446 0
M  V30 4556 C 772.075 5.62629 -5.96531 0
M  V30 4557 O 772.465 6.87667 -5.41053 0
M  V30 4558 C 772.955 4.52537 -5.39283 0
M  V30 4559 C 772.245 4.20027 -4.08623 0
M  V30 4560 N 772.295 2.76189 -3.71603 0
M  V30 4561 H 769.456 4.797 -7.24003 0
M  V30 4562 H 769.186 3.69856 -5.84513 0
M  V30 4563 H 770.053 6.10356 -5.41441 0
M  V30 4564 P 774.015 7.20834 -5.23717 0
M  V30 4565 O 774.235 8.66104 -5.38572 0
M  V30 4566 O 774.805 6.33544 -6.1349 0
M  V30 4567 O 774.265 6.7751 -3.72168 0
M  V30 4568 C 773.325 7.20825 -2.7076 0
M  V30 4569 C 774.055 7.45864 -1.40599 0
M  V30 4570 O 774.265 6.17651 -0.734225 0
M  V30 4571 C 775.455 8.05808 -1.51899 0
M  V30 4572 O 775.845 8.74358 -0.335205 0
M  V30 4573 C 776.335 6.83093 -1.70294 0
M  V30 4574 C 775.625 5.79992 -0.836974 0
M  V30 4575 N 775.675 4.41864 -1.38293 0
M  V30 4576 H 772.836 8.13644 -3.0377 0
M  V30 4577 H 772.566 6.42788 -2.55485 0
M  V30 4578 H 773.433 8.12039 -0.792769 0
M  V30 4579 P 777.395 8.91 5.45772e-12 0
M  V30 4580 O 777.615 10.1726 0.733694 0
M  V30 4581 O 778.185 8.73148 -1.23936 0
M  V30 4582 O 777.645 7.66872 0.971405 0
M  V30 4583 C 776.705 7.42309 2.04641 0
M  V30 4584 C 777.435 6.86059 3.24661 0
M  V30 4585 O 777.645 5.42847 3.03646 0
M  V30 4586 C 778.835 7.41196 3.50753 0
M  V30 4587 O 779.225 7.27073 4.86816 0
M  V30 4588 C 779.715 6.5273 2.63741 0
M  V30 4589 C 779.005 5.1842 2.73198 0
M  V30 4590 N 779.055 4.38762 1.4784 0
M  V30 4591 H 776.216 8.36803 2.32493 0
M  V30 4592 H 775.946 6.70197 1.71129 0
M  V30 4593 H 776.813 7.03551 4.13168 0
M  V30 4594 P 780.775 7.20834 5.23717 0
M  V30 4595 O 780.995 7.79853 6.57286 0
M  V30 4596 O 781.565 7.79239 4.12957 0
M  V30 4597 O 781.025 5.63315 5.29344 0
M  V30 4598 C 780.085 4.80255 6.01876 0
M  V30 4599 C 780.815 3.64202 6.65911 0
M  V30 4600 O 781.025 2.60694 5.64732 0
M  V30 4601 C 782.215 3.93473 7.1943 0
M  V30 4602 O 782.605 3.02071 8.21205 0
M  V30 4603 C 783.095 3.73047 5.97036 0
M  V30 4604 C 782.385 2.58828 5.25741 0
M  V30 4605 N 782.435 2.68068 3.77503 0
M  V30 4606 H 779.596 5.40332 6.79951 0
M  V30 4607 H 779.326 4.41613 5.32378 0
M  V30 4608 H 780.193 3.26331 7.47797 0
M  V30 4609 P 784.155 2.75334 8.47391 0
M  V30 4610 O 784.375 2.44595 9.90239 0
M  V30 4611 O 784.945 3.87732 7.92204 0
M  V30 4612 O 784.405 1.4459 7.59357 0
M  V30 4613 C 783.465 0.347563 7.69115 0
M  V30 4614 C 784.195 -0.96767 7.52806 0
M  V30 4615 O 784.405 -1.21036 6.1011 0
M  V30 4616 C 785.595 -1.04544 8.13308 0
M  V30 4617 O 785.985 -2.38311 8.41922 0
M  V30 4618 C 786.475 -0.491279 7.02284 0
M  V30 4619 C 785.765 -0.996264 5.77469 0
M  V30 4620 N 785.815 -0.0501808 4.62873 0
M  V30 4621 C 785.965 -0.588177 3.36904 0
M  V30 4622 O 786.055 -1.78598 3.17173 0
M  V30 4623 N 786.005 0.329694 2.33686 0
M  V30 4624 C 785.915 1.6953 2.45079 0
M  V30 4625 O 785.965 2.41926 1.44899 0
M  V30 4626 C 785.765 2.16933 3.80505 0
M  V30 4627 C 785.655 3.65373 3.97621 0
M  V30 4628 C 785.715 1.30326 4.83752 0
M  V30 4629 H 782.975 0.374722 8.67691 0
M  V30 4630 H 782.706 0.443421 6.90177 0
M  V30 4631 H 783.573 -1.75537 7.96793 0
M  V30 4632 H 786.228 -1.94496 5.46629 0
M  V30 4633 H 786.507 0.608651 7.04676 0
M  V30 4634 H 787.499 -0.889672 7.08939 0
M  V30 4635 H 785.665 -0.43308 9.04564 0
M  V30 4636 H 785.594 1.68366 5.8516 0
M  V30 4637 H 786.624 4.05985 4.30448 0
M  V30 4638 H 784.887 3.88028 4.72875 0
M  V30 4639 H 785.375 4.11381 3.01609 0
M  V30 4640 H 786.111 -0.0393617 1.41345 0
M  V30 4641 P 787.535 -2.75334 8.47391 0
M  V30 4642 O 787.755 -3.84128 9.44797 0
M  V30 4643 O 788.325 -1.51947 8.68712 0
M  V30 4644 O 787.785 -3.29363 6.99321 0
M  V30 4645 C 786.845 -4.24011 6.4274 0
M  V30 4646 C 787.575 -5.20775 5.52155 0
M  V30 4647 O 787.785 -4.56534 4.22446 0
M  V30 4648 C 788.975 -5.62629 5.96531 0
M  V30 4649 O 789.365 -6.87667 5.41053 0
M  V30 4650 C 789.855 -4.52537 5.39283 0
M  V30 4651 C 789.145 -4.20027 4.08623 0
M  V30 4652 N 789.195 -2.76189 3.71603 0
M  V30 4653 H 786.356 -4.797 7.24003 0
M  V30 4654 H 786.086 -3.69856 5.84513 0
M  V30 4655 H 786.953 -6.10356 5.41441 0
M  V30 4656 P 790.915 -7.20834 5.23717 0
M  V30 4657 O 791.135 -8.66104 5.38572 0
M  V30 4658 O 791.705 -6.33544 6.1349 0
M  V30 4659 O 791.165 -6.7751 3.72168 0
M  V30 4660 C 790.225 -7.20825 2.7076 0
M  V30 4661 C 790.955 -7.45864 1.40599 0
M  V30 4662 O 791.165 -6.17651 0.734225 0
M  V30 4663 C 792.355 -8.05808 1.51899 0
M  V30 4664 O 792.745 -8.74358 0.335205 0
M  V30 4665 C 793.235 -6.83093 1.70294 0
M  V30 4666 C 792.525 -5.79992 0.836974 0
M  V30 4667 N 792.575 -4.41864 1.38293 0
M  V30 4668 H 789.736 -8.13644 3.0377 0
M  V30 4669 H 789.466 -6.42788 2.55485 0
M  V30 4670 H 790.333 -8.12039 0.792769 0
M  V30 4671 P 794.295 -8.91 -5.6149e-12 0
M  V30 4672 O 794.515 -10.1726 -0.733694 0
M  V30 4673 O 795.085 -8.73148 1.23936 0
M  V30 4674 O 794.545 -7.66872 -0.971405 0
M  V30 4675 C 793.605 -7.42309 -2.04641 0
M  V30 4676 C 794.335 -6.86059 -3.24661 0
M  V30 4677 O 794.545 -5.42847 -3.03646 0
M  V30 4678 C 795.735 -7.41196 -3.50753 0
M  V30 4679 O 796.125 -7.27073 -4.86816 0
M  V30 4680 C 796.615 -6.5273 -2.63741 0
M  V30 4681 C 795.905 -5.1842 -2.73198 0
M  V30 4682 N 795.955 -4.38762 -1.4784 0
M  V30 4683 H 793.116 -8.36803 -2.32493 0
M  V30 4684 H 792.846 -6.70197 -1.71129 0
M  V30 4685 H 793.713 -7.03551 -4.13168 0
M  V30 4686 P 797.675 -7.20834 -5.23717 0
M  V30 4687 O 797.895 -7.79853 -6.57286 0
M  V30 4688 O 798.465 -7.79239 -4.12957 0
M  V30 4689 O 797.925 -5.63315 -5.29344 0
M  V30 4690 C 796.985 -4.80255 -6.01876 0
M  V30 4691 C 797.715 -3.64202 -6.65911 0
M  V30 4692 O 797.925 -2.60694 -5.64732 0
M  V30 4693 C 799.115 -3.93473 -7.1943 0
M  V30 4694 O 799.505 -3.02071 -8.21205 0
M  V30 4695 C 799.995 -3.73047 -5.97036 0
M  V30 4696 C 799.285 -2.58828 -5.25741 0
M  V30 4697 N 799.335 -2.68068 -3.77503 0
M  V30 4698 H 796.496 -5.40332 -6.79951 0
M  V30 4699 H 796.226 -4.41613 -5.32378 0
M  V30 4700 H 797.093 -3.26331 -7.47797 0
M  V30 4701 P 801.055 -2.75334 -8.47391 0
M  V30 4702 O 801.275 -2.44571 -9.90142 0
M  V30 4703 O 801.845 -3.87688 -7.92115 0
M  V30 4704 O 801.305 -1.4459 -7.59357 0
M  V30 4705 C 800.365 -0.347608 -7.69215 0
M  V30 4706 C 801.095 0.96767 -7.52806 0
M  V30 4707 O 801.305 1.21036 -6.1011 0
M  V30 4708 C 802.495 1.04544 -8.13308 0
M  V30 4709 O 802.885 2.38311 -8.41922 0
M  V30 4710 C 803.375 0.491279 -7.02284 0
M  V30 4711 C 802.665 0.996264 -5.77469 0
M  V30 4712 N 802.715 0.0501916 -4.62973 0
M  V30 4713 H 799.876 -0.374722 -8.67691 0
M  V30 4714 H 799.606 -0.443485 -6.90277 0
M  V30 4715 H 800.473 1.75537 -7.96793 0
M  V30 4716 P 804.435 2.75334 -8.47391 0
M  V30 4717 O 804.655 3.84128 -9.44797 0
M  V30 4718 O 805.225 1.51947 -8.68712 0
M  V30 4719 O 804.685 3.29363 -6.99321 0
M  V30 4720 C 803.745 4.24011 -6.4274 0
M  V30 4721 C 804.475 5.20775 -5.52155 0
M  V30 4722 O 804.685 4.56534 -4.22446 0
M  V30 4723 C 805.875 5.62629 -5.96531 0
M  V30 4724 O 806.265 6.87667 -5.41053 0
M  V30 4725 C 806.755 4.52537 -5.39283 0
M  V30 4726 C 806.045 4.20027 -4.08623 0
M  V30 4727 N 806.095 2.76189 -3.71603 0
M  V30 4728 C 806.015 1.64862 -4.52822 0
M  V30 4729 N 806.095 0.512671 -3.88633 0
M  V30 4730 C 806.235 0.888083 -2.54977 0
M  V30 4731 C 806.365 0.094668 -1.38677 0
M  V30 4732 O 806.385 -1.13053 -1.28163 0
M  V30 4733 N 806.485 0.890102 -0.232633 0
M  V30 4734 C 806.485 2.26958 -0.21772 0
M  V30 4735 N 806.615 2.84626 0.97925 0
M  V30 4736 N 806.355 3.0178 -1.31033 0
M  V30 4737 C 806.235 2.26781 -2.43843 0
M  V30 4738 H 803.256 4.797 -7.24003 0
M  V30 4739 H 802.986 3.69856 -5.84513 0
M  V30 4740 H 803.853 6.10356 -5.41441 0
M  V30 4741 H 806.508 4.79061 -3.27488 0
M  V30 4742 H 806.787 3.64906 -6.05785 0
M  V30 4743 H 807.779 4.8868 -5.2125 0
M  V30 4744 H 805.945 5.66726 -7.06352 0
M  V30 4745 H 805.896 1.71169 -5.60966 0
M  V30 4746 H 806.578 0.419134 0.644739 0
M  V30 4747 H 806.615 3.87332 1.06098 0
M  V30 4748 H 806.716 2.26417 1.82483 0
M  V30 4749 P 807.815 7.20834 -5.23717 0
M  V30 4750 O 808.035 8.66104 -5.38572 0
M  V30 4751 O 808.605 6.33544 -6.1349 0
M  V30 4752 O 808.065 6.7751 -3.72168 0
M  V30 4753 C 807.125 7.20825 -2.7076 0
M  V30 4754 C 807.855 7.45864 -1.40599 0
M  V30 4755 O 808.065 6.17651 -0.734225 0
M  V30 4756 C 809.255 8.05808 -1.51899 0
M  V30 4757 O 809.645 8.74358 -0.335205 0
M  V30 4758 C 810.135 6.83093 -1.70294 0
M  V30 4759 C 809.425 5.79992 -0.836974 0
M  V30 4760 N 809.475 4.41864 -1.38293 0
M  V30 4761 C 809.395 3.99538 -2.69438 0
M  V30 4762 N 809.475 2.69909 -2.84277 0
M  V30 4763 C 809.615 2.21719 -1.5408 0
M  V30 4764 C 809.745 0.891712 -1.06628 0
M  V30 4765 N 809.865 0.856846 0.334985 0
M  V30 4766 C 809.865 1.9641 1.15789 0
M  V30 4767 N 809.995 1.72708 2.46522 0
M  V30 4768 N 809.735 3.21165 0.713741 0
M  V30 4769 C 809.615 3.26797 -0.639748 0
M  V30 4770 H 806.636 8.13644 -3.0377 0
M  V30 4771 H 806.366 6.42788 -2.55485 0
M  V30 4772 H 807.233 8.12039 -0.792769 0
M  V30 4773 P 811.195 8.91 5.77209e-12 0
M  V30 4774 O 811.415 10.1726 0.733694 0
M  V30 4775 O 811.985 8.73148 -1.23936 0
M  V30 4776 O 811.445 7.66872 0.971405 0
M  V30 4777 C 810.505 7.42309 2.04641 0
M  V30 4778 C 811.235 6.86059 3.24661 0
M  V30 4779 O 811.445 5.42847 3.03646 0
M  V30 4780 C 812.635 7.41196 3.50753 0
M  V30 4781 O 813.025 7.27073 4.86816 0
M  V30 4782 C 813.515 6.5273 2.63741 0
M  V30 4783 C 812.805 5.1842 2.73198 0
M  V30 4784 N 812.855 4.38762 1.4784 0
M  V30 4785 H 810.016 8.36803 2.32493 0
M  V30 4786 H 809.746 6.70197 1.71129 0
M  V30 4787 H 810.613 7.03551 4.13168 0
M  V30 4788 P 814.575 7.20834 5.23717 0
M  V30 4789 O 814.795 7.79853 6.57286 0
M  V30 4790 O 815.365 7.79239 4.12957 0
M  V30 4791 O 814.825 5.63315 5.29344 0
M  V30 4792 C 813.885 4.80255 6.01876 0
M  V30 4793 C 814.615 3.64202 6.65911 0
M  V30 4794 O 814.825 2.60694 5.64732 0
M  V30 4795 C 816.015 3.93473 7.1943 0
M  V30 4796 O 816.405 3.02071 8.21205 0
M  V30 4797 C 816.895 3.73047 5.97036 0
M  V30 4798 C 816.185 2.58828 5.25741 0
M  V30 4799 N 816.235 2.68068 3.77503 0
M  V30 4800 H 813.396 5.40332 6.79951 0
M  V30 4801 H 813.126 4.41613 5.32378 0
M  V30 4802 H 813.993 3.26331 7.47797 0
M  V30 4803 P 817.955 2.75334 8.47391 0
M  V30 4804 O 818.175 2.44571 9.90142 0
M  V30 4805 O 818.745 3.87688 7.92115 0
M  V30 4806 O 818.205 1.4459 7.59357 0
M  V30 4807 C 817.265 0.347608 7.69215 0
M  V30 4808 C 817.995 -0.96767 7.52806 0
M  V30 4809 O 818.205 -1.21036 6.1011 0
M  V30 4810 C 819.395 -1.04544 8.13308 0
M  V30 4811 O 819.785 -2.38311 8.41922 0
M  V30 4812 C 820.275 -0.491279 7.02284 0
M  V30 4813 C 819.565 -0.996264 5.77469 0
M  V30 4814 N 819.615 -0.0501916 4.62973 0
M  V30 4815 H 816.776 0.374722 8.67691 0
M  V30 4816 H 816.506 0.443485 6.90277 0
M  V30 4817 H 817.373 -1.75537 7.96793 0
M  V30 4818 P 821.335 -2.75334 8.47391 0
M  V30 4819 O 821.555 -3.84166 9.4489 0
M  V30 4820 O 822.125 -1.51964 8.6881 0
M  V30 4821 O 821.585 -3.29363 6.99321 0
M  V30 4822 C 820.645 -4.23956 6.42656 0
M  V30 4823 C 821.375 -5.20775 5.52155 0
M  V30 4824 O 821.585 -4.56534 4.22446 0
M  V30 4825 C 822.775 -5.62629 5.96531 0
M  V30 4826 O 823.165 -6.87667 5.41053 0
M  V30 4827 C 823.655 -4.52537 5.39283 0
M  V30 4828 C 822.945 -4.20027 4.08623 0
M  V30 4829 N 822.995 -2.7613 3.71522 0
M  V30 4830 C 823.145 -2.45612 2.37989 0
M  V30 4831 O 823.235 -3.30919 1.51621 0
M  V30 4832 N 823.185 -1.10684 2.08435 0
M  V30 4833 C 823.095 -0.0690084 2.9792 0
M  V30 4834 C 822.945 -0.481522 4.35345 0
M  V30 4835 C 822.895 -1.78906 4.67968 0
M  V30 4836 H 820.155 -4.797 7.24003 0
M  V30 4837 H 819.886 -3.69802 5.84429 0
M  V30 4838 H 820.753 -6.10356 5.41441 0
M  V30 4839 H 823.408 -4.78651 3.27911 0
M  V30 4840 H 823.687 -3.64957 6.05871 0
M  V30 4841 H 824.679 -4.8868 5.2125 0
M  V30 4842 H 822.845 -5.66726 7.06352 0
M  V30 4843 H 822.774 -2.07737 5.72367 0
M  V30 4844 P 824.715 -7.20834 5.23717 0
M  V30 4845 O 824.935 -8.66104 5.38572 0
M  V30 4846 O 825.505 -6.33544 6.1349 0
M  V30 4847 O 824.965 -6.7751 3.72168 0
M  V30 4848 C 824.025 -7.20825 2.7076 0
M  V30 4849 C 824.755 -7.45864 1.40599 0
M  V30 4850 O 824.965 -6.17651 0.734225 0
M  V30 4851 C 826.155 -8.05808 1.51899 0
M  V30 4852 O 826.545 -8.74358 0.335205 0
M  V30 4853 C 827.035 -6.83093 1.70294 0
M  V30 4854 C 826.325 -5.79992 0.836974 0
M  V30 4855 N 826.375 -4.41864 1.38293 0
M  V30 4856 C 826.295 -3.99538 2.69438 0
M  V30 4857 N 826.375 -2.69909 2.84277 0
M  V30 4858 C 826.515 -2.21719 1.5408 0
M  V30 4859 C 826.645 -0.891712 1.06628 0
M  V30 4860 N 826.765 -0.856846 -0.334985 0
M  V30 4861 C 826.765 -1.9641 -1.15789 0
M  V30 4862 N 826.895 -1.72708 -2.46522 0
M  V30 4863 N 826.635 -3.21165 -0.713741 0
M  V30 4864 C 826.515 -3.26797 0.639748 0
M  V30 4865 H 823.536 -8.13644 3.0377 0
M  V30 4866 H 823.266 -6.42788 2.55485 0
M  V30 4867 H 824.133 -8.12039 0.792769 0
M  V30 4868 P 828.095 -8.91 -5.92927e-12 0
M  V30 4869 O 828.315 -10.1726 -0.733694 0
M  V30 4870 O 828.885 -8.73148 1.23936 0
M  V30 4871 O 828.345 -7.66872 -0.971405 0
M  V30 4872 C 827.405 -7.42309 -2.04641 0
M  V30 4873 C 828.135 -6.86059 -3.24661 0
M  V30 4874 O 828.345 -5.42847 -3.03646 0
M  V30 4875 C 829.535 -7.41196 -3.50753 0
M  V30 4876 O 829.925 -7.27073 -4.86816 0
M  V30 4877 C 830.415 -6.5273 -2.63741 0
M  V30 4878 C 829.705 -5.1842 -2.73198 0
M  V30 4879 N 829.755 -4.38762 -1.4784 0
M  V30 4880 C 829.675 -4.81605 -0.168631 0
M  V30 4881 N 829.755 -3.85454 0.713363 0
M  V30 4882 C 829.895 -2.6994 -0.0566958 0
M  V30 4883 C 830.025 -1.34815 0.338502 0
M  V30 4884 N 830.145 -0.496304 -0.77465 0
M  V30 4885 C 830.145 -0.908403 -2.09122 0
M  V30 4886 N 830.275 0.0517805 -3.00955 0
M  V30 4887 N 830.015 -2.17875 -2.46519 0
M  V30 4888 C 829.895 -3.01988 -1.4033 0
M  V30 4889 H 826.916 -8.36803 -2.32493 0
M  V30 4890 H 826.646 -6.70197 -1.71129 0
M  V30 4891 H 827.513 -7.03551 -4.13168 0
M  V30 4892 P 831.475 -7.20834 -5.23717 0
M  V30 4893 O 831.695 -7.79853 -6.57286 0
M  V30 4894 O 832.265 -7.79239 -4.12957 0
M  V30 4895 O 831.725 -5.63315 -5.29344 0
M  V30 4896 C 830.785 -4.80255 -6.01876 0
M  V30 4897 C 831.515 -3.64202 -6.65911 0
M  V30 4898 O 831.725 -2.60694 -5.64732 0
M  V30 4899 C 832.915 -3.93473 -7.1943 0
M  V30 4900 O 833.305 -3.02071 -8.21205 0
M  V30 4901 C 833.795 -3.73047 -5.97036 0
M  V30 4902 C 833.085 -2.58828 -5.25741 0
M  V30 4903 N 833.135 -2.68068 -3.77503 0
M  V30 4904 H 830.296 -5.40332 -6.79951 0
M  V30 4905 H 830.026 -4.41613 -5.32378 0
M  V30 4906 H 830.893 -3.26331 -7.47797 0
M  V30 4907 P 834.855 -2.75334 -8.47391 0
M  V30 4908 O 835.075 -2.44571 -9.90142 0
M  V30 4909 O 835.645 -3.87688 -7.92115 0
M  V30 4910 O 835.105 -1.4459 -7.59357 0
M  V30 4911 C 834.165 -0.347608 -7.69215 0
M  V30 4912 C 834.895 0.96767 -7.52806 0
M  V30 4913 O 835.105 1.21036 -6.1011 0
M  V30 4914 C 836.295 1.04544 -8.13308 0
M  V30 4915 O 836.685 2.38311 -8.41922 0
M  V30 4916 C 837.175 0.491279 -7.02284 0
M  V30 4917 C 836.465 0.996264 -5.77469 0
M  V30 4918 N 836.515 0.0501916 -4.62973 0
M  V30 4919 H 833.676 -0.374722 -8.67691 0
M  V30 4920 H 833.406 -0.443485 -6.90277 0
M  V30 4921 H 834.273 1.75537 -7.96793 0
M  V30 4922 P 838.235 2.75334 -8.47391 0
M  V30 4923 O 838.455 3.84128 -9.44797 0
M  V30 4924 O 839.025 1.51947 -8.68712 0
M  V30 4925 O 838.485 3.29363 -6.99321 0
M  V30 4926 C 837.545 4.24011 -6.4274 0
M  V30 4927 C 838.275 5.20775 -5.52155 0
M  V30 4928 O 838.485 4.56534 -4.22446 0
M  V30 4929 C 839.675 5.62629 -5.96531 0
M  V30 4930 O 840.065 6.87667 -5.41053 0
M  V30 4931 C 840.555 4.52537 -5.39283 0
M  V30 4932 C 839.845 4.20027 -4.08623 0
M  V30 4933 N 839.895 2.76189 -3.71603 0
M  V30 4934 H 837.056 4.797 -7.24003 0
M  V30 4935 H 836.786 3.69856 -5.84513 0
M  V30 4936 H 837.653 6.10356 -5.41441 0
M  V30 4937 P 841.615 7.20834 -5.23717 0
M  V30 4938 O 841.835 8.66104 -5.38572 0
M  V30 4939 O 842.405 6.33544 -6.1349 0
M  V30 4940 O 841.865 6.7751 -3.72168 0
M  V30 4941 C 840.925 7.20825 -2.7076 0
M  V30 4942 C 841.655 7.45864 -1.40599 0
M  V30 4943 O 841.865 6.17651 -0.734225 0
M  V30 4944 C 843.055 8.05808 -1.51899 0
M  V30 4945 O 843.445 8.74358 -0.335205 0
M  V30 4946 C 843.935 6.83093 -1.70294 0
M  V30 4947 C 843.225 5.79992 -0.836974 0
M  V30 4948 N 843.275 4.41864 -1.38293 0
M  V30 4949 H 840.436 8.13644 -3.0377 0
M  V30 4950 H 840.166 6.42788 -2.55485 0
M  V30 4951 H 841.033 8.12039 -0.792769 0
M  V30 4952 P 844.995 8.91 6.08645e-12 0
M  V30 4953 O 845.215 10.1726 0.733694 0
M  V30 4954 O 845.785 8.73148 -1.23936 0
M  V30 4955 O 845.245 7.66872 0.971405 0
M  V30 4956 C 844.305 7.42309 2.04641 0
M  V30 4957 C 845.035 6.86059 3.24661 0
M  V30 4958 O 845.245 5.42847 3.03646 0
M  V30 4959 C 846.435 7.41196 3.50753 0
M  V30 4960 O 846.825 7.27073 4.86816 0
M  V30 4961 C 847.315 6.5273 2.63741 0
M  V30 4962 C 846.605 5.1842 2.73198 0
M  V30 4963 N 846.655 4.38762 1.4784 0
M  V30 4964 H 843.816 8.36803 2.32493 0
M  V30 4965 H 843.546 6.70197 1.71129 0
M  V30 4966 H 844.413 7.03551 4.13168 0
M  V30 4967 P 848.375 7.20834 5.23717 0
M  V30 4968 O 848.595 7.79853 6.57286 0
M  V30 4969 O 849.165 7.79239 4.12957 0
M  V30 4970 O 848.625 5.63315 5.29344 0
M  V30 4971 C 847.685 4.80255 6.01876 0
M  V30 4972 C 848.415 3.64202 6.65911 0
M  V30 4973 O 848.625 2.60694 5.64732 0
M  V30 4974 C 849.815 3.93473 7.1943 0
M  V30 4975 O 850.205 3.02071 8.21205 0
M  V30 4976 C 850.695 3.73047 5.97036 0
M  V30 4977 C 849.985 2.58828 5.25741 0
M  V30 4978 N 850.035 2.68068 3.77503 0
M  V30 4979 H 847.196 5.40332 6.79951 0
M  V30 4980 H 846.926 4.41613 5.32378 0
M  V30 4981 H 847.793 3.26331 7.47797 0
M  V30 4982 P 851.755 2.75334 8.47391 0
M  V30 4983 O 851.975 2.44571 9.90142 0
M  V30 4984 O 852.545 3.87688 7.92115 0
M  V30 4985 O 852.005 1.4459 7.59357 0
M  V30 4986 C 851.065 0.347608 7.69215 0
M  V30 4987 C 851.795 -0.96767 7.52806 0
M  V30 4988 O 852.005 -1.21036 6.1011 0
M  V30 4989 C 853.195 -1.04544 8.13308 0
M  V30 4990 O 853.585 -2.38311 8.41922 0
M  V30 4991 C 854.075 -0.491279 7.02284 0
M  V30 4992 C 853.365 -0.996264 5.77469 0
M  V30 4993 N 853.415 -0.0501916 4.62973 0
M  V30 4994 H 850.576 0.374722 8.67691 0
M  V30 4995 H 850.306 0.443485 6.90277 0
M  V30 4996 H 851.173 -1.75537 7.96793 0
M  V30 4997 P 855.135 -2.75334 8.47391 0
M  V30 4998 O 855.355 -3.84128 9.44797 0
M  V30 4999 O 855.925 -1.51947 8.68712 0
M  V30 5000 O 855.385 -3.29363 6.99321 0
M  V30 5001 C 854.445 -4.24011 6.4274 0
M  V30 5002 C 855.175 -5.20775 5.52155 0
M  V30 5003 O 855.385 -4.56534 4.22446 0
M  V30 5004 C 856.575 -5.62629 5.96531 0
M  V30 5005 O 856.965 -6.87667 5.41053 0
M  V30 5006 C 857.455 -4.52537 5.39283 0
M  V30 5007 C 856.745 -4.20027 4.08623 0
M  V30 5008 N 856.795 -2.76189 3.71603 0
M  V30 5009 H 853.956 -4.797 7.24003 0
M  V30 5010 H 853.686 -3.69856 5.84513 0
M  V30 5011 H 854.553 -6.10356 5.41441 0
M  V30 5012 P 858.515 -7.20834 5.23717 0
M  V30 5013 O 858.735 -8.66274 5.38678 0
M  V30 5014 O 859.305 -6.33687 6.13629 0
M  V30 5015 O 858.765 -6.7751 3.72168 0
M  V30 5016 C 857.825 -7.20919 2.70795 0
M  V30 5017 C 858.555 -7.45864 1.40599 0
M  V30 5018 O 858.765 -6.17751 0.734343 0
M  V30 5019 C 859.955 -8.05906 1.51917 0
M  V30 5020 O 860.345 -8.74358 0.335205 0
M  V30 5021 C 860.835 -6.83093 1.70294 0
M  V30 5022 C 860.125 -5.79992 0.836974 0
M  V30 5023 N 860.175 -4.41864 1.38293 0
M  V30 5024 H 857.337 -8.13738 3.03804 0
M  V30 5025 H 857.065 -6.42974 2.55559 0
M  V30 5026 H 857.933 -8.12139 0.792866 0
M  V30 5027 H 860.588 -5.80178 -0.160643 0
M  V30 5028 H 860.868 -6.51379 2.75643 0
M  V30 5029 H 861.859 -7.01832 1.3448 0
M  V30 5030 H 860.025 -8.73771 2.38364 0
M  V30 5031 P 861.895 -8.91 -6.24363e-12 0
M  V30 5032 O 862.115 -10.1726 -0.733694 0
M  V30 5033 O 862.685 -8.73148 1.23936 0
M  V30 5034 O 862.145 -7.66872 -0.971405 0
M  V30 5035 C 861.205 -7.42309 -2.04641 0
M  V30 5036 C 861.935 -6.86059 -3.24661 0
M  V30 5037 O 862.145 -5.42847 -3.03646 0
M  V30 5038 C 863.335 -7.41196 -3.50753 0
M  V30 5039 O 863.725 -7.27073 -4.86816 0
M  V30 5040 C 864.215 -6.5273 -2.63741 0
M  V30 5041 C 863.505 -5.1842 -2.73198 0
M  V30 5042 N 863.555 -4.38762 -1.4784 0
M  V30 5043 H 860.716 -8.36803 -2.32493 0
M  V30 5044 H 860.446 -6.70197 -1.71129 0
M  V30 5045 H 861.313 -7.03551 -4.13168 0
M  V30 5046 P 865.275 -7.20834 -5.23717 0
M  V30 5047 O 865.495 -7.79853 -6.57286 0
M  V30 5048 O 866.065 -7.79239 -4.12957 0
M  V30 5049 O 865.525 -5.63315 -5.29344 0
M  V30 5050 C 864.585 -4.80255 -6.01876 0
M  V30 5051 C 865.315 -3.64202 -6.65911 0
M  V30 5052 O 865.525 -2.60694 -5.64732 0
M  V30 5053 C 866.715 -3.93473 -7.1943 0
M  V30 5054 O 867.105 -3.02071 -8.21205 0
M  V30 5055 C 867.595 -3.73047 -5.97036 0
M  V30 5056 C 866.885 -2.58828 -5.25741 0
M  V30 5057 N 866.935 -2.68068 -3.77503 0
M  V30 5058 H 864.096 -5.40332 -6.79951 0
M  V30 5059 H 863.826 -4.41613 -5.32378 0
M  V30 5060 H 864.693 -3.26331 -7.47797 0
M  V30 5061 P 868.655 -2.75334 -8.47391 0
M  V30 5062 O 868.875 -2.44619 -9.90336 0
M  V30 5063 O 869.445 -3.87776 -7.92294 0
M  V30 5064 O 868.905 -1.4459 -7.59357 0
M  V30 5065 C 867.965 -0.347653 -7.69315 0
M  V30 5066 C 868.695 0.96767 -7.52806 0
M  V30 5067 O 868.905 1.21055 -6.10208 0
M  V30 5068 C 870.095 1.04557 -8.13408 0
M  V30 5069 O 870.485 2.38311 -8.41922 0
M  V30 5070 C 870.975 0.491279 -7.02284 0
M  V30 5071 C 870.265 0.996264 -5.77469 0
M  V30 5072 N 870.315 0.0501916 -4.62973 0
M  V30 5073 C 870.235 -1.31969 -4.65661 0
M  V30 5074 N 870.305 -1.86649 -3.48119 0
M  V30 5075 C 870.455 -0.792089 -2.62406 0
M  V30 5076 C 870.585 -0.705684 -1.2207 0
M  V30 5077 N 870.595 -1.76207 -0.413762 0
M  V30 5078 N 870.705 0.518981 -0.685754 0
M  V30 5079 C 870.695 1.57595 -1.49174 0
M  V30 5080 N 870.575 1.62909 -2.80066 0
M  V30 5081 C 870.455 0.388195 -3.3073 0
M  V30 5082 H 867.477 -0.374765 -8.67791 0
M  V30 5083 H 867.205 -0.443613 -6.90476 0
M  V30 5084 H 868.073 1.75559 -7.96891 0
M  V30 5085 H 870.728 1.94563 -5.46818 0
M  V30 5086 H 871.008 -0.608651 -7.04676 0
M  V30 5087 H 871.999 0.889796 -7.09039 0
M  V30 5088 H 870.165 0.433128 -9.04664 0
M  V30 5089 H 870.124 -1.89246 -5.57664 0
M  V30 5090 H 870.505 -2.71005 -0.804694 0
M  V30 5091 H 870.694 -1.63189 0.603768 0
M  V30 5092 H 870.802 2.53475 -0.997614 0
M  V30 5093 P 872.035 2.75334 -8.47391 0
M  V30 5094 O 872.255 3.84128 -9.44797 0
M  V30 5095 O 872.825 1.51947 -8.68712 0
M  V30 5096 O 872.285 3.29363 -6.99321 0
M  V30 5097 C 871.345 4.24011 -6.4274 0
M  V30 5098 C 872.075 5.20775 -5.52155 0
M  V30 5099 O 872.285 4.56534 -4.22446 0
M  V30 5100 C 873.475 5.62629 -5.96531 0
M  V30 5101 O 873.865 6.87667 -5.41053 0
M  V30 5102 C 874.355 4.52537 -5.39283 0
M  V30 5103 C 873.645 4.20027 -4.08623 0
M  V30 5104 N 873.695 2.76189 -3.71603 0
M  V30 5105 C 873.615 1.64862 -4.52822 0
M  V30 5106 N 873.695 0.512671 -3.88633 0
M  V30 5107 C 873.835 0.888083 -2.54977 0
M  V30 5108 C 873.965 0.094668 -1.38677 0
M  V30 5109 O 873.985 -1.13053 -1.28163 0
M  V30 5110 N 874.085 0.890102 -0.232633 0
M  V30 5111 C 874.085 2.26958 -0.21772 0
M  V30 5112 N 874.215 2.84626 0.97925 0
M  V30 5113 N 873.955 3.0178 -1.31033 0
M  V30 5114 C 873.835 2.26781 -2.43843 0
M  V30 5115 H 870.856 4.797 -7.24003 0
M  V30 5116 H 870.586 3.69856 -5.84513 0
M  V30 5117 H 871.453 6.10356 -5.41441 0
M  V30 5118 H 874.108 4.79061 -3.27488 0
M  V30 5119 H 874.387 3.64906 -6.05785 0
M  V30 5120 H 875.379 4.8868 -5.2125 0
M  V30 5121 H 873.545 5.66726 -7.06352 0
M  V30 5122 H 873.496 1.71169 -5.60966 0
M  V30 5123 H 874.178 0.419134 0.644739 0
M  V30 5124 H 874.215 3.87332 1.06098 0
M  V30 5125 H 874.316 2.26417 1.82483 0
M  V30 5126 P 875.415 7.20834 -5.23717 0
M  V30 5127 O 875.635 8.66189 -5.38625 0
M  V30 5128 O 876.205 6.33615 -6.1356 0
M  V30 5129 O 875.665 6.7751 -3.72168 0
M  V30 5130 C 874.725 7.20825 -2.7076 0
M  V30 5131 C 875.455 7.45864 -1.40599 0
M  V30 5132 O 875.665 6.17651 -0.734225 0
M  V30 5133 C 876.855 8.05808 -1.51899 0
M  V30 5134 O 877.245 8.74358 -0.335205 0
M  V30 5135 C 877.735 6.83093 -1.70294 0
M  V30 5136 C 877.025 5.79992 -0.836974 0
M  V30 5137 N 877.075 4.41769 -1.38263 0
M  V30 5138 C 877.225 3.36514 -0.485617 0
M  V30 5139 O 877.315 3.61814 0.724703 0
M  V30 5140 N 877.275 2.00746 -1.14492 0
M  V30 5141 C 877.175 1.85887 -2.27776 0
M  V30 5142 N 877.225 0.600907 -2.69379 0
M  V30 5143 C 877.025 2.92182 -3.22265 0
M  V30 5144 C 876.975 4.18399 -2.71925 0
M  V30 5145 H 874.235 8.1355 -3.03735 0
M  V30 5146 H 873.966 6.42695 -2.55448 0
M  V30 5147 H 874.833 8.12139 -0.792866 0
M  V30 5148 H 877.488 5.80078 0.160615 0
M  V30 5149 H 877.767 6.51379 -2.75643 0
M  V30 5150 H 878.759 7.01734 -1.34462 0
M  V30 5151 H 876.925 8.73674 -2.38337 0
M  V30 5152 H 876.853 5.02669 -3.39718 0
M  V30 5153 H 876.955 2.73001 -4.29239 0
M  V30 5154 H 877.343 -0.162318 -2.01146 0
M  V30 5155 H 877.146 0.387742 -3.69773 0
M  V30 5156 P 878.795 8.91 6.40081e-12 0
M  V30 5157 O 879.015 10.1726 0.733694 0
M  V30 5158 O 879.585 8.73148 -1.23936 0
M  V30 5159 O 879.045 7.66872 0.971405 0
M  V30 5160 C 878.105 7.42309 2.04641 0
M  V30 5161 C 878.835 6.86059 3.24661 0
M  V30 5162 O 879.045 5.42847 3.03646 0
M  V30 5163 C 880.235 7.41196 3.50753 0
M  V30 5164 O 880.625 7.27073 4.86816 0
M  V30 5165 C 881.115 6.5273 2.63741 0
M  V30 5166 C 880.405 5.1842 2.73198 0
M  V30 5167 N 880.455 4.38762 1.4784 0
M  V30 5168 H 877.616 8.36803 2.32493 0
M  V30 5169 H 877.346 6.70197 1.71129 0
M  V30 5170 H 878.213 7.03551 4.13168 0
M  V30 5171 P 882.175 7.20834 5.23717 0
M  V30 5172 O 882.395 7.79853 6.57286 0
M  V30 5173 O 882.965 7.79239 4.12957 0
M  V30 5174 O 882.425 5.63315 5.29344 0
M  V30 5175 C 881.485 4.80255 6.01876 0
M  V30 5176 C 882.215 3.64202 6.65911 0
M  V30 5177 O 882.425 2.60694 5.64732 0
M  V30 5178 C 883.615 3.93473 7.1943 0
M  V30 5179 O 884.005 3.02071 8.21205 0
M  V30 5180 C 884.495 3.73047 5.97036 0
M  V30 5181 C 883.785 2.58828 5.25741 0
M  V30 5182 N 883.835 2.68068 3.77503 0
M  V30 5183 H 880.996 5.40332 6.79951 0
M  V30 5184 H 880.726 4.41613 5.32378 0
M  V30 5185 H 881.593 3.26331 7.47797 0
M  V30 5186 P 885.555 2.75334 8.47391 0
M  V30 5187 O 885.775 2.44571 9.90142 0
M  V30 5188 O 886.345 3.87688 7.92115 0
M  V30 5189 O 885.805 1.4459 7.59357 0
M  V30 5190 C 884.865 0.347608 7.69215 0
M  V30 5191 C 885.595 -0.96767 7.52806 0
M  V30 5192 O 885.805 -1.21036 6.1011 0
M  V30 5193 C 886.995 -1.04544 8.13308 0
M  V30 5194 O 887.385 -2.38311 8.41922 0
M  V30 5195 C 887.875 -0.491279 7.02284 0
M  V30 5196 C 887.165 -0.996264 5.77469 0
M  V30 5197 N 887.215 -0.0501916 4.62973 0
M  V30 5198 H 884.376 0.374722 8.67691 0
M  V30 5199 H 884.106 0.443485 6.90277 0
M  V30 5200 H 884.973 -1.75537 7.96793 0
M  V30 5201 P 888.935 -2.75334 8.47391 0
M  V30 5202 O 889.155 -3.84128 9.44797 0
M  V30 5203 O 889.725 -1.51947 8.68712 0
M  V30 5204 O 889.185 -3.29363 6.99321 0
M  V30 5205 C 888.245 -4.24011 6.4274 0
M  V30 5206 C 888.975 -5.20775 5.52155 0
M  V30 5207 O 889.185 -4.56534 4.22446 0
M  V30 5208 C 890.375 -5.62629 5.96531 0
M  V30 5209 O 890.765 -6.87667 5.41053 0
M  V30 5210 C 891.255 -4.52537 5.39283 0
M  V30 5211 C 890.545 -4.20027 4.08623 0
M  V30 5212 N 890.595 -2.76189 3.71603 0
M  V30 5213 H 887.756 -4.797 7.24003 0
M  V30 5214 H 887.486 -3.69856 5.84513 0
M  V30 5215 H 888.353 -6.10356 5.41441 0
M  V30 5216 P 892.315 -7.20834 5.23717 0
M  V30 5217 O 892.535 -8.66104 5.38572 0
M  V30 5218 O 893.105 -6.33544 6.1349 0
M  V30 5219 O 892.565 -6.7751 3.72168 0
M  V30 5220 C 891.625 -7.20825 2.7076 0
M  V30 5221 C 892.355 -7.45864 1.40599 0
M  V30 5222 O 892.565 -6.17651 0.734225 0
M  V30 5223 C 893.755 -8.05808 1.51899 0
M  V30 5224 O 894.145 -8.74358 0.335205 0
M  V30 5225 C 894.635 -6.83093 1.70294 0
M  V30 5226 C 893.925 -5.79992 0.836974 0
M  V30 5227 N 893.975 -4.41864 1.38293 0
M  V30 5228 H 891.136 -8.13644 3.0377 0
M  V30 5229 H 890.866 -6.42788 2.55485 0
M  V30 5230 H 891.733 -8.12039 0.792769 0
M  V30 5231 P 895.695 -8.91 -6.558e-12 0
M  V30 5232 O 895.915 -10.1746 -0.733838 0
M  V30 5233 O 896.485 -8.73346 1.23964 0
M  V30 5234 O 895.945 -7.66872 -0.971405 0
M  V30 5235 C 895.005 -7.42405 -2.04668 0
M  V30 5236 C 895.735 -6.86059 -3.24661 0
M  V30 5237 O 895.945 -5.42934 -3.03695 0
M  V30 5238 C 897.135 -7.41287 -3.50796 0
M  V30 5239 O 897.525 -7.27073 -4.86816 0
M  V30 5240 C 898.015 -6.5273 -2.63741 0
M  V30 5241 C 897.305 -5.1842 -2.73198 0
M  V30 5242 N 897.355 -4.38762 -1.4784 0
M  V30 5243 C 897.275 -4.83651 -0.183876 0
M  V30 5244 N 897.345 -3.88759 0.699393 0
M  V30 5245 C 897.495 -2.7404 -0.0575568 0
M  V30 5246 C 897.625 -1.37902 0.293928 0
M  V30 5247 N 897.635 -0.938021 1.54797 0
M  V30 5248 N 897.745 -0.491817 -0.70549 0
M  V30 5249 C 897.735 -0.931735 -1.95979 0
M  V30 5250 N 897.615 -2.16017 -2.41481 0
M  V30 5251 C 897.495 -3.02547 -1.39121 0
M  V30 5252 H 894.517 -8.36899 -2.3252 0
M  V30 5253 H 894.245 -6.70391 -1.71179 0
M  V30 5254 H 895.113 -7.03638 -4.13219 0
M  V30 5255 H 897.768 -4.59931 -3.54016 0
M  V30 5256 H 898.048 -6.88995 -1.59871 0
M  V30 5257 H 899.039 -6.4684 -3.0373 0
M  V30 5258 H 897.205 -8.47002 -3.20749 0
M  V30 5259 H 897.164 -5.8885 0.0765548 0
M  V30 5260 H 897.545 -1.60276 2.32875 0
M  V30 5261 H 897.734 0.0699355 1.73859 0
M  V30 5262 H 897.842 -0.165507 -2.71897 0
M  V30 5263 P 899.075 -7.20834 -5.23717 0
M  V30 5264 O 899.295 -7.79853 -6.57286 0
M  V30 5265 O 899.865 -7.79239 -4.12957 0
M  V30 5266 O 899.325 -5.63315 -5.29344 0
M  V30 5267 C 898.385 -4.80255 -6.01876 0
M  V30 5268 C 899.115 -3.64202 -6.65911 0
M  V30 5269 O 899.325 -2.60694 -5.64732 0
M  V30 5270 C 900.515 -3.93473 -7.1943 0
M  V30 5271 O 900.905 -3.02071 -8.21205 0
M  V30 5272 C 901.395 -3.73047 -5.97036 0
M  V30 5273 C 900.685 -2.58828 -5.25741 0
M  V30 5274 N 900.735 -2.68068 -3.77503 0
M  V30 5275 H 897.896 -5.40332 -6.79951 0
M  V30 5276 H 897.626 -4.41613 -5.32378 0
M  V30 5277 H 898.493 -3.26331 -7.47797 0
M  V30 5278 P 902.455 -2.75334 -8.47391 0
M  V30 5279 O 902.675 -2.44619 -9.90336 0
M  V30 5280 O 903.245 -3.87776 -7.92294 0
M  V30 5281 O 902.705 -1.4459 -7.59357 0
M  V30 5282 C 901.765 -0.347653 -7.69315 0
M  V30 5283 C 902.495 0.96767 -7.52806 0
M  V30 5284 O 902.705 1.21055 -6.10208 0
M  V30 5285 C 903.895 1.04557 -8.13408 0
M  V30 5286 O 904.285 2.38311 -8.41922 0
M  V30 5287 C 904.775 0.491279 -7.02284 0
M  V30 5288 C 904.065 0.996264 -5.77469 0
M  V30 5289 N 904.115 0.0501916 -4.62973 0
M  V30 5290 C 904.035 -1.31969 -4.65661 0
M  V30 5291 N 904.105 -1.86649 -3.48119 0
M  V30 5292 C 904.255 -0.792089 -2.62406 0
M  V30 5293 C 904.385 -0.705684 -1.2207 0
M  V30 5294 N 904.395 -1.76207 -0.413762 0
M  V30 5295 N 904.505 0.518981 -0.685754 0
M  V30 5296 C 904.495 1.57595 -1.49174 0
M  V30 5297 N 904.375 1.62909 -2.80066 0
M  V30 5298 C 904.255 0.388195 -3.3073 0
M  V30 5299 H 901.277 -0.374765 -8.67791 0
M  V30 5300 H 901.005 -0.443613 -6.90476 0
M  V30 5301 H 901.873 1.75559 -7.96891 0
M  V30 5302 H 904.528 1.94563 -5.46818 0
M  V30 5303 H 904.808 -0.608651 -7.04676 0
M  V30 5304 H 905.799 0.889796 -7.09039 0
M  V30 5305 H 903.965 0.433128 -9.04664 0
M  V30 5306 H 903.924 -1.89246 -5.57664 0
M  V30 5307 H 904.305 -2.71005 -0.804694 0
M  V30 5308 H 904.494 -1.63189 0.603768 0
M  V30 5309 H 904.602 2.53475 -0.997614 0
M  V30 5310 P 905.835 2.75334 -8.47391 0
M  V30 5311 O 906.055 3.84128 -9.44797 0
M  V30 5312 O 906.625 1.51947 -8.68712 0
M  V30 5313 O 906.085 3.29363 -6.99321 0
M  V30 5314 C 905.145 4.24011 -6.4274 0
M  V30 5315 C 905.875 5.20775 -5.52155 0
M  V30 5316 O 906.085 4.56534 -4.22446 0
M  V30 5317 C 907.275 5.62629 -5.96531 0
M  V30 5318 O 907.665 6.87667 -5.41053 0
M  V30 5319 C 908.155 4.52537 -5.39283 0
M  V30 5320 C 907.445 4.20027 -4.08623 0
M  V30 5321 N 907.495 2.76189 -3.71603 0
M  V30 5322 C 907.415 1.64862 -4.52822 0
M  V30 5323 N 907.495 0.512671 -3.88633 0
M  V30 5324 C 907.635 0.888083 -2.54977 0
M  V30 5325 C 907.765 0.094668 -1.38677 0
M  V30 5326 N 907.885 0.890102 -0.232633 0
M  V30 5327 C 907.885 2.26958 -0.21772 0
M  V30 5328 N 908.015 2.84626 0.97925 0
M  V30 5329 N 907.755 3.0178 -1.31033 0
M  V30 5330 C 907.635 2.26781 -2.43843 0
M  V30 5331 H 904.656 4.797 -7.24003 0
M  V30 5332 H 904.386 3.69856 -5.84513 0
M  V30 5333 H 905.253 6.10356 -5.41441 0
M  V30 5334 P 909.215 7.20834 -5.23717 0
M  V30 5335 O 909.435 8.66274 -5.38678 0
M  V30 5336 O 910.005 6.33687 -6.13629 0
M  V30 5337 O 909.465 6.7751 -3.72168 0
M  V30 5338 C 908.525 7.20919 -2.70795 0
M  V30 5339 C 909.255 7.45864 -1.40599 0
M  V30 5340 O 909.465 6.17751 -0.734343 0
M  V30 5341 C 910.655 8.05906 -1.51917 0
M  V30 5342 O 911.045 8.74358 -0.335205 0
M  V30 5343 C 911.535 6.83093 -1.70294 0
M  V30 5344 C 910.825 5.79992 -0.836974 0
M  V30 5345 N 910.875 4.41864 -1.38293 0
M  V30 5346 C 910.795 4.02089 -2.69407 0
M  V30 5347 N 910.865 2.73403 -2.85089 0
M  V30 5348 C 911.015 2.25086 -1.5642 0
M  V30 5349 C 911.145 0.942887 -1.04836 0
M  V30 5350 N 911.155 -0.150999 -1.80369 0
M  V30 5351 N 911.265 0.812565 0.28167 0
M  V30 5352 C 911.255 1.90572 1.03784 0
M  V30 5353 N 911.135 3.167 0.683905 0
M  V30 5354 C 911.015 3.26538 -0.652815 0
M  V30 5355 H 908.037 8.13738 -3.03804 0
M  V30 5356 H 907.765 6.42974 -2.55559 0
M  V30 5357 H 908.633 8.12139 -0.792866 0
M  V30 5358 H 911.288 5.80178 0.160643 0
M  V30 5359 H 911.568 6.51379 -2.75643 0
M  V30 5360 H 912.559 7.01832 -1.3448 0
M  V30 5361 H 910.725 8.73771 -2.38364 0
M  V30 5362 H 910.684 4.7189 -3.52311 0
M  V30 5363 H 911.065 -0.0721434 -2.82608 0
M  V30 5364 H 911.254 -1.0785 -1.36544 0
M  V30 5365 H 911.362 1.73207 2.10241 0
M  V30 5366 P 912.595 8.91 6.71518e-12 0
M  V30 5367 O 912.815 10.1746 0.733838 0
M  V30 5368 O 913.385 8.73346 -1.23964 0
M  V30 5369 O 912.845 7.66872 0.971405 0
M  V30 5370 C 911.905 7.42405 2.04668 0
M  V30 5371 C 912.635 6.86059 3.24661 0
M  V30 5372 O 912.845 5.42934 3.03695 0
M  V30 5373 C 914.035 7.41287 3.50796 0
M  V30 5374 O 914.425 7.27073 4.86816 0
M  V30 5375 C 914.915 6.5273 2.63741 0
M  V30 5376 C 914.205 5.1842 2.73198 0
M  V30 5377 N 914.255 4.38762 1.4784 0
M  V30 5378 C 914.175 4.83651 0.183876 0
M  V30 5379 N 914.245 3.88759 -0.699393 0
M  V30 5380 C 914.395 2.7404 0.0575568 0
M  V30 5381 C 914.525 1.37902 -0.293928 0
M  V30 5382 N 914.535 0.938021 -1.54797 0
M  V30 5383 N 914.645 0.491817 0.70549 0
M  V30 5384 C 914.635 0.931735 1.95979 0
M  V30 5385 N 914.515 2.16017 2.41481 0
M  V30 5386 C 914.395 3.02547 1.39121 0
M  V30 5387 H 911.417 8.36899 2.3252 0
M  V30 5388 H 911.145 6.70391 1.71179 0
M  V30 5389 H 912.013 7.03638 4.13219 0
M  V30 5390 H 914.668 4.59931 3.54016 0
M  V30 5391 H 914.948 6.88995 1.59871 0
M  V30 5392 H 915.939 6.4684 3.0373 0
M  V30 5393 H 914.105 8.47002 3.20749 0
M  V30 5394 H 914.064 5.8885 -0.0765548 0
M  V30 5395 H 914.445 1.60276 -2.32875 0
M  V30 5396 H 914.634 -0.0699355 -1.73859 0
M  V30 5397 H 914.742 0.165507 2.71897 0
M  V30 5398 P 915.975 7.20834 5.23717 0
M  V30 5399 O 916.195 7.79853 6.57286 0
M  V30 5400 O 916.765 7.79239 4.12957 0
M  V30 5401 O 916.225 5.63315 5.29344 0
M  V30 5402 C 915.285 4.80255 6.01876 0
M  V30 5403 C 916.015 3.64202 6.65911 0
M  V30 5404 O 916.225 2.60694 5.64732 0
M  V30 5405 C 917.415 3.93473 7.1943 0
M  V30 5406 O 917.805 3.02071 8.21205 0
M  V30 5407 C 918.295 3.73047 5.97036 0
M  V30 5408 C 917.585 2.58828 5.25741 0
M  V30 5409 N 917.635 2.68068 3.77503 0
M  V30 5410 H 914.796 5.40332 6.79951 0
M  V30 5411 H 914.526 4.41613 5.32378 0
M  V30 5412 H 915.393 3.26331 7.47797 0
M  V30 5413 P 919.355 2.75334 8.47391 0
M  V30 5414 O 919.575 2.44571 9.90142 0
M  V30 5415 O 920.145 3.87688 7.92115 0
M  V30 5416 O 919.605 1.4459 7.59357 0
M  V30 5417 C 918.665 0.347608 7.69215 0
M  V30 5418 C 919.395 -0.96767 7.52806 0
M  V30 5419 O 919.605 -1.21036 6.1011 0
M  V30 5420 C 920.795 -1.04544 8.13308 0
M  V30 5421 O 921.185 -2.38311 8.41922 0
M  V30 5422 C 921.675 -0.491279 7.02284 0
M  V30 5423 C 920.965 -0.996264 5.77469 0
M  V30 5424 N 921.015 -0.0501916 4.62973 0
M  V30 5425 H 918.176 0.374722 8.67691 0
M  V30 5426 H 917.906 0.443485 6.90277 0
M  V30 5427 H 918.773 -1.75537 7.96793 0
M  V30 5428 P 922.735 -2.75334 8.47391 0
M  V30 5429 O 922.955 -3.84128 9.44797 0
M  V30 5430 O 923.525 -1.51947 8.68712 0
M  V30 5431 O 922.985 -3.29363 6.99321 0
M  V30 5432 C 922.045 -4.24011 6.4274 0
M  V30 5433 C 922.775 -5.20775 5.52155 0
M  V30 5434 O 922.985 -4.56534 4.22446 0
M  V30 5435 C 924.175 -5.62629 5.96531 0
M  V30 5436 O 924.565 -6.87667 5.41053 0
M  V30 5437 C 925.055 -4.52537 5.39283 0
M  V30 5438 C 924.345 -4.20027 4.08623 0
M  V30 5439 N 924.395 -2.76189 3.71603 0
M  V30 5440 H 921.556 -4.797 7.24003 0
M  V30 5441 H 921.286 -3.69856 5.84513 0
M  V30 5442 H 922.153 -6.10356 5.41441 0
M  V30 5443 P 926.115 -7.20834 5.23717 0
M  V30 5444 O 926.335 -8.66104 5.38572 0
M  V30 5445 O 926.905 -6.33544 6.1349 0
M  V30 5446 O 926.365 -6.7751 3.72168 0
M  V30 5447 C 925.425 -7.20825 2.7076 0
M  V30 5448 C 926.155 -7.45864 1.40599 0
M  V30 5449 O 926.365 -6.17651 0.734225 0
M  V30 5450 C 927.555 -8.05808 1.51899 0
M  V30 5451 O 927.945 -8.74358 0.335205 0
M  V30 5452 C 928.435 -6.83093 1.70294 0
M  V30 5453 C 927.725 -5.79992 0.836974 0
M  V30 5454 N 927.775 -4.41864 1.38293 0
M  V30 5455 H 924.936 -8.13644 3.0377 0
M  V30 5456 H 924.666 -6.42788 2.55485 0
M  V30 5457 H 925.533 -8.12039 0.792769 0
M  V30 5458 P 929.495 -8.91 -6.87236e-12 0
M  V30 5459 O 929.715 -10.1726 -0.733694 0
M  V30 5460 O 930.285 -8.73148 1.23936 0
M  V30 5461 O 929.745 -7.66872 -0.971405 0
M  V30 5462 C 928.805 -7.42309 -2.04641 0
M  V30 5463 C 929.535 -6.86059 -3.24661 0
M  V30 5464 O 929.745 -5.42847 -3.03646 0
M  V30 5465 C 930.935 -7.41196 -3.50753 0
M  V30 5466 O 931.325 -7.27073 -4.86816 0
M  V30 5467 C 931.815 -6.5273 -2.63741 0
M  V30 5468 C 931.105 -5.1842 -2.73198 0
M  V30 5469 N 931.155 -4.38762 -1.4784 0
M  V30 5470 H 928.316 -8.36803 -2.32493 0
M  V30 5471 H 928.046 -6.70197 -1.71129 0
M  V30 5472 H 928.913 -7.03551 -4.13168 0
M  V30 5473 P 932.874 -7.20834 -5.23717 0
M  V30 5474 O 933.094 -7.79853 -6.57286 0
M  V30 5475 O 933.664 -7.79239 -4.12957 0
M  V30 5476 O 933.124 -5.63315 -5.29344 0
M  V30 5477 C 932.184 -4.80255 -6.01876 0
M  V30 5478 C 932.914 -3.64202 -6.65911 0
M  V30 5479 O 933.124 -2.60694 -5.64732 0
M  V30 5480 C 934.314 -3.93473 -7.1943 0
M  V30 5481 O 934.704 -3.02071 -8.21205 0
M  V30 5482 C 935.194 -3.73047 -5.97036 0
M  V30 5483 C 934.484 -2.58828 -5.25741 0
M  V30 5484 N 934.534 -2.68068 -3.77503 0
M  V30 5485 H 931.695 -5.40332 -6.79951 0
M  V30 5486 H 931.425 -4.41613 -5.32378 0
M  V30 5487 H 932.292 -3.26331 -7.47797 0
M  V30 5488 P 936.254 -2.75334 -8.47391 0
M  V30 5489 O 936.474 -2.44571 -9.90142 0
M  V30 5490 O 937.044 -3.87688 -7.92115 0
M  V30 5491 O 936.504 -1.4459 -7.59357 0
M  V30 5492 C 935.564 -0.347608 -7.69215 0
M  V30 5493 C 936.294 0.96767 -7.52806 0
M  V30 5494 O 936.504 1.21036 -6.1011 0
M  V30 5495 C 937.694 1.04544 -8.13308 0
M  V30 5496 O 938.084 2.38311 -8.41922 0
M  V30 5497 C 938.574 0.491279 -7.02284 0
M  V30 5498 C 937.864 0.996264 -5.77469 0
M  V30 5499 N 937.914 0.0501916 -4.62973 0
M  V30 5500 H 935.075 -0.374722 -8.67691 0
M  V30 5501 H 934.805 -0.443485 -6.90277 0
M  V30 5502 H 935.672 1.75537 -7.96793 0
M  V30 5503 P 939.634 2.75334 -8.47391 0
M  V30 5504 O 939.854 3.84128 -9.44797 0
M  V30 5505 O 940.424 1.51947 -8.68712 0
M  V30 5506 O 939.884 3.29363 -6.99321 0
M  V30 5507 C 938.944 4.24011 -6.4274 0
M  V30 5508 C 939.674 5.20775 -5.52155 0
M  V30 5509 O 939.884 4.56534 -4.22446 0
M  V30 5510 C 941.074 5.62629 -5.96531 0
M  V30 5511 O 941.464 6.87667 -5.41053 0
M  V30 5512 C 941.954 4.52537 -5.39283 0
M  V30 5513 C 941.244 4.20027 -4.08623 0
M  V30 5514 N 941.294 2.76189 -3.71603 0
M  V30 5515 C 941.214 1.64862 -4.52822 0
M  V30 5516 N 941.294 0.512671 -3.88633 0
M  V30 5517 C 941.434 0.888083 -2.54977 0
M  V30 5518 C 941.564 0.094668 -1.38677 0
M  V30 5519 N 941.684 0.890102 -0.232633 0
M  V30 5520 C 941.684 2.26958 -0.21772 0
M  V30 5521 N 941.814 2.84626 0.97925 0
M  V30 5522 N 941.554 3.0178 -1.31033 0
M  V30 5523 C 941.434 2.26781 -2.43843 0
M  V30 5524 H 938.455 4.797 -7.24003 0
M  V30 5525 H 938.185 3.69856 -5.84513 0
M  V30 5526 H 939.052 6.10356 -5.41441 0
M  V30 5527 P 943.014 7.20834 -5.23717 0
M  V30 5528 O 943.234 8.66104 -5.38572 0
M  V30 5529 O 943.804 6.33544 -6.1349 0
M  V30 5530 O 943.264 6.7751 -3.72168 0
M  V30 5531 C 942.324 7.20825 -2.7076 0
M  V30 5532 C 943.054 7.45864 -1.40599 0
M  V30 5533 O 943.264 6.17651 -0.734225 0
M  V30 5534 C 944.454 8.05808 -1.51899 0
M  V30 5535 O 944.844 8.74358 -0.335205 0
M  V30 5536 C 945.334 6.83093 -1.70294 0
M  V30 5537 C 944.624 5.79992 -0.836974 0
M  V30 5538 N 944.674 4.41864 -1.38293 0
M  V30 5539 C 944.594 3.99538 -2.69438 0
M  V30 5540 N 944.674 2.69909 -2.84277 0
M  V30 5541 C 944.814 2.21719 -1.5408 0
M  V30 5542 C 944.944 0.891712 -1.06628 0
M  V30 5543 O 944.964 -0.161298 -1.70137 0
M  V30 5544 N 945.064 0.856846 0.334985 0
M  V30 5545 C 945.064 1.9641 1.15789 0
M  V30 5546 N 945.194 1.72708 2.46522 0
M  V30 5547 N 944.934 3.21165 0.713741 0
M  V30 5548 C 944.814 3.26797 -0.639748 0
M  V30 5549 H 941.835 8.13644 -3.0377 0
M  V30 5550 H 941.565 6.42788 -2.55485 0
M  V30 5551 H 942.432 8.12039 -0.792769 0
M  V30 5552 H 945.087 5.80061 0.166416 0
M  V30 5553 H 945.366 6.51287 -2.75604 0
M  V30 5554 H 946.358 7.01734 -1.34462 0
M  V30 5555 H 944.524 8.73674 -2.38337 0
M  V30 5556 H 944.475 4.68207 -3.53221 0
M  V30 5557 H 945.157 -0.0398818 0.767965 0
M  V30 5558 H 945.194 2.50995 3.13503 0
M  V30 5559 H 945.295 0.759148 2.80716 0
M  V30 5560 P 946.394 8.91 7.02954e-12 0
M  V30 5561 O 946.614 10.1726 0.733694 0
M  V30 5562 O 947.184 8.73148 -1.23936 0
M  V30 5563 O 946.644 7.66872 0.971405 0
M  V30 5564 C 945.704 7.42309 2.04641 0
M  V30 5565 C 946.434 6.86059 3.24661 0
M  V30 5566 O 946.644 5.42847 3.03646 0
M  V30 5567 C 947.834 7.41196 3.50753 0
M  V30 5568 O 948.224 7.27073 4.86816 0
M  V30 5569 C 948.714 6.5273 2.63741 0
M  V30 5570 C 948.004 5.1842 2.73198 0
M  V30 5571 N 948.054 4.38762 1.4784 0
M  V30 5572 H 945.215 8.36803 2.32493 0
M  V30 5573 H 944.945 6.70197 1.71129 0
M  V30 5574 H 945.812 7.03551 4.13168 0
M  V30 5575 P 949.774 7.20834 5.23717 0
M  V30 5576 O 949.994 7.79853 6.57286 0
M  V30 5577 O 950.564 7.79239 4.12957 0
M  V30 5578 O 950.024 5.63315 5.29344 0
M  V30 5579 C 949.084 4.80255 6.01876 0
M  V30 5580 C 949.814 3.64202 6.65911 0
M  V30 5581 O 950.024 2.60694 5.64732 0
M  V30 5582 C 951.214 3.93473 7.1943 0
M  V30 5583 O 951.604 3.02071 8.21205 0
M  V30 5584 C 952.094 3.73047 5.97036 0
M  V30 5585 C 951.384 2.58828 5.25741 0
M  V30 5586 N 951.434 2.68068 3.77503 0
M  V30 5587 C 951.354 3.79715 2.96723 0
M  V30 5588 N 951.434 3.5377 1.68852 0
M  V30 5589 C 951.574 2.15054 1.63254 0
M  V30 5590 C 951.704 1.28964 0.518571 0
M  V30 5591 N 951.824 -0.0538097 0.918425 0
M  V30 5592 C 951.824 -0.494275 2.22578 0
M  V30 5593 N 951.954 -1.81086 2.40434 0
M  V30 5594 N 951.694 0.313645 3.27502 0
M  V30 5595 C 951.574 1.61829 2.91033 0
M  V30 5596 H 948.595 5.40332 6.79951 0
M  V30 5597 H 948.325 4.41613 5.32378 0
M  V30 5598 H 949.192 3.26331 7.47797 0
M  V30 5599 P 953.154 2.75334 8.47391 0
M  V30 5600 O 953.374 2.44571 9.90142 0
M  V30 5601 O 953.944 3.87688 7.92115 0
M  V30 5602 O 953.404 1.4459 7.59357 0
M  V30 5603 C 952.464 0.347608 7.69215 0
M  V30 5604 C 953.194 -0.96767 7.52806 0
M  V30 5605 O 953.404 -1.21036 6.1011 0
M  V30 5606 C 954.594 -1.04544 8.13308 0
M  V30 5607 O 954.984 -2.38311 8.41922 0
M  V30 5608 C 955.474 -0.491279 7.02284 0
M  V30 5609 C 954.764 -0.996264 5.77469 0
M  V30 5610 N 954.814 -0.0501916 4.62973 0
M  V30 5611 H 951.975 0.374722 8.67691 0
M  V30 5612 H 951.705 0.443485 6.90277 0
M  V30 5613 H 952.572 -1.75537 7.96793 0
M  V30 5614 P 956.534 -2.75334 8.47391 0
M  V30 5615 O 956.754 -3.84166 9.4489 0
M  V30 5616 O 957.324 -1.51964 8.6881 0
M  V30 5617 O 956.784 -3.29363 6.99321 0
M  V30 5618 C 955.844 -4.23956 6.42656 0
M  V30 5619 C 956.574 -5.20775 5.52155 0
M  V30 5620 O 956.784 -4.56534 4.22446 0
M  V30 5621 C 957.974 -5.62629 5.96531 0
M  V30 5622 O 958.364 -6.87667 5.41053 0
M  V30 5623 C 958.854 -4.52537 5.39283 0
M  V30 5624 C 958.144 -4.20027 4.08623 0
M  V30 5625 N 958.194 -2.7613 3.71522 0
M  V30 5626 C 958.344 -2.45612 2.37989 0
M  V30 5627 O 958.434 -3.30919 1.51621 0
M  V30 5628 N 958.384 -1.10684 2.08435 0
M  V30 5629 C 958.294 -0.0690084 2.9792 0
M  V30 5630 C 958.144 -0.481522 4.35345 0
M  V30 5631 C 958.094 -1.78906 4.67968 0
M  V30 5632 H 955.354 -4.797 7.24003 0
M  V30 5633 H 955.085 -3.69802 5.84429 0
M  V30 5634 H 955.952 -6.10356 5.41441 0
M  V30 5635 H 958.607 -4.78651 3.27911 0
M  V30 5636 H 958.886 -3.64957 6.05871 0
M  V30 5637 H 959.878 -4.8868 5.2125 0
M  V30 5638 H 958.044 -5.66726 7.06352 0
M  V30 5639 H 957.973 -2.07737 5.72367 0
M  V30 5640 P 959.914 -7.20834 5.23717 0
M  V30 5641 O 960.134 -8.66104 5.38572 0
M  V30 5642 O 960.704 -6.33544 6.1349 0
M  V30 5643 O 960.164 -6.7751 3.72168 0
M  V30 5644 C 959.224 -7.20825 2.7076 0
M  V30 5645 C 959.954 -7.45864 1.40599 0
M  V30 5646 O 960.164 -6.17651 0.734225 0
M  V30 5647 C 961.354 -8.05808 1.51899 0
M  V30 5648 O 961.744 -8.74358 0.335205 0
M  V30 5649 C 962.234 -6.83093 1.70294 0
M  V30 5650 C 961.524 -5.79992 0.836974 0
M  V30 5651 N 961.574 -4.41864 1.38293 0
M  V30 5652 H 958.735 -8.13644 3.0377 0
M  V30 5653 H 958.465 -6.42788 2.55485 0
M  V30 5654 H 959.332 -8.12039 0.792769 0
M  V30 5655 P 963.294 -8.91 -7.18673e-12 0
M  V30 5656 O 963.514 -10.1726 -0.733694 0
M  V30 5657 O 964.084 -8.73148 1.23936 0
M  V30 5658 O 963.544 -7.66872 -0.971405 0
M  V30 5659 C 962.604 -7.42309 -2.04641 0
M  V30 5660 C 963.334 -6.86059 -3.24661 0
M  V30 5661 O 963.544 -5.42847 -3.03646 0
M  V30 5662 C 964.734 -7.41196 -3.50753 0
M  V30 5663 O 965.124 -7.27073 -4.86816 0
M  V30 5664 C 965.614 -6.5273 -2.63741 0
M  V30 5665 C 964.904 -5.1842 -2.73198 0
M  V30 5666 N 964.954 -4.38762 -1.4784 0
M  V30 5667 H 962.115 -8.36803 -2.32493 0
M  V30 5668 H 961.845 -6.70197 -1.71129 0
M  V30 5669 H 962.712 -7.03551 -4.13168 0
M  V30 5670 P 966.674 -7.20834 -5.23717 0
M  V30 5671 O 966.894 -7.79853 -6.57286 0
M  V30 5672 O 967.464 -7.79239 -4.12957 0
M  V30 5673 O 966.924 -5.63315 -5.29344 0
M  V30 5674 C 965.984 -4.80255 -6.01876 0
M  V30 5675 C 966.714 -3.64202 -6.65911 0
M  V30 5676 O 966.924 -2.60694 -5.64732 0
M  V30 5677 C 968.114 -3.93473 -7.1943 0
M  V30 5678 O 968.504 -3.02071 -8.21205 0
M  V30 5679 C 968.994 -3.73047 -5.97036 0
M  V30 5680 C 968.284 -2.58828 -5.25741 0
M  V30 5681 N 968.334 -2.68068 -3.77503 0
M  V30 5682 H 965.495 -5.40332 -6.79951 0
M  V30 5683 H 965.225 -4.41613 -5.32378 0
M  V30 5684 H 966.092 -3.26331 -7.47797 0
M  V30 5685 P 970.054 -2.75334 -8.47391 0
M  V30 5686 O 970.274 -2.44571 -9.90142 0
M  V30 5687 O 970.844 -3.87688 -7.92115 0
M  V30 5688 O 970.304 -1.4459 -7.59357 0
M  V30 5689 C 969.364 -0.347608 -7.69215 0
M  V30 5690 C 970.094 0.96767 -7.52806 0
M  V30 5691 O 970.304 1.21036 -6.1011 0
M  V30 5692 C 971.494 1.04544 -8.13308 0
M  V30 5693 O 971.884 2.38311 -8.41922 0
M  V30 5694 C 972.374 0.491279 -7.02284 0
M  V30 5695 C 971.664 0.996264 -5.77469 0
M  V30 5696 N 971.714 0.0501916 -4.62973 0
M  V30 5697 H 968.875 -0.374722 -8.67691 0
M  V30 5698 H 968.605 -0.443485 -6.90277 0
M  V30 5699 H 969.472 1.75537 -7.96793 0
M  V30 5700 P 973.434 2.75334 -8.47391 0
M  V30 5701 O 973.654 3.84128 -9.44797 0
M  V30 5702 O 974.224 1.51947 -8.68712 0
M  V30 5703 O 973.684 3.29363 -6.99321 0
M  V30 5704 C 972.744 4.24011 -6.4274 0
M  V30 5705 C 973.474 5.20775 -5.52155 0
M  V30 5706 O 973.684 4.56534 -4.22446 0
M  V30 5707 C 974.874 5.62629 -5.96531 0
M  V30 5708 O 975.264 6.87667 -5.41053 0
M  V30 5709 C 975.754 4.52537 -5.39283 0
M  V30 5710 C 975.044 4.20027 -4.08623 0
M  V30 5711 N 975.094 2.76189 -3.71603 0
M  V30 5712 H 972.255 4.797 -7.24003 0
M  V30 5713 H 971.985 3.69856 -5.84513 0
M  V30 5714 H 972.852 6.10356 -5.41441 0
M  V30 5715 P 976.814 7.20834 -5.23717 0
M  V30 5716 O 977.034 8.66104 -5.38572 0
M  V30 5717 O 977.604 6.33544 -6.1349 0
M  V30 5718 O 977.064 6.7751 -3.72168 0
M  V30 5719 C 976.124 7.20825 -2.7076 0
M  V30 5720 C 976.854 7.45864 -1.40599 0
M  V30 5721 O 977.064 6.17651 -0.734225 0
M  V30 5722 C 978.254 8.05808 -1.51899 0
M  V30 5723 O 978.644 8.74358 -0.335205 0
M  V30 5724 C 979.134 6.83093 -1.70294 0
M  V30 5725 C 978.424 5.79992 -0.836974 0
M  V30 5726 N 978.474 4.41864 -1.38293 0
M  V30 5727 H 975.635 8.13644 -3.0377 0
M  V30 5728 H 975.365 6.42788 -2.55485 0
M  V30 5729 H 976.232 8.12039 -0.792769 0
M  V30 5730 P 980.194 8.91 7.34391e-12 0
M  V30 5731 O 980.414 10.1726 0.733694 0
M  V30 5732 O 980.984 8.73148 -1.23936 0
M  V30 5733 O 980.444 7.66872 0.971405 0
M  V30 5734 C 979.504 7.42309 2.04641 0
M  V30 5735 C 980.234 6.86059 3.24661 0
M  V30 5736 O 980.444 5.42847 3.03646 0
M  V30 5737 C 981.634 7.41196 3.50753 0
M  V30 5738 O 982.024 7.27073 4.86816 0
M  V30 5739 C 982.514 6.5273 2.63741 0
M  V30 5740 C 981.804 5.1842 2.73198 0
M  V30 5741 N 981.854 4.38762 1.4784 0
M  V30 5742 H 979.015 8.36803 2.32493 0
M  V30 5743 H 978.745 6.70197 1.71129 0
M  V30 5744 H 979.612 7.03551 4.13168 0
M  V30 5745 P 983.574 7.20834 5.23717 0
M  V30 5746 O 983.794 7.79853 6.57286 0
M  V30 5747 O 984.364 7.79239 4.12957 0
M  V30 5748 O 983.824 5.63315 5.29344 0
M  V30 5749 C 982.884 4.80255 6.01876 0
M  V30 5750 C 983.614 3.64202 6.65911 0
M  V30 5751 O 983.824 2.60694 5.64732 0
M  V30 5752 C 985.014 3.93473 7.1943 0
M  V30 5753 O 985.404 3.02071 8.21205 0
M  V30 5754 C 985.894 3.73047 5.97036 0
M  V30 5755 C 985.184 2.58828 5.25741 0
M  V30 5756 N 985.234 2.68068 3.77503 0
M  V30 5757 H 982.395 5.40332 6.79951 0
M  V30 5758 H 982.125 4.41613 5.32378 0
M  V30 5759 H 982.992 3.26331 7.47797 0
M  V30 5760 P 986.954 2.75334 8.47391 0
M  V30 5761 O 987.174 2.44595 9.90239 0
M  V30 5762 O 987.744 3.87732 7.92204 0
M  V30 5763 O 987.204 1.4459 7.59357 0
M  V30 5764 C 986.264 0.347563 7.69115 0
M  V30 5765 C 986.994 -0.96767 7.52806 0
M  V30 5766 O 987.204 -1.21036 6.1011 0
M  V30 5767 C 988.394 -1.04544 8.13308 0
M  V30 5768 O 988.784 -2.38311 8.41922 0
M  V30 5769 C 989.274 -0.491279 7.02284 0
M  V30 5770 C 988.564 -0.996264 5.77469 0
M  V30 5771 N 988.614 -0.0501808 4.62873 0
M  V30 5772 C 988.764 -0.588177 3.36904 0
M  V30 5773 O 988.854 -1.78598 3.17173 0
M  V30 5774 N 988.804 0.329694 2.33686 0
M  V30 5775 C 988.714 1.6953 2.45079 0
M  V30 5776 O 988.764 2.41926 1.44899 0
M  V30 5777 C 988.564 2.16933 3.80505 0
M  V30 5778 C 988.454 3.65373 3.97621 0
M  V30 5779 C 988.514 1.30326 4.83752 0
M  V30 5780 H 985.774 0.374722 8.67691 0
M  V30 5781 H 985.505 0.443421 6.90177 0
M  V30 5782 H 986.372 -1.75537 7.96793 0
M  V30 5783 H 989.027 -1.94496 5.46629 0
M  V30 5784 H 989.306 0.608651 7.04676 0
M  V30 5785 H 990.298 -0.889672 7.08939 0
M  V30 5786 H 988.464 -0.43308 9.04564 0
M  V30 5787 H 988.393 1.68366 5.8516 0
M  V30 5788 H 989.423 4.05985 4.30448 0
M  V30 5789 H 987.686 3.88028 4.72875 0
M  V30 5790 H 988.174 4.11381 3.01609 0
M  V30 5791 H 988.91 -0.0393617 1.41345 0
M  V30 5792 P 990.334 -2.75334 8.47391 0
M  V30 5793 O 990.554 -3.84204 9.44982 0
M  V30 5794 O 991.124 -1.51982 8.68909 0
M  V30 5795 O 990.584 -3.29363 6.99321 0
M  V30 5796 C 989.644 -4.24066 6.42823 0
M  V30 5797 C 990.374 -5.20775 5.52155 0
M  V30 5798 O 990.584 -4.56607 4.22514 0
M  V30 5799 C 991.774 -5.62697 5.96604 0
M  V30 5800 O 992.164 -6.87667 5.41053 0
M  V30 5801 C 992.654 -4.52537 5.39283 0
M  V30 5802 C 991.944 -4.20027 4.08623 0
M  V30 5803 N 991.994 -2.76189 3.71603 0
M  V30 5804 C 991.914 -1.66944 4.54297 0
M  V30 5805 N 991.984 -0.536169 3.91344 0
M  V30 5806 C 992.134 -0.901569 2.58849 0
M  V30 5807 C 992.264 -0.146599 1.40236 0
M  V30 5808 N 992.274 1.18234 1.37046 0
M  V30 5809 N 992.384 -0.822941 0.249738 0
M  V30 5810 C 992.374 -2.15179 0.280525 0
M  V30 5811 N 992.254 -2.96414 1.30822 0
M  V30 5812 C 992.134 -2.25804 2.44748 0
M  V30 5813 H 989.156 -4.79756 7.24086 0
M  V30 5814 H 988.884 -3.69963 5.84682 0
M  V30 5815 H 989.752 -6.10431 5.41508 0
M  V30 5816 H 992.407 -4.78816 3.28024 0
M  V30 5817 H 992.687 -3.64957 6.05871 0
M  V30 5818 H 993.678 -4.88748 5.21323 0
M  V30 5819 H 991.844 -5.66789 7.0643 0
M  V30 5820 H 991.803 -1.74684 5.62396 0
M  V30 5821 H 992.184 1.71949 2.24394 0
M  V30 5822 H 992.373 1.67511 0.470742 0
M  V30 5823 H 992.481 -2.63704 -0.6828 0
M  V30 5824 P 993.714 -7.20834 5.23717 0
M  V30 5825 O 993.934 -8.66104 5.38572 0
M  V30 5826 O 994.504 -6.33544 6.1349 0
M  V30 5827 O 993.964 -6.7751 3.72168 0
M  V30 5828 C 993.024 -7.20825 2.7076 0
M  V30 5829 C 993.754 -7.45864 1.40599 0
M  V30 5830 O 993.964 -6.17651 0.734225 0
M  V30 5831 C 995.154 -8.05808 1.51899 0
M  V30 5832 O 995.544 -8.74358 0.335205 0
M  V30 5833 C 996.034 -6.83093 1.70294 0
M  V30 5834 C 995.324 -5.79992 0.836974 0
M  V30 5835 N 995.374 -4.41864 1.38293 0
M  V30 5836 H 992.535 -8.13644 3.0377 0
M  V30 5837 H 992.265 -6.42788 2.55485 0
M  V30 5838 H 993.132 -8.12039 0.792769 0
M  V30 5839 P 997.094 -8.91 -7.50109e-12 0
M  V30 5840 O 997.314 -10.1726 -0.733694 0
M  V30 5841 O 997.884 -8.73148 1.23936 0
M  V30 5842 O 997.344 -7.66872 -0.971405 0
M  V30 5843 C 996.404 -7.42309 -2.04641 0
M  V30 5844 C 997.134 -6.86059 -3.24661 0
M  V30 5845 O 997.344 -5.42847 -3.03646 0
M  V30 5846 C 998.534 -7.41196 -3.50753 0
M  V30 5847 O 998.924 -7.27073 -4.86816 0
M  V30 5848 C 999.414 -6.5273 -2.63741 0
M  V30 5849 C 998.704 -5.1842 -2.73198 0
M  V30 5850 N 998.754 -4.38762 -1.4784 0
M  V30 5851 H 995.915 -8.36803 -2.32493 0
M  V30 5852 H 995.645 -6.70197 -1.71129 0
M  V30 5853 H 996.512 -7.03551 -4.13168 0
M  V30 5854 P 1000.47 -7.20834 -5.23717 0
M  V30 5855 O 1000.69 -7.79853 -6.57286 0
M  V30 5856 O 1001.26 -7.79239 -4.12957 0
M  V30 5857 O 1000.72 -5.63315 -5.29344 0
M  V30 5858 C 999.784 -4.80255 -6.01876 0
M  V30 5859 C 1000.51 -3.64202 -6.65911 0
M  V30 5860 O 1000.72 -2.60694 -5.64732 0
M  V30 5861 C 1001.91 -3.93473 -7.1943 0
M  V30 5862 O 1002.3 -3.02071 -8.21205 0
M  V30 5863 C 1002.79 -3.73047 -5.97036 0
M  V30 5864 C 1002.08 -2.58828 -5.25741 0
M  V30 5865 N 1002.13 -2.68068 -3.77503 0
M  V30 5866 H 999.295 -5.40332 -6.79951 0
M  V30 5867 H 999.025 -4.41613 -5.32378 0
M  V30 5868 H 999.892 -3.26331 -7.47797 0
M  V30 5869 P 1003.85 -2.75334 -8.47391 0
M  V30 5870 O 1004.07 -2.44571 -9.90142 0
M  V30 5871 O 1004.64 -3.87688 -7.92115 0
M  V30 5872 O 1004.1 -1.4459 -7.59357 0
M  V30 5873 C 1003.16 -0.347608 -7.69215 0
M  V30 5874 C 1003.89 0.96767 -7.52806 0
M  V30 5875 O 1004.1 1.21036 -6.1011 0
M  V30 5876 C 1005.29 1.04544 -8.13308 0
M  V30 5877 O 1005.68 2.38311 -8.41922 0
M  V30 5878 C 1006.17 0.491279 -7.02284 0
M  V30 5879 C 1005.46 0.996264 -5.77469 0
M  V30 5880 N 1005.51 0.0501916 -4.62973 0
M  V30 5881 H 1002.68 -0.374722 -8.67691 0
M  V30 5882 H 1002.41 -0.443485 -6.90277 0
M  V30 5883 H 1003.27 1.75537 -7.96793 0
M  V30 5884 P 1007.23 2.75334 -8.47391 0
M  V30 5885 O 1007.45 3.84128 -9.44797 0
M  V30 5886 O 1008.02 1.51947 -8.68712 0
M  V30 5887 O 1007.48 3.29363 -6.99321 0
M  V30 5888 C 1006.54 4.24011 -6.4274 0
M  V30 5889 C 1007.27 5.20775 -5.52155 0
M  V30 5890 O 1007.48 4.56534 -4.22446 0
M  V30 5891 C 1008.67 5.62629 -5.96531 0
M  V30 5892 O 1009.06 6.87667 -5.41053 0
M  V30 5893 C 1009.55 4.52537 -5.39283 0
M  V30 5894 C 1008.84 4.20027 -4.08623 0
M  V30 5895 N 1008.89 2.76189 -3.71603 0
M  V30 5896 H 1006.06 4.797 -7.24003 0
M  V30 5897 H 1005.79 3.69856 -5.84513 0
M  V30 5898 H 1006.65 6.10356 -5.41441 0
M  V30 5899 P 1010.61 7.20834 -5.23717 0
M  V30 5900 O 1010.83 8.66104 -5.38572 0
M  V30 5901 O 1011.4 6.33544 -6.1349 0
M  V30 5902 O 1010.86 6.7751 -3.72168 0
M  V30 5903 C 1009.92 7.20825 -2.7076 0
M  V30 5904 C 1010.65 7.45864 -1.40599 0
M  V30 5905 O 1010.86 6.17651 -0.734225 0
M  V30 5906 C 1012.05 8.05808 -1.51899 0
M  V30 5907 O 1012.44 8.74358 -0.335205 0
M  V30 5908 C 1012.93 6.83093 -1.70294 0
M  V30 5909 C 1012.22 5.79992 -0.836974 0
M  V30 5910 N 1012.27 4.41864 -1.38293 0
M  V30 5911 H 1009.44 8.13644 -3.0377 0
M  V30 5912 H 1009.17 6.42788 -2.55485 0
M  V30 5913 H 1010.03 8.12039 -0.792769 0
M  V30 5914 P 1013.99 8.91 7.65827e-12 0
M  V30 5915 O 1014.21 10.1726 0.733694 0
M  V30 5916 O 1014.78 8.73148 -1.23936 0
M  V30 5917 O 1014.24 7.66872 0.971405 0
M  V30 5918 C 1013.3 7.42309 2.04641 0
M  V30 5919 C 1014.03 6.86059 3.24661 0
M  V30 5920 O 1014.24 5.42847 3.03646 0
M  V30 5921 C 1015.43 7.41196 3.50753 0
M  V30 5922 O 1015.82 7.27073 4.86816 0
M  V30 5923 C 1016.31 6.5273 2.63741 0
M  V30 5924 C 1015.6 5.1842 2.73198 0
M  V30 5925 N 1015.65 4.38762 1.4784 0
M  V30 5926 H 1012.82 8.36803 2.32493 0
M  V30 5927 H 1012.55 6.70197 1.71129 0
M  V30 5928 H 1013.41 7.03551 4.13168 0
M  V30 5929 P 1017.37 7.20834 5.23717 0
M  V30 5930 O 1017.59 7.80006 6.57415 0
M  V30 5931 O 1018.16 7.79416 4.13051 0
M  V30 5932 O 1017.62 5.63315 5.29344 0
M  V30 5933 C 1016.68 4.80318 6.01954 0
M  V30 5934 C 1017.41 3.64202 6.65911 0
M  V30 5935 O 1017.62 2.60736 5.64823 0
M  V30 5936 C 1018.81 3.93521 7.19518 0
M  V30 5937 O 1019.2 3.02071 8.21205 0
M  V30 5938 C 1019.69 3.73047 5.97036 0
M  V30 5939 C 1018.98 2.58828 5.25741 0
M  V30 5940 N 1019.03 2.68068 3.77503 0
M  V30 5941 C 1018.95 3.80474 2.99159 0
M  V30 5942 N 1019.02 3.55622 1.71925 0
M  V30 5943 C 1019.17 2.1832 1.65733 0
M  V30 5944 C 1019.3 1.28842 0.572777 0
M  V30 5945 N 1019.31 1.66875 -0.70098 0
M  V30 5946 N 1019.42 -0.016788 0.859836 0
M  V30 5947 C 1019.41 -0.398145 2.13316 0
M  V30 5948 N 1019.29 0.328224 3.22333 0
M  V30 5949 C 1019.17 1.62992 2.90383 0
M  V30 5950 H 1016.2 5.40394 6.8003 0
M  V30 5951 H 1015.92 4.41741 5.32532 0
M  V30 5952 H 1016.79 3.26371 7.47889 0
M  V30 5953 H 1019.45 1.64007 5.56746 0
M  V30 5954 H 1019.73 4.63439 5.3432 0
M  V30 5955 H 1020.72 3.44776 6.25925 0
M  V30 5956 H 1018.88 4.96707 7.57347 0
M  V30 5957 H 1018.84 4.8089 3.39924 0
M  V30 5958 H 1019.22 2.66547 -0.941919 0
M  V30 5959 H 1019.41 0.965341 -1.44766 0
M  V30 5960 H 1019.52 -1.46427 2.29697 0
M  V30 5961 P 1020.75 2.75334 8.47391 0
M  V30 5962 O 1020.97 2.44571 9.90142 0
M  V30 5963 O 1021.54 3.87688 7.92115 0
M  V30 5964 O 1021 1.4459 7.59357 0
M  V30 5965 C 1020.06 0.347608 7.69215 0
M  V30 5966 C 1020.79 -0.96767 7.52806 0
M  V30 5967 O 1021 -1.21036 6.1011 0
M  V30 5968 C 1022.19 -1.04544 8.13308 0
M  V30 5969 O 1022.58 -2.38311 8.41922 0
M  V30 5970 C 1023.07 -0.491279 7.02284 0
M  V30 5971 C 1022.36 -0.996264 5.77469 0
M  V30 5972 N 1022.41 -0.0501916 4.62973 0
M  V30 5973 H 1019.57 0.374722 8.67691 0
M  V30 5974 H 1019.3 0.443485 6.90277 0
M  V30 5975 H 1020.17 -1.75537 7.96793 0
M  V30 5976 P 1024.13 -2.75334 8.47391 0
M  V30 5977 O 1024.35 -3.84128 9.44797 0
M  V30 5978 O 1024.92 -1.51947 8.68712 0
M  V30 5979 O 1024.38 -3.29363 6.99321 0
M  V30 5980 C 1023.44 -4.24011 6.4274 0
M  V30 5981 C 1024.17 -5.20775 5.52155 0
M  V30 5982 O 1024.38 -4.56534 4.22446 0
M  V30 5983 C 1025.57 -5.62629 5.96531 0
M  V30 5984 O 1025.96 -6.87667 5.41053 0
M  V30 5985 C 1026.45 -4.52537 5.39283 0
M  V30 5986 C 1025.74 -4.20027 4.08623 0
M  V30 5987 N 1025.79 -2.76189 3.71603 0
M  V30 5988 H 1022.95 -4.797 7.24003 0
M  V30 5989 H 1022.68 -3.69856 5.84513 0
M  V30 5990 H 1023.55 -6.10356 5.41441 0
M  V30 5991 P 1027.51 -7.20834 5.23717 0
M  V30 5992 O 1027.73 -8.66104 5.38572 0
M  V30 5993 O 1028.3 -6.33544 6.1349 0
M  V30 5994 O 1027.76 -6.7751 3.72168 0
M  V30 5995 C 1026.82 -7.20825 2.7076 0
M  V30 5996 C 1027.55 -7.45864 1.40599 0
M  V30 5997 O 1027.76 -6.17651 0.734225 0
M  V30 5998 C 1028.95 -8.05808 1.51899 0
M  V30 5999 O 1029.34 -8.74358 0.335205 0
M  V30 6000 C 1029.83 -6.83093 1.70294 0
M  V30 6001 C 1029.12 -5.79992 0.836974 0
M  V30 6002 N 1029.17 -4.41864 1.38293 0
M  V30 6003 H 1026.33 -8.13644 3.0377 0
M  V30 6004 H 1026.06 -6.42788 2.55485 0
M  V30 6005 H 1026.93 -8.12039 0.792769 0
M  V30 6006 P 1030.89 -8.91 -7.81545e-12 0
M  V30 6007 O 1031.11 -10.1726 -0.733694 0
M  V30 6008 O 1031.68 -8.73148 1.23936 0
M  V30 6009 O 1031.14 -7.66872 -0.971405 0
M  V30 6010 C 1030.2 -7.42309 -2.04641 0
M  V30 6011 C 1030.93 -6.86059 -3.24661 0
M  V30 6012 O 1031.14 -5.42847 -3.03646 0
M  V30 6013 C 1032.33 -7.41196 -3.50753 0
M  V30 6014 O 1032.72 -7.27073 -4.86816 0
M  V30 6015 C 1033.21 -6.5273 -2.63741 0
M  V30 6016 C 1032.5 -5.1842 -2.73198 0
M  V30 6017 N 1032.55 -4.38762 -1.4784 0
M  V30 6018 H 1029.71 -8.36803 -2.32493 0
M  V30 6019 H 1029.44 -6.70197 -1.71129 0
M  V30 6020 H 1030.31 -7.03551 -4.13168 0
M  V30 6021 P 1034.27 -7.20834 -5.23717 0
M  V30 6022 O 1034.49 -7.79853 -6.57286 0
M  V30 6023 O 1035.06 -7.79239 -4.12957 0
M  V30 6024 O 1034.52 -5.63315 -5.29344 0
M  V30 6025 C 1033.58 -4.80255 -6.01876 0
M  V30 6026 C 1034.31 -3.64202 -6.65911 0
M  V30 6027 O 1034.52 -2.60694 -5.64732 0
M  V30 6028 C 1035.71 -3.93473 -7.1943 0
M  V30 6029 O 1036.1 -3.02071 -8.21205 0
M  V30 6030 C 1036.59 -3.73047 -5.97036 0
M  V30 6031 C 1035.88 -2.58828 -5.25741 0
M  V30 6032 N 1035.93 -2.68068 -3.77503 0
M  V30 6033 H 1033.09 -5.40332 -6.79951 0
M  V30 6034 H 1032.82 -4.41613 -5.32378 0
M  V30 6035 H 1033.69 -3.26331 -7.47797 0
M  V30 6036 P 1037.65 -2.75334 -8.47391 0
M  V30 6037 O 1037.87 -2.44571 -9.90142 0
M  V30 6038 O 1038.44 -3.87688 -7.92115 0
M  V30 6039 O 1037.9 -1.4459 -7.59357 0
M  V30 6040 C 1036.96 -0.347608 -7.69215 0
M  V30 6041 C 1037.69 0.96767 -7.52806 0
M  V30 6042 O 1037.9 1.21036 -6.1011 0
M  V30 6043 C 1039.09 1.04544 -8.13308 0
M  V30 6044 O 1039.48 2.38311 -8.41922 0
M  V30 6045 C 1039.97 0.491279 -7.02284 0
M  V30 6046 C 1039.26 0.996264 -5.77469 0
M  V30 6047 N 1039.31 0.0501916 -4.62973 0
M  V30 6048 H 1036.47 -0.374722 -8.67691 0
M  V30 6049 H 1036.2 -0.443485 -6.90277 0
M  V30 6050 H 1037.07 1.75537 -7.96793 0
M  V30 6051 P 1041.03 2.75334 -8.47391 0
M  V30 6052 O 1041.25 3.84166 -9.4489 0
M  V30 6053 O 1041.82 1.51964 -8.6881 0
M  V30 6054 O 1041.28 3.29363 -6.99321 0
M  V30 6055 C 1040.34 4.23956 -6.42656 0
M  V30 6056 C 1041.07 5.20775 -5.52155 0
M  V30 6057 O 1041.28 4.56534 -4.22446 0
M  V30 6058 C 1042.47 5.62629 -5.96531 0
M  V30 6059 O 1042.86 6.87667 -5.41053 0
M  V30 6060 C 1043.35 4.52537 -5.39283 0
M  V30 6061 C 1042.64 4.20027 -4.08623 0
M  V30 6062 N 1042.69 2.7613 -3.71522 0
M  V30 6063 C 1042.84 2.45612 -2.37989 0
M  V30 6064 O 1042.93 3.30919 -1.51621 0
M  V30 6065 N 1042.88 1.10684 -2.08435 0
M  V30 6066 C 1042.79 0.0690084 -2.9792 0
M  V30 6067 O 1042.84 -1.10553 -2.59426 0
M  V30 6068 C 1042.64 0.481522 -4.35345 0
M  V30 6069 C 1042.53 -0.618778 -5.36443 0
M  V30 6070 C 1042.59 1.78906 -4.67968 0
M  V30 6071 H 1039.85 4.797 -7.24003 0
M  V30 6072 H 1039.58 3.69802 -5.84429 0
M  V30 6073 H 1040.45 6.10356 -5.41441 0
M  V30 6074 H 1043.11 4.78651 -3.27911 0
M  V30 6075 H 1043.39 3.64957 -6.05871 0
M  V30 6076 H 1044.38 4.8868 -5.2125 0
M  V30 6077 H 1042.54 5.66726 -7.06352 0
M  V30 6078 H 1042.47 2.07737 -5.72367 0
M  V30 6079 H 1043.5 -0.754375 -5.86871 0
M  V30 6080 H 1041.77 -0.359721 -6.10641 0
M  V30 6081 H 1042.25 -1.55533 -4.8581 0
M  V30 6082 H 1042.99 0.862651 -1.12037 0
M  V30 6083 P 1044.41 7.20834 -5.23717 0
M  V30 6084 O 1044.63 8.66189 -5.38625 0
M  V30 6085 O 1045.2 6.33615 -6.1356 0
M  V30 6086 O 1044.66 6.7751 -3.72168 0
M  V30 6087 C 1043.72 7.20732 -2.70725 0
M  V30 6088 C 1044.45 7.45864 -1.40599 0
M  V30 6089 O 1044.66 6.17651 -0.734225 0
M  V30 6090 C 1045.85 8.05808 -1.51899 0
M  V30 6091 O 1046.24 8.74358 -0.335205 0
M  V30 6092 C 1046.73 6.83093 -1.70294 0
M  V30 6093 C 1046.02 5.79992 -0.836974 0
M  V30 6094 N 1046.07 4.41769 -1.38263 0
M  V30 6095 C 1046.22 3.38591 -0.481702 0
M  V30 6096 O 1046.31 3.56839 0.718452 0
M  V30 6097 N 1046.26 2.1206 -1.03569 0
M  V30 6098 C 1046.17 1.80696 -2.36966 0
M  V30 6099 C 1046.02 2.94845 -3.23898 0
M  V30 6100 C 1045.97 4.19803 -2.73435 0
M  V30 6101 H 1043.23 8.13644 -3.0377 0
M  V30 6102 H 1042.96 6.42695 -2.55448 0
M  V30 6103 H 1043.83 8.12039 -0.792769 0
M  V30 6104 H 1046.49 5.79978 0.160587 0
M  V30 6105 H 1046.77 6.51379 -2.75643 0
M  V30 6106 H 1047.76 7.01734 -1.34462 0
M  V30 6107 H 1045.92 8.73674 -2.38337 0
M  V30 6108 H 1045.85 5.04492 -3.4095 0
M  V30 6109 P 1047.79 8.91 7.97264e-12 0
M  V30 6110 O 1048.01 10.1726 0.733694 0
M  V30 6111 O 1048.58 8.73148 -1.23936 0
M  V30 6112 O 1048.04 7.66872 0.971405 0
M  V30 6113 C 1047.1 7.42309 2.04641 0
M  V30 6114 C 1047.83 6.86059 3.24661 0
M  V30 6115 O 1048.04 5.42847 3.03646 0
M  V30 6116 C 1049.23 7.41196 3.50753 0
M  V30 6117 O 1049.62 7.27073 4.86816 0
M  V30 6118 C 1050.11 6.5273 2.63741 0
M  V30 6119 C 1049.4 5.1842 2.73198 0
M  V30 6120 N 1049.45 4.38762 1.4784 0
M  V30 6121 H 1046.61 8.36803 2.32493 0
M  V30 6122 H 1046.34 6.70197 1.71129 0
M  V30 6123 H 1047.21 7.03551 4.13168 0
M  V30 6124 P 1051.17 7.20834 5.23717 0
M  V30 6125 O 1051.39 7.79853 6.57286 0
M  V30 6126 O 1051.96 7.79239 4.12957 0
M  V30 6127 O 1051.42 5.63315 5.29344 0
M  V30 6128 C 1050.48 4.80255 6.01876 0
M  V30 6129 C 1051.21 3.64202 6.65911 0
M  V30 6130 O 1051.42 2.60694 5.64732 0
M  V30 6131 C 1052.61 3.93473 7.1943 0
M  V30 6132 O 1053 3.02071 8.21205 0
M  V30 6133 C 1053.49 3.73047 5.97036 0
M  V30 6134 C 1052.78 2.58828 5.25741 0
M  V30 6135 N 1052.83 2.68068 3.77503 0
M  V30 6136 C 1052.75 3.79715 2.96723 0
M  V30 6137 N 1052.83 3.5377 1.68852 0
M  V30 6138 C 1052.97 2.15054 1.63254 0
M  V30 6139 C 1053.1 1.28964 0.518571 0
M  V30 6140 O 1053.12 1.56826 -0.679156 0
M  V30 6141 N 1053.22 -0.0538097 0.918425 0
M  V30 6142 C 1053.22 -0.494275 2.22578 0
M  V30 6143 N 1053.35 -1.81086 2.40434 0
M  V30 6144 N 1053.09 0.313645 3.27502 0
M  V30 6145 C 1052.97 1.61829 2.91033 0
M  V30 6146 H 1049.99 5.40332 6.79951 0
M  V30 6147 H 1049.72 4.41613 5.32378 0
M  V30 6148 H 1050.59 3.26331 7.47797 0
M  V30 6149 H 1053.25 1.63422 5.56814 0
M  V30 6150 H 1053.53 4.63374 5.34244 0
M  V30 6151 H 1054.52 3.44728 6.25838 0
M  V30 6152 H 1052.68 4.96652 7.57263 0
M  V30 6153 H 1052.63 4.80617 3.3614 0
M  V30 6154 H 1053.32 -0.742702 0.199384 0
M  V30 6155 H 1053.35 -2.20598 3.35588 0
M  V30 6156 H 1053.45 -2.43518 1.58945 0
M  V30 6157 P 1054.55 2.75334 8.47391 0
M  V30 6158 O 1054.77 2.44619 9.90336 0
M  V30 6159 O 1055.34 3.87776 7.92294 0
M  V30 6160 O 1054.8 1.4459 7.59357 0
M  V30 6161 C 1053.86 0.347653 7.69315 0
M  V30 6162 C 1054.59 -0.96767 7.52806 0
M  V30 6163 O 1054.8 -1.21055 6.10208 0
M  V30 6164 C 1055.99 -1.04557 8.13408 0
M  V30 6165 O 1056.38 -2.38311 8.41922 0
M  V30 6166 C 1056.87 -0.491279 7.02284 0
M  V30 6167 C 1056.16 -0.996264 5.77469 0
M  V30 6168 N 1056.21 -0.0501916 4.62973 0
M  V30 6169 C 1056.13 1.31969 4.65661 0
M  V30 6170 N 1056.2 1.86649 3.48119 0
M  V30 6171 C 1056.35 0.792089 2.62406 0
M  V30 6172 C 1056.48 0.705684 1.2207 0
M  V30 6173 N 1056.49 1.76207 0.413762 0
M  V30 6174 N 1056.6 -0.518981 0.685754 0
M  V30 6175 C 1056.59 -1.57595 1.49174 0
M  V30 6176 N 1056.47 -1.62909 2.80066 0
M  V30 6177 C 1056.35 -0.388195 3.3073 0
M  V30 6178 H 1053.38 0.374765 8.67791 0
M  V30 6179 H 1053.1 0.443613 6.90476 0
M  V30 6180 H 1053.97 -1.75559 7.96891 0
M  V30 6181 H 1056.63 -1.94563 5.46818 0
M  V30 6182 H 1056.91 0.608651 7.04676 0
M  V30 6183 H 1057.9 -0.889796 7.09039 0
M  V30 6184 H 1056.06 -0.433128 9.04664 0
M  V30 6185 H 1056.02 1.89246 5.57664 0
M  V30 6186 H 1056.4 2.71005 0.804694 0
M  V30 6187 H 1056.59 1.63189 -0.603768 0
M  V30 6188 H 1056.7 -2.53475 0.997614 0
M  V30 6189 P 1057.93 -2.75334 8.47391 0
M  V30 6190 O 1058.15 -3.84128 9.44797 0
M  V30 6191 O 1058.72 -1.51947 8.68712 0
M  V30 6192 O 1058.18 -3.29363 6.99321 0
M  V30 6193 C 1057.24 -4.24011 6.4274 0
M  V30 6194 C 1057.97 -5.20775 5.52155 0
M  V30 6195 O 1058.18 -4.56534 4.22446 0
M  V30 6196 C 1059.37 -5.62629 5.96531 0
M  V30 6197 O 1059.76 -6.87667 5.41053 0
M  V30 6198 C 1060.25 -4.52537 5.39283 0
M  V30 6199 C 1059.54 -4.20027 4.08623 0
M  V30 6200 N 1059.59 -2.76189 3.71603 0
M  V30 6201 H 1056.75 -4.797 7.24003 0
M  V30 6202 H 1056.48 -3.69856 5.84513 0
M  V30 6203 H 1057.35 -6.10356 5.41441 0
M  V30 6204 P 1061.31 -7.20834 5.23717 0
M  V30 6205 O 1061.53 -8.66274 5.38678 0
M  V30 6206 O 1062.1 -6.33687 6.13629 0
M  V30 6207 O 1061.56 -6.7751 3.72168 0
M  V30 6208 C 1060.62 -7.20919 2.70795 0
M  V30 6209 C 1061.35 -7.45864 1.40599 0
M  V30 6210 O 1061.56 -6.17751 0.734343 0
M  V30 6211 C 1062.75 -8.05906 1.51917 0
M  V30 6212 O 1063.14 -8.74358 0.335205 0
M  V30 6213 C 1063.63 -6.83093 1.70294 0
M  V30 6214 C 1062.92 -5.79992 0.836974 0
M  V30 6215 N 1062.97 -4.41864 1.38293 0
M  V30 6216 H 1060.14 -8.13738 3.03804 0
M  V30 6217 H 1059.86 -6.42974 2.55559 0
M  V30 6218 H 1060.73 -8.12139 0.792866 0
M  V30 6219 H 1063.39 -5.80178 -0.160643 0
M  V30 6220 H 1063.67 -6.51379 2.75643 0
M  V30 6221 H 1064.66 -7.01832 1.3448 0
M  V30 6222 H 1062.82 -8.73771 2.38364 0
M  V30 6223 P 1064.69 -8.91 -8.12982e-12 0
M  V30 6224 O 1064.91 -10.1726 -0.733694 0
M  V30 6225 O 1065.48 -8.73148 1.23936 0
M  V30 6226 O 1064.94 -7.66872 -0.971405 0
M  V30 6227 C 1064 -7.42309 -2.04641 0
M  V30 6228 C 1064.73 -6.86059 -3.24661 0
M  V30 6229 O 1064.94 -5.42847 -3.03646 0
M  V30 6230 C 1066.13 -7.41196 -3.50753 0
M  V30 6231 O 1066.52 -7.27073 -4.86816 0
M  V30 6232 C 1067.01 -6.5273 -2.63741 0
M  V30 6233 C 1066.3 -5.1842 -2.73198 0
M  V30 6234 N 1066.35 -4.38762 -1.4784 0
M  V30 6235 H 1063.51 -8.36803 -2.32493 0
M  V30 6236 H 1063.24 -6.70197 -1.71129 0
M  V30 6237 H 1064.11 -7.03551 -4.13168 0
M  V30 6238 P 1068.07 -7.20834 -5.23717 0
M  V30 6239 O 1068.29 -7.79853 -6.57286 0
M  V30 6240 O 1068.86 -7.79239 -4.12957 0
M  V30 6241 O 1068.32 -5.63315 -5.29344 0
M  V30 6242 C 1067.38 -4.80255 -6.01876 0
M  V30 6243 C 1068.11 -3.64202 -6.65911 0
M  V30 6244 O 1068.32 -2.60694 -5.64732 0
M  V30 6245 C 1069.51 -3.93473 -7.1943 0
M  V30 6246 O 1069.9 -3.02071 -8.21205 0
M  V30 6247 C 1070.39 -3.73047 -5.97036 0
M  V30 6248 C 1069.68 -2.58828 -5.25741 0
M  V30 6249 N 1069.73 -2.68068 -3.77503 0
M  V30 6250 H 1066.89 -5.40332 -6.79951 0
M  V30 6251 H 1066.62 -4.41613 -5.32378 0
M  V30 6252 H 1067.49 -3.26331 -7.47797 0
M  V30 6253 P 1071.45 -2.75334 -8.47391 0
M  V30 6254 O 1071.67 -2.44571 -9.90142 0
M  V30 6255 O 1072.24 -3.87688 -7.92115 0
M  V30 6256 O 1071.7 -1.4459 -7.59357 0
M  V30 6257 C 1070.76 -0.347608 -7.69215 0
M  V30 6258 C 1071.49 0.96767 -7.52806 0
M  V30 6259 O 1071.7 1.21036 -6.1011 0
M  V30 6260 C 1072.89 1.04544 -8.13308 0
M  V30 6261 O 1073.28 2.38311 -8.41922 0
M  V30 6262 C 1073.77 0.491279 -7.02284 0
M  V30 6263 C 1073.06 0.996264 -5.77469 0
M  V30 6264 N 1073.11 0.0501916 -4.62973 0
M  V30 6265 C 1073.03 -1.32786 -4.63244 0
M  V30 6266 N 1073.11 -1.86957 -3.44545 0
M  V30 6267 C 1073.25 -0.780241 -2.58481 0
M  V30 6268 C 1073.38 -0.738536 -1.17757 0
M  V30 6269 O 1073.4 -1.66794 -0.372349 0
M  V30 6270 N 1073.5 0.58337 -0.711393 0
M  V30 6271 C 1073.5 1.70816 -1.51017 0
M  V30 6272 N 1073.63 2.87826 -0.880757 0
M  V30 6273 N 1073.37 1.67126 -2.8339 0
M  V30 6274 C 1073.25 0.401421 -3.30572 0
M  V30 6275 H 1070.27 -0.374722 -8.67691 0
M  V30 6276 H 1070 -0.443485 -6.90277 0
M  V30 6277 H 1070.87 1.75537 -7.96793 0
M  V30 6278 H 1073.53 1.95076 -5.46529 0
M  V30 6279 H 1073.81 -0.608565 -7.04577 0
M  V30 6280 H 1074.8 0.889672 -7.08939 0
M  V30 6281 H 1072.96 0.43308 -9.04564 0
M  V30 6282 H 1072.91 -1.91249 -5.54442 0
M  V30 6283 H 1073.6 0.718054 0.275244 0
M  V30 6284 H 1073.63 3.75721 -1.41832 0
M  V30 6285 H 1073.73 2.90436 0.145468 0
M  V30 6286 P 1074.83 2.75334 -8.47391 0
M  V30 6287 O 1075.05 3.84128 -9.44797 0
M  V30 6288 O 1075.62 1.51947 -8.68712 0
M  V30 6289 O 1075.08 3.29363 -6.99321 0
M  V30 6290 C 1074.14 4.24011 -6.4274 0
M  V30 6291 C 1074.87 5.20775 -5.52155 0
M  V30 6292 O 1075.08 4.56534 -4.22446 0
M  V30 6293 C 1076.27 5.62629 -5.96531 0
M  V30 6294 O 1076.66 6.87667 -5.41053 0
M  V30 6295 C 1077.15 4.52537 -5.39283 0
M  V30 6296 C 1076.44 4.20027 -4.08623 0
M  V30 6297 N 1076.49 2.76189 -3.71603 0
M  V30 6298 H 1073.65 4.797 -7.24003 0
M  V30 6299 H 1073.38 3.69856 -5.84513 0
M  V30 6300 H 1074.25 6.10356 -5.41441 0
M  V30 6301 P 1078.21 7.20834 -5.23717 0
M  V30 6302 O 1078.43 8.66104 -5.38572 0
M  V30 6303 O 1079 6.33544 -6.1349 0
M  V30 6304 O 1078.46 6.7751 -3.72168 0
M  V30 6305 C 1077.52 7.20825 -2.7076 0
M  V30 6306 C 1078.25 7.45864 -1.40599 0
M  V30 6307 O 1078.46 6.17651 -0.734225 0
M  V30 6308 C 1079.65 8.05808 -1.51899 0
M  V30 6309 O 1080.04 8.74358 -0.335205 0
M  V30 6310 C 1080.53 6.83093 -1.70294 0
M  V30 6311 C 1079.82 5.79992 -0.836974 0
M  V30 6312 N 1079.87 4.41864 -1.38293 0
M  V30 6313 H 1077.03 8.13644 -3.0377 0
M  V30 6314 H 1076.76 6.42788 -2.55485 0
M  V30 6315 H 1077.63 8.12039 -0.792769 0
M  V30 6316 P 1081.59 8.91 8.287e-12 0
M  V30 6317 O 1081.81 10.1726 0.733694 0
M  V30 6318 O 1082.38 8.73148 -1.23936 0
M  V30 6319 O 1081.84 7.66872 0.971405 0
M  V30 6320 C 1080.9 7.42309 2.04641 0
M  V30 6321 C 1081.63 6.86059 3.24661 0
M  V30 6322 O 1081.84 5.42847 3.03646 0
M  V30 6323 C 1083.03 7.41196 3.50753 0
M  V30 6324 O 1083.42 7.27073 4.86816 0
M  V30 6325 C 1083.91 6.5273 2.63741 0
M  V30 6326 C 1083.2 5.1842 2.73198 0
M  V30 6327 N 1083.25 4.38762 1.4784 0
M  V30 6328 H 1080.41 8.36803 2.32493 0
M  V30 6329 H 1080.14 6.70197 1.71129 0
M  V30 6330 H 1081.01 7.03551 4.13168 0
M  V30 6331 P 1084.97 7.20834 5.23717 0
M  V30 6332 O 1085.19 7.79853 6.57286 0
M  V30 6333 O 1085.76 7.79239 4.12957 0
M  V30 6334 O 1085.22 5.63315 5.29344 0
M  V30 6335 C 1084.28 4.80255 6.01876 0
M  V30 6336 C 1085.01 3.64202 6.65911 0
M  V30 6337 O 1085.22 2.60694 5.64732 0
M  V30 6338 C 1086.41 3.93473 7.1943 0
M  V30 6339 O 1086.8 3.02071 8.21205 0
M  V30 6340 C 1087.29 3.73047 5.97036 0
M  V30 6341 C 1086.58 2.58828 5.25741 0
M  V30 6342 N 1086.63 2.68068 3.77503 0
M  V30 6343 H 1083.79 5.40332 6.79951 0
M  V30 6344 H 1083.52 4.41613 5.32378 0
M  V30 6345 H 1084.39 3.26331 7.47797 0
M  V30 6346 P 1088.35 2.75334 8.47391 0
M  V30 6347 O 1088.57 2.44595 9.90239 0
M  V30 6348 O 1089.14 3.87732 7.92204 0
M  V30 6349 O 1088.6 1.4459 7.59357 0
M  V30 6350 C 1087.66 0.347563 7.69115 0
M  V30 6351 C 1088.39 -0.96767 7.52806 0
M  V30 6352 O 1088.6 -1.21036 6.1011 0
M  V30 6353 C 1089.79 -1.04544 8.13308 0
M  V30 6354 O 1090.18 -2.38311 8.41922 0
M  V30 6355 C 1090.67 -0.491279 7.02284 0
M  V30 6356 C 1089.96 -0.996264 5.77469 0
M  V30 6357 N 1090.01 -0.0501808 4.62873 0
M  V30 6358 C 1090.16 -0.588177 3.36904 0
M  V30 6359 O 1090.25 -1.78598 3.17173 0
M  V30 6360 N 1090.2 0.329694 2.33686 0
M  V30 6361 C 1090.11 1.6953 2.45079 0
M  V30 6362 C 1089.96 2.16933 3.80505 0
M  V30 6363 C 1089.91 1.30326 4.83752 0
M  V30 6364 H 1087.17 0.374722 8.67691 0
M  V30 6365 H 1086.9 0.443421 6.90177 0
M  V30 6366 H 1087.77 -1.75537 7.96793 0
M  V30 6367 H 1090.43 -1.94496 5.46629 0
M  V30 6368 H 1090.71 0.608651 7.04676 0
M  V30 6369 H 1091.7 -0.889672 7.08939 0
M  V30 6370 H 1089.86 -0.43308 9.04564 0
M  V30 6371 H 1089.79 1.68366 5.8516 0
M  V30 6372 P 1091.73 -2.75334 8.47391 0
M  V30 6373 O 1091.95 -3.84128 9.44797 0
M  V30 6374 O 1092.52 -1.51947 8.68712 0
M  V30 6375 O 1091.98 -3.29363 6.99321 0
M  V30 6376 C 1091.04 -4.24011 6.4274 0
M  V30 6377 C 1091.77 -5.20775 5.52155 0
M  V30 6378 O 1091.98 -4.56534 4.22446 0
M  V30 6379 C 1093.17 -5.62629 5.96531 0
M  V30 6380 O 1093.56 -6.87667 5.41053 0
M  V30 6381 C 1094.05 -4.52537 5.39283 0
M  V30 6382 C 1093.34 -4.20027 4.08623 0
M  V30 6383 N 1093.39 -2.76189 3.71603 0
M  V30 6384 H 1090.55 -4.797 7.24003 0
M  V30 6385 H 1090.28 -3.69856 5.84513 0
M  V30 6386 H 1091.15 -6.10356 5.41441 0
M  V30 6387 P 1095.11 -7.20834 5.23717 0
M  V30 6388 O 1095.33 -8.66104 5.38572 0
M  V30 6389 O 1095.9 -6.33544 6.1349 0
M  V30 6390 O 1095.36 -6.7751 3.72168 0
M  V30 6391 C 1094.42 -7.20825 2.7076 0
M  V30 6392 C 1095.15 -7.45864 1.40599 0
M  V30 6393 O 1095.36 -6.17651 0.734225 0
M  V30 6394 C 1096.55 -8.05808 1.51899 0
M  V30 6395 O 1096.94 -8.74358 0.335205 0
M  V30 6396 C 1097.43 -6.83093 1.70294 0
M  V30 6397 C 1096.72 -5.79992 0.836974 0
M  V30 6398 N 1096.77 -4.41864 1.38293 0
M  V30 6399 H 1093.93 -8.13644 3.0377 0
M  V30 6400 H 1093.66 -6.42788 2.55485 0
M  V30 6401 H 1094.53 -8.12039 0.792769 0
M  V30 6402 P 1098.49 -8.91 -8.44418e-12 0
M  V30 6403 O 1098.71 -10.1726 -0.733694 0
M  V30 6404 O 1099.28 -8.73148 1.23936 0
M  V30 6405 O 1098.74 -7.66872 -0.971405 0
M  V30 6406 C 1097.8 -7.42309 -2.04641 0
M  V30 6407 C 1098.53 -6.86059 -3.24661 0
M  V30 6408 O 1098.74 -5.42847 -3.03646 0
M  V30 6409 C 1099.93 -7.41196 -3.50753 0
M  V30 6410 O 1100.32 -7.27073 -4.86816 0
M  V30 6411 C 1100.81 -6.5273 -2.63741 0
M  V30 6412 C 1100.1 -5.1842 -2.73198 0
M  V30 6413 N 1100.15 -4.38762 -1.4784 0
M  V30 6414 H 1097.31 -8.36803 -2.32493 0
M  V30 6415 H 1097.04 -6.70197 -1.71129 0
M  V30 6416 H 1097.91 -7.03551 -4.13168 0
M  V30 6417 P 1101.87 -7.20834 -5.23717 0
M  V30 6418 O 1102.09 -7.79853 -6.57286 0
M  V30 6419 O 1102.66 -7.79239 -4.12957 0
M  V30 6420 O 1102.12 -5.63315 -5.29344 0
M  V30 6421 C 1101.18 -4.80255 -6.01876 0
M  V30 6422 C 1101.91 -3.64202 -6.65911 0
M  V30 6423 O 1102.12 -2.60694 -5.64732 0
M  V30 6424 C 1103.31 -3.93473 -7.1943 0
M  V30 6425 O 1103.7 -3.02071 -8.21205 0
M  V30 6426 C 1104.19 -3.73047 -5.97036 0
M  V30 6427 C 1103.48 -2.58828 -5.25741 0
M  V30 6428 N 1103.53 -2.68068 -3.77503 0
M  V30 6429 H 1100.69 -5.40332 -6.79951 0
M  V30 6430 H 1100.42 -4.41613 -5.32378 0
M  V30 6431 H 1101.29 -3.26331 -7.47797 0
M  V30 6432 P 1105.25 -2.75334 -8.47391 0
M  V30 6433 O 1105.47 -2.44571 -9.90142 0
M  V30 6434 O 1106.04 -3.87688 -7.92115 0
M  V30 6435 O 1105.5 -1.4459 -7.59357 0
M  V30 6436 C 1104.56 -0.347608 -7.69215 0
M  V30 6437 C 1105.29 0.96767 -7.52806 0
M  V30 6438 O 1105.5 1.21036 -6.1011 0
M  V30 6439 C 1106.69 1.04544 -8.13308 0
M  V30 6440 O 1107.08 2.38311 -8.41922 0
M  V30 6441 C 1107.57 0.491279 -7.02284 0
M  V30 6442 C 1106.86 0.996264 -5.77469 0
M  V30 6443 N 1106.91 0.0501916 -4.62973 0
M  V30 6444 H 1104.07 -0.374722 -8.67691 0
M  V30 6445 H 1103.8 -0.443485 -6.90277 0
M  V30 6446 H 1104.67 1.75537 -7.96793 0
M  V30 6447 P 1108.63 2.75334 -8.47391 0
M  V30 6448 O 1108.85 3.84128 -9.44797 0
M  V30 6449 O 1109.42 1.51947 -8.68712 0
M  V30 6450 O 1108.88 3.29363 -6.99321 0
M  V30 6451 C 1107.94 4.24011 -6.4274 0
M  V30 6452 C 1108.67 5.20775 -5.52155 0
M  V30 6453 O 1108.88 4.56534 -4.22446 0
M  V30 6454 C 1110.07 5.62629 -5.96531 0
M  V30 6455 O 1110.46 6.87667 -5.41053 0
M  V30 6456 C 1110.95 4.52537 -5.39283 0
M  V30 6457 C 1110.24 4.20027 -4.08623 0
M  V30 6458 N 1110.29 2.76189 -3.71603 0
M  V30 6459 H 1107.45 4.797 -7.24003 0
M  V30 6460 H 1107.18 3.69856 -5.84513 0
M  V30 6461 H 1108.05 6.10356 -5.41441 0
M  V30 6462 P 1112.01 7.20834 -5.23717 0
M  V30 6463 O 1112.23 8.66274 -5.38678 0
M  V30 6464 O 1112.8 6.33687 -6.13629 0
M  V30 6465 O 1112.26 6.7751 -3.72168 0
M  V30 6466 C 1111.32 7.20919 -2.70795 0
M  V30 6467 C 1112.05 7.45864 -1.40599 0
M  V30 6468 O 1112.26 6.17751 -0.734343 0
M  V30 6469 C 1113.45 8.05906 -1.51917 0
M  V30 6470 O 1113.84 8.74358 -0.335205 0
M  V30 6471 C 1114.33 6.83093 -1.70294 0
M  V30 6472 C 1113.62 5.79992 -0.836974 0
M  V30 6473 N 1113.67 4.41864 -1.38293 0
M  V30 6474 C 1113.59 4.02089 -2.69407 0
M  V30 6475 N 1113.66 2.73403 -2.85089 0
M  V30 6476 C 1113.81 2.25086 -1.5642 0
M  V30 6477 C 1113.94 0.942887 -1.04836 0
M  V30 6478 N 1113.95 -0.150999 -1.80369 0
M  V30 6479 N 1114.06 0.812565 0.28167 0
M  V30 6480 C 1114.05 1.90572 1.03784 0
M  V30 6481 N 1113.93 3.167 0.683905 0
M  V30 6482 C 1113.81 3.26538 -0.652815 0
M  V30 6483 H 1110.84 8.13738 -3.03804 0
M  V30 6484 H 1110.56 6.42974 -2.55559 0
M  V30 6485 H 1111.43 8.12139 -0.792866 0
M  V30 6486 H 1114.09 5.80178 0.160643 0
M  V30 6487 H 1114.37 6.51379 -2.75643 0
M  V30 6488 H 1115.36 7.01832 -1.3448 0
M  V30 6489 H 1113.52 8.73771 -2.38364 0
M  V30 6490 H 1113.48 4.7189 -3.52311 0
M  V30 6491 H 1113.86 -0.0721434 -2.82608 0
M  V30 6492 H 1114.05 -1.0785 -1.36544 0
M  V30 6493 H 1114.16 1.73207 2.10241 0
M  V30 6494 P 1115.39 8.91 8.60137e-12 0
M  V30 6495 O 1115.61 10.1726 0.733694 0
M  V30 6496 O 1116.18 8.73148 -1.23936 0
M  V30 6497 O 1115.64 7.66872 0.971405 0
M  V30 6498 C 1114.7 7.42309 2.04641 0
M  V30 6499 C 1115.43 6.86059 3.24661 0
M  V30 6500 O 1115.64 5.42847 3.03646 0
M  V30 6501 C 1116.83 7.41196 3.50753 0
M  V30 6502 O 1117.22 7.27073 4.86816 0
M  V30 6503 C 1117.71 6.5273 2.63741 0
M  V30 6504 C 1117 5.1842 2.73198 0
M  V30 6505 N 1117.05 4.38762 1.4784 0
M  V30 6506 H 1114.21 8.36803 2.32493 0
M  V30 6507 H 1113.94 6.70197 1.71129 0
M  V30 6508 H 1114.81 7.03551 4.13168 0
M  V30 6509 P 1118.77 7.20834 5.23717 0
M  V30 6510 O 1118.99 7.79853 6.57286 0
M  V30 6511 O 1119.56 7.79239 4.12957 0
M  V30 6512 O 1119.02 5.63315 5.29344 0
M  V30 6513 C 1118.08 4.80255 6.01876 0
M  V30 6514 C 1118.81 3.64202 6.65911 0
M  V30 6515 O 1119.02 2.60694 5.64732 0
M  V30 6516 C 1120.21 3.93473 7.1943 0
M  V30 6517 O 1120.6 3.02071 8.21205 0
M  V30 6518 C 1121.09 3.73047 5.97036 0
M  V30 6519 C 1120.38 2.58828 5.25741 0
M  V30 6520 N 1120.43 2.68068 3.77503 0
M  V30 6521 H 1117.59 5.40332 6.79951 0
M  V30 6522 H 1117.32 4.41613 5.32378 0
M  V30 6523 H 1118.19 3.26331 7.47797 0
M  V30 6524 P 1122.15 2.75334 8.47391 0
M  V30 6525 O 1122.37 2.44595 9.90239 0
M  V30 6526 O 1122.94 3.87732 7.92204 0
M  V30 6527 O 1122.4 1.4459 7.59357 0
M  V30 6528 C 1121.46 0.347608 7.69215 0
M  V30 6529 C 1122.19 -0.96767 7.52806 0
M  V30 6530 O 1122.4 -1.21036 6.1011 0
M  V30 6531 C 1123.59 -1.04544 8.13308 0
M  V30 6532 O 1123.98 -2.38311 8.41922 0
M  V30 6533 C 1124.47 -0.491279 7.02284 0
M  V30 6534 C 1123.76 -0.996264 5.77469 0
M  V30 6535 N 1123.81 -0.0501808 4.62873 0
M  V30 6536 C 1123.96 -0.578037 3.3505 0
M  V30 6537 O 1124.05 -1.8073 3.21711 0
M  V30 6538 N 1124.01 0.468541 2.263 0
M  V30 6539 C 1123.91 1.59186 2.47176 0
M  V30 6540 N 1123.96 2.37626 1.40392 0
M  V30 6541 C 1123.76 2.16203 3.77467 0
M  V30 6542 C 1123.71 1.29324 4.8195 0
M  V30 6543 H 1120.97 0.374679 8.67591 0
M  V30 6544 H 1120.7 0.443421 6.90177 0
M  V30 6545 H 1121.57 -1.75559 7.96891 0
M  V30 6546 H 1124.23 -1.94529 5.46723 0
M  V30 6547 H 1124.51 0.608651 7.04676 0
M  V30 6548 H 1125.5 -0.889672 7.08939 0
M  V30 6549 H 1123.66 -0.43308 9.04564 0
M  V30 6550 H 1123.59 1.67758 5.83046 0
M  V30 6551 H 1123.69 3.23869 3.92281 0
M  V30 6552 H 1124.08 1.96317 0.467202 0
M  V30 6553 H 1123.88 3.39693 1.51142 0
M  V30 6554 P 1125.53 -2.75334 8.47391 0
M  V30 6555 O 1125.75 -3.84128 9.44797 0
M  V30 6556 O 1126.32 -1.51947 8.68712 0
M  V30 6557 O 1125.78 -3.29363 6.99321 0
M  V30 6558 C 1124.84 -4.24011 6.4274 0
M  V30 6559 C 1125.57 -5.20775 5.52155 0
M  V30 6560 O 1125.78 -4.56534 4.22446 0
M  V30 6561 C 1126.97 -5.62629 5.96531 0
M  V30 6562 O 1127.36 -6.87667 5.41053 0
M  V30 6563 C 1127.85 -4.52537 5.39283 0
M  V30 6564 C 1127.14 -4.20027 4.08623 0
M  V30 6565 N 1127.19 -2.76189 3.71603 0
M  V30 6566 H 1124.35 -4.797 7.24003 0
M  V30 6567 H 1124.08 -3.69856 5.84513 0
M  V30 6568 H 1124.95 -6.10356 5.41441 0
M  V30 6569 P 1128.91 -7.20834 5.23717 0
M  V30 6570 O 1129.13 -8.66104 5.38572 0
M  V30 6571 O 1129.7 -6.33544 6.1349 0
M  V30 6572 O 1129.16 -6.7751 3.72168 0
M  V30 6573 C 1128.22 -7.20825 2.7076 0
M  V30 6574 C 1128.95 -7.45864 1.40599 0
M  V30 6575 O 1129.16 -6.17651 0.734225 0
M  V30 6576 C 1130.35 -8.05808 1.51899 0
M  V30 6577 O 1130.74 -8.74358 0.335205 0
M  V30 6578 C 1131.23 -6.83093 1.70294 0
M  V30 6579 C 1130.52 -5.79992 0.836974 0
M  V30 6580 N 1130.57 -4.41864 1.38293 0
M  V30 6581 H 1127.73 -8.13644 3.0377 0
M  V30 6582 H 1127.46 -6.42788 2.55485 0
M  V30 6583 H 1128.33 -8.12039 0.792769 0
M  V30 6584 P 1132.29 -8.91 -8.75855e-12 0
M  V30 6585 O 1132.51 -10.1726 -0.733694 0
M  V30 6586 O 1133.08 -8.73148 1.23936 0
M  V30 6587 O 1132.54 -7.66872 -0.971405 0
M  V30 6588 C 1131.6 -7.42309 -2.04641 0
M  V30 6589 C 1132.33 -6.86059 -3.24661 0
M  V30 6590 O 1132.54 -5.42847 -3.03646 0
M  V30 6591 C 1133.73 -7.41196 -3.50753 0
M  V30 6592 O 1134.12 -7.27073 -4.86816 0
M  V30 6593 C 1134.61 -6.5273 -2.63741 0
M  V30 6594 C 1133.9 -5.1842 -2.73198 0
M  V30 6595 N 1133.95 -4.38762 -1.4784 0
M  V30 6596 H 1131.11 -8.36803 -2.32493 0
M  V30 6597 H 1130.84 -6.70197 -1.71129 0
M  V30 6598 H 1131.71 -7.03551 -4.13168 0
M  V30 6599 P 1135.67 -7.20834 -5.23717 0
M  V30 6600 O 1135.89 -7.79853 -6.57286 0
M  V30 6601 O 1136.46 -7.79239 -4.12957 0
M  V30 6602 O 1135.92 -5.63315 -5.29344 0
M  V30 6603 C 1134.98 -4.80255 -6.01876 0
M  V30 6604 C 1135.71 -3.64202 -6.65911 0
M  V30 6605 O 1135.92 -2.60694 -5.64732 0
M  V30 6606 C 1137.11 -3.93473 -7.1943 0
M  V30 6607 O 1137.5 -3.02071 -8.21205 0
M  V30 6608 C 1137.99 -3.73047 -5.97036 0
M  V30 6609 C 1137.28 -2.58828 -5.25741 0
M  V30 6610 N 1137.33 -2.68068 -3.77503 0
M  V30 6611 C 1137.25 -3.79715 -2.96723 0
M  V30 6612 N 1137.33 -3.5377 -1.68852 0
M  V30 6613 C 1137.47 -2.15054 -1.63254 0
M  V30 6614 C 1137.6 -1.28964 -0.518571 0
M  V30 6615 N 1137.72 0.0538097 -0.918425 0
M  V30 6616 C 1137.72 0.494275 -2.22578 0
M  V30 6617 N 1137.85 1.81086 -2.40434 0
M  V30 6618 N 1137.59 -0.313645 -3.27502 0
M  V30 6619 C 1137.47 -1.61829 -2.91033 0
M  V30 6620 H 1134.49 -5.40332 -6.79951 0
M  V30 6621 H 1134.22 -4.41613 -5.32378 0
M  V30 6622 H 1135.09 -3.26331 -7.47797 0
M  V30 6623 P 1139.05 -2.75334 -8.47391 0
M  V30 6624 O 1139.27 -2.44619 -9.90336 0
M  V30 6625 O 1139.84 -3.87776 -7.92294 0
M  V30 6626 O 1139.3 -1.4459 -7.59357 0
M  V30 6627 C 1138.36 -0.347653 -7.69315 0
M  V30 6628 C 1139.09 0.96767 -7.52806 0
M  V30 6629 O 1139.3 1.21055 -6.10208 0
M  V30 6630 C 1140.49 1.04557 -8.13408 0
M  V30 6631 O 1140.88 2.38311 -8.41922 0
M  V30 6632 C 1141.37 0.491279 -7.02284 0
M  V30 6633 C 1140.66 0.996264 -5.77469 0
M  V30 6634 N 1140.71 0.0501916 -4.62973 0
M  V30 6635 H 1137.88 -0.374765 -8.67791 0
M  V30 6636 H 1137.6 -0.443613 -6.90476 0
M  V30 6637 H 1138.47 1.75559 -7.96891 0
M  V30 6638 H 1141.13 1.94563 -5.46818 0
M  V30 6639 H 1141.41 -0.608651 -7.04676 0
M  V30 6640 H 1142.4 0.889796 -7.09039 0
M  V30 6641 H 1140.56 0.433128 -9.04664 0
M  V30 6642 P 1142.43 2.75334 -8.47391 0
M  V30 6643 O 1142.65 3.84204 -9.44982 0
M  V30 6644 O 1143.22 1.51982 -8.68909 0
M  V30 6645 O 1142.68 3.29363 -6.99321 0
M  V30 6646 C 1141.74 4.24066 -6.42823 0
M  V30 6647 C 1142.47 5.20775 -5.52155 0
M  V30 6648 O 1142.68 4.56607 -4.22514 0
M  V30 6649 C 1143.87 5.62697 -5.96604 0
M  V30 6650 O 1144.26 6.87667 -5.41053 0
M  V30 6651 C 1144.75 4.52537 -5.39283 0
M  V30 6652 C 1144.04 4.20027 -4.08623 0
M  V30 6653 N 1144.09 2.76189 -3.71603 0
M  V30 6654 H 1141.26 4.79756 -7.24086 0
M  V30 6655 H 1140.98 3.69963 -5.84682 0
M  V30 6656 H 1141.85 6.10431 -5.41508 0
M  V30 6657 H 1144.51 4.78816 -3.28024 0
M  V30 6658 H 1144.79 3.64957 -6.05871 0
M  V30 6659 H 1145.78 4.88748 -5.21323 0
M  V30 6660 H 1143.94 5.66789 -7.0643 0
M  V30 6661 P 1145.81 7.20834 -5.23717 0
M  V30 6662 O 1146.03 8.66104 -5.38572 0
M  V30 6663 O 1146.6 6.33544 -6.1349 0
M  V30 6664 O 1146.06 6.7751 -3.72168 0
M  V30 6665 C 1145.12 7.20825 -2.7076 0
M  V30 6666 C 1145.85 7.45864 -1.40599 0
M  V30 6667 O 1146.06 6.17651 -0.734225 0
M  V30 6668 C 1147.25 8.05808 -1.51899 0
M  V30 6669 O 1147.64 8.74358 -0.335205 0
M  V30 6670 C 1148.13 6.83093 -1.70294 0
M  V30 6671 C 1147.42 5.79992 -0.836974 0
M  V30 6672 N 1147.47 4.41864 -1.38293 0
M  V30 6673 H 1144.63 8.13644 -3.0377 0
M  V30 6674 H 1144.36 6.42788 -2.55485 0
M  V30 6675 H 1145.23 8.12039 -0.792769 0
M  V30 6676 P 1149.19 8.91 8.91573e-12 0
M  V30 6677 O 1149.41 10.1736 0.733766 0
M  V30 6678 O 1149.98 8.73247 -1.2395 0
M  V30 6679 O 1149.44 7.66872 0.971405 0
M  V30 6680 C 1148.5 7.42212 2.04614 0
M  V30 6681 C 1149.23 6.86059 3.24661 0
M  V30 6682 O 1149.44 5.42847 3.03646 0
M  V30 6683 C 1150.63 7.41196 3.50753 0
M  V30 6684 O 1151.02 7.27073 4.86816 0
M  V30 6685 C 1151.51 6.5273 2.63741 0
M  V30 6686 C 1150.8 5.1842 2.73198 0
M  V30 6687 N 1150.85 4.38668 1.47808 0
M  V30 6688 C 1151 3.02239 1.60048 0
M  V30 6689 O 1151.09 2.46459 2.67869 0
M  V30 6690 N 1151.04 2.32436 0.408571 0
M  V30 6691 C 1150.95 2.85471 -0.854993 0
M  V30 6692 O 1151 2.12566 -1.8531 0
M  V30 6693 C 1150.8 4.28918 -0.887335 0
M  V30 6694 C 1150.69 4.91066 -2.24619 0
M  V30 6695 C 1150.75 5.00349 0.255399 0
M  V30 6696 H 1148.01 8.36803 2.32493 0
M  V30 6697 H 1147.74 6.701 1.71105 0
M  V30 6698 H 1148.61 7.03551 4.13168 0
M  V30 6699 H 1151.27 4.59773 3.53894 0
M  V30 6700 H 1151.55 6.88995 1.59871 0
M  V30 6701 H 1152.54 6.46749 3.03687 0
M  V30 6702 H 1150.7 8.46908 3.20714 0
M  V30 6703 H 1150.63 6.08548 0.206986 0
M  V30 6704 H 1151.66 5.34836 -2.53099 0
M  V30 6705 H 1149.93 5.69638 -2.2291 0
M  V30 6706 H 1150.41 4.13971 -2.98044 0
M  V30 6707 H 1151.15 1.33211 0.474216 0
M  V30 6708 P 1152.57 7.20834 5.23717 0
M  V30 6709 O 1152.79 7.79853 6.57286 0
M  V30 6710 O 1153.36 7.79239 4.12957 0
M  V30 6711 O 1152.82 5.63315 5.29344 0
M  V30 6712 C 1151.88 4.80255 6.01876 0
M  V30 6713 C 1152.61 3.64202 6.65911 0
M  V30 6714 O 1152.82 2.60694 5.64732 0
M  V30 6715 C 1154.01 3.93473 7.1943 0
M  V30 6716 O 1154.4 3.02071 8.21205 0
M  V30 6717 C 1154.89 3.73047 5.97036 0
M  V30 6718 C 1154.18 2.58828 5.25741 0
M  V30 6719 N 1154.23 2.68068 3.77503 0
M  V30 6720 H 1151.39 5.40332 6.79951 0
M  V30 6721 H 1151.12 4.41613 5.32378 0
M  V30 6722 H 1151.99 3.26331 7.47797 0
M  V30 6723 P 1155.95 2.75334 8.47391 0
M  V30 6724 O 1156.17 2.44571 9.90142 0
M  V30 6725 O 1156.74 3.87688 7.92115 0
M  V30 6726 O 1156.2 1.4459 7.59357 0
M  V30 6727 C 1155.26 0.347608 7.69215 0
M  V30 6728 C 1155.99 -0.96767 7.52806 0
M  V30 6729 O 1156.2 -1.21036 6.1011 0
M  V30 6730 C 1157.39 -1.04544 8.13308 0
M  V30 6731 O 1157.78 -2.38311 8.41922 0
M  V30 6732 C 1158.27 -0.491279 7.02284 0
M  V30 6733 C 1157.56 -0.996264 5.77469 0
M  V30 6734 N 1157.61 -0.0501916 4.62973 0
M  V30 6735 H 1154.77 0.374722 8.67691 0
M  V30 6736 H 1154.5 0.443485 6.90277 0
M  V30 6737 H 1155.37 -1.75537 7.96793 0
M  V30 6738 P 1159.33 -2.75334 8.47391 0
M  V30 6739 O 1159.55 -3.84128 9.44797 0
M  V30 6740 O 1160.12 -1.51947 8.68712 0
M  V30 6741 O 1159.58 -3.29363 6.99321 0
M  V30 6742 C 1158.64 -4.24011 6.4274 0
M  V30 6743 C 1159.37 -5.20775 5.52155 0
M  V30 6744 O 1159.58 -4.56534 4.22446 0
M  V30 6745 C 1160.77 -5.62629 5.96531 0
M  V30 6746 O 1161.16 -6.87667 5.41053 0
M  V30 6747 C 1161.65 -4.52537 5.39283 0
M  V30 6748 C 1160.94 -4.20027 4.08623 0
M  V30 6749 N 1160.99 -2.76189 3.71603 0
M  V30 6750 H 1158.15 -4.797 7.24003 0
M  V30 6751 H 1157.88 -3.69856 5.84513 0
M  V30 6752 H 1158.75 -6.10356 5.41441 0
M  V30 6753 P 1162.71 -7.20834 5.23717 0
M  V30 6754 O 1162.93 -8.66104 5.38572 0
M  V30 6755 O 1163.5 -6.33544 6.1349 0
M  V30 6756 O 1162.96 -6.7751 3.72168 0
M  V30 6757 C 1162.02 -7.20825 2.7076 0
M  V30 6758 C 1162.75 -7.45864 1.40599 0
M  V30 6759 O 1162.96 -6.17651 0.734225 0
M  V30 6760 C 1164.15 -8.05808 1.51899 0
M  V30 6761 O 1164.54 -8.74358 0.335205 0
M  V30 6762 C 1165.03 -6.83093 1.70294 0
M  V30 6763 C 1164.32 -5.79992 0.836974 0
M  V30 6764 N 1164.37 -4.41864 1.38293 0
M  V30 6765 H 1161.53 -8.13644 3.0377 0
M  V30 6766 H 1161.26 -6.42788 2.55485 0
M  V30 6767 H 1162.13 -8.12039 0.792769 0
M  V30 6768 P 1166.09 -8.91 -9.07291e-12 0
M  V30 6769 O 1166.31 -10.1726 -0.733694 0
M  V30 6770 O 1166.88 -8.73148 1.23936 0
M  V30 6771 O 1166.34 -7.66872 -0.971405 0
M  V30 6772 C 1165.4 -7.42309 -2.04641 0
M  V30 6773 C 1166.13 -6.86059 -3.24661 0
M  V30 6774 O 1166.34 -5.42847 -3.03646 0
M  V30 6775 C 1167.53 -7.41196 -3.50753 0
M  V30 6776 O 1167.92 -7.27073 -4.86816 0
M  V30 6777 C 1168.41 -6.5273 -2.63741 0
M  V30 6778 C 1167.7 -5.1842 -2.73198 0
M  V30 6779 N 1167.75 -4.38762 -1.4784 0
M  V30 6780 H 1164.91 -8.36803 -2.32493 0
M  V30 6781 H 1164.64 -6.70197 -1.71129 0
M  V30 6782 H 1165.51 -7.03551 -4.13168 0
M  V30 6783 P 1169.47 -7.20834 -5.23717 0
M  V30 6784 O 1169.69 -7.79853 -6.57286 0
M  V30 6785 O 1170.26 -7.79239 -4.12957 0
M  V30 6786 O 1169.72 -5.63315 -5.29344 0
M  V30 6787 C 1168.78 -4.80255 -6.01876 0
M  V30 6788 C 1169.51 -3.64202 -6.65911 0
M  V30 6789 O 1169.72 -2.60694 -5.64732 0
M  V30 6790 C 1170.91 -3.93473 -7.1943 0
M  V30 6791 O 1171.3 -3.02071 -8.21205 0
M  V30 6792 C 1171.79 -3.73047 -5.97036 0
M  V30 6793 C 1171.08 -2.58828 -5.25741 0
M  V30 6794 N 1171.13 -2.68068 -3.77503 0
M  V30 6795 H 1168.29 -5.40332 -6.79951 0
M  V30 6796 H 1168.02 -4.41613 -5.32378 0
M  V30 6797 H 1168.89 -3.26331 -7.47797 0
M  V30 6798 P 1172.85 -2.75334 -8.47391 0
M  V30 6799 O 1173.07 -2.44571 -9.90142 0
M  V30 6800 O 1173.64 -3.87688 -7.92115 0
M  V30 6801 O 1173.1 -1.4459 -7.59357 0
M  V30 6802 C 1172.16 -0.347608 -7.69215 0
M  V30 6803 C 1172.89 0.96767 -7.52806 0
M  V30 6804 O 1173.1 1.21036 -6.1011 0
M  V30 6805 C 1174.29 1.04544 -8.13308 0
M  V30 6806 O 1174.68 2.38311 -8.41922 0
M  V30 6807 C 1175.17 0.491279 -7.02284 0
M  V30 6808 C 1174.46 0.996264 -5.77469 0
M  V30 6809 N 1174.51 0.0501916 -4.62973 0
M  V30 6810 H 1171.67 -0.374722 -8.67691 0
M  V30 6811 H 1171.4 -0.443485 -6.90277 0
M  V30 6812 H 1172.27 1.75537 -7.96793 0
M  V30 6813 P 1176.23 2.75334 -8.47391 0
M  V30 6814 O 1176.45 3.84128 -9.44797 0
M  V30 6815 O 1177.02 1.51947 -8.68712 0
M  V30 6816 O 1176.48 3.29363 -6.99321 0
M  V30 6817 C 1175.54 4.24011 -6.4274 0
M  V30 6818 C 1176.27 5.20775 -5.52155 0
M  V30 6819 O 1176.48 4.56534 -4.22446 0
M  V30 6820 C 1177.67 5.62629 -5.96531 0
M  V30 6821 O 1178.06 6.87667 -5.41053 0
M  V30 6822 C 1178.55 4.52537 -5.39283 0
M  V30 6823 C 1177.84 4.20027 -4.08623 0
M  V30 6824 N 1177.89 2.76189 -3.71603 0
M  V30 6825 H 1175.05 4.797 -7.24003 0
M  V30 6826 H 1174.78 3.69856 -5.84513 0
M  V30 6827 H 1175.65 6.10356 -5.41441 0
M  V30 6828 P 1179.61 7.20834 -5.23717 0
M  V30 6829 O 1179.83 8.66104 -5.38572 0
M  V30 6830 O 1180.4 6.33544 -6.1349 0
M  V30 6831 O 1179.86 6.7751 -3.72168 0
M  V30 6832 C 1178.92 7.20825 -2.7076 0
M  V30 6833 C 1179.65 7.45864 -1.40599 0
M  V30 6834 O 1179.86 6.17651 -0.734225 0
M  V30 6835 C 1181.05 8.05808 -1.51899 0
M  V30 6836 O 1181.44 8.74358 -0.335205 0
M  V30 6837 C 1181.93 6.83093 -1.70294 0
M  V30 6838 C 1181.22 5.79992 -0.836974 0
M  V30 6839 N 1181.27 4.41864 -1.38293 0
M  V30 6840 H 1178.43 8.13644 -3.0377 0
M  V30 6841 H 1178.16 6.42788 -2.55485 0
M  V30 6842 H 1179.03 8.12039 -0.792769 0
M  V30 6843 P 1182.99 8.91 9.23009e-12 0
M  V30 6844 O 1183.21 10.1726 0.733694 0
M  V30 6845 O 1183.78 8.73148 -1.23936 0
M  V30 6846 O 1183.24 7.66872 0.971405 0
M  V30 6847 C 1182.3 7.42309 2.04641 0
M  V30 6848 C 1183.03 6.86059 3.24661 0
M  V30 6849 O 1183.24 5.42847 3.03646 0
M  V30 6850 C 1184.43 7.41196 3.50753 0
M  V30 6851 O 1184.82 7.27073 4.86816 0
M  V30 6852 C 1185.31 6.5273 2.63741 0
M  V30 6853 C 1184.6 5.1842 2.73198 0
M  V30 6854 N 1184.65 4.38762 1.4784 0
M  V30 6855 H 1181.81 8.36803 2.32493 0
M  V30 6856 H 1181.54 6.70197 1.71129 0
M  V30 6857 H 1182.41 7.03551 4.13168 0
M  V30 6858 P 1186.37 7.20834 5.23717 0
M  V30 6859 O 1186.59 7.80006 6.57415 0
M  V30 6860 O 1187.16 7.79416 4.13051 0
M  V30 6861 O 1186.62 5.63315 5.29344 0
M  V30 6862 C 1185.68 4.80318 6.01954 0
M  V30 6863 C 1186.41 3.64202 6.65911 0
M  V30 6864 O 1186.62 2.60736 5.64823 0
M  V30 6865 C 1187.81 3.93521 7.19518 0
M  V30 6866 O 1188.2 3.02071 8.21205 0
M  V30 6867 C 1188.69 3.73047 5.97036 0
M  V30 6868 C 1187.98 2.58828 5.25741 0
M  V30 6869 N 1188.03 2.68068 3.77503 0
M  V30 6870 C 1187.95 3.80474 2.99159 0
M  V30 6871 N 1188.02 3.55622 1.71925 0
M  V30 6872 C 1188.17 2.1832 1.65733 0
M  V30 6873 C 1188.3 1.28842 0.572777 0
M  V30 6874 N 1188.31 1.66875 -0.70098 0
M  V30 6875 N 1188.42 -0.016788 0.859836 0
M  V30 6876 C 1188.41 -0.398145 2.13316 0
M  V30 6877 N 1188.29 0.328224 3.22333 0
M  V30 6878 C 1188.17 1.62992 2.90383 0
M  V30 6879 H 1185.19 5.40394 6.8003 0
M  V30 6880 H 1184.92 4.41741 5.32532 0
M  V30 6881 H 1185.79 3.26371 7.47889 0
M  V30 6882 H 1188.45 1.64007 5.56746 0
M  V30 6883 H 1188.73 4.63439 5.3432 0
M  V30 6884 H 1189.72 3.44776 6.25925 0
M  V30 6885 H 1187.88 4.96707 7.57347 0
M  V30 6886 H 1187.84 4.8089 3.39924 0
M  V30 6887 H 1188.22 2.66547 -0.941919 0
M  V30 6888 H 1188.41 0.965341 -1.44766 0
M  V30 6889 H 1188.52 -1.46427 2.29697 0
M  V30 6890 P 1189.75 2.75334 8.47391 0
M  V30 6891 O 1189.97 2.44619 9.90336 0
M  V30 6892 O 1190.54 3.87776 7.92294 0
M  V30 6893 O 1190 1.4459 7.59357 0
M  V30 6894 C 1189.06 0.347653 7.69315 0
M  V30 6895 C 1189.79 -0.96767 7.52806 0
M  V30 6896 O 1190 -1.21055 6.10208 0
M  V30 6897 C 1191.19 -1.04557 8.13408 0
M  V30 6898 O 1191.58 -2.38311 8.41922 0
M  V30 6899 C 1192.07 -0.491279 7.02284 0
M  V30 6900 C 1191.36 -0.996264 5.77469 0
M  V30 6901 N 1191.41 -0.0501916 4.62973 0
M  V30 6902 C 1191.33 1.31969 4.65661 0
M  V30 6903 N 1191.4 1.86649 3.48119 0
M  V30 6904 C 1191.55 0.792089 2.62406 0
M  V30 6905 C 1191.68 0.705684 1.2207 0
M  V30 6906 N 1191.69 1.76207 0.413762 0
M  V30 6907 N 1191.8 -0.518981 0.685754 0
M  V30 6908 C 1191.79 -1.57595 1.49174 0
M  V30 6909 N 1191.67 -1.62909 2.80066 0
M  V30 6910 C 1191.55 -0.388195 3.3073 0
M  V30 6911 H 1188.57 0.374765 8.67791 0
M  V30 6912 H 1188.3 0.443613 6.90476 0
M  V30 6913 H 1189.17 -1.75559 7.96891 0
M  V30 6914 H 1191.83 -1.94563 5.46818 0
M  V30 6915 H 1192.11 0.608651 7.04676 0
M  V30 6916 H 1193.1 -0.889796 7.09039 0
M  V30 6917 H 1191.26 -0.433128 9.04664 0
M  V30 6918 H 1191.22 1.89246 5.57664 0
M  V30 6919 H 1191.6 2.71005 0.804694 0
M  V30 6920 H 1191.79 1.63189 -0.603768 0
M  V30 6921 H 1191.9 -2.53475 0.997614 0
M  V30 6922 P 1193.13 -2.75334 8.47391 0
M  V30 6923 O 1193.35 -3.84128 9.44797 0
M  V30 6924 O 1193.92 -1.51947 8.68712 0
M  V30 6925 O 1193.38 -3.29363 6.99321 0
M  V30 6926 C 1192.44 -4.24011 6.4274 0
M  V30 6927 C 1193.17 -5.20775 5.52155 0
M  V30 6928 O 1193.38 -4.56534 4.22446 0
M  V30 6929 C 1194.57 -5.62629 5.96531 0
M  V30 6930 O 1194.96 -6.87667 5.41053 0
M  V30 6931 C 1195.45 -4.52537 5.39283 0
M  V30 6932 C 1194.74 -4.20027 4.08623 0
M  V30 6933 N 1194.79 -2.76189 3.71603 0
M  V30 6934 H 1191.95 -4.797 7.24003 0
M  V30 6935 H 1191.68 -3.69856 5.84513 0
M  V30 6936 H 1192.55 -6.10356 5.41441 0
M  V30 6937 P 1196.51 -7.20834 5.23717 0
M  V30 6938 O 1196.73 -8.66104 5.38572 0
M  V30 6939 O 1197.3 -6.33544 6.1349 0
M  V30 6940 O 1196.76 -6.7751 3.72168 0
M  V30 6941 C 1195.82 -7.20825 2.7076 0
M  V30 6942 C 1196.55 -7.45864 1.40599 0
M  V30 6943 O 1196.76 -6.17651 0.734225 0
M  V30 6944 C 1197.95 -8.05808 1.51899 0
M  V30 6945 O 1198.34 -8.74358 0.335205 0
M  V30 6946 C 1198.83 -6.83093 1.70294 0
M  V30 6947 C 1198.12 -5.79992 0.836974 0
M  V30 6948 N 1198.17 -4.41864 1.38293 0
M  V30 6949 H 1195.33 -8.13644 3.0377 0
M  V30 6950 H 1195.06 -6.42788 2.55485 0
M  V30 6951 H 1195.93 -8.12039 0.792769 0
M  V30 6952 P 1199.89 -8.91 -9.38728e-12 0
M  V30 6953 O 1200.11 -10.1726 -0.733694 0
M  V30 6954 O 1200.68 -8.73148 1.23936 0
M  V30 6955 O 1200.14 -7.66872 -0.971405 0
M  V30 6956 C 1199.2 -7.42309 -2.04641 0
M  V30 6957 C 1199.93 -6.86059 -3.24661 0
M  V30 6958 O 1200.14 -5.42847 -3.03646 0
M  V30 6959 C 1201.33 -7.41196 -3.50753 0
M  V30 6960 O 1201.72 -7.27073 -4.86816 0
M  V30 6961 C 1202.21 -6.5273 -2.63741 0
M  V30 6962 C 1201.5 -5.1842 -2.73198 0
M  V30 6963 N 1201.55 -4.38762 -1.4784 0
M  V30 6964 H 1198.71 -8.36803 -2.32493 0
M  V30 6965 H 1198.44 -6.70197 -1.71129 0
M  V30 6966 H 1199.31 -7.03551 -4.13168 0
M  V30 6967 P 1203.27 -7.20834 -5.23717 0
M  V30 6968 O 1203.49 -7.80006 -6.57415 0
M  V30 6969 O 1204.06 -7.79416 -4.13051 0
M  V30 6970 O 1203.52 -5.63315 -5.29344 0
M  V30 6971 C 1202.58 -4.80318 -6.01954 0
M  V30 6972 C 1203.31 -3.64202 -6.65911 0
M  V30 6973 O 1203.52 -2.60736 -5.64823 0
M  V30 6974 C 1204.71 -3.93521 -7.19518 0
M  V30 6975 O 1205.1 -3.02071 -8.21205 0
M  V30 6976 C 1205.59 -3.73047 -5.97036 0
M  V30 6977 C 1204.88 -2.58828 -5.25741 0
M  V30 6978 N 1204.93 -2.68068 -3.77503 0
M  V30 6979 C 1204.85 -3.80474 -2.99159 0
M  V30 6980 N 1204.92 -3.55622 -1.71925 0
M  V30 6981 C 1205.07 -2.1832 -1.65733 0
M  V30 6982 C 1205.2 -1.28842 -0.572777 0
M  V30 6983 N 1205.21 -1.66875 0.70098 0
M  V30 6984 N 1205.32 0.016788 -0.859836 0
M  V30 6985 C 1205.31 0.398145 -2.13316 0
M  V30 6986 N 1205.19 -0.328224 -3.22333 0
M  V30 6987 C 1205.07 -1.62992 -2.90383 0
M  V30 6988 H 1202.09 -5.40394 -6.8003 0
M  V30 6989 H 1201.82 -4.41741 -5.32532 0
M  V30 6990 H 1202.69 -3.26371 -7.47889 0
M  V30 6991 H 1205.35 -1.64007 -5.56746 0
M  V30 6992 H 1205.63 -4.63439 -5.3432 0
M  V30 6993 H 1206.62 -3.44776 -6.25925 0
M  V30 6994 H 1204.78 -4.96707 -7.57347 0
M  V30 6995 H 1204.74 -4.8089 -3.39924 0
M  V30 6996 H 1205.12 -2.66547 0.941919 0
M  V30 6997 H 1205.31 -0.965341 1.44766 0
M  V30 6998 H 1205.42 1.46427 -2.29697 0
M  V30 6999 P 1206.65 -2.75334 -8.47391 0
M  V30 7000 O 1206.87 -2.44619 -9.90336 0
M  V30 7001 O 1207.44 -3.87776 -7.92294 0
M  V30 7002 O 1206.9 -1.4459 -7.59357 0
M  V30 7003 C 1205.96 -0.347653 -7.69315 0
M  V30 7004 C 1206.69 0.96767 -7.52806 0
M  V30 7005 O 1206.9 1.21055 -6.10208 0
M  V30 7006 C 1208.09 1.04557 -8.13408 0
M  V30 7007 O 1208.48 2.38311 -8.41922 0
M  V30 7008 C 1208.97 0.491279 -7.02284 0
M  V30 7009 C 1208.26 0.996264 -5.77469 0
M  V30 7010 N 1208.31 0.0501916 -4.62973 0
M  V30 7011 C 1208.23 -1.31969 -4.65661 0
M  V30 7012 N 1208.3 -1.86649 -3.48119 0
M  V30 7013 C 1208.45 -0.792089 -2.62406 0
M  V30 7014 C 1208.58 -0.705684 -1.2207 0
M  V30 7015 N 1208.59 -1.76207 -0.413762 0
M  V30 7016 N 1208.7 0.518981 -0.685754 0
M  V30 7017 C 1208.69 1.57595 -1.49174 0
M  V30 7018 N 1208.57 1.62909 -2.80066 0
M  V30 7019 C 1208.45 0.388195 -3.3073 0
M  V30 7020 H 1205.47 -0.374765 -8.67791 0
M  V30 7021 H 1205.2 -0.443613 -6.90476 0
M  V30 7022 H 1206.07 1.75559 -7.96891 0
M  V30 7023 H 1208.73 1.94563 -5.46818 0
M  V30 7024 H 1209.01 -0.608651 -7.04676 0
M  V30 7025 H 1210 0.889796 -7.09039 0
M  V30 7026 H 1208.16 0.433128 -9.04664 0
M  V30 7027 H 1208.12 -1.89246 -5.57664 0
M  V30 7028 H 1208.5 -2.71005 -0.804694 0
M  V30 7029 H 1208.69 -1.63189 0.603768 0
M  V30 7030 H 1208.8 2.53475 -0.997614 0
M  V30 7031 P 1210.03 2.75334 -8.47391 0
M  V30 7032 O 1210.25 3.84166 -9.4489 0
M  V30 7033 O 1210.82 1.51964 -8.6881 0
M  V30 7034 O 1210.28 3.29363 -6.99321 0
M  V30 7035 C 1209.34 4.23956 -6.42656 0
M  V30 7036 C 1210.07 5.20775 -5.52155 0
M  V30 7037 O 1210.28 4.56534 -4.22446 0
M  V30 7038 C 1211.47 5.62629 -5.96531 0
M  V30 7039 O 1211.86 6.87667 -5.41053 0
M  V30 7040 C 1212.35 4.52537 -5.39283 0
M  V30 7041 C 1211.64 4.20027 -4.08623 0
M  V30 7042 N 1211.69 2.7613 -3.71522 0
M  V30 7043 C 1211.84 2.45612 -2.37989 0
M  V30 7044 O 1211.93 3.30919 -1.51621 0
M  V30 7045 N 1211.88 1.10684 -2.08435 0
M  V30 7046 C 1211.79 0.0690084 -2.9792 0
M  V30 7047 C 1211.64 0.481522 -4.35345 0
M  V30 7048 C 1211.59 1.78906 -4.67968 0
M  V30 7049 H 1208.85 4.797 -7.24003 0
M  V30 7050 H 1208.58 3.69802 -5.84429 0
M  V30 7051 H 1209.45 6.10356 -5.41441 0
M  V30 7052 H 1212.11 4.78651 -3.27911 0
M  V30 7053 H 1212.38 3.64957 -6.05871 0
M  V30 7054 H 1213.38 4.8868 -5.2125 0
M  V30 7055 H 1211.54 5.66726 -7.06352 0
M  V30 7056 H 1211.47 2.07737 -5.72367 0
M  V30 7057 P 1213.41 7.20834 -5.23717 0
M  V30 7058 O 1213.63 8.66104 -5.38572 0
M  V30 7059 O 1214.2 6.33544 -6.1349 0
M  V30 7060 O 1213.66 6.7751 -3.72168 0
M  V30 7061 C 1212.72 7.20825 -2.7076 0
M  V30 7062 C 1213.45 7.45864 -1.40599 0
M  V30 7063 O 1213.66 6.17651 -0.734225 0
M  V30 7064 C 1214.85 8.05808 -1.51899 0
M  V30 7065 O 1215.24 8.74358 -0.335205 0
M  V30 7066 C 1215.73 6.83093 -1.70294 0
M  V30 7067 C 1215.02 5.79992 -0.836974 0
M  V30 7068 N 1215.07 4.41864 -1.38293 0
M  V30 7069 H 1212.23 8.13644 -3.0377 0
M  V30 7070 H 1211.96 6.42788 -2.55485 0
M  V30 7071 H 1212.83 8.12039 -0.792769 0
M  V30 7072 P 1216.79 8.91 9.54446e-12 0
M  V30 7073 O 1217.01 10.1726 0.733694 0
M  V30 7074 O 1217.58 8.73148 -1.23936 0
M  V30 7075 O 1217.04 7.66872 0.971405 0
M  V30 7076 C 1216.1 7.42309 2.04641 0
M  V30 7077 C 1216.83 6.86059 3.24661 0
M  V30 7078 O 1217.04 5.42847 3.03646 0
M  V30 7079 C 1218.23 7.41196 3.50753 0
M  V30 7080 O 1218.62 7.27073 4.86816 0
M  V30 7081 C 1219.11 6.5273 2.63741 0
M  V30 7082 C 1218.4 5.1842 2.73198 0
M  V30 7083 N 1218.45 4.38762 1.4784 0
M  V30 7084 H 1215.61 8.36803 2.32493 0
M  V30 7085 H 1215.34 6.70197 1.71129 0
M  V30 7086 H 1216.21 7.03551 4.13168 0
M  V30 7087 P 1220.17 7.20834 5.23717 0
M  V30 7088 O 1220.39 7.80006 6.57415 0
M  V30 7089 O 1220.96 7.79416 4.13051 0
M  V30 7090 O 1220.42 5.63315 5.29344 0
M  V30 7091 C 1219.48 4.80318 6.01954 0
M  V30 7092 C 1220.21 3.64202 6.65911 0
M  V30 7093 O 1220.42 2.60736 5.64823 0
M  V30 7094 C 1221.61 3.93521 7.19518 0
M  V30 7095 O 1222 3.02071 8.21205 0
M  V30 7096 C 1222.49 3.73047 5.97036 0
M  V30 7097 C 1221.78 2.58828 5.25741 0
M  V30 7098 N 1221.83 2.68068 3.77503 0
M  V30 7099 H 1218.99 5.40394 6.8003 0
M  V30 7100 H 1218.72 4.41741 5.32532 0
M  V30 7101 H 1219.59 3.26371 7.47889 0
M  V30 7102 H 1222.25 1.64007 5.56746 0
M  V30 7103 H 1222.53 4.63439 5.3432 0
M  V30 7104 H 1223.52 3.44776 6.25925 0
M  V30 7105 H 1221.68 4.96707 7.57347 0
M  V30 7106 P 1223.55 2.75334 8.47391 0
M  V30 7107 O 1223.77 2.44571 9.90142 0
M  V30 7108 O 1224.34 3.87688 7.92115 0
M  V30 7109 O 1223.8 1.4459 7.59357 0
M  V30 7110 C 1222.86 0.347608 7.69215 0
M  V30 7111 C 1223.59 -0.96767 7.52806 0
M  V30 7112 O 1223.8 -1.21036 6.1011 0
M  V30 7113 C 1224.99 -1.04544 8.13308 0
M  V30 7114 O 1225.38 -2.38311 8.41922 0
M  V30 7115 C 1225.87 -0.491279 7.02284 0
M  V30 7116 C 1225.16 -0.996264 5.77469 0
M  V30 7117 N 1225.21 -0.0501916 4.62973 0
M  V30 7118 H 1222.37 0.374722 8.67691 0
M  V30 7119 H 1222.1 0.443485 6.90277 0
M  V30 7120 H 1222.97 -1.75537 7.96793 0
M  V30 7121 P 1226.93 -2.75334 8.47391 0
M  V30 7122 O 1227.15 -3.84204 9.44982 0
M  V30 7123 O 1227.72 -1.51982 8.68909 0
M  V30 7124 O 1227.18 -3.29363 6.99321 0
M  V30 7125 C 1226.24 -4.24066 6.42823 0
M  V30 7126 C 1226.97 -5.20775 5.52155 0
M  V30 7127 O 1227.18 -4.56607 4.22514 0
M  V30 7128 C 1228.37 -5.62697 5.96604 0
M  V30 7129 O 1228.76 -6.87667 5.41053 0
M  V30 7130 C 1229.25 -4.52537 5.39283 0
M  V30 7131 C 1228.54 -4.20027 4.08623 0
M  V30 7132 N 1228.59 -2.76189 3.71603 0
M  V30 7133 H 1225.75 -4.79756 7.24086 0
M  V30 7134 H 1225.48 -3.69963 5.84682 0
M  V30 7135 H 1226.35 -6.10431 5.41508 0
M  V30 7136 H 1229.01 -4.78816 3.28024 0
M  V30 7137 H 1229.29 -3.64957 6.05871 0
M  V30 7138 H 1230.28 -4.88748 5.21323 0
M  V30 7139 H 1228.44 -5.66789 7.0643 0
M  V30 7140 P 1230.31 -7.20834 5.23717 0
M  V30 7141 O 1230.53 -8.66104 5.38572 0
M  V30 7142 O 1231.1 -6.33544 6.1349 0
M  V30 7143 O 1230.56 -6.7751 3.72168 0
M  V30 7144 C 1229.62 -7.20825 2.7076 0
M  V30 7145 C 1230.35 -7.45864 1.40599 0
M  V30 7146 O 1230.56 -6.17651 0.734225 0
M  V30 7147 C 1231.75 -8.05808 1.51899 0
M  V30 7148 O 1232.14 -8.74358 0.335205 0
M  V30 7149 C 1232.63 -6.83093 1.70294 0
M  V30 7150 C 1231.92 -5.79992 0.836974 0
M  V30 7151 N 1231.97 -4.41864 1.38293 0
M  V30 7152 C 1231.89 -3.99538 2.69438 0
M  V30 7153 N 1231.97 -2.69909 2.84277 0
M  V30 7154 C 1232.11 -2.21719 1.5408 0
M  V30 7155 C 1232.24 -0.891712 1.06628 0
M  V30 7156 N 1232.36 -0.856846 -0.334985 0
M  V30 7157 C 1232.36 -1.9641 -1.15789 0
M  V30 7158 N 1232.49 -1.72708 -2.46522 0
M  V30 7159 N 1232.23 -3.21165 -0.713741 0
M  V30 7160 C 1232.11 -3.26797 0.639748 0
M  V30 7161 H 1229.13 -8.13644 3.0377 0
M  V30 7162 H 1228.86 -6.42788 2.55485 0
M  V30 7163 H 1229.73 -8.12039 0.792769 0
M  V30 7164 P 1233.69 -8.91 -9.70164e-12 0
M  V30 7165 O 1233.91 -10.1726 -0.733694 0
M  V30 7166 O 1234.48 -8.73148 1.23936 0
M  V30 7167 O 1233.94 -7.66872 -0.971405 0
M  V30 7168 C 1233 -7.42309 -2.04641 0
M  V30 7169 C 1233.73 -6.86059 -3.24661 0
M  V30 7170 O 1233.94 -5.42847 -3.03646 0
M  V30 7171 C 1235.13 -7.41196 -3.50753 0
M  V30 7172 O 1235.52 -7.27073 -4.86816 0
M  V30 7173 C 1236.01 -6.5273 -2.63741 0
M  V30 7174 C 1235.3 -5.1842 -2.73198 0
M  V30 7175 N 1235.35 -4.38762 -1.4784 0
M  V30 7176 H 1232.51 -8.36803 -2.32493 0
M  V30 7177 H 1232.24 -6.70197 -1.71129 0
M  V30 7178 H 1233.11 -7.03551 -4.13168 0
M  V30 7179 H 1235.39 -6.36132 -5.14416 0
M  V30 7180 H 1239.41 9.0732 2.85239 0
M  V30 7181 O 1239.29 8.67639 2.00036 0
M  V30 7182 P 1237.85 8.7635 1.60911 0
M  V30 7183 O 1237.63 10.1388 1.11561 0
M  V30 7184 O 1237.06 8.36503 2.79617 0
M  V30 7185 O 1237.6 7.71806 0.42951 0
M  V30 7186 C 1238.54 7.67148 -0.673689 0
M  V30 7187 C 1237.81 7.33374 -1.95559 0
M  V30 7188 O 1237.6 5.88721 -2.00726 0
M  V30 7189 C 1236.41 7.92526 -2.10483 0
M  V30 7190 O 1236.02 8.02971 -3.47653 0
M  V30 7191 C 1235.53 6.89602 -1.41652 0
M  V30 7192 C 1236.24 5.59201 -1.75185 0
M  V30 7193 N 1236.19 4.58235 -0.662552 0
M  V30 7194 H 1239.03 8.65116 -0.777161 0
M  V30 7195 H 1239.3 6.90173 -0.474152 0
M  V30 7196 H 1238.44 7.66548 -2.79458 0
M  V30 7197 P 1234.47 8.03563 -3.84925 0
M  V30 7198 O 1234.25 8.85821 -5.0569 0
M  V30 7199 O 1233.68 8.41101 -2.65469 0
M  V30 7200 O 1234.22 6.4965 -4.18908 0
M  V30 7201 C 1235.16 5.80886 -5.05289 0
M  V30 7202 C 1234.43 4.78366 -5.89277 0
M  V30 7203 O 1234.22 3.58302 -5.08433 0
M  V30 7204 C 1233.03 5.16748 -6.36559 0
M  V30 7205 O 1232.64 4.45271 -7.53232 0
M  V30 7206 C 1232.15 4.74572 -5.19863 0
M  V30 7207 C 1232.86 3.49373 -4.70338 0
M  V30 7208 N 1232.81 3.31704 -3.22876 0
M  V30 7209 C 1232.66 2.03326 -2.74871 0
M  V30 7210 O 1232.57 1.06486 -3.48076 0
M  V30 7211 N 1232.62 1.91838 -1.37456 0
M  V30 7212 C 1232.71 2.94295 -0.462035 0
M  V30 7213 C 1232.86 4.25064 -1.05249 0
M  V30 7214 C 1232.91 4.40214 -2.39192 0
M  V30 7215 H 1235.65 6.54063 -5.71245 0
M  V30 7216 H 1235.92 5.30339 -4.43905 0
M  V30 7217 H 1235.06 4.55889 -6.76652 0
M  V30 7218 H 1232.4 2.6167 -5.17842 0
M  V30 7219 H 1232.12 5.52155 -4.41878 0
M  V30 7220 H 1231.13 4.51918 -5.53297 0
M  V30 7221 H 1232.96 6.25055 -6.55162 0
M  V30 7222 H 1233.03 5.39798 -2.81523 0
M  V30 7223 P 1231.09 4.23843 -7.83734 0
M  V30 7224 O 1230.87 4.19407 -9.29784 0
M  V30 7225 O 1230.3 5.24426 -7.09156 0
M  V30 7226 O 1230.84 2.7935 -7.20758 0
M  V30 7227 C 1231.78 1.7299 -7.50419 0
M  V30 7228 C 1231.05 0.406376 -7.57911 0
M  V30 7229 O 1230.84 -0.0897726 -6.21935 0
M  V30 7230 C 1229.65 0.447224 -8.1878 0
M  V30 7231 O 1229.26 -0.825065 -8.71101 0
M  V30 7232 C 1228.77 0.783801 -6.99623 0
M  V30 7233 C 1229.48 0.0619192 -5.85967 0
M  V30 7234 N 1229.43 0.7859 -4.56281 0
M  V30 7235 H 1232.27 1.93423 -8.4679 0
M  V30 7236 H 1232.54 1.68181 -6.71046 0
M  V30 7237 H 1231.68 -0.289041 -8.15388 0
M  V30 7238 P 1227.71 -1.17771 -8.83182 0
M  V30 7239 O 1227.49 -2.07206 -9.98732 0
M  V30 7240 O 1226.92 0.0743816 -8.81969 0
M  V30 7241 O 1227.46 -1.97652 -7.47304 0
M  V30 7242 C 1228.4 -3.01133 -7.08783 0
M  V30 7243 C 1227.67 -4.12613 -6.37049 0
M  V30 7244 O 1227.46 -3.72827 -4.97879 0
M  V30 7245 C 1226.27 -4.45085 -6.88694 0
M  V30 7246 O 1225.88 -5.7877 -6.5624 0
M  V30 7247 C 1225.39 -3.47817 -6.12078 0
M  V30 7248 C 1226.1 -3.39414 -4.77697 0
M  V30 7249 N 1226.05 -2.04615 -4.15333 0
M  V30 7250 H 1228.89 -3.41248 -7.98759 0
M  V30 7251 H 1229.16 -2.5837 -6.41742 0
M  V30 7252 H 1228.3 -5.02657 -6.42673 0
M  V30 7253 P 1224.33 -6.144 -6.45285 0
M  V30 7254 O 1224.11 -7.54673 -6.86199 0
M  V30 7255 O 1223.54 -5.12391 -7.179 0
M  V30 7256 O 1224.08 -5.99158 -4.88404 0
M  V30 7257 C 1225.02 -6.60234 -3.96415 0
M  V30 7258 C 1224.29 -7.08259 -2.72856 0
M  V30 7259 O 1224.08 -5.9427 -1.83651 0
M  V30 7260 C 1222.89 -7.64886 -2.9555 0
M  V30 7261 O 1222.5 -8.53963 -1.90717 0
M  V30 7262 C 1222.01 -6.4116 -2.90739 0
M  V30 7263 C 1222.72 -5.55375 -1.86963 0
M  V30 7264 N 1222.67 -4.09664 -2.15742 0
M  V30 7265 H 1225.51 -7.45574 -4.45629 0
M  V30 7266 H 1225.78 -5.86232 -3.67314 0
M  V30 7267 H 1224.92 -7.84412 -2.24479 0
M  V30 7268 P 1220.95 -8.7635 -1.60911 0
M  V30 7269 O 1220.73 -10.1388 -1.11561 0
M  V30 7270 O 1220.16 -8.36503 -2.79617 0
M  V30 7271 O 1220.7 -7.71806 -0.42951 0
M  V30 7272 C 1221.64 -7.67148 0.673689 0
M  V30 7273 C 1220.91 -7.33374 1.95559 0
M  V30 7274 O 1220.7 -5.88721 2.00726 0
M  V30 7275 C 1219.51 -7.92526 2.10483 0
M  V30 7276 O 1219.12 -8.02971 3.47653 0
M  V30 7277 C 1218.63 -6.89602 1.41652 0
M  V30 7278 C 1219.34 -5.59201 1.75185 0
M  V30 7279 N 1219.29 -4.58235 0.662552 0
M  V30 7280 H 1222.13 -8.65116 0.777161 0
M  V30 7281 H 1222.4 -6.90173 0.474152 0
M  V30 7282 H 1221.54 -7.66548 2.79458 0
M  V30 7283 P 1217.57 -8.03563 3.84925 0
M  V30 7284 O 1217.35 -8.85821 5.0569 0
M  V30 7285 O 1216.78 -8.41101 2.65469 0
M  V30 7286 O 1217.32 -6.4965 4.18908 0
M  V30 7287 C 1218.26 -5.81037 5.05421 0
M  V30 7288 C 1217.53 -4.78366 5.89277 0
M  V30 7289 O 1217.32 -3.58302 5.08433 0
M  V30 7290 C 1216.13 -5.17448 6.36119 0
M  V30 7291 O 1215.74 -4.45271 7.53232 0
M  V30 7292 C 1215.25 -4.74639 5.19936 0
M  V30 7293 C 1215.96 -3.49432 4.70418 0
M  V30 7294 N 1215.91 -3.31776 3.22945 0
M  V30 7295 H 1218.75 -6.54213 5.71376 0
M  V30 7296 H 1219.02 -5.30492 4.44033 0
M  V30 7297 H 1218.16 -4.55889 6.76652 0
M  V30 7298 P 1214.19 -4.23843 7.83734 0
M  V30 7299 O 1213.97 -4.19407 9.29784 0
M  V30 7300 O 1213.4 -5.24426 7.09156 0
M  V30 7301 O 1213.94 -2.7935 7.20758 0
M  V30 7302 C 1214.88 -1.7299 7.50419 0
M  V30 7303 C 1214.15 -0.406376 7.57911 0
M  V30 7304 O 1213.94 0.0897726 6.21935 0
M  V30 7305 C 1212.75 -0.447224 8.1878 0
M  V30 7306 O 1212.36 0.825065 8.71101 0
M  V30 7307 C 1211.87 -0.783801 6.99623 0
M  V30 7308 C 1212.58 -0.0619192 5.85967 0
M  V30 7309 N 1212.53 -0.7859 4.56281 0
M  V30 7310 C 1212.61 -2.14308 4.31736 0
M  V30 7311 N 1212.53 -2.46106 3.05116 0
M  V30 7312 C 1212.39 -1.23422 2.4014 0
M  V30 7313 C 1212.26 -0.938381 1.02409 0
M  V30 7314 N 1212.14 0.444647 0.805413 0
M  V30 7315 C 1212.14 1.40829 1.79435 0
M  V30 7316 N 1212.01 2.67213 1.38558 0
M  V30 7317 N 1212.27 1.12947 3.09005 0
M  V30 7318 C 1212.39 -0.204887 3.32369 0
M  V30 7319 H 1215.37 -1.93423 8.4679 0
M  V30 7320 H 1215.64 -1.68181 6.71046 0
M  V30 7321 H 1214.78 0.289041 8.15388 0
M  V30 7322 P 1210.81 1.17771 8.83182 0
M  V30 7323 O 1210.59 2.07206 9.98732 0
M  V30 7324 O 1210.02 -0.0743816 8.81969 0
M  V30 7325 O 1210.56 1.97652 7.47304 0
M  V30 7326 C 1211.5 3.01055 7.08599 0
M  V30 7327 C 1210.77 4.12613 6.37049 0
M  V30 7328 O 1210.56 3.72827 4.97879 0
M  V30 7329 C 1209.37 4.45719 6.88164 0
M  V30 7330 O 1208.98 5.7877 6.5624 0
M  V30 7331 C 1208.49 3.47768 6.11991 0
M  V30 7332 C 1209.2 3.39356 4.77615 0
M  V30 7333 N 1209.15 2.04571 4.15244 0
M  V30 7334 C 1209 1.98587 2.78314 0
M  V30 7335 O 1208.91 2.98134 2.08835 0
M  V30 7336 N 1208.96 0.714467 2.24925 0
M  V30 7337 C 1209.05 -0.470001 2.94169 0
M  V30 7338 O 1209 -1.55587 2.35195 0
M  V30 7339 C 1209.2 -0.312541 4.36783 0
M  V30 7340 C 1209.31 -1.57711 5.16352 0
M  V30 7341 C 1209.25 0.914512 4.92583 0
M  V30 7342 H 1211.99 3.41169 7.98575 0
M  V30 7343 H 1212.26 2.58295 6.41556 0
M  V30 7344 H 1211.4 5.02657 6.42673 0
M  V30 7345 H 1208.74 4.11637 4.08885 0
M  V30 7346 H 1208.46 2.49626 6.61679 0
M  V30 7347 H 1207.47 3.86566 6.00778 0
M  V30 7348 H 1209.3 4.29943 7.96918 0
M  V30 7349 H 1209.37 1.00937 6.00374 0
M  V30 7350 H 1208.34 -1.80153 5.63503 0
M  V30 7351 H 1210.08 -1.4566 5.94104 0
M  V30 7352 H 1209.59 -2.40664 4.49645 0
M  V30 7353 H 1208.86 0.647622 1.25697 0
M  V30 7354 P 1207.43 6.144 6.45285 0
M  V30 7355 O 1207.21 7.54673 6.86199 0
M  V30 7356 O 1206.64 5.12391 7.179 0
M  V30 7357 O 1207.18 5.99158 4.88404 0
M  V30 7358 C 1208.12 6.60062 3.96313 0
M  V30 7359 C 1207.39 7.08259 2.72856 0
M  V30 7360 O 1207.18 5.9427 1.83651 0
M  V30 7361 C 1205.99 7.65087 2.94749 0
M  V30 7362 O 1205.6 8.53963 1.90717 0
M  V30 7363 C 1205.11 6.41069 2.90698 0
M  V30 7364 C 1205.82 5.5528 1.86931 0
M  V30 7365 N 1205.77 4.09575 2.15696 0
M  V30 7366 C 1205.62 3.24249 1.08435 0
M  V30 7367 O 1205.53 3.63946 -0.0628747 0
M  V30 7368 N 1205.58 1.90009 1.39973 0
M  V30 7369 C 1205.67 1.34884 2.65614 0
M  V30 7370 O 1205.62 0.123716 2.81728 0
M  V30 7371 C 1205.82 2.3145 3.71736 0
M  V30 7372 C 1205.93 1.75913 5.10438 0
M  V30 7373 C 1205.87 3.63518 3.44754 0
M  V30 7374 H 1208.61 7.45402 4.45526 0
M  V30 7375 H 1208.88 5.86062 3.67208 0
M  V30 7376 H 1208.02 7.84412 2.24479 0
M  V30 7377 H 1205.36 5.73358 0.888409 0
M  V30 7378 H 1205.08 5.90877 3.88583 0
M  V30 7379 H 1204.09 6.65867 2.58821 0
M  V30 7380 H 1205.92 8.16248 3.92006 0
M  V30 7381 H 1205.99 4.34551 4.26383 0
M  V30 7382 H 1204.96 1.85471 5.61775 0
M  V30 7383 H 1206.7 2.31364 5.66257 0
M  V30 7384 H 1206.21 0.695936 5.05229 0
M  V30 7385 H 1205.48 1.26277 0.63625 0
M  V30 7386 P 1204.05 8.7635 1.60911 0
M  V30 7387 O 1203.83 10.1388 1.11561 0
M  V30 7388 O 1203.26 8.36503 2.79617 0
M  V30 7389 O 1203.8 7.71806 0.42951 0
M  V30 7390 C 1204.74 7.67148 -0.673689 0
M  V30 7391 C 1204.01 7.33374 -1.95559 0
M  V30 7392 O 1203.8 5.88721 -2.00726 0
M  V30 7393 C 1202.61 7.92526 -2.10483 0
M  V30 7394 O 1202.22 8.02971 -3.47653 0
M  V30 7395 C 1201.73 6.89602 -1.41652 0
M  V30 7396 C 1202.44 5.59201 -1.75185 0
M  V30 7397 N 1202.39 4.58301 -0.657969 0
M  V30 7398 H 1205.23 8.65116 -0.777161 0
M  V30 7399 H 1205.5 6.9022 -0.46725 0
M  V30 7400 H 1204.64 7.66548 -2.79458 0
M  V30 7401 H 1201.98 5.16165 -2.65183 0
M  V30 7402 H 1201.7 7.06433 -0.329384 0
M  V30 7403 H 1200.71 6.90926 -1.82021 0
M  V30 7404 H 1202.54 8.90873 -1.62657 0
M  V30 7405 P 1200.67 8.03563 -3.84925 0
M  V30 7406 O 1200.45 8.85821 -5.0569 0
M  V30 7407 O 1199.88 8.41101 -2.65469 0
M  V30 7408 O 1200.42 6.4965 -4.18908 0
M  V30 7409 C 1201.36 5.81037 -5.05421 0
M  V30 7410 C 1200.63 4.78366 -5.89277 0
M  V30 7411 O 1200.42 3.58302 -5.08433 0
M  V30 7412 C 1199.23 5.17448 -6.36119 0
M  V30 7413 O 1198.84 4.45271 -7.53232 0
M  V30 7414 C 1198.35 4.74639 -5.19936 0
M  V30 7415 C 1199.06 3.49432 -4.70418 0
M  V30 7416 N 1199.01 3.31776 -3.22945 0
M  V30 7417 H 1201.85 6.54213 -5.71376 0
M  V30 7418 H 1202.12 5.30492 -4.44033 0
M  V30 7419 H 1201.26 4.55889 -6.76652 0
M  V30 7420 P 1197.29 4.23843 -7.83734 0
M  V30 7421 O 1197.07 4.19407 -9.29784 0
M  V30 7422 O 1196.5 5.24426 -7.09156 0
M  V30 7423 O 1197.04 2.7935 -7.20758 0
M  V30 7424 C 1197.98 1.7299 -7.50419 0
M  V30 7425 C 1197.25 0.406376 -7.57911 0
M  V30 7426 O 1197.04 -0.0897726 -6.21935 0
M  V30 7427 C 1195.85 0.447224 -8.1878 0
M  V30 7428 O 1195.46 -0.825065 -8.71101 0
M  V30 7429 C 1194.97 0.783801 -6.99623 0
M  V30 7430 C 1195.68 0.0619192 -5.85967 0
M  V30 7431 N 1195.63 0.790462 -4.56202 0
M  V30 7432 H 1198.47 1.93423 -8.4679 0
M  V30 7433 H 1198.74 1.68852 -6.70877 0
M  V30 7434 H 1197.88 -0.289041 -8.15388 0
M  V30 7435 H 1195.22 -0.927006 -5.72848 0
M  V30 7436 H 1194.94 1.86973 -6.82036 0
M  V30 7437 H 1193.95 0.403953 -7.13357 0
M  V30 7438 H 1195.78 1.20599 -8.97534 0
M  V30 7439 P 1193.91 -1.17771 -8.83182 0
M  V30 7440 O 1193.69 -2.07206 -9.98732 0
M  V30 7441 O 1193.12 0.0743816 -8.81969 0
M  V30 7442 O 1193.66 -1.97652 -7.47304 0
M  V30 7443 C 1194.6 -3.01055 -7.08599 0
M  V30 7444 C 1193.87 -4.12613 -6.37049 0
M  V30 7445 O 1193.66 -3.72827 -4.97879 0
M  V30 7446 C 1192.47 -4.45719 -6.88164 0
M  V30 7447 O 1192.08 -5.7877 -6.5624 0
M  V30 7448 C 1191.59 -3.47768 -6.11991 0
M  V30 7449 C 1192.3 -3.39356 -4.77615 0
M  V30 7450 N 1192.25 -2.04571 -4.15244 0
M  V30 7451 C 1192.1 -1.98587 -2.78314 0
M  V30 7452 O 1192.01 -2.98134 -2.08835 0
M  V30 7453 N 1192.06 -0.714467 -2.24925 0
M  V30 7454 C 1192.15 0.470001 -2.94169 0
M  V30 7455 O 1192.1 1.55587 -2.35195 0
M  V30 7456 C 1192.3 0.312541 -4.36783 0
M  V30 7457 C 1192.41 1.57711 -5.16352 0
M  V30 7458 C 1192.35 -0.914512 -4.92583 0
M  V30 7459 H 1195.09 -3.41169 -7.98575 0
M  V30 7460 H 1195.36 -2.58295 -6.41556 0
M  V30 7461 H 1194.5 -5.02657 -6.42673 0
M  V30 7462 H 1191.84 -4.11637 -4.08885 0
M  V30 7463 H 1191.56 -2.49626 -6.61679 0
M  V30 7464 H 1190.57 -3.86566 -6.00778 0
M  V30 7465 H 1192.4 -4.29943 -7.96918 0
M  V30 7466 H 1192.47 -1.00937 -6.00374 0
M  V30 7467 H 1191.44 1.80153 -5.63503 0
M  V30 7468 H 1193.18 1.4566 -5.94104 0
M  V30 7469 H 1192.69 2.40664 -4.49645 0
M  V30 7470 H 1191.96 -0.647622 -1.25697 0
M  V30 7471 P 1190.53 -6.144 -6.45285 0
M  V30 7472 O 1190.31 -7.54673 -6.86199 0
M  V30 7473 O 1189.74 -5.12391 -7.179 0
M  V30 7474 O 1190.28 -5.99158 -4.88404 0
M  V30 7475 C 1191.22 -6.60062 -3.96313 0
M  V30 7476 C 1190.49 -7.08259 -2.72856 0
M  V30 7477 O 1190.28 -5.9427 -1.83651 0
M  V30 7478 C 1189.09 -7.65087 -2.94749 0
M  V30 7479 O 1188.7 -8.53963 -1.90717 0
M  V30 7480 C 1188.21 -6.41069 -2.90698 0
M  V30 7481 C 1188.92 -5.5528 -1.86931 0
M  V30 7482 N 1188.87 -4.09575 -2.15696 0
M  V30 7483 C 1188.72 -3.24249 -1.08435 0
M  V30 7484 O 1188.63 -3.63946 0.0628747 0
M  V30 7485 N 1188.68 -1.90009 -1.39973 0
M  V30 7486 C 1188.77 -1.34884 -2.65614 0
M  V30 7487 O 1188.72 -0.123716 -2.81728 0
M  V30 7488 C 1188.92 -2.3145 -3.71736 0
M  V30 7489 C 1189.03 -1.75913 -5.10438 0
M  V30 7490 C 1188.97 -3.63518 -3.44754 0
M  V30 7491 H 1191.71 -7.45402 -4.45526 0
M  V30 7492 H 1191.98 -5.86062 -3.67208 0
M  V30 7493 H 1191.12 -7.84412 -2.24479 0
M  V30 7494 H 1188.46 -5.73358 -0.888409 0
M  V30 7495 H 1188.18 -5.90877 -3.88583 0
M  V30 7496 H 1187.19 -6.65867 -2.58821 0
M  V30 7497 H 1189.02 -8.16248 -3.92006 0
M  V30 7498 H 1189.09 -4.34551 -4.26383 0
M  V30 7499 H 1188.06 -1.85471 -5.61775 0
M  V30 7500 H 1189.8 -2.31364 -5.66257 0
M  V30 7501 H 1189.31 -0.695936 -5.05229 0
M  V30 7502 H 1188.58 -1.26277 -0.63625 0
M  V30 7503 P 1187.15 -8.7635 -1.60911 0
M  V30 7504 O 1186.93 -10.1388 -1.11561 0
M  V30 7505 O 1186.36 -8.36503 -2.79617 0
M  V30 7506 O 1186.9 -7.71806 -0.42951 0
M  V30 7507 C 1187.84 -7.67148 0.673689 0
M  V30 7508 C 1187.11 -7.33374 1.95559 0
M  V30 7509 O 1186.9 -5.88721 2.00726 0
M  V30 7510 C 1185.71 -7.92526 2.10483 0
M  V30 7511 O 1185.32 -8.02971 3.47653 0
M  V30 7512 C 1184.83 -6.89602 1.41652 0
M  V30 7513 C 1185.54 -5.59201 1.75185 0
M  V30 7514 N 1185.49 -4.58301 0.657969 0
M  V30 7515 H 1188.33 -8.65116 0.777161 0
M  V30 7516 H 1188.6 -6.9022 0.46725 0
M  V30 7517 H 1187.74 -7.66548 2.79458 0
M  V30 7518 H 1185.08 -5.16165 2.65183 0
M  V30 7519 H 1184.8 -7.06433 0.329384 0
M  V30 7520 H 1183.81 -6.90926 1.82021 0
M  V30 7521 H 1185.64 -8.90873 1.62657 0
M  V30 7522 P 1183.77 -8.03563 3.84925 0
M  V30 7523 O 1183.55 -8.85821 5.0569 0
M  V30 7524 O 1182.98 -8.41101 2.65469 0
M  V30 7525 O 1183.52 -6.4965 4.18908 0
M  V30 7526 C 1184.46 -5.81037 5.05421 0
M  V30 7527 C 1183.73 -4.78366 5.89277 0
M  V30 7528 O 1183.52 -3.58302 5.08433 0
M  V30 7529 C 1182.33 -5.17448 6.36119 0
M  V30 7530 O 1181.94 -4.45271 7.53232 0
M  V30 7531 C 1181.45 -4.74639 5.19936 0
M  V30 7532 C 1182.16 -3.49432 4.70418 0
M  V30 7533 N 1182.11 -3.31776 3.22945 0
M  V30 7534 H 1184.95 -6.54213 5.71376 0
M  V30 7535 H 1185.22 -5.30492 4.44033 0
M  V30 7536 H 1184.36 -4.55889 6.76652 0
M  V30 7537 P 1180.39 -4.23843 7.83734 0
M  V30 7538 O 1180.17 -4.19407 9.29784 0
M  V30 7539 O 1179.6 -5.24426 7.09156 0
M  V30 7540 O 1180.14 -2.7935 7.20758 0
M  V30 7541 C 1181.08 -1.7299 7.50419 0
M  V30 7542 C 1180.35 -0.406376 7.57911 0
M  V30 7543 O 1180.14 0.0897726 6.21935 0
M  V30 7544 C 1178.95 -0.447224 8.1878 0
M  V30 7545 O 1178.56 0.825065 8.71101 0
M  V30 7546 C 1178.07 -0.783801 6.99623 0
M  V30 7547 C 1178.78 -0.0619192 5.85967 0
M  V30 7548 N 1178.73 -0.7859 4.56281 0
M  V30 7549 H 1181.57 -1.93423 8.4679 0
M  V30 7550 H 1181.84 -1.68181 6.71046 0
M  V30 7551 H 1180.98 0.289041 8.15388 0
M  V30 7552 P 1177.01 1.17771 8.83182 0
M  V30 7553 O 1176.79 2.07206 9.98732 0
M  V30 7554 O 1176.22 -0.0743816 8.81969 0
M  V30 7555 O 1176.76 1.97652 7.47304 0
M  V30 7556 C 1177.7 3.01133 7.08783 0
M  V30 7557 C 1176.97 4.12613 6.37049 0
M  V30 7558 O 1176.76 3.72827 4.97879 0
M  V30 7559 C 1175.57 4.45085 6.88694 0
M  V30 7560 O 1175.18 5.7877 6.5624 0
M  V30 7561 C 1174.69 3.47817 6.12078 0
M  V30 7562 C 1175.4 3.39414 4.77697 0
M  V30 7563 N 1175.35 2.04615 4.15333 0
M  V30 7564 H 1178.19 3.41248 7.98759 0
M  V30 7565 H 1178.46 2.5837 6.41742 0
M  V30 7566 H 1177.6 5.02657 6.42673 0
M  V30 7567 P 1173.63 6.144 6.45285 0
M  V30 7568 O 1173.41 7.54673 6.86199 0
M  V30 7569 O 1172.84 5.12391 7.179 0
M  V30 7570 O 1173.38 5.99158 4.88404 0
M  V30 7571 C 1174.32 6.60234 3.96415 0
M  V30 7572 C 1173.59 7.08259 2.72856 0
M  V30 7573 O 1173.38 5.9427 1.83651 0
M  V30 7574 C 1172.19 7.64886 2.9555 0
M  V30 7575 O 1171.8 8.53963 1.90717 0
M  V30 7576 C 1171.31 6.4116 2.90739 0
M  V30 7577 C 1172.02 5.55375 1.86963 0
M  V30 7578 N 1171.97 4.09664 2.15742 0
M  V30 7579 H 1174.81 7.45574 4.45629 0
M  V30 7580 H 1175.08 5.86232 3.67314 0
M  V30 7581 H 1174.22 7.84412 2.24479 0
M  V30 7582 P 1170.25 8.7635 1.60911 0
M  V30 7583 O 1170.03 10.1388 1.11561 0
M  V30 7584 O 1169.46 8.36503 2.79617 0
M  V30 7585 O 1170 7.71806 0.42951 0
M  V30 7586 C 1170.94 7.67148 -0.673689 0
M  V30 7587 C 1170.21 7.33374 -1.95559 0
M  V30 7588 O 1170 5.88721 -2.00726 0
M  V30 7589 C 1168.81 7.92526 -2.10483 0
M  V30 7590 O 1168.42 8.02971 -3.47653 0
M  V30 7591 C 1167.93 6.89602 -1.41652 0
M  V30 7592 C 1168.64 5.59201 -1.75185 0
M  V30 7593 N 1168.59 4.58301 -0.657969 0
M  V30 7594 H 1171.43 8.65116 -0.777161 0
M  V30 7595 H 1171.7 6.9022 -0.46725 0
M  V30 7596 H 1170.84 7.66548 -2.79458 0
M  V30 7597 H 1168.18 5.16165 -2.65183 0
M  V30 7598 H 1167.9 7.06433 -0.329384 0
M  V30 7599 H 1166.91 6.90926 -1.82021 0
M  V30 7600 H 1168.74 8.90873 -1.62657 0
M  V30 7601 P 1166.87 8.03563 -3.84925 0
M  V30 7602 O 1166.65 8.85821 -5.0569 0
M  V30 7603 O 1166.08 8.41101 -2.65469 0
M  V30 7604 O 1166.62 6.4965 -4.18908 0
M  V30 7605 C 1167.56 5.81037 -5.05421 0
M  V30 7606 C 1166.83 4.78366 -5.89277 0
M  V30 7607 O 1166.62 3.58302 -5.08433 0
M  V30 7608 C 1165.43 5.17448 -6.36119 0
M  V30 7609 O 1165.04 4.45271 -7.53232 0
M  V30 7610 C 1164.55 4.74639 -5.19936 0
M  V30 7611 C 1165.26 3.49432 -4.70418 0
M  V30 7612 N 1165.21 3.32099 -3.22613 0
M  V30 7613 H 1168.05 6.54213 -5.71376 0
M  V30 7614 H 1168.32 5.30936 -4.43503 0
M  V30 7615 H 1167.46 4.55889 -6.76652 0
M  V30 7616 H 1164.8 2.61715 -5.17932 0
M  V30 7617 H 1164.52 5.52155 -4.41878 0
M  V30 7618 H 1163.53 4.51981 -5.53374 0
M  V30 7619 H 1165.36 6.25124 -6.55234 0
M  V30 7620 P 1163.49 4.23843 -7.83734 0
M  V30 7621 O 1163.27 4.19407 -9.29784 0
M  V30 7622 O 1162.7 5.24426 -7.09156 0
M  V30 7623 O 1163.24 2.7935 -7.20758 0
M  V30 7624 C 1164.18 1.7299 -7.50419 0
M  V30 7625 C 1163.45 0.406376 -7.57911 0
M  V30 7626 O 1163.24 -0.0897726 -6.21935 0
M  V30 7627 C 1162.05 0.447224 -8.1878 0
M  V30 7628 O 1161.66 -0.825065 -8.71101 0
M  V30 7629 C 1161.17 0.783801 -6.99623 0
M  V30 7630 C 1161.88 0.0619192 -5.85967 0
M  V30 7631 N 1161.83 0.7859 -4.56281 0
M  V30 7632 H 1164.67 1.93423 -8.4679 0
M  V30 7633 H 1164.94 1.68181 -6.71046 0
M  V30 7634 H 1164.08 -0.289041 -8.15388 0
M  V30 7635 P 1160.11 -1.17771 -8.83182 0
M  V30 7636 O 1159.89 -2.07206 -9.98732 0
M  V30 7637 O 1159.32 0.0743816 -8.81969 0
M  V30 7638 O 1159.86 -1.97652 -7.47304 0
M  V30 7639 C 1160.8 -3.01133 -7.08783 0
M  V30 7640 C 1160.07 -4.12613 -6.37049 0
M  V30 7641 O 1159.86 -3.72827 -4.97879 0
M  V30 7642 C 1158.67 -4.45085 -6.88694 0
M  V30 7643 O 1158.28 -5.7877 -6.5624 0
M  V30 7644 C 1157.79 -3.47817 -6.12078 0
M  V30 7645 C 1158.5 -3.39414 -4.77697 0
M  V30 7646 N 1158.45 -2.04199 -4.15538 0
M  V30 7647 H 1161.29 -3.41248 -7.98759 0
M  V30 7648 H 1161.56 -2.57728 -6.42 0
M  V30 7649 H 1160.7 -5.02657 -6.42673 0
M  V30 7650 H 1158.04 -4.11708 -4.08956 0
M  V30 7651 H 1157.76 -2.49626 -6.61679 0
M  V30 7652 H 1156.77 -3.8662 -6.00862 0
M  V30 7653 H 1158.6 -4.29991 -7.97006 0
M  V30 7654 P 1156.73 -6.144 -6.45285 0
M  V30 7655 O 1156.51 -7.54673 -6.86199 0
M  V30 7656 O 1155.94 -5.12391 -7.179 0
M  V30 7657 O 1156.48 -5.99158 -4.88404 0
M  V30 7658 C 1157.42 -6.60234 -3.96415 0
M  V30 7659 C 1156.69 -7.08259 -2.72856 0
M  V30 7660 O 1156.48 -5.9427 -1.83651 0
M  V30 7661 C 1155.29 -7.64886 -2.9555 0
M  V30 7662 O 1154.9 -8.53963 -1.90717 0
M  V30 7663 C 1154.41 -6.4116 -2.90739 0
M  V30 7664 C 1155.12 -5.55375 -1.86963 0
M  V30 7665 N 1155.07 -4.09448 -2.16152 0
M  V30 7666 H 1157.91 -7.45574 -4.45629 0
M  V30 7667 H 1158.18 -5.85864 -3.679 0
M  V30 7668 H 1157.32 -7.84412 -2.24479 0
M  V30 7669 H 1154.66 -5.73457 -0.888562 0
M  V30 7670 H 1154.38 -5.90877 -3.88583 0
M  V30 7671 H 1153.39 -6.6596 -2.58858 0
M  V30 7672 H 1155.22 -8.16339 -3.92049 0
M  V30 7673 P 1153.35 -8.7635 -1.60911 0
M  V30 7674 O 1153.13 -10.1388 -1.11561 0
M  V30 7675 O 1152.56 -8.36503 -2.79617 0
M  V30 7676 O 1153.1 -7.71806 -0.42951 0
M  V30 7677 C 1154.04 -7.67148 0.673689 0
M  V30 7678 C 1153.31 -7.33374 1.95559 0
M  V30 7679 O 1153.1 -5.88721 2.00726 0
M  V30 7680 C 1151.91 -7.92526 2.10483 0
M  V30 7681 O 1151.52 -8.02971 3.47653 0
M  V30 7682 C 1151.03 -6.89602 1.41652 0
M  V30 7683 C 1151.74 -5.59201 1.75185 0
M  V30 7684 N 1151.69 -4.58301 0.657969 0
M  V30 7685 C 1151.77 -4.79019 -0.692603 0
M  V30 7686 N 1151.7 -3.69736 -1.38998 0
M  V30 7687 C 1151.55 -2.70474 -0.438135 0
M  V30 7688 C 1151.42 -1.30327 -0.538142 0
M  V30 7689 N 1151.41 -0.64304 -1.69192 0
M  V30 7690 N 1151.3 -0.611027 0.605183 0
M  V30 7691 C 1151.31 -1.27002 1.75953 0
M  V30 7692 N 1151.43 -2.56038 1.98546 0
M  V30 7693 C 1151.55 -3.22681 0.822541 0
M  V30 7694 H 1154.53 -8.65116 0.777161 0
M  V30 7695 H 1154.8 -6.9022 0.46725 0
M  V30 7696 H 1153.94 -7.66548 2.79458 0
M  V30 7697 H 1151.28 -5.16165 2.65183 0
M  V30 7698 H 1151 -7.06433 0.329384 0
M  V30 7699 H 1150.01 -6.90926 1.82021 0
M  V30 7700 H 1151.84 -8.90873 1.62657 0
M  V30 7701 H 1151.89 -5.77785 -1.13874 0
M  V30 7702 H 1151.5 -1.15585 -2.57991 0
M  V30 7703 H 1151.32 0.382989 -1.69835 0
M  V30 7704 H 1151.21 -0.653331 2.64449 0
M  V30 7705 P 1149.97 -8.03563 3.84925 0
M  V30 7706 O 1149.75 -8.85821 5.0569 0
M  V30 7707 O 1149.18 -8.41101 2.65469 0
M  V30 7708 O 1149.72 -6.4965 4.18908 0
M  V30 7709 C 1150.66 -5.81037 5.05421 0
M  V30 7710 C 1149.93 -4.78366 5.89277 0
M  V30 7711 O 1149.72 -3.58302 5.08433 0
M  V30 7712 C 1148.53 -5.17448 6.36119 0
M  V30 7713 O 1148.14 -4.45271 7.53232 0
M  V30 7714 C 1147.65 -4.74639 5.19936 0
M  V30 7715 C 1148.36 -3.49432 4.70418 0
M  V30 7716 N 1148.31 -3.31776 3.22945 0
M  V30 7717 H 1151.15 -6.54213 5.71376 0
M  V30 7718 H 1151.42 -5.30492 4.44033 0
M  V30 7719 H 1150.56 -4.55889 6.76652 0
M  V30 7720 P 1146.59 -4.23843 7.83734 0
M  V30 7721 O 1146.37 -4.19407 9.29784 0
M  V30 7722 O 1145.8 -5.24426 7.09156 0
M  V30 7723 O 1146.34 -2.7935 7.20758 0
M  V30 7724 C 1147.28 -1.7299 7.50419 0
M  V30 7725 C 1146.55 -0.406376 7.57911 0
M  V30 7726 O 1146.34 0.0897726 6.21935 0
M  V30 7727 C 1145.15 -0.447224 8.1878 0
M  V30 7728 O 1144.76 0.825065 8.71101 0
M  V30 7729 C 1144.27 -0.783801 6.99623 0
M  V30 7730 C 1144.98 -0.0619192 5.85967 0
M  V30 7731 N 1144.93 -0.7859 4.56281 0
M  V30 7732 H 1147.77 -1.93423 8.4679 0
M  V30 7733 H 1148.04 -1.68181 6.71046 0
M  V30 7734 H 1147.18 0.289041 8.15388 0
M  V30 7735 P 1143.21 1.17771 8.83182 0
M  V30 7736 O 1142.99 2.07206 9.98732 0
M  V30 7737 O 1142.42 -0.0743816 8.81969 0
M  V30 7738 O 1142.96 1.97652 7.47304 0
M  V30 7739 C 1143.9 3.01133 7.08783 0
M  V30 7740 C 1143.17 4.12613 6.37049 0
M  V30 7741 O 1142.96 3.72827 4.97879 0
M  V30 7742 C 1141.77 4.45085 6.88694 0
M  V30 7743 O 1141.38 5.7877 6.5624 0
M  V30 7744 C 1140.89 3.47817 6.12078 0
M  V30 7745 C 1141.6 3.39414 4.77697 0
M  V30 7746 N 1141.55 2.04615 4.15333 0
M  V30 7747 H 1144.39 3.41248 7.98759 0
M  V30 7748 H 1144.66 2.5837 6.41742 0
M  V30 7749 H 1143.8 5.02657 6.42673 0
M  V30 7750 P 1139.83 6.144 6.45285 0
M  V30 7751 O 1139.61 7.54673 6.86199 0
M  V30 7752 O 1139.04 5.12391 7.179 0
M  V30 7753 O 1139.58 5.99158 4.88404 0
M  V30 7754 C 1140.52 6.60062 3.96313 0
M  V30 7755 C 1139.79 7.08259 2.72856 0
M  V30 7756 O 1139.58 5.9427 1.83651 0
M  V30 7757 C 1138.39 7.65087 2.94749 0
M  V30 7758 O 1138 8.53963 1.90717 0
M  V30 7759 C 1137.51 6.41069 2.90698 0
M  V30 7760 C 1138.22 5.5528 1.86931 0
M  V30 7761 N 1138.17 4.09575 2.15696 0
M  V30 7762 C 1138.02 3.24249 1.08435 0
M  V30 7763 O 1137.93 3.63946 -0.0628747 0
M  V30 7764 N 1137.98 1.90009 1.39973 0
M  V30 7765 C 1138.07 1.34884 2.65614 0
M  V30 7766 C 1138.22 2.3145 3.71736 0
M  V30 7767 C 1138.27 3.63518 3.44754 0
M  V30 7768 H 1141.01 7.45402 4.45526 0
M  V30 7769 H 1141.28 5.86062 3.67208 0
M  V30 7770 H 1140.42 7.84412 2.24479 0
M  V30 7771 H 1137.76 5.73358 0.888409 0
M  V30 7772 H 1137.48 5.90877 3.88583 0
M  V30 7773 H 1136.49 6.65867 2.58821 0
M  V30 7774 H 1138.32 8.16248 3.92006 0
M  V30 7775 H 1138.4 4.34551 4.26383 0
M  V30 7776 P 1136.45 8.7635 1.60911 0
M  V30 7777 O 1136.23 10.1388 1.11561 0
M  V30 7778 O 1135.66 8.36503 2.79617 0
M  V30 7779 O 1136.2 7.71806 0.42951 0
M  V30 7780 C 1137.14 7.67148 -0.673689 0
M  V30 7781 C 1136.41 7.33374 -1.95559 0
M  V30 7782 O 1136.2 5.88721 -2.00726 0
M  V30 7783 C 1135.01 7.92526 -2.10483 0
M  V30 7784 O 1134.62 8.02971 -3.47653 0
M  V30 7785 C 1134.13 6.89602 -1.41652 0
M  V30 7786 C 1134.84 5.59201 -1.75185 0
M  V30 7787 N 1134.79 4.58235 -0.662552 0
M  V30 7788 H 1137.63 8.65116 -0.777161 0
M  V30 7789 H 1137.9 6.90173 -0.474152 0
M  V30 7790 H 1137.04 7.66548 -2.79458 0
M  V30 7791 P 1133.07 8.03563 -3.84925 0
M  V30 7792 O 1132.85 8.85821 -5.0569 0
M  V30 7793 O 1132.28 8.41101 -2.65469 0
M  V30 7794 O 1132.82 6.4965 -4.18908 0
M  V30 7795 C 1133.76 5.81037 -5.05421 0
M  V30 7796 C 1133.03 4.78366 -5.89277 0
M  V30 7797 O 1132.82 3.58302 -5.08433 0
M  V30 7798 C 1131.63 5.17448 -6.36119 0
M  V30 7799 O 1131.24 4.45271 -7.53232 0
M  V30 7800 C 1130.75 4.74639 -5.19936 0
M  V30 7801 C 1131.46 3.49432 -4.70418 0
M  V30 7802 N 1131.41 3.31776 -3.22945 0
M  V30 7803 H 1134.25 6.54213 -5.71376 0
M  V30 7804 H 1134.52 5.30492 -4.44033 0
M  V30 7805 H 1133.66 4.55889 -6.76652 0
M  V30 7806 P 1129.69 4.23843 -7.83734 0
M  V30 7807 O 1129.47 4.19407 -9.29784 0
M  V30 7808 O 1128.9 5.24426 -7.09156 0
M  V30 7809 O 1129.44 2.7935 -7.20758 0
M  V30 7810 C 1130.38 1.7299 -7.50419 0
M  V30 7811 C 1129.65 0.406376 -7.57911 0
M  V30 7812 O 1129.44 -0.0897726 -6.21935 0
M  V30 7813 C 1128.25 0.447224 -8.1878 0
M  V30 7814 O 1127.86 -0.825065 -8.71101 0
M  V30 7815 C 1127.37 0.783801 -6.99623 0
M  V30 7816 C 1128.08 0.0619192 -5.85967 0
M  V30 7817 N 1128.03 0.7859 -4.56281 0
M  V30 7818 H 1130.87 1.93423 -8.4679 0
M  V30 7819 H 1131.14 1.68181 -6.71046 0
M  V30 7820 H 1130.28 -0.289041 -8.15388 0
M  V30 7821 P 1126.31 -1.17771 -8.83182 0
M  V30 7822 O 1126.09 -2.07206 -9.98732 0
M  V30 7823 O 1125.52 0.0743816 -8.81969 0
M  V30 7824 O 1126.06 -1.97652 -7.47304 0
M  V30 7825 C 1127 -3.01133 -7.08783 0
M  V30 7826 C 1126.27 -4.12613 -6.37049 0
M  V30 7827 O 1126.06 -3.72827 -4.97879 0
M  V30 7828 C 1124.87 -4.45085 -6.88694 0
M  V30 7829 O 1124.48 -5.7877 -6.5624 0
M  V30 7830 C 1123.99 -3.47817 -6.12078 0
M  V30 7831 C 1124.7 -3.39414 -4.77697 0
M  V30 7832 N 1124.65 -2.04615 -4.15333 0
M  V30 7833 C 1124.73 -0.803897 -4.75249 0
M  V30 7834 N 1124.65 0.197615 -3.91502 0
M  V30 7835 C 1124.51 -0.413002 -2.66823 0
M  V30 7836 C 1124.38 0.157221 -1.38007 0
M  V30 7837 O 1124.36 1.34419 -1.057 0
M  V30 7838 N 1124.26 -0.833136 -0.390236 0
M  V30 7839 C 1124.26 -2.19402 -0.623885 0
M  V30 7840 N 1124.13 -2.97622 0.449677 0
M  V30 7841 N 1124.39 -2.73005 -1.83601 0
M  V30 7842 C 1124.51 -1.78786 -2.80935 0
M  V30 7843 H 1127.49 -3.41248 -7.98759 0
M  V30 7844 H 1127.76 -2.5837 -6.41742 0
M  V30 7845 H 1126.9 -5.02657 -6.42673 0
M  V30 7846 H 1124.24 -4.11779 -4.09026 0
M  V30 7847 H 1123.96 -2.49661 -6.61772 0
M  V30 7848 H 1122.97 -3.86674 -6.00946 0
M  V30 7849 H 1124.8 -4.30038 -7.97094 0
M  V30 7850 H 1124.85 -0.670579 -5.82754 0
M  V30 7851 H 1124.17 -0.528446 0.557287 0
M  V30 7852 H 1124.13 -4.00117 0.344773 0
M  V30 7853 H 1124.03 -2.55448 1.38544 0
M  V30 7854 P 1122.93 -6.144 -6.45285 0
M  V30 7855 O 1122.71 -7.54673 -6.86199 0
M  V30 7856 O 1122.14 -5.12391 -7.179 0
M  V30 7857 O 1122.68 -5.99158 -4.88404 0
M  V30 7858 C 1123.62 -6.60234 -3.96415 0
M  V30 7859 C 1122.89 -7.08259 -2.72856 0
M  V30 7860 O 1122.68 -5.9427 -1.83651 0
M  V30 7861 C 1121.49 -7.64886 -2.9555 0
M  V30 7862 O 1121.1 -8.53963 -1.90717 0
M  V30 7863 C 1120.61 -6.4116 -2.90739 0
M  V30 7864 C 1121.32 -5.55375 -1.86963 0
M  V30 7865 N 1121.27 -4.09448 -2.16152 0
M  V30 7866 H 1124.11 -7.45574 -4.45629 0
M  V30 7867 H 1124.38 -5.85864 -3.679 0
M  V30 7868 H 1123.52 -7.84412 -2.24479 0
M  V30 7869 H 1120.86 -5.73457 -0.888562 0
M  V30 7870 H 1120.58 -5.90877 -3.88583 0
M  V30 7871 H 1119.59 -6.6596 -2.58858 0
M  V30 7872 H 1121.42 -8.16339 -3.92049 0
M  V30 7873 P 1119.55 -8.7635 -1.60911 0
M  V30 7874 O 1119.33 -10.1388 -1.11561 0
M  V30 7875 O 1118.76 -8.36503 -2.79617 0
M  V30 7876 O 1119.3 -7.71806 -0.42951 0
M  V30 7877 C 1120.24 -7.67148 0.673689 0
M  V30 7878 C 1119.51 -7.33374 1.95559 0
M  V30 7879 O 1119.3 -5.88721 2.00726 0
M  V30 7880 C 1118.11 -7.92526 2.10483 0
M  V30 7881 O 1117.72 -8.02971 3.47653 0
M  V30 7882 C 1117.23 -6.89602 1.41652 0
M  V30 7883 C 1117.94 -5.59201 1.75185 0
M  V30 7884 N 1117.89 -4.58235 0.662552 0
M  V30 7885 H 1120.73 -8.65116 0.777161 0
M  V30 7886 H 1121 -6.90173 0.474152 0
M  V30 7887 H 1120.14 -7.66548 2.79458 0
M  V30 7888 P 1116.17 -8.03563 3.84925 0
M  V30 7889 O 1115.95 -8.85821 5.0569 0
M  V30 7890 O 1115.38 -8.41101 2.65469 0
M  V30 7891 O 1115.92 -6.4965 4.18908 0
M  V30 7892 C 1116.86 -5.80886 5.05289 0
M  V30 7893 C 1116.13 -4.78366 5.89277 0
M  V30 7894 O 1115.92 -3.58302 5.08433 0
M  V30 7895 C 1114.73 -5.16748 6.36559 0
M  V30 7896 O 1114.34 -4.45271 7.53232 0
M  V30 7897 C 1113.85 -4.74572 5.19863 0
M  V30 7898 C 1114.56 -3.49373 4.70338 0
M  V30 7899 N 1114.51 -3.31704 3.22876 0
M  V30 7900 C 1114.36 -2.03326 2.74871 0
M  V30 7901 O 1114.27 -1.06486 3.48076 0
M  V30 7902 N 1114.32 -1.91838 1.37456 0
M  V30 7903 C 1114.41 -2.94295 0.462035 0
M  V30 7904 O 1114.36 -2.71763 -0.752928 0
M  V30 7905 C 1114.56 -4.25064 1.05249 0
M  V30 7906 C 1114.67 -5.39815 0.095697 0
M  V30 7907 C 1114.61 -4.40214 2.39192 0
M  V30 7908 H 1117.35 -6.54063 5.71245 0
M  V30 7909 H 1117.62 -5.30339 4.43905 0
M  V30 7910 H 1116.76 -4.55889 6.76652 0
M  V30 7911 H 1114.1 -2.6167 5.17842 0
M  V30 7912 H 1113.82 -5.52155 4.41878 0
M  V30 7913 H 1112.83 -4.51918 5.53297 0
M  V30 7914 H 1114.66 -6.25055 6.55162 0
M  V30 7915 H 1114.74 -5.39798 2.81523 0
M  V30 7916 H 1113.71 -5.91593 0.0279582 0
M  V30 7917 H 1115.44 -6.10038 0.450573 0
M  V30 7918 H 1114.95 -5.02007 -0.89937 0
M  V30 7919 H 1114.22 -0.995326 1.00435 0
M  V30 7920 P 1112.79 -4.23843 7.83734 0
M  V30 7921 O 1112.57 -4.19407 9.29784 0
M  V30 7922 O 1112 -5.24426 7.09156 0
M  V30 7923 O 1112.54 -2.7935 7.20758 0
M  V30 7924 C 1113.48 -1.7299 7.50419 0
M  V30 7925 C 1112.75 -0.406376 7.57911 0
M  V30 7926 O 1112.54 0.0897726 6.21935 0
M  V30 7927 C 1111.35 -0.447224 8.1878 0
M  V30 7928 O 1110.96 0.825065 8.71101 0
M  V30 7929 C 1110.47 -0.783801 6.99623 0
M  V30 7930 C 1111.18 -0.0619192 5.85967 0
M  V30 7931 N 1111.13 -0.7859 4.56281 0
M  V30 7932 H 1113.97 -1.93423 8.4679 0
M  V30 7933 H 1114.24 -1.68181 6.71046 0
M  V30 7934 H 1113.38 0.289041 8.15388 0
M  V30 7935 P 1109.41 1.17771 8.83182 0
M  V30 7936 O 1109.19 2.07206 9.98732 0
M  V30 7937 O 1108.62 -0.0743816 8.81969 0
M  V30 7938 O 1109.16 1.97652 7.47304 0
M  V30 7939 C 1110.1 3.01133 7.08783 0
M  V30 7940 C 1109.37 4.12613 6.37049 0
M  V30 7941 O 1109.16 3.72827 4.97879 0
M  V30 7942 C 1107.97 4.45085 6.88694 0
M  V30 7943 O 1107.58 5.7877 6.5624 0
M  V30 7944 C 1107.09 3.47817 6.12078 0
M  V30 7945 C 1107.8 3.39414 4.77697 0
M  V30 7946 N 1107.75 2.04615 4.15333 0
M  V30 7947 H 1110.59 3.41248 7.98759 0
M  V30 7948 H 1110.86 2.5837 6.41742 0
M  V30 7949 H 1110 5.02657 6.42673 0
M  V30 7950 P 1106.03 6.144 6.45285 0
M  V30 7951 O 1105.81 7.54673 6.86199 0
M  V30 7952 O 1105.24 5.12391 7.179 0
M  V30 7953 O 1105.78 5.99158 4.88404 0
M  V30 7954 C 1106.72 6.60234 3.96415 0
M  V30 7955 C 1105.99 7.08259 2.72856 0
M  V30 7956 O 1105.78 5.9427 1.83651 0
M  V30 7957 C 1104.59 7.64886 2.9555 0
M  V30 7958 O 1104.2 8.53963 1.90717 0
M  V30 7959 C 1103.71 6.4116 2.90739 0
M  V30 7960 C 1104.42 5.55375 1.86963 0
M  V30 7961 N 1104.37 4.09664 2.15742 0
M  V30 7962 H 1107.21 7.45574 4.45629 0
M  V30 7963 H 1107.48 5.86232 3.67314 0
M  V30 7964 H 1106.62 7.84412 2.24479 0
M  V30 7965 P 1102.65 8.7635 1.60911 0
M  V30 7966 O 1102.43 10.1388 1.11561 0
M  V30 7967 O 1101.86 8.36503 2.79617 0
M  V30 7968 O 1102.4 7.71806 0.42951 0
M  V30 7969 C 1103.34 7.67148 -0.673689 0
M  V30 7970 C 1102.61 7.33374 -1.95559 0
M  V30 7971 O 1102.4 5.88721 -2.00726 0
M  V30 7972 C 1101.21 7.92526 -2.10483 0
M  V30 7973 O 1100.82 8.02971 -3.47653 0
M  V30 7974 C 1100.33 6.89602 -1.41652 0
M  V30 7975 C 1101.04 5.59201 -1.75185 0
M  V30 7976 N 1100.99 4.58301 -0.657969 0
M  V30 7977 H 1103.83 8.65116 -0.777161 0
M  V30 7978 H 1104.1 6.9022 -0.46725 0
M  V30 7979 H 1103.24 7.66548 -2.79458 0
M  V30 7980 H 1100.58 5.16165 -2.65183 0
M  V30 7981 H 1100.3 7.06433 -0.329384 0
M  V30 7982 H 1099.31 6.90926 -1.82021 0
M  V30 7983 H 1101.14 8.90873 -1.62657 0
M  V30 7984 P 1099.27 8.03563 -3.84925 0
M  V30 7985 O 1099.05 8.85821 -5.0569 0
M  V30 7986 O 1098.48 8.41101 -2.65469 0
M  V30 7987 O 1099.02 6.4965 -4.18908 0
M  V30 7988 C 1099.96 5.81037 -5.05421 0
M  V30 7989 C 1099.23 4.78366 -5.89277 0
M  V30 7990 O 1099.02 3.58302 -5.08433 0
M  V30 7991 C 1097.83 5.17448 -6.36119 0
M  V30 7992 O 1097.44 4.45271 -7.53232 0
M  V30 7993 C 1096.95 4.74639 -5.19936 0
M  V30 7994 C 1097.66 3.49432 -4.70418 0
M  V30 7995 N 1097.61 3.31776 -3.22945 0
M  V30 7996 H 1100.45 6.54213 -5.71376 0
M  V30 7997 H 1100.72 5.30492 -4.44033 0
M  V30 7998 H 1099.86 4.55889 -6.76652 0
M  V30 7999 P 1095.89 4.23843 -7.83734 0
M  V30 8000 O 1095.67 4.19407 -9.29784 0
M  V30 8001 O 1095.1 5.24426 -7.09156 0
M  V30 8002 O 1095.64 2.7935 -7.20758 0
M  V30 8003 C 1096.58 1.7299 -7.50419 0
M  V30 8004 C 1095.85 0.406376 -7.57911 0
M  V30 8005 O 1095.64 -0.0897726 -6.21935 0
M  V30 8006 C 1094.45 0.447224 -8.1878 0
M  V30 8007 O 1094.06 -0.825065 -8.71101 0
M  V30 8008 C 1093.57 0.783801 -6.99623 0
M  V30 8009 C 1094.28 0.0619192 -5.85967 0
M  V30 8010 N 1094.23 0.7859 -4.56281 0
M  V30 8011 H 1097.07 1.93423 -8.4679 0
M  V30 8012 H 1097.34 1.68181 -6.71046 0
M  V30 8013 H 1096.48 -0.289041 -8.15388 0
M  V30 8014 P 1092.51 -1.17771 -8.83182 0
M  V30 8015 O 1092.29 -2.07206 -9.98732 0
M  V30 8016 O 1091.72 0.0743816 -8.81969 0
M  V30 8017 O 1092.26 -1.97652 -7.47304 0
M  V30 8018 C 1093.2 -3.01133 -7.08783 0
M  V30 8019 C 1092.47 -4.12613 -6.37049 0
M  V30 8020 O 1092.26 -3.72827 -4.97879 0
M  V30 8021 C 1091.07 -4.45085 -6.88694 0
M  V30 8022 O 1090.68 -5.7877 -6.5624 0
M  V30 8023 C 1090.19 -3.47817 -6.12078 0
M  V30 8024 C 1090.9 -3.39414 -4.77697 0
M  V30 8025 N 1090.85 -2.04615 -4.15333 0
M  V30 8026 C 1090.93 -0.803897 -4.75249 0
M  V30 8027 N 1090.85 0.197615 -3.91502 0
M  V30 8028 C 1090.71 -0.413002 -2.66823 0
M  V30 8029 C 1090.58 0.157221 -1.38007 0
M  V30 8030 N 1090.46 -0.833136 -0.390236 0
M  V30 8031 C 1090.46 -2.19402 -0.623885 0
M  V30 8032 N 1090.33 -2.97622 0.449677 0
M  V30 8033 N 1090.59 -2.73005 -1.83601 0
M  V30 8034 C 1090.71 -1.78786 -2.80935 0
M  V30 8035 H 1093.69 -3.41248 -7.98759 0
M  V30 8036 H 1093.96 -2.5837 -6.41742 0
M  V30 8037 H 1093.1 -5.02657 -6.42673 0
M  V30 8038 P 1089.13 -6.144 -6.45285 0
M  V30 8039 O 1088.91 -7.54673 -6.86199 0
M  V30 8040 O 1088.34 -5.12391 -7.179 0
M  V30 8041 O 1088.88 -5.99158 -4.88404 0
M  V30 8042 C 1089.82 -6.60234 -3.96415 0
M  V30 8043 C 1089.09 -7.08259 -2.72856 0
M  V30 8044 O 1088.88 -5.9427 -1.83651 0
M  V30 8045 C 1087.69 -7.64886 -2.9555 0
M  V30 8046 O 1087.3 -8.53963 -1.90717 0
M  V30 8047 C 1086.81 -6.4116 -2.90739 0
M  V30 8048 C 1087.52 -5.55375 -1.86963 0
M  V30 8049 N 1087.47 -4.09448 -2.16152 0
M  V30 8050 H 1090.31 -7.45574 -4.45629 0
M  V30 8051 H 1090.58 -5.85864 -3.679 0
M  V30 8052 H 1089.72 -7.84412 -2.24479 0
M  V30 8053 H 1087.06 -5.73457 -0.888562 0
M  V30 8054 H 1086.78 -5.90877 -3.88583 0
M  V30 8055 H 1085.79 -6.6596 -2.58858 0
M  V30 8056 H 1087.62 -8.16339 -3.92049 0
M  V30 8057 P 1085.75 -8.7635 -1.60911 0
M  V30 8058 O 1085.53 -10.1388 -1.11561 0
M  V30 8059 O 1084.96 -8.36503 -2.79617 0
M  V30 8060 O 1085.5 -7.71806 -0.42951 0
M  V30 8061 C 1086.44 -7.67148 0.673689 0
M  V30 8062 C 1085.71 -7.33374 1.95559 0
M  V30 8063 O 1085.5 -5.88721 2.00726 0
M  V30 8064 C 1084.31 -7.92526 2.10483 0
M  V30 8065 O 1083.92 -8.02971 3.47653 0
M  V30 8066 C 1083.43 -6.89602 1.41652 0
M  V30 8067 C 1084.14 -5.59201 1.75185 0
M  V30 8068 N 1084.09 -4.58235 0.662552 0
M  V30 8069 H 1086.93 -8.65116 0.777161 0
M  V30 8070 H 1087.2 -6.90173 0.474152 0
M  V30 8071 H 1086.34 -7.66548 2.79458 0
M  V30 8072 P 1082.37 -8.03563 3.84925 0
M  V30 8073 O 1082.15 -8.85821 5.0569 0
M  V30 8074 O 1081.58 -8.41101 2.65469 0
M  V30 8075 O 1082.12 -6.4965 4.18908 0
M  V30 8076 C 1083.06 -5.81037 5.05421 0
M  V30 8077 C 1082.33 -4.78366 5.89277 0
M  V30 8078 O 1082.12 -3.58302 5.08433 0
M  V30 8079 C 1080.93 -5.17448 6.36119 0
M  V30 8080 O 1080.54 -4.45271 7.53232 0
M  V30 8081 C 1080.05 -4.74639 5.19936 0
M  V30 8082 C 1080.76 -3.49432 4.70418 0
M  V30 8083 N 1080.71 -3.31776 3.22945 0
M  V30 8084 H 1083.55 -6.54213 5.71376 0
M  V30 8085 H 1083.82 -5.30492 4.44033 0
M  V30 8086 H 1082.96 -4.55889 6.76652 0
M  V30 8087 P 1078.99 -4.23843 7.83734 0
M  V30 8088 O 1078.77 -4.19407 9.29784 0
M  V30 8089 O 1078.2 -5.24426 7.09156 0
M  V30 8090 O 1078.74 -2.7935 7.20758 0
M  V30 8091 C 1079.68 -1.7299 7.50419 0
M  V30 8092 C 1078.95 -0.406376 7.57911 0
M  V30 8093 O 1078.74 0.0897726 6.21935 0
M  V30 8094 C 1077.55 -0.447224 8.1878 0
M  V30 8095 O 1077.16 0.825065 8.71101 0
M  V30 8096 C 1076.67 -0.783801 6.99623 0
M  V30 8097 C 1077.38 -0.0619192 5.85967 0
M  V30 8098 N 1077.33 -0.7859 4.56281 0
M  V30 8099 H 1080.17 -1.93423 8.4679 0
M  V30 8100 H 1080.44 -1.68181 6.71046 0
M  V30 8101 H 1079.58 0.289041 8.15388 0
M  V30 8102 P 1075.61 1.17771 8.83182 0
M  V30 8103 O 1075.39 2.07206 9.98732 0
M  V30 8104 O 1074.82 -0.0743816 8.81969 0
M  V30 8105 O 1075.36 1.97678 7.474 0
M  V30 8106 C 1076.3 3.01133 7.08783 0
M  V30 8107 C 1075.57 4.1203 6.37546 0
M  V30 8108 O 1075.36 3.72887 4.9796 0
M  V30 8109 C 1074.17 4.45085 6.88694 0
M  V30 8110 O 1073.78 5.78836 6.56315 0
M  V30 8111 C 1073.29 3.47817 6.12078 0
M  V30 8112 C 1074 3.39414 4.77697 0
M  V30 8113 N 1073.95 2.04615 4.15333 0
M  V30 8114 C 1073.8 1.96929 2.77162 0
M  V30 8115 O 1073.71 3.02017 2.12006 0
M  V30 8116 N 1073.75 0.55485 2.24237 0
M  V30 8117 C 1073.85 -0.367808 2.9169 0
M  V30 8118 N 1073.8 -1.53426 2.29427 0
M  V30 8119 C 1074 -0.319148 4.33828 0
M  V30 8120 C 1074.05 0.920672 4.90433 0
M  V30 8121 H 1076.79 3.41209 7.98667 0
M  V30 8122 H 1077.06 2.5837 6.41742 0
M  V30 8123 H 1076.2 5.02718 6.42752 0
M  V30 8124 H 1073.54 4.11779 4.09026 0
M  V30 8125 H 1073.26 2.49661 6.61772 0
M  V30 8126 H 1072.27 3.86674 6.00946 0
M  V30 8127 H 1074.1 4.29991 7.97006 0
M  V30 8128 H 1074.18 1.00589 5.98303 0
M  V30 8129 H 1074.07 -1.22639 4.93799 0
M  V30 8130 H 1073.69 -1.56819 1.27167 0
M  V30 8131 H 1073.88 -2.41062 2.83063 0
M  V30 8132 P 1072.23 6.144 6.45285 0
M  V30 8133 O 1072.01 7.54673 6.86199 0
M  V30 8134 O 1071.44 5.12391 7.179 0
M  V30 8135 O 1071.98 5.99158 4.88404 0
M  V30 8136 C 1072.92 6.60234 3.96415 0
M  V30 8137 C 1072.19 7.08259 2.72856 0
M  V30 8138 O 1071.98 5.9427 1.83651 0
M  V30 8139 C 1070.79 7.64886 2.9555 0
M  V30 8140 O 1070.4 8.53963 1.90717 0
M  V30 8141 C 1069.91 6.4116 2.90739 0
M  V30 8142 C 1070.62 5.55375 1.86963 0
M  V30 8143 N 1070.57 4.09664 2.15742 0
M  V30 8144 H 1073.41 7.45574 4.45629 0
M  V30 8145 H 1073.68 5.86232 3.67314 0
M  V30 8146 H 1072.82 7.84412 2.24479 0
M  V30 8147 P 1068.85 8.7635 1.60911 0
M  V30 8148 O 1068.63 10.1388 1.11561 0
M  V30 8149 O 1068.06 8.36503 2.79617 0
M  V30 8150 O 1068.6 7.71806 0.42951 0
M  V30 8151 C 1069.54 7.67148 -0.673689 0
M  V30 8152 C 1068.81 7.33374 -1.95559 0
M  V30 8153 O 1068.6 5.88721 -2.00726 0
M  V30 8154 C 1067.41 7.92526 -2.10483 0
M  V30 8155 O 1067.02 8.02971 -3.47653 0
M  V30 8156 C 1066.53 6.89602 -1.41652 0
M  V30 8157 C 1067.24 5.59201 -1.75185 0
M  V30 8158 N 1067.19 4.58235 -0.662552 0
M  V30 8159 H 1070.03 8.65116 -0.777161 0
M  V30 8160 H 1070.3 6.90173 -0.474152 0
M  V30 8161 H 1069.44 7.66548 -2.79458 0
M  V30 8162 P 1065.47 8.03563 -3.84925 0
M  V30 8163 O 1065.25 8.85821 -5.0569 0
M  V30 8164 O 1064.68 8.41101 -2.65469 0
M  V30 8165 O 1065.22 6.4965 -4.18908 0
M  V30 8166 C 1066.16 5.81037 -5.05421 0
M  V30 8167 C 1065.43 4.78366 -5.89277 0
M  V30 8168 O 1065.22 3.58302 -5.08433 0
M  V30 8169 C 1064.03 5.17448 -6.36119 0
M  V30 8170 O 1063.64 4.45271 -7.53232 0
M  V30 8171 C 1063.15 4.74639 -5.19936 0
M  V30 8172 C 1063.86 3.49432 -4.70418 0
M  V30 8173 N 1063.81 3.31776 -3.22945 0
M  V30 8174 H 1066.65 6.54213 -5.71376 0
M  V30 8175 H 1066.92 5.30492 -4.44033 0
M  V30 8176 H 1066.06 4.55889 -6.76652 0
M  V30 8177 P 1062.09 4.23843 -7.83734 0
M  V30 8178 O 1061.87 4.19407 -9.29784 0
M  V30 8179 O 1061.3 5.24426 -7.09156 0
M  V30 8180 O 1061.84 2.7935 -7.20758 0
M  V30 8181 C 1062.78 1.7299 -7.50419 0
M  V30 8182 C 1062.05 0.406376 -7.57911 0
M  V30 8183 O 1061.84 -0.0897726 -6.21935 0
M  V30 8184 C 1060.65 0.447224 -8.1878 0
M  V30 8185 O 1060.26 -0.825065 -8.71101 0
M  V30 8186 C 1059.77 0.783801 -6.99623 0
M  V30 8187 C 1060.48 0.0619192 -5.85967 0
M  V30 8188 N 1060.43 0.7859 -4.56281 0
M  V30 8189 H 1063.27 1.93423 -8.4679 0
M  V30 8190 H 1063.54 1.68181 -6.71046 0
M  V30 8191 H 1062.68 -0.289041 -8.15388 0
M  V30 8192 P 1058.71 -1.17771 -8.83182 0
M  V30 8193 O 1058.49 -2.07206 -9.98732 0
M  V30 8194 O 1057.92 0.0743816 -8.81969 0
M  V30 8195 O 1058.46 -1.97652 -7.47304 0
M  V30 8196 C 1059.4 -3.01055 -7.08599 0
M  V30 8197 C 1058.67 -4.12613 -6.37049 0
M  V30 8198 O 1058.46 -3.72827 -4.97879 0
M  V30 8199 C 1057.27 -4.45719 -6.88164 0
M  V30 8200 O 1056.88 -5.7877 -6.5624 0
M  V30 8201 C 1056.39 -3.47768 -6.11991 0
M  V30 8202 C 1057.1 -3.39356 -4.77615 0
M  V30 8203 N 1057.05 -2.04571 -4.15244 0
M  V30 8204 C 1056.9 -1.98587 -2.78314 0
M  V30 8205 O 1056.81 -2.98134 -2.08835 0
M  V30 8206 N 1056.86 -0.714467 -2.24925 0
M  V30 8207 C 1056.95 0.470001 -2.94169 0
M  V30 8208 O 1056.9 1.55587 -2.35195 0
M  V30 8209 C 1057.1 0.312541 -4.36783 0
M  V30 8210 C 1057.21 1.57711 -5.16352 0
M  V30 8211 C 1057.15 -0.914512 -4.92583 0
M  V30 8212 H 1059.89 -3.41169 -7.98575 0
M  V30 8213 H 1060.16 -2.58295 -6.41556 0
M  V30 8214 H 1059.3 -5.02657 -6.42673 0
M  V30 8215 H 1056.64 -4.11637 -4.08885 0
M  V30 8216 H 1056.36 -2.49626 -6.61679 0
M  V30 8217 H 1055.37 -3.86566 -6.00778 0
M  V30 8218 H 1057.2 -4.29943 -7.96918 0
M  V30 8219 H 1057.28 -1.00937 -6.00374 0
M  V30 8220 H 1056.25 1.80153 -5.63503 0
M  V30 8221 H 1057.98 1.4566 -5.94104 0
M  V30 8222 H 1057.49 2.40664 -4.49645 0
M  V30 8223 H 1056.76 -0.647622 -1.25697 0
M  V30 8224 P 1055.33 -6.144 -6.45285 0
M  V30 8225 O 1055.11 -7.54673 -6.86199 0
M  V30 8226 O 1054.54 -5.12391 -7.179 0
M  V30 8227 O 1055.08 -5.99236 -4.88467 0
M  V30 8228 C 1056.02 -6.60234 -3.96415 0
M  V30 8229 C 1055.29 -7.08079 -2.736 0
M  V30 8230 O 1055.08 -5.94365 -1.8368 0
M  V30 8231 C 1053.89 -7.64886 -2.9555 0
M  V30 8232 O 1053.5 -8.5406 -1.90739 0
M  V30 8233 C 1053.01 -6.4116 -2.90739 0
M  V30 8234 C 1053.72 -5.55375 -1.86963 0
M  V30 8235 N 1053.67 -4.09664 -2.15742 0
M  V30 8236 C 1053.52 -3.22231 -1.08477 0
M  V30 8237 O 1053.43 -3.68951 0.0600489 0
M  V30 8238 N 1053.47 -1.76692 -1.48799 0
M  V30 8239 C 1053.57 -1.41695 -2.57602 0
M  V30 8240 N 1053.52 -0.107296 -2.75791 0
M  V30 8241 C 1053.72 -2.29178 -3.69733 0
M  V30 8242 C 1053.77 -3.62753 -3.42653 0
M  V30 8243 H 1056.51 -7.45488 -4.45578 0
M  V30 8244 H 1056.78 -5.86232 -3.67314 0
M  V30 8245 H 1055.92 -7.84508 -2.24507 0
M  V30 8246 H 1053.26 -5.73556 -0.888715 0
M  V30 8247 H 1052.98 -5.9096 -3.88638 0
M  V30 8248 H 1051.99 -6.66053 -2.58894 0
M  V30 8249 H 1053.82 -8.16339 -3.92049 0
M  V30 8250 H 1053.9 -4.33052 -4.24913 0
M  V30 8251 H 1053.79 -1.9103 -4.71577 0
M  V30 8252 H 1053.41 0.521221 -1.95056 0
M  V30 8253 H 1053.6 0.286429 -3.70695 0
M  V30 8254 P 1051.95 -8.7635 -1.60911 0
M  V30 8255 O 1051.73 -10.1388 -1.11561 0
M  V30 8256 O 1051.16 -8.36503 -2.79617 0
M  V30 8257 O 1051.7 -7.71806 -0.42951 0
M  V30 8258 C 1052.64 -7.67148 0.673689 0
M  V30 8259 C 1051.91 -7.33374 1.95559 0
M  V30 8260 O 1051.7 -5.88721 2.00726 0
M  V30 8261 C 1050.51 -7.92526 2.10483 0
M  V30 8262 O 1050.12 -8.02971 3.47653 0
M  V30 8263 C 1049.63 -6.89602 1.41652 0
M  V30 8264 C 1050.34 -5.59201 1.75185 0
M  V30 8265 N 1050.29 -4.58301 0.657969 0
M  V30 8266 H 1053.13 -8.65116 0.777161 0
M  V30 8267 H 1053.4 -6.9022 0.46725 0
M  V30 8268 H 1052.54 -7.66548 2.79458 0
M  V30 8269 H 1049.88 -5.16165 2.65183 0
M  V30 8270 H 1049.6 -7.06433 0.329384 0
M  V30 8271 H 1048.61 -6.90926 1.82021 0
M  V30 8272 H 1050.44 -8.90873 1.62657 0
M  V30 8273 P 1048.57 -8.03563 3.84925 0
M  V30 8274 O 1048.35 -8.85821 5.0569 0
M  V30 8275 O 1047.78 -8.41101 2.65469 0
M  V30 8276 O 1048.32 -6.4965 4.18908 0
M  V30 8277 C 1049.26 -5.81037 5.05421 0
M  V30 8278 C 1048.53 -4.78366 5.89277 0
M  V30 8279 O 1048.32 -3.58302 5.08433 0
M  V30 8280 C 1047.13 -5.17448 6.36119 0
M  V30 8281 O 1046.74 -4.45271 7.53232 0
M  V30 8282 C 1046.25 -4.74639 5.19936 0
M  V30 8283 C 1046.96 -3.49432 4.70418 0
M  V30 8284 N 1046.91 -3.31776 3.22945 0
M  V30 8285 C 1046.99 -4.27147 2.23315 0
M  V30 8286 N 1046.91 -3.78447 1.02186 0
M  V30 8287 C 1046.77 -2.41001 1.21732 0
M  V30 8288 C 1046.64 -1.36111 0.27694 0
M  V30 8289 N 1046.52 -0.113683 0.912949 0
M  V30 8290 C 1046.52 0.0846396 2.27943 0
M  V30 8291 N 1046.39 1.34737 2.6916 0
M  V30 8292 N 1046.65 -0.902521 3.16379 0
M  V30 8293 C 1046.77 -2.11937 2.56849 0
M  V30 8294 H 1049.75 -6.54213 5.71376 0
M  V30 8295 H 1050.02 -5.30492 4.44033 0
M  V30 8296 H 1049.16 -4.55889 6.76652 0
M  V30 8297 P 1045.19 -4.23843 7.83734 0
M  V30 8298 O 1044.97 -4.19407 9.29784 0
M  V30 8299 O 1044.4 -5.24426 7.09156 0
M  V30 8300 O 1044.94 -2.7935 7.20758 0
M  V30 8301 C 1045.88 -1.7299 7.50419 0
M  V30 8302 C 1045.15 -0.406376 7.57911 0
M  V30 8303 O 1044.94 0.0897726 6.21935 0
M  V30 8304 C 1043.75 -0.447224 8.1878 0
M  V30 8305 O 1043.36 0.825065 8.71101 0
M  V30 8306 C 1042.87 -0.783801 6.99623 0
M  V30 8307 C 1043.58 -0.0619192 5.85967 0
M  V30 8308 N 1043.53 -0.790462 4.56202 0
M  V30 8309 C 1043.61 -2.13895 4.34171 0
M  V30 8310 N 1043.54 -2.46449 3.08687 0
M  V30 8311 C 1043.39 -1.2525 2.43697 0
M  V30 8312 C 1043.26 -0.914535 1.07318 0
M  V30 8313 N 1043.25 -1.80782 0.0887348 0
M  V30 8314 N 1043.14 0.386745 0.768133 0
M  V30 8315 C 1043.15 1.28096 1.75159 0
M  V30 8316 N 1043.27 1.09708 3.04861 0
M  V30 8317 C 1043.39 -0.214857 3.32306 0
M  V30 8318 H 1046.37 -1.93423 8.4679 0
M  V30 8319 H 1046.64 -1.68852 6.70877 0
M  V30 8320 H 1045.78 0.289041 8.15388 0
M  V30 8321 H 1043.12 0.927006 5.72848 0
M  V30 8322 H 1042.84 -1.86973 6.82036 0
M  V30 8323 H 1041.85 -0.403953 7.13357 0
M  V30 8324 H 1043.68 -1.20599 8.97534 0
M  V30 8325 H 1043.73 -2.86846 5.14318 0
M  V30 8326 H 1043.34 -2.81082 0.302037 0
M  V30 8327 H 1043.16 -1.49688 -0.889064 0
M  V30 8328 H 1043.05 2.31317 1.43855 0
M  V30 8329 P 1041.81 1.17771 8.83182 0
M  V30 8330 O 1041.59 2.07206 9.98732 0
M  V30 8331 O 1041.02 -0.0743816 8.81969 0
M  V30 8332 O 1041.56 1.97652 7.47304 0
M  V30 8333 C 1042.5 3.01133 7.08783 0
M  V30 8334 C 1041.77 4.12613 6.37049 0
M  V30 8335 O 1041.56 3.72827 4.97879 0
M  V30 8336 C 1040.37 4.45085 6.88694 0
M  V30 8337 O 1039.98 5.7877 6.5624 0
M  V30 8338 C 1039.49 3.47817 6.12078 0
M  V30 8339 C 1040.2 3.39414 4.77697 0
M  V30 8340 N 1040.15 2.04615 4.15333 0
M  V30 8341 H 1042.99 3.41248 7.98759 0
M  V30 8342 H 1043.26 2.5837 6.41742 0
M  V30 8343 H 1042.4 5.02657 6.42673 0
M  V30 8344 P 1038.43 6.144 6.45285 0
M  V30 8345 O 1038.21 7.54673 6.86199 0
M  V30 8346 O 1037.64 5.12391 7.179 0
M  V30 8347 O 1038.18 5.99158 4.88404 0
M  V30 8348 C 1039.12 6.60234 3.96415 0
M  V30 8349 C 1038.39 7.08259 2.72856 0
M  V30 8350 O 1038.18 5.9427 1.83651 0
M  V30 8351 C 1036.99 7.64886 2.9555 0
M  V30 8352 O 1036.6 8.53963 1.90717 0
M  V30 8353 C 1036.11 6.4116 2.90739 0
M  V30 8354 C 1036.82 5.55375 1.86963 0
M  V30 8355 N 1036.77 4.09448 2.16152 0
M  V30 8356 H 1039.61 7.45574 4.45629 0
M  V30 8357 H 1039.88 5.85864 3.679 0
M  V30 8358 H 1039.02 7.84412 2.24479 0
M  V30 8359 H 1036.36 5.73457 0.888562 0
M  V30 8360 H 1036.08 5.90877 3.88583 0
M  V30 8361 H 1035.09 6.6596 2.58858 0
M  V30 8362 H 1036.92 8.16339 3.92049 0
M  V30 8363 P 1035.05 8.7635 1.60911 0
M  V30 8364 O 1034.83 10.1388 1.11561 0
M  V30 8365 O 1034.26 8.36503 2.79617 0
M  V30 8366 O 1034.8 7.71806 0.42951 0
M  V30 8367 C 1035.74 7.67148 -0.673689 0
M  V30 8368 C 1035.01 7.33374 -1.95559 0
M  V30 8369 O 1034.8 5.88721 -2.00726 0
M  V30 8370 C 1033.61 7.92526 -2.10483 0
M  V30 8371 O 1033.22 8.02971 -3.47653 0
M  V30 8372 C 1032.73 6.89602 -1.41652 0
M  V30 8373 C 1033.44 5.59201 -1.75185 0
M  V30 8374 N 1033.39 4.58235 -0.662552 0
M  V30 8375 H 1036.23 8.65116 -0.777161 0
M  V30 8376 H 1036.5 6.90173 -0.474152 0
M  V30 8377 H 1035.64 7.66548 -2.79458 0
M  V30 8378 P 1031.67 8.03563 -3.84925 0
M  V30 8379 O 1031.45 8.85821 -5.0569 0
M  V30 8380 O 1030.88 8.41101 -2.65469 0
M  V30 8381 O 1031.42 6.4965 -4.18908 0
M  V30 8382 C 1032.36 5.81037 -5.05421 0
M  V30 8383 C 1031.63 4.78366 -5.89277 0
M  V30 8384 O 1031.42 3.58302 -5.08433 0
M  V30 8385 C 1030.23 5.17448 -6.36119 0
M  V30 8386 O 1029.84 4.45271 -7.53232 0
M  V30 8387 C 1029.35 4.74639 -5.19936 0
M  V30 8388 C 1030.06 3.49432 -4.70418 0
M  V30 8389 N 1030.01 3.31776 -3.22945 0
M  V30 8390 H 1032.85 6.54213 -5.71376 0
M  V30 8391 H 1033.12 5.30492 -4.44033 0
M  V30 8392 H 1032.26 4.55889 -6.76652 0
M  V30 8393 P 1028.29 4.23843 -7.83734 0
M  V30 8394 O 1028.07 4.19407 -9.29784 0
M  V30 8395 O 1027.5 5.24426 -7.09156 0
M  V30 8396 O 1028.04 2.7935 -7.20758 0
M  V30 8397 C 1028.98 1.7299 -7.50419 0
M  V30 8398 C 1028.25 0.406376 -7.57911 0
M  V30 8399 O 1028.04 -0.0897726 -6.21935 0
M  V30 8400 C 1026.85 0.447224 -8.1878 0
M  V30 8401 O 1026.46 -0.825065 -8.71101 0
M  V30 8402 C 1025.97 0.783801 -6.99623 0
M  V30 8403 C 1026.68 0.0619192 -5.85967 0
M  V30 8404 N 1026.63 0.7859 -4.56281 0
M  V30 8405 H 1029.47 1.93423 -8.4679 0
M  V30 8406 H 1029.74 1.68181 -6.71046 0
M  V30 8407 H 1028.88 -0.289041 -8.15388 0
M  V30 8408 P 1024.91 -1.17771 -8.83182 0
M  V30 8409 O 1024.69 -2.07206 -9.98732 0
M  V30 8410 O 1024.12 0.0743816 -8.81969 0
M  V30 8411 O 1024.66 -1.97652 -7.47304 0
M  V30 8412 C 1025.6 -3.01133 -7.08783 0
M  V30 8413 C 1024.87 -4.12613 -6.37049 0
M  V30 8414 O 1024.66 -3.72827 -4.97879 0
M  V30 8415 C 1023.47 -4.45085 -6.88694 0
M  V30 8416 O 1023.08 -5.7877 -6.5624 0
M  V30 8417 C 1022.59 -3.47817 -6.12078 0
M  V30 8418 C 1023.3 -3.39414 -4.77697 0
M  V30 8419 N 1023.25 -2.04615 -4.15333 0
M  V30 8420 H 1026.09 -3.41248 -7.98759 0
M  V30 8421 H 1026.36 -2.5837 -6.41742 0
M  V30 8422 H 1025.5 -5.02657 -6.42673 0
M  V30 8423 P 1021.53 -6.144 -6.45285 0
M  V30 8424 O 1021.31 -7.54673 -6.86199 0
M  V30 8425 O 1020.74 -5.12391 -7.179 0
M  V30 8426 O 1021.28 -5.99158 -4.88404 0
M  V30 8427 C 1022.22 -6.60062 -3.96313 0
M  V30 8428 C 1021.49 -7.08259 -2.72856 0
M  V30 8429 O 1021.28 -5.9427 -1.83651 0
M  V30 8430 C 1020.09 -7.65087 -2.94749 0
M  V30 8431 O 1019.7 -8.53963 -1.90717 0
M  V30 8432 C 1019.21 -6.41069 -2.90698 0
M  V30 8433 C 1019.92 -5.5528 -1.86931 0
M  V30 8434 N 1019.87 -4.09575 -2.15696 0
M  V30 8435 C 1019.72 -3.24249 -1.08435 0
M  V30 8436 O 1019.63 -3.63946 0.0628747 0
M  V30 8437 N 1019.68 -1.90009 -1.39973 0
M  V30 8438 C 1019.77 -1.34884 -2.65614 0
M  V30 8439 O 1019.72 -0.123716 -2.81728 0
M  V30 8440 C 1019.92 -2.3145 -3.71736 0
M  V30 8441 C 1020.03 -1.75913 -5.10438 0
M  V30 8442 C 1019.97 -3.63518 -3.44754 0
M  V30 8443 H 1022.71 -7.45402 -4.45526 0
M  V30 8444 H 1022.98 -5.86062 -3.67208 0
M  V30 8445 H 1022.12 -7.84412 -2.24479 0
M  V30 8446 H 1019.46 -5.73358 -0.888409 0
M  V30 8447 H 1019.18 -5.90877 -3.88583 0
M  V30 8448 H 1018.19 -6.65867 -2.58821 0
M  V30 8449 H 1020.02 -8.16248 -3.92006 0
M  V30 8450 H 1020.1 -4.34551 -4.26383 0
M  V30 8451 H 1019.07 -1.85471 -5.61775 0
M  V30 8452 H 1020.8 -2.31364 -5.66257 0
M  V30 8453 H 1020.31 -0.695936 -5.05229 0
M  V30 8454 H 1019.58 -1.26277 -0.63625 0
M  V30 8455 P 1018.15 -8.7635 -1.60911 0
M  V30 8456 O 1017.93 -10.1388 -1.11561 0
M  V30 8457 O 1017.36 -8.36503 -2.79617 0
M  V30 8458 O 1017.9 -7.71806 -0.42951 0
M  V30 8459 C 1018.84 -7.67148 0.673689 0
M  V30 8460 C 1018.11 -7.33374 1.95559 0
M  V30 8461 O 1017.9 -5.88721 2.00726 0
M  V30 8462 C 1016.71 -7.92526 2.10483 0
M  V30 8463 O 1016.32 -8.02971 3.47653 0
M  V30 8464 C 1015.83 -6.89602 1.41652 0
M  V30 8465 C 1016.54 -5.59201 1.75185 0
M  V30 8466 N 1016.49 -4.58235 0.662552 0
M  V30 8467 H 1019.33 -8.65116 0.777161 0
M  V30 8468 H 1019.61 -6.90173 0.474152 0
M  V30 8469 H 1018.74 -7.66548 2.79458 0
M  V30 8470 P 1014.77 -8.03563 3.84925 0
M  V30 8471 O 1014.55 -8.85821 5.0569 0
M  V30 8472 O 1013.98 -8.41101 2.65469 0
M  V30 8473 O 1014.52 -6.4965 4.18908 0
M  V30 8474 C 1015.46 -5.81037 5.05421 0
M  V30 8475 C 1014.73 -4.78366 5.89277 0
M  V30 8476 O 1014.52 -3.58302 5.08433 0
M  V30 8477 C 1013.33 -5.17448 6.36119 0
M  V30 8478 O 1012.94 -4.45271 7.53232 0
M  V30 8479 C 1012.45 -4.74639 5.19936 0
M  V30 8480 C 1013.16 -3.49432 4.70418 0
M  V30 8481 N 1013.11 -3.31776 3.22945 0
M  V30 8482 H 1015.95 -6.54213 5.71376 0
M  V30 8483 H 1016.23 -5.30492 4.44033 0
M  V30 8484 H 1015.36 -4.55889 6.76652 0
M  V30 8485 P 1011.39 -4.23843 7.83734 0
M  V30 8486 O 1011.17 -4.19407 9.29784 0
M  V30 8487 O 1010.6 -5.24426 7.09156 0
M  V30 8488 O 1011.14 -2.7935 7.20758 0
M  V30 8489 C 1012.08 -1.7299 7.50419 0
M  V30 8490 C 1011.35 -0.406376 7.57911 0
M  V30 8491 O 1011.14 0.0897726 6.21935 0
M  V30 8492 C 1009.95 -0.447224 8.1878 0
M  V30 8493 O 1009.56 0.825065 8.71101 0
M  V30 8494 C 1009.07 -0.783801 6.99623 0
M  V30 8495 C 1009.78 -0.0619192 5.85967 0
M  V30 8496 N 1009.73 -0.7859 4.56281 0
M  V30 8497 H 1012.57 -1.93423 8.4679 0
M  V30 8498 H 1012.85 -1.68181 6.71046 0
M  V30 8499 H 1011.98 0.289041 8.15388 0
M  V30 8500 P 1008.01 1.17771 8.83182 0
M  V30 8501 O 1007.79 2.07206 9.98732 0
M  V30 8502 O 1007.22 -0.0743816 8.81969 0
M  V30 8503 O 1007.76 1.97652 7.47304 0
M  V30 8504 C 1008.7 3.01133 7.08783 0
M  V30 8505 C 1007.97 4.12613 6.37049 0
M  V30 8506 O 1007.76 3.72827 4.97879 0
M  V30 8507 C 1006.57 4.45085 6.88694 0
M  V30 8508 O 1006.18 5.7877 6.5624 0
M  V30 8509 C 1005.69 3.47817 6.12078 0
M  V30 8510 C 1006.4 3.39414 4.77697 0
M  V30 8511 N 1006.35 2.04615 4.15333 0
M  V30 8512 H 1009.19 3.41248 7.98759 0
M  V30 8513 H 1009.47 2.5837 6.41742 0
M  V30 8514 H 1008.6 5.02657 6.42673 0
M  V30 8515 P 1004.63 6.144 6.45285 0
M  V30 8516 O 1004.41 7.54673 6.86199 0
M  V30 8517 O 1003.84 5.12391 7.179 0
M  V30 8518 O 1004.38 5.99158 4.88404 0
M  V30 8519 C 1005.32 6.60234 3.96415 0
M  V30 8520 C 1004.59 7.08259 2.72856 0
M  V30 8521 O 1004.38 5.9427 1.83651 0
M  V30 8522 C 1003.19 7.64886 2.9555 0
M  V30 8523 O 1002.8 8.53963 1.90717 0
M  V30 8524 C 1002.31 6.4116 2.90739 0
M  V30 8525 C 1003.02 5.55375 1.86963 0
M  V30 8526 N 1002.97 4.09664 2.15742 0
M  V30 8527 H 1005.81 7.45574 4.45629 0
M  V30 8528 H 1006.09 5.86232 3.67314 0
M  V30 8529 H 1005.22 7.84412 2.24479 0
M  V30 8530 P 1001.25 8.7635 1.60911 0
M  V30 8531 O 1001.03 10.1388 1.11561 0
M  V30 8532 O 1000.46 8.36503 2.79617 0
M  V30 8533 O 1001 7.71806 0.42951 0
M  V30 8534 C 1001.94 7.67148 -0.673689 0
M  V30 8535 C 1001.21 7.33374 -1.95559 0
M  V30 8536 O 1001 5.88721 -2.00726 0
M  V30 8537 C 999.814 7.92526 -2.10483 0
M  V30 8538 O 999.424 8.02971 -3.47653 0
M  V30 8539 C 998.934 6.89602 -1.41652 0
M  V30 8540 C 999.644 5.59201 -1.75185 0
M  V30 8541 N 999.594 4.58235 -0.662552 0
M  V30 8542 H 1002.43 8.65116 -0.777161 0
M  V30 8543 H 1002.71 6.90173 -0.474152 0
M  V30 8544 H 1001.84 7.66548 -2.79458 0
M  V30 8545 P 997.874 8.03563 -3.84925 0
M  V30 8546 O 997.654 8.85821 -5.0569 0
M  V30 8547 O 997.084 8.41101 -2.65469 0
M  V30 8548 O 997.624 6.4965 -4.18908 0
M  V30 8549 C 998.564 5.81037 -5.05421 0
M  V30 8550 C 997.834 4.78366 -5.89277 0
M  V30 8551 O 997.624 3.58302 -5.08433 0
M  V30 8552 C 996.434 5.17448 -6.36119 0
M  V30 8553 O 996.044 4.45271 -7.53232 0
M  V30 8554 C 995.554 4.74639 -5.19936 0
M  V30 8555 C 996.264 3.49432 -4.70418 0
M  V30 8556 N 996.214 3.31776 -3.22945 0
M  V30 8557 H 999.053 6.54213 -5.71376 0
M  V30 8558 H 999.325 5.30492 -4.44033 0
M  V30 8559 H 998.457 4.55889 -6.76652 0
M  V30 8560 P 994.494 4.23843 -7.83734 0
M  V30 8561 O 994.274 4.19407 -9.29784 0
M  V30 8562 O 993.704 5.24426 -7.09156 0
M  V30 8563 O 994.244 2.7935 -7.20758 0
M  V30 8564 C 995.184 1.72945 -7.50224 0
M  V30 8565 C 994.454 0.406376 -7.57911 0
M  V30 8566 O 994.244 -0.0897726 -6.21935 0
M  V30 8567 C 993.054 0.438983 -8.18724 0
M  V30 8568 O 992.664 -0.825065 -8.71101 0
M  V30 8569 C 992.174 0.783689 -6.99524 0
M  V30 8570 C 992.884 0.0619086 -5.85867 0
M  V30 8571 N 992.834 0.78573 -4.56183 0
M  V30 8572 C 992.684 0.0292889 -3.41887 0
M  V30 8573 O 992.594 -1.18445 -3.4419 0
M  V30 8574 N 992.644 0.744061 -2.23964 0
M  V30 8575 C 992.734 2.10932 -2.10362 0
M  V30 8576 O 992.684 2.64117 -0.98825 0
M  V30 8577 C 992.884 2.8202 -3.34994 0
M  V30 8578 C 992.994 4.31095 -3.25037 0
M  V30 8579 C 992.934 2.15547 -4.52261 0
M  V30 8580 H 995.675 1.93379 -8.46595 0
M  V30 8581 H 995.944 1.68132 -6.70852 0
M  V30 8582 H 995.077 -0.289041 -8.15388 0
M  V30 8583 H 992.422 -0.926847 -5.72749 0
M  V30 8584 H 992.143 1.86973 -6.82036 0
M  V30 8585 H 991.151 0.403896 -7.13257 0
M  V30 8586 H 992.985 1.20585 -8.97435 0
M  V30 8587 H 993.056 2.71231 -5.45042 0
M  V30 8588 H 992.026 4.76966 -3.49992 0
M  V30 8589 H 993.763 4.67047 -3.95024 0
M  V30 8590 H 993.275 4.58996 -2.22312 0
M  V30 8591 H 992.539 0.214893 -1.39758 0
M  V30 8592 P 991.114 -1.17771 -8.83182 0
M  V30 8593 O 990.894 -2.07206 -9.98732 0
M  V30 8594 O 990.324 0.0743816 -8.81969 0
M  V30 8595 O 990.864 -1.97652 -7.47304 0
M  V30 8596 C 991.804 -3.01133 -7.08783 0
M  V30 8597 C 991.074 -4.12613 -6.37049 0
M  V30 8598 O 990.864 -3.72827 -4.97879 0
M  V30 8599 C 989.674 -4.45085 -6.88694 0
M  V30 8600 O 989.284 -5.7877 -6.5624 0
M  V30 8601 C 988.794 -3.47817 -6.12078 0
M  V30 8602 C 989.504 -3.39414 -4.77697 0
M  V30 8603 N 989.454 -2.04199 -4.15538 0
M  V30 8604 C 989.534 -0.821545 -4.76977 0
M  V30 8605 N 989.464 0.1794 -3.94592 0
M  V30 8606 C 989.314 -0.419121 -2.70776 0
M  V30 8607 C 989.184 0.109072 -1.40577 0
M  V30 8608 N 989.174 1.4104 -1.1344 0
M  V30 8609 N 989.064 -0.764381 -0.39411 0
M  V30 8610 C 989.074 -2.06587 -0.664135 0
M  V30 8611 N 989.194 -2.67948 -1.82153 0
M  V30 8612 C 989.314 -1.77942 -2.8147 0
M  V30 8613 H 992.293 -3.41248 -7.98759 0
M  V30 8614 H 992.565 -2.57728 -6.42 0
M  V30 8615 H 991.697 -5.02657 -6.42673 0
M  V30 8616 H 989.042 -4.11708 -4.08956 0
M  V30 8617 H 988.762 -2.49626 -6.61679 0
M  V30 8618 H 987.771 -3.8662 -6.00862 0
M  V30 8619 H 989.605 -4.29991 -7.97006 0
M  V30 8620 H 989.646 -0.702451 -5.84696 0
M  V30 8621 H 989.265 2.09647 -1.89651 0
M  V30 8622 H 989.076 1.73358 -0.160575 0
M  V30 8623 H 988.968 -2.71695 0.195838 0
M  V30 8624 P 987.734 -6.144 -6.45285 0
M  V30 8625 O 987.514 -7.54673 -6.86199 0
M  V30 8626 O 986.944 -5.12391 -7.179 0
M  V30 8627 O 987.484 -5.99158 -4.88404 0
M  V30 8628 C 988.424 -6.60234 -3.96415 0
M  V30 8629 C 987.694 -7.08259 -2.72856 0
M  V30 8630 O 987.484 -5.9427 -1.83651 0
M  V30 8631 C 986.294 -7.64886 -2.9555 0
M  V30 8632 O 985.904 -8.53963 -1.90717 0
M  V30 8633 C 985.414 -6.4116 -2.90739 0
M  V30 8634 C 986.124 -5.55375 -1.86963 0
M  V30 8635 N 986.074 -4.09664 -2.15742 0
M  V30 8636 H 988.913 -7.45574 -4.45629 0
M  V30 8637 H 989.185 -5.86232 -3.67314 0
M  V30 8638 H 988.317 -7.84412 -2.24479 0
M  V30 8639 P 984.354 -8.7635 -1.60911 0
M  V30 8640 O 984.134 -10.1388 -1.11561 0
M  V30 8641 O 983.564 -8.36503 -2.79617 0
M  V30 8642 O 984.104 -7.71806 -0.42951 0
M  V30 8643 C 985.044 -7.67148 0.673689 0
M  V30 8644 C 984.314 -7.33374 1.95559 0
M  V30 8645 O 984.104 -5.88721 2.00726 0
M  V30 8646 C 982.914 -7.92526 2.10483 0
M  V30 8647 O 982.524 -8.02971 3.47653 0
M  V30 8648 C 982.034 -6.89602 1.41652 0
M  V30 8649 C 982.744 -5.59201 1.75185 0
M  V30 8650 N 982.694 -4.58301 0.657969 0
M  V30 8651 H 985.533 -8.65116 0.777161 0
M  V30 8652 H 985.805 -6.9022 0.46725 0
M  V30 8653 H 984.937 -7.66548 2.79458 0
M  V30 8654 H 982.282 -5.16165 2.65183 0
M  V30 8655 H 982.002 -7.06433 0.329384 0
M  V30 8656 H 981.011 -6.90926 1.82021 0
M  V30 8657 H 982.845 -8.90873 1.62657 0
M  V30 8658 P 980.974 -8.03563 3.84925 0
M  V30 8659 O 980.754 -8.85821 5.0569 0
M  V30 8660 O 980.184 -8.41101 2.65469 0
M  V30 8661 O 980.724 -6.4965 4.18908 0
M  V30 8662 C 981.664 -5.81037 5.05421 0
M  V30 8663 C 980.934 -4.78366 5.89277 0
M  V30 8664 O 980.724 -3.58302 5.08433 0
M  V30 8665 C 979.534 -5.17448 6.36119 0
M  V30 8666 O 979.144 -4.45271 7.53232 0
M  V30 8667 C 978.654 -4.74639 5.19936 0
M  V30 8668 C 979.364 -3.49432 4.70418 0
M  V30 8669 N 979.314 -3.31776 3.22945 0
M  V30 8670 H 982.153 -6.54213 5.71376 0
M  V30 8671 H 982.425 -5.30492 4.44033 0
M  V30 8672 H 981.557 -4.55889 6.76652 0
M  V30 8673 P 977.594 -4.23843 7.83734 0
M  V30 8674 O 977.374 -4.19407 9.29784 0
M  V30 8675 O 976.804 -5.24426 7.09156 0
M  V30 8676 O 977.344 -2.7935 7.20758 0
M  V30 8677 C 978.284 -1.7299 7.50419 0
M  V30 8678 C 977.554 -0.406376 7.57911 0
M  V30 8679 O 977.344 0.0897726 6.21935 0
M  V30 8680 C 976.154 -0.447224 8.1878 0
M  V30 8681 O 975.764 0.825065 8.71101 0
M  V30 8682 C 975.274 -0.783801 6.99623 0
M  V30 8683 C 975.984 -0.0619192 5.85967 0
M  V30 8684 N 975.934 -0.7859 4.56281 0
M  V30 8685 H 978.773 -1.93423 8.4679 0
M  V30 8686 H 979.045 -1.68181 6.71046 0
M  V30 8687 H 978.177 0.289041 8.15388 0
M  V30 8688 P 974.214 1.17771 8.83182 0
M  V30 8689 O 973.994 2.07206 9.98732 0
M  V30 8690 O 973.424 -0.0743816 8.81969 0
M  V30 8691 O 973.964 1.97652 7.47304 0
M  V30 8692 C 974.904 3.01133 7.08783 0
M  V30 8693 C 974.174 4.12613 6.37049 0
M  V30 8694 O 973.964 3.72827 4.97879 0
M  V30 8695 C 972.774 4.45085 6.88694 0
M  V30 8696 O 972.384 5.7877 6.5624 0
M  V30 8697 C 971.894 3.47817 6.12078 0
M  V30 8698 C 972.604 3.39414 4.77697 0
M  V30 8699 N 972.554 2.04615 4.15333 0
M  V30 8700 H 975.393 3.41248 7.98759 0
M  V30 8701 H 975.665 2.5837 6.41742 0
M  V30 8702 H 974.797 5.02657 6.42673 0
M  V30 8703 P 970.834 6.144 6.45285 0
M  V30 8704 O 970.614 7.54673 6.86199 0
M  V30 8705 O 970.044 5.12391 7.179 0
M  V30 8706 O 970.584 5.99158 4.88404 0
M  V30 8707 C 971.524 6.60234 3.96415 0
M  V30 8708 C 970.794 7.08259 2.72856 0
M  V30 8709 O 970.584 5.9427 1.83651 0
M  V30 8710 C 969.394 7.64886 2.9555 0
M  V30 8711 O 969.004 8.53963 1.90717 0
M  V30 8712 C 968.514 6.4116 2.90739 0
M  V30 8713 C 969.224 5.55375 1.86963 0
M  V30 8714 N 969.174 4.09664 2.15742 0
M  V30 8715 H 972.013 7.45574 4.45629 0
M  V30 8716 H 972.285 5.86232 3.67314 0
M  V30 8717 H 971.417 7.84412 2.24479 0
M  V30 8718 P 967.454 8.7635 1.60911 0
M  V30 8719 O 967.234 10.1388 1.11561 0
M  V30 8720 O 966.664 8.36503 2.79617 0
M  V30 8721 O 967.204 7.71806 0.42951 0
M  V30 8722 C 968.144 7.67148 -0.673689 0
M  V30 8723 C 967.414 7.33374 -1.95559 0
M  V30 8724 O 967.204 5.88721 -2.00726 0
M  V30 8725 C 966.014 7.92526 -2.10483 0
M  V30 8726 O 965.624 8.02971 -3.47653 0
M  V30 8727 C 965.134 6.89602 -1.41652 0
M  V30 8728 C 965.844 5.59201 -1.75185 0
M  V30 8729 N 965.794 4.58301 -0.657969 0
M  V30 8730 H 968.633 8.65116 -0.777161 0
M  V30 8731 H 968.905 6.9022 -0.46725 0
M  V30 8732 H 968.037 7.66548 -2.79458 0
M  V30 8733 H 965.382 5.16165 -2.65183 0
M  V30 8734 H 965.102 7.06433 -0.329384 0
M  V30 8735 H 964.111 6.90926 -1.82021 0
M  V30 8736 H 965.945 8.90873 -1.62657 0
M  V30 8737 P 964.074 8.03563 -3.84925 0
M  V30 8738 O 963.854 8.85821 -5.0569 0
M  V30 8739 O 963.284 8.41101 -2.65469 0
M  V30 8740 O 963.824 6.4965 -4.18908 0
M  V30 8741 C 964.764 5.81037 -5.05421 0
M  V30 8742 C 964.034 4.78366 -5.89277 0
M  V30 8743 O 963.824 3.58302 -5.08433 0
M  V30 8744 C 962.634 5.17448 -6.36119 0
M  V30 8745 O 962.244 4.45271 -7.53232 0
M  V30 8746 C 961.754 4.74639 -5.19936 0
M  V30 8747 C 962.464 3.49432 -4.70418 0
M  V30 8748 N 962.414 3.31776 -3.22945 0
M  V30 8749 H 965.253 6.54213 -5.71376 0
M  V30 8750 H 965.525 5.30492 -4.44033 0
M  V30 8751 H 964.657 4.55889 -6.76652 0
M  V30 8752 P 960.694 4.23843 -7.83734 0
M  V30 8753 O 960.474 4.19407 -9.29784 0
M  V30 8754 O 959.904 5.24426 -7.09156 0
M  V30 8755 O 960.444 2.7935 -7.20758 0
M  V30 8756 C 961.384 1.7299 -7.50419 0
M  V30 8757 C 960.654 0.406376 -7.57911 0
M  V30 8758 O 960.444 -0.0897726 -6.21935 0
M  V30 8759 C 959.254 0.447224 -8.1878 0
M  V30 8760 O 958.864 -0.825065 -8.71101 0
M  V30 8761 C 958.374 0.783801 -6.99623 0
M  V30 8762 C 959.084 0.0619192 -5.85967 0
M  V30 8763 N 959.034 0.7859 -4.56281 0
M  V30 8764 C 959.114 2.14308 -4.31736 0
M  V30 8765 N 959.034 2.46106 -3.05116 0
M  V30 8766 C 958.894 1.23422 -2.4014 0
M  V30 8767 C 958.764 0.938381 -1.02409 0
M  V30 8768 N 958.644 -0.444647 -0.805413 0
M  V30 8769 C 958.644 -1.40829 -1.79435 0
M  V30 8770 N 958.514 -2.67213 -1.38558 0
M  V30 8771 N 958.774 -1.12947 -3.09005 0
M  V30 8772 C 958.894 0.204887 -3.32369 0
M  V30 8773 H 961.873 1.93423 -8.4679 0
M  V30 8774 H 962.145 1.68181 -6.71046 0
M  V30 8775 H 961.277 -0.289041 -8.15388 0
M  V30 8776 P 957.314 -1.17771 -8.83182 0
M  V30 8777 O 957.094 -2.07206 -9.98732 0
M  V30 8778 O 956.524 0.0743816 -8.81969 0
M  V30 8779 O 957.064 -1.97652 -7.47304 0
M  V30 8780 C 958.004 -3.01133 -7.08783 0
M  V30 8781 C 957.274 -4.12613 -6.37049 0
M  V30 8782 O 957.064 -3.72827 -4.97879 0
M  V30 8783 C 955.874 -4.45085 -6.88694 0
M  V30 8784 O 955.484 -5.7877 -6.5624 0
M  V30 8785 C 954.994 -3.47817 -6.12078 0
M  V30 8786 C 955.704 -3.39414 -4.77697 0
M  V30 8787 N 955.654 -2.04615 -4.15333 0
M  V30 8788 H 958.493 -3.41248 -7.98759 0
M  V30 8789 H 958.765 -2.5837 -6.41742 0
M  V30 8790 H 957.897 -5.02657 -6.42673 0
M  V30 8791 P 953.934 -6.144 -6.45285 0
M  V30 8792 O 953.714 -7.54673 -6.86199 0
M  V30 8793 O 953.144 -5.12391 -7.179 0
M  V30 8794 O 953.684 -5.99158 -4.88404 0
M  V30 8795 C 954.624 -6.60062 -3.96313 0
M  V30 8796 C 953.894 -7.08259 -2.72856 0
M  V30 8797 O 953.684 -5.9427 -1.83651 0
M  V30 8798 C 952.494 -7.65087 -2.94749 0
M  V30 8799 O 952.104 -8.53963 -1.90717 0
M  V30 8800 C 951.614 -6.41069 -2.90698 0
M  V30 8801 C 952.324 -5.5528 -1.86931 0
M  V30 8802 N 952.274 -4.09575 -2.15696 0
M  V30 8803 C 952.124 -3.24249 -1.08435 0
M  V30 8804 O 952.034 -3.63946 0.0628747 0
M  V30 8805 N 952.084 -1.90009 -1.39973 0
M  V30 8806 C 952.174 -1.34884 -2.65614 0
M  V30 8807 C 952.324 -2.3145 -3.71736 0
M  V30 8808 C 952.374 -3.63518 -3.44754 0
M  V30 8809 H 955.115 -7.45402 -4.45526 0
M  V30 8810 H 955.384 -5.86062 -3.67208 0
M  V30 8811 H 954.517 -7.84412 -2.24479 0
M  V30 8812 H 951.862 -5.73358 -0.888409 0
M  V30 8813 H 951.583 -5.90877 -3.88583 0
M  V30 8814 H 950.591 -6.65867 -2.58821 0
M  V30 8815 H 952.425 -8.16248 -3.92006 0
M  V30 8816 H 952.496 -4.34551 -4.26383 0
M  V30 8817 P 950.554 -8.7635 -1.60911 0
M  V30 8818 O 950.334 -10.1388 -1.11561 0
M  V30 8819 O 949.764 -8.36503 -2.79617 0
M  V30 8820 O 950.304 -7.71806 -0.42951 0
M  V30 8821 C 951.244 -7.67148 0.673689 0
M  V30 8822 C 950.514 -7.33374 1.95559 0
M  V30 8823 O 950.304 -5.88721 2.00726 0
M  V30 8824 C 949.114 -7.92526 2.10483 0
M  V30 8825 O 948.724 -8.02971 3.47653 0
M  V30 8826 C 948.234 -6.89602 1.41652 0
M  V30 8827 C 948.944 -5.59201 1.75185 0
M  V30 8828 N 948.894 -4.58235 0.662552 0
M  V30 8829 H 951.733 -8.65116 0.777161 0
M  V30 8830 H 952.005 -6.90173 0.474152 0
M  V30 8831 H 951.137 -7.66548 2.79458 0
M  V30 8832 P 947.174 -8.03563 3.84925 0
M  V30 8833 O 946.954 -8.85821 5.0569 0
M  V30 8834 O 946.384 -8.41101 2.65469 0
M  V30 8835 O 946.924 -6.49734 4.18962 0
M  V30 8836 C 947.864 -5.81037 5.05421 0
M  V30 8837 C 947.134 -4.79018 5.88876 0
M  V30 8838 O 946.924 -3.58359 5.08515 0
M  V30 8839 C 945.734 -5.17448 6.36119 0
M  V30 8840 O 945.344 -4.45322 7.53318 0
M  V30 8841 C 944.854 -4.74639 5.19936 0
M  V30 8842 C 945.564 -3.49432 4.70418 0
M  V30 8843 N 945.514 -3.31776 3.22945 0
M  V30 8844 C 945.364 -2.02742 2.72939 0
M  V30 8845 O 945.274 -1.08301 3.52749 0
M  V30 8846 N 945.314 -1.96117 1.22063 0
M  V30 8847 C 945.414 -2.8878 0.551566 0
M  V30 8848 N 945.364 -2.65609 -0.750198 0
M  V30 8849 C 945.564 -4.22457 1.03707 0
M  V30 8850 C 945.614 -4.37979 2.39113 0
M  V30 8851 H 948.354 -6.54138 5.7131 0
M  V30 8852 H 948.624 -5.30492 4.44033 0
M  V30 8853 H 947.757 -4.55945 6.76735 0
M  V30 8854 H 945.102 -2.6176 5.18021 0
M  V30 8855 H 944.822 -5.52233 4.41941 0
M  V30 8856 H 943.831 -4.52045 5.53452 0
M  V30 8857 H 945.665 -6.25124 6.55234 0
M  V30 8858 H 945.737 -5.37936 2.80552 0
M  V30 8859 H 945.635 -5.07528 0.359553 0
M  V30 8860 H 945.247 -1.69403 -1.09847 0
M  V30 8861 H 945.443 -3.43701 -1.41792 0
M  V30 8862 P 943.794 -4.23843 7.83734 0
M  V30 8863 O 943.574 -4.19407 9.29784 0
M  V30 8864 O 943.004 -5.24426 7.09156 0
M  V30 8865 O 943.544 -2.7935 7.20758 0
M  V30 8866 C 944.484 -1.72945 7.50224 0
M  V30 8867 C 943.754 -0.406376 7.57911 0
M  V30 8868 O 943.544 0.0897726 6.21935 0
M  V30 8869 C 942.354 -0.438983 8.18724 0
M  V30 8870 O 941.964 0.825065 8.71101 0
M  V30 8871 C 941.474 -0.783689 6.99524 0
M  V30 8872 C 942.184 -0.0619086 5.85867 0
M  V30 8873 N 942.134 -0.78573 4.56183 0
M  V30 8874 C 941.984 -0.0292889 3.41887 0
M  V30 8875 O 941.894 1.18445 3.4419 0
M  V30 8876 N 941.944 -0.744061 2.23964 0
M  V30 8877 C 942.034 -2.10932 2.10362 0
M  V30 8878 C 942.184 -2.8202 3.34994 0
M  V30 8879 C 942.234 -2.15547 4.52261 0
M  V30 8880 H 944.975 -1.93379 8.46595 0
M  V30 8881 H 945.244 -1.68132 6.70852 0
M  V30 8882 H 944.377 0.289041 8.15388 0
M  V30 8883 H 941.722 0.926847 5.72749 0
M  V30 8884 H 941.443 -1.86973 6.82036 0
M  V30 8885 H 940.451 -0.403896 7.13257 0
M  V30 8886 H 942.285 -1.20585 8.97435 0
M  V30 8887 H 942.356 -2.71231 5.45042 0
M  V30 8888 P 940.414 1.17771 8.83182 0
M  V30 8889 O 940.194 2.07206 9.98732 0
M  V30 8890 O 939.624 -0.0743816 8.81969 0
M  V30 8891 O 940.164 1.97652 7.47304 0
M  V30 8892 C 941.104 3.01133 7.08783 0
M  V30 8893 C 940.374 4.12613 6.37049 0
M  V30 8894 O 940.164 3.72827 4.97879 0
M  V30 8895 C 938.974 4.45085 6.88694 0
M  V30 8896 O 938.584 5.7877 6.5624 0
M  V30 8897 C 938.094 3.47817 6.12078 0
M  V30 8898 C 938.804 3.39414 4.77697 0
M  V30 8899 N 938.754 2.04615 4.15333 0
M  V30 8900 H 941.593 3.41248 7.98759 0
M  V30 8901 H 941.865 2.5837 6.41742 0
M  V30 8902 H 940.997 5.02657 6.42673 0
M  V30 8903 P 937.034 6.144 6.45285 0
M  V30 8904 O 936.814 7.54673 6.86199 0
M  V30 8905 O 936.244 5.12391 7.179 0
M  V30 8906 O 936.784 5.99158 4.88404 0
M  V30 8907 C 937.724 6.60234 3.96415 0
M  V30 8908 C 936.994 7.08259 2.72856 0
M  V30 8909 O 936.784 5.9427 1.83651 0
M  V30 8910 C 935.594 7.64886 2.9555 0
M  V30 8911 O 935.204 8.53963 1.90717 0
M  V30 8912 C 934.714 6.4116 2.90739 0
M  V30 8913 C 935.424 5.55375 1.86963 0
M  V30 8914 N 935.374 4.09448 2.16152 0
M  V30 8915 H 938.213 7.45574 4.45629 0
M  V30 8916 H 938.485 5.85864 3.679 0
M  V30 8917 H 937.617 7.84412 2.24479 0
M  V30 8918 H 934.962 5.73457 0.888562 0
M  V30 8919 H 934.682 5.90877 3.88583 0
M  V30 8920 H 933.691 6.6596 2.58858 0
M  V30 8921 H 935.525 8.16339 3.92049 0
M  V30 8922 P 933.655 8.7635 1.60911 0
M  V30 8923 O 933.435 10.1388 1.11561 0
M  V30 8924 O 932.865 8.36503 2.79617 0
M  V30 8925 O 933.405 7.71806 0.42951 0
M  V30 8926 C 934.345 7.67148 -0.673689 0
M  V30 8927 C 933.615 7.33374 -1.95559 0
M  V30 8928 O 933.405 5.88721 -2.00726 0
M  V30 8929 C 932.215 7.92526 -2.10483 0
M  V30 8930 O 931.825 8.02971 -3.47653 0
M  V30 8931 C 931.335 6.89602 -1.41652 0
M  V30 8932 C 932.045 5.59201 -1.75185 0
M  V30 8933 N 931.995 4.58235 -0.662552 0
M  V30 8934 H 934.834 8.65116 -0.777161 0
M  V30 8935 H 935.106 6.90173 -0.474152 0
M  V30 8936 H 934.238 7.66548 -2.79458 0
M  V30 8937 P 930.275 8.03563 -3.84925 0
M  V30 8938 O 930.055 8.85821 -5.0569 0
M  V30 8939 O 929.485 8.41101 -2.65469 0
M  V30 8940 O 930.025 6.4965 -4.18908 0
M  V30 8941 C 930.965 5.81037 -5.05421 0
M  V30 8942 C 930.235 4.78366 -5.89277 0
M  V30 8943 O 930.025 3.58302 -5.08433 0
M  V30 8944 C 928.835 5.17448 -6.36119 0
M  V30 8945 O 928.445 4.45271 -7.53232 0
M  V30 8946 C 927.955 4.74639 -5.19936 0
M  V30 8947 C 928.665 3.49432 -4.70418 0
M  V30 8948 N 928.615 3.31776 -3.22945 0
M  V30 8949 H 931.454 6.54213 -5.71376 0
M  V30 8950 H 931.726 5.30492 -4.44033 0
M  V30 8951 H 930.858 4.55889 -6.76652 0
M  V30 8952 P 926.895 4.23843 -7.83734 0
M  V30 8953 O 926.675 4.19407 -9.29784 0
M  V30 8954 O 926.105 5.24426 -7.09156 0
M  V30 8955 O 926.645 2.7935 -7.20758 0
M  V30 8956 C 927.585 1.7299 -7.50419 0
M  V30 8957 C 926.855 0.406376 -7.57911 0
M  V30 8958 O 926.645 -0.0897726 -6.21935 0
M  V30 8959 C 925.455 0.447224 -8.1878 0
M  V30 8960 O 925.065 -0.825065 -8.71101 0
M  V30 8961 C 924.575 0.783801 -6.99623 0
M  V30 8962 C 925.285 0.0619192 -5.85967 0
M  V30 8963 N 925.235 0.790462 -4.56202 0
M  V30 8964 H 928.074 1.93423 -8.4679 0
M  V30 8965 H 928.346 1.68852 -6.70877 0
M  V30 8966 H 927.478 -0.289041 -8.15388 0
M  V30 8967 H 924.823 -0.927006 -5.72848 0
M  V30 8968 H 924.543 1.86973 -6.82036 0
M  V30 8969 H 923.552 0.403953 -7.13357 0
M  V30 8970 H 925.386 1.20599 -8.97534 0
M  V30 8971 P 923.515 -1.17771 -8.83182 0
M  V30 8972 O 923.295 -2.07206 -9.98732 0
M  V30 8973 O 922.725 0.0743816 -8.81969 0
M  V30 8974 O 923.265 -1.97652 -7.47304 0
M  V30 8975 C 924.205 -3.01133 -7.08783 0
M  V30 8976 C 923.475 -4.12613 -6.37049 0
M  V30 8977 O 923.265 -3.72827 -4.97879 0
M  V30 8978 C 922.075 -4.45085 -6.88694 0
M  V30 8979 O 921.685 -5.7877 -6.5624 0
M  V30 8980 C 921.195 -3.47817 -6.12078 0
M  V30 8981 C 921.905 -3.39414 -4.77697 0
M  V30 8982 N 921.855 -2.04615 -4.15333 0
M  V30 8983 H 924.694 -3.41248 -7.98759 0
M  V30 8984 H 924.966 -2.5837 -6.41742 0
M  V30 8985 H 924.098 -5.02657 -6.42673 0
M  V30 8986 P 920.135 -6.144 -6.45285 0
M  V30 8987 O 919.915 -7.54673 -6.86199 0
M  V30 8988 O 919.345 -5.12391 -7.179 0
M  V30 8989 O 919.885 -5.99158 -4.88404 0
M  V30 8990 C 920.825 -6.60234 -3.96415 0
M  V30 8991 C 920.095 -7.08259 -2.72856 0
M  V30 8992 O 919.885 -5.9427 -1.83651 0
M  V30 8993 C 918.695 -7.64886 -2.9555 0
M  V30 8994 O 918.305 -8.53963 -1.90717 0
M  V30 8995 C 917.815 -6.4116 -2.90739 0
M  V30 8996 C 918.525 -5.55375 -1.86963 0
M  V30 8997 N 918.475 -4.09664 -2.15742 0
M  V30 8998 H 921.314 -7.45574 -4.45629 0
M  V30 8999 H 921.586 -5.86232 -3.67314 0
M  V30 9000 H 920.718 -7.84412 -2.24479 0
M  V30 9001 P 916.755 -8.7635 -1.60911 0
M  V30 9002 O 916.535 -10.1388 -1.11561 0
M  V30 9003 O 915.965 -8.36503 -2.79617 0
M  V30 9004 O 916.505 -7.71806 -0.42951 0
M  V30 9005 C 917.445 -7.66948 0.673514 0
M  V30 9006 C 916.715 -7.33374 1.95559 0
M  V30 9007 O 916.505 -5.88721 2.00726 0
M  V30 9008 C 915.315 -7.92218 2.1125 0
M  V30 9009 O 914.925 -8.02971 3.47653 0
M  V30 9010 C 914.435 -6.89504 1.41631 0
M  V30 9011 C 915.145 -5.59106 1.75155 0
M  V30 9012 N 915.095 -4.58136 0.662409 0
M  V30 9013 C 914.945 -3.26059 1.02863 0
M  V30 9014 O 914.855 -2.90743 2.19009 0
M  V30 9015 N 914.905 -2.35995 -0.0155585 0
M  V30 9016 C 914.995 -2.65248 -1.35603 0
M  V30 9017 O 914.945 -1.75605 -2.20651 0
M  V30 9018 C 915.145 -4.05747 -1.64698 0
M  V30 9019 C 915.255 -4.42345 -3.09553 0
M  V30 9020 C 915.195 -4.96734 -0.652411 0
M  V30 9021 H 917.936 -8.64917 0.776982 0
M  V30 9022 H 918.205 -6.89974 0.474015 0
M  V30 9023 H 917.338 -7.66548 2.79458 0
M  V30 9024 H 914.683 -5.16076 2.65138 0
M  V30 9025 H 914.404 -7.06433 0.329384 0
M  V30 9026 H 913.412 -6.90829 1.81996 0
M  V30 9027 H 915.246 -8.90774 1.62639 0
M  V30 9028 H 915.317 -6.02181 -0.895285 0
M  V30 9029 H 914.287 -4.80252 -3.45468 0
M  V30 9030 H 916.024 -5.20015 -3.22119 0
M  V30 9031 H 915.536 -3.53269 -3.67833 0
M  V30 9032 H 914.8 -1.39558 0.227499 0
M  V30 9033 P 913.375 -8.03563 3.84925 0
M  V30 9034 O 913.155 -8.85821 5.0569 0
M  V30 9035 O 912.585 -8.41101 2.65469 0
M  V30 9036 O 913.125 -6.4965 4.18908 0
M  V30 9037 C 914.065 -5.80886 5.05289 0
M  V30 9038 C 913.335 -4.78366 5.89277 0
M  V30 9039 O 913.125 -3.58302 5.08433 0
M  V30 9040 C 911.935 -5.16748 6.36559 0
M  V30 9041 O 911.545 -4.45271 7.53232 0
M  V30 9042 C 911.055 -4.74572 5.19863 0
M  V30 9043 C 911.765 -3.49373 4.70338 0
M  V30 9044 N 911.715 -3.31704 3.22876 0
M  V30 9045 C 911.565 -2.03326 2.74871 0
M  V30 9046 O 911.475 -1.06486 3.48076 0
M  V30 9047 N 911.525 -1.91838 1.37456 0
M  V30 9048 C 911.615 -2.94295 0.462035 0
M  V30 9049 O 911.565 -2.71763 -0.752928 0
M  V30 9050 C 911.765 -4.25064 1.05249 0
M  V30 9051 C 911.875 -5.39815 0.095697 0
M  V30 9052 C 911.815 -4.40214 2.39192 0
M  V30 9053 H 914.556 -6.54063 5.71245 0
M  V30 9054 H 914.825 -5.30339 4.43905 0
M  V30 9055 H 913.958 -4.55889 6.76652 0
M  V30 9056 H 911.303 -2.6167 5.17842 0
M  V30 9057 H 911.024 -5.52155 4.41878 0
M  V30 9058 H 910.032 -4.51918 5.53297 0
M  V30 9059 H 911.866 -6.25055 6.55162 0
M  V30 9060 H 911.937 -5.39798 2.81523 0
M  V30 9061 H 910.907 -5.91593 0.0279582 0
M  V30 9062 H 912.644 -6.10038 0.450573 0
M  V30 9063 H 912.156 -5.02007 -0.89937 0
M  V30 9064 H 911.42 -0.995326 1.00435 0
M  V30 9065 P 909.995 -4.23843 7.83734 0
M  V30 9066 O 909.775 -4.19407 9.29784 0
M  V30 9067 O 909.205 -5.24426 7.09156 0
M  V30 9068 O 909.745 -2.7935 7.20758 0
M  V30 9069 C 910.685 -1.72945 7.50224 0
M  V30 9070 C 909.955 -0.406376 7.57911 0
M  V30 9071 O 909.745 0.0897726 6.21935 0
M  V30 9072 C 908.555 -0.438983 8.18724 0
M  V30 9073 O 908.165 0.825065 8.71101 0
M  V30 9074 C 907.675 -0.783689 6.99524 0
M  V30 9075 C 908.385 -0.0619086 5.85867 0
M  V30 9076 N 908.335 -0.78573 4.56183 0
M  V30 9077 C 908.185 -0.0292889 3.41887 0
M  V30 9078 O 908.095 1.18445 3.4419 0
M  V30 9079 N 908.145 -0.744061 2.23964 0
M  V30 9080 C 908.235 -2.10932 2.10362 0
M  V30 9081 C 908.385 -2.8202 3.34994 0
M  V30 9082 C 908.435 -2.15547 4.52261 0
M  V30 9083 H 911.176 -1.93379 8.46595 0
M  V30 9084 H 911.445 -1.68132 6.70852 0
M  V30 9085 H 910.578 0.289041 8.15388 0
M  V30 9086 H 907.923 0.926847 5.72749 0
M  V30 9087 H 907.644 -1.86973 6.82036 0
M  V30 9088 H 906.652 -0.403896 7.13257 0
M  V30 9089 H 908.486 -1.20585 8.97435 0
M  V30 9090 H 908.557 -2.71231 5.45042 0
M  V30 9091 P 906.615 1.17771 8.83182 0
M  V30 9092 O 906.395 2.07206 9.98732 0
M  V30 9093 O 905.825 -0.0743816 8.81969 0
M  V30 9094 O 906.365 1.97652 7.47304 0
M  V30 9095 C 907.305 3.01055 7.08599 0
M  V30 9096 C 906.575 4.12613 6.37049 0
M  V30 9097 O 906.365 3.72827 4.97879 0
M  V30 9098 C 905.175 4.45719 6.88164 0
M  V30 9099 O 904.785 5.7877 6.5624 0
M  V30 9100 C 904.295 3.47768 6.11991 0
M  V30 9101 C 905.005 3.39356 4.77615 0
M  V30 9102 N 904.955 2.04571 4.15244 0
M  V30 9103 C 904.805 1.98587 2.78314 0
M  V30 9104 O 904.715 2.98134 2.08835 0
M  V30 9105 N 904.765 0.714467 2.24925 0
M  V30 9106 C 904.855 -0.470001 2.94169 0
M  V30 9107 O 904.805 -1.55587 2.35195 0
M  V30 9108 C 905.005 -0.312541 4.36783 0
M  V30 9109 C 905.115 -1.57711 5.16352 0
M  V30 9110 C 905.055 0.914512 4.92583 0
M  V30 9111 H 907.796 3.41169 7.98575 0
M  V30 9112 H 908.065 2.58295 6.41556 0
M  V30 9113 H 907.198 5.02657 6.42673 0
M  V30 9114 H 904.543 4.11637 4.08885 0
M  V30 9115 H 904.264 2.49626 6.61679 0
M  V30 9116 H 903.272 3.86566 6.00778 0
M  V30 9117 H 905.106 4.29943 7.96918 0
M  V30 9118 H 905.177 1.00937 6.00374 0
M  V30 9119 H 904.147 -1.80153 5.63503 0
M  V30 9120 H 905.884 -1.4566 5.94104 0
M  V30 9121 H 905.396 -2.40664 4.49645 0
M  V30 9122 H 904.66 0.647622 1.25697 0
M  V30 9123 P 903.235 6.144 6.45285 0
M  V30 9124 O 903.015 7.54673 6.86199 0
M  V30 9125 O 902.445 5.12391 7.179 0
M  V30 9126 O 902.985 5.99158 4.88404 0
M  V30 9127 C 903.925 6.60234 3.96415 0
M  V30 9128 C 903.195 7.08259 2.72856 0
M  V30 9129 O 902.985 5.9427 1.83651 0
M  V30 9130 C 901.795 7.64886 2.9555 0
M  V30 9131 O 901.405 8.53963 1.90717 0
M  V30 9132 C 900.915 6.4116 2.90739 0
M  V30 9133 C 901.625 5.55375 1.86963 0
M  V30 9134 N 901.575 4.09664 2.15742 0
M  V30 9135 H 904.414 7.45574 4.45629 0
M  V30 9136 H 904.686 5.86232 3.67314 0
M  V30 9137 H 903.818 7.84412 2.24479 0
M  V30 9138 P 899.855 8.7635 1.60911 0
M  V30 9139 O 899.635 10.1388 1.11561 0
M  V30 9140 O 899.065 8.36503 2.79617 0
M  V30 9141 O 899.605 7.71806 0.42951 0
M  V30 9142 C 900.545 7.66948 -0.673514 0
M  V30 9143 C 899.815 7.33374 -1.95559 0
M  V30 9144 O 899.605 5.88721 -2.00726 0
M  V30 9145 C 898.415 7.92218 -2.1125 0
M  V30 9146 O 898.025 8.02971 -3.47653 0
M  V30 9147 C 897.535 6.89504 -1.41631 0
M  V30 9148 C 898.245 5.59106 -1.75155 0
M  V30 9149 N 898.195 4.58136 -0.662409 0
M  V30 9150 C 898.045 3.26059 -1.02863 0
M  V30 9151 O 897.955 2.90743 -2.19009 0
M  V30 9152 N 898.005 2.35995 0.0155585 0
M  V30 9153 C 898.095 2.65248 1.35603 0
M  V30 9154 O 898.045 1.75605 2.20651 0
M  V30 9155 C 898.245 4.05747 1.64698 0
M  V30 9156 C 898.355 4.42345 3.09553 0
M  V30 9157 C 898.295 4.96734 0.652411 0
M  V30 9158 H 901.036 8.64917 -0.776982 0
M  V30 9159 H 901.305 6.89974 -0.474015 0
M  V30 9160 H 900.438 7.66548 -2.79458 0
M  V30 9161 H 897.783 5.16076 -2.65138 0
M  V30 9162 H 897.504 7.06433 -0.329384 0
M  V30 9163 H 896.512 6.90829 -1.81996 0
M  V30 9164 H 898.346 8.90774 -1.62639 0
M  V30 9165 H 898.417 6.02181 0.895285 0
M  V30 9166 H 897.387 4.80252 3.45468 0
M  V30 9167 H 899.124 5.20015 3.22119 0
M  V30 9168 H 898.636 3.53269 3.67833 0
M  V30 9169 H 897.9 1.39558 -0.227499 0
M  V30 9170 P 896.475 8.03563 -3.84925 0
M  V30 9171 O 896.255 8.85821 -5.0569 0
M  V30 9172 O 895.685 8.41101 -2.65469 0
M  V30 9173 O 896.225 6.4965 -4.18908 0
M  V30 9174 C 897.165 5.81037 -5.05421 0
M  V30 9175 C 896.435 4.78366 -5.89277 0
M  V30 9176 O 896.225 3.58302 -5.08433 0
M  V30 9177 C 895.035 5.17448 -6.36119 0
M  V30 9178 O 894.645 4.45271 -7.53232 0
M  V30 9179 C 894.155 4.74639 -5.19936 0
M  V30 9180 C 894.865 3.49432 -4.70418 0
M  V30 9181 N 894.815 3.31776 -3.22945 0
M  V30 9182 H 897.654 6.54213 -5.71376 0
M  V30 9183 H 897.926 5.30492 -4.44033 0
M  V30 9184 H 897.058 4.55889 -6.76652 0
M  V30 9185 P 893.095 4.23843 -7.83734 0
M  V30 9186 O 892.875 4.19407 -9.29784 0
M  V30 9187 O 892.305 5.24426 -7.09156 0
M  V30 9188 O 892.845 2.7935 -7.20758 0
M  V30 9189 C 893.785 1.7299 -7.50419 0
M  V30 9190 C 893.055 0.406376 -7.57911 0
M  V30 9191 O 892.845 -0.0897726 -6.21935 0
M  V30 9192 C 891.655 0.447224 -8.1878 0
M  V30 9193 O 891.265 -0.825065 -8.71101 0
M  V30 9194 C 890.775 0.783801 -6.99623 0
M  V30 9195 C 891.485 0.0619192 -5.85967 0
M  V30 9196 N 891.435 0.790462 -4.56202 0
M  V30 9197 H 894.274 1.93423 -8.4679 0
M  V30 9198 H 894.546 1.68852 -6.70877 0
M  V30 9199 H 893.678 -0.289041 -8.15388 0
M  V30 9200 H 891.023 -0.927006 -5.72848 0
M  V30 9201 H 890.743 1.86973 -6.82036 0
M  V30 9202 H 889.752 0.403953 -7.13357 0
M  V30 9203 H 891.586 1.20599 -8.97534 0
M  V30 9204 P 889.715 -1.17771 -8.83182 0
M  V30 9205 O 889.495 -2.07206 -9.98732 0
M  V30 9206 O 888.925 0.0743816 -8.81969 0
M  V30 9207 O 889.465 -1.97652 -7.47304 0
M  V30 9208 C 890.405 -3.01133 -7.08783 0
M  V30 9209 C 889.675 -4.12613 -6.37049 0
M  V30 9210 O 889.465 -3.72827 -4.97879 0
M  V30 9211 C 888.275 -4.45085 -6.88694 0
M  V30 9212 O 887.885 -5.7877 -6.5624 0
M  V30 9213 C 887.395 -3.47817 -6.12078 0
M  V30 9214 C 888.105 -3.39414 -4.77697 0
M  V30 9215 N 888.055 -2.04615 -4.15333 0
M  V30 9216 H 890.894 -3.41248 -7.98759 0
M  V30 9217 H 891.166 -2.5837 -6.41742 0
M  V30 9218 H 890.298 -5.02657 -6.42673 0
M  V30 9219 P 886.335 -6.144 -6.45285 0
M  V30 9220 O 886.115 -7.54673 -6.86199 0
M  V30 9221 O 885.545 -5.12391 -7.179 0
M  V30 9222 O 886.085 -5.99158 -4.88404 0
M  V30 9223 C 887.025 -6.60234 -3.96415 0
M  V30 9224 C 886.295 -7.08259 -2.72856 0
M  V30 9225 O 886.085 -5.9427 -1.83651 0
M  V30 9226 C 884.895 -7.64886 -2.9555 0
M  V30 9227 O 884.505 -8.53963 -1.90717 0
M  V30 9228 C 884.015 -6.4116 -2.90739 0
M  V30 9229 C 884.725 -5.55375 -1.86963 0
M  V30 9230 N 884.675 -4.09664 -2.15742 0
M  V30 9231 H 887.514 -7.45574 -4.45629 0
M  V30 9232 H 887.786 -5.86232 -3.67314 0
M  V30 9233 H 886.918 -7.84412 -2.24479 0
M  V30 9234 P 882.955 -8.7635 -1.60911 0
M  V30 9235 O 882.735 -10.1388 -1.11561 0
M  V30 9236 O 882.165 -8.36503 -2.79617 0
M  V30 9237 O 882.705 -7.71806 -0.42951 0
M  V30 9238 C 883.645 -7.67148 0.673689 0
M  V30 9239 C 882.915 -7.33374 1.95559 0
M  V30 9240 O 882.705 -5.88721 2.00726 0
M  V30 9241 C 881.515 -7.92526 2.10483 0
M  V30 9242 O 881.125 -8.02971 3.47653 0
M  V30 9243 C 880.635 -6.89602 1.41652 0
M  V30 9244 C 881.345 -5.59201 1.75185 0
M  V30 9245 N 881.295 -4.58301 0.657969 0
M  V30 9246 H 884.134 -8.65116 0.777161 0
M  V30 9247 H 884.406 -6.9022 0.46725 0
M  V30 9248 H 883.538 -7.66548 2.79458 0
M  V30 9249 H 880.883 -5.16165 2.65183 0
M  V30 9250 H 880.603 -7.06433 0.329384 0
M  V30 9251 H 879.612 -6.90926 1.82021 0
M  V30 9252 H 881.446 -8.90873 1.62657 0
M  V30 9253 P 879.575 -8.03563 3.84925 0
M  V30 9254 O 879.355 -8.85821 5.0569 0
M  V30 9255 O 878.785 -8.41101 2.65469 0
M  V30 9256 O 879.325 -6.4965 4.18908 0
M  V30 9257 C 880.265 -5.81037 5.05421 0
M  V30 9258 C 879.535 -4.78366 5.89277 0
M  V30 9259 O 879.325 -3.58302 5.08433 0
M  V30 9260 C 878.135 -5.17448 6.36119 0
M  V30 9261 O 877.745 -4.45271 7.53232 0
M  V30 9262 C 877.255 -4.74639 5.19936 0
M  V30 9263 C 877.965 -3.49432 4.70418 0
M  V30 9264 N 877.915 -3.31776 3.22945 0
M  V30 9265 C 877.995 -4.27147 2.23315 0
M  V30 9266 N 877.915 -3.78447 1.02186 0
M  V30 9267 C 877.775 -2.41001 1.21732 0
M  V30 9268 C 877.645 -1.36111 0.27694 0
M  V30 9269 O 877.625 -1.42065 -0.951767 0
M  V30 9270 N 877.525 -0.113683 0.912949 0
M  V30 9271 C 877.525 0.0846396 2.27943 0
M  V30 9272 N 877.395 1.34737 2.6916 0
M  V30 9273 N 877.655 -0.902521 3.16379 0
M  V30 9274 C 877.775 -2.11937 2.56849 0
M  V30 9275 H 880.754 -6.54213 5.71376 0
M  V30 9276 H 881.026 -5.30492 4.44033 0
M  V30 9277 H 880.158 -4.55889 6.76652 0
M  V30 9278 H 877.503 -2.6176 5.18021 0
M  V30 9279 H 877.223 -5.52233 4.41941 0
M  V30 9280 H 876.232 -4.52045 5.53452 0
M  V30 9281 H 878.066 -6.25193 6.55307 0
M  V30 9282 H 878.115 -5.3351 2.43857 0
M  V30 9283 H 877.433 0.69331 0.330371 0
M  V30 9284 H 877.396 1.56433 3.6988 0
M  V30 9285 H 877.295 2.10701 2.00133 0
M  V30 9286 P 876.195 -4.23843 7.83734 0
M  V30 9287 O 875.975 -4.19407 9.29784 0
M  V30 9288 O 875.405 -5.24426 7.09156 0
M  V30 9289 O 875.945 -2.79386 7.20852 0
M  V30 9290 C 876.885 -1.7299 7.50419 0
M  V30 9291 C 876.155 -0.41401 7.5797 0
M  V30 9292 O 875.945 0.089787 6.22035 0
M  V30 9293 C 874.755 -0.447224 8.1878 0
M  V30 9294 O 874.365 0.825159 8.71201 0
M  V30 9295 C 873.875 -0.783801 6.99623 0
M  V30 9296 C 874.585 -0.0619192 5.85967 0
M  V30 9297 N 874.535 -0.7859 4.56281 0
M  V30 9298 C 874.385 -0.0359258 3.39981 0
M  V30 9299 O 874.295 1.19723 3.49038 0
M  V30 9300 N 874.335 -0.869151 2.14025 0
M  V30 9301 C 874.435 -2.01207 2.14363 0
M  V30 9302 N 874.385 -2.58978 0.954287 0
M  V30 9303 C 874.585 -2.80817 3.32215 0
M  V30 9304 C 874.635 -2.13785 4.50884 0
M  V30 9305 H 877.375 -1.93401 8.46693 0
M  V30 9306 H 877.645 -1.68181 6.71046 0
M  V30 9307 H 876.778 0.289076 8.15488 0
M  V30 9308 H 874.123 0.927166 5.72947 0
M  V30 9309 H 873.843 -1.87 6.82132 0
M  V30 9310 H 872.852 -0.404009 7.13457 0
M  V30 9311 H 874.686 -1.20599 8.97534 0
M  V30 9312 H 874.758 -2.70295 5.43162 0
M  V30 9313 H 874.656 -3.89465 3.27406 0
M  V30 9314 H 874.268 -2.01616 0.107046 0
M  V30 9315 H 874.464 -3.61403 0.873101 0
M  V30 9316 P 872.815 1.17771 8.83182 0
M  V30 9317 O 872.595 2.07206 9.98732 0
M  V30 9318 O 872.025 -0.0743816 8.81969 0
M  V30 9319 O 872.565 1.97652 7.47304 0
M  V30 9320 C 873.505 3.01055 7.08599 0
M  V30 9321 C 872.775 4.12613 6.37049 0
M  V30 9322 O 872.565 3.72827 4.97879 0
M  V30 9323 C 871.375 4.45719 6.88164 0
M  V30 9324 O 870.985 5.7877 6.5624 0
M  V30 9325 C 870.495 3.47768 6.11991 0
M  V30 9326 C 871.205 3.39356 4.77615 0
M  V30 9327 N 871.155 2.04571 4.15244 0
M  V30 9328 C 871.005 1.98587 2.78314 0
M  V30 9329 O 870.915 2.98134 2.08835 0
M  V30 9330 N 870.965 0.714467 2.24925 0
M  V30 9331 C 871.055 -0.470001 2.94169 0
M  V30 9332 O 871.005 -1.55587 2.35195 0
M  V30 9333 C 871.205 -0.312541 4.36783 0
M  V30 9334 C 871.315 -1.57711 5.16352 0
M  V30 9335 C 871.255 0.914512 4.92583 0
M  V30 9336 H 873.996 3.41169 7.98575 0
M  V30 9337 H 874.265 2.58295 6.41556 0
M  V30 9338 H 873.398 5.02657 6.42673 0
M  V30 9339 H 870.743 4.11637 4.08885 0
M  V30 9340 H 870.464 2.49626 6.61679 0
M  V30 9341 H 869.472 3.86566 6.00778 0
M  V30 9342 H 871.306 4.29943 7.96918 0
M  V30 9343 H 871.377 1.00937 6.00374 0
M  V30 9344 H 870.347 -1.80153 5.63503 0
M  V30 9345 H 872.084 -1.4566 5.94104 0
M  V30 9346 H 871.596 -2.40664 4.49645 0
M  V30 9347 H 870.86 0.647622 1.25697 0
M  V30 9348 P 869.435 6.144 6.45285 0
M  V30 9349 O 869.215 7.54673 6.86199 0
M  V30 9350 O 868.645 5.12391 7.179 0
M  V30 9351 O 869.185 5.99158 4.88404 0
M  V30 9352 C 870.125 6.60234 3.96415 0
M  V30 9353 C 869.395 7.08259 2.72856 0
M  V30 9354 O 869.185 5.9427 1.83651 0
M  V30 9355 C 867.995 7.64886 2.9555 0
M  V30 9356 O 867.605 8.53963 1.90717 0
M  V30 9357 C 867.115 6.4116 2.90739 0
M  V30 9358 C 867.825 5.55375 1.86963 0
M  V30 9359 N 867.775 4.09664 2.15742 0
M  V30 9360 H 870.614 7.45574 4.45629 0
M  V30 9361 H 870.886 5.86232 3.67314 0
M  V30 9362 H 870.018 7.84412 2.24479 0
M  V30 9363 P 866.055 8.7635 1.60911 0
M  V30 9364 O 865.835 10.1388 1.11561 0
M  V30 9365 O 865.265 8.36503 2.79617 0
M  V30 9366 O 865.805 7.71806 0.42951 0
M  V30 9367 C 866.745 7.67148 -0.673689 0
M  V30 9368 C 866.015 7.33374 -1.95559 0
M  V30 9369 O 865.805 5.88721 -2.00726 0
M  V30 9370 C 864.615 7.92526 -2.10483 0
M  V30 9371 O 864.225 8.02971 -3.47653 0
M  V30 9372 C 863.735 6.89602 -1.41652 0
M  V30 9373 C 864.445 5.59201 -1.75185 0
M  V30 9374 N 864.395 4.58235 -0.662552 0
M  V30 9375 H 867.234 8.65116 -0.777161 0
M  V30 9376 H 867.506 6.90173 -0.474152 0
M  V30 9377 H 866.638 7.66548 -2.79458 0
M  V30 9378 P 862.675 8.03563 -3.84925 0
M  V30 9379 O 862.455 8.85821 -5.0569 0
M  V30 9380 O 861.885 8.41101 -2.65469 0
M  V30 9381 O 862.425 6.4965 -4.18908 0
M  V30 9382 C 863.365 5.81037 -5.05421 0
M  V30 9383 C 862.635 4.78366 -5.89277 0
M  V30 9384 O 862.425 3.58302 -5.08433 0
M  V30 9385 C 861.235 5.17448 -6.36119 0
M  V30 9386 O 860.845 4.45271 -7.53232 0
M  V30 9387 C 860.355 4.74639 -5.19936 0
M  V30 9388 C 861.065 3.49432 -4.70418 0
M  V30 9389 N 861.015 3.31776 -3.22945 0
M  V30 9390 H 863.854 6.54213 -5.71376 0
M  V30 9391 H 864.126 5.30492 -4.44033 0
M  V30 9392 H 863.258 4.55889 -6.76652 0
M  V30 9393 P 859.295 4.23843 -7.83734 0
M  V30 9394 O 859.075 4.19407 -9.29784 0
M  V30 9395 O 858.505 5.24426 -7.09156 0
M  V30 9396 O 859.045 2.7935 -7.20758 0
M  V30 9397 C 859.985 1.7299 -7.50419 0
M  V30 9398 C 859.255 0.406376 -7.57911 0
M  V30 9399 O 859.045 -0.0897726 -6.21935 0
M  V30 9400 C 857.855 0.447224 -8.1878 0
M  V30 9401 O 857.465 -0.825065 -8.71101 0
M  V30 9402 C 856.975 0.783801 -6.99623 0
M  V30 9403 C 857.685 0.0619192 -5.85967 0
M  V30 9404 N 857.635 0.790462 -4.56202 0
M  V30 9405 H 860.474 1.93423 -8.4679 0
M  V30 9406 H 860.746 1.68852 -6.70877 0
M  V30 9407 H 859.878 -0.289041 -8.15388 0
M  V30 9408 H 857.223 -0.927006 -5.72848 0
M  V30 9409 H 856.943 1.86973 -6.82036 0
M  V30 9410 H 855.952 0.403953 -7.13357 0
M  V30 9411 H 857.786 1.20599 -8.97534 0
M  V30 9412 P 855.915 -1.17771 -8.83182 0
M  V30 9413 O 855.695 -2.07206 -9.98732 0
M  V30 9414 O 855.125 0.0743816 -8.81969 0
M  V30 9415 O 855.665 -1.97652 -7.47304 0
M  V30 9416 C 856.605 -3.01133 -7.08783 0
M  V30 9417 C 855.875 -4.12613 -6.37049 0
M  V30 9418 O 855.665 -3.72827 -4.97879 0
M  V30 9419 C 854.475 -4.45085 -6.88694 0
M  V30 9420 O 854.085 -5.7877 -6.5624 0
M  V30 9421 C 853.595 -3.47817 -6.12078 0
M  V30 9422 C 854.305 -3.39414 -4.77697 0
M  V30 9423 N 854.255 -2.04199 -4.15538 0
M  V30 9424 H 857.094 -3.41248 -7.98759 0
M  V30 9425 H 857.366 -2.57728 -6.42 0
M  V30 9426 H 856.498 -5.02657 -6.42673 0
M  V30 9427 H 853.843 -4.11708 -4.08956 0
M  V30 9428 H 853.563 -2.49626 -6.61679 0
M  V30 9429 H 852.572 -3.8662 -6.00862 0
M  V30 9430 H 854.406 -4.29991 -7.97006 0
M  V30 9431 P 852.535 -6.144 -6.45285 0
M  V30 9432 O 852.315 -7.54673 -6.86199 0
M  V30 9433 O 851.745 -5.12391 -7.179 0
M  V30 9434 O 852.285 -5.99158 -4.88404 0
M  V30 9435 C 853.225 -6.60234 -3.96415 0
M  V30 9436 C 852.495 -7.08259 -2.72856 0
M  V30 9437 O 852.285 -5.9427 -1.83651 0
M  V30 9438 C 851.095 -7.64886 -2.9555 0
M  V30 9439 O 850.705 -8.53963 -1.90717 0
M  V30 9440 C 850.215 -6.4116 -2.90739 0
M  V30 9441 C 850.925 -5.55375 -1.86963 0
M  V30 9442 N 850.875 -4.09664 -2.15742 0
M  V30 9443 H 853.714 -7.45574 -4.45629 0
M  V30 9444 H 853.986 -5.86232 -3.67314 0
M  V30 9445 H 853.118 -7.84412 -2.24479 0
M  V30 9446 P 849.155 -8.7635 -1.60911 0
M  V30 9447 O 848.935 -10.1388 -1.11561 0
M  V30 9448 O 848.365 -8.36503 -2.79617 0
M  V30 9449 O 848.905 -7.71806 -0.42951 0
M  V30 9450 C 849.845 -7.67148 0.673689 0
M  V30 9451 C 849.115 -7.33374 1.95559 0
M  V30 9452 O 848.905 -5.88721 2.00726 0
M  V30 9453 C 847.715 -7.92526 2.10483 0
M  V30 9454 O 847.325 -8.02971 3.47653 0
M  V30 9455 C 846.835 -6.89602 1.41652 0
M  V30 9456 C 847.545 -5.59201 1.75185 0
M  V30 9457 N 847.495 -4.58235 0.662552 0
M  V30 9458 H 850.334 -8.65116 0.777161 0
M  V30 9459 H 850.606 -6.90173 0.474152 0
M  V30 9460 H 849.738 -7.66548 2.79458 0
M  V30 9461 P 845.775 -8.03563 3.84925 0
M  V30 9462 O 845.555 -8.85821 5.0569 0
M  V30 9463 O 844.985 -8.41101 2.65469 0
M  V30 9464 O 845.525 -6.4965 4.18908 0
M  V30 9465 C 846.465 -5.81037 5.05421 0
M  V30 9466 C 845.735 -4.78366 5.89277 0
M  V30 9467 O 845.525 -3.58302 5.08433 0
M  V30 9468 C 844.335 -5.17448 6.36119 0
M  V30 9469 O 843.945 -4.45271 7.53232 0
M  V30 9470 C 843.455 -4.74639 5.19936 0
M  V30 9471 C 844.165 -3.49432 4.70418 0
M  V30 9472 N 844.115 -3.32099 3.22613 0
M  V30 9473 H 846.954 -6.54213 5.71376 0
M  V30 9474 H 847.226 -5.30936 4.43503 0
M  V30 9475 H 846.358 -4.55889 6.76652 0
M  V30 9476 H 843.703 -2.61715 5.17932 0
M  V30 9477 H 843.423 -5.52155 4.41878 0
M  V30 9478 H 842.432 -4.51981 5.53374 0
M  V30 9479 H 844.266 -6.25124 6.55234 0
M  V30 9480 P 842.395 -4.23843 7.83734 0
M  V30 9481 O 842.175 -4.19407 9.29784 0
M  V30 9482 O 841.605 -5.24426 7.09156 0
M  V30 9483 O 842.145 -2.7935 7.20758 0
M  V30 9484 C 843.085 -1.7299 7.50419 0
M  V30 9485 C 842.355 -0.406376 7.57911 0
M  V30 9486 O 842.145 0.0897726 6.21935 0
M  V30 9487 C 840.955 -0.447224 8.1878 0
M  V30 9488 O 840.565 0.825065 8.71101 0
M  V30 9489 C 840.075 -0.783801 6.99623 0
M  V30 9490 C 840.785 -0.0619192 5.85967 0
M  V30 9491 N 840.735 -0.7859 4.56281 0
M  V30 9492 H 843.574 -1.93423 8.4679 0
M  V30 9493 H 843.846 -1.68181 6.71046 0
M  V30 9494 H 842.978 0.289041 8.15388 0
M  V30 9495 P 839.015 1.17771 8.83182 0
M  V30 9496 O 838.795 2.07206 9.98732 0
M  V30 9497 O 838.225 -0.0743816 8.81969 0
M  V30 9498 O 838.765 1.97652 7.47304 0
M  V30 9499 C 839.705 3.01133 7.08783 0
M  V30 9500 C 838.975 4.12613 6.37049 0
M  V30 9501 O 838.765 3.72827 4.97879 0
M  V30 9502 C 837.575 4.45085 6.88694 0
M  V30 9503 O 837.185 5.7877 6.5624 0
M  V30 9504 C 836.695 3.47817 6.12078 0
M  V30 9505 C 837.405 3.39414 4.77697 0
M  V30 9506 N 837.355 2.04615 4.15333 0
M  V30 9507 H 840.194 3.41248 7.98759 0
M  V30 9508 H 840.466 2.5837 6.41742 0
M  V30 9509 H 839.598 5.02657 6.42673 0
M  V30 9510 P 835.635 6.144 6.45285 0
M  V30 9511 O 835.415 7.54673 6.86199 0
M  V30 9512 O 834.845 5.12391 7.179 0
M  V30 9513 O 835.385 5.99158 4.88404 0
M  V30 9514 C 836.325 6.60234 3.96415 0
M  V30 9515 C 835.595 7.08259 2.72856 0
M  V30 9516 O 835.385 5.9427 1.83651 0
M  V30 9517 C 834.195 7.64886 2.9555 0
M  V30 9518 O 833.805 8.53963 1.90717 0
M  V30 9519 C 833.315 6.4116 2.90739 0
M  V30 9520 C 834.025 5.55375 1.86963 0
M  V30 9521 N 833.975 4.09664 2.15742 0
M  V30 9522 H 836.814 7.45574 4.45629 0
M  V30 9523 H 837.086 5.86232 3.67314 0
M  V30 9524 H 836.218 7.84412 2.24479 0
M  V30 9525 P 832.255 8.7635 1.60911 0
M  V30 9526 O 832.035 10.1388 1.11561 0
M  V30 9527 O 831.465 8.36503 2.79617 0
M  V30 9528 O 832.005 7.71806 0.42951 0
M  V30 9529 C 832.945 7.66948 -0.673514 0
M  V30 9530 C 832.215 7.33374 -1.95559 0
M  V30 9531 O 832.005 5.88721 -2.00726 0
M  V30 9532 C 830.815 7.92218 -2.1125 0
M  V30 9533 O 830.425 8.02971 -3.47653 0
M  V30 9534 C 829.935 6.89504 -1.41631 0
M  V30 9535 C 830.645 5.59106 -1.75155 0
M  V30 9536 N 830.595 4.58136 -0.662409 0
M  V30 9537 C 830.445 3.26059 -1.02863 0
M  V30 9538 O 830.355 2.90743 -2.19009 0
M  V30 9539 N 830.405 2.35995 0.0155585 0
M  V30 9540 C 830.495 2.65248 1.35603 0
M  V30 9541 C 830.645 4.05747 1.64698 0
M  V30 9542 C 830.695 4.96734 0.652411 0
M  V30 9543 H 833.436 8.64917 -0.776982 0
M  V30 9544 H 833.705 6.89974 -0.474015 0
M  V30 9545 H 832.838 7.66548 -2.79458 0
M  V30 9546 H 830.183 5.16076 -2.65138 0
M  V30 9547 H 829.904 7.06433 -0.329384 0
M  V30 9548 H 828.912 6.90829 -1.81996 0
M  V30 9549 H 830.746 8.90774 -1.62639 0
M  V30 9550 H 830.817 6.02181 0.895285 0
M  V30 9551 P 828.875 8.03563 -3.84925 0
M  V30 9552 O 828.655 8.85821 -5.0569 0
M  V30 9553 O 828.085 8.41101 -2.65469 0
M  V30 9554 O 828.625 6.4965 -4.18908 0
M  V30 9555 C 829.565 5.80886 -5.05289 0
M  V30 9556 C 828.835 4.78366 -5.89277 0
M  V30 9557 O 828.625 3.58302 -5.08433 0
M  V30 9558 C 827.435 5.16748 -6.36559 0
M  V30 9559 O 827.045 4.45271 -7.53232 0
M  V30 9560 C 826.555 4.74572 -5.19863 0
M  V30 9561 C 827.265 3.49373 -4.70338 0
M  V30 9562 N 827.215 3.31704 -3.22876 0
M  V30 9563 C 827.065 2.03326 -2.74871 0
M  V30 9564 O 826.975 1.06486 -3.48076 0
M  V30 9565 N 827.025 1.91838 -1.37456 0
M  V30 9566 C 827.115 2.94295 -0.462035 0
M  V30 9567 C 827.265 4.25064 -1.05249 0
M  V30 9568 C 827.315 4.40214 -2.39192 0
M  V30 9569 H 830.056 6.54063 -5.71245 0
M  V30 9570 H 830.325 5.30339 -4.43905 0
M  V30 9571 H 829.458 4.55889 -6.76652 0
M  V30 9572 H 826.803 2.6167 -5.17842 0
M  V30 9573 H 826.524 5.52155 -4.41878 0
M  V30 9574 H 825.532 4.51918 -5.53297 0
M  V30 9575 H 827.366 6.25055 -6.55162 0
M  V30 9576 H 827.437 5.39798 -2.81523 0
M  V30 9577 P 825.495 4.23843 -7.83734 0
M  V30 9578 O 825.275 4.19407 -9.29784 0
M  V30 9579 O 824.705 5.24426 -7.09156 0
M  V30 9580 O 825.245 2.7935 -7.20758 0
M  V30 9581 C 826.185 1.7299 -7.50419 0
M  V30 9582 C 825.455 0.406376 -7.57911 0
M  V30 9583 O 825.245 -0.0897726 -6.21935 0
M  V30 9584 C 824.055 0.447224 -8.1878 0
M  V30 9585 O 823.665 -0.825065 -8.71101 0
M  V30 9586 C 823.175 0.783801 -6.99623 0
M  V30 9587 C 823.885 0.0619192 -5.85967 0
M  V30 9588 N 823.835 0.7859 -4.56281 0
M  V30 9589 C 823.915 2.14308 -4.31736 0
M  V30 9590 N 823.835 2.46106 -3.05116 0
M  V30 9591 C 823.695 1.23422 -2.4014 0
M  V30 9592 C 823.565 0.938381 -1.02409 0
M  V30 9593 N 823.445 -0.444647 -0.805413 0
M  V30 9594 C 823.445 -1.40829 -1.79435 0
M  V30 9595 N 823.315 -2.67213 -1.38558 0
M  V30 9596 N 823.575 -1.12947 -3.09005 0
M  V30 9597 C 823.695 0.204887 -3.32369 0
M  V30 9598 H 826.674 1.93423 -8.4679 0
M  V30 9599 H 826.946 1.68181 -6.71046 0
M  V30 9600 H 826.078 -0.289041 -8.15388 0
M  V30 9601 P 822.115 -1.17771 -8.83182 0
M  V30 9602 O 821.895 -2.07206 -9.98732 0
M  V30 9603 O 821.325 0.0743816 -8.81969 0
M  V30 9604 O 821.865 -1.97652 -7.47304 0
M  V30 9605 C 822.805 -3.01133 -7.08783 0
M  V30 9606 C 822.075 -4.12613 -6.37049 0
M  V30 9607 O 821.865 -3.72827 -4.97879 0
M  V30 9608 C 820.675 -4.45085 -6.88694 0
M  V30 9609 O 820.285 -5.7877 -6.5624 0
M  V30 9610 C 819.795 -3.47817 -6.12078 0
M  V30 9611 C 820.505 -3.39414 -4.77697 0
M  V30 9612 N 820.455 -2.04199 -4.15538 0
M  V30 9613 H 823.294 -3.41248 -7.98759 0
M  V30 9614 H 823.566 -2.57728 -6.42 0
M  V30 9615 H 822.698 -5.02657 -6.42673 0
M  V30 9616 H 820.043 -4.11708 -4.08956 0
M  V30 9617 H 819.763 -2.49626 -6.61679 0
M  V30 9618 H 818.772 -3.8662 -6.00862 0
M  V30 9619 H 820.606 -4.29991 -7.97006 0
M  V30 9620 P 818.735 -6.144 -6.45285 0
M  V30 9621 O 818.515 -7.54673 -6.86199 0
M  V30 9622 O 817.945 -5.12391 -7.179 0
M  V30 9623 O 818.485 -5.99158 -4.88404 0
M  V30 9624 C 819.425 -6.60234 -3.96415 0
M  V30 9625 C 818.695 -7.08259 -2.72856 0
M  V30 9626 O 818.485 -5.9427 -1.83651 0
M  V30 9627 C 817.295 -7.64886 -2.9555 0
M  V30 9628 O 816.905 -8.53963 -1.90717 0
M  V30 9629 C 816.415 -6.4116 -2.90739 0
M  V30 9630 C 817.125 -5.55375 -1.86963 0
M  V30 9631 N 817.075 -4.09664 -2.15742 0
M  V30 9632 H 819.914 -7.45574 -4.45629 0
M  V30 9633 H 820.186 -5.86232 -3.67314 0
M  V30 9634 H 819.318 -7.84412 -2.24479 0
M  V30 9635 P 815.355 -8.7635 -1.60911 0
M  V30 9636 O 815.135 -10.1388 -1.11561 0
M  V30 9637 O 814.565 -8.36503 -2.79617 0
M  V30 9638 O 815.105 -7.71806 -0.42951 0
M  V30 9639 C 816.045 -7.67148 0.673689 0
M  V30 9640 C 815.315 -7.33374 1.95559 0
M  V30 9641 O 815.105 -5.88721 2.00726 0
M  V30 9642 C 813.915 -7.92526 2.10483 0
M  V30 9643 O 813.525 -8.02971 3.47653 0
M  V30 9644 C 813.035 -6.89602 1.41652 0
M  V30 9645 C 813.745 -5.59201 1.75185 0
M  V30 9646 N 813.695 -4.58235 0.662552 0
M  V30 9647 H 816.534 -8.65116 0.777161 0
M  V30 9648 H 816.806 -6.90173 0.474152 0
M  V30 9649 H 815.938 -7.66548 2.79458 0
M  V30 9650 P 811.975 -8.03563 3.84925 0
M  V30 9651 O 811.755 -8.85821 5.0569 0
M  V30 9652 O 811.185 -8.41101 2.65469 0
M  V30 9653 O 811.725 -6.4965 4.18908 0
M  V30 9654 C 812.665 -5.80886 5.05289 0
M  V30 9655 C 811.935 -4.78366 5.89277 0
M  V30 9656 O 811.725 -3.58302 5.08433 0
M  V30 9657 C 810.535 -5.16748 6.36559 0
M  V30 9658 O 810.145 -4.45271 7.53232 0
M  V30 9659 C 809.655 -4.74572 5.19863 0
M  V30 9660 C 810.365 -3.49373 4.70338 0
M  V30 9661 N 810.315 -3.31704 3.22876 0
M  V30 9662 C 810.165 -2.03326 2.74871 0
M  V30 9663 O 810.075 -1.06486 3.48076 0
M  V30 9664 N 810.125 -1.91838 1.37456 0
M  V30 9665 C 810.215 -2.94295 0.462035 0
M  V30 9666 C 810.365 -4.25064 1.05249 0
M  V30 9667 C 810.415 -4.40214 2.39192 0
M  V30 9668 H 813.156 -6.54063 5.71245 0
M  V30 9669 H 813.425 -5.30339 4.43905 0
M  V30 9670 H 812.558 -4.55889 6.76652 0
M  V30 9671 H 809.903 -2.6167 5.17842 0
M  V30 9672 H 809.624 -5.52155 4.41878 0
M  V30 9673 H 808.632 -4.51918 5.53297 0
M  V30 9674 H 810.466 -6.25055 6.55162 0
M  V30 9675 H 810.537 -5.39798 2.81523 0
M  V30 9676 P 808.595 -4.23843 7.83734 0
M  V30 9677 O 808.375 -4.19407 9.29784 0
M  V30 9678 O 807.805 -5.24426 7.09156 0
M  V30 9679 O 808.345 -2.79386 7.20852 0
M  V30 9680 C 809.285 -1.7299 7.50419 0
M  V30 9681 C 808.555 -0.41401 7.5797 0
M  V30 9682 O 808.345 0.089787 6.22035 0
M  V30 9683 C 807.155 -0.447224 8.1878 0
M  V30 9684 O 806.765 0.825159 8.71201 0
M  V30 9685 C 806.275 -0.783801 6.99623 0
M  V30 9686 C 806.985 -0.0619192 5.85967 0
M  V30 9687 N 806.935 -0.7859 4.56281 0
M  V30 9688 C 806.785 -0.0359258 3.39981 0
M  V30 9689 O 806.695 1.19723 3.49038 0
M  V30 9690 N 806.735 -0.869151 2.14025 0
M  V30 9691 C 806.835 -2.01207 2.14363 0
M  V30 9692 N 806.785 -2.58978 0.954287 0
M  V30 9693 C 806.985 -2.80817 3.32215 0
M  V30 9694 C 807.035 -2.13785 4.50884 0
M  V30 9695 H 809.775 -1.93401 8.46693 0
M  V30 9696 H 810.045 -1.68181 6.71046 0
M  V30 9697 H 809.178 0.289076 8.15488 0
M  V30 9698 H 806.523 0.927166 5.72947 0
M  V30 9699 H 806.243 -1.87 6.82132 0
M  V30 9700 H 805.252 -0.404009 7.13457 0
M  V30 9701 H 807.086 -1.20599 8.97534 0
M  V30 9702 H 807.158 -2.70295 5.43162 0
M  V30 9703 H 807.056 -3.89465 3.27406 0
M  V30 9704 H 806.668 -2.01616 0.107046 0
M  V30 9705 H 806.864 -3.61403 0.873101 0
M  V30 9706 P 805.215 1.17771 8.83182 0
M  V30 9707 O 804.995 2.07206 9.98732 0
M  V30 9708 O 804.425 -0.0743816 8.81969 0
M  V30 9709 O 804.965 1.97652 7.47304 0
M  V30 9710 C 805.905 3.01133 7.08783 0
M  V30 9711 C 805.175 4.12613 6.37049 0
M  V30 9712 O 804.965 3.72827 4.97879 0
M  V30 9713 C 803.775 4.45085 6.88694 0
M  V30 9714 O 803.385 5.7877 6.5624 0
M  V30 9715 C 802.895 3.47817 6.12078 0
M  V30 9716 C 803.605 3.39414 4.77697 0
M  V30 9717 N 803.555 2.04199 4.15538 0
M  V30 9718 H 806.394 3.41248 7.98759 0
M  V30 9719 H 806.666 2.57728 6.42 0
M  V30 9720 H 805.798 5.02657 6.42673 0
M  V30 9721 H 803.143 4.11708 4.08956 0
M  V30 9722 H 802.863 2.49626 6.61679 0
M  V30 9723 H 801.872 3.8662 6.00862 0
M  V30 9724 H 803.706 4.29991 7.97006 0
M  V30 9725 P 801.835 6.144 6.45285 0
M  V30 9726 O 801.615 7.54673 6.86199 0
M  V30 9727 O 801.045 5.12391 7.179 0
M  V30 9728 O 801.585 5.99158 4.88404 0
M  V30 9729 C 802.525 6.60234 3.96415 0
M  V30 9730 C 801.795 7.08259 2.72856 0
M  V30 9731 O 801.585 5.9427 1.83651 0
M  V30 9732 C 800.395 7.64886 2.9555 0
M  V30 9733 O 800.005 8.53963 1.90717 0
M  V30 9734 C 799.515 6.4116 2.90739 0
M  V30 9735 C 800.225 5.55375 1.86963 0
M  V30 9736 N 800.175 4.09664 2.15742 0
M  V30 9737 H 803.014 7.45574 4.45629 0
M  V30 9738 H 803.286 5.86232 3.67314 0
M  V30 9739 H 802.418 7.84412 2.24479 0
M  V30 9740 P 798.455 8.7635 1.60911 0
M  V30 9741 O 798.235 10.1388 1.11561 0
M  V30 9742 O 797.665 8.36503 2.79617 0
M  V30 9743 O 798.205 7.71806 0.42951 0
M  V30 9744 C 799.145 7.67148 -0.673689 0
M  V30 9745 C 798.415 7.33374 -1.95559 0
M  V30 9746 O 798.205 5.88721 -2.00726 0
M  V30 9747 C 797.015 7.92526 -2.10483 0
M  V30 9748 O 796.625 8.02971 -3.47653 0
M  V30 9749 C 796.135 6.89602 -1.41652 0
M  V30 9750 C 796.845 5.59201 -1.75185 0
M  V30 9751 N 796.795 4.58235 -0.662552 0
M  V30 9752 H 799.634 8.65116 -0.777161 0
M  V30 9753 H 799.906 6.90173 -0.474152 0
M  V30 9754 H 799.038 7.66548 -2.79458 0
M  V30 9755 P 795.075 8.03563 -3.84925 0
M  V30 9756 O 794.855 8.85821 -5.0569 0
M  V30 9757 O 794.285 8.41101 -2.65469 0
M  V30 9758 O 794.825 6.4965 -4.18908 0
M  V30 9759 C 795.765 5.81037 -5.05421 0
M  V30 9760 C 795.035 4.78366 -5.89277 0
M  V30 9761 O 794.825 3.58302 -5.08433 0
M  V30 9762 C 793.635 5.17448 -6.36119 0
M  V30 9763 O 793.245 4.45271 -7.53232 0
M  V30 9764 C 792.755 4.74639 -5.19936 0
M  V30 9765 C 793.465 3.49432 -4.70418 0
M  V30 9766 N 793.415 3.32099 -3.22613 0
M  V30 9767 H 796.254 6.54213 -5.71376 0
M  V30 9768 H 796.526 5.30936 -4.43503 0
M  V30 9769 H 795.658 4.55889 -6.76652 0
M  V30 9770 H 793.003 2.61715 -5.17932 0
M  V30 9771 H 792.723 5.52155 -4.41878 0
M  V30 9772 H 791.732 4.51981 -5.53374 0
M  V30 9773 H 793.566 6.25124 -6.55234 0
M  V30 9774 P 791.695 4.23843 -7.83734 0
M  V30 9775 O 791.475 4.19407 -9.29784 0
M  V30 9776 O 790.905 5.24426 -7.09156 0
M  V30 9777 O 791.445 2.7935 -7.20758 0
M  V30 9778 C 792.385 1.7299 -7.50419 0
M  V30 9779 C 791.655 0.406376 -7.57911 0
M  V30 9780 O 791.445 -0.0897726 -6.21935 0
M  V30 9781 C 790.255 0.447224 -8.1878 0
M  V30 9782 O 789.865 -0.825065 -8.71101 0
M  V30 9783 C 789.375 0.783801 -6.99623 0
M  V30 9784 C 790.085 0.0619192 -5.85967 0
M  V30 9785 N 790.035 0.790462 -4.56202 0
M  V30 9786 H 792.874 1.93423 -8.4679 0
M  V30 9787 H 793.146 1.68852 -6.70877 0
M  V30 9788 H 792.278 -0.289041 -8.15388 0
M  V30 9789 H 789.623 -0.927006 -5.72848 0
M  V30 9790 H 789.343 1.86973 -6.82036 0
M  V30 9791 H 788.352 0.403953 -7.13357 0
M  V30 9792 H 790.186 1.20599 -8.97534 0
M  V30 9793 P 788.315 -1.17771 -8.83182 0
M  V30 9794 O 788.095 -2.07206 -9.98732 0
M  V30 9795 O 787.525 0.0743816 -8.81969 0
M  V30 9796 O 788.065 -1.97652 -7.47304 0
M  V30 9797 C 789.005 -3.01133 -7.08783 0
M  V30 9798 C 788.275 -4.12613 -6.37049 0
M  V30 9799 O 788.065 -3.72827 -4.97879 0
M  V30 9800 C 786.875 -4.45085 -6.88694 0
M  V30 9801 O 786.485 -5.7877 -6.5624 0
M  V30 9802 C 785.995 -3.47817 -6.12078 0
M  V30 9803 C 786.705 -3.39414 -4.77697 0
M  V30 9804 N 786.655 -2.04199 -4.15538 0
M  V30 9805 C 786.735 -0.821545 -4.76977 0
M  V30 9806 N 786.665 0.1794 -3.94592 0
M  V30 9807 C 786.515 -0.419121 -2.70776 0
M  V30 9808 C 786.385 0.109072 -1.40577 0
M  V30 9809 N 786.375 1.4104 -1.1344 0
M  V30 9810 N 786.265 -0.764381 -0.39411 0
M  V30 9811 C 786.275 -2.06587 -0.664135 0
M  V30 9812 N 786.395 -2.67948 -1.82153 0
M  V30 9813 C 786.515 -1.77942 -2.8147 0
M  V30 9814 H 789.494 -3.41248 -7.98759 0
M  V30 9815 H 789.766 -2.57728 -6.42 0
M  V30 9816 H 788.898 -5.02657 -6.42673 0
M  V30 9817 H 786.243 -4.11708 -4.08956 0
M  V30 9818 H 785.963 -2.49626 -6.61679 0
M  V30 9819 H 784.972 -3.8662 -6.00862 0
M  V30 9820 H 786.806 -4.29991 -7.97006 0
M  V30 9821 H 786.847 -0.702451 -5.84696 0
M  V30 9822 H 786.466 2.09647 -1.89651 0
M  V30 9823 H 786.277 1.73358 -0.160575 0
M  V30 9824 H 786.169 -2.71695 0.195838 0
M  V30 9825 P 784.935 -6.144 -6.45285 0
M  V30 9826 O 784.715 -7.54673 -6.86199 0
M  V30 9827 O 784.145 -5.12391 -7.179 0
M  V30 9828 O 784.685 -5.99158 -4.88404 0
M  V30 9829 C 785.625 -6.60234 -3.96415 0
M  V30 9830 C 784.895 -7.08259 -2.72856 0
M  V30 9831 O 784.685 -5.9427 -1.83651 0
M  V30 9832 C 783.495 -7.64886 -2.9555 0
M  V30 9833 O 783.105 -8.53963 -1.90717 0
M  V30 9834 C 782.615 -6.4116 -2.90739 0
M  V30 9835 C 783.325 -5.55375 -1.86963 0
M  V30 9836 N 783.275 -4.09664 -2.15742 0
M  V30 9837 H 786.114 -7.45574 -4.45629 0
M  V30 9838 H 786.386 -5.86232 -3.67314 0
M  V30 9839 H 785.518 -7.84412 -2.24479 0
M  V30 9840 P 781.555 -8.7635 -1.60911 0
M  V30 9841 O 781.335 -10.1388 -1.11561 0
M  V30 9842 O 780.765 -8.36503 -2.79617 0
M  V30 9843 O 781.305 -7.71806 -0.42951 0
M  V30 9844 C 782.245 -7.67148 0.673689 0
M  V30 9845 C 781.515 -7.33374 1.95559 0
M  V30 9846 O 781.305 -5.88721 2.00726 0
M  V30 9847 C 780.115 -7.92526 2.10483 0
M  V30 9848 O 779.725 -8.02971 3.47653 0
M  V30 9849 C 779.235 -6.89602 1.41652 0
M  V30 9850 C 779.945 -5.59201 1.75185 0
M  V30 9851 N 779.895 -4.58235 0.662552 0
M  V30 9852 H 782.734 -8.65116 0.777161 0
M  V30 9853 H 783.006 -6.90173 0.474152 0
M  V30 9854 H 782.138 -7.66548 2.79458 0
M  V30 9855 P 778.175 -8.03563 3.84925 0
M  V30 9856 O 777.955 -8.85821 5.0569 0
M  V30 9857 O 777.385 -8.41101 2.65469 0
M  V30 9858 O 777.925 -6.4965 4.18908 0
M  V30 9859 C 778.865 -5.81037 5.05421 0
M  V30 9860 C 778.135 -4.78366 5.89277 0
M  V30 9861 O 777.925 -3.58302 5.08433 0
M  V30 9862 C 776.735 -5.17448 6.36119 0
M  V30 9863 O 776.345 -4.45271 7.53232 0
M  V30 9864 C 775.855 -4.74639 5.19936 0
M  V30 9865 C 776.565 -3.49432 4.70418 0
M  V30 9866 N 776.515 -3.31776 3.22945 0
M  V30 9867 H 779.354 -6.54213 5.71376 0
M  V30 9868 H 779.626 -5.30492 4.44033 0
M  V30 9869 H 778.758 -4.55889 6.76652 0
M  V30 9870 P 774.795 -4.23843 7.83734 0
M  V30 9871 O 774.575 -4.19407 9.29784 0
M  V30 9872 O 774.005 -5.24426 7.09156 0
M  V30 9873 O 774.545 -2.7935 7.20758 0
M  V30 9874 C 775.485 -1.7299 7.50419 0
M  V30 9875 C 774.755 -0.406376 7.57911 0
M  V30 9876 O 774.545 0.0897726 6.21935 0
M  V30 9877 C 773.355 -0.447224 8.1878 0
M  V30 9878 O 772.965 0.825065 8.71101 0
M  V30 9879 C 772.475 -0.783801 6.99623 0
M  V30 9880 C 773.185 -0.0619192 5.85967 0
M  V30 9881 N 773.135 -0.790462 4.56202 0
M  V30 9882 H 775.974 -1.93423 8.4679 0
M  V30 9883 H 776.246 -1.68852 6.70877 0
M  V30 9884 H 775.378 0.289041 8.15388 0
M  V30 9885 H 772.723 0.927006 5.72848 0
M  V30 9886 H 772.443 -1.86973 6.82036 0
M  V30 9887 H 771.452 -0.403953 7.13357 0
M  V30 9888 H 773.286 -1.20599 8.97534 0
M  V30 9889 P 771.415 1.17771 8.83182 0
M  V30 9890 O 771.195 2.07206 9.98732 0
M  V30 9891 O 770.625 -0.0743816 8.81969 0
M  V30 9892 O 771.165 1.97678 7.474 0
M  V30 9893 C 772.105 3.01133 7.08783 0
M  V30 9894 C 771.375 4.1203 6.37546 0
M  V30 9895 O 771.165 3.72887 4.9796 0
M  V30 9896 C 769.975 4.45085 6.88694 0
M  V30 9897 O 769.585 5.78836 6.56315 0
M  V30 9898 C 769.095 3.47817 6.12078 0
M  V30 9899 C 769.805 3.39414 4.77697 0
M  V30 9900 N 769.755 2.04615 4.15333 0
M  V30 9901 C 769.605 1.96929 2.77162 0
M  V30 9902 O 769.515 3.02017 2.12006 0
M  V30 9903 N 769.555 0.55485 2.24237 0
M  V30 9904 C 769.655 -0.367808 2.9169 0
M  V30 9905 N 769.605 -1.53426 2.29427 0
M  V30 9906 C 769.805 -0.319148 4.33828 0
M  V30 9907 C 769.855 0.920672 4.90433 0
M  V30 9908 H 772.595 3.41209 7.98667 0
M  V30 9909 H 772.865 2.5837 6.41742 0
M  V30 9910 H 771.998 5.02718 6.42752 0
M  V30 9911 H 769.343 4.11779 4.09026 0
M  V30 9912 H 769.063 2.49661 6.61772 0
M  V30 9913 H 768.072 3.86674 6.00946 0
M  V30 9914 H 769.906 4.29991 7.97006 0
M  V30 9915 H 769.978 1.00589 5.98303 0
M  V30 9916 H 769.876 -1.22639 4.93799 0
M  V30 9917 H 769.488 -1.56819 1.27167 0
M  V30 9918 H 769.684 -2.41062 2.83063 0
M  V30 9919 P 768.035 6.144 6.45285 0
M  V30 9920 O 767.815 7.54673 6.86199 0
M  V30 9921 O 767.245 5.12391 7.179 0
M  V30 9922 O 767.785 5.99158 4.88404 0
M  V30 9923 C 768.725 6.60234 3.96415 0
M  V30 9924 C 767.995 7.08259 2.72856 0
M  V30 9925 O 767.785 5.9427 1.83651 0
M  V30 9926 C 766.595 7.64886 2.9555 0
M  V30 9927 O 766.205 8.53963 1.90717 0
M  V30 9928 C 765.715 6.4116 2.90739 0
M  V30 9929 C 766.425 5.55375 1.86963 0
M  V30 9930 N 766.375 4.09664 2.15742 0
M  V30 9931 H 769.214 7.45574 4.45629 0
M  V30 9932 H 769.486 5.86232 3.67314 0
M  V30 9933 H 768.618 7.84412 2.24479 0
M  V30 9934 P 764.656 8.7635 1.60911 0
M  V30 9935 O 764.436 10.1388 1.11561 0
M  V30 9936 O 763.866 8.36503 2.79617 0
M  V30 9937 O 764.406 7.71806 0.42951 0
M  V30 9938 C 765.346 7.67148 -0.673689 0
M  V30 9939 C 764.616 7.33374 -1.95559 0
M  V30 9940 O 764.406 5.88721 -2.00726 0
M  V30 9941 C 763.216 7.92526 -2.10483 0
M  V30 9942 O 762.826 8.02971 -3.47653 0
M  V30 9943 C 762.336 6.89602 -1.41652 0
M  V30 9944 C 763.046 5.59201 -1.75185 0
M  V30 9945 N 762.996 4.58235 -0.662552 0
M  V30 9946 H 765.835 8.65116 -0.777161 0
M  V30 9947 H 766.107 6.90173 -0.474152 0
M  V30 9948 H 765.239 7.66548 -2.79458 0
M  V30 9949 P 761.276 8.03563 -3.84925 0
M  V30 9950 O 761.056 8.85821 -5.0569 0
M  V30 9951 O 760.486 8.41101 -2.65469 0
M  V30 9952 O 761.026 6.4965 -4.18908 0
M  V30 9953 C 761.966 5.80886 -5.05289 0
M  V30 9954 C 761.236 4.78366 -5.89277 0
M  V30 9955 O 761.026 3.58302 -5.08433 0
M  V30 9956 C 759.836 5.16748 -6.36559 0
M  V30 9957 O 759.446 4.45271 -7.53232 0
M  V30 9958 C 758.956 4.74572 -5.19863 0
M  V30 9959 C 759.666 3.49373 -4.70338 0
M  V30 9960 N 759.616 3.31704 -3.22876 0
M  V30 9961 C 759.466 2.03326 -2.74871 0
M  V30 9962 O 759.376 1.06486 -3.48076 0
M  V30 9963 N 759.426 1.91838 -1.37456 0
M  V30 9964 C 759.516 2.94295 -0.462035 0
M  V30 9965 O 759.466 2.71763 0.752928 0
M  V30 9966 C 759.666 4.25064 -1.05249 0
M  V30 9967 C 759.776 5.39815 -0.095697 0
M  V30 9968 C 759.716 4.40214 -2.39192 0
M  V30 9969 H 762.457 6.54063 -5.71245 0
M  V30 9970 H 762.726 5.30339 -4.43905 0
M  V30 9971 H 761.859 4.55889 -6.76652 0
M  V30 9972 H 759.204 2.6167 -5.17842 0
M  V30 9973 H 758.925 5.52155 -4.41878 0
M  V30 9974 H 757.933 4.51918 -5.53297 0
M  V30 9975 H 759.767 6.25055 -6.55162 0
M  V30 9976 H 759.838 5.39798 -2.81523 0
M  V30 9977 H 758.808 5.91593 -0.0279582 0
M  V30 9978 H 760.545 6.10038 -0.450573 0
M  V30 9979 H 760.057 5.02007 0.89937 0
M  V30 9980 H 759.321 0.995326 -1.00435 0
M  V30 9981 P 757.896 4.23843 -7.83734 0
M  V30 9982 O 757.676 4.19407 -9.29784 0
M  V30 9983 O 757.106 5.24426 -7.09156 0
M  V30 9984 O 757.646 2.7935 -7.20758 0
M  V30 9985 C 758.586 1.72945 -7.50224 0
M  V30 9986 C 757.856 0.406376 -7.57911 0
M  V30 9987 O 757.646 -0.0897726 -6.21935 0
M  V30 9988 C 756.456 0.438983 -8.18724 0
M  V30 9989 O 756.066 -0.825065 -8.71101 0
M  V30 9990 C 755.576 0.783689 -6.99524 0
M  V30 9991 C 756.286 0.0619086 -5.85867 0
M  V30 9992 N 756.236 0.78573 -4.56183 0
M  V30 9993 C 756.086 0.0292889 -3.41887 0
M  V30 9994 O 755.996 -1.18445 -3.4419 0
M  V30 9995 N 756.046 0.744061 -2.23964 0
M  V30 9996 C 756.136 2.10932 -2.10362 0
M  V30 9997 C 756.286 2.8202 -3.34994 0
M  V30 9998 C 756.336 2.15547 -4.52261 0
M  V30 9999 H 759.077 1.93379 -8.46595 0
M  V30 10000 H 759.346 1.68132 -6.70852 0
M  V30 10001 H 758.479 -0.289041 -8.15388 0
M  V30 10002 H 755.824 -0.926847 -5.72749 0
M  V30 10003 H 755.545 1.86973 -6.82036 0
M  V30 10004 H 754.553 0.403896 -7.13257 0
M  V30 10005 H 756.387 1.20585 -8.97435 0
M  V30 10006 H 756.458 2.71231 -5.45042 0
M  V30 10007 P 754.516 -1.17771 -8.83182 0
M  V30 10008 O 754.296 -2.07206 -9.98732 0
M  V30 10009 O 753.726 0.0743816 -8.81969 0
M  V30 10010 O 754.266 -1.97652 -7.47304 0
M  V30 10011 C 755.206 -3.01133 -7.08783 0
M  V30 10012 C 754.476 -4.12613 -6.37049 0
M  V30 10013 O 754.266 -3.72827 -4.97879 0
M  V30 10014 C 753.076 -4.45085 -6.88694 0
M  V30 10015 O 752.686 -5.7877 -6.5624 0
M  V30 10016 C 752.196 -3.47817 -6.12078 0
M  V30 10017 C 752.906 -3.39414 -4.77697 0
M  V30 10018 N 752.856 -2.04615 -4.15333 0
M  V30 10019 H 755.695 -3.41248 -7.98759 0
M  V30 10020 H 755.967 -2.5837 -6.41742 0
M  V30 10021 H 755.099 -5.02657 -6.42673 0
M  V30 10022 P 751.136 -6.144 -6.45285 0
M  V30 10023 O 750.916 -7.54673 -6.86199 0
M  V30 10024 O 750.346 -5.12391 -7.179 0
M  V30 10025 O 750.886 -5.99158 -4.88404 0
M  V30 10026 C 751.826 -6.60234 -3.96415 0
M  V30 10027 C 751.096 -7.08259 -2.72856 0
M  V30 10028 O 750.886 -5.9427 -1.83651 0
M  V30 10029 C 749.696 -7.64886 -2.9555 0
M  V30 10030 O 749.306 -8.53963 -1.90717 0
M  V30 10031 C 748.816 -6.4116 -2.90739 0
M  V30 10032 C 749.526 -5.55375 -1.86963 0
M  V30 10033 N 749.476 -4.09664 -2.15742 0
M  V30 10034 H 752.315 -7.45574 -4.45629 0
M  V30 10035 H 752.587 -5.86232 -3.67314 0
M  V30 10036 H 751.719 -7.84412 -2.24479 0
M  V30 10037 P 747.756 -8.7635 -1.60911 0
M  V30 10038 O 747.536 -10.1388 -1.11561 0
M  V30 10039 O 746.966 -8.36503 -2.79617 0
M  V30 10040 O 747.506 -7.71806 -0.42951 0
M  V30 10041 C 748.446 -7.67148 0.673689 0
M  V30 10042 C 747.716 -7.33374 1.95559 0
M  V30 10043 O 747.506 -5.88721 2.00726 0
M  V30 10044 C 746.316 -7.92526 2.10483 0
M  V30 10045 O 745.926 -8.02971 3.47653 0
M  V30 10046 C 745.436 -6.89602 1.41652 0
M  V30 10047 C 746.146 -5.59201 1.75185 0
M  V30 10048 N 746.096 -4.58235 0.662552 0
M  V30 10049 H 748.935 -8.65116 0.777161 0
M  V30 10050 H 749.207 -6.90173 0.474152 0
M  V30 10051 H 748.339 -7.66548 2.79458 0
M  V30 10052 P 744.376 -8.03563 3.84925 0
M  V30 10053 O 744.156 -8.85821 5.0569 0
M  V30 10054 O 743.586 -8.41101 2.65469 0
M  V30 10055 O 744.126 -6.4965 4.18908 0
M  V30 10056 C 745.066 -5.81037 5.05421 0
M  V30 10057 C 744.336 -4.78366 5.89277 0
M  V30 10058 O 744.126 -3.58302 5.08433 0
M  V30 10059 C 742.936 -5.17448 6.36119 0
M  V30 10060 O 742.546 -4.45271 7.53232 0
M  V30 10061 C 742.056 -4.74639 5.19936 0
M  V30 10062 C 742.766 -3.49432 4.70418 0
M  V30 10063 N 742.716 -3.32099 3.22613 0
M  V30 10064 H 745.555 -6.54213 5.71376 0
M  V30 10065 H 745.827 -5.30936 4.43503 0
M  V30 10066 H 744.959 -4.55889 6.76652 0
M  V30 10067 H 742.304 -2.61715 5.17932 0
M  V30 10068 H 742.024 -5.52155 4.41878 0
M  V30 10069 H 741.033 -4.51981 5.53374 0
M  V30 10070 H 742.867 -6.25124 6.55234 0
M  V30 10071 P 740.996 -4.23843 7.83734 0
M  V30 10072 O 740.776 -4.19407 9.29784 0
M  V30 10073 O 740.206 -5.24426 7.09156 0
M  V30 10074 O 740.746 -2.79386 7.20852 0
M  V30 10075 C 741.686 -1.7299 7.50419 0
M  V30 10076 C 740.956 -0.41401 7.5797 0
M  V30 10077 O 740.746 0.089787 6.22035 0
M  V30 10078 C 739.556 -0.447224 8.1878 0
M  V30 10079 O 739.166 0.825159 8.71201 0
M  V30 10080 C 738.676 -0.783801 6.99623 0
M  V30 10081 C 739.386 -0.0619192 5.85967 0
M  V30 10082 N 739.336 -0.7859 4.56281 0
M  V30 10083 C 739.186 -0.0359258 3.39981 0
M  V30 10084 O 739.096 1.19723 3.49038 0
M  V30 10085 N 739.136 -0.869151 2.14025 0
M  V30 10086 C 739.236 -2.01207 2.14363 0
M  V30 10087 N 739.186 -2.58978 0.954287 0
M  V30 10088 C 739.386 -2.80817 3.32215 0
M  V30 10089 C 739.436 -2.13785 4.50884 0
M  V30 10090 H 742.176 -1.93401 8.46693 0
M  V30 10091 H 742.446 -1.68181 6.71046 0
M  V30 10092 H 741.579 0.289076 8.15488 0
M  V30 10093 H 738.924 0.927166 5.72947 0
M  V30 10094 H 738.644 -1.87 6.82132 0
M  V30 10095 H 737.653 -0.404009 7.13457 0
M  V30 10096 H 739.487 -1.20599 8.97534 0
M  V30 10097 H 739.559 -2.70295 5.43162 0
M  V30 10098 H 739.457 -3.89465 3.27406 0
M  V30 10099 H 739.069 -2.01616 0.107046 0
M  V30 10100 H 739.265 -3.61403 0.873101 0
M  V30 10101 P 737.616 1.17771 8.83182 0
M  V30 10102 O 737.396 2.07206 9.98732 0
M  V30 10103 O 736.826 -0.0743816 8.81969 0
M  V30 10104 O 737.366 1.97652 7.47304 0
M  V30 10105 C 738.306 3.01133 7.08783 0
M  V30 10106 C 737.576 4.12613 6.37049 0
M  V30 10107 O 737.366 3.72827 4.97879 0
M  V30 10108 C 736.176 4.45085 6.88694 0
M  V30 10109 O 735.786 5.7877 6.5624 0
M  V30 10110 C 735.296 3.47817 6.12078 0
M  V30 10111 C 736.006 3.39414 4.77697 0
M  V30 10112 N 735.956 2.04615 4.15333 0
M  V30 10113 H 738.795 3.41248 7.98759 0
M  V30 10114 H 739.067 2.5837 6.41742 0
M  V30 10115 H 738.199 5.02657 6.42673 0
M  V30 10116 P 734.236 6.144 6.45285 0
M  V30 10117 O 734.016 7.54673 6.86199 0
M  V30 10118 O 733.446 5.12391 7.179 0
M  V30 10119 O 733.986 5.99158 4.88404 0
M  V30 10120 C 734.926 6.60234 3.96415 0
M  V30 10121 C 734.196 7.08259 2.72856 0
M  V30 10122 O 733.986 5.9427 1.83651 0
M  V30 10123 C 732.796 7.64886 2.9555 0
M  V30 10124 O 732.406 8.53963 1.90717 0
M  V30 10125 C 731.916 6.4116 2.90739 0
M  V30 10126 C 732.626 5.55375 1.86963 0
M  V30 10127 N 732.576 4.09664 2.15742 0
M  V30 10128 H 735.415 7.45574 4.45629 0
M  V30 10129 H 735.687 5.86232 3.67314 0
M  V30 10130 H 734.819 7.84412 2.24479 0
M  V30 10131 P 730.856 8.7635 1.60911 0
M  V30 10132 O 730.636 10.1388 1.11561 0
M  V30 10133 O 730.066 8.36503 2.79617 0
M  V30 10134 O 730.606 7.71806 0.42951 0
M  V30 10135 C 731.546 7.67148 -0.673689 0
M  V30 10136 C 730.816 7.33374 -1.95559 0
M  V30 10137 O 730.606 5.88721 -2.00726 0
M  V30 10138 C 729.416 7.92526 -2.10483 0
M  V30 10139 O 729.026 8.02971 -3.47653 0
M  V30 10140 C 728.536 6.89602 -1.41652 0
M  V30 10141 C 729.246 5.59201 -1.75185 0
M  V30 10142 N 729.196 4.58235 -0.662552 0
M  V30 10143 H 732.035 8.65116 -0.777161 0
M  V30 10144 H 732.307 6.90173 -0.474152 0
M  V30 10145 H 731.439 7.66548 -2.79458 0
M  V30 10146 P 727.476 8.03563 -3.84925 0
M  V30 10147 O 727.256 8.85821 -5.0569 0
M  V30 10148 O 726.686 8.41101 -2.65469 0
M  V30 10149 O 727.226 6.4965 -4.18908 0
M  V30 10150 C 728.166 5.80886 -5.05289 0
M  V30 10151 C 727.436 4.78366 -5.89277 0
M  V30 10152 O 727.226 3.58302 -5.08433 0
M  V30 10153 C 726.036 5.16748 -6.36559 0
M  V30 10154 O 725.646 4.45271 -7.53232 0
M  V30 10155 C 725.156 4.74572 -5.19863 0
M  V30 10156 C 725.866 3.49373 -4.70338 0
M  V30 10157 N 725.816 3.31704 -3.22876 0
M  V30 10158 C 725.666 2.03326 -2.74871 0
M  V30 10159 O 725.576 1.06486 -3.48076 0
M  V30 10160 N 725.626 1.91838 -1.37456 0
M  V30 10161 C 725.716 2.94295 -0.462035 0
M  V30 10162 C 725.866 4.25064 -1.05249 0
M  V30 10163 C 725.916 4.40214 -2.39192 0
M  V30 10164 H 728.657 6.54063 -5.71245 0
M  V30 10165 H 728.926 5.30339 -4.43905 0
M  V30 10166 H 728.059 4.55889 -6.76652 0
M  V30 10167 H 725.404 2.6167 -5.17842 0
M  V30 10168 H 725.125 5.52155 -4.41878 0
M  V30 10169 H 724.133 4.51918 -5.53297 0
M  V30 10170 H 725.967 6.25055 -6.55162 0
M  V30 10171 H 726.038 5.39798 -2.81523 0
M  V30 10172 P 724.096 4.23843 -7.83734 0
M  V30 10173 O 723.876 4.19407 -9.29784 0
M  V30 10174 O 723.306 5.24426 -7.09156 0
M  V30 10175 O 723.846 2.7935 -7.20758 0
M  V30 10176 C 724.786 1.7299 -7.50419 0
M  V30 10177 C 724.056 0.406376 -7.57911 0
M  V30 10178 O 723.846 -0.0897726 -6.21935 0
M  V30 10179 C 722.656 0.447224 -8.1878 0
M  V30 10180 O 722.266 -0.825065 -8.71101 0
M  V30 10181 C 721.776 0.783801 -6.99623 0
M  V30 10182 C 722.486 0.0619192 -5.85967 0
M  V30 10183 N 722.436 0.7859 -4.56281 0
M  V30 10184 H 725.275 1.93423 -8.4679 0
M  V30 10185 H 725.547 1.68181 -6.71046 0
M  V30 10186 H 724.679 -0.289041 -8.15388 0
M  V30 10187 P 720.716 -1.17771 -8.83182 0
M  V30 10188 O 720.496 -2.07206 -9.98732 0
M  V30 10189 O 719.926 0.0743816 -8.81969 0
M  V30 10190 O 720.466 -1.97652 -7.47304 0
M  V30 10191 C 721.406 -3.01133 -7.08783 0
M  V30 10192 C 720.676 -4.12613 -6.37049 0
M  V30 10193 O 720.466 -3.72827 -4.97879 0
M  V30 10194 C 719.276 -4.45085 -6.88694 0
M  V30 10195 O 718.886 -5.7877 -6.5624 0
M  V30 10196 C 718.396 -3.47817 -6.12078 0
M  V30 10197 C 719.106 -3.39414 -4.77697 0
M  V30 10198 N 719.056 -2.04615 -4.15333 0
M  V30 10199 H 721.895 -3.41248 -7.98759 0
M  V30 10200 H 722.167 -2.5837 -6.41742 0
M  V30 10201 H 721.299 -5.02657 -6.42673 0
M  V30 10202 P 717.336 -6.144 -6.45285 0
M  V30 10203 O 717.116 -7.54673 -6.86199 0
M  V30 10204 O 716.546 -5.12391 -7.179 0
M  V30 10205 O 717.086 -5.99158 -4.88404 0
M  V30 10206 C 718.026 -6.60234 -3.96415 0
M  V30 10207 C 717.296 -7.08259 -2.72856 0
M  V30 10208 O 717.086 -5.9427 -1.83651 0
M  V30 10209 C 715.896 -7.64886 -2.9555 0
M  V30 10210 O 715.506 -8.53963 -1.90717 0
M  V30 10211 C 715.016 -6.4116 -2.90739 0
M  V30 10212 C 715.726 -5.55375 -1.86963 0
M  V30 10213 N 715.676 -4.09664 -2.15742 0
M  V30 10214 H 718.515 -7.45574 -4.45629 0
M  V30 10215 H 718.787 -5.86232 -3.67314 0
M  V30 10216 H 717.919 -7.84412 -2.24479 0
M  V30 10217 P 713.956 -8.7635 -1.60911 0
M  V30 10218 O 713.736 -10.1388 -1.11561 0
M  V30 10219 O 713.166 -8.36503 -2.79617 0
M  V30 10220 O 713.706 -7.71806 -0.42951 0
M  V30 10221 C 714.646 -7.67148 0.673689 0
M  V30 10222 C 713.916 -7.33374 1.95559 0
M  V30 10223 O 713.706 -5.88721 2.00726 0
M  V30 10224 C 712.516 -7.92526 2.10483 0
M  V30 10225 O 712.126 -8.02971 3.47653 0
M  V30 10226 C 711.636 -6.89602 1.41652 0
M  V30 10227 C 712.346 -5.59201 1.75185 0
M  V30 10228 N 712.296 -4.58301 0.657969 0
M  V30 10229 H 715.135 -8.65116 0.777161 0
M  V30 10230 H 715.407 -6.9022 0.46725 0
M  V30 10231 H 714.539 -7.66548 2.79458 0
M  V30 10232 H 711.884 -5.16165 2.65183 0
M  V30 10233 H 711.604 -7.06433 0.329384 0
M  V30 10234 H 710.613 -6.90926 1.82021 0
M  V30 10235 H 712.447 -8.90873 1.62657 0
M  V30 10236 P 710.576 -8.03563 3.84925 0
M  V30 10237 O 710.356 -8.85821 5.0569 0
M  V30 10238 O 709.786 -8.41101 2.65469 0
M  V30 10239 O 710.326 -6.49734 4.18962 0
M  V30 10240 C 711.266 -5.81037 5.05421 0
M  V30 10241 C 710.536 -4.79018 5.88876 0
M  V30 10242 O 710.326 -3.58359 5.08515 0
M  V30 10243 C 709.136 -5.17448 6.36119 0
M  V30 10244 O 708.746 -4.45322 7.53318 0
M  V30 10245 C 708.256 -4.74639 5.19936 0
M  V30 10246 C 708.966 -3.49432 4.70418 0
M  V30 10247 N 708.916 -3.31776 3.22945 0
M  V30 10248 C 708.766 -2.02742 2.72939 0
M  V30 10249 O 708.676 -1.08301 3.52749 0
M  V30 10250 N 708.716 -1.96117 1.22063 0
M  V30 10251 C 708.816 -2.8878 0.551566 0
M  V30 10252 N 708.766 -2.65609 -0.750198 0
M  V30 10253 C 708.966 -4.22457 1.03707 0
M  V30 10254 C 709.016 -4.37979 2.39113 0
M  V30 10255 H 711.756 -6.54138 5.7131 0
M  V30 10256 H 712.026 -5.30492 4.44033 0
M  V30 10257 H 711.159 -4.55945 6.76735 0
M  V30 10258 H 708.504 -2.6176 5.18021 0
M  V30 10259 H 708.224 -5.52233 4.41941 0
M  V30 10260 H 707.233 -4.52045 5.53452 0
M  V30 10261 H 709.067 -6.25124 6.55234 0
M  V30 10262 H 709.139 -5.37936 2.80552 0
M  V30 10263 H 709.037 -5.07528 0.359553 0
M  V30 10264 H 708.649 -1.69403 -1.09847 0
M  V30 10265 H 708.845 -3.43701 -1.41792 0
M  V30 10266 P 707.196 -4.23843 7.83734 0
M  V30 10267 O 706.976 -4.19407 9.29784 0
M  V30 10268 O 706.406 -5.24426 7.09156 0
M  V30 10269 O 706.946 -2.79386 7.20852 0
M  V30 10270 C 707.886 -1.7299 7.50419 0
M  V30 10271 C 707.156 -0.41401 7.5797 0
M  V30 10272 O 706.946 0.089787 6.22035 0
M  V30 10273 C 705.756 -0.447224 8.1878 0
M  V30 10274 O 705.366 0.825159 8.71201 0
M  V30 10275 C 704.876 -0.783801 6.99623 0
M  V30 10276 C 705.586 -0.0619192 5.85967 0
M  V30 10277 N 705.536 -0.7859 4.56281 0
M  V30 10278 C 705.386 -0.0359258 3.39981 0
M  V30 10279 O 705.296 1.19723 3.49038 0
M  V30 10280 N 705.336 -0.869151 2.14025 0
M  V30 10281 C 705.436 -2.01207 2.14363 0
M  V30 10282 N 705.386 -2.58978 0.954287 0
M  V30 10283 C 705.586 -2.80817 3.32215 0
M  V30 10284 C 705.636 -2.13785 4.50884 0
M  V30 10285 H 708.376 -1.93401 8.46693 0
M  V30 10286 H 708.646 -1.68181 6.71046 0
M  V30 10287 H 707.779 0.289076 8.15488 0
M  V30 10288 H 705.124 0.927166 5.72947 0
M  V30 10289 H 704.844 -1.87 6.82132 0
M  V30 10290 H 703.853 -0.404009 7.13457 0
M  V30 10291 H 705.687 -1.20599 8.97534 0
M  V30 10292 H 705.759 -2.70295 5.43162 0
M  V30 10293 H 705.657 -3.89465 3.27406 0
M  V30 10294 H 705.269 -2.01616 0.107046 0
M  V30 10295 H 705.465 -3.61403 0.873101 0
M  V30 10296 P 703.816 1.17771 8.83182 0
M  V30 10297 O 703.596 2.07206 9.98732 0
M  V30 10298 O 703.026 -0.0743816 8.81969 0
M  V30 10299 O 703.566 1.97652 7.47304 0
M  V30 10300 C 704.506 3.01133 7.08783 0
M  V30 10301 C 703.776 4.12613 6.37049 0
M  V30 10302 O 703.566 3.72827 4.97879 0
M  V30 10303 C 702.376 4.45085 6.88694 0
M  V30 10304 O 701.986 5.7877 6.5624 0
M  V30 10305 C 701.496 3.47817 6.12078 0
M  V30 10306 C 702.206 3.39414 4.77697 0
M  V30 10307 N 702.156 2.04199 4.15538 0
M  V30 10308 H 704.995 3.41248 7.98759 0
M  V30 10309 H 705.267 2.57728 6.42 0
M  V30 10310 H 704.399 5.02657 6.42673 0
M  V30 10311 H 701.744 4.11708 4.08956 0
M  V30 10312 H 701.464 2.49626 6.61679 0
M  V30 10313 H 700.473 3.8662 6.00862 0
M  V30 10314 H 702.307 4.29991 7.97006 0
M  V30 10315 P 700.436 6.144 6.45285 0
M  V30 10316 O 700.216 7.54673 6.86199 0
M  V30 10317 O 699.646 5.12391 7.179 0
M  V30 10318 O 700.186 5.99158 4.88404 0
M  V30 10319 C 701.126 6.60234 3.96415 0
M  V30 10320 C 700.396 7.08259 2.72856 0
M  V30 10321 O 700.186 5.9427 1.83651 0
M  V30 10322 C 698.996 7.64886 2.9555 0
M  V30 10323 O 698.606 8.53963 1.90717 0
M  V30 10324 C 698.116 6.4116 2.90739 0
M  V30 10325 C 698.826 5.55375 1.86963 0
M  V30 10326 N 698.776 4.09664 2.15742 0
M  V30 10327 H 701.615 7.45574 4.45629 0
M  V30 10328 H 701.887 5.86232 3.67314 0
M  V30 10329 H 701.019 7.84412 2.24479 0
M  V30 10330 P 697.056 8.7635 1.60911 0
M  V30 10331 O 696.836 10.1388 1.11561 0
M  V30 10332 O 696.266 8.36503 2.79617 0
M  V30 10333 O 696.806 7.71806 0.42951 0
M  V30 10334 C 697.746 7.67148 -0.673689 0
M  V30 10335 C 697.016 7.33374 -1.95559 0
M  V30 10336 O 696.806 5.88721 -2.00726 0
M  V30 10337 C 695.616 7.92526 -2.10483 0
M  V30 10338 O 695.226 8.02971 -3.47653 0
M  V30 10339 C 694.736 6.89602 -1.41652 0
M  V30 10340 C 695.446 5.59201 -1.75185 0
M  V30 10341 N 695.396 4.58235 -0.662552 0
M  V30 10342 H 698.235 8.65116 -0.777161 0
M  V30 10343 H 698.507 6.90173 -0.474152 0
M  V30 10344 H 697.639 7.66548 -2.79458 0
M  V30 10345 P 693.676 8.03563 -3.84925 0
M  V30 10346 O 693.456 8.85821 -5.0569 0
M  V30 10347 O 692.886 8.41101 -2.65469 0
M  V30 10348 O 693.426 6.4965 -4.18908 0
M  V30 10349 C 694.366 5.80886 -5.05289 0
M  V30 10350 C 693.636 4.78366 -5.89277 0
M  V30 10351 O 693.426 3.58302 -5.08433 0
M  V30 10352 C 692.236 5.16748 -6.36559 0
M  V30 10353 O 691.846 4.45271 -7.53232 0
M  V30 10354 C 691.356 4.74572 -5.19863 0
M  V30 10355 C 692.066 3.49373 -4.70338 0
M  V30 10356 N 692.016 3.31704 -3.22876 0
M  V30 10357 C 691.866 2.03326 -2.74871 0
M  V30 10358 O 691.776 1.06486 -3.48076 0
M  V30 10359 N 691.826 1.91838 -1.37456 0
M  V30 10360 C 691.916 2.94295 -0.462035 0
M  V30 10361 C 692.066 4.25064 -1.05249 0
M  V30 10362 C 692.116 4.40214 -2.39192 0
M  V30 10363 H 694.857 6.54063 -5.71245 0
M  V30 10364 H 695.126 5.30339 -4.43905 0
M  V30 10365 H 694.259 4.55889 -6.76652 0
M  V30 10366 H 691.604 2.6167 -5.17842 0
M  V30 10367 H 691.325 5.52155 -4.41878 0
M  V30 10368 H 690.333 4.51918 -5.53297 0
M  V30 10369 H 692.167 6.25055 -6.55162 0
M  V30 10370 H 692.238 5.39798 -2.81523 0
M  V30 10371 P 690.296 4.23843 -7.83734 0
M  V30 10372 O 690.076 4.19407 -9.29784 0
M  V30 10373 O 689.506 5.24426 -7.09156 0
M  V30 10374 O 690.046 2.7935 -7.20758 0
M  V30 10375 C 690.986 1.7299 -7.50419 0
M  V30 10376 C 690.256 0.406376 -7.57911 0
M  V30 10377 O 690.046 -0.0897726 -6.21935 0
M  V30 10378 C 688.856 0.447224 -8.1878 0
M  V30 10379 O 688.466 -0.825065 -8.71101 0
M  V30 10380 C 687.976 0.783801 -6.99623 0
M  V30 10381 C 688.686 0.0619192 -5.85967 0
M  V30 10382 N 688.636 0.7859 -4.56281 0
M  V30 10383 H 691.475 1.93423 -8.4679 0
M  V30 10384 H 691.747 1.68181 -6.71046 0
M  V30 10385 H 690.879 -0.289041 -8.15388 0
M  V30 10386 P 686.916 -1.17771 -8.83182 0
M  V30 10387 O 686.696 -2.07206 -9.98732 0
M  V30 10388 O 686.126 0.0743816 -8.81969 0
M  V30 10389 O 686.666 -1.97652 -7.47304 0
M  V30 10390 C 687.606 -3.01133 -7.08783 0
M  V30 10391 C 686.876 -4.12613 -6.37049 0
M  V30 10392 O 686.666 -3.72827 -4.97879 0
M  V30 10393 C 685.476 -4.45085 -6.88694 0
M  V30 10394 O 685.086 -5.7877 -6.5624 0
M  V30 10395 C 684.596 -3.47817 -6.12078 0
M  V30 10396 C 685.306 -3.39414 -4.77697 0
M  V30 10397 N 685.256 -2.04615 -4.15333 0
M  V30 10398 H 688.095 -3.41248 -7.98759 0
M  V30 10399 H 688.367 -2.5837 -6.41742 0
M  V30 10400 H 687.499 -5.02657 -6.42673 0
M  V30 10401 P 683.536 -6.144 -6.45285 0
M  V30 10402 O 683.316 -7.54673 -6.86199 0
M  V30 10403 O 682.746 -5.12391 -7.179 0
M  V30 10404 O 683.286 -5.99158 -4.88404 0
M  V30 10405 C 684.226 -6.60234 -3.96415 0
M  V30 10406 C 683.496 -7.08259 -2.72856 0
M  V30 10407 O 683.286 -5.9427 -1.83651 0
M  V30 10408 C 682.096 -7.64886 -2.9555 0
M  V30 10409 O 681.706 -8.53963 -1.90717 0
M  V30 10410 C 681.216 -6.4116 -2.90739 0
M  V30 10411 C 681.926 -5.55375 -1.86963 0
M  V30 10412 N 681.876 -4.09664 -2.15742 0
M  V30 10413 H 684.715 -7.45574 -4.45629 0
M  V30 10414 H 684.987 -5.86232 -3.67314 0
M  V30 10415 H 684.119 -7.84412 -2.24479 0
M  V30 10416 P 680.156 -8.7635 -1.60911 0
M  V30 10417 O 679.936 -10.1388 -1.11561 0
M  V30 10418 O 679.366 -8.36503 -2.79617 0
M  V30 10419 O 679.906 -7.71806 -0.42951 0
M  V30 10420 C 680.846 -7.67148 0.673689 0
M  V30 10421 C 680.116 -7.33374 1.95559 0
M  V30 10422 O 679.906 -5.88721 2.00726 0
M  V30 10423 C 678.716 -7.92526 2.10483 0
M  V30 10424 O 678.326 -8.02971 3.47653 0
M  V30 10425 C 677.836 -6.89602 1.41652 0
M  V30 10426 C 678.546 -5.59201 1.75185 0
M  V30 10427 N 678.496 -4.58235 0.662552 0
M  V30 10428 H 681.335 -8.65116 0.777161 0
M  V30 10429 H 681.607 -6.90173 0.474152 0
M  V30 10430 H 680.739 -7.66548 2.79458 0
M  V30 10431 P 676.776 -8.03563 3.84925 0
M  V30 10432 O 676.556 -8.85821 5.0569 0
M  V30 10433 O 675.986 -8.41101 2.65469 0
M  V30 10434 O 676.526 -6.4965 4.18908 0
M  V30 10435 C 677.466 -5.81037 5.05421 0
M  V30 10436 C 676.736 -4.78366 5.89277 0
M  V30 10437 O 676.526 -3.58302 5.08433 0
M  V30 10438 C 675.336 -5.17448 6.36119 0
M  V30 10439 O 674.946 -4.45271 7.53232 0
M  V30 10440 C 674.456 -4.74639 5.19936 0
M  V30 10441 C 675.166 -3.49432 4.70418 0
M  V30 10442 N 675.116 -3.31776 3.22945 0
M  V30 10443 H 677.955 -6.54213 5.71376 0
M  V30 10444 H 678.227 -5.30492 4.44033 0
M  V30 10445 H 677.359 -4.55889 6.76652 0
M  V30 10446 P 673.396 -4.23843 7.83734 0
M  V30 10447 O 673.176 -4.19407 9.29784 0
M  V30 10448 O 672.606 -5.24426 7.09156 0
M  V30 10449 O 673.146 -2.79386 7.20852 0
M  V30 10450 C 674.086 -1.7299 7.50419 0
M  V30 10451 C 673.356 -0.41401 7.5797 0
M  V30 10452 O 673.146 0.089787 6.22035 0
M  V30 10453 C 671.956 -0.447224 8.1878 0
M  V30 10454 O 671.566 0.825159 8.71201 0
M  V30 10455 C 671.076 -0.783801 6.99623 0
M  V30 10456 C 671.786 -0.0619192 5.85967 0
M  V30 10457 N 671.736 -0.7859 4.56281 0
M  V30 10458 C 671.586 -0.0359258 3.39981 0
M  V30 10459 O 671.496 1.19723 3.49038 0
M  V30 10460 N 671.536 -0.869151 2.14025 0
M  V30 10461 C 671.636 -2.01207 2.14363 0
M  V30 10462 N 671.586 -2.58978 0.954287 0
M  V30 10463 C 671.786 -2.80817 3.32215 0
M  V30 10464 C 671.836 -2.13785 4.50884 0
M  V30 10465 H 674.576 -1.93401 8.46693 0
M  V30 10466 H 674.846 -1.68181 6.71046 0
M  V30 10467 H 673.979 0.289076 8.15488 0
M  V30 10468 H 671.324 0.927166 5.72947 0
M  V30 10469 H 671.044 -1.87 6.82132 0
M  V30 10470 H 670.053 -0.404009 7.13457 0
M  V30 10471 H 671.887 -1.20599 8.97534 0
M  V30 10472 H 671.959 -2.70295 5.43162 0
M  V30 10473 H 671.857 -3.89465 3.27406 0
M  V30 10474 H 671.469 -2.01616 0.107046 0
M  V30 10475 H 671.665 -3.61403 0.873101 0
M  V30 10476 P 670.016 1.17771 8.83182 0
M  V30 10477 O 669.796 2.07206 9.98732 0
M  V30 10478 O 669.226 -0.0743816 8.81969 0
M  V30 10479 O 669.766 1.97652 7.47304 0
M  V30 10480 C 670.706 3.01133 7.08783 0
M  V30 10481 C 669.976 4.12613 6.37049 0
M  V30 10482 O 669.766 3.72827 4.97879 0
M  V30 10483 C 668.576 4.45085 6.88694 0
M  V30 10484 O 668.186 5.7877 6.5624 0
M  V30 10485 C 667.696 3.47817 6.12078 0
M  V30 10486 C 668.406 3.39414 4.77697 0
M  V30 10487 N 668.356 2.04199 4.15538 0
M  V30 10488 H 671.195 3.41248 7.98759 0
M  V30 10489 H 671.467 2.57728 6.42 0
M  V30 10490 H 670.599 5.02657 6.42673 0
M  V30 10491 H 667.944 4.11708 4.08956 0
M  V30 10492 H 667.664 2.49626 6.61679 0
M  V30 10493 H 666.673 3.8662 6.00862 0
M  V30 10494 H 668.507 4.29991 7.97006 0
M  V30 10495 P 666.636 6.144 6.45285 0
M  V30 10496 O 666.416 7.54673 6.86199 0
M  V30 10497 O 665.846 5.12391 7.179 0
M  V30 10498 O 666.386 5.99158 4.88404 0
M  V30 10499 C 667.326 6.60062 3.96313 0
M  V30 10500 C 666.596 7.08259 2.72856 0
M  V30 10501 O 666.386 5.9427 1.83651 0
M  V30 10502 C 665.196 7.65087 2.94749 0
M  V30 10503 O 664.806 8.53963 1.90717 0
M  V30 10504 C 664.316 6.41069 2.90698 0
M  V30 10505 C 665.026 5.5528 1.86931 0
M  V30 10506 N 664.976 4.09575 2.15696 0
M  V30 10507 C 664.826 3.24249 1.08435 0
M  V30 10508 O 664.736 3.63946 -0.0628747 0
M  V30 10509 N 664.786 1.90009 1.39973 0
M  V30 10510 C 664.876 1.34884 2.65614 0
M  V30 10511 C 665.026 2.3145 3.71736 0
M  V30 10512 C 665.076 3.63518 3.44754 0
M  V30 10513 H 667.817 7.45402 4.45526 0
M  V30 10514 H 668.086 5.86062 3.67208 0
M  V30 10515 H 667.219 7.84412 2.24479 0
M  V30 10516 H 664.564 5.73358 0.888409 0
M  V30 10517 H 664.285 5.90877 3.88583 0
M  V30 10518 H 663.293 6.65867 2.58821 0
M  V30 10519 H 665.127 8.16248 3.92006 0
M  V30 10520 H 665.198 4.34551 4.26383 0
M  V30 10521 P 663.256 8.7635 1.60911 0
M  V30 10522 O 663.036 10.1388 1.11561 0
M  V30 10523 O 662.466 8.36503 2.79617 0
M  V30 10524 O 663.006 7.71806 0.42951 0
M  V30 10525 C 663.946 7.67148 -0.673689 0
M  V30 10526 C 663.216 7.33374 -1.95559 0
M  V30 10527 O 663.006 5.88721 -2.00726 0
M  V30 10528 C 661.816 7.92526 -2.10483 0
M  V30 10529 O 661.426 8.02971 -3.47653 0
M  V30 10530 C 660.936 6.89602 -1.41652 0
M  V30 10531 C 661.646 5.59201 -1.75185 0
M  V30 10532 N 661.596 4.58235 -0.662552 0
M  V30 10533 H 664.435 8.65116 -0.777161 0
M  V30 10534 H 664.707 6.90173 -0.474152 0
M  V30 10535 H 663.839 7.66548 -2.79458 0
M  V30 10536 P 659.876 8.03563 -3.84925 0
M  V30 10537 O 659.656 8.85821 -5.0569 0
M  V30 10538 O 659.086 8.41101 -2.65469 0
M  V30 10539 O 659.626 6.4965 -4.18908 0
M  V30 10540 C 660.566 5.81037 -5.05421 0
M  V30 10541 C 659.836 4.78366 -5.89277 0
M  V30 10542 O 659.626 3.58302 -5.08433 0
M  V30 10543 C 658.436 5.17448 -6.36119 0
M  V30 10544 O 658.046 4.45271 -7.53232 0
M  V30 10545 C 657.556 4.74639 -5.19936 0
M  V30 10546 C 658.266 3.49432 -4.70418 0
M  V30 10547 N 658.216 3.31776 -3.22945 0
M  V30 10548 H 661.055 6.54213 -5.71376 0
M  V30 10549 H 661.327 5.30492 -4.44033 0
M  V30 10550 H 660.459 4.55889 -6.76652 0
M  V30 10551 P 656.496 4.23843 -7.83734 0
M  V30 10552 O 656.276 4.19407 -9.29784 0
M  V30 10553 O 655.706 5.24426 -7.09156 0
M  V30 10554 O 656.246 2.7935 -7.20758 0
M  V30 10555 C 657.186 1.7299 -7.50419 0
M  V30 10556 C 656.456 0.406376 -7.57911 0
M  V30 10557 O 656.246 -0.0897726 -6.21935 0
M  V30 10558 C 655.056 0.447224 -8.1878 0
M  V30 10559 O 654.666 -0.825065 -8.71101 0
M  V30 10560 C 654.176 0.783801 -6.99623 0
M  V30 10561 C 654.886 0.0619192 -5.85967 0
M  V30 10562 N 654.836 0.7859 -4.56281 0
M  V30 10563 H 657.675 1.93423 -8.4679 0
M  V30 10564 H 657.947 1.68181 -6.71046 0
M  V30 10565 H 657.079 -0.289041 -8.15388 0
M  V30 10566 P 653.116 -1.17771 -8.83182 0
M  V30 10567 O 652.896 -2.07206 -9.98732 0
M  V30 10568 O 652.326 0.0743816 -8.81969 0
M  V30 10569 O 652.866 -1.97652 -7.47304 0
M  V30 10570 C 653.806 -3.01133 -7.08783 0
M  V30 10571 C 653.076 -4.12613 -6.37049 0
M  V30 10572 O 652.866 -3.72827 -4.97879 0
M  V30 10573 C 651.676 -4.45085 -6.88694 0
M  V30 10574 O 651.286 -5.7877 -6.5624 0
M  V30 10575 C 650.796 -3.47817 -6.12078 0
M  V30 10576 C 651.506 -3.39414 -4.77697 0
M  V30 10577 N 651.456 -2.04615 -4.15333 0
M  V30 10578 H 654.295 -3.41248 -7.98759 0
M  V30 10579 H 654.567 -2.5837 -6.41742 0
M  V30 10580 H 653.699 -5.02657 -6.42673 0
M  V30 10581 P 649.736 -6.144 -6.45285 0
M  V30 10582 O 649.516 -7.54673 -6.86199 0
M  V30 10583 O 648.946 -5.12391 -7.179 0
M  V30 10584 O 649.486 -5.99158 -4.88404 0
M  V30 10585 C 650.426 -6.60234 -3.96415 0
M  V30 10586 C 649.696 -7.08259 -2.72856 0
M  V30 10587 O 649.486 -5.9427 -1.83651 0
M  V30 10588 C 648.296 -7.64886 -2.9555 0
M  V30 10589 O 647.906 -8.53963 -1.90717 0
M  V30 10590 C 647.416 -6.4116 -2.90739 0
M  V30 10591 C 648.126 -5.55375 -1.86963 0
M  V30 10592 N 648.076 -4.09448 -2.16152 0
M  V30 10593 H 650.915 -7.45574 -4.45629 0
M  V30 10594 H 651.187 -5.85864 -3.679 0
M  V30 10595 H 650.319 -7.84412 -2.24479 0
M  V30 10596 H 647.664 -5.73457 -0.888562 0
M  V30 10597 H 647.384 -5.90877 -3.88583 0
M  V30 10598 H 646.393 -6.6596 -2.58858 0
M  V30 10599 H 648.227 -8.16339 -3.92049 0
M  V30 10600 P 646.356 -8.7635 -1.60911 0
M  V30 10601 O 646.136 -10.1388 -1.11561 0
M  V30 10602 O 645.566 -8.36503 -2.79617 0
M  V30 10603 O 646.106 -7.71806 -0.42951 0
M  V30 10604 C 647.046 -7.67148 0.673689 0
M  V30 10605 C 646.316 -7.33374 1.95559 0
M  V30 10606 O 646.106 -5.88721 2.00726 0
M  V30 10607 C 644.916 -7.92526 2.10483 0
M  V30 10608 O 644.526 -8.02971 3.47653 0
M  V30 10609 C 644.036 -6.89602 1.41652 0
M  V30 10610 C 644.746 -5.59201 1.75185 0
M  V30 10611 N 644.696 -4.58235 0.662552 0
M  V30 10612 H 647.535 -8.65116 0.777161 0
M  V30 10613 H 647.807 -6.90173 0.474152 0
M  V30 10614 H 646.939 -7.66548 2.79458 0
M  V30 10615 P 642.976 -8.03563 3.84925 0
M  V30 10616 O 642.756 -8.85821 5.0569 0
M  V30 10617 O 642.186 -8.41101 2.65469 0
M  V30 10618 O 642.726 -6.4965 4.18908 0
M  V30 10619 C 643.666 -5.81037 5.05421 0
M  V30 10620 C 642.936 -4.78366 5.89277 0
M  V30 10621 O 642.726 -3.58302 5.08433 0
M  V30 10622 C 641.536 -5.17448 6.36119 0
M  V30 10623 O 641.146 -4.45271 7.53232 0
M  V30 10624 C 640.656 -4.74639 5.19936 0
M  V30 10625 C 641.366 -3.49432 4.70418 0
M  V30 10626 N 641.316 -3.32099 3.22613 0
M  V30 10627 H 644.155 -6.54213 5.71376 0
M  V30 10628 H 644.427 -5.30936 4.43503 0
M  V30 10629 H 643.559 -4.55889 6.76652 0
M  V30 10630 H 640.904 -2.61715 5.17932 0
M  V30 10631 H 640.624 -5.52155 4.41878 0
M  V30 10632 H 639.633 -4.51981 5.53374 0
M  V30 10633 H 641.467 -6.25124 6.55234 0
M  V30 10634 P 639.596 -4.23843 7.83734 0
M  V30 10635 O 639.376 -4.19407 9.29784 0
M  V30 10636 O 638.806 -5.24426 7.09156 0
M  V30 10637 O 639.346 -2.7935 7.20758 0
M  V30 10638 C 640.286 -1.7299 7.50419 0
M  V30 10639 C 639.556 -0.406376 7.57911 0
M  V30 10640 O 639.346 0.0897726 6.21935 0
M  V30 10641 C 638.156 -0.447224 8.1878 0
M  V30 10642 O 637.766 0.825065 8.71101 0
M  V30 10643 C 637.276 -0.783801 6.99623 0
M  V30 10644 C 637.986 -0.0619192 5.85967 0
M  V30 10645 N 637.936 -0.7859 4.56281 0
M  V30 10646 H 640.775 -1.93423 8.4679 0
M  V30 10647 H 641.047 -1.68181 6.71046 0
M  V30 10648 H 640.179 0.289041 8.15388 0
M  V30 10649 P 636.216 1.17771 8.83182 0
M  V30 10650 O 635.996 2.07206 9.98732 0
M  V30 10651 O 635.426 -0.0743816 8.81969 0
M  V30 10652 O 635.966 1.97652 7.47304 0
M  V30 10653 C 636.906 3.01133 7.08783 0
M  V30 10654 C 636.176 4.12613 6.37049 0
M  V30 10655 O 635.966 3.72827 4.97879 0
M  V30 10656 C 634.776 4.45085 6.88694 0
M  V30 10657 O 634.386 5.7877 6.5624 0
M  V30 10658 C 633.896 3.47817 6.12078 0
M  V30 10659 C 634.606 3.39414 4.77697 0
M  V30 10660 N 634.556 2.04615 4.15333 0
M  V30 10661 H 637.395 3.41248 7.98759 0
M  V30 10662 H 637.667 2.5837 6.41742 0
M  V30 10663 H 636.799 5.02657 6.42673 0
M  V30 10664 P 632.836 6.144 6.45285 0
M  V30 10665 O 632.616 7.54673 6.86199 0
M  V30 10666 O 632.046 5.12391 7.179 0
M  V30 10667 O 632.586 5.99158 4.88404 0
M  V30 10668 C 633.526 6.60234 3.96415 0
M  V30 10669 C 632.796 7.08259 2.72856 0
M  V30 10670 O 632.586 5.9427 1.83651 0
M  V30 10671 C 631.396 7.64886 2.9555 0
M  V30 10672 O 631.006 8.53963 1.90717 0
M  V30 10673 C 630.516 6.4116 2.90739 0
M  V30 10674 C 631.226 5.55375 1.86963 0
M  V30 10675 N 631.176 4.09448 2.16152 0
M  V30 10676 H 634.015 7.45574 4.45629 0
M  V30 10677 H 634.287 5.85864 3.679 0
M  V30 10678 H 633.419 7.84412 2.24479 0
M  V30 10679 H 630.764 5.73457 0.888562 0
M  V30 10680 H 630.484 5.90877 3.88583 0
M  V30 10681 H 629.493 6.6596 2.58858 0
M  V30 10682 H 631.327 8.16339 3.92049 0
M  V30 10683 P 629.456 8.7635 1.60911 0
M  V30 10684 O 629.236 10.1388 1.11561 0
M  V30 10685 O 628.666 8.36503 2.79617 0
M  V30 10686 O 629.206 7.71806 0.42951 0
M  V30 10687 C 630.146 7.67148 -0.673689 0
M  V30 10688 C 629.416 7.33374 -1.95559 0
M  V30 10689 O 629.206 5.88721 -2.00726 0
M  V30 10690 C 628.016 7.92526 -2.10483 0
M  V30 10691 O 627.626 8.02971 -3.47653 0
M  V30 10692 C 627.136 6.89602 -1.41652 0
M  V30 10693 C 627.846 5.59201 -1.75185 0
M  V30 10694 N 627.796 4.58235 -0.662552 0
M  V30 10695 H 630.635 8.65116 -0.777161 0
M  V30 10696 H 630.907 6.90173 -0.474152 0
M  V30 10697 H 630.039 7.66548 -2.79458 0
M  V30 10698 P 626.076 8.03563 -3.84925 0
M  V30 10699 O 625.856 8.85821 -5.0569 0
M  V30 10700 O 625.286 8.41101 -2.65469 0
M  V30 10701 O 625.826 6.49734 -4.18962 0
M  V30 10702 C 626.766 5.81037 -5.05421 0
M  V30 10703 C 626.036 4.79018 -5.88876 0
M  V30 10704 O 625.826 3.58359 -5.08515 0
M  V30 10705 C 624.636 5.17448 -6.36119 0
M  V30 10706 O 624.246 4.45322 -7.53318 0
M  V30 10707 C 623.756 4.74639 -5.19936 0
M  V30 10708 C 624.466 3.49432 -4.70418 0
M  V30 10709 N 624.416 3.31776 -3.22945 0
M  V30 10710 C 624.266 2.02742 -2.72939 0
M  V30 10711 O 624.176 1.08301 -3.52749 0
M  V30 10712 N 624.216 1.96117 -1.22063 0
M  V30 10713 C 624.316 2.8878 -0.551566 0
M  V30 10714 N 624.266 2.65609 0.750198 0
M  V30 10715 C 624.466 4.22457 -1.03707 0
M  V30 10716 C 624.516 4.37979 -2.39113 0
M  V30 10717 H 627.256 6.54138 -5.7131 0
M  V30 10718 H 627.526 5.30492 -4.44033 0
M  V30 10719 H 626.659 4.55945 -6.76735 0
M  V30 10720 H 624.004 2.6176 -5.18021 0
M  V30 10721 H 623.724 5.52233 -4.41941 0
M  V30 10722 H 622.733 4.52045 -5.53452 0
M  V30 10723 H 624.567 6.25124 -6.55234 0
M  V30 10724 H 624.639 5.37936 -2.80552 0
M  V30 10725 H 624.537 5.07528 -0.359553 0
M  V30 10726 H 624.149 1.69403 1.09847 0
M  V30 10727 H 624.345 3.43701 1.41792 0
M  V30 10728 P 622.696 4.23843 -7.83734 0
M  V30 10729 O 622.476 4.19407 -9.29784 0
M  V30 10730 O 621.906 5.24426 -7.09156 0
M  V30 10731 O 622.446 2.7935 -7.20758 0
M  V30 10732 C 623.386 1.7299 -7.50419 0
M  V30 10733 C 622.656 0.406376 -7.57911 0
M  V30 10734 O 622.446 -0.0897726 -6.21935 0
M  V30 10735 C 621.256 0.447224 -8.1878 0
M  V30 10736 O 620.866 -0.825065 -8.71101 0
M  V30 10737 C 620.376 0.783801 -6.99623 0
M  V30 10738 C 621.086 0.0619192 -5.85967 0
M  V30 10739 N 621.036 0.7859 -4.56281 0
M  V30 10740 H 623.875 1.93423 -8.4679 0
M  V30 10741 H 624.147 1.68181 -6.71046 0
M  V30 10742 H 623.279 -0.289041 -8.15388 0
M  V30 10743 P 619.316 -1.17771 -8.83182 0
M  V30 10744 O 619.096 -2.07206 -9.98732 0
M  V30 10745 O 618.526 0.0743816 -8.81969 0
M  V30 10746 O 619.066 -1.97652 -7.47304 0
M  V30 10747 C 620.006 -3.01133 -7.08783 0
M  V30 10748 C 619.276 -4.12613 -6.37049 0
M  V30 10749 O 619.066 -3.72827 -4.97879 0
M  V30 10750 C 617.876 -4.45085 -6.88694 0
M  V30 10751 O 617.486 -5.7877 -6.5624 0
M  V30 10752 C 616.996 -3.47817 -6.12078 0
M  V30 10753 C 617.706 -3.39414 -4.77697 0
M  V30 10754 N 617.656 -2.04615 -4.15333 0
M  V30 10755 H 620.495 -3.41248 -7.98759 0
M  V30 10756 H 620.767 -2.5837 -6.41742 0
M  V30 10757 H 619.899 -5.02657 -6.42673 0
M  V30 10758 P 615.936 -6.144 -6.45285 0
M  V30 10759 O 615.716 -7.54673 -6.86199 0
M  V30 10760 O 615.146 -5.12391 -7.179 0
M  V30 10761 O 615.686 -5.99158 -4.88404 0
M  V30 10762 C 616.626 -6.60234 -3.96415 0
M  V30 10763 C 615.896 -7.08259 -2.72856 0
M  V30 10764 O 615.686 -5.9427 -1.83651 0
M  V30 10765 C 614.496 -7.64886 -2.9555 0
M  V30 10766 O 614.106 -8.53963 -1.90717 0
M  V30 10767 C 613.616 -6.4116 -2.90739 0
M  V30 10768 C 614.326 -5.55375 -1.86963 0
M  V30 10769 N 614.276 -4.09664 -2.15742 0
M  V30 10770 H 617.115 -7.45574 -4.45629 0
M  V30 10771 H 617.387 -5.86232 -3.67314 0
M  V30 10772 H 616.519 -7.84412 -2.24479 0
M  V30 10773 P 612.556 -8.7635 -1.60911 0
M  V30 10774 O 612.336 -10.1388 -1.11561 0
M  V30 10775 O 611.766 -8.36503 -2.79617 0
M  V30 10776 O 612.306 -7.71806 -0.42951 0
M  V30 10777 C 613.246 -7.67148 0.673689 0
M  V30 10778 C 612.516 -7.33374 1.95559 0
M  V30 10779 O 612.306 -5.88721 2.00726 0
M  V30 10780 C 611.116 -7.92526 2.10483 0
M  V30 10781 O 610.726 -8.02971 3.47653 0
M  V30 10782 C 610.236 -6.89602 1.41652 0
M  V30 10783 C 610.946 -5.59201 1.75185 0
M  V30 10784 N 610.896 -4.58301 0.657969 0
M  V30 10785 H 613.735 -8.65116 0.777161 0
M  V30 10786 H 614.007 -6.9022 0.46725 0
M  V30 10787 H 613.139 -7.66548 2.79458 0
M  V30 10788 H 610.484 -5.16165 2.65183 0
M  V30 10789 H 610.204 -7.06433 0.329384 0
M  V30 10790 H 609.213 -6.90926 1.82021 0
M  V30 10791 H 611.047 -8.90873 1.62657 0
M  V30 10792 P 609.176 -8.03563 3.84925 0
M  V30 10793 O 608.956 -8.85821 5.0569 0
M  V30 10794 O 608.386 -8.41101 2.65469 0
M  V30 10795 O 608.926 -6.4965 4.18908 0
M  V30 10796 C 609.866 -5.81037 5.05421 0
M  V30 10797 C 609.136 -4.78366 5.89277 0
M  V30 10798 O 608.926 -3.58302 5.08433 0
M  V30 10799 C 607.736 -5.17448 6.36119 0
M  V30 10800 O 607.346 -4.45271 7.53232 0
M  V30 10801 C 606.856 -4.74639 5.19936 0
M  V30 10802 C 607.566 -3.49432 4.70418 0
M  V30 10803 N 607.516 -3.31776 3.22945 0
M  V30 10804 C 607.596 -4.27147 2.23315 0
M  V30 10805 N 607.516 -3.78447 1.02186 0
M  V30 10806 C 607.376 -2.41001 1.21732 0
M  V30 10807 C 607.246 -1.36111 0.27694 0
M  V30 10808 O 607.226 -1.42065 -0.951767 0
M  V30 10809 N 607.126 -0.113683 0.912949 0
M  V30 10810 C 607.126 0.0846396 2.27943 0
M  V30 10811 N 606.996 1.34737 2.6916 0
M  V30 10812 N 607.256 -0.902521 3.16379 0
M  V30 10813 C 607.376 -2.11937 2.56849 0
M  V30 10814 H 610.355 -6.54213 5.71376 0
M  V30 10815 H 610.627 -5.30492 4.44033 0
M  V30 10816 H 609.759 -4.55889 6.76652 0
M  V30 10817 H 607.104 -2.6176 5.18021 0
M  V30 10818 H 606.824 -5.52233 4.41941 0
M  V30 10819 H 605.833 -4.52045 5.53452 0
M  V30 10820 H 607.667 -6.25193 6.55307 0
M  V30 10821 H 607.716 -5.3351 2.43857 0
M  V30 10822 H 607.034 0.69331 0.330371 0
M  V30 10823 H 606.997 1.56433 3.6988 0
M  V30 10824 H 606.896 2.10701 2.00133 0
M  V30 10825 P 605.796 -4.23843 7.83734 0
M  V30 10826 O 605.576 -4.19407 9.29784 0
M  V30 10827 O 605.006 -5.24426 7.09156 0
M  V30 10828 O 605.546 -2.7935 7.20758 0
M  V30 10829 C 606.486 -1.7299 7.50419 0
M  V30 10830 C 605.756 -0.406376 7.57911 0
M  V30 10831 O 605.546 0.0897726 6.21935 0
M  V30 10832 C 604.356 -0.447224 8.1878 0
M  V30 10833 O 603.966 0.825065 8.71101 0
M  V30 10834 C 603.476 -0.783801 6.99623 0
M  V30 10835 C 604.186 -0.0619192 5.85967 0
M  V30 10836 N 604.136 -0.7859 4.56281 0
M  V30 10837 H 606.975 -1.93423 8.4679 0
M  V30 10838 H 607.247 -1.68181 6.71046 0
M  V30 10839 H 606.379 0.289041 8.15388 0
M  V30 10840 P 602.416 1.17771 8.83182 0
M  V30 10841 O 602.196 2.07206 9.98732 0
M  V30 10842 O 601.626 -0.0743816 8.81969 0
M  V30 10843 O 602.166 1.97652 7.47304 0
M  V30 10844 C 603.106 3.01055 7.08599 0
M  V30 10845 C 602.376 4.12613 6.37049 0
M  V30 10846 O 602.166 3.72827 4.97879 0
M  V30 10847 C 600.976 4.45719 6.88164 0
M  V30 10848 O 600.586 5.7877 6.5624 0
M  V30 10849 C 600.096 3.47768 6.11991 0
M  V30 10850 C 600.806 3.39356 4.77615 0
M  V30 10851 N 600.756 2.04571 4.15244 0
M  V30 10852 C 600.606 1.98587 2.78314 0
M  V30 10853 O 600.516 2.98134 2.08835 0
M  V30 10854 N 600.566 0.714467 2.24925 0
M  V30 10855 C 600.656 -0.470001 2.94169 0
M  V30 10856 O 600.606 -1.55587 2.35195 0
M  V30 10857 C 600.806 -0.312541 4.36783 0
M  V30 10858 C 600.916 -1.57711 5.16352 0
M  V30 10859 C 600.856 0.914512 4.92583 0
M  V30 10860 H 603.597 3.41169 7.98575 0
M  V30 10861 H 603.866 2.58295 6.41556 0
M  V30 10862 H 602.999 5.02657 6.42673 0
M  V30 10863 H 600.344 4.11637 4.08885 0
M  V30 10864 H 600.065 2.49626 6.61679 0
M  V30 10865 H 599.073 3.86566 6.00778 0
M  V30 10866 H 600.907 4.29943 7.96918 0
M  V30 10867 H 600.978 1.00937 6.00374 0
M  V30 10868 H 599.948 -1.80153 5.63503 0
M  V30 10869 H 601.685 -1.4566 5.94104 0
M  V30 10870 H 601.197 -2.40664 4.49645 0
M  V30 10871 H 600.461 0.647622 1.25697 0
M  V30 10872 P 599.036 6.144 6.45285 0
M  V30 10873 O 598.816 7.54673 6.86199 0
M  V30 10874 O 598.246 5.12391 7.179 0
M  V30 10875 O 598.786 5.99158 4.88404 0
M  V30 10876 C 599.726 6.60234 3.96415 0
M  V30 10877 C 598.996 7.08259 2.72856 0
M  V30 10878 O 598.786 5.9427 1.83651 0
M  V30 10879 C 597.596 7.64886 2.9555 0
M  V30 10880 O 597.206 8.53963 1.90717 0
M  V30 10881 C 596.716 6.4116 2.90739 0
M  V30 10882 C 597.426 5.55375 1.86963 0
M  V30 10883 N 597.376 4.09664 2.15742 0
M  V30 10884 H 600.215 7.45574 4.45629 0
M  V30 10885 H 600.487 5.86232 3.67314 0
M  V30 10886 H 599.619 7.84412 2.24479 0
M  V30 10887 P 595.656 8.7635 1.60911 0
M  V30 10888 O 595.437 10.1388 1.11561 0
M  V30 10889 O 594.866 8.36503 2.79617 0
M  V30 10890 O 595.406 7.71806 0.42951 0
M  V30 10891 C 596.346 7.66948 -0.673514 0
M  V30 10892 C 595.616 7.33374 -1.95559 0
M  V30 10893 O 595.406 5.88721 -2.00726 0
M  V30 10894 C 594.216 7.92218 -2.1125 0
M  V30 10895 O 593.827 8.02971 -3.47653 0
M  V30 10896 C 593.337 6.89504 -1.41631 0
M  V30 10897 C 594.046 5.59106 -1.75155 0
M  V30 10898 N 593.996 4.58136 -0.662409 0
M  V30 10899 C 593.846 3.26059 -1.02863 0
M  V30 10900 O 593.756 2.90743 -2.19009 0
M  V30 10901 N 593.806 2.35995 0.0155585 0
M  V30 10902 C 593.896 2.65248 1.35603 0
M  V30 10903 C 594.046 4.05747 1.64698 0
M  V30 10904 C 594.096 4.96734 0.652411 0
M  V30 10905 H 596.837 8.64917 -0.776982 0
M  V30 10906 H 597.106 6.89974 -0.474015 0
M  V30 10907 H 596.24 7.66548 -2.79458 0
M  V30 10908 H 593.584 5.16076 -2.65138 0
M  V30 10909 H 593.305 7.06433 -0.329384 0
M  V30 10910 H 592.313 6.90829 -1.81996 0
M  V30 10911 H 594.147 8.90774 -1.62639 0
M  V30 10912 H 594.218 6.02181 0.895285 0
M  V30 10913 P 592.277 8.03563 -3.84925 0
M  V30 10914 O 592.057 8.85821 -5.0569 0
M  V30 10915 O 591.487 8.41101 -2.65469 0
M  V30 10916 O 592.027 6.4965 -4.18908 0
M  V30 10917 C 592.967 5.81037 -5.05421 0
M  V30 10918 C 592.237 4.78366 -5.89277 0
M  V30 10919 O 592.027 3.58302 -5.08433 0
M  V30 10920 C 590.837 5.17448 -6.36119 0
M  V30 10921 O 590.447 4.45271 -7.53232 0
M  V30 10922 C 589.957 4.74639 -5.19936 0
M  V30 10923 C 590.667 3.49432 -4.70418 0
M  V30 10924 N 590.617 3.31776 -3.22945 0
M  V30 10925 H 593.456 6.54213 -5.71376 0
M  V30 10926 H 593.728 5.30492 -4.44033 0
M  V30 10927 H 592.86 4.55889 -6.76652 0
M  V30 10928 P 588.897 4.23843 -7.83734 0
M  V30 10929 O 588.677 4.19407 -9.29784 0
M  V30 10930 O 588.107 5.24426 -7.09156 0
M  V30 10931 O 588.647 2.79386 -7.20852 0
M  V30 10932 C 589.587 1.7299 -7.50419 0
M  V30 10933 C 588.857 0.41401 -7.5797 0
M  V30 10934 O 588.647 -0.089787 -6.22035 0
M  V30 10935 C 587.457 0.447224 -8.1878 0
M  V30 10936 O 587.067 -0.825159 -8.71201 0
M  V30 10937 C 586.577 0.783801 -6.99623 0
M  V30 10938 C 587.287 0.0619192 -5.85967 0
M  V30 10939 N 587.237 0.7859 -4.56281 0
M  V30 10940 C 587.087 0.0359258 -3.39981 0
M  V30 10941 O 586.997 -1.19723 -3.49038 0
M  V30 10942 N 587.037 0.869151 -2.14025 0
M  V30 10943 C 587.137 2.01207 -2.14363 0
M  V30 10944 N 587.087 2.58978 -0.954287 0
M  V30 10945 C 587.287 2.80817 -3.32215 0
M  V30 10946 C 587.337 2.13785 -4.50884 0
M  V30 10947 H 590.077 1.93401 -8.46693 0
M  V30 10948 H 590.347 1.68181 -6.71046 0
M  V30 10949 H 589.48 -0.289076 -8.15488 0
M  V30 10950 H 586.825 -0.927166 -5.72947 0
M  V30 10951 H 586.545 1.87 -6.82132 0
M  V30 10952 H 585.554 0.404009 -7.13457 0
M  V30 10953 H 587.388 1.20599 -8.97534 0
M  V30 10954 H 587.46 2.70295 -5.43162 0
M  V30 10955 H 587.358 3.89465 -3.27406 0
M  V30 10956 H 586.97 2.01616 -0.107046 0
M  V30 10957 H 587.166 3.61403 -0.873101 0
M  V30 10958 P 585.517 -1.17771 -8.83182 0
M  V30 10959 O 585.297 -2.07206 -9.98732 0
M  V30 10960 O 584.727 0.0743816 -8.81969 0
M  V30 10961 O 585.267 -1.97652 -7.47304 0
M  V30 10962 C 586.207 -3.01133 -7.08783 0
M  V30 10963 C 585.477 -4.12613 -6.37049 0
M  V30 10964 O 585.267 -3.72827 -4.97879 0
M  V30 10965 C 584.077 -4.45085 -6.88694 0
M  V30 10966 O 583.687 -5.7877 -6.5624 0
M  V30 10967 C 583.197 -3.47817 -6.12078 0
M  V30 10968 C 583.907 -3.39414 -4.77697 0
M  V30 10969 N 583.857 -2.04199 -4.15538 0
M  V30 10970 H 586.696 -3.41248 -7.98759 0
M  V30 10971 H 586.968 -2.57728 -6.42 0
M  V30 10972 H 586.1 -5.02657 -6.42673 0
M  V30 10973 H 583.445 -4.11708 -4.08956 0
M  V30 10974 H 583.165 -2.49626 -6.61679 0
M  V30 10975 H 582.174 -3.8662 -6.00862 0
M  V30 10976 H 584.008 -4.29991 -7.97006 0
M  V30 10977 P 582.137 -6.144 -6.45285 0
M  V30 10978 O 581.917 -7.54673 -6.86199 0
M  V30 10979 O 581.347 -5.12391 -7.179 0
M  V30 10980 O 581.887 -5.99158 -4.88404 0
M  V30 10981 C 582.827 -6.60234 -3.96415 0
M  V30 10982 C 582.097 -7.08259 -2.72856 0
M  V30 10983 O 581.887 -5.9427 -1.83651 0
M  V30 10984 C 580.697 -7.64886 -2.9555 0
M  V30 10985 O 580.307 -8.53963 -1.90717 0
M  V30 10986 C 579.817 -6.4116 -2.90739 0
M  V30 10987 C 580.527 -5.55375 -1.86963 0
M  V30 10988 N 580.477 -4.09448 -2.16152 0
M  V30 10989 C 580.557 -3.46824 -3.37593 0
M  V30 10990 N 580.487 -2.17422 -3.29777 0
M  V30 10991 C 580.337 -1.93065 -1.94427 0
M  V30 10992 C 580.207 -0.738053 -1.20141 0
M  V30 10993 N 580.197 0.474256 -1.74676 0
M  V30 10994 N 580.087 -0.850049 0.13045 0
M  V30 10995 C 580.097 -2.06169 0.676992 0
M  V30 10996 N 580.217 -3.23842 0.101312 0
M  V30 10997 C 580.337 -3.09402 -1.23122 0
M  V30 10998 H 583.316 -7.45574 -4.45629 0
M  V30 10999 H 583.588 -5.85864 -3.679 0
M  V30 11000 H 582.72 -7.84412 -2.24479 0
M  V30 11001 H 580.065 -5.73457 -0.888562 0
M  V30 11002 H 579.785 -5.90877 -3.88583 0
M  V30 11003 H 578.794 -6.6596 -2.58858 0
M  V30 11004 H 580.628 -8.16339 -3.92049 0
M  V30 11005 H 580.669 -4.00505 -4.3174 0
M  V30 11006 H 580.288 0.581337 -2.76658 0
M  V30 11007 H 580.099 1.30811 -1.14888 0
M  V30 11008 H 579.991 -2.08295 1.75542 0
M  V30 11009 P 578.757 -8.7635 -1.60911 0
M  V30 11010 O 578.537 -10.1388 -1.11561 0
M  V30 11011 O 577.967 -8.36503 -2.79617 0
M  V30 11012 O 578.507 -7.71806 -0.42951 0
M  V30 11013 C 579.447 -7.66948 0.673514 0
M  V30 11014 C 578.717 -7.33374 1.95559 0
M  V30 11015 O 578.507 -5.88721 2.00726 0
M  V30 11016 C 577.317 -7.92218 2.1125 0
M  V30 11017 O 576.927 -8.02971 3.47653 0
M  V30 11018 C 576.437 -6.89504 1.41631 0
M  V30 11019 C 577.147 -5.59106 1.75155 0
M  V30 11020 N 577.097 -4.58136 0.662409 0
M  V30 11021 C 576.947 -3.26059 1.02863 0
M  V30 11022 O 576.857 -2.90743 2.19009 0
M  V30 11023 N 576.907 -2.35995 -0.0155585 0
M  V30 11024 C 576.997 -2.65248 -1.35603 0
M  V30 11025 O 576.947 -1.75605 -2.20651 0
M  V30 11026 C 577.147 -4.05747 -1.64698 0
M  V30 11027 C 577.257 -4.42345 -3.09553 0
M  V30 11028 C 577.197 -4.96734 -0.652411 0
M  V30 11029 H 579.938 -8.64917 0.776982 0
M  V30 11030 H 580.207 -6.89974 0.474015 0
M  V30 11031 H 579.34 -7.66548 2.79458 0
M  V30 11032 H 576.685 -5.16076 2.65138 0
M  V30 11033 H 576.406 -7.06433 0.329384 0
M  V30 11034 H 575.414 -6.90829 1.81996 0
M  V30 11035 H 577.248 -8.90774 1.62639 0
M  V30 11036 H 577.319 -6.02181 -0.895285 0
M  V30 11037 H 576.289 -4.80252 -3.45468 0
M  V30 11038 H 578.026 -5.20015 -3.22119 0
M  V30 11039 H 577.538 -3.53269 -3.67833 0
M  V30 11040 H 576.802 -1.39558 0.227499 0
M  V30 11041 P 575.377 -8.03563 3.84925 0
M  V30 11042 O 575.157 -8.85821 5.0569 0
M  V30 11043 O 574.587 -8.41101 2.65469 0
M  V30 11044 O 575.127 -6.4965 4.18908 0
M  V30 11045 C 576.067 -5.81037 5.05421 0
M  V30 11046 C 575.337 -4.78366 5.89277 0
M  V30 11047 O 575.127 -3.58302 5.08433 0
M  V30 11048 C 573.937 -5.17448 6.36119 0
M  V30 11049 O 573.547 -4.45271 7.53232 0
M  V30 11050 C 573.057 -4.74639 5.19936 0
M  V30 11051 C 573.767 -3.49432 4.70418 0
M  V30 11052 N 573.717 -3.31776 3.22945 0
M  V30 11053 H 576.556 -6.54213 5.71376 0
M  V30 11054 H 576.828 -5.30492 4.44033 0
M  V30 11055 H 575.96 -4.55889 6.76652 0
M  V30 11056 P 571.997 -4.23843 7.83734 0
M  V30 11057 O 571.777 -4.19407 9.29784 0
M  V30 11058 O 571.207 -5.24426 7.09156 0
M  V30 11059 O 571.747 -2.7935 7.20758 0
M  V30 11060 C 572.687 -1.7299 7.50419 0
M  V30 11061 C 571.957 -0.406376 7.57911 0
M  V30 11062 O 571.747 0.0897726 6.21935 0
M  V30 11063 C 570.557 -0.447224 8.1878 0
M  V30 11064 O 570.167 0.825065 8.71101 0
M  V30 11065 C 569.677 -0.783801 6.99623 0
M  V30 11066 C 570.387 -0.0619192 5.85967 0
M  V30 11067 N 570.337 -0.790462 4.56202 0
M  V30 11068 C 570.417 -2.13895 4.34171 0
M  V30 11069 N 570.347 -2.46449 3.08687 0
M  V30 11070 C 570.197 -1.2525 2.43697 0
M  V30 11071 C 570.067 -0.914535 1.07318 0
M  V30 11072 N 570.057 -1.80782 0.0887348 0
M  V30 11073 N 569.947 0.386745 0.768133 0
M  V30 11074 C 569.957 1.28096 1.75159 0
M  V30 11075 N 570.077 1.09708 3.04861 0
M  V30 11076 C 570.197 -0.214857 3.32306 0
M  V30 11077 H 573.176 -1.93423 8.4679 0
M  V30 11078 H 573.448 -1.68852 6.70877 0
M  V30 11079 H 572.58 0.289041 8.15388 0
M  V30 11080 H 569.925 0.927006 5.72848 0
M  V30 11081 H 569.645 -1.86973 6.82036 0
M  V30 11082 H 568.654 -0.403953 7.13357 0
M  V30 11083 H 570.488 -1.20599 8.97534 0
M  V30 11084 H 570.529 -2.86846 5.14318 0
M  V30 11085 H 570.148 -2.81082 0.302037 0
M  V30 11086 H 569.959 -1.49688 -0.889064 0
M  V30 11087 H 569.851 2.31317 1.43855 0
M  V30 11088 P 568.617 1.17771 8.83182 0
M  V30 11089 O 568.397 2.07206 9.98732 0
M  V30 11090 O 567.827 -0.0743816 8.81969 0
M  V30 11091 O 568.367 1.97652 7.47304 0
M  V30 11092 C 569.307 3.01055 7.08599 0
M  V30 11093 C 568.577 4.12613 6.37049 0
M  V30 11094 O 568.367 3.72827 4.97879 0
M  V30 11095 C 567.177 4.45719 6.88164 0
M  V30 11096 O 566.787 5.7877 6.5624 0
M  V30 11097 C 566.297 3.47768 6.11991 0
M  V30 11098 C 567.007 3.39356 4.77615 0
M  V30 11099 N 566.957 2.04571 4.15244 0
M  V30 11100 C 566.807 1.98587 2.78314 0
M  V30 11101 O 566.717 2.98134 2.08835 0
M  V30 11102 N 566.767 0.714467 2.24925 0
M  V30 11103 C 566.857 -0.470001 2.94169 0
M  V30 11104 C 567.007 -0.312541 4.36783 0
M  V30 11105 C 567.057 0.914512 4.92583 0
M  V30 11106 H 569.798 3.41169 7.98575 0
M  V30 11107 H 570.067 2.58295 6.41556 0
M  V30 11108 H 569.2 5.02657 6.42673 0
M  V30 11109 H 566.545 4.11637 4.08885 0
M  V30 11110 H 566.266 2.49626 6.61679 0
M  V30 11111 H 565.274 3.86566 6.00778 0
M  V30 11112 H 567.108 4.29943 7.96918 0
M  V30 11113 H 567.179 1.00937 6.00374 0
M  V30 11114 P 565.237 6.144 6.45285 0
M  V30 11115 O 565.017 7.54673 6.86199 0
M  V30 11116 O 564.447 5.12391 7.179 0
M  V30 11117 O 564.987 5.99158 4.88404 0
M  V30 11118 C 565.927 6.60234 3.96415 0
M  V30 11119 C 565.197 7.08259 2.72856 0
M  V30 11120 O 564.987 5.9427 1.83651 0
M  V30 11121 C 563.797 7.64886 2.9555 0
M  V30 11122 O 563.407 8.53963 1.90717 0
M  V30 11123 C 562.917 6.4116 2.90739 0
M  V30 11124 C 563.627 5.55375 1.86963 0
M  V30 11125 N 563.577 4.09664 2.15742 0
M  V30 11126 H 566.416 7.45574 4.45629 0
M  V30 11127 H 566.688 5.86232 3.67314 0
M  V30 11128 H 565.82 7.84412 2.24479 0
M  V30 11129 P 561.857 8.7635 1.60911 0
M  V30 11130 O 561.637 10.1388 1.11561 0
M  V30 11131 O 561.067 8.36503 2.79617 0
M  V30 11132 O 561.607 7.71806 0.42951 0
M  V30 11133 C 562.547 7.67148 -0.673689 0
M  V30 11134 C 561.817 7.33374 -1.95559 0
M  V30 11135 O 561.607 5.88721 -2.00726 0
M  V30 11136 C 560.417 7.92526 -2.10483 0
M  V30 11137 O 560.027 8.02971 -3.47653 0
M  V30 11138 C 559.537 6.89602 -1.41652 0
M  V30 11139 C 560.247 5.59201 -1.75185 0
M  V30 11140 N 560.197 4.58235 -0.662552 0
M  V30 11141 H 563.036 8.65116 -0.777161 0
M  V30 11142 H 563.308 6.90173 -0.474152 0
M  V30 11143 H 562.44 7.66548 -2.79458 0
M  V30 11144 P 558.477 8.03563 -3.84925 0
M  V30 11145 O 558.257 8.85821 -5.0569 0
M  V30 11146 O 557.687 8.41101 -2.65469 0
M  V30 11147 O 558.227 6.4965 -4.18908 0
M  V30 11148 C 559.167 5.81037 -5.05421 0
M  V30 11149 C 558.437 4.78366 -5.89277 0
M  V30 11150 O 558.227 3.58302 -5.08433 0
M  V30 11151 C 557.037 5.17448 -6.36119 0
M  V30 11152 O 556.647 4.45271 -7.53232 0
M  V30 11153 C 556.157 4.74639 -5.19936 0
M  V30 11154 C 556.867 3.49432 -4.70418 0
M  V30 11155 N 556.817 3.31776 -3.22945 0
M  V30 11156 H 559.656 6.54213 -5.71376 0
M  V30 11157 H 559.928 5.30492 -4.44033 0
M  V30 11158 H 559.06 4.55889 -6.76652 0
M  V30 11159 P 555.097 4.23843 -7.83734 0
M  V30 11160 O 554.877 4.19407 -9.29784 0
M  V30 11161 O 554.307 5.24426 -7.09156 0
M  V30 11162 O 554.847 2.79386 -7.20852 0
M  V30 11163 C 555.787 1.7299 -7.50419 0
M  V30 11164 C 555.057 0.41401 -7.5797 0
M  V30 11165 O 554.847 -0.089787 -6.22035 0
M  V30 11166 C 553.657 0.447224 -8.1878 0
M  V30 11167 O 553.267 -0.825159 -8.71201 0
M  V30 11168 C 552.777 0.783801 -6.99623 0
M  V30 11169 C 553.487 0.0619192 -5.85967 0
M  V30 11170 N 553.437 0.7859 -4.56281 0
M  V30 11171 C 553.287 0.0359258 -3.39981 0
M  V30 11172 O 553.197 -1.19723 -3.49038 0
M  V30 11173 N 553.237 0.869151 -2.14025 0
M  V30 11174 C 553.337 2.01207 -2.14363 0
M  V30 11175 N 553.287 2.58978 -0.954287 0
M  V30 11176 C 553.487 2.80817 -3.32215 0
M  V30 11177 C 553.537 2.13785 -4.50884 0
M  V30 11178 H 556.277 1.93401 -8.46693 0
M  V30 11179 H 556.547 1.68181 -6.71046 0
M  V30 11180 H 555.68 -0.289076 -8.15488 0
M  V30 11181 H 553.025 -0.927166 -5.72947 0
M  V30 11182 H 552.745 1.87 -6.82132 0
M  V30 11183 H 551.754 0.404009 -7.13457 0
M  V30 11184 H 553.588 1.20599 -8.97534 0
M  V30 11185 H 553.66 2.70295 -5.43162 0
M  V30 11186 H 553.558 3.89465 -3.27406 0
M  V30 11187 H 553.17 2.01616 -0.107046 0
M  V30 11188 H 553.366 3.61403 -0.873101 0
M  V30 11189 P 551.717 -1.17771 -8.83182 0
M  V30 11190 O 551.497 -2.07206 -9.98732 0
M  V30 11191 O 550.927 0.0743816 -8.81969 0
M  V30 11192 O 551.467 -1.97652 -7.47304 0
M  V30 11193 C 552.407 -3.01133 -7.08783 0
M  V30 11194 C 551.677 -4.12613 -6.37049 0
M  V30 11195 O 551.467 -3.72827 -4.97879 0
M  V30 11196 C 550.277 -4.45085 -6.88694 0
M  V30 11197 O 549.887 -5.7877 -6.5624 0
M  V30 11198 C 549.397 -3.47817 -6.12078 0
M  V30 11199 C 550.107 -3.39414 -4.77697 0
M  V30 11200 N 550.057 -2.04615 -4.15333 0
M  V30 11201 H 552.896 -3.41248 -7.98759 0
M  V30 11202 H 553.168 -2.5837 -6.41742 0
M  V30 11203 H 552.3 -5.02657 -6.42673 0
M  V30 11204 P 548.337 -6.144 -6.45285 0
M  V30 11205 O 548.117 -7.54673 -6.86199 0
M  V30 11206 O 547.547 -5.12391 -7.179 0
M  V30 11207 O 548.087 -5.99158 -4.88404 0
M  V30 11208 C 549.027 -6.60234 -3.96415 0
M  V30 11209 C 548.297 -7.08259 -2.72856 0
M  V30 11210 O 548.087 -5.9427 -1.83651 0
M  V30 11211 C 546.897 -7.64886 -2.9555 0
M  V30 11212 O 546.507 -8.53963 -1.90717 0
M  V30 11213 C 546.017 -6.4116 -2.90739 0
M  V30 11214 C 546.727 -5.55375 -1.86963 0
M  V30 11215 N 546.677 -4.09448 -2.16152 0
M  V30 11216 C 546.757 -3.46824 -3.37593 0
M  V30 11217 N 546.687 -2.17422 -3.29777 0
M  V30 11218 C 546.537 -1.93065 -1.94427 0
M  V30 11219 C 546.407 -0.738053 -1.20141 0
M  V30 11220 N 546.397 0.474256 -1.74676 0
M  V30 11221 N 546.287 -0.850049 0.13045 0
M  V30 11222 C 546.297 -2.06169 0.676992 0
M  V30 11223 N 546.417 -3.23842 0.101312 0
M  V30 11224 C 546.537 -3.09402 -1.23122 0
M  V30 11225 H 549.516 -7.45574 -4.45629 0
M  V30 11226 H 549.788 -5.85864 -3.679 0
M  V30 11227 H 548.92 -7.84412 -2.24479 0
M  V30 11228 H 546.265 -5.73457 -0.888562 0
M  V30 11229 H 545.985 -5.90877 -3.88583 0
M  V30 11230 H 544.994 -6.6596 -2.58858 0
M  V30 11231 H 546.828 -8.16339 -3.92049 0
M  V30 11232 H 546.869 -4.00505 -4.3174 0
M  V30 11233 H 546.488 0.581337 -2.76658 0
M  V30 11234 H 546.299 1.30811 -1.14888 0
M  V30 11235 H 546.191 -2.08295 1.75542 0
M  V30 11236 P 544.957 -8.7635 -1.60911 0
M  V30 11237 O 544.737 -10.1388 -1.11561 0
M  V30 11238 O 544.167 -8.36503 -2.79617 0
M  V30 11239 O 544.707 -7.71806 -0.42951 0
M  V30 11240 C 545.647 -7.67148 0.673689 0
M  V30 11241 C 544.917 -7.33374 1.95559 0
M  V30 11242 O 544.707 -5.88721 2.00726 0
M  V30 11243 C 543.517 -7.92526 2.10483 0
M  V30 11244 O 543.127 -8.02971 3.47653 0
M  V30 11245 C 542.637 -6.89602 1.41652 0
M  V30 11246 C 543.347 -5.59201 1.75185 0
M  V30 11247 N 543.297 -4.58235 0.662552 0
M  V30 11248 H 546.136 -8.65116 0.777161 0
M  V30 11249 H 546.408 -6.90173 0.474152 0
M  V30 11250 H 545.54 -7.66548 2.79458 0
M  V30 11251 P 541.577 -8.03563 3.84925 0
M  V30 11252 O 541.357 -8.85821 5.0569 0
M  V30 11253 O 540.787 -8.41101 2.65469 0
M  V30 11254 O 541.327 -6.4965 4.18908 0
M  V30 11255 C 542.267 -5.81037 5.05421 0
M  V30 11256 C 541.537 -4.78366 5.89277 0
M  V30 11257 O 541.327 -3.58302 5.08433 0
M  V30 11258 C 540.137 -5.17448 6.36119 0
M  V30 11259 O 539.747 -4.45271 7.53232 0
M  V30 11260 C 539.257 -4.74639 5.19936 0
M  V30 11261 C 539.967 -3.49432 4.70418 0
M  V30 11262 N 539.917 -3.31776 3.22945 0
M  V30 11263 H 542.756 -6.54213 5.71376 0
M  V30 11264 H 543.028 -5.30492 4.44033 0
M  V30 11265 H 542.16 -4.55889 6.76652 0
M  V30 11266 P 538.197 -4.23843 7.83734 0
M  V30 11267 O 537.977 -4.19407 9.29784 0
M  V30 11268 O 537.407 -5.24426 7.09156 0
M  V30 11269 O 537.947 -2.7935 7.20758 0
M  V30 11270 C 538.887 -1.7299 7.50419 0
M  V30 11271 C 538.157 -0.406376 7.57911 0
M  V30 11272 O 537.947 0.0897726 6.21935 0
M  V30 11273 C 536.757 -0.447224 8.1878 0
M  V30 11274 O 536.367 0.825065 8.71101 0
M  V30 11275 C 535.877 -0.783801 6.99623 0
M  V30 11276 C 536.587 -0.0619192 5.85967 0
M  V30 11277 N 536.537 -0.7859 4.56281 0
M  V30 11278 H 539.376 -1.93423 8.4679 0
M  V30 11279 H 539.648 -1.68181 6.71046 0
M  V30 11280 H 538.78 0.289041 8.15388 0
M  V30 11281 P 534.817 1.17771 8.83182 0
M  V30 11282 O 534.597 2.07206 9.98732 0
M  V30 11283 O 534.027 -0.0743816 8.81969 0
M  V30 11284 O 534.567 1.97652 7.47304 0
M  V30 11285 C 535.507 3.01133 7.08783 0
M  V30 11286 C 534.777 4.12613 6.37049 0
M  V30 11287 O 534.567 3.72827 4.97879 0
M  V30 11288 C 533.377 4.45085 6.88694 0
M  V30 11289 O 532.987 5.7877 6.5624 0
M  V30 11290 C 532.497 3.47817 6.12078 0
M  V30 11291 C 533.207 3.39414 4.77697 0
M  V30 11292 N 533.157 2.04615 4.15333 0
M  V30 11293 H 535.996 3.41248 7.98759 0
M  V30 11294 H 536.268 2.5837 6.41742 0
M  V30 11295 H 535.4 5.02657 6.42673 0
M  V30 11296 P 531.437 6.144 6.45285 0
M  V30 11297 O 531.217 7.54673 6.86199 0
M  V30 11298 O 530.647 5.12391 7.179 0
M  V30 11299 O 531.187 5.99236 4.88467 0
M  V30 11300 C 532.127 6.60234 3.96415 0
M  V30 11301 C 531.397 7.08079 2.736 0
M  V30 11302 O 531.187 5.94365 1.8368 0
M  V30 11303 C 529.997 7.64886 2.9555 0
M  V30 11304 O 529.607 8.5406 1.90739 0
M  V30 11305 C 529.117 6.4116 2.90739 0
M  V30 11306 C 529.827 5.55375 1.86963 0
M  V30 11307 N 529.777 4.09664 2.15742 0
M  V30 11308 C 529.627 3.22231 1.08477 0
M  V30 11309 O 529.537 3.68951 -0.0600489 0
M  V30 11310 N 529.577 1.76692 1.48799 0
M  V30 11311 C 529.677 1.41695 2.57602 0
M  V30 11312 N 529.627 0.107296 2.75791 0
M  V30 11313 C 529.827 2.29178 3.69733 0
M  V30 11314 C 529.877 3.62753 3.42653 0
M  V30 11315 H 532.617 7.45488 4.45578 0
M  V30 11316 H 532.887 5.86232 3.67314 0
M  V30 11317 H 532.02 7.84508 2.24507 0
M  V30 11318 H 529.365 5.73556 0.888715 0
M  V30 11319 H 529.085 5.9096 3.88638 0
M  V30 11320 H 528.094 6.66053 2.58894 0
M  V30 11321 H 529.928 8.16339 3.92049 0
M  V30 11322 H 530 4.33052 4.24913 0
M  V30 11323 H 529.898 1.9103 4.71577 0
M  V30 11324 H 529.51 -0.521221 1.95056 0
M  V30 11325 H 529.706 -0.286429 3.70695 0
M  V30 11326 P 528.057 8.7635 1.60911 0
M  V30 11327 O 527.837 10.1388 1.11561 0
M  V30 11328 O 527.267 8.36503 2.79617 0
M  V30 11329 O 527.807 7.71806 0.42951 0
M  V30 11330 C 528.747 7.67148 -0.673689 0
M  V30 11331 C 528.017 7.33374 -1.95559 0
M  V30 11332 O 527.807 5.88721 -2.00726 0
M  V30 11333 C 526.617 7.92526 -2.10483 0
M  V30 11334 O 526.227 8.02971 -3.47653 0
M  V30 11335 C 525.737 6.89602 -1.41652 0
M  V30 11336 C 526.447 5.59201 -1.75185 0
M  V30 11337 N 526.397 4.58235 -0.662552 0
M  V30 11338 H 529.236 8.65116 -0.777161 0
M  V30 11339 H 529.508 6.90173 -0.474152 0
M  V30 11340 H 528.64 7.66548 -2.79458 0
M  V30 11341 P 524.677 8.03563 -3.84925 0
M  V30 11342 O 524.457 8.85821 -5.0569 0
M  V30 11343 O 523.887 8.41101 -2.65469 0
M  V30 11344 O 524.427 6.4965 -4.18908 0
M  V30 11345 C 525.367 5.81037 -5.05421 0
M  V30 11346 C 524.637 4.78366 -5.89277 0
M  V30 11347 O 524.427 3.58302 -5.08433 0
M  V30 11348 C 523.237 5.17448 -6.36119 0
M  V30 11349 O 522.847 4.45271 -7.53232 0
M  V30 11350 C 522.357 4.74639 -5.19936 0
M  V30 11351 C 523.067 3.49432 -4.70418 0
M  V30 11352 N 523.017 3.31776 -3.22945 0
M  V30 11353 H 525.856 6.54213 -5.71376 0
M  V30 11354 H 526.128 5.30492 -4.44033 0
M  V30 11355 H 525.26 4.55889 -6.76652 0
M  V30 11356 P 521.297 4.23843 -7.83734 0
M  V30 11357 O 521.077 4.19407 -9.29784 0
M  V30 11358 O 520.507 5.24426 -7.09156 0
M  V30 11359 O 521.047 2.7935 -7.20758 0
M  V30 11360 C 521.987 1.7299 -7.50419 0
M  V30 11361 C 521.257 0.406376 -7.57911 0
M  V30 11362 O 521.047 -0.0897726 -6.21935 0
M  V30 11363 C 519.857 0.447224 -8.1878 0
M  V30 11364 O 519.467 -0.825065 -8.71101 0
M  V30 11365 C 518.977 0.783801 -6.99623 0
M  V30 11366 C 519.687 0.0619192 -5.85967 0
M  V30 11367 N 519.637 0.7859 -4.56281 0
M  V30 11368 C 519.717 2.14308 -4.31736 0
M  V30 11369 N 519.637 2.46106 -3.05116 0
M  V30 11370 C 519.497 1.23422 -2.4014 0
M  V30 11371 C 519.367 0.938381 -1.02409 0
M  V30 11372 N 519.247 -0.444647 -0.805413 0
M  V30 11373 C 519.247 -1.40829 -1.79435 0
M  V30 11374 N 519.117 -2.67213 -1.38558 0
M  V30 11375 N 519.377 -1.12947 -3.09005 0
M  V30 11376 C 519.497 0.204887 -3.32369 0
M  V30 11377 H 522.476 1.93423 -8.4679 0
M  V30 11378 H 522.748 1.68181 -6.71046 0
M  V30 11379 H 521.88 -0.289041 -8.15388 0
M  V30 11380 P 517.917 -1.17771 -8.83182 0
M  V30 11381 O 517.697 -2.07206 -9.98732 0
M  V30 11382 O 517.127 0.0743816 -8.81969 0
M  V30 11383 O 517.667 -1.97652 -7.47304 0
M  V30 11384 C 518.607 -3.01133 -7.08783 0
M  V30 11385 C 517.877 -4.12613 -6.37049 0
M  V30 11386 O 517.667 -3.72827 -4.97879 0
M  V30 11387 C 516.477 -4.45085 -6.88694 0
M  V30 11388 O 516.087 -5.7877 -6.5624 0
M  V30 11389 C 515.597 -3.47817 -6.12078 0
M  V30 11390 C 516.307 -3.39414 -4.77697 0
M  V30 11391 N 516.257 -2.04615 -4.15333 0
M  V30 11392 C 516.337 -0.803897 -4.75249 0
M  V30 11393 N 516.257 0.197615 -3.91502 0
M  V30 11394 C 516.117 -0.413002 -2.66823 0
M  V30 11395 C 515.987 0.157221 -1.38007 0
M  V30 11396 N 515.867 -0.833136 -0.390236 0
M  V30 11397 C 515.867 -2.19402 -0.623885 0
M  V30 11398 N 515.737 -2.97622 0.449677 0
M  V30 11399 N 515.997 -2.73005 -1.83601 0
M  V30 11400 C 516.117 -1.78786 -2.80935 0
M  V30 11401 H 519.096 -3.41248 -7.98759 0
M  V30 11402 H 519.368 -2.5837 -6.41742 0
M  V30 11403 H 518.5 -5.02657 -6.42673 0
M  V30 11404 P 514.537 -6.144 -6.45285 0
M  V30 11405 O 514.317 -7.54673 -6.86199 0
M  V30 11406 O 513.747 -5.12391 -7.179 0
M  V30 11407 O 514.287 -5.99158 -4.88404 0
M  V30 11408 C 515.227 -6.60062 -3.96313 0
M  V30 11409 C 514.497 -7.08259 -2.72856 0
M  V30 11410 O 514.287 -5.9427 -1.83651 0
M  V30 11411 C 513.097 -7.65087 -2.94749 0
M  V30 11412 O 512.707 -8.53963 -1.90717 0
M  V30 11413 C 512.217 -6.41069 -2.90698 0
M  V30 11414 C 512.927 -5.5528 -1.86931 0
M  V30 11415 N 512.877 -4.09575 -2.15696 0
M  V30 11416 C 512.727 -3.24249 -1.08435 0
M  V30 11417 O 512.637 -3.63946 0.0628747 0
M  V30 11418 N 512.687 -1.90009 -1.39973 0
M  V30 11419 C 512.777 -1.34884 -2.65614 0
M  V30 11420 C 512.927 -2.3145 -3.71736 0
M  V30 11421 C 512.977 -3.63518 -3.44754 0
M  V30 11422 H 515.718 -7.45402 -4.45526 0
M  V30 11423 H 515.987 -5.86062 -3.67208 0
M  V30 11424 H 515.12 -7.84412 -2.24479 0
M  V30 11425 H 512.465 -5.73358 -0.888409 0
M  V30 11426 H 512.186 -5.90877 -3.88583 0
M  V30 11427 H 511.194 -6.65867 -2.58821 0
M  V30 11428 H 513.028 -8.16248 -3.92006 0
M  V30 11429 H 513.099 -4.34551 -4.26383 0
M  V30 11430 P 511.157 -8.7635 -1.60911 0
M  V30 11431 O 510.937 -10.1388 -1.11561 0
M  V30 11432 O 510.367 -8.36503 -2.79617 0
M  V30 11433 O 510.907 -7.71806 -0.42951 0
M  V30 11434 C 511.847 -7.67148 0.673689 0
M  V30 11435 C 511.117 -7.33374 1.95559 0
M  V30 11436 O 510.907 -5.88721 2.00726 0
M  V30 11437 C 509.717 -7.92526 2.10483 0
M  V30 11438 O 509.327 -8.02971 3.47653 0
M  V30 11439 C 508.837 -6.89602 1.41652 0
M  V30 11440 C 509.547 -5.59201 1.75185 0
M  V30 11441 N 509.497 -4.58235 0.662552 0
M  V30 11442 H 512.336 -8.65116 0.777161 0
M  V30 11443 H 512.608 -6.90173 0.474152 0
M  V30 11444 H 511.74 -7.66548 2.79458 0
M  V30 11445 P 507.777 -8.03563 3.84925 0
M  V30 11446 O 507.557 -8.85821 5.0569 0
M  V30 11447 O 506.987 -8.41101 2.65469 0
M  V30 11448 O 507.527 -6.4965 4.18908 0
M  V30 11449 C 508.467 -5.81037 5.05421 0
M  V30 11450 C 507.737 -4.78366 5.89277 0
M  V30 11451 O 507.527 -3.58302 5.08433 0
M  V30 11452 C 506.337 -5.17448 6.36119 0
M  V30 11453 O 505.947 -4.45271 7.53232 0
M  V30 11454 C 505.457 -4.74639 5.19936 0
M  V30 11455 C 506.167 -3.49432 4.70418 0
M  V30 11456 N 506.117 -3.32099 3.22613 0
M  V30 11457 H 508.956 -6.54213 5.71376 0
M  V30 11458 H 509.228 -5.30936 4.43503 0
M  V30 11459 H 508.36 -4.55889 6.76652 0
M  V30 11460 H 505.705 -2.61715 5.17932 0
M  V30 11461 H 505.425 -5.52155 4.41878 0
M  V30 11462 H 504.434 -4.51981 5.53374 0
M  V30 11463 H 506.268 -6.25124 6.55234 0
M  V30 11464 P 504.397 -4.23843 7.83734 0
M  V30 11465 O 504.177 -4.19407 9.29784 0
M  V30 11466 O 503.607 -5.24426 7.09156 0
M  V30 11467 O 504.147 -2.7935 7.20758 0
M  V30 11468 C 505.087 -1.7299 7.50419 0
M  V30 11469 C 504.357 -0.406376 7.57911 0
M  V30 11470 O 504.147 0.0897726 6.21935 0
M  V30 11471 C 502.957 -0.447224 8.1878 0
M  V30 11472 O 502.567 0.825065 8.71101 0
M  V30 11473 C 502.077 -0.783801 6.99623 0
M  V30 11474 C 502.787 -0.0619192 5.85967 0
M  V30 11475 N 502.737 -0.7859 4.56281 0
M  V30 11476 H 505.576 -1.93423 8.4679 0
M  V30 11477 H 505.848 -1.68181 6.71046 0
M  V30 11478 H 504.98 0.289041 8.15388 0
M  V30 11479 P 501.017 1.17771 8.83182 0
M  V30 11480 O 500.797 2.07206 9.98732 0
M  V30 11481 O 500.227 -0.0743816 8.81969 0
M  V30 11482 O 500.767 1.97652 7.47304 0
M  V30 11483 C 501.707 3.01133 7.08783 0
M  V30 11484 C 500.977 4.12613 6.37049 0
M  V30 11485 O 500.767 3.72827 4.97879 0
M  V30 11486 C 499.577 4.45085 6.88694 0
M  V30 11487 O 499.187 5.7877 6.5624 0
M  V30 11488 C 498.697 3.47817 6.12078 0
M  V30 11489 C 499.407 3.39414 4.77697 0
M  V30 11490 N 499.357 2.04615 4.15333 0
M  V30 11491 H 502.196 3.41248 7.98759 0
M  V30 11492 H 502.468 2.5837 6.41742 0
M  V30 11493 H 501.6 5.02657 6.42673 0
M  V30 11494 P 497.637 6.144 6.45285 0
M  V30 11495 O 497.417 7.54673 6.86199 0
M  V30 11496 O 496.847 5.12391 7.179 0
M  V30 11497 O 497.387 5.99158 4.88404 0
M  V30 11498 C 498.327 6.60062 3.96313 0
M  V30 11499 C 497.597 7.08259 2.72856 0
M  V30 11500 O 497.387 5.9427 1.83651 0
M  V30 11501 C 496.197 7.65087 2.94749 0
M  V30 11502 O 495.807 8.53963 1.90717 0
M  V30 11503 C 495.317 6.41069 2.90698 0
M  V30 11504 C 496.027 5.5528 1.86931 0
M  V30 11505 N 495.977 4.09575 2.15696 0
M  V30 11506 C 495.827 3.24249 1.08435 0
M  V30 11507 O 495.737 3.63946 -0.0628747 0
M  V30 11508 N 495.787 1.90009 1.39973 0
M  V30 11509 C 495.877 1.34884 2.65614 0
M  V30 11510 O 495.827 0.123716 2.81728 0
M  V30 11511 C 496.027 2.3145 3.71736 0
M  V30 11512 C 496.137 1.75913 5.10438 0
M  V30 11513 C 496.077 3.63518 3.44754 0
M  V30 11514 H 498.818 7.45402 4.45526 0
M  V30 11515 H 499.087 5.86062 3.67208 0
M  V30 11516 H 498.22 7.84412 2.24479 0
M  V30 11517 H 495.565 5.73358 0.888409 0
M  V30 11518 H 495.286 5.90877 3.88583 0
M  V30 11519 H 494.294 6.65867 2.58821 0
M  V30 11520 H 496.128 8.16248 3.92006 0
M  V30 11521 H 496.199 4.34551 4.26383 0
M  V30 11522 H 495.169 1.85471 5.61775 0
M  V30 11523 H 496.906 2.31364 5.66257 0
M  V30 11524 H 496.418 0.695936 5.05229 0
M  V30 11525 H 495.682 1.26277 0.63625 0
M  V30 11526 P 494.257 8.7635 1.60911 0
M  V30 11527 O 494.037 10.1388 1.11561 0
M  V30 11528 O 493.467 8.36503 2.79617 0
M  V30 11529 O 494.007 7.71806 0.42951 0
M  V30 11530 C 494.947 7.67148 -0.673689 0
M  V30 11531 C 494.217 7.33374 -1.95559 0
M  V30 11532 O 494.007 5.88721 -2.00726 0
M  V30 11533 C 492.817 7.92526 -2.10483 0
M  V30 11534 O 492.427 8.02971 -3.47653 0
M  V30 11535 C 491.937 6.89602 -1.41652 0
M  V30 11536 C 492.647 5.59201 -1.75185 0
M  V30 11537 N 492.597 4.58235 -0.662552 0
M  V30 11538 H 495.436 8.65116 -0.777161 0
M  V30 11539 H 495.708 6.90173 -0.474152 0
M  V30 11540 H 494.84 7.66548 -2.79458 0
M  V30 11541 P 490.877 8.03563 -3.84925 0
M  V30 11542 O 490.657 8.85821 -5.0569 0
M  V30 11543 O 490.087 8.41101 -2.65469 0
M  V30 11544 O 490.627 6.4965 -4.18908 0
M  V30 11545 C 491.567 5.81037 -5.05421 0
M  V30 11546 C 490.837 4.78366 -5.89277 0
M  V30 11547 O 490.627 3.58302 -5.08433 0
M  V30 11548 C 489.437 5.17448 -6.36119 0
M  V30 11549 O 489.047 4.45271 -7.53232 0
M  V30 11550 C 488.557 4.74639 -5.19936 0
M  V30 11551 C 489.267 3.49432 -4.70418 0
M  V30 11552 N 489.217 3.32099 -3.22613 0
M  V30 11553 H 492.056 6.54213 -5.71376 0
M  V30 11554 H 492.328 5.30936 -4.43503 0
M  V30 11555 H 491.46 4.55889 -6.76652 0
M  V30 11556 H 488.805 2.61715 -5.17932 0
M  V30 11557 H 488.525 5.52155 -4.41878 0
M  V30 11558 H 487.534 4.51981 -5.53374 0
M  V30 11559 H 489.368 6.25124 -6.55234 0
M  V30 11560 P 487.497 4.23843 -7.83734 0
M  V30 11561 O 487.277 4.19407 -9.29784 0
M  V30 11562 O 486.707 5.24426 -7.09156 0
M  V30 11563 O 487.247 2.7935 -7.20758 0
M  V30 11564 C 488.187 1.7299 -7.50419 0
M  V30 11565 C 487.457 0.406376 -7.57911 0
M  V30 11566 O 487.247 -0.0897726 -6.21935 0
M  V30 11567 C 486.057 0.447224 -8.1878 0
M  V30 11568 O 485.667 -0.825065 -8.71101 0
M  V30 11569 C 485.177 0.783801 -6.99623 0
M  V30 11570 C 485.887 0.0619192 -5.85967 0
M  V30 11571 N 485.837 0.7859 -4.56281 0
M  V30 11572 H 488.676 1.93423 -8.4679 0
M  V30 11573 H 488.948 1.68181 -6.71046 0
M  V30 11574 H 488.08 -0.289041 -8.15388 0
M  V30 11575 P 484.117 -1.17771 -8.83182 0
M  V30 11576 O 483.897 -2.07206 -9.98732 0
M  V30 11577 O 483.327 0.0743816 -8.81969 0
M  V30 11578 O 483.867 -1.97652 -7.47304 0
M  V30 11579 C 484.807 -3.01133 -7.08783 0
M  V30 11580 C 484.077 -4.12613 -6.37049 0
M  V30 11581 O 483.867 -3.72827 -4.97879 0
M  V30 11582 C 482.677 -4.45085 -6.88694 0
M  V30 11583 O 482.287 -5.7877 -6.5624 0
M  V30 11584 C 481.797 -3.47817 -6.12078 0
M  V30 11585 C 482.507 -3.39414 -4.77697 0
M  V30 11586 N 482.457 -2.04615 -4.15333 0
M  V30 11587 H 485.296 -3.41248 -7.98759 0
M  V30 11588 H 485.568 -2.5837 -6.41742 0
M  V30 11589 H 484.7 -5.02657 -6.42673 0
M  V30 11590 P 480.737 -6.144 -6.45285 0
M  V30 11591 O 480.517 -7.54673 -6.86199 0
M  V30 11592 O 479.947 -5.12391 -7.179 0
M  V30 11593 O 480.487 -5.99158 -4.88404 0
M  V30 11594 C 481.427 -6.60234 -3.96415 0
M  V30 11595 C 480.697 -7.08259 -2.72856 0
M  V30 11596 O 480.487 -5.9427 -1.83651 0
M  V30 11597 C 479.297 -7.64886 -2.9555 0
M  V30 11598 O 478.907 -8.53963 -1.90717 0
M  V30 11599 C 478.417 -6.4116 -2.90739 0
M  V30 11600 C 479.127 -5.55375 -1.86963 0
M  V30 11601 N 479.077 -4.09448 -2.16152 0
M  V30 11602 C 479.157 -3.46824 -3.37593 0
M  V30 11603 N 479.087 -2.17422 -3.29777 0
M  V30 11604 C 478.937 -1.93065 -1.94427 0
M  V30 11605 C 478.807 -0.738053 -1.20141 0
M  V30 11606 N 478.797 0.474256 -1.74676 0
M  V30 11607 N 478.687 -0.850049 0.13045 0
M  V30 11608 C 478.697 -2.06169 0.676992 0
M  V30 11609 N 478.817 -3.23842 0.101312 0
M  V30 11610 C 478.937 -3.09402 -1.23122 0
M  V30 11611 H 481.916 -7.45574 -4.45629 0
M  V30 11612 H 482.188 -5.85864 -3.679 0
M  V30 11613 H 481.32 -7.84412 -2.24479 0
M  V30 11614 H 478.665 -5.73457 -0.888562 0
M  V30 11615 H 478.385 -5.90877 -3.88583 0
M  V30 11616 H 477.394 -6.6596 -2.58858 0
M  V30 11617 H 479.228 -8.16339 -3.92049 0
M  V30 11618 H 479.269 -4.00505 -4.3174 0
M  V30 11619 H 478.888 0.581337 -2.76658 0
M  V30 11620 H 478.699 1.30811 -1.14888 0
M  V30 11621 H 478.591 -2.08295 1.75542 0
M  V30 11622 P 477.357 -8.7635 -1.60911 0
M  V30 11623 O 477.137 -10.1388 -1.11561 0
M  V30 11624 O 476.567 -8.36503 -2.79617 0
M  V30 11625 O 477.107 -7.71806 -0.42951 0
M  V30 11626 C 478.047 -7.66948 0.673514 0
M  V30 11627 C 477.317 -7.33374 1.95559 0
M  V30 11628 O 477.107 -5.88721 2.00726 0
M  V30 11629 C 475.917 -7.92218 2.1125 0
M  V30 11630 O 475.527 -8.02971 3.47653 0
M  V30 11631 C 475.037 -6.89504 1.41631 0
M  V30 11632 C 475.747 -5.59106 1.75155 0
M  V30 11633 N 475.697 -4.58136 0.662409 0
M  V30 11634 C 475.547 -3.26059 1.02863 0
M  V30 11635 O 475.457 -2.90743 2.19009 0
M  V30 11636 N 475.507 -2.35995 -0.0155585 0
M  V30 11637 C 475.597 -2.65248 -1.35603 0
M  V30 11638 O 475.547 -1.75605 -2.20651 0
M  V30 11639 C 475.747 -4.05747 -1.64698 0
M  V30 11640 C 475.857 -4.42345 -3.09553 0
M  V30 11641 C 475.797 -4.96734 -0.652411 0
M  V30 11642 H 478.538 -8.64917 0.776982 0
M  V30 11643 H 478.807 -6.89974 0.474015 0
M  V30 11644 H 477.94 -7.66548 2.79458 0
M  V30 11645 H 475.285 -5.16076 2.65138 0
M  V30 11646 H 475.006 -7.06433 0.329384 0
M  V30 11647 H 474.014 -6.90829 1.81996 0
M  V30 11648 H 475.848 -8.90774 1.62639 0
M  V30 11649 H 475.919 -6.02181 -0.895285 0
M  V30 11650 H 474.889 -4.80252 -3.45468 0
M  V30 11651 H 476.626 -5.20015 -3.22119 0
M  V30 11652 H 476.138 -3.53269 -3.67833 0
M  V30 11653 H 475.402 -1.39558 0.227499 0
M  V30 11654 P 473.977 -8.03563 3.84925 0
M  V30 11655 O 473.757 -8.85821 5.0569 0
M  V30 11656 O 473.187 -8.41101 2.65469 0
M  V30 11657 O 473.727 -6.4965 4.18908 0
M  V30 11658 C 474.667 -5.81037 5.05421 0
M  V30 11659 C 473.937 -4.78366 5.89277 0
M  V30 11660 O 473.727 -3.58302 5.08433 0
M  V30 11661 C 472.537 -5.17448 6.36119 0
M  V30 11662 O 472.147 -4.45271 7.53232 0
M  V30 11663 C 471.657 -4.74639 5.19936 0
M  V30 11664 C 472.367 -3.49432 4.70418 0
M  V30 11665 N 472.317 -3.31776 3.22945 0
M  V30 11666 H 475.156 -6.54213 5.71376 0
M  V30 11667 H 475.428 -5.30492 4.44033 0
M  V30 11668 H 474.56 -4.55889 6.76652 0
M  V30 11669 P 470.597 -4.23843 7.83734 0
M  V30 11670 O 470.377 -4.19407 9.29784 0
M  V30 11671 O 469.807 -5.24426 7.09156 0
M  V30 11672 O 470.347 -2.7935 7.20758 0
M  V30 11673 C 471.287 -1.7299 7.50419 0
M  V30 11674 C 470.557 -0.406376 7.57911 0
M  V30 11675 O 470.347 0.0897726 6.21935 0
M  V30 11676 C 469.157 -0.447224 8.1878 0
M  V30 11677 O 468.767 0.825065 8.71101 0
M  V30 11678 C 468.277 -0.783801 6.99623 0
M  V30 11679 C 468.987 -0.0619192 5.85967 0
M  V30 11680 N 468.937 -0.7859 4.56281 0
M  V30 11681 H 471.776 -1.93423 8.4679 0
M  V30 11682 H 472.048 -1.68181 6.71046 0
M  V30 11683 H 471.18 0.289041 8.15388 0
M  V30 11684 P 467.217 1.17771 8.83182 0
M  V30 11685 O 466.997 2.07206 9.98732 0
M  V30 11686 O 466.427 -0.0743816 8.81969 0
M  V30 11687 O 466.967 1.97652 7.47304 0
M  V30 11688 C 467.907 3.01133 7.08783 0
M  V30 11689 C 467.177 4.12613 6.37049 0
M  V30 11690 O 466.967 3.72827 4.97879 0
M  V30 11691 C 465.777 4.45085 6.88694 0
M  V30 11692 O 465.387 5.7877 6.5624 0
M  V30 11693 C 464.897 3.47817 6.12078 0
M  V30 11694 C 465.607 3.39414 4.77697 0
M  V30 11695 N 465.557 2.04615 4.15333 0
M  V30 11696 H 468.396 3.41248 7.98759 0
M  V30 11697 H 468.668 2.5837 6.41742 0
M  V30 11698 H 467.8 5.02657 6.42673 0
M  V30 11699 P 463.837 6.144 6.45285 0
M  V30 11700 O 463.617 7.54673 6.86199 0
M  V30 11701 O 463.047 5.12391 7.179 0
M  V30 11702 O 463.587 5.99158 4.88404 0
M  V30 11703 C 464.527 6.60062 3.96313 0
M  V30 11704 C 463.797 7.08259 2.72856 0
M  V30 11705 O 463.587 5.9427 1.83651 0
M  V30 11706 C 462.397 7.65087 2.94749 0
M  V30 11707 O 462.007 8.53963 1.90717 0
M  V30 11708 C 461.517 6.41069 2.90698 0
M  V30 11709 C 462.227 5.5528 1.86931 0
M  V30 11710 N 462.177 4.09575 2.15696 0
M  V30 11711 C 462.027 3.24249 1.08435 0
M  V30 11712 O 461.937 3.63946 -0.0628747 0
M  V30 11713 N 461.987 1.90009 1.39973 0
M  V30 11714 C 462.077 1.34884 2.65614 0
M  V30 11715 C 462.227 2.3145 3.71736 0
M  V30 11716 C 462.277 3.63518 3.44754 0
M  V30 11717 H 465.018 7.45402 4.45526 0
M  V30 11718 H 465.287 5.86062 3.67208 0
M  V30 11719 H 464.42 7.84412 2.24479 0
M  V30 11720 H 461.765 5.73358 0.888409 0
M  V30 11721 H 461.486 5.90877 3.88583 0
M  V30 11722 H 460.494 6.65867 2.58821 0
M  V30 11723 H 462.328 8.16248 3.92006 0
M  V30 11724 H 462.399 4.34551 4.26383 0
M  V30 11725 P 460.457 8.7635 1.60911 0
M  V30 11726 O 460.237 10.1388 1.11561 0
M  V30 11727 O 459.667 8.36503 2.79617 0
M  V30 11728 O 460.207 7.71806 0.42951 0
M  V30 11729 C 461.147 7.67148 -0.673689 0
M  V30 11730 C 460.417 7.33374 -1.95559 0
M  V30 11731 O 460.207 5.88721 -2.00726 0
M  V30 11732 C 459.017 7.92526 -2.10483 0
M  V30 11733 O 458.627 8.02971 -3.47653 0
M  V30 11734 C 458.137 6.89602 -1.41652 0
M  V30 11735 C 458.847 5.59201 -1.75185 0
M  V30 11736 N 458.797 4.58301 -0.657969 0
M  V30 11737 H 461.636 8.65116 -0.777161 0
M  V30 11738 H 461.908 6.9022 -0.46725 0
M  V30 11739 H 461.04 7.66548 -2.79458 0
M  V30 11740 H 458.385 5.16165 -2.65183 0
M  V30 11741 H 458.105 7.06433 -0.329384 0
M  V30 11742 H 457.114 6.90926 -1.82021 0
M  V30 11743 H 458.948 8.90873 -1.62657 0
M  V30 11744 P 457.077 8.03563 -3.84925 0
M  V30 11745 O 456.857 8.85821 -5.0569 0
M  V30 11746 O 456.287 8.41101 -2.65469 0
M  V30 11747 O 456.827 6.4965 -4.18908 0
M  V30 11748 C 457.767 5.81037 -5.05421 0
M  V30 11749 C 457.037 4.78366 -5.89277 0
M  V30 11750 O 456.827 3.58302 -5.08433 0
M  V30 11751 C 455.637 5.17448 -6.36119 0
M  V30 11752 O 455.247 4.45271 -7.53232 0
M  V30 11753 C 454.757 4.74639 -5.19936 0
M  V30 11754 C 455.467 3.49432 -4.70418 0
M  V30 11755 N 455.417 3.31776 -3.22945 0
M  V30 11756 H 458.256 6.54213 -5.71376 0
M  V30 11757 H 458.528 5.30492 -4.44033 0
M  V30 11758 H 457.66 4.55889 -6.76652 0
M  V30 11759 P 453.697 4.23843 -7.83734 0
M  V30 11760 O 453.477 4.19407 -9.29784 0
M  V30 11761 O 452.907 5.24426 -7.09156 0
M  V30 11762 O 453.447 2.7935 -7.20758 0
M  V30 11763 C 454.387 1.7299 -7.50419 0
M  V30 11764 C 453.657 0.406376 -7.57911 0
M  V30 11765 O 453.447 -0.0897726 -6.21935 0
M  V30 11766 C 452.257 0.447224 -8.1878 0
M  V30 11767 O 451.867 -0.825065 -8.71101 0
M  V30 11768 C 451.377 0.783801 -6.99623 0
M  V30 11769 C 452.087 0.0619192 -5.85967 0
M  V30 11770 N 452.037 0.790462 -4.56202 0
M  V30 11771 C 452.117 2.13895 -4.34171 0
M  V30 11772 N 452.047 2.46449 -3.08687 0
M  V30 11773 C 451.897 1.2525 -2.43697 0
M  V30 11774 C 451.767 0.914535 -1.07318 0
M  V30 11775 N 451.757 1.80782 -0.0887348 0
M  V30 11776 N 451.647 -0.386745 -0.768133 0
M  V30 11777 C 451.657 -1.28096 -1.75159 0
M  V30 11778 N 451.777 -1.09708 -3.04861 0
M  V30 11779 C 451.897 0.214857 -3.32306 0
M  V30 11780 H 454.876 1.93423 -8.4679 0
M  V30 11781 H 455.148 1.68852 -6.70877 0
M  V30 11782 H 454.28 -0.289041 -8.15388 0
M  V30 11783 H 451.625 -0.927006 -5.72848 0
M  V30 11784 H 451.345 1.86973 -6.82036 0
M  V30 11785 H 450.354 0.403953 -7.13357 0
M  V30 11786 H 452.188 1.20599 -8.97534 0
M  V30 11787 H 452.229 2.86846 -5.14318 0
M  V30 11788 H 451.848 2.81082 -0.302037 0
M  V30 11789 H 451.659 1.49688 0.889064 0
M  V30 11790 H 451.551 -2.31317 -1.43855 0
M  V30 11791 P 450.317 -1.17771 -8.83182 0
M  V30 11792 O 450.097 -2.07206 -9.98732 0
M  V30 11793 O 449.527 0.0743816 -8.81969 0
M  V30 11794 O 450.067 -1.97652 -7.47304 0
M  V30 11795 C 451.007 -3.01055 -7.08599 0
M  V30 11796 C 450.277 -4.12613 -6.37049 0
M  V30 11797 O 450.067 -3.72827 -4.97879 0
M  V30 11798 C 448.877 -4.45719 -6.88164 0
M  V30 11799 O 448.487 -5.7877 -6.5624 0
M  V30 11800 C 447.997 -3.47768 -6.11991 0
M  V30 11801 C 448.707 -3.39356 -4.77615 0
M  V30 11802 N 448.657 -2.04571 -4.15244 0
M  V30 11803 C 448.507 -1.98587 -2.78314 0
M  V30 11804 O 448.417 -2.98134 -2.08835 0
M  V30 11805 N 448.467 -0.714467 -2.24925 0
M  V30 11806 C 448.557 0.470001 -2.94169 0
M  V30 11807 O 448.507 1.55587 -2.35195 0
M  V30 11808 C 448.707 0.312541 -4.36783 0
M  V30 11809 C 448.817 1.57711 -5.16352 0
M  V30 11810 C 448.757 -0.914512 -4.92583 0
M  V30 11811 H 451.498 -3.41169 -7.98575 0
M  V30 11812 H 451.767 -2.58295 -6.41556 0
M  V30 11813 H 450.9 -5.02657 -6.42673 0
M  V30 11814 H 448.245 -4.11637 -4.08885 0
M  V30 11815 H 447.966 -2.49626 -6.61679 0
M  V30 11816 H 446.974 -3.86566 -6.00778 0
M  V30 11817 H 448.808 -4.29943 -7.96918 0
M  V30 11818 H 448.879 -1.00937 -6.00374 0
M  V30 11819 H 447.849 1.80153 -5.63503 0
M  V30 11820 H 449.586 1.4566 -5.94104 0
M  V30 11821 H 449.098 2.40664 -4.49645 0
M  V30 11822 H 448.362 -0.647622 -1.25697 0
M  V30 11823 P 446.937 -6.144 -6.45285 0
M  V30 11824 O 446.717 -7.54673 -6.86199 0
M  V30 11825 O 446.147 -5.12391 -7.179 0
M  V30 11826 O 446.687 -5.99158 -4.88404 0
M  V30 11827 C 447.627 -6.60234 -3.96415 0
M  V30 11828 C 446.897 -7.08259 -2.72856 0
M  V30 11829 O 446.687 -5.9427 -1.83651 0
M  V30 11830 C 445.497 -7.64886 -2.9555 0
M  V30 11831 O 445.107 -8.53963 -1.90717 0
M  V30 11832 C 444.617 -6.4116 -2.90739 0
M  V30 11833 C 445.327 -5.55375 -1.86963 0
M  V30 11834 N 445.277 -4.09664 -2.15742 0
M  V30 11835 H 448.116 -7.45574 -4.45629 0
M  V30 11836 H 448.388 -5.86232 -3.67314 0
M  V30 11837 H 447.52 -7.84412 -2.24479 0
M  V30 11838 P 443.557 -8.7635 -1.60911 0
M  V30 11839 O 443.337 -10.1388 -1.11561 0
M  V30 11840 O 442.767 -8.36503 -2.79617 0
M  V30 11841 O 443.307 -7.71806 -0.42951 0
M  V30 11842 C 444.247 -7.67148 0.673689 0
M  V30 11843 C 443.517 -7.33374 1.95559 0
M  V30 11844 O 443.307 -5.88721 2.00726 0
M  V30 11845 C 442.117 -7.92526 2.10483 0
M  V30 11846 O 441.727 -8.02971 3.47653 0
M  V30 11847 C 441.237 -6.89602 1.41652 0
M  V30 11848 C 441.947 -5.59201 1.75185 0
M  V30 11849 N 441.897 -4.58235 0.662552 0
M  V30 11850 H 444.736 -8.65116 0.777161 0
M  V30 11851 H 445.008 -6.90173 0.474152 0
M  V30 11852 H 444.14 -7.66548 2.79458 0
M  V30 11853 P 440.177 -8.03563 3.84925 0
M  V30 11854 O 439.957 -8.85821 5.0569 0
M  V30 11855 O 439.387 -8.41101 2.65469 0
M  V30 11856 O 439.927 -6.4965 4.18908 0
M  V30 11857 C 440.867 -5.81037 5.05421 0
M  V30 11858 C 440.137 -4.78366 5.89277 0
M  V30 11859 O 439.927 -3.58302 5.08433 0
M  V30 11860 C 438.737 -5.17448 6.36119 0
M  V30 11861 O 438.347 -4.45271 7.53232 0
M  V30 11862 C 437.857 -4.74639 5.19936 0
M  V30 11863 C 438.567 -3.49432 4.70418 0
M  V30 11864 N 438.517 -3.31776 3.22945 0
M  V30 11865 H 441.356 -6.54213 5.71376 0
M  V30 11866 H 441.628 -5.30492 4.44033 0
M  V30 11867 H 440.76 -4.55889 6.76652 0
M  V30 11868 P 436.797 -4.23843 7.83734 0
M  V30 11869 O 436.577 -4.19407 9.29784 0
M  V30 11870 O 436.007 -5.24426 7.09156 0
M  V30 11871 O 436.547 -2.7935 7.20758 0
M  V30 11872 C 437.487 -1.7299 7.50419 0
M  V30 11873 C 436.757 -0.406376 7.57911 0
M  V30 11874 O 436.547 0.0897726 6.21935 0
M  V30 11875 C 435.357 -0.447224 8.1878 0
M  V30 11876 O 434.967 0.825065 8.71101 0
M  V30 11877 C 434.477 -0.783801 6.99623 0
M  V30 11878 C 435.187 -0.0619192 5.85967 0
M  V30 11879 N 435.137 -0.790462 4.56202 0
M  V30 11880 C 435.217 -2.13895 4.34171 0
M  V30 11881 N 435.147 -2.46449 3.08687 0
M  V30 11882 C 434.997 -1.2525 2.43697 0
M  V30 11883 C 434.867 -0.914535 1.07318 0
M  V30 11884 N 434.857 -1.80782 0.0887348 0
M  V30 11885 N 434.747 0.386745 0.768133 0
M  V30 11886 C 434.757 1.28096 1.75159 0
M  V30 11887 N 434.877 1.09708 3.04861 0
M  V30 11888 C 434.997 -0.214857 3.32306 0
M  V30 11889 H 437.976 -1.93423 8.4679 0
M  V30 11890 H 438.248 -1.68852 6.70877 0
M  V30 11891 H 437.38 0.289041 8.15388 0
M  V30 11892 H 434.725 0.927006 5.72848 0
M  V30 11893 H 434.445 -1.86973 6.82036 0
M  V30 11894 H 433.454 -0.403953 7.13357 0
M  V30 11895 H 435.288 -1.20599 8.97534 0
M  V30 11896 H 435.329 -2.86846 5.14318 0
M  V30 11897 H 434.948 -2.81082 0.302037 0
M  V30 11898 H 434.759 -1.49688 -0.889064 0
M  V30 11899 H 434.651 2.31317 1.43855 0
M  V30 11900 P 433.417 1.17771 8.83182 0
M  V30 11901 O 433.197 2.07206 9.98732 0
M  V30 11902 O 432.627 -0.0743816 8.81969 0
M  V30 11903 O 433.167 1.97652 7.47304 0
M  V30 11904 C 434.107 3.01133 7.08783 0
M  V30 11905 C 433.377 4.12613 6.37049 0
M  V30 11906 O 433.167 3.72827 4.97879 0
M  V30 11907 C 431.977 4.45085 6.88694 0
M  V30 11908 O 431.587 5.7877 6.5624 0
M  V30 11909 C 431.097 3.47817 6.12078 0
M  V30 11910 C 431.807 3.39414 4.77697 0
M  V30 11911 N 431.757 2.04615 4.15333 0
M  V30 11912 H 434.596 3.41248 7.98759 0
M  V30 11913 H 434.868 2.5837 6.41742 0
M  V30 11914 H 434 5.02657 6.42673 0
M  V30 11915 P 430.037 6.144 6.45285 0
M  V30 11916 O 429.817 7.54673 6.86199 0
M  V30 11917 O 429.247 5.12391 7.179 0
M  V30 11918 O 429.787 5.99158 4.88404 0
M  V30 11919 C 430.727 6.60234 3.96415 0
M  V30 11920 C 429.997 7.08259 2.72856 0
M  V30 11921 O 429.787 5.9427 1.83651 0
M  V30 11922 C 428.597 7.64886 2.9555 0
M  V30 11923 O 428.207 8.53963 1.90717 0
M  V30 11924 C 427.717 6.4116 2.90739 0
M  V30 11925 C 428.427 5.55375 1.86963 0
M  V30 11926 N 428.377 4.09664 2.15742 0
M  V30 11927 H 431.216 7.45574 4.45629 0
M  V30 11928 H 431.488 5.86232 3.67314 0
M  V30 11929 H 430.62 7.84412 2.24479 0
M  V30 11930 P 426.657 8.7635 1.60911 0
M  V30 11931 O 426.437 10.1388 1.11561 0
M  V30 11932 O 425.867 8.36503 2.79617 0
M  V30 11933 O 426.407 7.71806 0.42951 0
M  V30 11934 C 427.347 7.67148 -0.673689 0
M  V30 11935 C 426.617 7.33374 -1.95559 0
M  V30 11936 O 426.407 5.88721 -2.00726 0
M  V30 11937 C 425.217 7.92526 -2.10483 0
M  V30 11938 O 424.827 8.02971 -3.47653 0
M  V30 11939 C 424.337 6.89602 -1.41652 0
M  V30 11940 C 425.047 5.59201 -1.75185 0
M  V30 11941 N 424.997 4.58235 -0.662552 0
M  V30 11942 H 427.836 8.65116 -0.777161 0
M  V30 11943 H 428.108 6.90173 -0.474152 0
M  V30 11944 H 427.24 7.66548 -2.79458 0
M  V30 11945 P 423.278 8.03563 -3.84925 0
M  V30 11946 O 423.058 8.85821 -5.0569 0
M  V30 11947 O 422.488 8.41101 -2.65469 0
M  V30 11948 O 423.028 6.4965 -4.18908 0
M  V30 11949 C 423.968 5.81037 -5.05421 0
M  V30 11950 C 423.238 4.78366 -5.89277 0
M  V30 11951 O 423.028 3.58302 -5.08433 0
M  V30 11952 C 421.838 5.17448 -6.36119 0
M  V30 11953 O 421.448 4.45271 -7.53232 0
M  V30 11954 C 420.958 4.74639 -5.19936 0
M  V30 11955 C 421.668 3.49432 -4.70418 0
M  V30 11956 N 421.618 3.31776 -3.22945 0
M  V30 11957 H 424.457 6.54213 -5.71376 0
M  V30 11958 H 424.729 5.30492 -4.44033 0
M  V30 11959 H 423.861 4.55889 -6.76652 0
M  V30 11960 P 419.898 4.23843 -7.83734 0
M  V30 11961 O 419.678 4.19407 -9.29784 0
M  V30 11962 O 419.108 5.24426 -7.09156 0
M  V30 11963 O 419.648 2.7935 -7.20758 0
M  V30 11964 C 420.588 1.7299 -7.50419 0
M  V30 11965 C 419.858 0.406376 -7.57911 0
M  V30 11966 O 419.648 -0.0897726 -6.21935 0
M  V30 11967 C 418.458 0.447224 -8.1878 0
M  V30 11968 O 418.068 -0.825065 -8.71101 0
M  V30 11969 C 417.578 0.783801 -6.99623 0
M  V30 11970 C 418.288 0.0619192 -5.85967 0
M  V30 11971 N 418.238 0.790462 -4.56202 0
M  V30 11972 H 421.077 1.93423 -8.4679 0
M  V30 11973 H 421.349 1.68852 -6.70877 0
M  V30 11974 H 420.481 -0.289041 -8.15388 0
M  V30 11975 H 417.826 -0.927006 -5.72848 0
M  V30 11976 H 417.546 1.86973 -6.82036 0
M  V30 11977 H 416.555 0.403953 -7.13357 0
M  V30 11978 H 418.389 1.20599 -8.97534 0
M  V30 11979 P 416.518 -1.17771 -8.83182 0
M  V30 11980 O 416.298 -2.07206 -9.98732 0
M  V30 11981 O 415.728 0.0743816 -8.81969 0
M  V30 11982 O 416.268 -1.97652 -7.47304 0
M  V30 11983 C 417.208 -3.01133 -7.08783 0
M  V30 11984 C 416.478 -4.12613 -6.37049 0
M  V30 11985 O 416.268 -3.72827 -4.97879 0
M  V30 11986 C 415.078 -4.45085 -6.88694 0
M  V30 11987 O 414.688 -5.7877 -6.5624 0
M  V30 11988 C 414.198 -3.47817 -6.12078 0
M  V30 11989 C 414.908 -3.39414 -4.77697 0
M  V30 11990 N 414.858 -2.04615 -4.15333 0
M  V30 11991 H 417.697 -3.41248 -7.98759 0
M  V30 11992 H 417.969 -2.5837 -6.41742 0
M  V30 11993 H 417.101 -5.02657 -6.42673 0
M  V30 11994 P 413.138 -6.144 -6.45285 0
M  V30 11995 O 412.918 -7.54673 -6.86199 0
M  V30 11996 O 412.348 -5.12391 -7.179 0
M  V30 11997 O 412.888 -5.99158 -4.88404 0
M  V30 11998 C 413.828 -6.60234 -3.96415 0
M  V30 11999 C 413.098 -7.08259 -2.72856 0
M  V30 12000 O 412.888 -5.9427 -1.83651 0
M  V30 12001 C 411.698 -7.64886 -2.9555 0
M  V30 12002 O 411.308 -8.53963 -1.90717 0
M  V30 12003 C 410.818 -6.4116 -2.90739 0
M  V30 12004 C 411.528 -5.55375 -1.86963 0
M  V30 12005 N 411.478 -4.09664 -2.15742 0
M  V30 12006 H 414.317 -7.45574 -4.45629 0
M  V30 12007 H 414.589 -5.86232 -3.67314 0
M  V30 12008 H 413.721 -7.84412 -2.24479 0
M  V30 12009 P 409.758 -8.7635 -1.60911 0
M  V30 12010 O 409.538 -10.1388 -1.11561 0
M  V30 12011 O 408.968 -8.36503 -2.79617 0
M  V30 12012 O 409.508 -7.71806 -0.42951 0
M  V30 12013 C 410.448 -7.67148 0.673689 0
M  V30 12014 C 409.718 -7.33374 1.95559 0
M  V30 12015 O 409.508 -5.88721 2.00726 0
M  V30 12016 C 408.318 -7.92526 2.10483 0
M  V30 12017 O 407.928 -8.02971 3.47653 0
M  V30 12018 C 407.438 -6.89602 1.41652 0
M  V30 12019 C 408.148 -5.59201 1.75185 0
M  V30 12020 N 408.098 -4.58301 0.657969 0
M  V30 12021 H 410.937 -8.65116 0.777161 0
M  V30 12022 H 411.209 -6.9022 0.46725 0
M  V30 12023 H 410.341 -7.66548 2.79458 0
M  V30 12024 H 407.686 -5.16165 2.65183 0
M  V30 12025 H 407.406 -7.06433 0.329384 0
M  V30 12026 H 406.415 -6.90926 1.82021 0
M  V30 12027 H 408.249 -8.90873 1.62657 0
M  V30 12028 P 406.378 -8.03563 3.84925 0
M  V30 12029 O 406.158 -8.85821 5.0569 0
M  V30 12030 O 405.588 -8.41101 2.65469 0
M  V30 12031 O 406.128 -6.4965 4.18908 0
M  V30 12032 C 407.068 -5.81037 5.05421 0
M  V30 12033 C 406.338 -4.78366 5.89277 0
M  V30 12034 O 406.128 -3.58302 5.08433 0
M  V30 12035 C 404.938 -5.17448 6.36119 0
M  V30 12036 O 404.548 -4.45271 7.53232 0
M  V30 12037 C 404.058 -4.74639 5.19936 0
M  V30 12038 C 404.768 -3.49432 4.70418 0
M  V30 12039 N 404.718 -3.32099 3.22613 0
M  V30 12040 H 407.557 -6.54213 5.71376 0
M  V30 12041 H 407.829 -5.30936 4.43503 0
M  V30 12042 H 406.961 -4.55889 6.76652 0
M  V30 12043 H 404.306 -2.61715 5.17932 0
M  V30 12044 H 404.026 -5.52155 4.41878 0
M  V30 12045 H 403.035 -4.51981 5.53374 0
M  V30 12046 H 404.869 -6.25124 6.55234 0
M  V30 12047 P 402.998 -4.23843 7.83734 0
M  V30 12048 O 402.778 -4.19407 9.29784 0
M  V30 12049 O 402.208 -5.24426 7.09156 0
M  V30 12050 O 402.748 -2.7935 7.20758 0
M  V30 12051 C 403.688 -1.7299 7.50419 0
M  V30 12052 C 402.958 -0.406376 7.57911 0
M  V30 12053 O 402.748 0.0897726 6.21935 0
M  V30 12054 C 401.558 -0.447224 8.1878 0
M  V30 12055 O 401.168 0.825065 8.71101 0
M  V30 12056 C 400.678 -0.783801 6.99623 0
M  V30 12057 C 401.388 -0.0619192 5.85967 0
M  V30 12058 N 401.338 -0.7859 4.56281 0
M  V30 12059 H 404.177 -1.93423 8.4679 0
M  V30 12060 H 404.449 -1.68181 6.71046 0
M  V30 12061 H 403.581 0.289041 8.15388 0
M  V30 12062 P 399.618 1.17771 8.83182 0
M  V30 12063 O 399.398 2.07206 9.98732 0
M  V30 12064 O 398.828 -0.0743816 8.81969 0
M  V30 12065 O 399.368 1.97652 7.47304 0
M  V30 12066 C 400.308 3.01133 7.08783 0
M  V30 12067 C 399.578 4.12613 6.37049 0
M  V30 12068 O 399.368 3.72827 4.97879 0
M  V30 12069 C 398.178 4.45085 6.88694 0
M  V30 12070 O 397.788 5.7877 6.5624 0
M  V30 12071 C 397.298 3.47817 6.12078 0
M  V30 12072 C 398.008 3.39414 4.77697 0
M  V30 12073 N 397.958 2.04615 4.15333 0
M  V30 12074 H 400.797 3.41248 7.98759 0
M  V30 12075 H 401.069 2.5837 6.41742 0
M  V30 12076 H 400.201 5.02657 6.42673 0
M  V30 12077 P 396.238 6.144 6.45285 0
M  V30 12078 O 396.018 7.54673 6.86199 0
M  V30 12079 O 395.448 5.12391 7.179 0
M  V30 12080 O 395.988 5.99158 4.88404 0
M  V30 12081 C 396.928 6.60234 3.96415 0
M  V30 12082 C 396.198 7.08259 2.72856 0
M  V30 12083 O 395.988 5.9427 1.83651 0
M  V30 12084 C 394.798 7.64886 2.9555 0
M  V30 12085 O 394.408 8.53963 1.90717 0
M  V30 12086 C 393.918 6.4116 2.90739 0
M  V30 12087 C 394.628 5.55375 1.86963 0
M  V30 12088 N 394.578 4.09664 2.15742 0
M  V30 12089 H 397.417 7.45574 4.45629 0
M  V30 12090 H 397.689 5.86232 3.67314 0
M  V30 12091 H 396.821 7.84412 2.24479 0
M  V30 12092 P 392.858 8.7635 1.60911 0
M  V30 12093 O 392.638 10.1388 1.11561 0
M  V30 12094 O 392.068 8.36503 2.79617 0
M  V30 12095 O 392.608 7.71806 0.42951 0
M  V30 12096 C 393.548 7.67148 -0.673689 0
M  V30 12097 C 392.818 7.33374 -1.95559 0
M  V30 12098 O 392.608 5.88721 -2.00726 0
M  V30 12099 C 391.418 7.92526 -2.10483 0
M  V30 12100 O 391.028 8.02971 -3.47653 0
M  V30 12101 C 390.538 6.89602 -1.41652 0
M  V30 12102 C 391.248 5.59201 -1.75185 0
M  V30 12103 N 391.198 4.58235 -0.662552 0
M  V30 12104 H 394.037 8.65116 -0.777161 0
M  V30 12105 H 394.309 6.90173 -0.474152 0
M  V30 12106 H 393.441 7.66548 -2.79458 0
M  V30 12107 P 389.478 8.03563 -3.84925 0
M  V30 12108 O 389.258 8.85821 -5.0569 0
M  V30 12109 O 388.688 8.41101 -2.65469 0
M  V30 12110 O 389.228 6.4965 -4.18908 0
M  V30 12111 C 390.168 5.81037 -5.05421 0
M  V30 12112 C 389.438 4.78366 -5.89277 0
M  V30 12113 O 389.228 3.58302 -5.08433 0
M  V30 12114 C 388.038 5.17448 -6.36119 0
M  V30 12115 O 387.648 4.45271 -7.53232 0
M  V30 12116 C 387.158 4.74639 -5.19936 0
M  V30 12117 C 387.868 3.49432 -4.70418 0
M  V30 12118 N 387.818 3.32099 -3.22613 0
M  V30 12119 H 390.657 6.54213 -5.71376 0
M  V30 12120 H 390.929 5.30936 -4.43503 0
M  V30 12121 H 390.061 4.55889 -6.76652 0
M  V30 12122 H 387.406 2.61715 -5.17932 0
M  V30 12123 H 387.126 5.52155 -4.41878 0
M  V30 12124 H 386.135 4.51981 -5.53374 0
M  V30 12125 H 387.969 6.25124 -6.55234 0
M  V30 12126 P 386.098 4.23843 -7.83734 0
M  V30 12127 O 385.878 4.19407 -9.29784 0
M  V30 12128 O 385.308 5.24426 -7.09156 0
M  V30 12129 O 385.848 2.7935 -7.20758 0
M  V30 12130 C 386.788 1.72945 -7.50224 0
M  V30 12131 C 386.058 0.406376 -7.57911 0
M  V30 12132 O 385.848 -0.0897726 -6.21935 0
M  V30 12133 C 384.658 0.438983 -8.18724 0
M  V30 12134 O 384.268 -0.825065 -8.71101 0
M  V30 12135 C 383.778 0.783689 -6.99524 0
M  V30 12136 C 384.488 0.0619086 -5.85867 0
M  V30 12137 N 384.438 0.78573 -4.56183 0
M  V30 12138 C 384.288 0.0292889 -3.41887 0
M  V30 12139 O 384.198 -1.18445 -3.4419 0
M  V30 12140 N 384.248 0.744061 -2.23964 0
M  V30 12141 C 384.338 2.10932 -2.10362 0
M  V30 12142 O 384.288 2.64117 -0.98825 0
M  V30 12143 C 384.488 2.8202 -3.34994 0
M  V30 12144 C 384.598 4.31095 -3.25037 0
M  V30 12145 C 384.538 2.15547 -4.52261 0
M  V30 12146 H 387.279 1.93379 -8.46595 0
M  V30 12147 H 387.548 1.68132 -6.70852 0
M  V30 12148 H 386.681 -0.289041 -8.15388 0
M  V30 12149 H 384.026 -0.926847 -5.72749 0
M  V30 12150 H 383.747 1.86973 -6.82036 0
M  V30 12151 H 382.755 0.403896 -7.13257 0
M  V30 12152 H 384.589 1.20585 -8.97435 0
M  V30 12153 H 384.66 2.71231 -5.45042 0
M  V30 12154 H 383.63 4.76966 -3.49992 0
M  V30 12155 H 385.367 4.67047 -3.95024 0
M  V30 12156 H 384.879 4.58996 -2.22312 0
M  V30 12157 H 384.143 0.214893 -1.39758 0
M  V30 12158 P 382.718 -1.17771 -8.83182 0
M  V30 12159 O 382.498 -2.07206 -9.98732 0
M  V30 12160 O 381.928 0.0743816 -8.81969 0
M  V30 12161 O 382.468 -1.97652 -7.47304 0
M  V30 12162 C 383.408 -3.01055 -7.08599 0
M  V30 12163 C 382.678 -4.12613 -6.37049 0
M  V30 12164 O 382.468 -3.72827 -4.97879 0
M  V30 12165 C 381.278 -4.45719 -6.88164 0
M  V30 12166 O 380.888 -5.7877 -6.5624 0
M  V30 12167 C 380.398 -3.47768 -6.11991 0
M  V30 12168 C 381.108 -3.39356 -4.77615 0
M  V30 12169 N 381.058 -2.04571 -4.15244 0
M  V30 12170 C 380.908 -1.98587 -2.78314 0
M  V30 12171 O 380.818 -2.98134 -2.08835 0
M  V30 12172 N 380.868 -0.714467 -2.24925 0
M  V30 12173 C 380.958 0.470001 -2.94169 0
M  V30 12174 O 380.908 1.55587 -2.35195 0
M  V30 12175 C 381.108 0.312541 -4.36783 0
M  V30 12176 C 381.218 1.57711 -5.16352 0
M  V30 12177 C 381.158 -0.914512 -4.92583 0
M  V30 12178 H 383.899 -3.41169 -7.98575 0
M  V30 12179 H 384.168 -2.58295 -6.41556 0
M  V30 12180 H 383.301 -5.02657 -6.42673 0
M  V30 12181 H 380.646 -4.11637 -4.08885 0
M  V30 12182 H 380.367 -2.49626 -6.61679 0
M  V30 12183 H 379.375 -3.86566 -6.00778 0
M  V30 12184 H 381.209 -4.29943 -7.96918 0
M  V30 12185 H 381.28 -1.00937 -6.00374 0
M  V30 12186 H 380.25 1.80153 -5.63503 0
M  V30 12187 H 381.987 1.4566 -5.94104 0
M  V30 12188 H 381.499 2.40664 -4.49645 0
M  V30 12189 H 380.763 -0.647622 -1.25697 0
M  V30 12190 P 379.338 -6.144 -6.45285 0
M  V30 12191 O 379.118 -7.54673 -6.86199 0
M  V30 12192 O 378.548 -5.12391 -7.179 0
M  V30 12193 O 379.088 -5.99158 -4.88404 0
M  V30 12194 C 380.028 -6.60234 -3.96415 0
M  V30 12195 C 379.298 -7.08259 -2.72856 0
M  V30 12196 O 379.088 -5.9427 -1.83651 0
M  V30 12197 C 377.898 -7.64886 -2.9555 0
M  V30 12198 O 377.508 -8.53963 -1.90717 0
M  V30 12199 C 377.018 -6.4116 -2.90739 0
M  V30 12200 C 377.728 -5.55375 -1.86963 0
M  V30 12201 N 377.678 -4.09664 -2.15742 0
M  V30 12202 H 380.517 -7.45574 -4.45629 0
M  V30 12203 H 380.789 -5.86232 -3.67314 0
M  V30 12204 H 379.921 -7.84412 -2.24479 0
M  V30 12205 P 375.958 -8.7635 -1.60911 0
M  V30 12206 O 375.738 -10.1388 -1.11561 0
M  V30 12207 O 375.168 -8.36503 -2.79617 0
M  V30 12208 O 375.708 -7.71806 -0.42951 0
M  V30 12209 C 376.648 -7.67148 0.673689 0
M  V30 12210 C 375.918 -7.33374 1.95559 0
M  V30 12211 O 375.708 -5.88721 2.00726 0
M  V30 12212 C 374.518 -7.92526 2.10483 0
M  V30 12213 O 374.128 -8.02971 3.47653 0
M  V30 12214 C 373.638 -6.89602 1.41652 0
M  V30 12215 C 374.348 -5.59201 1.75185 0
M  V30 12216 N 374.298 -4.58235 0.662552 0
M  V30 12217 H 377.137 -8.65116 0.777161 0
M  V30 12218 H 377.409 -6.90173 0.474152 0
M  V30 12219 H 376.541 -7.66548 2.79458 0
M  V30 12220 P 372.578 -8.03563 3.84925 0
M  V30 12221 O 372.358 -8.85821 5.0569 0
M  V30 12222 O 371.788 -8.41101 2.65469 0
M  V30 12223 O 372.328 -6.4965 4.18908 0
M  V30 12224 C 373.268 -5.81037 5.05421 0
M  V30 12225 C 372.538 -4.78366 5.89277 0
M  V30 12226 O 372.328 -3.58302 5.08433 0
M  V30 12227 C 371.138 -5.17448 6.36119 0
M  V30 12228 O 370.748 -4.45271 7.53232 0
M  V30 12229 C 370.258 -4.74639 5.19936 0
M  V30 12230 C 370.968 -3.49432 4.70418 0
M  V30 12231 N 370.918 -3.32099 3.22613 0
M  V30 12232 C 370.998 -4.28245 2.25527 0
M  V30 12233 N 370.928 -3.80823 1.04874 0
M  V30 12234 C 370.778 -2.44571 1.23535 0
M  V30 12235 C 370.648 -1.37068 0.330675 0
M  V30 12236 N 370.638 -1.51472 -0.990824 0
M  V30 12237 N 370.528 -0.138614 0.848756 0
M  V30 12238 C 370.538 0.00675923 2.16999 0
M  V30 12239 N 370.658 -0.904372 3.11122 0
M  V30 12240 C 370.778 -2.12707 2.56212 0
M  V30 12241 H 373.757 -6.54213 5.71376 0
M  V30 12242 H 374.029 -5.30936 4.43503 0
M  V30 12243 H 373.161 -4.55889 6.76652 0
M  V30 12244 H 370.506 -2.61715 5.17932 0
M  V30 12245 H 370.226 -5.52155 4.41878 0
M  V30 12246 H 369.235 -4.51981 5.53374 0
M  V30 12247 H 371.069 -6.25124 6.55234 0
M  V30 12248 H 371.11 -5.34372 2.47488 0
M  V30 12249 H 370.729 -2.45153 -1.4078 0
M  V30 12250 H 370.54 -0.688422 -1.59911 0
M  V30 12251 H 370.432 1.02584 2.52346 0
M  V30 12252 P 369.198 -4.23843 7.83734 0
M  V30 12253 O 368.978 -4.19407 9.29784 0
M  V30 12254 O 368.408 -5.24426 7.09156 0
M  V30 12255 O 368.948 -2.7935 7.20758 0
M  V30 12256 C 369.888 -1.7299 7.50419 0
M  V30 12257 C 369.158 -0.406376 7.57911 0
M  V30 12258 O 368.948 0.0897726 6.21935 0
M  V30 12259 C 367.758 -0.447224 8.1878 0
M  V30 12260 O 367.368 0.825065 8.71101 0
M  V30 12261 C 366.878 -0.783801 6.99623 0
M  V30 12262 C 367.588 -0.0619192 5.85967 0
M  V30 12263 N 367.538 -0.790462 4.56202 0
M  V30 12264 H 370.377 -1.93423 8.4679 0
M  V30 12265 H 370.649 -1.68852 6.70877 0
M  V30 12266 H 369.781 0.289041 8.15388 0
M  V30 12267 H 367.126 0.927006 5.72848 0
M  V30 12268 H 366.846 -1.86973 6.82036 0
M  V30 12269 H 365.855 -0.403953 7.13357 0
M  V30 12270 H 367.689 -1.20599 8.97534 0
M  V30 12271 P 365.818 1.17771 8.83182 0
M  V30 12272 O 365.598 2.07206 9.98732 0
M  V30 12273 O 365.028 -0.0743816 8.81969 0
M  V30 12274 O 365.568 1.97652 7.47304 0
M  V30 12275 C 366.508 3.01133 7.08783 0
M  V30 12276 C 365.778 4.12613 6.37049 0
M  V30 12277 O 365.568 3.72827 4.97879 0
M  V30 12278 C 364.378 4.45085 6.88694 0
M  V30 12279 O 363.988 5.7877 6.5624 0
M  V30 12280 C 363.498 3.47817 6.12078 0
M  V30 12281 C 364.208 3.39414 4.77697 0
M  V30 12282 N 364.158 2.04615 4.15333 0
M  V30 12283 H 366.997 3.41248 7.98759 0
M  V30 12284 H 367.269 2.5837 6.41742 0
M  V30 12285 H 366.401 5.02657 6.42673 0
M  V30 12286 P 362.438 6.144 6.45285 0
M  V30 12287 O 362.218 7.54673 6.86199 0
M  V30 12288 O 361.648 5.12391 7.179 0
M  V30 12289 O 362.188 5.99158 4.88404 0
M  V30 12290 C 363.128 6.60234 3.96415 0
M  V30 12291 C 362.398 7.08259 2.72856 0
M  V30 12292 O 362.188 5.9427 1.83651 0
M  V30 12293 C 360.998 7.64886 2.9555 0
M  V30 12294 O 360.608 8.53963 1.90717 0
M  V30 12295 C 360.118 6.4116 2.90739 0
M  V30 12296 C 360.828 5.55375 1.86963 0
M  V30 12297 N 360.778 4.09448 2.16152 0
M  V30 12298 H 363.617 7.45574 4.45629 0
M  V30 12299 H 363.889 5.85864 3.679 0
M  V30 12300 H 363.021 7.84412 2.24479 0
M  V30 12301 H 360.366 5.73457 0.888562 0
M  V30 12302 H 360.086 5.90877 3.88583 0
M  V30 12303 H 359.095 6.6596 2.58858 0
M  V30 12304 H 360.929 8.16339 3.92049 0
M  V30 12305 P 359.058 8.7635 1.60911 0
M  V30 12306 O 358.838 10.1388 1.11561 0
M  V30 12307 O 358.268 8.36503 2.79617 0
M  V30 12308 O 358.808 7.71806 0.42951 0
M  V30 12309 C 359.748 7.67148 -0.673689 0
M  V30 12310 C 359.018 7.33374 -1.95559 0
M  V30 12311 O 358.808 5.88721 -2.00726 0
M  V30 12312 C 357.618 7.92526 -2.10483 0
M  V30 12313 O 357.228 8.02971 -3.47653 0
M  V30 12314 C 356.738 6.89602 -1.41652 0
M  V30 12315 C 357.448 5.59201 -1.75185 0
M  V30 12316 N 357.398 4.58235 -0.662552 0
M  V30 12317 H 360.237 8.65116 -0.777161 0
M  V30 12318 H 360.509 6.90173 -0.474152 0
M  V30 12319 H 359.641 7.66548 -2.79458 0
M  V30 12320 P 355.678 8.03563 -3.84925 0
M  V30 12321 O 355.458 8.85821 -5.0569 0
M  V30 12322 O 354.888 8.41101 -2.65469 0
M  V30 12323 O 355.428 6.4965 -4.18908 0
M  V30 12324 C 356.368 5.80886 -5.05289 0
M  V30 12325 C 355.638 4.78366 -5.89277 0
M  V30 12326 O 355.428 3.58302 -5.08433 0
M  V30 12327 C 354.238 5.16748 -6.36559 0
M  V30 12328 O 353.848 4.45271 -7.53232 0
M  V30 12329 C 353.358 4.74572 -5.19863 0
M  V30 12330 C 354.068 3.49373 -4.70338 0
M  V30 12331 N 354.018 3.31704 -3.22876 0
M  V30 12332 C 353.868 2.03326 -2.74871 0
M  V30 12333 O 353.778 1.06486 -3.48076 0
M  V30 12334 N 353.828 1.91838 -1.37456 0
M  V30 12335 C 353.918 2.94295 -0.462035 0
M  V30 12336 C 354.068 4.25064 -1.05249 0
M  V30 12337 C 354.118 4.40214 -2.39192 0
M  V30 12338 H 356.859 6.54063 -5.71245 0
M  V30 12339 H 357.128 5.30339 -4.43905 0
M  V30 12340 H 356.261 4.55889 -6.76652 0
M  V30 12341 H 353.606 2.6167 -5.17842 0
M  V30 12342 H 353.327 5.52155 -4.41878 0
M  V30 12343 H 352.335 4.51918 -5.53297 0
M  V30 12344 H 354.169 6.25055 -6.55162 0
M  V30 12345 H 354.24 5.39798 -2.81523 0
M  V30 12346 P 352.298 4.23843 -7.83734 0
M  V30 12347 O 352.078 4.19407 -9.29784 0
M  V30 12348 O 351.508 5.24426 -7.09156 0
M  V30 12349 O 352.048 2.7935 -7.20758 0
M  V30 12350 C 352.988 1.7299 -7.50419 0
M  V30 12351 C 352.258 0.406376 -7.57911 0
M  V30 12352 O 352.048 -0.0897726 -6.21935 0
M  V30 12353 C 350.858 0.447224 -8.1878 0
M  V30 12354 O 350.468 -0.825065 -8.71101 0
M  V30 12355 C 349.978 0.783801 -6.99623 0
M  V30 12356 C 350.688 0.0619192 -5.85967 0
M  V30 12357 N 350.638 0.790462 -4.56202 0
M  V30 12358 H 353.477 1.93423 -8.4679 0
M  V30 12359 H 353.749 1.68852 -6.70877 0
M  V30 12360 H 352.881 -0.289041 -8.15388 0
M  V30 12361 H 350.226 -0.927006 -5.72848 0
M  V30 12362 H 349.946 1.86973 -6.82036 0
M  V30 12363 H 348.955 0.403953 -7.13357 0
M  V30 12364 H 350.789 1.20599 -8.97534 0
M  V30 12365 P 348.918 -1.17771 -8.83182 0
M  V30 12366 O 348.698 -2.07206 -9.98732 0
M  V30 12367 O 348.128 0.0743816 -8.81969 0
M  V30 12368 O 348.668 -1.97652 -7.47304 0
M  V30 12369 C 349.608 -3.01055 -7.08599 0
M  V30 12370 C 348.878 -4.12613 -6.37049 0
M  V30 12371 O 348.668 -3.72827 -4.97879 0
M  V30 12372 C 347.478 -4.45719 -6.88164 0
M  V30 12373 O 347.088 -5.7877 -6.5624 0
M  V30 12374 C 346.598 -3.47768 -6.11991 0
M  V30 12375 C 347.308 -3.39356 -4.77615 0
M  V30 12376 N 347.258 -2.04571 -4.15244 0
M  V30 12377 C 347.108 -1.98587 -2.78314 0
M  V30 12378 O 347.018 -2.98134 -2.08835 0
M  V30 12379 N 347.068 -0.714467 -2.24925 0
M  V30 12380 C 347.158 0.470001 -2.94169 0
M  V30 12381 C 347.308 0.312541 -4.36783 0
M  V30 12382 C 347.358 -0.914512 -4.92583 0
M  V30 12383 H 350.099 -3.41169 -7.98575 0
M  V30 12384 H 350.368 -2.58295 -6.41556 0
M  V30 12385 H 349.501 -5.02657 -6.42673 0
M  V30 12386 H 346.846 -4.11637 -4.08885 0
M  V30 12387 H 346.567 -2.49626 -6.61679 0
M  V30 12388 H 345.575 -3.86566 -6.00778 0
M  V30 12389 H 347.409 -4.29943 -7.96918 0
M  V30 12390 H 347.48 -1.00937 -6.00374 0
M  V30 12391 P 345.538 -6.144 -6.45285 0
M  V30 12392 O 345.318 -7.54673 -6.86199 0
M  V30 12393 O 344.748 -5.12391 -7.179 0
M  V30 12394 O 345.288 -5.99236 -4.88467 0
M  V30 12395 C 346.228 -6.60234 -3.96415 0
M  V30 12396 C 345.498 -7.08079 -2.736 0
M  V30 12397 O 345.288 -5.94365 -1.8368 0
M  V30 12398 C 344.098 -7.64886 -2.9555 0
M  V30 12399 O 343.708 -8.5406 -1.90739 0
M  V30 12400 C 343.218 -6.4116 -2.90739 0
M  V30 12401 C 343.928 -5.55375 -1.86963 0
M  V30 12402 N 343.878 -4.09664 -2.15742 0
M  V30 12403 C 343.728 -3.22231 -1.08477 0
M  V30 12404 O 343.638 -3.68951 0.0600489 0
M  V30 12405 N 343.678 -1.76692 -1.48799 0
M  V30 12406 C 343.778 -1.41695 -2.57602 0
M  V30 12407 N 343.728 -0.107296 -2.75791 0
M  V30 12408 C 343.928 -2.29178 -3.69733 0
M  V30 12409 C 343.978 -3.62753 -3.42653 0
M  V30 12410 H 346.718 -7.45488 -4.45578 0
M  V30 12411 H 346.988 -5.86232 -3.67314 0
M  V30 12412 H 346.121 -7.84508 -2.24507 0
M  V30 12413 H 343.466 -5.73556 -0.888715 0
M  V30 12414 H 343.186 -5.9096 -3.88638 0
M  V30 12415 H 342.195 -6.66053 -2.58894 0
M  V30 12416 H 344.029 -8.16339 -3.92049 0
M  V30 12417 H 344.101 -4.33052 -4.24913 0
M  V30 12418 H 343.999 -1.9103 -4.71577 0
M  V30 12419 H 343.611 0.521221 -1.95056 0
M  V30 12420 H 343.807 0.286429 -3.70695 0
M  V30 12421 P 342.158 -8.7635 -1.60911 0
M  V30 12422 O 341.938 -10.1388 -1.11561 0
M  V30 12423 O 341.368 -8.36503 -2.79617 0
M  V30 12424 O 341.908 -7.71806 -0.42951 0
M  V30 12425 C 342.848 -7.67148 0.673689 0
M  V30 12426 C 342.118 -7.33374 1.95559 0
M  V30 12427 O 341.908 -5.88721 2.00726 0
M  V30 12428 C 340.718 -7.92526 2.10483 0
M  V30 12429 O 340.328 -8.02971 3.47653 0
M  V30 12430 C 339.838 -6.89602 1.41652 0
M  V30 12431 C 340.548 -5.59201 1.75185 0
M  V30 12432 N 340.498 -4.58301 0.657969 0
M  V30 12433 H 343.337 -8.65116 0.777161 0
M  V30 12434 H 343.609 -6.9022 0.46725 0
M  V30 12435 H 342.741 -7.66548 2.79458 0
M  V30 12436 H 340.086 -5.16165 2.65183 0
M  V30 12437 H 339.806 -7.06433 0.329384 0
M  V30 12438 H 338.815 -6.90926 1.82021 0
M  V30 12439 H 340.649 -8.90873 1.62657 0
M  V30 12440 P 338.778 -8.03563 3.84925 0
M  V30 12441 O 338.558 -8.85821 5.0569 0
M  V30 12442 O 337.988 -8.41101 2.65469 0
M  V30 12443 O 338.528 -6.4965 4.18908 0
M  V30 12444 C 339.468 -5.80886 5.05289 0
M  V30 12445 C 338.738 -4.78366 5.89277 0
M  V30 12446 O 338.528 -3.58302 5.08433 0
M  V30 12447 C 337.338 -5.16748 6.36559 0
M  V30 12448 O 336.948 -4.45271 7.53232 0
M  V30 12449 C 336.458 -4.74572 5.19863 0
M  V30 12450 C 337.168 -3.49373 4.70338 0
M  V30 12451 N 337.118 -3.31704 3.22876 0
M  V30 12452 C 336.968 -2.03326 2.74871 0
M  V30 12453 O 336.878 -1.06486 3.48076 0
M  V30 12454 N 336.928 -1.91838 1.37456 0
M  V30 12455 C 337.018 -2.94295 0.462035 0
M  V30 12456 C 337.168 -4.25064 1.05249 0
M  V30 12457 C 337.218 -4.40214 2.39192 0
M  V30 12458 H 339.959 -6.54063 5.71245 0
M  V30 12459 H 340.228 -5.30339 4.43905 0
M  V30 12460 H 339.361 -4.55889 6.76652 0
M  V30 12461 H 336.706 -2.6167 5.17842 0
M  V30 12462 H 336.427 -5.52155 4.41878 0
M  V30 12463 H 335.435 -4.51918 5.53297 0
M  V30 12464 H 337.269 -6.25055 6.55162 0
M  V30 12465 H 337.34 -5.39798 2.81523 0
M  V30 12466 P 335.398 -4.23843 7.83734 0
M  V30 12467 O 335.178 -4.19407 9.29784 0
M  V30 12468 O 334.608 -5.24426 7.09156 0
M  V30 12469 O 335.148 -2.7935 7.20758 0
M  V30 12470 C 336.088 -1.7299 7.50419 0
M  V30 12471 C 335.358 -0.406376 7.57911 0
M  V30 12472 O 335.148 0.0897726 6.21935 0
M  V30 12473 C 333.958 -0.447224 8.1878 0
M  V30 12474 O 333.568 0.825065 8.71101 0
M  V30 12475 C 333.078 -0.783801 6.99623 0
M  V30 12476 C 333.788 -0.0619192 5.85967 0
M  V30 12477 N 333.738 -0.7859 4.56281 0
M  V30 12478 H 336.577 -1.93423 8.4679 0
M  V30 12479 H 336.849 -1.68181 6.71046 0
M  V30 12480 H 335.981 0.289041 8.15388 0
M  V30 12481 P 332.018 1.17771 8.83182 0
M  V30 12482 O 331.798 2.07206 9.98732 0
M  V30 12483 O 331.228 -0.0743816 8.81969 0
M  V30 12484 O 331.768 1.97652 7.47304 0
M  V30 12485 C 332.708 3.01133 7.08783 0
M  V30 12486 C 331.978 4.12613 6.37049 0
M  V30 12487 O 331.768 3.72827 4.97879 0
M  V30 12488 C 330.578 4.45085 6.88694 0
M  V30 12489 O 330.188 5.7877 6.5624 0
M  V30 12490 C 329.698 3.47817 6.12078 0
M  V30 12491 C 330.408 3.39414 4.77697 0
M  V30 12492 N 330.358 2.04615 4.15333 0
M  V30 12493 H 333.197 3.41248 7.98759 0
M  V30 12494 H 333.469 2.5837 6.41742 0
M  V30 12495 H 332.601 5.02657 6.42673 0
M  V30 12496 P 328.638 6.144 6.45285 0
M  V30 12497 O 328.418 7.54673 6.86199 0
M  V30 12498 O 327.848 5.12391 7.179 0
M  V30 12499 O 328.388 5.99158 4.88404 0
M  V30 12500 C 329.328 6.60234 3.96415 0
M  V30 12501 C 328.598 7.08259 2.72856 0
M  V30 12502 O 328.388 5.9427 1.83651 0
M  V30 12503 C 327.198 7.64886 2.9555 0
M  V30 12504 O 326.808 8.53963 1.90717 0
M  V30 12505 C 326.318 6.4116 2.90739 0
M  V30 12506 C 327.028 5.55375 1.86963 0
M  V30 12507 N 326.978 4.09664 2.15742 0
M  V30 12508 H 329.817 7.45574 4.45629 0
M  V30 12509 H 330.089 5.86232 3.67314 0
M  V30 12510 H 329.221 7.84412 2.24479 0
M  V30 12511 P 325.258 8.7635 1.60911 0
M  V30 12512 O 325.038 10.1388 1.11561 0
M  V30 12513 O 324.468 8.36503 2.79617 0
M  V30 12514 O 325.008 7.71806 0.42951 0
M  V30 12515 C 325.948 7.66948 -0.673514 0
M  V30 12516 C 325.218 7.33374 -1.95559 0
M  V30 12517 O 325.008 5.88721 -2.00726 0
M  V30 12518 C 323.818 7.92218 -2.1125 0
M  V30 12519 O 323.428 8.02971 -3.47653 0
M  V30 12520 C 322.938 6.89504 -1.41631 0
M  V30 12521 C 323.648 5.59106 -1.75155 0
M  V30 12522 N 323.598 4.58136 -0.662409 0
M  V30 12523 C 323.448 3.26059 -1.02863 0
M  V30 12524 O 323.358 2.90743 -2.19009 0
M  V30 12525 N 323.408 2.35995 0.0155585 0
M  V30 12526 C 323.498 2.65248 1.35603 0
M  V30 12527 C 323.648 4.05747 1.64698 0
M  V30 12528 C 323.698 4.96734 0.652411 0
M  V30 12529 H 326.439 8.64917 -0.776982 0
M  V30 12530 H 326.708 6.89974 -0.474015 0
M  V30 12531 H 325.841 7.66548 -2.79458 0
M  V30 12532 H 323.186 5.16076 -2.65138 0
M  V30 12533 H 322.907 7.06433 -0.329384 0
M  V30 12534 H 321.915 6.90829 -1.81996 0
M  V30 12535 H 323.749 8.90774 -1.62639 0
M  V30 12536 H 323.82 6.02181 0.895285 0
M  V30 12537 P 321.878 8.03563 -3.84925 0
M  V30 12538 O 321.658 8.85821 -5.0569 0
M  V30 12539 O 321.088 8.41101 -2.65469 0
M  V30 12540 O 321.628 6.4965 -4.18908 0
M  V30 12541 C 322.568 5.81037 -5.05421 0
M  V30 12542 C 321.838 4.78366 -5.89277 0
M  V30 12543 O 321.628 3.58302 -5.08433 0
M  V30 12544 C 320.438 5.17448 -6.36119 0
M  V30 12545 O 320.048 4.45271 -7.53232 0
M  V30 12546 C 319.558 4.74639 -5.19936 0
M  V30 12547 C 320.268 3.49432 -4.70418 0
M  V30 12548 N 320.218 3.31776 -3.22945 0
M  V30 12549 H 323.057 6.54213 -5.71376 0
M  V30 12550 H 323.329 5.30492 -4.44033 0
M  V30 12551 H 322.461 4.55889 -6.76652 0
M  V30 12552 P 318.498 4.23843 -7.83734 0
M  V30 12553 O 318.278 4.19407 -9.29784 0
M  V30 12554 O 317.708 5.24426 -7.09156 0
M  V30 12555 O 318.248 2.79386 -7.20852 0
M  V30 12556 C 319.188 1.7299 -7.50419 0
M  V30 12557 C 318.458 0.41401 -7.5797 0
M  V30 12558 O 318.248 -0.089787 -6.22035 0
M  V30 12559 C 317.058 0.447224 -8.1878 0
M  V30 12560 O 316.668 -0.825159 -8.71201 0
M  V30 12561 C 316.178 0.783801 -6.99623 0
M  V30 12562 C 316.888 0.0619192 -5.85967 0
M  V30 12563 N 316.838 0.7859 -4.56281 0
M  V30 12564 C 316.688 0.0359258 -3.39981 0
M  V30 12565 O 316.598 -1.19723 -3.49038 0
M  V30 12566 N 316.638 0.869151 -2.14025 0
M  V30 12567 C 316.738 2.01207 -2.14363 0
M  V30 12568 N 316.688 2.58978 -0.954287 0
M  V30 12569 C 316.888 2.80817 -3.32215 0
M  V30 12570 C 316.938 2.13785 -4.50884 0
M  V30 12571 H 319.678 1.93401 -8.46693 0
M  V30 12572 H 319.948 1.68181 -6.71046 0
M  V30 12573 H 319.081 -0.289076 -8.15488 0
M  V30 12574 H 316.426 -0.927166 -5.72947 0
M  V30 12575 H 316.146 1.87 -6.82132 0
M  V30 12576 H 315.155 0.404009 -7.13457 0
M  V30 12577 H 316.989 1.20599 -8.97534 0
M  V30 12578 H 317.061 2.70295 -5.43162 0
M  V30 12579 H 316.959 3.89465 -3.27406 0
M  V30 12580 H 316.571 2.01616 -0.107046 0
M  V30 12581 H 316.767 3.61403 -0.873101 0
M  V30 12582 P 315.118 -1.17771 -8.83182 0
M  V30 12583 O 314.898 -2.07206 -9.98732 0
M  V30 12584 O 314.328 0.0743816 -8.81969 0
M  V30 12585 O 314.868 -1.97652 -7.47304 0
M  V30 12586 C 315.808 -3.01133 -7.08783 0
M  V30 12587 C 315.078 -4.12613 -6.37049 0
M  V30 12588 O 314.868 -3.72827 -4.97879 0
M  V30 12589 C 313.678 -4.45085 -6.88694 0
M  V30 12590 O 313.288 -5.7877 -6.5624 0
M  V30 12591 C 312.798 -3.47817 -6.12078 0
M  V30 12592 C 313.508 -3.39414 -4.77697 0
M  V30 12593 N 313.458 -2.04615 -4.15333 0
M  V30 12594 H 316.297 -3.41248 -7.98759 0
M  V30 12595 H 316.569 -2.5837 -6.41742 0
M  V30 12596 H 315.701 -5.02657 -6.42673 0
M  V30 12597 P 311.738 -6.144 -6.45285 0
M  V30 12598 O 311.518 -7.54673 -6.86199 0
M  V30 12599 O 310.948 -5.12391 -7.179 0
M  V30 12600 O 311.488 -5.99158 -4.88404 0
M  V30 12601 C 312.428 -6.60234 -3.96415 0
M  V30 12602 C 311.698 -7.08259 -2.72856 0
M  V30 12603 O 311.488 -5.9427 -1.83651 0
M  V30 12604 C 310.298 -7.64886 -2.9555 0
M  V30 12605 O 309.908 -8.53963 -1.90717 0
M  V30 12606 C 309.418 -6.4116 -2.90739 0
M  V30 12607 C 310.128 -5.55375 -1.86963 0
M  V30 12608 N 310.078 -4.09664 -2.15742 0
M  V30 12609 H 312.917 -7.45574 -4.45629 0
M  V30 12610 H 313.189 -5.86232 -3.67314 0
M  V30 12611 H 312.321 -7.84412 -2.24479 0
M  V30 12612 P 308.358 -8.7635 -1.60911 0
M  V30 12613 O 308.138 -10.1388 -1.11561 0
M  V30 12614 O 307.568 -8.36503 -2.79617 0
M  V30 12615 O 308.108 -7.71806 -0.42951 0
M  V30 12616 C 309.048 -7.67148 0.673689 0
M  V30 12617 C 308.318 -7.33374 1.95559 0
M  V30 12618 O 308.108 -5.88721 2.00726 0
M  V30 12619 C 306.918 -7.92526 2.10483 0
M  V30 12620 O 306.528 -8.02971 3.47653 0
M  V30 12621 C 306.038 -6.89602 1.41652 0
M  V30 12622 C 306.748 -5.59201 1.75185 0
M  V30 12623 N 306.698 -4.58235 0.662552 0
M  V30 12624 H 309.537 -8.65116 0.777161 0
M  V30 12625 H 309.809 -6.90173 0.474152 0
M  V30 12626 H 308.941 -7.66548 2.79458 0
M  V30 12627 P 304.978 -8.03563 3.84925 0
M  V30 12628 O 304.758 -8.85821 5.0569 0
M  V30 12629 O 304.188 -8.41101 2.65469 0
M  V30 12630 O 304.728 -6.4965 4.18908 0
M  V30 12631 C 305.668 -5.81037 5.05421 0
M  V30 12632 C 304.938 -4.78366 5.89277 0
M  V30 12633 O 304.728 -3.58302 5.08433 0
M  V30 12634 C 303.538 -5.17448 6.36119 0
M  V30 12635 O 303.148 -4.45271 7.53232 0
M  V30 12636 C 302.658 -4.74639 5.19936 0
M  V30 12637 C 303.368 -3.49432 4.70418 0
M  V30 12638 N 303.318 -3.31776 3.22945 0
M  V30 12639 H 306.157 -6.54213 5.71376 0
M  V30 12640 H 306.429 -5.30492 4.44033 0
M  V30 12641 H 305.561 -4.55889 6.76652 0
M  V30 12642 P 301.598 -4.23843 7.83734 0
M  V30 12643 O 301.378 -4.19407 9.29784 0
M  V30 12644 O 300.808 -5.24426 7.09156 0
M  V30 12645 O 301.348 -2.7935 7.20758 0
M  V30 12646 C 302.288 -1.72945 7.50224 0
M  V30 12647 C 301.558 -0.406376 7.57911 0
M  V30 12648 O 301.348 0.0897726 6.21935 0
M  V30 12649 C 300.158 -0.438983 8.18724 0
M  V30 12650 O 299.768 0.825065 8.71101 0
M  V30 12651 C 299.278 -0.783689 6.99524 0
M  V30 12652 C 299.988 -0.0619086 5.85867 0
M  V30 12653 N 299.938 -0.78573 4.56183 0
M  V30 12654 C 299.788 -0.0292889 3.41887 0
M  V30 12655 O 299.698 1.18445 3.4419 0
M  V30 12656 N 299.748 -0.744061 2.23964 0
M  V30 12657 C 299.838 -2.10932 2.10362 0
M  V30 12658 O 299.788 -2.64117 0.98825 0
M  V30 12659 C 299.988 -2.8202 3.34994 0
M  V30 12660 C 300.098 -4.31095 3.25037 0
M  V30 12661 C 300.038 -2.15547 4.52261 0
M  V30 12662 H 302.779 -1.93379 8.46595 0
M  V30 12663 H 303.048 -1.68132 6.70852 0
M  V30 12664 H 302.181 0.289041 8.15388 0
M  V30 12665 H 299.526 0.926847 5.72749 0
M  V30 12666 H 299.247 -1.86973 6.82036 0
M  V30 12667 H 298.255 -0.403896 7.13257 0
M  V30 12668 H 300.089 -1.20585 8.97435 0
M  V30 12669 H 300.16 -2.71231 5.45042 0
M  V30 12670 H 299.13 -4.76966 3.49992 0
M  V30 12671 H 300.867 -4.67047 3.95024 0
M  V30 12672 H 300.379 -4.58996 2.22312 0
M  V30 12673 H 299.643 -0.214893 1.39758 0
M  V30 12674 P 298.218 1.17771 8.83182 0
M  V30 12675 O 297.998 2.07206 9.98732 0
M  V30 12676 O 297.428 -0.0743816 8.81969 0
M  V30 12677 O 297.968 1.97652 7.47304 0
M  V30 12678 C 298.908 3.01133 7.08783 0
M  V30 12679 C 298.178 4.12613 6.37049 0
M  V30 12680 O 297.968 3.72827 4.97879 0
M  V30 12681 C 296.778 4.45085 6.88694 0
M  V30 12682 O 296.388 5.7877 6.5624 0
M  V30 12683 C 295.898 3.47817 6.12078 0
M  V30 12684 C 296.608 3.39414 4.77697 0
M  V30 12685 N 296.558 2.04615 4.15333 0
M  V30 12686 H 299.397 3.41248 7.98759 0
M  V30 12687 H 299.669 2.5837 6.41742 0
M  V30 12688 H 298.801 5.02657 6.42673 0
M  V30 12689 P 294.838 6.144 6.45285 0
M  V30 12690 O 294.618 7.54673 6.86199 0
M  V30 12691 O 294.048 5.12391 7.179 0
M  V30 12692 O 294.588 5.99158 4.88404 0
M  V30 12693 C 295.528 6.60234 3.96415 0
M  V30 12694 C 294.798 7.08259 2.72856 0
M  V30 12695 O 294.588 5.9427 1.83651 0
M  V30 12696 C 293.398 7.64886 2.9555 0
M  V30 12697 O 293.008 8.53963 1.90717 0
M  V30 12698 C 292.518 6.4116 2.90739 0
M  V30 12699 C 293.228 5.55375 1.86963 0
M  V30 12700 N 293.178 4.09664 2.15742 0
M  V30 12701 H 296.017 7.45574 4.45629 0
M  V30 12702 H 296.289 5.86232 3.67314 0
M  V30 12703 H 295.421 7.84412 2.24479 0
M  V30 12704 P 291.458 8.7635 1.60911 0
M  V30 12705 O 291.238 10.1388 1.11561 0
M  V30 12706 O 290.668 8.36503 2.79617 0
M  V30 12707 O 291.208 7.71806 0.42951 0
M  V30 12708 C 292.148 7.66948 -0.673514 0
M  V30 12709 C 291.418 7.33374 -1.95559 0
M  V30 12710 O 291.208 5.88721 -2.00726 0
M  V30 12711 C 290.018 7.92218 -2.1125 0
M  V30 12712 O 289.628 8.02971 -3.47653 0
M  V30 12713 C 289.138 6.89504 -1.41631 0
M  V30 12714 C 289.848 5.59106 -1.75155 0
M  V30 12715 N 289.798 4.58136 -0.662409 0
M  V30 12716 C 289.648 3.26059 -1.02863 0
M  V30 12717 O 289.558 2.90743 -2.19009 0
M  V30 12718 N 289.608 2.35995 0.0155585 0
M  V30 12719 C 289.698 2.65248 1.35603 0
M  V30 12720 O 289.648 1.75605 2.20651 0
M  V30 12721 C 289.848 4.05747 1.64698 0
M  V30 12722 C 289.958 4.42345 3.09553 0
M  V30 12723 C 289.898 4.96734 0.652411 0
M  V30 12724 H 292.639 8.64917 -0.776982 0
M  V30 12725 H 292.908 6.89974 -0.474015 0
M  V30 12726 H 292.041 7.66548 -2.79458 0
M  V30 12727 H 289.386 5.16076 -2.65138 0
M  V30 12728 H 289.107 7.06433 -0.329384 0
M  V30 12729 H 288.115 6.90829 -1.81996 0
M  V30 12730 H 289.949 8.90774 -1.62639 0
M  V30 12731 H 290.02 6.02181 0.895285 0
M  V30 12732 H 288.99 4.80252 3.45468 0
M  V30 12733 H 290.727 5.20015 3.22119 0
M  V30 12734 H 290.239 3.53269 3.67833 0
M  V30 12735 H 289.503 1.39558 -0.227499 0
M  V30 12736 P 288.078 8.03563 -3.84925 0
M  V30 12737 O 287.858 8.85821 -5.0569 0
M  V30 12738 O 287.288 8.41101 -2.65469 0
M  V30 12739 O 287.828 6.49734 -4.18962 0
M  V30 12740 C 288.768 5.81037 -5.05421 0
M  V30 12741 C 288.038 4.79018 -5.88876 0
M  V30 12742 O 287.828 3.58359 -5.08515 0
M  V30 12743 C 286.638 5.17448 -6.36119 0
M  V30 12744 O 286.248 4.45322 -7.53318 0
M  V30 12745 C 285.758 4.74639 -5.19936 0
M  V30 12746 C 286.468 3.49432 -4.70418 0
M  V30 12747 N 286.418 3.31776 -3.22945 0
M  V30 12748 C 286.268 2.02742 -2.72939 0
M  V30 12749 O 286.178 1.08301 -3.52749 0
M  V30 12750 N 286.218 1.96117 -1.22063 0
M  V30 12751 C 286.318 2.8878 -0.551566 0
M  V30 12752 N 286.268 2.65609 0.750198 0
M  V30 12753 C 286.468 4.22457 -1.03707 0
M  V30 12754 C 286.518 4.37979 -2.39113 0
M  V30 12755 H 289.258 6.54138 -5.7131 0
M  V30 12756 H 289.528 5.30492 -4.44033 0
M  V30 12757 H 288.661 4.55945 -6.76735 0
M  V30 12758 H 286.006 2.6176 -5.18021 0
M  V30 12759 H 285.726 5.52233 -4.41941 0
M  V30 12760 H 284.735 4.52045 -5.53452 0
M  V30 12761 H 286.569 6.25124 -6.55234 0
M  V30 12762 H 286.641 5.37936 -2.80552 0
M  V30 12763 H 286.539 5.07528 -0.359553 0
M  V30 12764 H 286.151 1.69403 1.09847 0
M  V30 12765 H 286.347 3.43701 1.41792 0
M  V30 12766 P 284.698 4.23843 -7.83734 0
M  V30 12767 O 284.478 4.19407 -9.29784 0
M  V30 12768 O 283.908 5.24426 -7.09156 0
M  V30 12769 O 284.448 2.7935 -7.20758 0
M  V30 12770 C 285.388 1.7299 -7.50419 0
M  V30 12771 C 284.658 0.406376 -7.57911 0
M  V30 12772 O 284.448 -0.0897726 -6.21935 0
M  V30 12773 C 283.258 0.447224 -8.1878 0
M  V30 12774 O 282.868 -0.825065 -8.71101 0
M  V30 12775 C 282.378 0.783801 -6.99623 0
M  V30 12776 C 283.088 0.0619192 -5.85967 0
M  V30 12777 N 283.038 0.7859 -4.56281 0
M  V30 12778 H 285.877 1.93423 -8.4679 0
M  V30 12779 H 286.149 1.68181 -6.71046 0
M  V30 12780 H 285.281 -0.289041 -8.15388 0
M  V30 12781 P 281.318 -1.17771 -8.83182 0
M  V30 12782 O 281.098 -2.07206 -9.98732 0
M  V30 12783 O 280.528 0.0743816 -8.81969 0
M  V30 12784 O 281.068 -1.97652 -7.47304 0
M  V30 12785 C 282.008 -3.01133 -7.08783 0
M  V30 12786 C 281.278 -4.12613 -6.37049 0
M  V30 12787 O 281.068 -3.72827 -4.97879 0
M  V30 12788 C 279.878 -4.45085 -6.88694 0
M  V30 12789 O 279.488 -5.7877 -6.5624 0
M  V30 12790 C 278.998 -3.47817 -6.12078 0
M  V30 12791 C 279.708 -3.39414 -4.77697 0
M  V30 12792 N 279.658 -2.04615 -4.15333 0
M  V30 12793 H 282.497 -3.41248 -7.98759 0
M  V30 12794 H 282.769 -2.5837 -6.41742 0
M  V30 12795 H 281.901 -5.02657 -6.42673 0
M  V30 12796 P 277.938 -6.144 -6.45285 0
M  V30 12797 O 277.718 -7.54673 -6.86199 0
M  V30 12798 O 277.148 -5.12391 -7.179 0
M  V30 12799 O 277.688 -5.99158 -4.88404 0
M  V30 12800 C 278.628 -6.60234 -3.96415 0
M  V30 12801 C 277.898 -7.08259 -2.72856 0
M  V30 12802 O 277.688 -5.9427 -1.83651 0
M  V30 12803 C 276.498 -7.64886 -2.9555 0
M  V30 12804 O 276.108 -8.53963 -1.90717 0
M  V30 12805 C 275.618 -6.4116 -2.90739 0
M  V30 12806 C 276.328 -5.55375 -1.86963 0
M  V30 12807 N 276.278 -4.09664 -2.15742 0
M  V30 12808 H 279.117 -7.45574 -4.45629 0
M  V30 12809 H 279.389 -5.86232 -3.67314 0
M  V30 12810 H 278.521 -7.84412 -2.24479 0
M  V30 12811 P 274.558 -8.7635 -1.60911 0
M  V30 12812 O 274.338 -10.1388 -1.11561 0
M  V30 12813 O 273.768 -8.36503 -2.79617 0
M  V30 12814 O 274.308 -7.71906 -0.429565 0
M  V30 12815 C 275.248 -7.67148 0.673689 0
M  V30 12816 C 274.518 -7.33666 1.94851 0
M  V30 12817 O 274.308 -5.88816 2.00759 0
M  V30 12818 C 273.118 -7.92526 2.10483 0
M  V30 12819 O 272.728 -8.03063 3.47693 0
M  V30 12820 C 272.238 -6.89602 1.41652 0
M  V30 12821 C 272.948 -5.59201 1.75185 0
M  V30 12822 N 272.898 -4.58235 0.662552 0
M  V30 12823 C 272.748 -3.24451 1.01643 0
M  V30 12824 O 272.658 -2.94958 2.21722 0
M  V30 12825 N 272.698 -2.30408 -0.165238 0
M  V30 12826 C 272.798 -2.66048 -1.25118 0
M  V30 12827 N 272.748 -1.70787 -2.16813 0
M  V30 12828 C 272.948 -4.02732 -1.64413 0
M  V30 12829 C 272.998 -4.9488 -0.63991 0
M  V30 12830 H 275.738 -8.65017 0.777072 0
M  V30 12831 H 276.008 -6.90173 0.474152 0
M  V30 12832 H 275.141 -7.66642 2.79492 0
M  V30 12833 H 272.486 -5.16254 2.65229 0
M  V30 12834 H 272.206 -7.06532 0.329431 0
M  V30 12835 H 271.215 -6.91023 1.82047 0
M  V30 12836 H 273.049 -8.90873 1.62657 0
M  V30 12837 H 273.121 -6.00104 -0.892197 0
M  V30 12838 H 273.019 -4.31733 -2.69229 0
M  V30 12839 H 272.631 -0.724835 -1.8844 0
M  V30 12840 H 272.827 -1.94716 -3.16734 0
M  V30 12841 P 271.178 -8.03563 3.84925 0
M  V30 12842 O 270.958 -8.85821 5.0569 0
M  V30 12843 O 270.388 -8.41101 2.65469 0
M  V30 12844 O 270.928 -6.4965 4.18908 0
M  V30 12845 C 271.868 -5.80886 5.05289 0
M  V30 12846 C 271.138 -4.78366 5.89277 0
M  V30 12847 O 270.928 -3.58302 5.08433 0
M  V30 12848 C 269.738 -5.16748 6.36559 0
M  V30 12849 O 269.348 -4.45271 7.53232 0
M  V30 12850 C 268.858 -4.74572 5.19863 0
M  V30 12851 C 269.568 -3.49373 4.70338 0
M  V30 12852 N 269.518 -3.31704 3.22876 0
M  V30 12853 C 269.368 -2.03326 2.74871 0
M  V30 12854 O 269.278 -1.06486 3.48076 0
M  V30 12855 N 269.328 -1.91838 1.37456 0
M  V30 12856 C 269.418 -2.94295 0.462035 0
M  V30 12857 C 269.568 -4.25064 1.05249 0
M  V30 12858 C 269.618 -4.40214 2.39192 0
M  V30 12859 H 272.359 -6.54063 5.71245 0
M  V30 12860 H 272.628 -5.30339 4.43905 0
M  V30 12861 H 271.761 -4.55889 6.76652 0
M  V30 12862 H 269.106 -2.6167 5.17842 0
M  V30 12863 H 268.827 -5.52155 4.41878 0
M  V30 12864 H 267.835 -4.51918 5.53297 0
M  V30 12865 H 269.669 -6.25055 6.55162 0
M  V30 12866 H 269.74 -5.39798 2.81523 0
M  V30 12867 P 267.798 -4.23843 7.83734 0
M  V30 12868 O 267.578 -4.19407 9.29784 0
M  V30 12869 O 267.008 -5.24426 7.09156 0
M  V30 12870 O 267.548 -2.7935 7.20758 0
M  V30 12871 C 268.488 -1.7299 7.50419 0
M  V30 12872 C 267.758 -0.406376 7.57911 0
M  V30 12873 O 267.548 0.0897726 6.21935 0
M  V30 12874 C 266.358 -0.447224 8.1878 0
M  V30 12875 O 265.968 0.825065 8.71101 0
M  V30 12876 C 265.478 -0.783801 6.99623 0
M  V30 12877 C 266.188 -0.0619192 5.85967 0
M  V30 12878 N 266.138 -0.7859 4.56281 0
M  V30 12879 C 266.218 -2.14308 4.31736 0
M  V30 12880 N 266.138 -2.46106 3.05116 0
M  V30 12881 C 265.998 -1.23422 2.4014 0
M  V30 12882 C 265.868 -0.938381 1.02409 0
M  V30 12883 O 265.848 -1.70876 0.0650402 0
M  V30 12884 N 265.748 0.444647 0.805413 0
M  V30 12885 C 265.748 1.40829 1.79435 0
M  V30 12886 N 265.618 2.67213 1.38558 0
M  V30 12887 N 265.878 1.12947 3.09005 0
M  V30 12888 C 265.998 -0.204887 3.32369 0
M  V30 12889 H 268.977 -1.93423 8.4679 0
M  V30 12890 H 269.249 -1.68181 6.71046 0
M  V30 12891 H 268.381 0.289041 8.15388 0
M  V30 12892 H 265.726 0.927166 5.72947 0
M  V30 12893 H 265.446 -1.87 6.82132 0
M  V30 12894 H 264.455 -0.404009 7.13457 0
M  V30 12895 H 266.289 -1.20612 8.97633 0
M  V30 12896 H 266.338 -2.88284 5.10874 0
M  V30 12897 H 265.656 0.755087 -0.140242 0
M  V30 12898 H 265.619 3.43967 2.0729 0
M  V30 12899 H 265.518 2.88096 0.380644 0
M  V30 12900 P 264.418 1.17771 8.83182 0
M  V30 12901 O 264.198 2.07206 9.98732 0
M  V30 12902 O 263.628 -0.0743816 8.81969 0
M  V30 12903 O 264.168 1.97652 7.47304 0
M  V30 12904 C 265.108 3.01133 7.08783 0
M  V30 12905 C 264.378 4.12613 6.37049 0
M  V30 12906 O 264.168 3.72827 4.97879 0
M  V30 12907 C 262.978 4.45085 6.88694 0
M  V30 12908 O 262.588 5.7877 6.5624 0
M  V30 12909 C 262.098 3.47817 6.12078 0
M  V30 12910 C 262.808 3.39414 4.77697 0
M  V30 12911 N 262.758 2.04615 4.15333 0
M  V30 12912 H 265.597 3.41248 7.98759 0
M  V30 12913 H 265.869 2.5837 6.41742 0
M  V30 12914 H 265.001 5.02657 6.42673 0
M  V30 12915 P 261.038 6.144 6.45285 0
M  V30 12916 O 260.818 7.54673 6.86199 0
M  V30 12917 O 260.248 5.12391 7.179 0
M  V30 12918 O 260.788 5.99158 4.88404 0
M  V30 12919 C 261.728 6.60234 3.96415 0
M  V30 12920 C 260.998 7.08259 2.72856 0
M  V30 12921 O 260.788 5.9427 1.83651 0
M  V30 12922 C 259.598 7.64886 2.9555 0
M  V30 12923 O 259.208 8.53963 1.90717 0
M  V30 12924 C 258.718 6.4116 2.90739 0
M  V30 12925 C 259.428 5.55375 1.86963 0
M  V30 12926 N 259.378 4.09448 2.16152 0
M  V30 12927 H 262.217 7.45574 4.45629 0
M  V30 12928 H 262.489 5.85864 3.679 0
M  V30 12929 H 261.621 7.84412 2.24479 0
M  V30 12930 H 258.966 5.73457 0.888562 0
M  V30 12931 H 258.686 5.90877 3.88583 0
M  V30 12932 H 257.695 6.6596 2.58858 0
M  V30 12933 H 259.529 8.16339 3.92049 0
M  V30 12934 P 257.658 8.7635 1.60911 0
M  V30 12935 O 257.438 10.1388 1.11561 0
M  V30 12936 O 256.868 8.36503 2.79617 0
M  V30 12937 O 257.408 7.71806 0.42951 0
M  V30 12938 C 258.348 7.67148 -0.673689 0
M  V30 12939 C 257.618 7.33374 -1.95559 0
M  V30 12940 O 257.408 5.88721 -2.00726 0
M  V30 12941 C 256.218 7.92526 -2.10483 0
M  V30 12942 O 255.828 8.02971 -3.47653 0
M  V30 12943 C 255.338 6.89602 -1.41652 0
M  V30 12944 C 256.048 5.59201 -1.75185 0
M  V30 12945 N 255.998 4.58235 -0.662552 0
M  V30 12946 H 258.837 8.65116 -0.777161 0
M  V30 12947 H 259.109 6.90173 -0.474152 0
M  V30 12948 H 258.241 7.66548 -2.79458 0
M  V30 12949 P 254.279 8.03563 -3.84925 0
M  V30 12950 O 254.059 8.85821 -5.0569 0
M  V30 12951 O 253.489 8.41101 -2.65469 0
M  V30 12952 O 254.029 6.4965 -4.18908 0
M  V30 12953 C 254.969 5.81037 -5.05421 0
M  V30 12954 C 254.239 4.78366 -5.89277 0
M  V30 12955 O 254.029 3.58302 -5.08433 0
M  V30 12956 C 252.839 5.17448 -6.36119 0
M  V30 12957 O 252.449 4.45271 -7.53232 0
M  V30 12958 C 251.959 4.74639 -5.19936 0
M  V30 12959 C 252.669 3.49432 -4.70418 0
M  V30 12960 N 252.619 3.31776 -3.22945 0
M  V30 12961 H 255.458 6.54213 -5.71376 0
M  V30 12962 H 255.73 5.30492 -4.44033 0
M  V30 12963 H 254.862 4.55889 -6.76652 0
M  V30 12964 P 250.899 4.23843 -7.83734 0
M  V30 12965 O 250.679 4.19407 -9.29784 0
M  V30 12966 O 250.109 5.24426 -7.09156 0
M  V30 12967 O 250.649 2.7935 -7.20758 0
M  V30 12968 C 251.589 1.7299 -7.50419 0
M  V30 12969 C 250.859 0.406376 -7.57911 0
M  V30 12970 O 250.649 -0.0897726 -6.21935 0
M  V30 12971 C 249.459 0.447224 -8.1878 0
M  V30 12972 O 249.069 -0.825065 -8.71101 0
M  V30 12973 C 248.579 0.783801 -6.99623 0
M  V30 12974 C 249.289 0.0619192 -5.85967 0
M  V30 12975 N 249.239 0.790462 -4.56202 0
M  V30 12976 H 252.078 1.93423 -8.4679 0
M  V30 12977 H 252.35 1.68852 -6.70877 0
M  V30 12978 H 251.482 -0.289041 -8.15388 0
M  V30 12979 H 248.827 -0.927006 -5.72848 0
M  V30 12980 H 248.547 1.86973 -6.82036 0
M  V30 12981 H 247.556 0.403953 -7.13357 0
M  V30 12982 H 249.39 1.20599 -8.97534 0
M  V30 12983 P 247.519 -1.17771 -8.83182 0
M  V30 12984 O 247.299 -2.07206 -9.98732 0
M  V30 12985 O 246.729 0.0743816 -8.81969 0
M  V30 12986 O 247.269 -1.97652 -7.47304 0
M  V30 12987 C 248.209 -3.01055 -7.08599 0
M  V30 12988 C 247.479 -4.12613 -6.37049 0
M  V30 12989 O 247.269 -3.72827 -4.97879 0
M  V30 12990 C 246.079 -4.45719 -6.88164 0
M  V30 12991 O 245.689 -5.7877 -6.5624 0
M  V30 12992 C 245.199 -3.47768 -6.11991 0
M  V30 12993 C 245.909 -3.39356 -4.77615 0
M  V30 12994 N 245.859 -2.04571 -4.15244 0
M  V30 12995 C 245.709 -1.98587 -2.78314 0
M  V30 12996 O 245.619 -2.98134 -2.08835 0
M  V30 12997 N 245.669 -0.714467 -2.24925 0
M  V30 12998 C 245.759 0.470001 -2.94169 0
M  V30 12999 C 245.909 0.312541 -4.36783 0
M  V30 13000 C 245.959 -0.914512 -4.92583 0
M  V30 13001 H 248.7 -3.41169 -7.98575 0
M  V30 13002 H 248.969 -2.58295 -6.41556 0
M  V30 13003 H 248.102 -5.02657 -6.42673 0
M  V30 13004 H 245.447 -4.11637 -4.08885 0
M  V30 13005 H 245.168 -2.49626 -6.61679 0
M  V30 13006 H 244.176 -3.86566 -6.00778 0
M  V30 13007 H 246.01 -4.29943 -7.96918 0
M  V30 13008 H 246.081 -1.00937 -6.00374 0
M  V30 13009 P 244.139 -6.144 -6.45285 0
M  V30 13010 O 243.919 -7.54673 -6.86199 0
M  V30 13011 O 243.349 -5.12391 -7.179 0
M  V30 13012 O 243.889 -5.99158 -4.88404 0
M  V30 13013 C 244.829 -6.60062 -3.96313 0
M  V30 13014 C 244.099 -7.08259 -2.72856 0
M  V30 13015 O 243.889 -5.9427 -1.83651 0
M  V30 13016 C 242.699 -7.65087 -2.94749 0
M  V30 13017 O 242.309 -8.53963 -1.90717 0
M  V30 13018 C 241.819 -6.41069 -2.90698 0
M  V30 13019 C 242.529 -5.5528 -1.86931 0
M  V30 13020 N 242.479 -4.09575 -2.15696 0
M  V30 13021 C 242.329 -3.24249 -1.08435 0
M  V30 13022 O 242.239 -3.63946 0.0628747 0
M  V30 13023 N 242.289 -1.90009 -1.39973 0
M  V30 13024 C 242.379 -1.34884 -2.65614 0
M  V30 13025 O 242.329 -0.123716 -2.81728 0
M  V30 13026 C 242.529 -2.3145 -3.71736 0
M  V30 13027 C 242.639 -1.75913 -5.10438 0
M  V30 13028 C 242.579 -3.63518 -3.44754 0
M  V30 13029 H 245.32 -7.45402 -4.45526 0
M  V30 13030 H 245.589 -5.86062 -3.67208 0
M  V30 13031 H 244.722 -7.84412 -2.24479 0
M  V30 13032 H 242.067 -5.73358 -0.888409 0
M  V30 13033 H 241.788 -5.90877 -3.88583 0
M  V30 13034 H 240.796 -6.65867 -2.58821 0
M  V30 13035 H 242.63 -8.16248 -3.92006 0
M  V30 13036 H 242.701 -4.34551 -4.26383 0
M  V30 13037 H 241.671 -1.85471 -5.61775 0
M  V30 13038 H 243.408 -2.31364 -5.66257 0
M  V30 13039 H 242.92 -0.695936 -5.05229 0
M  V30 13040 H 242.184 -1.26277 -0.63625 0
M  V30 13041 P 240.759 -8.7635 -1.60911 0
M  V30 13042 O 240.539 -10.1388 -1.11561 0
M  V30 13043 O 239.969 -8.36503 -2.79617 0
M  V30 13044 O 240.509 -7.71806 -0.42951 0
M  V30 13045 C 241.449 -7.67148 0.673689 0
M  V30 13046 C 240.719 -7.33374 1.95559 0
M  V30 13047 O 240.509 -5.88721 2.00726 0
M  V30 13048 C 239.319 -7.92526 2.10483 0
M  V30 13049 O 238.929 -8.02971 3.47653 0
M  V30 13050 C 238.439 -6.89602 1.41652 0
M  V30 13051 C 239.149 -5.59201 1.75185 0
M  V30 13052 N 239.099 -4.58235 0.662552 0
M  V30 13053 H 241.938 -8.65116 0.777161 0
M  V30 13054 H 242.21 -6.90173 0.474152 0
M  V30 13055 H 241.342 -7.66548 2.79458 0
M  V30 13056 P 237.379 -8.03563 3.84925 0
M  V30 13057 O 237.159 -8.85821 5.0569 0
M  V30 13058 O 236.589 -8.41101 2.65469 0
M  V30 13059 O 237.129 -6.4965 4.18908 0
M  V30 13060 C 238.069 -5.81037 5.05421 0
M  V30 13061 C 237.339 -4.78366 5.89277 0
M  V30 13062 O 237.129 -3.58302 5.08433 0
M  V30 13063 C 235.939 -5.17448 6.36119 0
M  V30 13064 O 235.549 -4.45271 7.53232 0
M  V30 13065 C 235.059 -4.74639 5.19936 0
M  V30 13066 C 235.769 -3.49432 4.70418 0
M  V30 13067 N 235.719 -3.31776 3.22945 0
M  V30 13068 H 238.558 -6.54213 5.71376 0
M  V30 13069 H 238.83 -5.30492 4.44033 0
M  V30 13070 H 237.962 -4.55889 6.76652 0
M  V30 13071 P 233.999 -4.23843 7.83734 0
M  V30 13072 O 233.779 -4.19407 9.29784 0
M  V30 13073 O 233.209 -5.24426 7.09156 0
M  V30 13074 O 233.749 -2.7935 7.20758 0
M  V30 13075 C 234.689 -1.7299 7.50419 0
M  V30 13076 C 233.959 -0.406376 7.57911 0
M  V30 13077 O 233.749 0.0897726 6.21935 0
M  V30 13078 C 232.559 -0.447224 8.1878 0
M  V30 13079 O 232.169 0.825065 8.71101 0
M  V30 13080 C 231.679 -0.783801 6.99623 0
M  V30 13081 C 232.389 -0.0619192 5.85967 0
M  V30 13082 N 232.339 -0.790462 4.56202 0
M  V30 13083 C 232.419 -2.13895 4.34171 0
M  V30 13084 N 232.349 -2.46449 3.08687 0
M  V30 13085 C 232.199 -1.2525 2.43697 0
M  V30 13086 C 232.069 -0.914535 1.07318 0
M  V30 13087 N 232.059 -1.80782 0.0887348 0
M  V30 13088 N 231.949 0.386745 0.768133 0
M  V30 13089 C 231.959 1.28096 1.75159 0
M  V30 13090 N 232.079 1.09708 3.04861 0
M  V30 13091 C 232.199 -0.214857 3.32306 0
M  V30 13092 H 235.178 -1.93423 8.4679 0
M  V30 13093 H 235.45 -1.68852 6.70877 0
M  V30 13094 H 234.582 0.289041 8.15388 0
M  V30 13095 H 231.927 0.927006 5.72848 0
M  V30 13096 H 231.647 -1.86973 6.82036 0
M  V30 13097 H 230.656 -0.403953 7.13357 0
M  V30 13098 H 232.49 -1.20599 8.97534 0
M  V30 13099 H 232.531 -2.86846 5.14318 0
M  V30 13100 H 232.15 -2.81082 0.302037 0
M  V30 13101 H 231.961 -1.49688 -0.889064 0
M  V30 13102 H 231.853 2.31317 1.43855 0
M  V30 13103 P 230.619 1.17771 8.83182 0
M  V30 13104 O 230.399 2.07206 9.98732 0
M  V30 13105 O 229.829 -0.0743816 8.81969 0
M  V30 13106 O 230.369 1.97652 7.47304 0
M  V30 13107 C 231.309 3.01133 7.08783 0
M  V30 13108 C 230.579 4.12613 6.37049 0
M  V30 13109 O 230.369 3.72827 4.97879 0
M  V30 13110 C 229.179 4.45085 6.88694 0
M  V30 13111 O 228.789 5.7877 6.5624 0
M  V30 13112 C 228.299 3.47817 6.12078 0
M  V30 13113 C 229.009 3.39414 4.77697 0
M  V30 13114 N 228.959 2.04199 4.15538 0
M  V30 13115 C 229.039 0.821545 4.76977 0
M  V30 13116 N 228.969 -0.1794 3.94592 0
M  V30 13117 C 228.819 0.419121 2.70776 0
M  V30 13118 C 228.689 -0.109072 1.40577 0
M  V30 13119 N 228.679 -1.4104 1.1344 0
M  V30 13120 N 228.569 0.764381 0.39411 0
M  V30 13121 C 228.579 2.06587 0.664135 0
M  V30 13122 N 228.699 2.67948 1.82153 0
M  V30 13123 C 228.819 1.77942 2.8147 0
M  V30 13124 H 231.798 3.41248 7.98759 0
M  V30 13125 H 232.07 2.57728 6.42 0
M  V30 13126 H 231.202 5.02657 6.42673 0
M  V30 13127 H 228.547 4.11708 4.08956 0
M  V30 13128 H 228.267 2.49626 6.61679 0
M  V30 13129 H 227.276 3.8662 6.00862 0
M  V30 13130 H 229.11 4.29991 7.97006 0
M  V30 13131 H 229.151 0.702451 5.84696 0
M  V30 13132 H 228.77 -2.09647 1.89651 0
M  V30 13133 H 228.581 -1.73358 0.160575 0
M  V30 13134 H 228.473 2.71695 -0.195838 0
M  V30 13135 P 227.239 6.144 6.45285 0
M  V30 13136 O 227.019 7.54673 6.86199 0
M  V30 13137 O 226.449 5.12391 7.179 0
M  V30 13138 O 226.989 5.99158 4.88404 0
M  V30 13139 C 227.929 6.60062 3.96313 0
M  V30 13140 C 227.199 7.08259 2.72856 0
M  V30 13141 O 226.989 5.9427 1.83651 0
M  V30 13142 C 225.799 7.65087 2.94749 0
M  V30 13143 O 225.409 8.53963 1.90717 0
M  V30 13144 C 224.919 6.41069 2.90698 0
M  V30 13145 C 225.629 5.5528 1.86931 0
M  V30 13146 N 225.579 4.09575 2.15696 0
M  V30 13147 C 225.429 3.24249 1.08435 0
M  V30 13148 O 225.339 3.63946 -0.0628747 0
M  V30 13149 N 225.389 1.90009 1.39973 0
M  V30 13150 C 225.479 1.34884 2.65614 0
M  V30 13151 O 225.429 0.123716 2.81728 0
M  V30 13152 C 225.629 2.3145 3.71736 0
M  V30 13153 C 225.739 1.75913 5.10438 0
M  V30 13154 C 225.679 3.63518 3.44754 0
M  V30 13155 H 228.42 7.45402 4.45526 0
M  V30 13156 H 228.689 5.86062 3.67208 0
M  V30 13157 H 227.822 7.84412 2.24479 0
M  V30 13158 H 225.167 5.73358 0.888409 0
M  V30 13159 H 224.888 5.90877 3.88583 0
M  V30 13160 H 223.896 6.65867 2.58821 0
M  V30 13161 H 225.73 8.16248 3.92006 0
M  V30 13162 H 225.801 4.34551 4.26383 0
M  V30 13163 H 224.771 1.85471 5.61775 0
M  V30 13164 H 226.508 2.31364 5.66257 0
M  V30 13165 H 226.02 0.695936 5.05229 0
M  V30 13166 H 225.284 1.26277 0.63625 0
M  V30 13167 P 223.859 8.7635 1.60911 0
M  V30 13168 O 223.639 10.1388 1.11561 0
M  V30 13169 O 223.069 8.36503 2.79617 0
M  V30 13170 O 223.609 7.71906 0.429565 0
M  V30 13171 C 224.549 7.67148 -0.673689 0
M  V30 13172 C 223.819 7.33666 -1.94851 0
M  V30 13173 O 223.609 5.88816 -2.00759 0
M  V30 13174 C 222.419 7.92526 -2.10483 0
M  V30 13175 O 222.029 8.03063 -3.47693 0
M  V30 13176 C 221.539 6.89602 -1.41652 0
M  V30 13177 C 222.249 5.59201 -1.75185 0
M  V30 13178 N 222.199 4.58235 -0.662552 0
M  V30 13179 C 222.049 3.24451 -1.01643 0
M  V30 13180 O 221.959 2.94958 -2.21722 0
M  V30 13181 N 221.999 2.30408 0.165238 0
M  V30 13182 C 222.099 2.66048 1.25118 0
M  V30 13183 N 222.049 1.70787 2.16813 0
M  V30 13184 C 222.249 4.02732 1.64413 0
M  V30 13185 C 222.299 4.9488 0.63991 0
M  V30 13186 H 225.039 8.65017 -0.777072 0
M  V30 13187 H 225.309 6.90173 -0.474152 0
M  V30 13188 H 224.442 7.66642 -2.79492 0
M  V30 13189 H 221.787 5.16254 -2.65229 0
M  V30 13190 H 221.507 7.06532 -0.329431 0
M  V30 13191 H 220.516 6.91023 -1.82047 0
M  V30 13192 H 222.35 8.90873 -1.62657 0
M  V30 13193 H 222.422 6.00104 0.892197 0
M  V30 13194 H 222.32 4.31733 2.69229 0
M  V30 13195 H 221.932 0.724835 1.8844 0
M  V30 13196 H 222.128 1.94716 3.16734 0
M  V30 13197 P 220.479 8.03563 -3.84925 0
M  V30 13198 O 220.259 8.85821 -5.0569 0
M  V30 13199 O 219.689 8.41101 -2.65469 0
M  V30 13200 O 220.229 6.4965 -4.18908 0
M  V30 13201 C 221.169 5.81037 -5.05421 0
M  V30 13202 C 220.439 4.78366 -5.89277 0
M  V30 13203 O 220.229 3.58302 -5.08433 0
M  V30 13204 C 219.039 5.17448 -6.36119 0
M  V30 13205 O 218.649 4.45271 -7.53232 0
M  V30 13206 C 218.159 4.74639 -5.19936 0
M  V30 13207 C 218.869 3.49432 -4.70418 0
M  V30 13208 N 218.819 3.31776 -3.22945 0
M  V30 13209 H 221.658 6.54213 -5.71376 0
M  V30 13210 H 221.93 5.30492 -4.44033 0
M  V30 13211 H 221.062 4.55889 -6.76652 0
M  V30 13212 P 217.099 4.23843 -7.83734 0
M  V30 13213 O 216.879 4.19407 -9.29784 0
M  V30 13214 O 216.309 5.24426 -7.09156 0
M  V30 13215 O 216.849 2.7935 -7.20758 0
M  V30 13216 C 217.789 1.7299 -7.50419 0
M  V30 13217 C 217.059 0.406376 -7.57911 0
M  V30 13218 O 216.849 -0.0897726 -6.21935 0
M  V30 13219 C 215.659 0.447224 -8.1878 0
M  V30 13220 O 215.269 -0.825065 -8.71101 0
M  V30 13221 C 214.779 0.783801 -6.99623 0
M  V30 13222 C 215.489 0.0619192 -5.85967 0
M  V30 13223 N 215.439 0.7859 -4.56281 0
M  V30 13224 H 218.278 1.93423 -8.4679 0
M  V30 13225 H 218.55 1.68181 -6.71046 0
M  V30 13226 H 217.682 -0.289041 -8.15388 0
M  V30 13227 P 213.719 -1.17771 -8.83182 0
M  V30 13228 O 213.499 -2.07206 -9.98732 0
M  V30 13229 O 212.929 0.0743816 -8.81969 0
M  V30 13230 O 213.469 -1.97652 -7.47304 0
M  V30 13231 C 214.409 -3.01133 -7.08783 0
M  V30 13232 C 213.679 -4.12613 -6.37049 0
M  V30 13233 O 213.469 -3.72827 -4.97879 0
M  V30 13234 C 212.279 -4.45085 -6.88694 0
M  V30 13235 O 211.889 -5.7877 -6.5624 0
M  V30 13236 C 211.399 -3.47817 -6.12078 0
M  V30 13237 C 212.109 -3.39414 -4.77697 0
M  V30 13238 N 212.059 -2.04615 -4.15333 0
M  V30 13239 H 214.898 -3.41248 -7.98759 0
M  V30 13240 H 215.17 -2.5837 -6.41742 0
M  V30 13241 H 214.302 -5.02657 -6.42673 0
M  V30 13242 P 210.339 -6.144 -6.45285 0
M  V30 13243 O 210.119 -7.54673 -6.86199 0
M  V30 13244 O 209.549 -5.12391 -7.179 0
M  V30 13245 O 210.089 -5.99158 -4.88404 0
M  V30 13246 C 211.029 -6.60234 -3.96415 0
M  V30 13247 C 210.299 -7.08259 -2.72856 0
M  V30 13248 O 210.089 -5.9427 -1.83651 0
M  V30 13249 C 208.899 -7.64886 -2.9555 0
M  V30 13250 O 208.509 -8.53963 -1.90717 0
M  V30 13251 C 208.019 -6.4116 -2.90739 0
M  V30 13252 C 208.729 -5.55375 -1.86963 0
M  V30 13253 N 208.679 -4.09664 -2.15742 0
M  V30 13254 H 211.518 -7.45574 -4.45629 0
M  V30 13255 H 211.79 -5.86232 -3.67314 0
M  V30 13256 H 210.922 -7.84412 -2.24479 0
M  V30 13257 P 206.959 -8.7635 -1.60911 0
M  V30 13258 O 206.739 -10.1388 -1.11561 0
M  V30 13259 O 206.169 -8.36503 -2.79617 0
M  V30 13260 O 206.709 -7.71806 -0.42951 0
M  V30 13261 C 207.649 -7.67148 0.673689 0
M  V30 13262 C 206.919 -7.33374 1.95559 0
M  V30 13263 O 206.709 -5.88721 2.00726 0
M  V30 13264 C 205.519 -7.92526 2.10483 0
M  V30 13265 O 205.129 -8.02971 3.47653 0
M  V30 13266 C 204.639 -6.89602 1.41652 0
M  V30 13267 C 205.349 -5.59201 1.75185 0
M  V30 13268 N 205.299 -4.58235 0.662552 0
M  V30 13269 H 208.138 -8.65116 0.777161 0
M  V30 13270 H 208.41 -6.90173 0.474152 0
M  V30 13271 H 207.542 -7.66548 2.79458 0
M  V30 13272 P 203.579 -8.03563 3.84925 0
M  V30 13273 O 203.359 -8.85821 5.0569 0
M  V30 13274 O 202.789 -8.41101 2.65469 0
M  V30 13275 O 203.329 -6.4965 4.18908 0
M  V30 13276 C 204.269 -5.81037 5.05421 0
M  V30 13277 C 203.539 -4.78366 5.89277 0
M  V30 13278 O 203.329 -3.58302 5.08433 0
M  V30 13279 C 202.139 -5.17448 6.36119 0
M  V30 13280 O 201.749 -4.45271 7.53232 0
M  V30 13281 C 201.259 -4.74639 5.19936 0
M  V30 13282 C 201.969 -3.49432 4.70418 0
M  V30 13283 N 201.919 -3.31776 3.22945 0
M  V30 13284 H 204.758 -6.54213 5.71376 0
M  V30 13285 H 205.03 -5.30492 4.44033 0
M  V30 13286 H 204.162 -4.55889 6.76652 0
M  V30 13287 P 200.199 -4.23843 7.83734 0
M  V30 13288 O 199.979 -4.19407 9.29784 0
M  V30 13289 O 199.409 -5.24426 7.09156 0
M  V30 13290 O 199.949 -2.7935 7.20758 0
M  V30 13291 C 200.889 -1.7299 7.50419 0
M  V30 13292 C 200.159 -0.406376 7.57911 0
M  V30 13293 O 199.949 0.0897726 6.21935 0
M  V30 13294 C 198.759 -0.447224 8.1878 0
M  V30 13295 O 198.369 0.825065 8.71101 0
M  V30 13296 C 197.879 -0.783801 6.99623 0
M  V30 13297 C 198.589 -0.0619192 5.85967 0
M  V30 13298 N 198.539 -0.7859 4.56281 0
M  V30 13299 H 201.378 -1.93423 8.4679 0
M  V30 13300 H 201.65 -1.68181 6.71046 0
M  V30 13301 H 200.782 0.289041 8.15388 0
M  V30 13302 P 196.819 1.17771 8.83182 0
M  V30 13303 O 196.599 2.07206 9.98732 0
M  V30 13304 O 196.029 -0.0743816 8.81969 0
M  V30 13305 O 196.569 1.97652 7.47304 0
M  V30 13306 C 197.509 3.01055 7.08599 0
M  V30 13307 C 196.779 4.12613 6.37049 0
M  V30 13308 O 196.569 3.72827 4.97879 0
M  V30 13309 C 195.379 4.45719 6.88164 0
M  V30 13310 O 194.989 5.7877 6.5624 0
M  V30 13311 C 194.499 3.47768 6.11991 0
M  V30 13312 C 195.209 3.39356 4.77615 0
M  V30 13313 N 195.159 2.04571 4.15244 0
M  V30 13314 C 195.009 1.98587 2.78314 0
M  V30 13315 O 194.919 2.98134 2.08835 0
M  V30 13316 N 194.969 0.714467 2.24925 0
M  V30 13317 C 195.059 -0.470001 2.94169 0
M  V30 13318 O 195.009 -1.55587 2.35195 0
M  V30 13319 C 195.209 -0.312541 4.36783 0
M  V30 13320 C 195.319 -1.57711 5.16352 0
M  V30 13321 C 195.259 0.914512 4.92583 0
M  V30 13322 H 198 3.41169 7.98575 0
M  V30 13323 H 198.269 2.58295 6.41556 0
M  V30 13324 H 197.402 5.02657 6.42673 0
M  V30 13325 H 194.747 4.11637 4.08885 0
M  V30 13326 H 194.468 2.49626 6.61679 0
M  V30 13327 H 193.476 3.86566 6.00778 0
M  V30 13328 H 195.31 4.29943 7.96918 0
M  V30 13329 H 195.381 1.00937 6.00374 0
M  V30 13330 H 194.351 -1.80153 5.63503 0
M  V30 13331 H 196.088 -1.4566 5.94104 0
M  V30 13332 H 195.6 -2.40664 4.49645 0
M  V30 13333 H 194.864 0.647622 1.25697 0
M  V30 13334 P 193.439 6.144 6.45285 0
M  V30 13335 O 193.219 7.54673 6.86199 0
M  V30 13336 O 192.649 5.12391 7.179 0
M  V30 13337 O 193.189 5.99158 4.88404 0
M  V30 13338 C 194.129 6.60234 3.96415 0
M  V30 13339 C 193.399 7.08259 2.72856 0
M  V30 13340 O 193.189 5.9427 1.83651 0
M  V30 13341 C 191.999 7.64886 2.9555 0
M  V30 13342 O 191.609 8.53963 1.90717 0
M  V30 13343 C 191.119 6.4116 2.90739 0
M  V30 13344 C 191.829 5.55375 1.86963 0
M  V30 13345 N 191.779 4.09664 2.15742 0
M  V30 13346 H 194.618 7.45574 4.45629 0
M  V30 13347 H 194.89 5.86232 3.67314 0
M  V30 13348 H 194.022 7.84412 2.24479 0
M  V30 13349 P 190.059 8.7635 1.60911 0
M  V30 13350 O 189.839 10.1388 1.11561 0
M  V30 13351 O 189.269 8.36503 2.79617 0
M  V30 13352 O 189.809 7.71806 0.42951 0
M  V30 13353 C 190.749 7.66948 -0.673514 0
M  V30 13354 C 190.019 7.33374 -1.95559 0
M  V30 13355 O 189.809 5.88721 -2.00726 0
M  V30 13356 C 188.619 7.92218 -2.1125 0
M  V30 13357 O 188.229 8.02971 -3.47653 0
M  V30 13358 C 187.739 6.89504 -1.41631 0
M  V30 13359 C 188.449 5.59106 -1.75155 0
M  V30 13360 N 188.399 4.58136 -0.662409 0
M  V30 13361 C 188.249 3.26059 -1.02863 0
M  V30 13362 O 188.159 2.90743 -2.19009 0
M  V30 13363 N 188.209 2.35995 0.0155585 0
M  V30 13364 C 188.299 2.65248 1.35603 0
M  V30 13365 C 188.449 4.05747 1.64698 0
M  V30 13366 C 188.499 4.96734 0.652411 0
M  V30 13367 H 191.24 8.64917 -0.776982 0
M  V30 13368 H 191.509 6.89974 -0.474015 0
M  V30 13369 H 190.642 7.66548 -2.79458 0
M  V30 13370 H 187.987 5.16076 -2.65138 0
M  V30 13371 H 187.708 7.06433 -0.329384 0
M  V30 13372 H 186.716 6.90829 -1.81996 0
M  V30 13373 H 188.55 8.90774 -1.62639 0
M  V30 13374 H 188.621 6.02181 0.895285 0
M  V30 13375 P 186.679 8.03563 -3.84925 0
M  V30 13376 O 186.459 8.85821 -5.0569 0
M  V30 13377 O 185.889 8.41101 -2.65469 0
M  V30 13378 O 186.429 6.4965 -4.18908 0
M  V30 13379 C 187.369 5.80886 -5.05289 0
M  V30 13380 C 186.639 4.78366 -5.89277 0
M  V30 13381 O 186.429 3.58302 -5.08433 0
M  V30 13382 C 185.239 5.16748 -6.36559 0
M  V30 13383 O 184.849 4.45271 -7.53232 0
M  V30 13384 C 184.359 4.74572 -5.19863 0
M  V30 13385 C 185.069 3.49373 -4.70338 0
M  V30 13386 N 185.019 3.31704 -3.22876 0
M  V30 13387 C 184.869 2.03326 -2.74871 0
M  V30 13388 O 184.779 1.06486 -3.48076 0
M  V30 13389 N 184.829 1.91838 -1.37456 0
M  V30 13390 C 184.919 2.94295 -0.462035 0
M  V30 13391 O 184.869 2.71763 0.752928 0
M  V30 13392 C 185.069 4.25064 -1.05249 0
M  V30 13393 C 185.179 5.39815 -0.095697 0
M  V30 13394 C 185.119 4.40214 -2.39192 0
M  V30 13395 H 187.86 6.54063 -5.71245 0
M  V30 13396 H 188.129 5.30339 -4.43905 0
M  V30 13397 H 187.262 4.55889 -6.76652 0
M  V30 13398 H 184.607 2.6167 -5.17842 0
M  V30 13399 H 184.328 5.52155 -4.41878 0
M  V30 13400 H 183.336 4.51918 -5.53297 0
M  V30 13401 H 185.17 6.25055 -6.55162 0
M  V30 13402 H 185.241 5.39798 -2.81523 0
M  V30 13403 H 184.211 5.91593 -0.0279582 0
M  V30 13404 H 185.948 6.10038 -0.450573 0
M  V30 13405 H 185.46 5.02007 0.89937 0
M  V30 13406 H 184.724 0.995326 -1.00435 0
M  V30 13407 P 183.299 4.23843 -7.83734 0
M  V30 13408 O 183.079 4.19407 -9.29784 0
M  V30 13409 O 182.509 5.24426 -7.09156 0
M  V30 13410 O 183.049 2.7935 -7.20758 0
M  V30 13411 C 183.989 1.7299 -7.50419 0
M  V30 13412 C 183.259 0.406376 -7.57911 0
M  V30 13413 O 183.049 -0.0897726 -6.21935 0
M  V30 13414 C 181.859 0.447224 -8.1878 0
M  V30 13415 O 181.469 -0.825065 -8.71101 0
M  V30 13416 C 180.979 0.783801 -6.99623 0
M  V30 13417 C 181.689 0.0619192 -5.85967 0
M  V30 13418 N 181.639 0.7859 -4.56281 0
M  V30 13419 H 184.478 1.93423 -8.4679 0
M  V30 13420 H 184.75 1.68181 -6.71046 0
M  V30 13421 H 183.882 -0.289041 -8.15388 0
M  V30 13422 P 179.919 -1.17771 -8.83182 0
M  V30 13423 O 179.699 -2.07206 -9.98732 0
M  V30 13424 O 179.129 0.0743816 -8.81969 0
M  V30 13425 O 179.669 -1.97652 -7.47304 0
M  V30 13426 C 180.609 -3.01133 -7.08783 0
M  V30 13427 C 179.879 -4.12613 -6.37049 0
M  V30 13428 O 179.669 -3.72827 -4.97879 0
M  V30 13429 C 178.479 -4.45085 -6.88694 0
M  V30 13430 O 178.089 -5.7877 -6.5624 0
M  V30 13431 C 177.599 -3.47817 -6.12078 0
M  V30 13432 C 178.309 -3.39414 -4.77697 0
M  V30 13433 N 178.259 -2.04615 -4.15333 0
M  V30 13434 H 181.098 -3.41248 -7.98759 0
M  V30 13435 H 181.37 -2.5837 -6.41742 0
M  V30 13436 H 180.502 -5.02657 -6.42673 0
M  V30 13437 P 176.539 -6.144 -6.45285 0
M  V30 13438 O 176.319 -7.54673 -6.86199 0
M  V30 13439 O 175.749 -5.12391 -7.179 0
M  V30 13440 O 176.289 -5.99158 -4.88404 0
M  V30 13441 C 177.229 -6.60234 -3.96415 0
M  V30 13442 C 176.499 -7.08259 -2.72856 0
M  V30 13443 O 176.289 -5.9427 -1.83651 0
M  V30 13444 C 175.099 -7.64886 -2.9555 0
M  V30 13445 O 174.709 -8.53963 -1.90717 0
M  V30 13446 C 174.219 -6.4116 -2.90739 0
M  V30 13447 C 174.929 -5.55375 -1.86963 0
M  V30 13448 N 174.879 -4.09664 -2.15742 0
M  V30 13449 H 177.718 -7.45574 -4.45629 0
M  V30 13450 H 177.99 -5.86232 -3.67314 0
M  V30 13451 H 177.122 -7.84412 -2.24479 0
M  V30 13452 P 173.159 -8.7635 -1.60911 0
M  V30 13453 O 172.939 -10.1388 -1.11561 0
M  V30 13454 O 172.369 -8.36503 -2.79617 0
M  V30 13455 O 172.909 -7.71806 -0.42951 0
M  V30 13456 C 173.849 -7.67148 0.673689 0
M  V30 13457 C 173.119 -7.33374 1.95559 0
M  V30 13458 O 172.909 -5.88721 2.00726 0
M  V30 13459 C 171.719 -7.92526 2.10483 0
M  V30 13460 O 171.329 -8.02971 3.47653 0
M  V30 13461 C 170.839 -6.89602 1.41652 0
M  V30 13462 C 171.549 -5.59201 1.75185 0
M  V30 13463 N 171.499 -4.58235 0.662552 0
M  V30 13464 H 174.338 -8.65116 0.777161 0
M  V30 13465 H 174.61 -6.90173 0.474152 0
M  V30 13466 H 173.742 -7.66548 2.79458 0
M  V30 13467 P 169.779 -8.03563 3.84925 0
M  V30 13468 O 169.559 -8.85821 5.0569 0
M  V30 13469 O 168.989 -8.41101 2.65469 0
M  V30 13470 O 169.529 -6.4965 4.18908 0
M  V30 13471 C 170.469 -5.81037 5.05421 0
M  V30 13472 C 169.739 -4.78366 5.89277 0
M  V30 13473 O 169.529 -3.58302 5.08433 0
M  V30 13474 C 168.339 -5.17448 6.36119 0
M  V30 13475 O 167.949 -4.45271 7.53232 0
M  V30 13476 C 167.459 -4.74639 5.19936 0
M  V30 13477 C 168.169 -3.49432 4.70418 0
M  V30 13478 N 168.119 -3.31776 3.22945 0
M  V30 13479 H 170.958 -6.54213 5.71376 0
M  V30 13480 H 171.23 -5.30492 4.44033 0
M  V30 13481 H 170.362 -4.55889 6.76652 0
M  V30 13482 P 166.399 -4.23843 7.83734 0
M  V30 13483 O 166.179 -4.19407 9.29784 0
M  V30 13484 O 165.609 -5.24426 7.09156 0
M  V30 13485 O 166.149 -2.7935 7.20758 0
M  V30 13486 C 167.089 -1.7299 7.50419 0
M  V30 13487 C 166.359 -0.406376 7.57911 0
M  V30 13488 O 166.149 0.0897726 6.21935 0
M  V30 13489 C 164.959 -0.447224 8.1878 0
M  V30 13490 O 164.569 0.825065 8.71101 0
M  V30 13491 C 164.079 -0.783801 6.99623 0
M  V30 13492 C 164.789 -0.0619192 5.85967 0
M  V30 13493 N 164.739 -0.7859 4.56281 0
M  V30 13494 H 167.578 -1.93423 8.4679 0
M  V30 13495 H 167.85 -1.68181 6.71046 0
M  V30 13496 H 166.982 0.289041 8.15388 0
M  V30 13497 P 163.019 1.17771 8.83182 0
M  V30 13498 O 162.799 2.07206 9.98732 0
M  V30 13499 O 162.229 -0.0743816 8.81969 0
M  V30 13500 O 162.769 1.97652 7.47304 0
M  V30 13501 C 163.709 3.01133 7.08783 0
M  V30 13502 C 162.979 4.12613 6.37049 0
M  V30 13503 O 162.769 3.72827 4.97879 0
M  V30 13504 C 161.579 4.45085 6.88694 0
M  V30 13505 O 161.189 5.7877 6.5624 0
M  V30 13506 C 160.699 3.47817 6.12078 0
M  V30 13507 C 161.409 3.39414 4.77697 0
M  V30 13508 N 161.359 2.04199 4.15538 0
M  V30 13509 H 164.198 3.41248 7.98759 0
M  V30 13510 H 164.47 2.57728 6.42 0
M  V30 13511 H 163.602 5.02657 6.42673 0
M  V30 13512 H 160.947 4.11708 4.08956 0
M  V30 13513 H 160.667 2.49626 6.61679 0
M  V30 13514 H 159.676 3.8662 6.00862 0
M  V30 13515 H 161.51 4.29991 7.97006 0
M  V30 13516 P 159.639 6.144 6.45285 0
M  V30 13517 O 159.419 7.54673 6.86199 0
M  V30 13518 O 158.849 5.12391 7.179 0
M  V30 13519 O 159.389 5.99158 4.88404 0
M  V30 13520 C 160.329 6.60234 3.96415 0
M  V30 13521 C 159.599 7.08259 2.72856 0
M  V30 13522 O 159.389 5.9427 1.83651 0
M  V30 13523 C 158.199 7.64886 2.9555 0
M  V30 13524 O 157.809 8.53963 1.90717 0
M  V30 13525 C 157.319 6.4116 2.90739 0
M  V30 13526 C 158.029 5.55375 1.86963 0
M  V30 13527 N 157.979 4.09448 2.16152 0
M  V30 13528 C 158.059 3.46824 3.37593 0
M  V30 13529 N 157.989 2.17422 3.29777 0
M  V30 13530 C 157.839 1.93065 1.94427 0
M  V30 13531 C 157.709 0.738053 1.20141 0
M  V30 13532 N 157.699 -0.474256 1.74676 0
M  V30 13533 N 157.589 0.850049 -0.13045 0
M  V30 13534 C 157.599 2.06169 -0.676992 0
M  V30 13535 N 157.719 3.23842 -0.101312 0
M  V30 13536 C 157.839 3.09402 1.23122 0
M  V30 13537 H 160.818 7.45574 4.45629 0
M  V30 13538 H 161.09 5.85864 3.679 0
M  V30 13539 H 160.222 7.84412 2.24479 0
M  V30 13540 H 157.567 5.73457 0.888562 0
M  V30 13541 H 157.287 5.90877 3.88583 0
M  V30 13542 H 156.296 6.6596 2.58858 0
M  V30 13543 H 158.13 8.16339 3.92049 0
M  V30 13544 H 158.171 4.00505 4.3174 0
M  V30 13545 H 157.79 -0.581337 2.76658 0
M  V30 13546 H 157.601 -1.30811 1.14888 0
M  V30 13547 H 157.493 2.08295 -1.75542 0
M  V30 13548 P 156.259 8.7635 1.60911 0
M  V30 13549 O 156.039 10.1388 1.11561 0
M  V30 13550 O 155.469 8.36503 2.79617 0
M  V30 13551 O 156.009 7.71906 0.429565 0
M  V30 13552 C 156.949 7.67148 -0.673689 0
M  V30 13553 C 156.219 7.33666 -1.94851 0
M  V30 13554 O 156.009 5.88816 -2.00759 0
M  V30 13555 C 154.819 7.92526 -2.10483 0
M  V30 13556 O 154.429 8.03063 -3.47693 0
M  V30 13557 C 153.939 6.89602 -1.41652 0
M  V30 13558 C 154.649 5.59201 -1.75185 0
M  V30 13559 N 154.599 4.58235 -0.662552 0
M  V30 13560 C 154.449 3.24451 -1.01643 0
M  V30 13561 O 154.359 2.94958 -2.21722 0
M  V30 13562 N 154.399 2.30408 0.165238 0
M  V30 13563 C 154.499 2.66048 1.25118 0
M  V30 13564 N 154.449 1.70787 2.16813 0
M  V30 13565 C 154.649 4.02732 1.64413 0
M  V30 13566 C 154.699 4.9488 0.63991 0
M  V30 13567 H 157.439 8.65017 -0.777072 0
M  V30 13568 H 157.709 6.90173 -0.474152 0
M  V30 13569 H 156.842 7.66642 -2.79492 0
M  V30 13570 H 154.187 5.16254 -2.65229 0
M  V30 13571 H 153.907 7.06532 -0.329431 0
M  V30 13572 H 152.916 6.91023 -1.82047 0
M  V30 13573 H 154.75 8.90873 -1.62657 0
M  V30 13574 H 154.822 6.00104 0.892197 0
M  V30 13575 H 154.72 4.31733 2.69229 0
M  V30 13576 H 154.332 0.724835 1.8844 0
M  V30 13577 H 154.528 1.94716 3.16734 0
M  V30 13578 P 152.879 8.03563 -3.84925 0
M  V30 13579 O 152.659 8.85821 -5.0569 0
M  V30 13580 O 152.089 8.41101 -2.65469 0
M  V30 13581 O 152.629 6.4965 -4.18908 0
M  V30 13582 C 153.569 5.81037 -5.05421 0
M  V30 13583 C 152.839 4.78366 -5.89277 0
M  V30 13584 O 152.629 3.58302 -5.08433 0
M  V30 13585 C 151.439 5.17448 -6.36119 0
M  V30 13586 O 151.049 4.45271 -7.53232 0
M  V30 13587 C 150.559 4.74639 -5.19936 0
M  V30 13588 C 151.269 3.49432 -4.70418 0
M  V30 13589 N 151.219 3.32099 -3.22613 0
M  V30 13590 C 151.299 4.28245 -2.25527 0
M  V30 13591 N 151.229 3.80823 -1.04874 0
M  V30 13592 C 151.079 2.44571 -1.23535 0
M  V30 13593 C 150.949 1.37068 -0.330675 0
M  V30 13594 N 150.939 1.51472 0.990824 0
M  V30 13595 N 150.829 0.138614 -0.848756 0
M  V30 13596 C 150.839 -0.00675923 -2.16999 0
M  V30 13597 N 150.959 0.904372 -3.11122 0
M  V30 13598 C 151.079 2.12707 -2.56212 0
M  V30 13599 H 154.058 6.54213 -5.71376 0
M  V30 13600 H 154.33 5.30936 -4.43503 0
M  V30 13601 H 153.462 4.55889 -6.76652 0
M  V30 13602 H 150.807 2.61715 -5.17932 0
M  V30 13603 H 150.527 5.52155 -4.41878 0
M  V30 13604 H 149.536 4.51981 -5.53374 0
M  V30 13605 H 151.37 6.25124 -6.55234 0
M  V30 13606 H 151.411 5.34372 -2.47488 0
M  V30 13607 H 151.03 2.45153 1.4078 0
M  V30 13608 H 150.841 0.688422 1.59911 0
M  V30 13609 H 150.733 -1.02584 -2.52346 0
M  V30 13610 P 149.499 4.23843 -7.83734 0
M  V30 13611 O 149.279 4.19407 -9.29784 0
M  V30 13612 O 148.709 5.24426 -7.09156 0
M  V30 13613 O 149.249 2.7935 -7.20758 0
M  V30 13614 C 150.189 1.7299 -7.50419 0
M  V30 13615 C 149.459 0.406376 -7.57911 0
M  V30 13616 O 149.249 -0.0897726 -6.21935 0
M  V30 13617 C 148.059 0.447224 -8.1878 0
M  V30 13618 O 147.669 -0.825065 -8.71101 0
M  V30 13619 C 147.179 0.783801 -6.99623 0
M  V30 13620 C 147.889 0.0619192 -5.85967 0
M  V30 13621 N 147.839 0.7859 -4.56281 0
M  V30 13622 H 150.678 1.93423 -8.4679 0
M  V30 13623 H 150.95 1.68181 -6.71046 0
M  V30 13624 H 150.082 -0.289041 -8.15388 0
M  V30 13625 P 146.119 -1.17771 -8.83182 0
M  V30 13626 O 145.899 -2.07206 -9.98732 0
M  V30 13627 O 145.329 0.0743816 -8.81969 0
M  V30 13628 O 145.869 -1.97652 -7.47304 0
M  V30 13629 C 146.809 -3.01133 -7.08783 0
M  V30 13630 C 146.079 -4.12613 -6.37049 0
M  V30 13631 O 145.869 -3.72827 -4.97879 0
M  V30 13632 C 144.679 -4.45085 -6.88694 0
M  V30 13633 O 144.289 -5.7877 -6.5624 0
M  V30 13634 C 143.799 -3.47817 -6.12078 0
M  V30 13635 C 144.509 -3.39414 -4.77697 0
M  V30 13636 N 144.459 -2.04199 -4.15538 0
M  V30 13637 H 147.298 -3.41248 -7.98759 0
M  V30 13638 H 147.57 -2.57728 -6.42 0
M  V30 13639 H 146.702 -5.02657 -6.42673 0
M  V30 13640 H 144.047 -4.11708 -4.08956 0
M  V30 13641 H 143.767 -2.49626 -6.61679 0
M  V30 13642 H 142.776 -3.8662 -6.00862 0
M  V30 13643 H 144.61 -4.29991 -7.97006 0
M  V30 13644 P 142.739 -6.144 -6.45285 0
M  V30 13645 O 142.519 -7.54673 -6.86199 0
M  V30 13646 O 141.949 -5.12391 -7.179 0
M  V30 13647 O 142.489 -5.99158 -4.88404 0
M  V30 13648 C 143.429 -6.60234 -3.96415 0
M  V30 13649 C 142.699 -7.08259 -2.72856 0
M  V30 13650 O 142.489 -5.9427 -1.83651 0
M  V30 13651 C 141.299 -7.64886 -2.9555 0
M  V30 13652 O 140.909 -8.53963 -1.90717 0
M  V30 13653 C 140.419 -6.4116 -2.90739 0
M  V30 13654 C 141.129 -5.55375 -1.86963 0
M  V30 13655 N 141.079 -4.09664 -2.15742 0
M  V30 13656 H 143.918 -7.45574 -4.45629 0
M  V30 13657 H 144.19 -5.86232 -3.67314 0
M  V30 13658 H 143.322 -7.84412 -2.24479 0
M  V30 13659 P 139.359 -8.7635 -1.60911 0
M  V30 13660 O 139.139 -10.1388 -1.11561 0
M  V30 13661 O 138.569 -8.36503 -2.79617 0
M  V30 13662 O 139.109 -7.71806 -0.42951 0
M  V30 13663 C 140.049 -7.67148 0.673689 0
M  V30 13664 C 139.319 -7.33374 1.95559 0
M  V30 13665 O 139.109 -5.88721 2.00726 0
M  V30 13666 C 137.919 -7.92526 2.10483 0
M  V30 13667 O 137.529 -8.02971 3.47653 0
M  V30 13668 C 137.039 -6.89602 1.41652 0
M  V30 13669 C 137.749 -5.59201 1.75185 0
M  V30 13670 N 137.699 -4.58301 0.657969 0
M  V30 13671 C 137.779 -4.79019 -0.692603 0
M  V30 13672 N 137.709 -3.69736 -1.38998 0
M  V30 13673 C 137.559 -2.70474 -0.438135 0
M  V30 13674 C 137.429 -1.30327 -0.538142 0
M  V30 13675 N 137.419 -0.64304 -1.69192 0
M  V30 13676 N 137.309 -0.611027 0.605183 0
M  V30 13677 C 137.319 -1.27002 1.75953 0
M  V30 13678 N 137.439 -2.56038 1.98546 0
M  V30 13679 C 137.559 -3.22681 0.822541 0
M  V30 13680 H 140.538 -8.65116 0.777161 0
M  V30 13681 H 140.81 -6.9022 0.46725 0
M  V30 13682 H 139.942 -7.66548 2.79458 0
M  V30 13683 H 137.287 -5.16165 2.65183 0
M  V30 13684 H 137.007 -7.06433 0.329384 0
M  V30 13685 H 136.016 -6.90926 1.82021 0
M  V30 13686 H 137.85 -8.90873 1.62657 0
M  V30 13687 H 137.891 -5.77785 -1.13874 0
M  V30 13688 H 137.51 -1.15585 -2.57991 0
M  V30 13689 H 137.321 0.382989 -1.69835 0
M  V30 13690 H 137.213 -0.653331 2.64449 0
M  V30 13691 P 135.979 -8.03563 3.84925 0
M  V30 13692 O 135.759 -8.85821 5.0569 0
M  V30 13693 O 135.189 -8.41101 2.65469 0
M  V30 13694 O 135.729 -6.49734 4.18962 0
M  V30 13695 C 136.669 -5.81037 5.05421 0
M  V30 13696 C 135.939 -4.79018 5.88876 0
M  V30 13697 O 135.729 -3.58359 5.08515 0
M  V30 13698 C 134.539 -5.17448 6.36119 0
M  V30 13699 O 134.149 -4.45322 7.53318 0
M  V30 13700 C 133.659 -4.74639 5.19936 0
M  V30 13701 C 134.369 -3.49432 4.70418 0
M  V30 13702 N 134.319 -3.31776 3.22945 0
M  V30 13703 C 134.169 -2.02742 2.72939 0
M  V30 13704 O 134.079 -1.08301 3.52749 0
M  V30 13705 N 134.119 -1.96117 1.22063 0
M  V30 13706 C 134.219 -2.8878 0.551566 0
M  V30 13707 N 134.169 -2.65609 -0.750198 0
M  V30 13708 C 134.369 -4.22457 1.03707 0
M  V30 13709 C 134.419 -4.37979 2.39113 0
M  V30 13710 H 137.159 -6.54138 5.7131 0
M  V30 13711 H 137.429 -5.30492 4.44033 0
M  V30 13712 H 136.562 -4.55945 6.76735 0
M  V30 13713 H 133.907 -2.6176 5.18021 0
M  V30 13714 H 133.627 -5.52233 4.41941 0
M  V30 13715 H 132.636 -4.52045 5.53452 0
M  V30 13716 H 134.47 -6.25124 6.55234 0
M  V30 13717 H 134.542 -5.37936 2.80552 0
M  V30 13718 H 134.44 -5.07528 0.359553 0
M  V30 13719 H 134.052 -1.69403 -1.09847 0
M  V30 13720 H 134.248 -3.43701 -1.41792 0
M  V30 13721 P 132.599 -4.23843 7.83734 0
M  V30 13722 O 132.379 -4.19407 9.29784 0
M  V30 13723 O 131.809 -5.24426 7.09156 0
M  V30 13724 O 132.349 -2.7935 7.20758 0
M  V30 13725 C 133.289 -1.7299 7.50419 0
M  V30 13726 C 132.559 -0.406376 7.57911 0
M  V30 13727 O 132.349 0.0897726 6.21935 0
M  V30 13728 C 131.159 -0.447224 8.1878 0
M  V30 13729 O 130.769 0.825065 8.71101 0
M  V30 13730 C 130.279 -0.783801 6.99623 0
M  V30 13731 C 130.989 -0.0619192 5.85967 0
M  V30 13732 N 130.939 -0.790462 4.56202 0
M  V30 13733 H 133.778 -1.93423 8.4679 0
M  V30 13734 H 134.05 -1.68852 6.70877 0
M  V30 13735 H 133.182 0.289041 8.15388 0
M  V30 13736 H 130.527 0.927006 5.72848 0
M  V30 13737 H 130.247 -1.86973 6.82036 0
M  V30 13738 H 129.256 -0.403953 7.13357 0
M  V30 13739 H 131.09 -1.20599 8.97534 0
M  V30 13740 P 129.219 1.17771 8.83182 0
M  V30 13741 O 128.999 2.07206 9.98732 0
M  V30 13742 O 128.429 -0.0743816 8.81969 0
M  V30 13743 O 128.969 1.97652 7.47304 0
M  V30 13744 C 129.909 3.01055 7.08599 0
M  V30 13745 C 129.179 4.12613 6.37049 0
M  V30 13746 O 128.969 3.72827 4.97879 0
M  V30 13747 C 127.779 4.45719 6.88164 0
M  V30 13748 O 127.389 5.7877 6.5624 0
M  V30 13749 C 126.899 3.47768 6.11991 0
M  V30 13750 C 127.609 3.39356 4.77615 0
M  V30 13751 N 127.559 2.04571 4.15244 0
M  V30 13752 C 127.409 1.98587 2.78314 0
M  V30 13753 O 127.319 2.98134 2.08835 0
M  V30 13754 N 127.369 0.714467 2.24925 0
M  V30 13755 C 127.459 -0.470001 2.94169 0
M  V30 13756 O 127.409 -1.55587 2.35195 0
M  V30 13757 C 127.609 -0.312541 4.36783 0
M  V30 13758 C 127.719 -1.57711 5.16352 0
M  V30 13759 C 127.659 0.914512 4.92583 0
M  V30 13760 H 130.4 3.41169 7.98575 0
M  V30 13761 H 130.669 2.58295 6.41556 0
M  V30 13762 H 129.802 5.02657 6.42673 0
M  V30 13763 H 127.147 4.11637 4.08885 0
M  V30 13764 H 126.868 2.49626 6.61679 0
M  V30 13765 H 125.876 3.86566 6.00778 0
M  V30 13766 H 127.71 4.29943 7.96918 0
M  V30 13767 H 127.781 1.00937 6.00374 0
M  V30 13768 H 126.751 -1.80153 5.63503 0
M  V30 13769 H 128.488 -1.4566 5.94104 0
M  V30 13770 H 128 -2.40664 4.49645 0
M  V30 13771 H 127.264 0.647622 1.25697 0
M  V30 13772 P 125.839 6.144 6.45285 0
M  V30 13773 O 125.619 7.54673 6.86199 0
M  V30 13774 O 125.049 5.12391 7.179 0
M  V30 13775 O 125.589 5.99158 4.88404 0
M  V30 13776 C 126.529 6.60234 3.96415 0
M  V30 13777 C 125.799 7.08259 2.72856 0
M  V30 13778 O 125.589 5.9427 1.83651 0
M  V30 13779 C 124.399 7.64886 2.9555 0
M  V30 13780 O 124.009 8.53963 1.90717 0
M  V30 13781 C 123.519 6.4116 2.90739 0
M  V30 13782 C 124.229 5.55375 1.86963 0
M  V30 13783 N 124.179 4.09664 2.15742 0
M  V30 13784 H 127.018 7.45574 4.45629 0
M  V30 13785 H 127.29 5.86232 3.67314 0
M  V30 13786 H 126.422 7.84412 2.24479 0
M  V30 13787 P 122.459 8.7635 1.60911 0
M  V30 13788 O 122.239 10.1388 1.11561 0
M  V30 13789 O 121.669 8.36503 2.79617 0
M  V30 13790 O 122.209 7.71806 0.42951 0
M  V30 13791 C 123.149 7.67148 -0.673689 0
M  V30 13792 C 122.419 7.33374 -1.95559 0
M  V30 13793 O 122.209 5.88721 -2.00726 0
M  V30 13794 C 121.019 7.92526 -2.10483 0
M  V30 13795 O 120.629 8.02971 -3.47653 0
M  V30 13796 C 120.139 6.89602 -1.41652 0
M  V30 13797 C 120.849 5.59201 -1.75185 0
M  V30 13798 N 120.799 4.58235 -0.662552 0
M  V30 13799 H 123.638 8.65116 -0.777161 0
M  V30 13800 H 123.91 6.90173 -0.474152 0
M  V30 13801 H 123.042 7.66548 -2.79458 0
M  V30 13802 P 119.079 8.03563 -3.84925 0
M  V30 13803 O 118.859 8.85821 -5.0569 0
M  V30 13804 O 118.289 8.41101 -2.65469 0
M  V30 13805 O 118.829 6.4965 -4.18908 0
M  V30 13806 C 119.769 5.81037 -5.05421 0
M  V30 13807 C 119.039 4.78366 -5.89277 0
M  V30 13808 O 118.829 3.58302 -5.08433 0
M  V30 13809 C 117.639 5.17448 -6.36119 0
M  V30 13810 O 117.249 4.45271 -7.53232 0
M  V30 13811 C 116.759 4.74639 -5.19936 0
M  V30 13812 C 117.469 3.49432 -4.70418 0
M  V30 13813 N 117.419 3.31776 -3.22945 0
M  V30 13814 H 120.258 6.54213 -5.71376 0
M  V30 13815 H 120.53 5.30492 -4.44033 0
M  V30 13816 H 119.662 4.55889 -6.76652 0
M  V30 13817 P 115.699 4.23843 -7.83734 0
M  V30 13818 O 115.479 4.19407 -9.29784 0
M  V30 13819 O 114.909 5.24426 -7.09156 0
M  V30 13820 O 115.449 2.7935 -7.20758 0
M  V30 13821 C 116.389 1.7299 -7.50419 0
M  V30 13822 C 115.659 0.406376 -7.57911 0
M  V30 13823 O 115.449 -0.0897726 -6.21935 0
M  V30 13824 C 114.259 0.447224 -8.1878 0
M  V30 13825 O 113.869 -0.825065 -8.71101 0
M  V30 13826 C 113.379 0.783801 -6.99623 0
M  V30 13827 C 114.089 0.0619192 -5.85967 0
M  V30 13828 N 114.039 0.7859 -4.56281 0
M  V30 13829 H 116.878 1.93423 -8.4679 0
M  V30 13830 H 117.15 1.68181 -6.71046 0
M  V30 13831 H 116.282 -0.289041 -8.15388 0
M  V30 13832 P 112.319 -1.17771 -8.83182 0
M  V30 13833 O 112.099 -2.07206 -9.98732 0
M  V30 13834 O 111.529 0.0743816 -8.81969 0
M  V30 13835 O 112.069 -1.97652 -7.47304 0
M  V30 13836 C 113.009 -3.01133 -7.08783 0
M  V30 13837 C 112.279 -4.12613 -6.37049 0
M  V30 13838 O 112.069 -3.72827 -4.97879 0
M  V30 13839 C 110.879 -4.45085 -6.88694 0
M  V30 13840 O 110.489 -5.7877 -6.5624 0
M  V30 13841 C 109.999 -3.47817 -6.12078 0
M  V30 13842 C 110.709 -3.39414 -4.77697 0
M  V30 13843 N 110.659 -2.04615 -4.15333 0
M  V30 13844 H 113.498 -3.41248 -7.98759 0
M  V30 13845 H 113.77 -2.5837 -6.41742 0
M  V30 13846 H 112.902 -5.02657 -6.42673 0
M  V30 13847 P 108.939 -6.144 -6.45285 0
M  V30 13848 O 108.719 -7.54673 -6.86199 0
M  V30 13849 O 108.149 -5.12391 -7.179 0
M  V30 13850 O 108.689 -5.99158 -4.88404 0
M  V30 13851 C 109.629 -6.60234 -3.96415 0
M  V30 13852 C 108.899 -7.08259 -2.72856 0
M  V30 13853 O 108.689 -5.9427 -1.83651 0
M  V30 13854 C 107.499 -7.64886 -2.9555 0
M  V30 13855 O 107.109 -8.53963 -1.90717 0
M  V30 13856 C 106.619 -6.4116 -2.90739 0
M  V30 13857 C 107.329 -5.55375 -1.86963 0
M  V30 13858 N 107.279 -4.09664 -2.15742 0
M  V30 13859 H 110.118 -7.45574 -4.45629 0
M  V30 13860 H 110.39 -5.86232 -3.67314 0
M  V30 13861 H 109.522 -7.84412 -2.24479 0
M  V30 13862 P 105.559 -8.7635 -1.60911 0
M  V30 13863 O 105.339 -10.1388 -1.11561 0
M  V30 13864 O 104.769 -8.36503 -2.79617 0
M  V30 13865 O 105.309 -7.71906 -0.429565 0
M  V30 13866 C 106.249 -7.67148 0.673689 0
M  V30 13867 C 105.519 -7.33666 1.94851 0
M  V30 13868 O 105.309 -5.88816 2.00759 0
M  V30 13869 C 104.119 -7.92526 2.10483 0
M  V30 13870 O 103.729 -8.03063 3.47693 0
M  V30 13871 C 103.239 -6.89602 1.41652 0
M  V30 13872 C 103.949 -5.59201 1.75185 0
M  V30 13873 N 103.899 -4.58235 0.662552 0
M  V30 13874 C 103.749 -3.24451 1.01643 0
M  V30 13875 O 103.659 -2.94958 2.21722 0
M  V30 13876 N 103.699 -2.30408 -0.165238 0
M  V30 13877 C 103.799 -2.66048 -1.25118 0
M  V30 13878 N 103.749 -1.70787 -2.16813 0
M  V30 13879 C 103.949 -4.02732 -1.64413 0
M  V30 13880 C 103.999 -4.9488 -0.63991 0
M  V30 13881 H 106.739 -8.65017 0.777072 0
M  V30 13882 H 107.009 -6.90173 0.474152 0
M  V30 13883 H 106.142 -7.66642 2.79492 0
M  V30 13884 H 103.487 -5.16254 2.65229 0
M  V30 13885 H 103.207 -7.06532 0.329431 0
M  V30 13886 H 102.216 -6.91023 1.82047 0
M  V30 13887 H 104.05 -8.90873 1.62657 0
M  V30 13888 H 104.122 -6.00104 -0.892197 0
M  V30 13889 H 104.02 -4.31733 -2.69229 0
M  V30 13890 H 103.632 -0.724835 -1.8844 0
M  V30 13891 H 103.828 -1.94716 -3.16734 0
M  V30 13892 P 102.179 -8.03563 3.84925 0
M  V30 13893 O 101.959 -8.85821 5.0569 0
M  V30 13894 O 101.389 -8.41101 2.65469 0
M  V30 13895 O 101.929 -6.4965 4.18908 0
M  V30 13896 C 102.869 -5.81037 5.05421 0
M  V30 13897 C 102.139 -4.78366 5.89277 0
M  V30 13898 O 101.929 -3.58302 5.08433 0
M  V30 13899 C 100.739 -5.17448 6.36119 0
M  V30 13900 O 100.349 -4.45271 7.53232 0
M  V30 13901 C 99.8594 -4.74639 5.19936 0
M  V30 13902 C 100.569 -3.49432 4.70418 0
M  V30 13903 N 100.519 -3.31776 3.22945 0
M  V30 13904 H 103.358 -6.54213 5.71376 0
M  V30 13905 H 103.63 -5.30492 4.44033 0
M  V30 13906 H 102.762 -4.55889 6.76652 0
M  V30 13907 P 98.7994 -4.23843 7.83734 0
M  V30 13908 O 98.5794 -4.19407 9.29784 0
M  V30 13909 O 98.0094 -5.24426 7.09156 0
M  V30 13910 O 98.5494 -2.7935 7.20758 0
M  V30 13911 C 99.4894 -1.7299 7.50419 0
M  V30 13912 C 98.7594 -0.406376 7.57911 0
M  V30 13913 O 98.5494 0.0897726 6.21935 0
M  V30 13914 C 97.3594 -0.447224 8.1878 0
M  V30 13915 O 96.9694 0.825065 8.71101 0
M  V30 13916 C 96.4794 -0.783801 6.99623 0
M  V30 13917 C 97.1894 -0.0619192 5.85967 0
M  V30 13918 N 97.1394 -0.7859 4.56281 0
M  V30 13919 H 99.9784 -1.93423 8.4679 0
M  V30 13920 H 100.25 -1.68181 6.71046 0
M  V30 13921 H 99.3824 0.289041 8.15388 0
M  V30 13922 P 95.4195 1.17771 8.83182 0
M  V30 13923 O 95.1995 2.07206 9.98732 0
M  V30 13924 O 94.6295 -0.0743816 8.81969 0
M  V30 13925 O 95.1695 1.97652 7.47304 0
M  V30 13926 C 96.1095 3.01133 7.08783 0
M  V30 13927 C 95.3795 4.12613 6.37049 0
M  V30 13928 O 95.1695 3.72827 4.97879 0
M  V30 13929 C 93.9795 4.45085 6.88694 0
M  V30 13930 O 93.5895 5.7877 6.5624 0
M  V30 13931 C 93.0995 3.47817 6.12078 0
M  V30 13932 C 93.8095 3.39414 4.77697 0
M  V30 13933 N 93.7595 2.04615 4.15333 0
M  V30 13934 H 96.5985 3.41248 7.98759 0
M  V30 13935 H 96.8705 2.5837 6.41742 0
M  V30 13936 H 96.0025 5.02657 6.42673 0
M  V30 13937 P 92.0395 6.144 6.45285 0
M  V30 13938 O 91.8195 7.54673 6.86199 0
M  V30 13939 O 91.2495 5.12391 7.179 0
M  V30 13940 O 91.7895 5.99158 4.88404 0
M  V30 13941 C 92.7295 6.60234 3.96415 0
M  V30 13942 C 91.9995 7.08259 2.72856 0
M  V30 13943 O 91.7895 5.9427 1.83651 0
M  V30 13944 C 90.5995 7.64886 2.9555 0
M  V30 13945 O 90.2095 8.53963 1.90717 0
M  V30 13946 C 89.7195 6.4116 2.90739 0
M  V30 13947 C 90.4295 5.55375 1.86963 0
M  V30 13948 N 90.3795 4.09664 2.15742 0
M  V30 13949 H 93.2185 7.45574 4.45629 0
M  V30 13950 H 93.4905 5.86232 3.67314 0
M  V30 13951 H 92.6225 7.84412 2.24479 0
M  V30 13952 P 88.6595 8.7635 1.60911 0
M  V30 13953 O 88.4395 10.1388 1.11561 0
M  V30 13954 O 87.8695 8.36503 2.79617 0
M  V30 13955 O 88.4095 7.71806 0.42951 0
M  V30 13956 C 89.3495 7.67148 -0.673689 0
M  V30 13957 C 88.6195 7.33374 -1.95559 0
M  V30 13958 O 88.4095 5.88721 -2.00726 0
M  V30 13959 C 87.2195 7.92526 -2.10483 0
M  V30 13960 O 86.8295 8.02971 -3.47653 0
M  V30 13961 C 86.3395 6.89602 -1.41652 0
M  V30 13962 C 87.0495 5.59201 -1.75185 0
M  V30 13963 N 86.9995 4.58301 -0.657969 0
M  V30 13964 C 87.0795 4.79019 0.692603 0
M  V30 13965 N 87.0095 3.69736 1.38998 0
M  V30 13966 C 86.8595 2.70474 0.438135 0
M  V30 13967 C 86.7295 1.30327 0.538142 0
M  V30 13968 N 86.7195 0.64304 1.69192 0
M  V30 13969 N 86.6095 0.611027 -0.605183 0
M  V30 13970 C 86.6195 1.27002 -1.75953 0
M  V30 13971 N 86.7395 2.56038 -1.98546 0
M  V30 13972 C 86.8595 3.22681 -0.822541 0
M  V30 13973 H 89.8385 8.65116 -0.777161 0
M  V30 13974 H 90.1105 6.9022 -0.46725 0
M  V30 13975 H 89.2425 7.66548 -2.79458 0
M  V30 13976 H 86.5875 5.16165 -2.65183 0
M  V30 13977 H 86.3075 7.06433 -0.329384 0
M  V30 13978 H 85.3165 6.90926 -1.82021 0
M  V30 13979 H 87.1505 8.90873 -1.62657 0
M  V30 13980 H 87.1915 5.77785 1.13874 0
M  V30 13981 H 86.8105 1.15585 2.57991 0
M  V30 13982 H 86.6215 -0.382989 1.69835 0
M  V30 13983 H 86.5135 0.653331 -2.64449 0
M  V30 13984 P 85.2795 8.03563 -3.84925 0
M  V30 13985 O 85.0595 8.85821 -5.0569 0
M  V30 13986 O 84.4895 8.41101 -2.65469 0
M  V30 13987 O 85.0295 6.4965 -4.18908 0
M  V30 13988 C 85.9695 5.81037 -5.05421 0
M  V30 13989 C 85.2395 4.78366 -5.89277 0
M  V30 13990 O 85.0295 3.58302 -5.08433 0
M  V30 13991 C 83.8395 5.17448 -6.36119 0
M  V30 13992 O 83.4495 4.45271 -7.53232 0
M  V30 13993 C 82.9595 4.74639 -5.19936 0
M  V30 13994 C 83.6695 3.49432 -4.70418 0
M  V30 13995 N 83.6195 3.31776 -3.22945 0
M  V30 13996 H 86.4585 6.54213 -5.71376 0
M  V30 13997 H 86.7305 5.30492 -4.44033 0
M  V30 13998 H 85.8625 4.55889 -6.76652 0
M  V30 13999 P 81.8995 4.23843 -7.83734 0
M  V30 14000 O 81.6795 4.19407 -9.29784 0
M  V30 14001 O 81.1095 5.24426 -7.09156 0
M  V30 14002 O 81.6495 2.7935 -7.20758 0
M  V30 14003 C 82.5895 1.72945 -7.50224 0
M  V30 14004 C 81.8595 0.406376 -7.57911 0
M  V30 14005 O 81.6495 -0.0897726 -6.21935 0
M  V30 14006 C 80.4595 0.438983 -8.18724 0
M  V30 14007 O 80.0695 -0.825065 -8.71101 0
M  V30 14008 C 79.5795 0.783689 -6.99524 0
M  V30 14009 C 80.2895 0.0619086 -5.85867 0
M  V30 14010 N 80.2395 0.78573 -4.56183 0
M  V30 14011 C 80.0895 0.0292889 -3.41887 0
M  V30 14012 O 79.9995 -1.18445 -3.4419 0
M  V30 14013 N 80.0495 0.744061 -2.23964 0
M  V30 14014 C 80.1395 2.10932 -2.10362 0
M  V30 14015 C 80.2895 2.8202 -3.34994 0
M  V30 14016 C 80.3395 2.15547 -4.52261 0
M  V30 14017 H 83.0805 1.93379 -8.46595 0
M  V30 14018 H 83.3495 1.68132 -6.70852 0
M  V30 14019 H 82.4825 -0.289041 -8.15388 0
M  V30 14020 H 79.8275 -0.926847 -5.72749 0
M  V30 14021 H 79.5485 1.86973 -6.82036 0
M  V30 14022 H 78.5565 0.403896 -7.13257 0
M  V30 14023 H 80.3905 1.20585 -8.97435 0
M  V30 14024 H 80.4615 2.71231 -5.45042 0
M  V30 14025 P 78.5196 -1.17771 -8.83182 0
M  V30 14026 O 78.2996 -2.07206 -9.98732 0
M  V30 14027 O 77.7296 0.0743816 -8.81969 0
M  V30 14028 O 78.2696 -1.97678 -7.474 0
M  V30 14029 C 79.2096 -3.01133 -7.08783 0
M  V30 14030 C 78.4796 -4.1203 -6.37546 0
M  V30 14031 O 78.2696 -3.72887 -4.9796 0
M  V30 14032 C 77.0796 -4.45085 -6.88694 0
M  V30 14033 O 76.6896 -5.78836 -6.56315 0
M  V30 14034 C 76.1996 -3.47817 -6.12078 0
M  V30 14035 C 76.9096 -3.39414 -4.77697 0
M  V30 14036 N 76.8596 -2.04615 -4.15333 0
M  V30 14037 C 76.7096 -1.96929 -2.77162 0
M  V30 14038 O 76.6196 -3.02017 -2.12006 0
M  V30 14039 N 76.6596 -0.55485 -2.24237 0
M  V30 14040 C 76.7596 0.367808 -2.9169 0
M  V30 14041 N 76.7096 1.53426 -2.29427 0
M  V30 14042 C 76.9096 0.319148 -4.33828 0
M  V30 14043 C 76.9596 -0.920672 -4.90433 0
M  V30 14044 H 79.6996 -3.41209 -7.98667 0
M  V30 14045 H 79.9696 -2.5837 -6.41742 0
M  V30 14046 H 79.1026 -5.02718 -6.42752 0
M  V30 14047 H 76.4476 -4.11779 -4.09026 0
M  V30 14048 H 76.1676 -2.49661 -6.61772 0
M  V30 14049 H 75.1766 -3.86674 -6.00946 0
M  V30 14050 H 77.0106 -4.29991 -7.97006 0
M  V30 14051 H 77.0826 -1.00589 -5.98303 0
M  V30 14052 H 76.9806 1.22639 -4.93799 0
M  V30 14053 H 76.5926 1.56819 -1.27167 0
M  V30 14054 H 76.7886 2.41062 -2.83063 0
M  V30 14055 P 75.1396 -6.144 -6.45285 0
M  V30 14056 O 74.9196 -7.54673 -6.86199 0
M  V30 14057 O 74.3496 -5.12391 -7.179 0
M  V30 14058 O 74.8896 -5.99236 -4.88467 0
M  V30 14059 C 75.8296 -6.60234 -3.96415 0
M  V30 14060 C 75.0996 -7.08079 -2.736 0
M  V30 14061 O 74.8896 -5.94365 -1.8368 0
M  V30 14062 C 73.6996 -7.64886 -2.9555 0
M  V30 14063 O 73.3096 -8.5406 -1.90739 0
M  V30 14064 C 72.8196 -6.4116 -2.90739 0
M  V30 14065 C 73.5296 -5.55375 -1.86963 0
M  V30 14066 N 73.4796 -4.09664 -2.15742 0
M  V30 14067 C 73.3296 -3.22231 -1.08477 0
M  V30 14068 O 73.2396 -3.68951 0.0600489 0
M  V30 14069 N 73.2796 -1.76692 -1.48799 0
M  V30 14070 C 73.3796 -1.41695 -2.57602 0
M  V30 14071 N 73.3296 -0.107296 -2.75791 0
M  V30 14072 C 73.5296 -2.29178 -3.69733 0
M  V30 14073 C 73.5796 -3.62753 -3.42653 0
M  V30 14074 H 76.3196 -7.45488 -4.45578 0
M  V30 14075 H 76.5896 -5.86232 -3.67314 0
M  V30 14076 H 75.7226 -7.84508 -2.24507 0
M  V30 14077 H 73.0676 -5.73556 -0.888715 0
M  V30 14078 H 72.7876 -5.9096 -3.88638 0
M  V30 14079 H 71.7966 -6.66053 -2.58894 0
M  V30 14080 H 73.6306 -8.16339 -3.92049 0
M  V30 14081 H 73.7026 -4.33052 -4.24913 0
M  V30 14082 H 73.6006 -1.9103 -4.71577 0
M  V30 14083 H 73.2126 0.521221 -1.95056 0
M  V30 14084 H 73.4086 0.286429 -3.70695 0
M  V30 14085 P 71.7596 -8.7635 -1.60911 0
M  V30 14086 O 71.5396 -10.1388 -1.11561 0
M  V30 14087 O 70.9696 -8.36503 -2.79617 0
M  V30 14088 O 71.5096 -7.71806 -0.42951 0
M  V30 14089 C 72.4496 -7.67148 0.673689 0
M  V30 14090 C 71.7196 -7.33374 1.95559 0
M  V30 14091 O 71.5096 -5.88721 2.00726 0
M  V30 14092 C 70.3196 -7.92526 2.10483 0
M  V30 14093 O 69.9296 -8.02971 3.47653 0
M  V30 14094 C 69.4396 -6.89602 1.41652 0
M  V30 14095 C 70.1496 -5.59201 1.75185 0
M  V30 14096 N 70.0996 -4.58235 0.662552 0
M  V30 14097 H 72.9386 -8.65116 0.777161 0
M  V30 14098 H 73.2106 -6.90173 0.474152 0
M  V30 14099 H 72.3426 -7.66548 2.79458 0
M  V30 14100 P 68.3796 -8.03563 3.84925 0
M  V30 14101 O 68.1596 -8.85821 5.0569 0
M  V30 14102 O 67.5896 -8.41101 2.65469 0
M  V30 14103 O 68.1296 -6.4965 4.18908 0
M  V30 14104 C 69.0696 -5.81037 5.05421 0
M  V30 14105 C 68.3396 -4.78366 5.89277 0
M  V30 14106 O 68.1296 -3.58302 5.08433 0
M  V30 14107 C 66.9396 -5.17448 6.36119 0
M  V30 14108 O 66.5496 -4.45271 7.53232 0
M  V30 14109 C 66.0596 -4.74639 5.19936 0
M  V30 14110 C 66.7696 -3.49432 4.70418 0
M  V30 14111 N 66.7196 -3.31776 3.22945 0
M  V30 14112 H 69.5586 -6.54213 5.71376 0
M  V30 14113 H 69.8306 -5.30492 4.44033 0
M  V30 14114 H 68.9626 -4.55889 6.76652 0
M  V30 14115 P 64.9996 -4.23843 7.83734 0
M  V30 14116 O 64.7796 -4.19407 9.29784 0
M  V30 14117 O 64.2096 -5.24426 7.09156 0
M  V30 14118 O 64.7496 -2.79386 7.20852 0
M  V30 14119 C 65.6896 -1.7299 7.50419 0
M  V30 14120 C 64.9596 -0.41401 7.5797 0
M  V30 14121 O 64.7496 0.089787 6.22035 0
M  V30 14122 C 63.5596 -0.447224 8.1878 0
M  V30 14123 O 63.1696 0.825159 8.71201 0
M  V30 14124 C 62.6796 -0.783801 6.99623 0
M  V30 14125 C 63.3896 -0.0619192 5.85967 0
M  V30 14126 N 63.3396 -0.7859 4.56281 0
M  V30 14127 C 63.1896 -0.0359258 3.39981 0
M  V30 14128 O 63.0996 1.19723 3.49038 0
M  V30 14129 N 63.1396 -0.869151 2.14025 0
M  V30 14130 C 63.2396 -2.01207 2.14363 0
M  V30 14131 N 63.1896 -2.58978 0.954287 0
M  V30 14132 C 63.3896 -2.80817 3.32215 0
M  V30 14133 C 63.4396 -2.13785 4.50884 0
M  V30 14134 H 66.1796 -1.93401 8.46693 0
M  V30 14135 H 66.4496 -1.68181 6.71046 0
M  V30 14136 H 65.5826 0.289076 8.15488 0
M  V30 14137 H 62.9276 0.927166 5.72947 0
M  V30 14138 H 62.6476 -1.87 6.82132 0
M  V30 14139 H 61.6566 -0.404009 7.13457 0
M  V30 14140 H 63.4906 -1.20599 8.97534 0
M  V30 14141 H 63.5626 -2.70295 5.43162 0
M  V30 14142 H 63.4606 -3.89465 3.27406 0
M  V30 14143 H 63.0726 -2.01616 0.107046 0
M  V30 14144 H 63.2686 -3.61403 0.873101 0
M  V30 14145 P 61.6197 1.17771 8.83182 0
M  V30 14146 O 61.3997 2.07206 9.98732 0
M  V30 14147 O 60.8297 -0.0743816 8.81969 0
M  V30 14148 O 61.3697 1.97652 7.47304 0
M  V30 14149 C 62.3097 3.01133 7.08783 0
M  V30 14150 C 61.5797 4.12613 6.37049 0
M  V30 14151 O 61.3697 3.72827 4.97879 0
M  V30 14152 C 60.1797 4.45085 6.88694 0
M  V30 14153 O 59.7897 5.7877 6.5624 0
M  V30 14154 C 59.2997 3.47817 6.12078 0
M  V30 14155 C 60.0097 3.39414 4.77697 0
M  V30 14156 N 59.9597 2.04199 4.15538 0
M  V30 14157 H 62.7987 3.41248 7.98759 0
M  V30 14158 H 63.0707 2.57728 6.42 0
M  V30 14159 H 62.2027 5.02657 6.42673 0
M  V30 14160 H 59.5477 4.11708 4.08956 0
M  V30 14161 H 59.2677 2.49626 6.61679 0
M  V30 14162 H 58.2767 3.8662 6.00862 0
M  V30 14163 H 60.1107 4.29991 7.97006 0
M  V30 14164 P 58.2397 6.144 6.45285 0
M  V30 14165 O 58.0197 7.54673 6.86199 0
M  V30 14166 O 57.4497 5.12391 7.179 0
M  V30 14167 O 57.9897 5.99158 4.88404 0
M  V30 14168 C 58.9297 6.60234 3.96415 0
M  V30 14169 C 58.1997 7.08259 2.72856 0
M  V30 14170 O 57.9897 5.9427 1.83651 0
M  V30 14171 C 56.7997 7.64886 2.9555 0
M  V30 14172 O 56.4097 8.53963 1.90717 0
M  V30 14173 C 55.9197 6.4116 2.90739 0
M  V30 14174 C 56.6297 5.55375 1.86963 0
M  V30 14175 N 56.5797 4.09664 2.15742 0
M  V30 14176 H 59.4187 7.45574 4.45629 0
M  V30 14177 H 59.6907 5.86232 3.67314 0
M  V30 14178 H 58.8227 7.84412 2.24479 0
M  V30 14179 P 54.8597 8.7635 1.60911 0
M  V30 14180 O 54.6397 10.1388 1.11561 0
M  V30 14181 O 54.0697 8.36503 2.79617 0
M  V30 14182 O 54.6097 7.71806 0.42951 0
M  V30 14183 C 55.5497 7.67148 -0.673689 0
M  V30 14184 C 54.8197 7.33374 -1.95559 0
M  V30 14185 O 54.6097 5.88721 -2.00726 0
M  V30 14186 C 53.4197 7.92526 -2.10483 0
M  V30 14187 O 53.0297 8.02971 -3.47653 0
M  V30 14188 C 52.5397 6.89602 -1.41652 0
M  V30 14189 C 53.2497 5.59201 -1.75185 0
M  V30 14190 N 53.1997 4.58235 -0.662552 0
M  V30 14191 H 56.0387 8.65116 -0.777161 0
M  V30 14192 H 56.3107 6.90173 -0.474152 0
M  V30 14193 H 55.4427 7.66548 -2.79458 0
M  V30 14194 P 51.4797 8.03563 -3.84925 0
M  V30 14195 O 51.2597 8.85821 -5.0569 0
M  V30 14196 O 50.6897 8.41101 -2.65469 0
M  V30 14197 O 51.2297 6.4965 -4.18908 0
M  V30 14198 C 52.1697 5.81037 -5.05421 0
M  V30 14199 C 51.4397 4.78366 -5.89277 0
M  V30 14200 O 51.2297 3.58302 -5.08433 0
M  V30 14201 C 50.0397 5.17448 -6.36119 0
M  V30 14202 O 49.6497 4.45271 -7.53232 0
M  V30 14203 C 49.1597 4.74639 -5.19936 0
M  V30 14204 C 49.8697 3.49432 -4.70418 0
M  V30 14205 N 49.8197 3.31776 -3.22945 0
M  V30 14206 H 52.6587 6.54213 -5.71376 0
M  V30 14207 H 52.9307 5.30492 -4.44033 0
M  V30 14208 H 52.0627 4.55889 -6.76652 0
M  V30 14209 P 48.0997 4.23843 -7.83734 0
M  V30 14210 O 47.8797 4.19407 -9.29784 0
M  V30 14211 O 47.3097 5.24426 -7.09156 0
M  V30 14212 O 47.8497 2.7935 -7.20758 0
M  V30 14213 C 48.7897 1.7299 -7.50419 0
M  V30 14214 C 48.0597 0.406376 -7.57911 0
M  V30 14215 O 47.8497 -0.0897726 -6.21935 0
M  V30 14216 C 46.6597 0.447224 -8.1878 0
M  V30 14217 O 46.2697 -0.825065 -8.71101 0
M  V30 14218 C 45.7797 0.783801 -6.99623 0
M  V30 14219 C 46.4897 0.0619192 -5.85967 0
M  V30 14220 N 46.4397 0.7859 -4.56281 0
M  V30 14221 H 49.2787 1.93423 -8.4679 0
M  V30 14222 H 49.5507 1.68181 -6.71046 0
M  V30 14223 H 48.6827 -0.289041 -8.15388 0
M  V30 14224 P 44.7198 -1.17771 -8.83182 0
M  V30 14225 O 44.4998 -2.07206 -9.98732 0
M  V30 14226 O 43.9298 0.0743816 -8.81969 0
M  V30 14227 O 44.4698 -1.97652 -7.47304 0
M  V30 14228 C 45.4098 -3.01133 -7.08783 0
M  V30 14229 C 44.6798 -4.12613 -6.37049 0
M  V30 14230 O 44.4698 -3.72827 -4.97879 0
M  V30 14231 C 43.2798 -4.45085 -6.88694 0
M  V30 14232 O 42.8898 -5.7877 -6.5624 0
M  V30 14233 C 42.3998 -3.47817 -6.12078 0
M  V30 14234 C 43.1098 -3.39414 -4.77697 0
M  V30 14235 N 43.0598 -2.04615 -4.15333 0
M  V30 14236 H 45.8988 -3.41248 -7.98759 0
M  V30 14237 H 46.1708 -2.5837 -6.41742 0
M  V30 14238 H 45.3028 -5.02657 -6.42673 0
M  V30 14239 P 41.3398 -6.144 -6.45285 0
M  V30 14240 O 41.1198 -7.54673 -6.86199 0
M  V30 14241 O 40.5498 -5.12391 -7.179 0
M  V30 14242 O 41.0898 -5.99158 -4.88404 0
M  V30 14243 C 42.0298 -6.60234 -3.96415 0
M  V30 14244 C 41.2998 -7.08259 -2.72856 0
M  V30 14245 O 41.0898 -5.9427 -1.83651 0
M  V30 14246 C 39.8998 -7.64886 -2.9555 0
M  V30 14247 O 39.5098 -8.53963 -1.90717 0
M  V30 14248 C 39.0198 -6.4116 -2.90739 0
M  V30 14249 C 39.7298 -5.55375 -1.86963 0
M  V30 14250 N 39.6798 -4.09448 -2.16152 0
M  V30 14251 H 42.5188 -7.45574 -4.45629 0
M  V30 14252 H 42.7908 -5.85864 -3.679 0
M  V30 14253 H 41.9228 -7.84412 -2.24479 0
M  V30 14254 H 39.2678 -5.73457 -0.888562 0
M  V30 14255 H 38.9878 -5.90877 -3.88583 0
M  V30 14256 H 37.9968 -6.6596 -2.58858 0
M  V30 14257 H 39.8308 -8.16339 -3.92049 0
M  V30 14258 P 37.9598 -8.7635 -1.60911 0
M  V30 14259 O 37.7398 -10.1388 -1.11561 0
M  V30 14260 O 37.1698 -8.36503 -2.79617 0
M  V30 14261 O 37.7098 -7.71806 -0.42951 0
M  V30 14262 C 38.6498 -7.67148 0.673689 0
M  V30 14263 C 37.9198 -7.33374 1.95559 0
M  V30 14264 O 37.7098 -5.88721 2.00726 0
M  V30 14265 C 36.5198 -7.92526 2.10483 0
M  V30 14266 O 36.1298 -8.02971 3.47653 0
M  V30 14267 C 35.6398 -6.89602 1.41652 0
M  V30 14268 C 36.3498 -5.59201 1.75185 0
M  V30 14269 N 36.2998 -4.58235 0.662552 0
M  V30 14270 H 39.1388 -8.65116 0.777161 0
M  V30 14271 H 39.4108 -6.90173 0.474152 0
M  V30 14272 H 38.5428 -7.66548 2.79458 0
M  V30 14273 P 34.5798 -8.03563 3.84925 0
M  V30 14274 O 34.3598 -8.85821 5.0569 0
M  V30 14275 O 33.7898 -8.41101 2.65469 0
M  V30 14276 O 34.3298 -6.4965 4.18908 0
M  V30 14277 C 35.2698 -5.81037 5.05421 0
M  V30 14278 C 34.5398 -4.78366 5.89277 0
M  V30 14279 O 34.3298 -3.58302 5.08433 0
M  V30 14280 C 33.1398 -5.17448 6.36119 0
M  V30 14281 O 32.7498 -4.45271 7.53232 0
M  V30 14282 C 32.2598 -4.74639 5.19936 0
M  V30 14283 C 32.9698 -3.49432 4.70418 0
M  V30 14284 N 32.9198 -3.31776 3.22945 0
M  V30 14285 H 35.7588 -6.54213 5.71376 0
M  V30 14286 H 36.0308 -5.30492 4.44033 0
M  V30 14287 H 35.1628 -4.55889 6.76652 0
M  V30 14288 P 31.1998 -4.23843 7.83734 0
M  V30 14289 O 30.9798 -4.19407 9.29784 0
M  V30 14290 O 30.4098 -5.24426 7.09156 0
M  V30 14291 O 30.9498 -2.7935 7.20758 0
M  V30 14292 C 31.8898 -1.7299 7.50419 0
M  V30 14293 C 31.1598 -0.406376 7.57911 0
M  V30 14294 O 30.9498 0.0897726 6.21935 0
M  V30 14295 C 29.7598 -0.447224 8.1878 0
M  V30 14296 O 29.3698 0.825065 8.71101 0
M  V30 14297 C 28.8798 -0.783801 6.99623 0
M  V30 14298 C 29.5898 -0.0619192 5.85967 0
M  V30 14299 N 29.5398 -0.7859 4.56281 0
M  V30 14300 H 32.3788 -1.93423 8.4679 0
M  V30 14301 H 32.6508 -1.68181 6.71046 0
M  V30 14302 H 31.7828 0.289041 8.15388 0
M  V30 14303 P 27.8199 1.17771 8.83182 0
M  V30 14304 O 27.5999 2.07206 9.98732 0
M  V30 14305 O 27.0299 -0.0743816 8.81969 0
M  V30 14306 O 27.5699 1.97652 7.47304 0
M  V30 14307 C 28.5099 3.01133 7.08783 0
M  V30 14308 C 27.7799 4.12613 6.37049 0
M  V30 14309 O 27.5699 3.72827 4.97879 0
M  V30 14310 C 26.3799 4.45085 6.88694 0
M  V30 14311 O 25.9899 5.7877 6.5624 0
M  V30 14312 C 25.4999 3.47817 6.12078 0
M  V30 14313 C 26.2099 3.39414 4.77697 0
M  V30 14314 N 26.1599 2.04615 4.15333 0
M  V30 14315 H 28.9989 3.41248 7.98759 0
M  V30 14316 H 29.2709 2.5837 6.41742 0
M  V30 14317 H 28.4029 5.02657 6.42673 0
M  V30 14318 P 24.4399 6.144 6.45285 0
M  V30 14319 O 24.2199 7.54673 6.86199 0
M  V30 14320 O 23.6499 5.12391 7.179 0
M  V30 14321 O 24.1899 5.99158 4.88404 0
M  V30 14322 C 25.1299 6.60062 3.96313 0
M  V30 14323 C 24.3999 7.08259 2.72856 0
M  V30 14324 O 24.1899 5.9427 1.83651 0
M  V30 14325 C 22.9999 7.65087 2.94749 0
M  V30 14326 O 22.6099 8.53963 1.90717 0
M  V30 14327 C 22.1199 6.41069 2.90698 0
M  V30 14328 C 22.8299 5.5528 1.86931 0
M  V30 14329 N 22.7799 4.09575 2.15696 0
M  V30 14330 C 22.6299 3.24249 1.08435 0
M  V30 14331 O 22.5399 3.63946 -0.0628747 0
M  V30 14332 N 22.5899 1.90009 1.39973 0
M  V30 14333 C 22.6799 1.34884 2.65614 0
M  V30 14334 C 22.8299 2.3145 3.71736 0
M  V30 14335 C 22.8799 3.63518 3.44754 0
M  V30 14336 H 25.6209 7.45402 4.45526 0
M  V30 14337 H 25.8899 5.86062 3.67208 0
M  V30 14338 H 25.0229 7.84412 2.24479 0
M  V30 14339 H 22.3679 5.73358 0.888409 0
M  V30 14340 H 22.0889 5.90877 3.88583 0
M  V30 14341 H 21.0969 6.65867 2.58821 0
M  V30 14342 H 22.9309 8.16248 3.92006 0
M  V30 14343 H 23.0019 4.34551 4.26383 0
M  V30 14344 P 21.0599 8.7635 1.60911 0
M  V30 14345 O 20.8399 10.1388 1.11561 0
M  V30 14346 O 20.2699 8.36503 2.79617 0
M  V30 14347 O 20.8099 7.71806 0.42951 0
M  V30 14348 C 21.7499 7.67148 -0.673689 0
M  V30 14349 C 21.0199 7.33374 -1.95559 0
M  V30 14350 O 20.8099 5.88721 -2.00726 0
M  V30 14351 C 19.6199 7.92526 -2.10483 0
M  V30 14352 O 19.2299 8.02971 -3.47653 0
M  V30 14353 C 18.7399 6.89602 -1.41652 0
M  V30 14354 C 19.4499 5.59201 -1.75185 0
M  V30 14355 N 19.3999 4.58235 -0.662552 0
M  V30 14356 H 22.2389 8.65116 -0.777161 0
M  V30 14357 H 22.5109 6.90173 -0.474152 0
M  V30 14358 H 21.6429 7.66548 -2.79458 0
M  V30 14359 P 17.6799 8.03563 -3.84925 0
M  V30 14360 O 17.4599 8.85821 -5.0569 0
M  V30 14361 O 16.8899 8.41101 -2.65469 0
M  V30 14362 O 17.4299 6.4965 -4.18908 0
M  V30 14363 C 18.3699 5.81037 -5.05421 0
M  V30 14364 C 17.6399 4.78366 -5.89277 0
M  V30 14365 O 17.4299 3.58302 -5.08433 0
M  V30 14366 C 16.2399 5.17448 -6.36119 0
M  V30 14367 O 15.8499 4.45271 -7.53232 0
M  V30 14368 C 15.3599 4.74639 -5.19936 0
M  V30 14369 C 16.0699 3.49432 -4.70418 0
M  V30 14370 N 16.0199 3.31776 -3.22945 0
M  V30 14371 H 18.8589 6.54213 -5.71376 0
M  V30 14372 H 19.1309 5.30492 -4.44033 0
M  V30 14373 H 18.2629 4.55889 -6.76652 0
M  V30 14374 P 14.2999 4.23843 -7.83734 0
M  V30 14375 O 14.0799 4.19407 -9.29784 0
M  V30 14376 O 13.5099 5.24426 -7.09156 0
M  V30 14377 O 14.0499 2.7935 -7.20758 0
M  V30 14378 C 14.9899 1.7299 -7.50419 0
M  V30 14379 C 14.2599 0.406376 -7.57911 0
M  V30 14380 O 14.0499 -0.0897726 -6.21935 0
M  V30 14381 C 12.8599 0.447224 -8.1878 0
M  V30 14382 O 12.4699 -0.825065 -8.71101 0
M  V30 14383 C 11.9799 0.783801 -6.99623 0
M  V30 14384 C 12.6899 0.0619192 -5.85967 0
M  V30 14385 N 12.6399 0.790462 -4.56202 0
M  V30 14386 C 12.7199 2.13895 -4.34171 0
M  V30 14387 N 12.6499 2.46449 -3.08687 0
M  V30 14388 C 12.4999 1.2525 -2.43697 0
M  V30 14389 C 12.3699 0.914535 -1.07318 0
M  V30 14390 N 12.3599 1.80782 -0.0887348 0
M  V30 14391 N 12.2499 -0.386745 -0.768133 0
M  V30 14392 C 12.2599 -1.28096 -1.75159 0
M  V30 14393 N 12.3799 -1.09708 -3.04861 0
M  V30 14394 C 12.4999 0.214857 -3.32306 0
M  V30 14395 H 15.4789 1.93423 -8.4679 0
M  V30 14396 H 15.7509 1.68852 -6.70877 0
M  V30 14397 H 14.8829 -0.289041 -8.15388 0
M  V30 14398 H 12.2279 -0.927006 -5.72848 0
M  V30 14399 H 11.9479 1.86973 -6.82036 0
M  V30 14400 H 10.9569 0.403953 -7.13357 0
M  V30 14401 H 12.7909 1.20599 -8.97534 0
M  V30 14402 H 12.8319 2.86846 -5.14318 0
M  V30 14403 H 12.4509 2.81082 -0.302037 0
M  V30 14404 H 12.2619 1.49688 0.889064 0
M  V30 14405 H 12.1539 -2.31317 -1.43855 0
M  V30 14406 P 10.92 -1.17771 -8.83182 0
M  V30 14407 O 10.7 -2.07206 -9.98732 0
M  V30 14408 O 10.13 0.0743816 -8.81969 0
M  V30 14409 O 10.67 -1.97652 -7.47304 0
M  V30 14410 C 11.61 -3.01133 -7.08783 0
M  V30 14411 C 10.88 -4.12613 -6.37049 0
M  V30 14412 O 10.67 -3.72827 -4.97879 0
M  V30 14413 C 9.47996 -4.45085 -6.88694 0
M  V30 14414 O 9.08996 -5.7877 -6.5624 0
M  V30 14415 C 8.59996 -3.47817 -6.12078 0
M  V30 14416 C 9.30996 -3.39414 -4.77697 0
M  V30 14417 N 9.25996 -2.04615 -4.15333 0
M  V30 14418 H 12.099 -3.41248 -7.98759 0
M  V30 14419 H 12.371 -2.5837 -6.41742 0
M  V30 14420 H 11.503 -5.02657 -6.42673 0
M  V30 14421 P 7.53998 -6.144 -6.45285 0
M  V30 14422 O 7.31998 -7.54673 -6.86199 0
M  V30 14423 O 6.74998 -5.12391 -7.179 0
M  V30 14424 O 7.28998 -5.99158 -4.88404 0
M  V30 14425 C 8.22998 -6.60234 -3.96415 0
M  V30 14426 C 7.49998 -7.08259 -2.72856 0
M  V30 14427 O 7.28998 -5.9427 -1.83651 0
M  V30 14428 C 6.09998 -7.64886 -2.9555 0
M  V30 14429 O 5.70998 -8.53963 -1.90717 0
M  V30 14430 C 5.21998 -6.4116 -2.90739 0
M  V30 14431 C 5.92998 -5.55375 -1.86963 0
M  V30 14432 N 5.87998 -4.09448 -2.16152 0
M  V30 14433 H 8.71898 -7.45574 -4.45629 0
M  V30 14434 H 8.99098 -5.85864 -3.679 0
M  V30 14435 H 8.12298 -7.84412 -2.24479 0
M  V30 14436 H 5.46798 -5.73457 -0.888562 0
M  V30 14437 H 5.18798 -5.90877 -3.88583 0
M  V30 14438 H 4.19698 -6.6596 -2.58858 0
M  V30 14439 H 6.03098 -8.16339 -3.92049 0
M  V30 14440 P 4.16 -8.7635 -1.60911 0
M  V30 14441 O 3.94 -10.1388 -1.11561 0
M  V30 14442 O 3.37 -8.36503 -2.79617 0
M  V30 14443 O 3.91 -7.71806 -0.42951 0
M  V30 14444 C 4.85 -7.67148 0.673689 0
M  V30 14445 C 4.12 -7.33374 1.95559 0
M  V30 14446 O 3.91 -5.88721 2.00726 0
M  V30 14447 C 2.72 -7.92526 2.10483 0
M  V30 14448 O 2.33 -8.02971 3.47653 0
M  V30 14449 C 1.84 -6.89602 1.41652 0
M  V30 14450 C 2.55 -5.59201 1.75185 0
M  V30 14451 N 2.5 -4.58235 0.662552 0
M  V30 14452 H 5.339 -8.65116 0.777161 0
M  V30 14453 H 5.611 -6.90173 0.474152 0
M  V30 14454 H 4.743 -7.66548 2.79458 0
M  V30 14455 H 1.613 -8.66322 3.55694 0
M  V30 END ATOM
M  V30 BEGIN BOND
M  V30 END BOND
M  V30 END CTAB
M  END
$$$$
