drugbank_target|P0A9D2 Glutathione S-transferase GstA (DB03003)
 OpenBabel12092120033D

  0  0  0     0  0            999 V3000
M  V30 BEGIN CTAB
M  V30 COUNTS 3235 3271 0 0 0
M  V30 BEGIN ATOM
M  V30 1 H -0.908 1.98254 -0.117106 0
M  V30 2 N 0 1.576 0 0
M  V30 3 C 0.933 2.03868 1.02534 0
M  V30 4 C 1.911 0.928543 1.3348 0
M  V30 5 O 3.095 1.19667 1.45644 0
M  V30 6 C 0.222 2.43627 2.35294 0
M  V30 7 C -0.732 3.65373 2.2001 0
M  V30 8 S 0.101 5.13292 1.52614 0
M  V30 9 C 1.257 5.56322 2.86805 0
M  V30 10 H 1.49 2.90518 0.631377 0
M  V30 11 H -0.977 1.52953 0.210867 0
M  V30 12 H 0.981 2.67203 3.11629 0
M  V30 13 H -0.358 1.57376 2.7183 0
M  V30 14 H -1.165 3.90944 3.18086 0
M  V30 15 H -1.563 3.418 1.51819 0
M  V30 16 H 0.729 5.58782 3.83104 0
M  V30 17 H 1.672 6.56266 2.65933 0
M  V30 18 H 2.08 4.83886 2.90714 0
M  V30 19 N 1.4781 -0.272755 1.55222 0
M  V30 20 C 2.4251 -1.33716 1.88119 0
M  V30 21 C 3.3951 -1.49066 0.73271 0
M  V30 22 O 4.5801 -1.63469 0.984002 0
M  V30 23 C 1.7201 -2.69238 2.15882 0
M  V30 24 C 0.8331 -2.62108 3.43399 0
M  V30 25 C -0.0319 -3.89811 3.60861 0
M  V30 26 C -0.9929 -3.77193 4.8207 0
M  V30 27 N -1.8559 -4.9673 4.96189 0
M  V30 28 H 2.9841 -1.04962 2.78903 0
M  V30 29 H 0.5211 -0.507088 1.38083 0
M  V30 30 H 2.4791 -3.48089 2.29978 0
M  V30 31 H 1.1091 -2.96194 1.28331 0
M  V30 32 H 0.1611 -1.74967 3.37773 0
M  V30 33 H 1.4731 -2.48685 4.32386 0
M  V30 34 H 0.6271 -4.77103 3.74777 0
M  V30 35 H -0.6339 -4.06102 2.7006 0
M  V30 36 H -1.6289 -2.88284 4.68159 0
M  V30 37 H -0.4039 -3.62421 5.74307 0
M  V30 38 H -2.4579 -5.13431 4.08319 0
M  V30 39 H -2.5409 -4.85839 5.79221 0
M  V30 40 H -1.2729 -5.85594 5.1449 0
M  V30 41 N 2.9562 -1.48159 -0.537278 0
M  V30 42 C 3.8862 -1.65029 -1.6519 0
M  V30 43 C 4.8672 -0.499281 -1.62607 0
M  V30 44 O 6.0522 -0.730972 -1.79918 0
M  V30 45 C 3.1822 -1.68303 -3.03795 0
M  V30 46 C 2.1362 -2.8283 -3.21234 0
M  V30 47 C 1.4622 -2.71189 -4.60826 0
M  V30 48 C 2.7622 -4.24211 -3.04701 0
M  V30 49 H 4.4562 -2.58341 -1.51328 0
M  V30 50 H 2.0022 -1.24325 -0.726585 0
M  V30 51 H 3.9552 -1.78693 -3.81637 0
M  V30 52 H 2.6792 -0.715635 -3.18663 0
M  V30 53 H 1.3382 -2.71983 -2.45807 0
M  V30 54 H 0.9862 -1.72435 -4.7252 0
M  V30 55 H 0.6862 -3.48035 -4.7344 0
M  V30 56 H 2.2102 -2.83537 -5.40777 0
M  V30 57 H 3.6242 -4.3593 -3.72341 0
M  V30 58 H 2.0212 -5.01998 -3.28813 0
M  V30 59 H 3.0912 -4.41184 -2.01209 0
M  V30 60 N 4.4343 0.785586 -1.36625 0
M  V30 61 C 5.6813 1.54362 -1.31067 0
M  V30 62 C 6.0093 1.94195 0.10893 0
M  V30 63 O 5.2643 1.63262 1.07908 0
M  V30 64 C 5.5633 2.83007 -2.1827 0
M  V30 65 C 5.2293 2.62294 -3.6676 0
M  V30 66 C 3.8913 2.56353 -4.0723 0
M  V30 67 C 6.2433 2.43371 -4.6089 0
M  V30 68 C 3.5713 2.29461 -5.39967 0
M  V30 69 C 5.9233 2.18005 -5.93849 0
M  V30 70 C 4.5873 2.105 -6.3344 0
M  V30 71 H 3.8573 0.564851 -0.479609 0
M  V30 72 H 6.5043 0.906028 -1.68711 0
M  V30 73 H 4.8093 3.51253 -1.73576 0
M  V30 74 H 6.5063 3.40817 -2.11292 0
M  V30 75 H 3.0963 2.67774 -3.34656 0
M  V30 76 H 7.2803 2.46959 -4.30494 0
M  V30 77 H 2.5363 2.22135 -5.69619 0
M  V30 78 H 6.7103 2.02359 -6.66351 0
M  V30 79 H 4.3373 1.89425 -7.36222 0
M  V30 80 N 5.9124 1.20967 1.01018 0
M  V30 81 C 7.1424 1.04803 1.78044 0
M  V30 82 C 7.5504 -0.405462 1.84804 0
M  V30 83 O 6.8934 -1.2932 1.30468 0
M  V30 84 C 6.9554 1.56377 3.23707 0
M  V30 85 C 6.6194 3.04767 3.40538 0
M  V30 86 C 7.6164 4.02366 3.29239 0
M  V30 87 C 5.3014 3.43862 3.66147 0
M  V30 88 C 7.2954 5.37049 3.43304 0
M  V30 89 C 4.9824 4.78699 3.79855 0
M  V30 90 C 5.9804 5.75101 3.68439 0
M  V30 91 O 5.6684 7.07493 3.81719 0
M  V30 92 H 5.4004 0.368778 0.56655 0
M  V30 93 H 7.9544 1.60642 1.27997 0
M  V30 94 H 6.1844 0.949297 3.74867 0
M  V30 95 H 7.8734 1.36136 3.8239 0
M  V30 96 H 8.6394 3.73506 3.09384 0
M  V30 97 H 4.5184 2.69364 3.74118 0
M  V30 98 H 8.0624 6.12277 3.34309 0
M  V30 99 H 3.9594 5.07247 3.99213 0
M  V30 100 H 4.7274 7.1483 3.98697 0
M  V30 101 N 7.3905 -1.2043 1.01659 0
M  V30 102 C 8.3375 -2.23215 0.586822 0
M  V30 103 C 9.3075 -1.61382 -0.393085 0
M  V30 104 O 10.4925 -1.88544 -0.292525 0
M  V30 105 C 7.6325 -3.45032 -0.0687464 0
M  V30 106 C 6.7455 -4.21296 0.955724 0
M  V30 107 C 5.8805 -5.30507 0.271208 0
M  V30 108 C 4.9195 -5.98515 1.28244 0
M  V30 109 N 4.0565 -6.99316 0.62459 0
M  V30 110 H 8.8965 -2.59336 1.46796 0
M  V30 111 H 6.4335 -1.27431 0.734836 0
M  V30 112 H 8.3915 -4.1459 -0.465965 0
M  V30 113 H 7.0215 -3.09604 -0.913529 0
M  V30 114 H 6.0735 -3.50803 1.4711 0
M  V30 115 H 7.3855 -4.6803 1.72479 0
M  V30 116 H 6.5395 -6.06428 -0.18151 0
M  V30 117 H 5.2785 -4.8481 -0.530163 0
M  V30 118 H 4.2835 -5.21355 1.74554 0
M  V30 119 H 5.5085 -6.46298 2.08509 0
M  V30 120 H 3.4545 -6.55812 -0.156914 0
M  V30 121 H 3.3715 -7.44178 1.33172 0
M  V30 122 H 4.6395 -7.79255 0.195462 0
M  V30 123 N 8.8686 -0.792821 -1.36206 0
M  V30 124 C 10.2796 -0.429513 -1.81692 0
M  V30 125 C 10.6306 1.04695 -1.65932 0
M  V30 126 O 9.7556 1.81256 -1.18218 0
M  V30 127 C 10.3506 -0.772831 -3.29868 0
M  V30 128 C 8.9096 -0.462307 -3.7355 0
M  V30 129 C 8.0566 -1.00569 -2.5842 0
M  V30 130 H 11.0076 -0.985672 -1.24379 0
M  V30 131 H 11.0286 -0.0651928 -3.80444 0
M  V30 132 H 10.5406 -1.84747 -3.41307 0
M  V30 133 H 8.6416 0.604158 -3.67669 0
M  V30 134 H 8.7546 -0.985299 -4.68859 0
M  V30 135 H 7.1186 -0.428734 -2.51066 0
M  V30 136 H 7.9016 -2.08616 -2.72643 0
M  V30 137 N 10.3467 1.47872 -0.545128 0
M  V30 138 C 11.5947 2.02093 -0.016553 0
M  V30 139 C 11.9157 1.42305 1.3332 0
M  V30 140 O 11.1857 0.593853 1.86682 0
M  V30 141 H 9.7657 0.746993 -0.00313038 0
M  V30 142 H 12.4277 1.81414 -0.712397 0
M  V30 143 H 11.5237 3.11996 0.0805422 0
M  V30 144 N 11.8248 0.280983 1.55075 0
M  V30 145 C 12.7878 -0.590896 2.21452 0
M  V30 146 C 13.7878 -1.07682 1.19421 0
M  V30 147 O 14.9778 -0.97605 1.44288 0
M  V30 148 C 12.1098 -1.81587 2.88511 0
M  V30 149 H 13.3028 -0.0112554 2.99898 0
M  V30 150 H 10.8558 0.0316438 1.56268 0
M  V30 151 H 11.5908 -2.43587 2.14093 0
M  V30 152 H 11.3758 -1.4753 3.63287 0
M  V30 153 H 12.8658 -2.43575 3.39206 0
M  V30 154 N 13.3029 -1.57598 0.00835791 0
M  V30 155 C 14.5429 -1.92788 -0.679136 0
M  V30 156 C 14.9069 -0.883378 -1.70471 0
M  V30 157 O 16.1079 -1.12079 -2.44319 0
M  V30 158 C 14.3789 -3.32994 -1.29807 0
M  V30 159 S 15.9379 -3.90082 -2.00952 0
M  V30 160 H 12.7559 -0.67475 -0.224127 0
M  V30 161 H 15.3579 -1.95385 0.0670497 0
M  V30 162 H 14.0619 -4.06846 -0.538922 0
M  V30 163 H 13.5929 -3.33791 -2.082 0
M  V30 164 H 15.6079 -3.71834 -3.28563 0
M  V30 165 N 14.781 0.264519 -1.55364 0
M  V30 166 C 16.006 1.01726 -1.80739 0
M  V30 167 C 16.431 1.78836 -0.583044 0
M  V30 168 O 15.789 1.75167 0.467566 0
M  V30 169 C 15.837 1.94482 -3.03659 0
M  V30 170 O 14.941 3.03386 -2.7934 0
M  V30 171 H 14.282 0.290395 -0.597132 0
M  V30 172 H 16.812 0.290854 -2.02522 0
M  V30 173 H 16.822 2.36278 -3.32621 0
M  V30 174 H 15.497 1.37772 -3.92418 0
M  V30 175 H 14.074 2.65844 -2.61498 0
M  V30 176 N 16.2591 1.48442 0.529413 0
M  V30 177 C 17.1891 1.65902 1.64313 0
M  V30 178 C 18.1701 0.507897 1.6234 0
M  V30 179 O 19.3551 0.740503 1.79528 0
M  V30 180 C 16.4851 1.69911 3.02898 0
M  V30 181 C 15.4391 2.8453 3.19729 0
M  V30 182 C 14.7651 2.73629 4.59381 0
M  V30 183 C 16.0651 4.25821 3.02447 0
M  V30 184 H 17.7591 2.5914 1.49955 0
M  V30 185 H 15.3051 1.24709 0.719982 0
M  V30 186 H 17.2581 1.80715 3.80684 0
M  V30 187 H 15.9821 0.732524 3.18279 0
M  V30 188 H 14.6411 2.73283 2.44361 0
M  V30 189 H 14.2891 1.74938 4.71599 0
M  V30 190 H 13.9891 3.50541 4.71588 0
M  V30 191 H 15.5131 2.86401 5.39265 0
M  V30 192 H 16.9271 4.37898 3.70024 0
M  V30 193 H 15.3241 5.03735 3.26146 0
M  V30 194 H 16.3941 4.42244 1.98867 0
M  V30 195 N 17.7372 -0.778329 1.37039 0
M  V30 196 C 18.7002 -1.87301 1.32102 0
M  V30 197 C 19.7002 -1.59198 0.226405 0
M  V30 198 O 20.8902 -1.67403 0.481861 0
M  V30 199 C 18.0222 -3.24309 1.05055 0
M  V30 200 H 19.2152 -1.93093 2.29467 0
M  V30 201 H 16.7682 -0.977358 1.21973 0
M  V30 202 H 17.5032 -3.24196 0.0819373 0
M  V30 203 H 17.2882 -3.46098 1.84279 0
M  V30 204 H 18.7782 -4.04382 1.04234 0
M  V30 205 N 19.2153 -1.21501 -1.00376 0
M  V30 206 C 20.4403 -1.05977 -1.78279 0
M  V30 207 C 20.8653 0.385994 -1.84097 0
M  V30 208 O 20.2233 1.27849 -1.28547 0
M  V30 209 C 20.2713 -1.66302 -3.19963 0
M  V30 210 O 19.3753 -0.909333 -4.0225 0
M  V30 211 H 18.7163 -0.372906 -0.549397 0
M  V30 212 H 21.2463 -1.6107 -1.26165 0
M  V30 213 H 21.2563 -1.70574 -3.70632 0
M  V30 214 H 19.9313 -2.71515 -3.15043 0
M  V30 215 H 18.5083 -0.941795 -3.60811 0
M  V30 216 N 20.6934 1.19889 -1.02296 0
M  V30 217 C 21.6434 2.20777 -0.56934 0
M  V30 218 C 22.6274 1.56379 0.378741 0
M  V30 219 O 23.8194 1.75859 0.200673 0
M  V30 220 C 20.9484 3.43196 0.0845077 0
M  V30 221 C 20.0344 4.14749 -0.88566 0
M  V30 222 N 20.4254 4.62584 -2.04573 0
M  V30 223 C 18.7234 4.40347 -0.707835 0
M  V30 224 C 19.4244 5.17466 -2.65714 0
M  V30 225 N 18.4004 5.0791 -1.93723 0
M  V30 226 H 22.2024 2.55434 -1.45365 0
M  V30 227 H 19.7164 1.35897 -0.88915 0
M  V30 228 H 21.7134 4.14707 0.427067 0
M  V30 229 H 20.3734 3.10042 0.964574 0
M  V30 230 H 21.3844 4.57597 -2.4254 0
M  V30 231 H 18.0614 4.17317 0.12364 0
M  V30 232 H 19.4514 5.64808 -3.63925 0
M  V30 233 N 22.1715 0.800033 1.35784 0
M  V30 234 C 23.4205 0.37387 1.98205 0
M  V30 235 C 23.7335 -1.06302 1.64193 0
M  V30 236 O 24.9395 -1.59198 2.19928 0
M  V30 237 C 23.3955 0.617532 3.54562 0
M  V30 238 C 23.0035 2.06654 3.9749 0
M  V30 239 C 24.7475 0.256401 4.23725 0
M  V30 240 C 22.6545 2.2563 5.46667 0
M  V30 241 H 21.5845 0.136055 0.741623 0
M  V30 242 H 24.2355 0.983166 1.54939 0
M  V30 243 H 22.6175 -0.0616248 3.95952 0
M  V30 244 H 23.7915 2.78296 3.67271 0
M  V30 245 H 22.1065 2.38691 3.41197 0
M  V30 246 H 24.7035 0.376318 5.33374 0
M  V30 247 H 25.0465 -0.796692 4.08606 0
M  V30 248 H 25.5795 0.889214 3.87734 0
M  V30 249 H 22.3185 3.2936 5.66747 0
M  V30 250 H 21.8385 1.58504 5.78478 0
M  V30 251 H 23.5175 2.06861 6.1304 0
M  V30 252 N 23.6496 -1.47581 0.552962 0
M  V30 253 C 24.8776 -2.06875 0.0320556 0
M  V30 254 C 25.2926 -1.40625 -1.25976 0
M  V30 255 O 24.6496 -0.501349 -1.75479 0
M  V30 256 C 24.7006 -3.61092 -0.17167 0
M  V30 257 O 24.4216 -4.24858 1.06899 0
M  V30 258 C 25.9226 -4.37242 -0.730344 0
M  V30 259 H 23.1426 -0.669561 0.043915 0
M  V30 260 H 25.6866 -1.89646 0.765163 0
M  V30 261 H 23.8416 -3.7785 -0.854894 0
M  V30 262 H 24.2556 -5.17334 0.864059 0
M  V30 263 H 25.7296 -5.45842 -0.822203 0
M  V30 264 H 26.2066 -4.03235 -1.74064 0
M  V30 265 H 26.8126 -4.25219 -0.0829543 0
M  V30 266 N 25.1277 -0.289203 -1.54924 0
M  V30 267 C 26.0577 0.58549 -2.2604 0
M  V30 268 C 27.0387 1.14753 -1.25562 0
M  V30 269 O 28.2237 1.17906 -1.54311 0
M  V30 270 C 25.3537 1.76305 -2.99222 0
M  V30 271 C 24.3077 1.33191 -4.06748 0
M  V30 272 C 23.6337 2.5937 -4.6758 0
M  V30 273 C 24.9337 0.471775 -5.20165 0
M  V30 274 H 26.6277 -0.00763532 -2.99399 0
M  V30 275 H 24.1737 -0.00511229 -1.43999 0
M  V30 276 H 26.1267 2.38097 -3.47689 0
M  V30 277 H 24.8507 2.38223 -2.23422 0
M  V30 278 H 23.5097 0.737121 -3.59113 0
M  V30 279 H 23.1577 3.19576 -3.88433 0
M  V30 280 H 22.8577 2.31228 -5.40192 0
M  V30 281 H 24.3817 3.21985 -5.18804 0
M  V30 282 H 25.7957 0.995056 -5.64599 0
M  V30 283 H 24.1927 0.284639 -5.99425 0
M  V30 284 H 25.2627 -0.506041 -4.82252 0
M  V30 285 N 26.6058 1.57591 -0.0167156 0
M  V30 286 C 28.0218 1.55946 0.339557 0
M  V30 287 C 28.2218 1.02109 1.73713 0
M  V30 288 O 27.2778 0.662303 2.43659 0
M  V30 289 C 28.5908 3.00037 0.199499 0
M  V30 290 C 30.1388 3.11805 0.273193 0
M  V30 291 C 30.6138 4.57713 0.162068 0
M  V30 292 N 32.1048 4.6268 0.219444 0
M  V30 293 C 32.8398 5.73185 0.157054 0
M  V30 294 N 32.3358 6.92786 0.0442936 0
M  V30 295 N 34.1288 5.61707 0.21014 0
M  V30 296 H 26.2798 1.90921 -0.930758 0
M  V30 297 H 28.5428 0.877674 -0.358319 0
M  V30 298 H 28.2488 3.4333 -0.76273 0
M  V30 299 H 28.1228 3.64387 0.974786 0
M  V30 300 H 30.5098 2.68433 1.22587 0
M  V30 301 H 30.5908 2.50201 -0.532256 0
M  V30 302 H 30.2348 5.01763 -0.78714 0
M  V30 303 H 30.1648 5.17283 0.986222 0
M  V30 304 H 32.6558 3.76649 0.307246 0
M  V30 305 H 32.9688 7.728 0.00304069 0
M  V30 306 H 31.3138 6.94999 0.00968457 0
M  V30 307 H 34.5048 4.6716 0.296546 0
M  V30 308 H 34.6778 6.47807 0.158054 0
M  V30 309 N 28.0839 -0.256276 1.55502 0
M  V30 310 C 28.9939 -1.33882 1.92647 0
M  V30 311 C 30.0099 -1.53159 0.825727 0
M  V30 312 O 31.1859 -1.66963 1.12629 0
M  V30 313 C 28.2509 -2.6751 2.20543 0
M  V30 314 C 27.3119 -2.56836 3.43997 0
M  V30 315 C 26.5449 -3.84092 3.70553 0
M  V30 316 O 26.7679 -4.85545 2.99336 0
M  V30 317 O 25.7019 -3.83288 4.64084 0
M  V30 318 H 29.5279 -1.05374 2.84833 0
M  V30 319 H 27.1129 -0.456237 1.42263 0
M  V30 320 H 28.9949 -3.46492 2.39835 0
M  V30 321 H 27.6699 -2.9577 1.31536 0
M  V30 322 H 26.5769 -1.76172 3.30021 0
M  V30 323 H 27.9099 -2.33523 4.33275 0
M  V30 324 N 29.562 -1.4872 -0.521534 0
M  V30 325 C 30.787 -1.61101 -1.30618 0
M  V30 326 C 31.212 -0.274611 -1.86085 0
M  V30 327 O 30.57 0.754937 -1.64834 0
M  V30 328 C 30.618 -2.66709 -2.4269 0
M  V30 329 O 29.722 -2.24456 -3.45967 0
M  V30 330 H 29.063 -0.539921 -0.386499 0
M  V30 331 H 31.593 -1.94767 -0.626645 0
M  V30 332 H 31.603 -2.88245 -2.88754 0
M  V30 333 H 30.278 -3.63727 -2.01682 0
M  V30 334 H 28.855 -2.13168 -3.05964 0
M  V30 335 N 31.0401 0.771051 -1.3745 0
M  V30 336 C 32.2881 1.52661 -1.32435 0
M  V30 337 C 32.6091 1.9479 0.0905024 0
M  V30 338 O 31.8791 1.66348 1.03466 0
M  V30 339 H 30.4591 0.566218 -0.487244 0
M  V30 340 H 33.1211 0.917636 -1.71946 0
M  V30 341 H 32.2171 2.42568 -1.96385 0
M  V30 342 N 32.5182 1.22032 0.997298 0
M  V30 343 C 33.4652 0.986467 2.08656 0
M  V30 344 C 34.4352 -0.0902671 1.65855 0
M  V30 345 O 35.6202 0.0584294 1.90711 0
M  V30 346 C 32.7602 0.565569 3.40434 0
M  V30 347 C 31.8732 1.71259 3.96604 0
M  V30 348 C 31.0082 1.24011 5.16522 0
M  V30 349 C 30.0472 2.35896 5.64818 0
M  V30 350 N 29.1842 1.89726 6.7598 0
M  V30 351 H 34.0242 1.91892 2.27994 0
M  V30 352 H 31.5612 0.956199 1.11782 0
M  V30 353 H 33.5192 0.302738 4.161 0
M  V30 354 H 32.1492 -0.329879 3.2111 0
M  V30 355 H 31.2012 2.08986 3.17851 0
M  V30 356 H 32.5132 2.55436 4.28432 0
M  V30 357 H 31.6672 0.934395 5.99461 0
M  V30 358 H 30.4062 0.368487 4.86306 0
M  V30 359 H 29.4112 2.67261 4.8047 0
M  V30 360 H 30.6362 3.23567 5.97061 0
M  V30 361 H 28.5822 1.0492 6.47555 0
M  V30 362 H 28.4992 2.67471 7.07103 0
M  V30 363 H 29.7672 1.62211 7.62435 0
M  V30 364 N 33.9963 -1.19345 1.0293 0
M  V30 365 C 35.2733 -1.84811 0.640642 0
M  V30 366 C 35.6533 -1.91855 -0.88062 0
M  V30 367 O 35.0013 -1.43587 -1.7775 0
M  V30 368 C 35.2113 -3.23755 1.30321 0
M  V30 369 C 36.5593 -3.99912 1.42673 0
M  V30 370 O 37.5833 -3.33155 1.26041 0
M  V30 371 O 36.4423 -5.19494 1.6967 0
M  V30 372 H 33.5363 -0.796443 0.222726 0
M  V30 373 H 36.0823 -1.26831 1.12748 0
M  V30 374 H 34.8543 -3.13466 2.34211 0
M  V30 375 H 34.4773 -3.89381 0.804261 0
M  V30 376 N 35.4744 -0.807222 -1.35358 0
M  V30 377 C 36.7214 -0.387888 -1.9875 0
M  V30 378 C 37.0494 1.04509 -1.64037 0
M  V30 379 O 36.3044 1.73986 -0.895946 0
M  V30 380 C 36.6034 -0.519036 -3.53611 0
M  V30 381 C 36.2694 -1.91542 -4.08194 0
M  V30 382 C 34.9314 -2.29745 -4.22813 0
M  V30 383 C 37.2834 -2.82896 -4.37744 0
M  V30 384 C 34.6114 -3.58668 -4.643 0
M  V30 385 C 36.9634 -4.11265 -4.8067 0
M  V30 386 C 35.6274 -4.49466 -4.93494 0
M  V30 387 H 34.8974 -0.141938 -0.727279 0
M  V30 388 H 37.5444 -1.02814 -1.6156 0
M  V30 389 H 35.8494 0.204658 -3.91265 0
M  V30 390 H 37.5464 -0.175345 -4.00616 0
M  V30 391 H 34.1364 -1.60862 -3.97268 0
M  V30 392 H 38.3204 -2.54629 -4.26002 0
M  V30 393 H 33.5764 -3.88113 -4.72418 0
M  V30 394 H 37.7504 -4.82153 -5.02496 0
M  V30 395 H 35.3774 -5.49418 -5.25399 0
M  V30 396 N 36.9525 1.47285 -0.560781 0
M  V30 397 C 38.1805 2.06855 -0.0430262 0
M  V30 398 C 38.5955 1.41291 1.25229 0
M  V30 399 O 37.9525 0.510648 1.7521 0
M  V30 400 C 38.0035 3.61178 0.152518 0
M  V30 401 O 37.7245 4.24285 -1.0915 0
M  V30 402 C 39.2255 4.37624 0.707145 0
M  V30 403 H 36.4455 0.669319 -0.0474652 0
M  V30 404 H 38.9895 1.89237 -0.77521 0
M  V30 405 H 37.1445 3.78298 0.834843 0
M  V30 406 H 37.5585 5.16868 -0.891482 0
M  V30 407 H 39.0325 5.46271 0.793244 0
M  V30 408 H 39.5095 4.04152 1.71923 0
M  V30 409 H 40.1155 4.25257 0.0604027 0
M  V30 410 N 38.4306 0.297415 1.54768 0
M  V30 411 C 39.3606 -0.573494 2.26348 0
M  V30 412 C 40.3416 -1.14085 1.26169 0
M  V30 413 O 41.5266 -1.17086 1.54934 0
M  V30 414 C 38.6566 -1.74716 3.00153 0
M  V30 415 C 37.6106 -1.31032 4.07449 0
M  V30 416 C 36.9366 -2.56887 4.68949 0
M  V30 417 C 38.2366 -0.444183 5.20408 0
M  V30 418 H 39.9306 0.0235131 2.99391 0
M  V30 419 H 37.4766 0.0127488 1.43994 0
M  V30 420 H 39.4296 -2.3625 3.48947 0
M  V30 421 H 38.1536 -2.37035 2.24682 0
M  V30 422 H 36.8126 -0.718066 3.59499 0
M  V30 423 H 36.4606 -3.17512 3.90122 0
M  V30 424 H 36.1606 -2.2836 5.41411 0
M  V30 425 H 37.6846 -3.19229 5.20505 0
M  V30 426 H 39.0986 -0.9651 5.65118 0
M  V30 427 H 37.4956 -0.252846 5.99567 0
M  V30 428 H 38.5656 0.531609 4.81977 0
M  V30 429 N 39.9087 -1.5758 0.0250728 0
M  V30 430 C 41.1547 -1.91917 -0.655413 0
M  V30 431 C 41.4877 -0.901433 -1.72011 0
M  V30 432 O 40.7627 0.0764069 -1.9435 0
M  V30 433 C 41.0457 -3.36751 -1.27558 0
M  V30 434 C 40.8987 -4.49258 -0.220719 0
M  V30 435 C 42.2177 -3.81469 -2.19475 0
M  V30 436 H 39.3367 -0.697925 -0.23679 0
M  V30 437 H 41.9787 -1.89825 0.0815036 0
M  V30 438 H 40.1287 -3.38664 -1.90365 0
M  V30 439 H 41.8007 -4.59478 0.409601 0
M  V30 440 H 40.0437 -4.31415 0.454264 0
M  V30 441 H 40.7147 -5.47618 -0.694175 0
M  V30 442 H 43.1907 -3.81266 -1.66659 0
M  V30 443 H 42.0667 -4.83512 -2.59822 0
M  V30 444 H 42.3277 -3.16744 -3.08424 0
M  V30 445 N 41.3868 0.248026 -1.55636 0
M  V30 446 C 42.6118 0.998028 -1.81808 0
M  V30 447 C 43.0368 1.78207 -0.601979 0
M  V30 448 O 42.3948 1.75653 0.448961 0
M  V30 449 C 42.4428 1.9125 -3.05705 0
M  V30 450 O 41.5468 3.00406 -2.82542 0
M  V30 451 H 40.8878 0.284045 -0.600179 0
M  V30 452 H 43.4178 0.269357 -2.02819 0
M  V30 453 H 43.4278 2.32737 -3.35108 0
M  V30 454 H 42.1028 1.33602 -3.93857 0
M  V30 455 H 40.6798 2.63056 -2.64303 0
M  V30 456 N 42.8649 1.48995 0.513639 0
M  V30 457 C 44.1109 1.58076 1.27042 0
M  V30 458 C 44.4439 0.261026 1.92438 0
M  V30 459 O 43.7189 -0.734393 1.80103 0
M  V30 460 C 44.0019 2.73091 2.34719 0
M  V30 461 C 43.8549 4.14821 1.73907 0
M  V30 462 C 45.1739 2.83796 3.36375 0
M  V30 463 H 42.2929 0.575391 0.460536 0
M  V30 464 H 44.9349 1.81232 0.570516 0
M  V30 465 H 43.0849 2.53479 2.94416 0
M  V30 466 H 44.7569 4.45917 1.18135 0
M  V30 467 H 42.9999 4.21058 1.0437 0
M  V30 468 H 43.6709 4.91147 2.51949 0
M  V30 469 H 46.1469 3.01611 2.86653 0
M  V30 470 H 45.0229 3.65971 4.09093 0
M  V30 471 H 45.2839 1.92624 3.9793 0
M  V30 472 N 44.343 -0.763751 1.37857 0
M  V30 473 C 45.62 -1.51244 1.24035 0
M  V30 474 C 46 -2.10472 -0.162649 0
M  V30 475 O 45.348 -1.96206 -1.17112 0
M  V30 476 C 45.558 -2.58694 2.34261 0
M  V30 477 C 46.906 -3.25878 2.72193 0
M  V30 478 O 47.93 -2.68993 2.33497 0
M  V30 479 O 46.789 -4.2874 3.38887 0
M  V30 480 H 43.883 -0.670243 0.484462 0
M  V30 481 H 46.429 -0.800031 1.49658 0
M  V30 482 H 45.201 -2.13105 3.2818 0
M  V30 483 H 44.824 -3.37527 2.10146 0
M  V30 484 N 45.8211 -1.22559 -0.990812 0
M  V30 485 C 46.7511 -1.0218 -2.09956 0
M  V30 486 C 47.7321 0.0579394 -1.70001 0
M  V30 487 O 48.9171 -0.104684 -1.93918 0
M  V30 488 C 46.0471 -0.601023 -3.4206 0
M  V30 489 C 45.0011 -1.62694 -3.95872 0
M  V30 490 C 44.3271 -1.06193 -5.24049 0
M  V30 491 C 45.6271 -3.01743 -4.2632 0
M  V30 492 H 47.3211 -1.94916 -2.27262 0
M  V30 493 H 44.8671 -0.938566 -1.09211 0
M  V30 494 H 46.8201 -0.445561 -4.19038 0
M  V30 495 H 45.5441 0.362005 -3.24588 0
M  V30 496 H 44.2031 -1.77021 -3.21028 0
M  V30 497 H 43.8511 -0.0901903 -5.02919 0
M  V30 498 H 43.5511 -1.74732 -5.61019 0
M  V30 499 H 45.0751 -0.918092 -6.03658 0
M  V30 500 H 46.4891 -2.90777 -4.94087 0
M  V30 501 H 44.8861 -3.67425 -4.74467 0
M  V30 502 H 45.9561 -3.51518 -3.34011 0
M  V30 503 N 47.2992 1.18797 -1.03562 0
M  V30 504 C 48.2322 2.2105 -0.56676 0
M  V30 505 C 49.2102 1.57704 0.395993 0
M  V30 506 O 50.3942 1.85908 0.311498 0
M  V30 507 C 47.5212 3.38259 0.172704 0
M  V30 508 C 46.5672 4.19987 -0.74252 0
M  V30 509 S 47.4002 4.87199 -2.22254 0
M  V30 510 C 48.5562 6.07813 -1.49379 0
M  V30 511 H 48.7892 2.60478 -1.43312 0
M  V30 512 H 46.3222 1.29151 -0.846133 0
M  V30 513 H 48.2802 4.06191 0.593191 0
M  V30 514 H 46.9412 2.97252 1.01488 0
M  V30 515 H 46.1342 5.03709 -0.171265 0
M  V30 516 H 45.7362 3.57408 -1.10163 0
M  V30 517 H 48.0282 6.72948 -0.784056 0
M  V30 518 H 48.9712 6.69435 -2.30786 0
M  V30 519 H 49.3792 5.55781 -0.988331 0
M  V30 520 N 48.7773 0.814389 1.34928 0
M  V30 521 C 49.7243 0.22822 2.29669 0
M  V30 522 C 50.6943 -0.642164 1.53184 0
M  V30 523 O 51.8793 -0.585605 1.81591 0
M  V30 524 C 49.0193 -0.61089 3.3965 0
M  V30 525 C 48.1323 0.280792 4.31086 0
M  V30 526 C 47.2673 -0.567067 5.28165 0
M  V30 527 C 46.3063 0.324531 6.11239 0
M  V30 528 N 45.4433 -0.483756 7.00431 0
M  V30 529 H 50.2833 1.04153 2.79206 0
M  V30 530 H 47.8203 0.525133 1.37407 0
M  V30 531 H 49.7783 -1.11263 4.0209 0
M  V30 532 H 48.4083 -1.38939 2.91369 0
M  V30 533 H 47.4603 0.900688 3.69583 0
M  V30 534 H 48.7723 0.966723 4.89342 0
M  V30 535 H 47.9263 -1.13363 5.96015 0
M  V30 536 H 46.6653 -1.28654 4.70425 0
M  V30 537 H 45.6703 0.903298 5.42329 0
M  V30 538 H 46.8953 1.04198 6.71059 0
M  V30 539 H 44.8413 -1.18706 6.45171 0
M  V30 540 H 44.7583 0.143965 7.55863 0
M  V30 541 H 46.0263 -1.03334 7.7262 0
M  V30 542 N 50.2554 -1.46986 0.568584 0
M  V30 543 C 51.2024 -2.30153 -0.172707 0
M  V30 544 C 52.1724 -1.39759 -0.897586 0
M  V30 545 O 53.3574 -1.68716 -0.891044 0
M  V30 546 C 50.4974 -3.23952 -1.1895 0
M  V30 547 C 49.6104 -4.29441 -0.469517 0
M  V30 548 C 48.7454 -5.1038 -1.47259 0
M  V30 549 C 47.7844 -6.07632 -0.738225 0
M  V30 550 N 46.9214 -6.8149 -1.68868 0
M  V30 551 H 51.7614 -2.93019 0.542596 0
M  V30 552 H 49.2984 -1.44422 0.279401 0
M  V30 553 H 51.2564 -3.76767 -1.79173 0
M  V30 554 H 49.8864 -2.62926 -1.87269 0
M  V30 555 H 48.9384 -3.79594 0.247467 0
M  V30 556 H 50.2504 -4.98689 0.105241 0
M  V30 557 H 49.4044 -5.67402 -2.14803 0
M  V30 558 H 48.1434 -4.4106 -2.08128 0
M  V30 559 H 47.1484 -5.49778 -0.0489293 0
M  V30 560 H 48.3734 -6.78966 -0.135129 0
M  V30 561 H 46.3194 -6.14891 -2.28573 0
M  V30 562 H 46.2364 -7.46948 -1.16636 0
M  V30 563 H 47.5044 -7.43078 -2.3549 0
M  V30 564 N 51.7335 -0.305618 -1.54608 0
M  V30 565 C 53.1495 0.0476228 -1.59529 0
M  V30 566 C 53.3495 1.52025 -1.32252 0
M  V30 567 O 52.4055 2.27368 -1.09818 0
M  V30 568 C 53.7185 -0.354471 -2.98603 0
M  V30 569 C 55.2665 -0.303622 -3.11524 0
M  V30 570 C 55.7415 -0.680608 -4.52915 0
M  V30 571 N 57.2325 -0.63332 -4.5885 0
M  V30 572 C 57.9675 -0.897432 -5.66334 0
M  V30 573 N 57.4635 -1.22775 -6.81834 0
M  V30 574 N 59.2565 -0.824186 -5.56025 0
M  V30 575 H 51.4075 -1.2653 -1.70599 0
M  V30 576 H 53.6705 -0.513291 -0.797017 0
M  V30 577 H 53.3765 -1.3798 -3.23503 0
M  V30 578 H 53.2505 0.289568 -3.76087 0
M  V30 579 H 55.6375 0.712472 -2.8637 0
M  V30 580 H 55.7185 -0.982348 -2.36185 0
M  V30 581 H 55.3625 -1.69453 -4.78799 0
M  V30 582 H 55.2925 0.0202385 -5.26596 0
M  V30 583 H 57.7835 -0.389138 -3.75891 0
M  V30 584 H 58.0965 -1.41513 -7.59733 0
M  V30 585 H 56.4415 -1.26583 -6.83375 0
M  V30 586 H 59.6325 -0.565748 -4.64669 0
M  V30 587 H 59.8055 -1.03338 -6.39707 0
M  V30 588 N 53.2116 1.57565 -0.0334293 0
M  V30 589 C 54.1416 2.13511 0.945265 0
M  V30 590 C 55.1226 1.05231 1.33643 0
M  V30 591 O 56.3076 1.33084 1.41429 0
M  V30 592 C 53.4376 2.6657 2.22616 0
M  V30 593 C 52.3916 3.79676 1.97561 0
M  V30 594 C 51.7176 4.1918 3.31952 0
M  V30 595 C 53.0176 5.0557 1.31135 0
M  V30 596 H 54.7116 2.95538 0.479325 0
M  V30 597 H 52.2576 1.42166 0.229115 0
M  V30 598 H 54.2106 3.04344 2.91466 0
M  V30 599 H 52.9346 1.8171 2.71384 0
M  V30 600 H 51.5936 3.42347 1.31127 0
M  V30 601 H 51.2416 3.31296 3.78487 0
M  V30 602 H 50.9416 4.95402 3.15992 0
M  V30 603 H 52.4656 4.59541 4.02063 0
M  V30 604 H 53.8796 5.40903 1.89992 0
M  V30 605 H 52.2766 5.86818 1.25559 0
M  V30 606 H 53.3466 4.84062 0.284894 0
M  V30 607 N 54.6897 -0.239769 1.55765 0
M  V30 608 C 55.5997 -1.31831 1.94056 0
M  V30 609 C 56.6157 -1.52275 0.841925 0
M  V30 610 O 57.7917 -1.65759 1.14394 0
M  V30 611 C 54.8567 -2.65156 2.23368 0
M  V30 612 C 53.9177 -2.53173 3.46701 0
M  V30 613 C 53.1507 -3.8014 3.74606 0
M  V30 614 O 53.3737 -4.82343 3.04469 0
M  V30 615 O 52.3077 -3.78344 4.68123 0
M  V30 616 H 56.1337 -1.02347 2.85935 0
M  V30 617 H 53.7187 -0.441123 1.42739 0
M  V30 618 H 55.6007 -3.43929 2.43497 0
M  V30 619 H 54.2757 -2.94358 1.34666 0
M  V30 620 H 53.1827 -1.72662 3.31871 0
M  V30 621 H 54.5157 -2.28915 4.35728 0
M  V30 622 N 56.1678 -1.49265 -0.50573 0
M  V30 623 C 57.1158 -1.66065 -1.62866 0
M  V30 624 C 58.1098 -0.526636 -1.61006 0
M  V30 625 O 59.3158 -0.706126 -1.65571 0
M  V30 626 H 55.6908 -0.52356 -0.539805 0
M  V30 627 H 57.6618 -2.60329 -1.45848 0
M  V30 628 C 56.4108 -1.74008 -3.01026 0
M  V30 629 H 55.7338 -2.6064 -3.03161 0
M  V30 630 H 57.1738 -1.89798 -3.79147 0
M  V30 631 C 55.6328 -0.483868 -3.33407 0
M  V30 632 O 56.1628 0.392548 -3.99777 0
M  V30 633 N 54.3688 -0.348236 -2.88506 0
M  V30 634 H 53.9158 -1.06242 -2.34671 0
M  V30 635 H 53.8738 0.491204 -3.10539 0
M  V30 636 N 57.6459 0.756429 -1.3826 0
M  V30 637 C 58.8939 1.51248 -1.34047 0
M  V30 638 C 59.2149 1.94875 0.0698372 0
M  V30 639 O 58.4849 1.67436 1.01696 0
M  V30 640 H 57.0649 0.561018 -0.493222 0
M  V30 641 H 59.7269 0.899347 -1.7291 0
M  V30 642 H 58.8229 2.40472 -1.98947 0
M  V30 643 N 59.124 1.23083 0.984299 0
M  V30 644 C 60.401 0.9689 1.69917 0
M  V30 645 C 60.781 -0.513604 2.04757 0
M  V30 646 O 60.129 -1.48383 1.73767 0
M  V30 647 C 60.339 1.87518 2.94343 0
M  V30 648 C 61.687 2.13636 3.6694 0
M  V30 649 O 62.711 1.85036 3.04368 0
M  V30 650 O 61.57 2.62119 4.79537 0
M  V30 651 H 58.664 0.365095 0.742048 0
M  V30 652 H 61.21 1.34107 1.03987 0
M  V30 653 H 59.982 2.87756 2.65164 0
M  V30 654 H 59.605 1.50514 3.6801 0
M  V30 655 N 60.6021 -1.18246 1.0419 0
M  V30 656 C 61.8791 -1.84121 0.660208 0
M  V30 657 C 62.2591 -1.92778 -0.860221 0
M  V30 658 O 61.6071 -1.45464 -1.76217 0
M  V30 659 C 61.8171 -3.22355 1.33747 0
M  V30 660 C 63.1651 -3.98376 1.46906 0
M  V30 661 O 64.1891 -3.31799 1.29568 0
M  V30 662 O 63.0481 -5.17665 1.75171 0
M  V30 663 H 60.1421 -0.794036 0.231161 0
M  V30 664 H 62.6881 -1.25628 1.14087 0
M  V30 665 H 61.4601 -3.10964 2.37522 0
M  V30 666 H 61.0831 -3.88506 0.845515 0
M  V30 667 N 62.0802 -0.821533 -1.34494 0
M  V30 668 C 63.3102 -0.421272 -2.02259 0
M  V30 669 C 63.7182 0.977047 -1.6202 0
M  V30 670 O 63.0612 1.64348 -0.820703 0
M  V30 671 C 63.1232 -0.44231 -3.56769 0
M  V30 672 C 62.7872 -1.79372 -4.20327 0
M  V30 673 C 63.7842 -2.75435 -4.40944 0
M  V30 674 C 61.4692 -2.08182 -4.57127 0
M  V30 675 C 63.4632 -3.98482 -4.97484 0
M  V30 676 C 61.1502 -3.31489 -5.13379 0
M  V30 677 C 62.1482 -4.26457 -5.33501 0
M  V30 678 O 61.8362 -5.47585 -5.88562 0
M  V30 679 H 61.5682 -0.167473 -0.654927 0
M  V30 680 H 64.1222 -1.11073 -1.72777 0
M  V30 681 H 62.3522 0.303836 -3.85505 0
M  V30 682 H 64.0412 -0.0622925 -4.05852 0
M  V30 683 H 64.8072 -2.54473 -4.12878 0
M  V30 684 H 60.6862 -1.35066 -4.4077 0
M  V30 685 H 64.2302 -4.72618 -5.13106 0
M  V30 686 H 60.1272 -3.52316 -5.40873 0
M  V30 687 H 60.8952 -5.49086 -6.06998 0
M  V30 688 N 63.5583 1.46682 -0.576371 0
M  V30 689 C 64.8053 2.02412 -0.0595339 0
M  V30 690 C 65.1333 1.44859 1.29793 0
M  V30 691 O 64.3883 0.601099 1.8624 0
M  V30 692 C 64.6873 3.57345 0.062886 0
M  V30 693 C 64.3533 4.33908 -1.22616 0
M  V30 694 C 63.0153 4.54544 -1.57933 0
M  V30 695 C 65.3673 4.77919 -2.07948 0
M  V30 696 C 62.6953 5.16444 -2.78393 0
M  V30 697 C 65.0473 5.41149 -3.27629 0
M  V30 698 C 63.7113 5.60014 -3.63236 0
M  V30 699 H 62.9813 0.74068 -0.021785 0
M  V30 700 H 65.6283 1.76128 -0.751735 0
M  V30 701 H 63.9333 3.82729 0.838178 0
M  V30 702 H 65.6303 3.98136 0.478439 0
M  V30 703 H 62.2203 4.18138 -0.941202 0
M  V30 704 H 66.4043 4.61738 -1.81967 0
M  V30 705 H 61.6603 5.29242 -3.06126 0
M  V30 706 H 65.8343 5.74211 -3.94023 0
M  V30 707 H 63.4613 6.07748 -4.56669 0
M  V30 708 N 65.0364 0.313813 1.54444 0
M  V30 709 C 65.9994 -0.54379 2.22656 0
M  V30 710 C 66.9994 -1.05124 1.21678 0
M  V30 711 O 68.1894 -0.945225 1.46325 0
M  V30 712 C 65.3214 -1.75427 2.92298 0
M  V30 713 H 66.5144 0.0523599 2.99854 0
M  V30 714 H 64.0674 0.0647834 1.56166 0
M  V30 715 H 64.8024 -2.38991 2.19211 0
M  V30 716 H 64.5874 -1.39791 3.66334 0
M  V30 717 H 66.0774 -2.36325 3.44297 0
M  V30 718 N 66.5145 -1.57545 0.0417849 0
M  V30 719 C 67.7605 -1.92601 -0.635021 0
M  V30 720 C 68.0935 -0.919627 -1.71045 0
M  V30 721 O 67.3685 0.0557892 -1.9442 0
M  V30 722 C 67.6515 -3.38085 -1.23979 0
M  V30 723 C 67.5045 -4.49467 -0.173057 0
M  V30 724 C 68.8235 -3.83776 -2.15416 0
M  V30 725 H 65.9425 -0.700397 -0.229374 0
M  V30 726 H 68.5845 -1.89728 0.101633 0
M  V30 727 H 66.7345 -3.40664 -1.86762 0
M  V30 728 H 68.4065 -4.59018 0.458312 0
M  V30 729 H 66.6495 -4.30909 0.499996 0
M  V30 730 H 67.3205 -5.48323 -0.636054 0
M  V30 731 H 69.7965 -3.83013 -1.62605 0
M  V30 732 H 68.6725 -4.8624 -2.54679 0
M  V30 733 H 68.9335 -3.19998 -3.05047 0
M  V30 734 N 67.9926 0.231505 -1.5589 0
M  V30 735 C 68.9406 1.30649 -1.92441 0
M  V30 736 C 69.9346 1.49037 -0.805254 0
M  V30 737 O 71.1406 1.50329 -0.990007 0
M  V30 738 H 67.5156 0.437812 -0.611412 0
M  V30 739 H 69.4866 0.970973 -2.82161 0
M  V30 740 C 68.2356 2.65179 -2.24889 0
M  V30 741 H 67.5586 2.51835 -3.10514 0
M  V30 742 H 68.9986 3.39234 -2.54355 0
M  V30 743 C 67.4576 3.19439 -1.07054 0
M  V30 744 O 67.9876 4.00371 -0.326499 0
M  V30 745 N 66.1936 2.77675 -0.85703 0
M  V30 746 H 65.7406 2.11969 -1.46379 0
M  V30 747 H 65.6986 3.14321 -0.0703223 0
M  V30 748 N 69.4707 1.49531 0.497807 0
M  V30 749 C 70.8817 1.52344 1.07927 0
M  V30 750 C 71.2327 0.311469 1.93712 0
M  V30 751 O 70.3577 -0.578405 2.08527 0
M  V30 752 C 70.9527 2.76062 1.96405 0
M  V30 753 C 69.5117 2.81643 2.49709 0
M  V30 754 C 68.6587 2.46299 1.27404 0
M  V30 755 H 71.6097 1.56182 0.281576 0
M  V30 756 H 71.6307 2.56405 2.81135 0
M  V30 757 H 71.1427 3.64254 1.33943 0
M  V30 758 H 69.2437 1.97739 3.15801 0
M  V30 759 H 69.3567 3.83891 2.86643 0
M  V30 760 H 67.7207 1.98148 1.60029 0
M  V30 761 H 68.5037 3.36769 0.66645 0
M  V30 762 N 70.9488 -0.749086 1.3866 0
M  V30 763 C 71.8958 -1.86291 1.36251 0
M  V30 764 C 72.8658 -1.64578 0.224347 0
M  V30 765 O 74.0508 -1.86181 0.417279 0
M  V30 766 C 71.1908 -3.23644 1.19786 0
M  V30 767 C 70.3038 -3.57158 2.43027 0
M  V30 768 C 69.4388 -4.83838 2.19258 0
M  V30 769 C 68.4778 -5.10152 3.38247 0
M  V30 770 N 67.6148 -6.28029 3.13884 0
M  V30 771 H 72.4548 -1.87685 2.3147 0
M  V30 772 H 69.9918 -0.917287 1.14997 0
M  V30 773 H 71.9498 -4.0291 1.08254 0
M  V30 774 H 70.5798 -3.21566 0.282031 0
M  V30 775 H 69.6318 -2.72701 2.65214 0
M  V30 776 H 70.9438 -3.7253 3.31697 0
M  V30 777 H 70.0978 -5.71057 2.04888 0
M  V30 778 H 68.8368 -4.70614 1.2796 0
M  V30 779 H 67.8418 -4.21401 3.53131 0
M  V30 780 H 69.0668 -5.25271 4.30427 0
M  V30 781 H 67.0128 -6.1612 2.25238 0
M  V30 782 H 66.9298 -6.43922 3.96106 0
M  V30 783 H 68.1978 -7.18124 3.03179 0
M  V30 784 N 72.4269 -1.23603 -0.977757 0
M  V30 785 C 73.6749 -1.06759 -1.71601 0
M  V30 786 C 73.9959 0.395929 -1.90938 0
M  V30 787 O 73.2659 1.28356 -1.47992 0
M  V30 788 H 71.8459 -0.392062 -0.635843 0
M  V30 789 H 74.5079 -1.55362 -1.1768 0
M  V30 790 H 73.6039 -1.55763 -2.70452 0
M  V30 791 N 73.905 1.17692 -1.04816 0
M  V30 792 C 74.837 2.21103 -0.603822 0
M  V30 793 C 75.85 1.59411 0.33046 0
M  V30 794 O 77.039 1.7807 0.12379 0
M  V30 795 C 74.139 3.38623 0.136898 0
M  V30 796 C 73.312 4.29888 -0.807137 0
M  V30 797 C 72.371 5.26088 -0.10836 0
M  V30 798 O 71.397 5.64353 -0.741232 0
M  V30 799 N 72.599 5.68882 1.15558 0
M  V30 800 H 75.364 2.59848 -1.49329 0
M  V30 801 H 72.925 1.32553 -0.929587 0
M  V30 802 H 74.917 4.00009 0.614401 0
M  V30 803 H 73.487 2.98508 0.927993 0
M  V30 804 H 72.707 3.65993 -1.46434 0
M  V30 805 H 73.995 4.87759 -1.44807 0
M  V30 806 H 73.393 5.39861 1.69015 0
M  V30 807 H 71.95 6.32429 1.57722 0
M  V30 808 N 75.3831 0.828654 1.34056 0
M  V30 809 C 76.6291 0.42008 1.98402 0
M  V30 810 C 76.9621 -1.01564 1.65525 0
M  V30 811 O 76.2371 -1.70834 0.929831 0
M  V30 812 C 76.5201 0.62927 3.54559 0
M  V30 813 C 76.3731 2.11152 3.97159 0
M  V30 814 C 77.6921 0.0688756 4.40046 0
M  V30 815 H 74.8111 0.154104 0.720709 0
M  V30 816 H 77.4531 1.04228 1.5886 0
M  V30 817 H 75.6031 0.0996418 3.88372 0
M  V30 818 H 77.2751 2.70522 3.73651 0
M  V30 819 H 75.5181 2.59985 3.47261 0
M  V30 820 H 76.1891 2.20868 5.05887 0
M  V30 821 H 78.6651 0.521458 4.1282 0
M  V30 822 H 77.5411 0.245006 5.48353 0
M  V30 823 H 77.8021 -1.0266 4.30015 0
M  V30 824 N 76.8612 -1.46375 0.584142 0
M  V30 825 C 78.2722 -1.86031 0.157959 0
M  V30 826 C 78.6232 -1.48753 -1.27933 0
M  V30 827 O 77.7482 -0.903098 -1.96655 0
M  V30 828 C 78.3432 -3.37642 0.279892 0
M  V30 829 C 76.9022 -3.76289 -0.09143 0
M  V30 830 C 76.0492 -2.7039 0.615178 0
M  V30 831 H 79.0002 -1.37509 0.792274 0
M  V30 832 H 79.0212 -3.77275 -0.494364 0
M  V30 833 H 78.5332 -3.64742 1.32607 0
M  V30 834 H 76.6342 -3.54806 -1.13769 0
M  V30 835 H 76.7472 -4.78246 0.285886 0
M  V30 836 H 75.1112 -2.5464 0.0552833 0
M  V30 837 H 75.8942 -3.0033 1.66303 0
M  V30 838 N 78.3393 -0.321999 -1.54275 0
M  V30 839 C 79.3023 0.531975 -2.22941 0
M  V30 840 C 80.3023 1.04478 -1.22234 0
M  V30 841 O 81.4923 0.937452 -1.46825 0
M  V30 842 C 78.6243 1.73874 -2.93224 0
M  V30 843 H 79.8173 -0.0682612 -2.99822 0
M  V30 844 H 77.3703 -0.0730644 -1.56129 0
M  V30 845 H 78.1053 2.37825 -2.20476 0
M  V30 846 H 77.8903 1.37847 -3.6707 0
M  V30 847 H 79.3803 2.34496 -3.45545 0
M  V30 848 N 79.8174 1.5752 -0.0501392 0
M  V30 849 C 80.7474 2.14502 0.922566 0
M  V30 850 C 81.7284 1.06642 1.3252 0
M  V30 851 O 82.9134 1.34577 1.4001 0
M  V30 852 C 80.0434 2.68916 2.19776 0
M  V30 853 C 78.9974 3.8175 1.93523 0
M  V30 854 C 78.3234 4.22677 3.27487 0
M  V30 855 C 79.6234 5.06932 1.25765 0
M  V30 856 H 81.3174 2.9603 0.447952 0
M  V30 857 H 78.8634 1.42401 0.214024 0
M  V30 858 H 80.8164 3.07419 2.88222 0
M  V30 859 H 79.5404 1.84578 2.69441 0
M  V30 860 H 78.1994 3.43718 1.27489 0
M  V30 861 H 77.8474 3.35291 3.74952 0
M  V30 862 H 77.5474 4.98725 3.1072 0
M  V30 863 H 79.0714 4.63779 3.97166 0
M  V30 864 H 80.4854 5.42888 1.84244 0
M  V30 865 H 78.8824 5.88116 1.19328 0
M  V30 866 H 79.9524 4.84337 0.233536 0
M  V30 867 N 81.2955 -0.223234 1.56011 0
M  V30 868 C 82.2255 -1.27988 1.95298 0
M  V30 869 C 83.2065 -1.48976 0.820979 0
M  V30 870 O 84.3915 -1.61188 1.08315 0
M  V30 871 C 81.5215 -2.63 2.26822 0
M  V30 872 C 80.4755 -2.56671 3.42497 0
M  V30 873 C 79.8015 -3.95697 3.59622 0
M  V30 874 C 81.1015 -2.11601 4.77517 0
M  V30 875 H 82.7955 -0.953525 2.8381 0
M  V30 876 H 80.3415 -0.457244 1.36548 0
M  V30 877 H 82.2945 -3.37077 2.52898 0
M  V30 878 H 81.0185 -2.9732 1.35161 0
M  V30 879 H 79.6775 -1.85051 3.16467 0
M  V30 880 H 79.3255 -4.27322 2.6534 0
M  V30 881 H 79.0255 -3.92345 4.37424 0
M  V30 882 H 80.5495 -4.71438 3.88044 0
M  V30 883 H 81.9635 -2.7542 5.02809 0
M  V30 884 H 80.3605 -2.19311 5.5859 0
M  V30 885 H 81.4305 -1.06824 4.72987 0
M  V30 886 N 82.7736 -1.49793 -0.48987 0
M  V30 887 C 83.7036 -1.70201 -1.59856 0
M  V30 888 C 84.6846 -0.55076 -1.60937 0
M  V30 889 O 85.8696 -0.787841 -1.77501 0
M  V30 890 C 82.9996 -1.77882 -2.98287 0
M  V30 891 C 81.9536 -2.92907 -3.12073 0
M  V30 892 C 81.2796 -2.85712 -4.51965 0
M  V30 893 C 82.5796 -4.3369 -2.91051 0
M  V30 894 H 84.2736 -2.63025 -1.43032 0
M  V30 895 H 81.8196 -1.26574 -0.686664 0
M  V30 896 H 83.7726 -1.90744 -3.75759 0
M  V30 897 H 82.4966 -0.816653 -3.16225 0
M  V30 898 H 81.1556 -2.79665 -2.37029 0
M  V30 899 H 80.8036 -1.8738 -4.66795 0
M  V30 900 H 80.5036 -3.62921 -4.62128 0
M  V30 901 H 82.0276 -3.00598 -5.31482 0
M  V30 902 H 83.4416 -4.47555 -3.58284 0
M  V30 903 H 81.8386 -5.12205 -3.12675 0
M  V30 904 H 82.9086 -4.47362 -1.87071 0
M  V30 905 N 84.2517 0.741722 -1.39055 0
M  V30 906 C 85.5287 1.49252 -1.26425 0
M  V30 907 C 85.9087 2.10705 0.129144 0
M  V30 908 O 85.2567 1.98045 1.13976 0
M  V30 909 C 85.4667 2.54934 -2.38347 0
M  V30 910 C 86.8147 3.21506 -2.77343 0
M  V30 911 O 87.8387 2.65245 -2.37747 0
M  V30 912 O 86.6977 4.23294 -3.45665 0
M  V30 913 H 83.7917 0.662451 -0.495064 0
M  V30 914 H 86.3377 0.776121 -1.50912 0
M  V30 915 H 85.1097 2.07857 -3.31529 0
M  V30 916 H 84.7327 3.34141 -2.15489 0
M  V30 917 N 85.7298 1.2412 0.971189 0
M  V30 918 C 87.0068 0.986867 1.6888 0
M  V30 919 C 87.3868 -0.491857 2.0529 0
M  V30 920 O 86.7348 -1.46531 1.75331 0
M  V30 921 C 86.9448 1.9063 2.92338 0
M  V30 922 C 88.2928 2.17515 3.64654 0
M  V30 923 O 89.3168 1.88254 3.02388 0
M  V30 924 O 88.1758 2.6719 4.7673 0
M  V30 925 H 85.2698 0.372944 0.738134 0
M  V30 926 H 87.8158 1.35203 1.02559 0
M  V30 927 H 86.5878 2.90552 2.62097 0
M  V30 928 H 86.2108 1.54408 3.66393 0
M  V30 929 N 87.2079 -1.17134 1.05439 0
M  V30 930 C 88.4559 -1.87085 0.764429 0
M  V30 931 C 88.7769 -1.81584 -0.710787 0
M  V30 932 O 88.0469 -1.24349 -1.51374 0
M  V30 933 H 86.6269 -0.692627 0.279779 0
M  V30 934 H 89.2889 -1.42087 1.33406 0
M  V30 935 H 88.3849 -2.92759 1.0816 0
M  V30 936 N 88.686 -0.835752 -1.33615 0
M  V30 937 C 89.914 -0.443344 -2.02094 0
M  V30 938 C 90.329 0.954522 -1.62894 0
M  V30 939 O 89.686 1.61982 -0.840723 0
M  V30 940 C 89.737 -0.550775 -3.5728 0
M  V30 941 O 89.458 -1.89356 -3.95065 0
M  V30 942 C 90.959 -0.154919 -4.43029 0
M  V30 943 H 88.179 -0.176359 -0.647409 0
M  V30 944 H 90.723 -1.12746 -1.70612 0
M  V30 945 H 88.878 0.0853997 -3.87306 0
M  V30 946 H 89.292 -1.87687 -4.89769 0
M  V30 947 H 90.766 -0.281144 -5.51284 0
M  V30 948 H 91.243 0.902863 -4.2982 0
M  V30 949 H 91.849 -0.765404 -4.18356 0
M  V30 950 N 90.1641 1.46063 -0.591896 0
M  V30 951 C 91.0941 2.33172 0.123673 0
M  V30 952 C 92.0751 1.45897 0.87453 0
M  V30 953 O 93.2601 1.74698 0.848181 0
M  V30 954 C 90.3901 3.28336 1.13194 0
M  V30 955 C 89.3441 4.25124 0.495324 0
M  V30 956 C 88.6701 5.09863 1.61071 0
M  V30 957 C 89.9701 5.19143 -0.573425 0
M  V30 958 H 91.6641 2.93252 -0.603646 0
M  V30 959 H 89.2101 1.41014 -0.291741 0
M  V30 960 H 91.1631 3.88137 1.64097 0
M  V30 961 H 89.8871 2.66383 1.88965 0
M  V30 962 H 88.5461 3.66599 0.00729452 0
M  V30 963 H 88.1941 4.44288 2.35832 0
M  V30 964 H 87.8941 5.75417 1.19035 0
M  V30 965 H 89.4181 5.72529 2.12233 0
M  V30 966 H 90.8321 5.73106 -0.1491 0
M  V30 967 H 89.2291 5.93089 -0.914636 0
M  V30 968 H 90.2991 4.62519 -1.45617 0
M  V30 969 N 91.6422 0.330177 1.54103 0
M  V30 970 C 92.5722 -0.525353 2.27513 0
M  V30 971 C 93.5532 -1.11383 1.2856 0
M  V30 972 O 94.7382 -1.13773 1.57383 0
M  V30 973 C 91.8682 -1.6831 3.03791 0
M  V30 974 C 90.8222 -1.2236 4.10137 0
M  V30 975 C 90.1482 -2.46882 4.74293 0
M  V30 976 C 91.4482 -0.333697 5.21233 0
M  V30 977 H 93.1422 0.087013 2.99274 0
M  V30 978 H 90.6882 0.0432893 1.43935 0
M  V30 979 H 92.6412 -2.28795 3.5388 0
M  V30 980 H 91.3652 -2.32216 2.29659 0
M  V30 981 H 90.0242 -0.64165 3.60941 0
M  V30 982 H 89.6722 -3.09165 3.96769 0
M  V30 983 H 89.3722 -2.16825 5.46133 0
M  V30 984 H 90.8962 -3.08117 5.27159 0
M  V30 985 H 92.3102 -0.845013 5.67038 0
M  V30 986 H 90.7072 -0.125612 5.99969 0
M  V30 987 H 91.7772 0.633724 4.80741 0
M  V30 988 N 93.1203 -1.57491 0.0584922 0
M  V30 989 C 94.3483 -1.97296 -0.623037 0
M  V30 990 C 94.7633 -0.936338 -1.63946 0
M  V30 991 O 94.1203 0.0785981 -1.82331 0
M  V30 992 C 94.1713 -3.37183 -1.30345 0
M  V30 993 O 93.8923 -4.36872 -0.32773 0
M  V30 994 C 95.3933 -3.91788 -2.07406 0
M  V30 995 H 92.6133 -0.649153 -0.169826 0
M  V30 996 H 95.1573 -2.04106 0.12696 0
M  V30 997 H 93.3123 -3.31502 -2.00463 0
M  V30 998 H 93.7263 -5.18141 -0.814269 0
M  V30 999 H 95.2003 -4.91926 -2.50425 0
M  V30 1000 H 95.6773 -3.27609 -2.92521 0
M  V30 1001 H 96.2833 -4.00829 -1.42184 0
M  V30 1002 N 94.5984 0.214957 -1.56127 0
M  V30 1003 C 95.5084 1.28727 -1.96129 0
M  V30 1004 C 96.5244 1.50916 -0.866044 0
M  V30 1005 O 97.7004 1.63918 -1.17016 0
M  V30 1006 C 94.7654 2.61569 -2.27558 0
M  V30 1007 C 93.8264 2.47625 -3.50685 0
M  V30 1008 C 93.0594 3.74132 -3.80606 0
M  V30 1009 O 93.2824 4.77438 -3.12104 0
M  V30 1010 O 92.2164 3.70849 -4.74083 0
M  V30 1011 H 96.0424 0.977855 -2.87527 0
M  V30 1012 H 93.6274 0.418358 -1.43423 0
M  V30 1013 H 95.5094 3.40012 -2.48938 0
M  V30 1014 H 94.1844 2.92178 -1.39332 0
M  V30 1015 H 93.0914 1.67361 -3.34576 0
M  V30 1016 H 94.4244 2.21954 -4.39315 0
M  V30 1017 N 96.0765 1.50051 0.48192 0
M  V30 1018 C 97.3245 1.60181 1.23234 0
M  V30 1019 C 97.6455 0.299176 1.92691 0
M  V30 1020 O 96.9155 -0.682708 1.83619 0
M  V30 1021 H 95.4955 0.590232 0.457859 0
M  V30 1022 H 98.1575 1.86775 0.556881 0
M  V30 1023 H 97.2535 2.40753 1.98607 0
M  V30 1024 N 97.5546 -0.734337 1.39446 0
M  V30 1025 C 98.8006 -1.49613 1.36908 0
M  V30 1026 C 99.1336 -1.94169 -0.0347829 0
M  V30 1027 O 98.4086 -1.66833 -0.999847 0
M  V30 1028 C 98.6916 -2.73534 2.34203 0
M  V30 1029 C 98.5446 -2.34993 3.83534 0
M  V30 1030 C 99.8636 -3.75635 2.29317 0
M  V30 1031 H 96.9826 -0.542714 0.498629 0
M  V30 1032 H 99.6246 -0.839597 1.70443 0
M  V30 1033 H 97.7746 -3.29553 2.05736 0
M  V30 1034 H 99.4466 -1.84601 4.22753 0
M  V30 1035 H 97.6896 -1.67213 4.00278 0
M  V30 1036 H 98.3606 -3.23738 4.47099 0
M  V30 1037 H 100.837 -3.29203 2.54489 0
M  V30 1038 H 99.7126 -4.60008 2.99472 0
M  V30 1039 H 99.9736 -4.22603 1.29842 0
M  V30 1040 N 99.0327 -1.24633 -0.964593 0
M  V30 1041 C 99.9957 -1.0424 -2.04124 0
M  V30 1042 C 100.996 0.00137563 -1.608 0
M  V30 1043 O 102.186 -0.239883 -1.7254 0
M  V30 1044 C 99.3177 -0.580588 -3.3592 0
M  V30 1045 H 100.511 -1.99803 -2.23649 0
M  V30 1046 H 98.0637 -1.06899 -1.14027 0
M  V30 1047 H 98.7987 0.3781 -3.22088 0
M  V30 1048 H 98.5837 -1.33398 -3.6871 0
M  V30 1049 H 100.074 -0.459034 -4.15069 0
M  V30 1050 N 100.511 1.16574 -1.06058 0
M  V30 1051 C 101.76 1.86385 -0.770944 0
M  V30 1052 C 102.073 1.82448 0.705129 0
M  V30 1053 O 103.279 2.47815 1.10905 0
M  V30 1054 C 101.735 3.34466 -1.32893 0
M  V30 1055 C 101.343 3.46883 -2.83507 0
M  V30 1056 C 103.087 4.09548 -1.11672 0
M  V30 1057 C 100.994 4.89036 -3.32562 0
M  V30 1058 H 99.9238 0.698181 -0.284709 0
M  V30 1059 H 102.575 1.31583 -1.27899 0
M  V30 1060 H 100.957 3.88859 -0.748662 0
M  V30 1061 H 102.131 3.02663 -3.47465 0
M  V30 1062 H 100.446 2.85232 -3.03368 0
M  V30 1063 H 103.043 5.14434 -1.45814 0
M  V30 1064 H 103.386 4.16264 -0.0549535 0
M  V30 1065 H 103.919 3.61387 -1.66265 0
M  V30 1066 H 100.658 4.87499 -4.38207 0
M  V30 1067 H 100.178 5.3389 -2.73351 0
M  V30 1068 H 101.857 5.57843 -3.2775 0
M  V30 1069 N 101.989 0.842826 1.3317 0
M  V30 1070 C 102.922 0.223862 2.27099 0
M  V30 1071 C 103.9 -0.631311 1.49844 0
M  V30 1072 O 105.084 -0.590708 1.79005 0
M  V30 1073 C 102.211 -0.685313 3.31694 0
M  V30 1074 C 101.257 0.094919 4.26394 0
M  V30 1075 S 102.09 1.45546 5.15341 0
M  V30 1076 C 103.246 0.551685 6.23464 0
M  V30 1077 H 103.479 1.02015 2.79249 0
M  V30 1078 H 101.012 0.639797 1.4052 0
M  V30 1079 H 102.97 -1.20426 3.92438 0
M  V30 1080 H 101.631 -1.4553 2.78352 0
M  V30 1081 H 100.824 -0.597059 5.00451 0
M  V30 1082 H 100.426 0.545054 3.70007 0
M  V30 1083 H 102.718 -0.248877 6.77043 0
M  V30 1084 H 103.661 1.26253 6.96754 0
M  V30 1085 H 104.069 0.131275 5.64347 0
M  V30 1086 N 103.467 -1.45747 0.599634 0
M  V30 1087 C 104.399 -2.28628 -0.161879 0
M  V30 1088 C 105.412 -1.39494 -0.839367 0
M  V30 1089 O 106.601 -1.63941 -0.706089 0
M  V30 1090 C 103.701 -3.15014 -1.24976 0
M  V30 1091 C 102.874 -4.32378 -0.660935 0
M  V30 1092 C 101.933 -5.00033 -1.63869 0
M  V30 1093 O 100.959 -5.57085 -1.1681 0
M  V30 1094 N 102.161 -4.98589 -2.97303 0
M  V30 1095 H 104.926 -2.94624 0.549265 0
M  V30 1096 H 102.487 -1.55847 0.438565 0
M  V30 1097 H 104.479 -3.5714 -1.9035 0
M  V30 1098 H 103.049 -2.5098 -1.86354 0
M  V30 1099 H 102.269 -3.9383 0.170688 0
M  V30 1100 H 103.557 -5.08197 -0.247619 0
M  V30 1101 H 102.955 -4.53514 -3.38145 0
M  V30 1102 H 101.512 -5.44603 -3.58121 0
M  V30 1103 N 104.945 -0.338344 -1.53925 0
M  V30 1104 C 106.175 0.260919 -2.04946 0
M  V30 1105 C 106.583 1.45174 -1.2133 0
M  V30 1106 O 105.926 1.82122 -0.240262 0
M  V30 1107 C 105.988 0.744596 -3.51704 0
M  V30 1108 C 105.652 -0.325883 -4.55837 0
M  V30 1109 C 106.649 -1.16687 -5.06636 0
M  V30 1110 C 104.334 -0.478317 -5.00017 0
M  V30 1111 C 106.328 -2.14588 -6.00192 0
M  V30 1112 C 104.015 -1.46073 -5.93385 0
M  V30 1113 C 105.013 -2.29297 -6.4336 0
M  V30 1114 O 104.701 -3.25867 -7.34892 0
M  V30 1115 H 104.433 0.0551207 -0.673749 0
M  V30 1116 H 106.987 -0.486984 -1.99544 0
M  V30 1117 H 105.217 1.54366 -3.54553 0
M  V30 1118 H 106.906 1.26383 -3.85723 0
M  V30 1119 H 107.672 -1.06016 -4.73271 0
M  V30 1120 H 103.551 0.159613 -4.60724 0
M  V30 1121 H 107.095 -2.79585 -6.39123 0
M  V30 1122 H 102.992 -1.56802 -6.26166 0
M  V30 1123 H 103.76 -3.21278 -7.5281 0
M  V30 1124 N 106.423 1.57458 -0.0668435 0
M  V30 1125 C 107.353 2.15468 0.899764 0
M  V30 1126 C 108.334 1.08042 1.31381 0
M  V30 1127 O 109.519 1.36054 1.38574 0
M  V30 1128 C 106.649 2.71232 2.16911 0
M  V30 1129 C 105.603 3.83781 1.89463 0
M  V30 1130 C 104.929 4.26127 3.22986 0
M  V30 1131 C 106.229 5.08238 1.20381 0
M  V30 1132 H 107.923 2.96488 0.416529 0
M  V30 1133 H 105.469 1.4262 0.198908 0
M  V30 1134 H 107.422 3.10458 2.84945 0
M  V30 1135 H 106.146 1.87426 2.67468 0
M  V30 1136 H 104.805 3.45051 1.23836 0
M  V30 1137 H 104.453 3.39249 3.71374 0
M  V30 1138 H 104.153 5.01993 3.05413 0
M  V30 1139 H 105.677 4.67966 3.92225 0
M  V30 1140 H 107.091 5.44811 1.78475 0
M  V30 1141 H 105.488 5.89349 1.13083 0
M  V30 1142 H 106.558 4.84558 0.182153 0
M  V30 1143 N 107.901 -0.206675 1.56239 0
M  V30 1144 C 108.864 -1.23976 1.92776 0
M  V30 1145 C 109.864 -1.39041 0.807729 0
M  V30 1146 O 111.054 -1.37051 1.0753 0
M  V30 1147 C 108.186 -2.61112 2.19165 0
M  V30 1148 H 109.379 -0.927764 2.85189 0
M  V30 1149 H 106.932 -0.447718 1.4975 0
M  V30 1150 H 107.667 -2.97386 1.29352 0
M  V30 1151 H 107.452 -2.51552 3.00772 0
M  V30 1152 H 108.942 -3.35633 2.48476 0
M  V30 1153 N 109.379 -1.50304 -0.473955 0
M  V30 1154 C 110.656 -1.51667 -1.23518 0
M  V30 1155 C 111.036 -0.259701 -2.09496 0
M  V30 1156 O 110.384 0.756986 -2.15597 0
M  V30 1157 C 110.594 -2.81082 -2.06868 0
M  V30 1158 C 111.942 -3.31631 -2.65153 0
M  V30 1159 O 112.966 -2.82384 -2.17113 0
M  V30 1160 O 111.825 -4.17471 -3.52675 0
M  V30 1161 H 108.919 -0.60822 -0.560355 0
M  V30 1162 H 111.465 -1.62592 -0.486011 0
M  V30 1163 H 110.237 -3.64041 -1.4349 0
M  V30 1164 H 109.86 -2.73146 -2.88924 0
M  V30 1165 N 110.857 0.726932 -1.39834 0
M  V30 1166 C 112.082 1.52121 -1.40976 0
M  V30 1167 C 112.507 1.88098 -0.00826029 0
M  V30 1168 O 111.865 1.52479 0.980807 0
M  V30 1169 C 111.913 2.78021 -2.29644 0
M  V30 1170 O 111.017 3.74272 -1.73188 0
M  V30 1171 H 110.358 0.45908 -0.479731 0
M  V30 1172 H 112.888 0.896207 -1.83927 0
M  V30 1173 H 112.898 3.26671 -2.44438 0
M  V30 1174 H 111.573 2.51169 -3.31492 0
M  V30 1175 H 110.15 3.33073 -1.6768 0
M  V30 1176 N 112.336 1.25143 0.95797 0
M  V30 1177 C 113.582 1.09855 1.70469 0
M  V30 1178 C 113.915 -0.360187 1.90831 0
M  V30 1179 O 113.19 -1.26568 1.47685 0
M  V30 1180 C 113.473 1.8497 3.08963 0
M  V30 1181 C 113.326 3.38652 2.96032 0
M  V30 1182 C 114.645 1.63016 4.08795 0
M  V30 1183 H 111.764 0.400465 0.618706 0
M  V30 1184 H 114.406 1.53933 1.11376 0
M  V30 1185 H 112.556 1.47505 3.59409 0
M  V30 1186 H 114.228 3.85772 2.52938 0
M  V30 1187 H 112.471 3.66534 2.32025 0
M  V30 1188 H 113.142 3.8642 3.94187 0
M  V30 1189 H 115.618 1.95625 3.67247 0
M  V30 1190 H 114.494 2.18015 5.03747 0
M  V30 1191 H 114.755 0.570692 4.38401 0
M  V30 1192 N 113.814 -1.1601 1.06675 0
M  V30 1193 C 115.225 -1.68235 0.809565 0
M  V30 1194 C 115.576 -1.8454 -0.666303 0
M  V30 1195 O 114.701 -1.54374 -1.5165 0
M  V30 1196 C 115.296 -3.05585 1.46299 0
M  V30 1197 C 113.855 -3.54915 1.25349 0
M  V30 1198 C 113.002 -2.30804 1.53703 0
M  V30 1199 H 115.953 -1.00318 1.22971 0
M  V30 1200 H 115.974 -3.70174 0.880431 0
M  V30 1201 H 115.486 -2.93686 2.53713 0
M  V30 1202 H 113.587 -3.72067 0.199261 0
M  V30 1203 H 113.7 -4.36774 1.9689 0
M  V30 1204 H 112.064 -2.36007 0.957739 0
M  V30 1205 H 112.847 -2.21499 2.62284 0
M  V30 1206 N 115.292 -0.849877 -1.32721 0
M  V30 1207 C 116.569 -0.372405 -1.92022 0
M  V30 1208 C 116.949 1.1435 -1.77447 0
M  V30 1209 O 116.297 1.96296 -1.16962 0
M  V30 1210 C 116.507 -0.831482 -3.3895 0
M  V30 1211 C 117.855 -0.845882 -4.16089 0
M  V30 1212 O 118.879 -0.775806 -3.47649 0
M  V30 1213 O 117.738 -0.943753 -5.38289 0
M  V30 1214 H 114.832 -0.107667 -0.819961 0
M  V30 1215 H 117.378 -0.93646 -1.41522 0
M  V30 1216 H 116.15 -1.87448 -3.4348 0
M  V30 1217 H 115.773 -0.24461 -3.96847 0
M  V30 1218 N 116.77 1.45427 -0.607355 0
M  V30 1219 C 118.186 1.57283 -0.270985 0
M  V30 1220 C 118.386 1.59875 1.22647 0
M  V30 1221 O 117.442 1.52893 2.00948 0
M  V30 1222 C 118.755 2.85566 -0.941952 0
M  V30 1223 C 120.303 2.9924 -0.917849 0
M  V30 1224 C 120.778 4.30293 -1.56882 0
M  V30 1225 N 122.269 4.37051 -1.5343 0
M  V30 1226 C 123.004 5.37123 -2.00715 0
M  V30 1227 N 122.5 6.43734 -2.56084 0
M  V30 1228 N 124.293 5.28479 -1.91484 0
M  V30 1229 H 116.444 1.41988 -1.57966 0
M  V30 1230 H 118.707 0.67885 -0.661715 0
M  V30 1231 H 118.413 2.8955 -1.99633 0
M  V30 1232 H 118.287 3.74322 -0.465096 0
M  V30 1233 H 120.674 2.94822 0.127984 0
M  V30 1234 H 120.755 2.11895 -1.43297 0
M  V30 1235 H 120.399 4.35469 -2.61398 0
M  V30 1236 H 120.329 5.16454 -1.02873 0
M  V30 1237 H 122.82 3.60615 -1.12982 0
M  V30 1238 H 123.133 7.16341 -2.89958 0
M  V30 1239 H 121.478 6.44485 -2.60122 0
M  V30 1240 H 124.669 4.44098 -1.47967 0
M  V30 1241 H 124.842 6.0632 -2.28648 0
M  V30 1242 N 118.248 0.346503 1.53744 0
M  V30 1243 C 119.18 -0.543316 2.22667 0
M  V30 1244 C 120.193 -1.06159 1.23427 0
M  V30 1245 O 121.382 -0.971235 1.49764 0
M  V30 1246 C 118.482 -1.76076 2.89569 0
M  V30 1247 C 117.655 -1.37727 4.15151 0
M  V30 1248 C 116.714 -2.45471 4.65436 0
M  V30 1249 O 115.74 -2.08655 5.29577 0
M  V30 1250 N 116.942 -3.7677 4.41616 0
M  V30 1251 H 119.707 0.0469703 2.99663 0
M  V30 1252 H 117.268 0.170766 1.60997 0
M  V30 1253 H 119.26 -2.47593 3.20125 0
M  V30 1254 H 117.83 -2.25835 2.16142 0
M  V30 1255 H 117.05 -0.492746 3.91108 0
M  V30 1256 H 118.338 -1.09708 4.96832 0
M  V30 1257 H 117.736 -4.09467 3.90325 0
M  V30 1258 H 116.293 -4.44448 4.7677 0
M  V30 1259 N 119.726 -1.57421 0.075193 0
M  V30 1260 C 120.656 -2.15942 -0.888324 0
M  V30 1261 C 121.637 -1.08737 -1.30806 0
M  V30 1262 O 122.822 -1.36787 -1.37851 0
M  V30 1263 C 119.952 -2.72379 -2.1547 0
M  V30 1264 C 118.906 -3.8478 -1.87425 0
M  V30 1265 C 118.232 -4.27834 -3.20721 0
M  V30 1266 C 119.532 -5.08869 -1.17684 0
M  V30 1267 H 121.226 -2.96705 -0.400799 0
M  V30 1268 H 118.772 -1.42723 -0.191342 0
M  V30 1269 H 120.725 -3.11965 -2.83295 0
M  V30 1270 H 119.449 -1.88841 -2.6647 0
M  V30 1271 H 118.108 -3.45703 -1.22004 0
M  V30 1272 H 117.756 -3.41214 -3.6957 0
M  V30 1273 H 117.456 -5.03605 -3.02746 0
M  V30 1274 H 118.98 -4.70039 -3.89738 0
M  V30 1275 H 120.394 -5.4575 -1.75584 0
M  V30 1276 H 118.791 -5.8994 -1.09956 0
M  V30 1277 H 119.861 -4.84648 -0.156453 0
M  V30 1278 N 121.204 0.198386 -1.56346 0
M  V30 1279 C 122.134 1.24865 -1.9731 0
M  V30 1280 C 123.115 1.47651 -0.844576 0
M  V30 1281 O 124.3 1.59444 -1.10866 0
M  V30 1282 C 121.43 2.59358 -2.30977 0
M  V30 1283 C 120.384 2.5119 -3.46537 0
M  V30 1284 C 119.71 3.89926 -3.65871 0
M  V30 1285 C 121.01 2.03977 -4.80823 0
M  V30 1286 H 122.704 0.908252 -2.85291 0
M  V30 1287 H 120.25 0.435462 -1.37258 0
M  V30 1288 H 122.203 3.33011 -2.58228 0
M  V30 1289 H 120.927 2.95132 -1.39874 0
M  V30 1290 H 119.586 1.79993 -3.19371 0
M  V30 1291 H 119.234 4.23046 -2.72105 0
M  V30 1292 H 118.934 3.85336 -4.4361 0
M  V30 1293 H 120.458 4.65205 -3.95495 0
M  V30 1294 H 121.872 2.67386 -5.07127 0
M  V30 1295 H 120.269 2.10397 -5.62008 0
M  V30 1296 H 121.339 0.992861 -4.74626 0
M  V30 1297 N 122.682 1.50554 0.465978 0
M  V30 1298 C 123.645 1.69233 1.54574 0
M  V30 1299 C 124.645 0.562901 1.50626 0
M  V30 1300 O 125.835 0.830016 1.53155 0
M  V30 1301 C 122.967 1.7223 2.94193 0
M  V30 1302 H 124.16 2.65571 1.39327 0
M  V30 1303 H 121.713 1.40111 0.692711 0
M  V30 1304 H 122.448 0.77603 3.14878 0
M  V30 1305 H 122.233 2.54285 2.98466 0
M  V30 1306 H 123.723 1.88618 3.72576 0
M  V30 1307 N 124.16 -0.719506 1.40217 0
M  V30 1308 C 125.571 -1.29848 1.34151 0
M  V30 1309 C 125.922 -1.96196 0.0131349 0
M  V30 1310 O 125.047 -1.973 -0.88892 0
M  V30 1311 C 125.642 -2.36118 2.42968 0
M  V30 1312 C 124.201 -2.8965 2.40374 0
M  V30 1313 C 123.348 -1.63393 2.24049 0
M  V30 1314 H 126.299 -0.51591 1.5008 0
M  V30 1315 H 126.32 -3.16871 2.10649 0
M  V30 1316 H 125.832 -1.878 3.39636 0
M  V30 1317 H 123.933 -3.42208 1.47392 0
M  V30 1318 H 124.046 -3.4171 3.35814 0
M  V30 1319 H 122.41 -1.88312 1.71495 0
M  V30 1320 H 123.193 -1.17104 3.2271 0
M  V30 1321 N 125.638 -1.25649 -0.95132 0
M  V30 1322 C 126.884 -1.10757 -1.69884 0
M  V30 1323 C 127.217 0.350061 -1.91019 0
M  V30 1324 O 126.492 1.25783 -1.48354 0
M  V30 1325 C 126.775 -1.86606 -3.07978 0
M  V30 1326 C 126.628 -3.40217 -2.94232 0
M  V30 1327 C 127.947 -1.65182 -4.07925 0
M  V30 1328 H 125.066 -0.40374 -0.616574 0
M  V30 1329 H 127.708 -1.54521 -1.10558 0
M  V30 1330 H 125.858 -1.49409 -3.58621 0
M  V30 1331 H 127.53 -3.87108 -2.50889 0
M  V30 1332 H 125.773 -3.67759 -2.30078 0
M  V30 1333 H 126.444 -3.88505 -3.92133 0
M  V30 1334 H 128.92 -1.9757 -3.66204 0
M  V30 1335 H 127.796 -2.20683 -5.02583 0
M  V30 1336 H 128.057 -0.593933 -4.38092 0
M  V30 1337 N 127.117 1.15442 -1.07289 0
M  V30 1338 C 128.065 2.22225 -0.686952 0
M  V30 1339 C 129.059 1.66688 0.30193 0
M  V30 1340 O 130.265 1.79236 0.165712 0
M  V30 1341 H 126.64 0.723783 -0.204064 0
M  V30 1342 H 128.611 2.52056 -1.5972 0
M  V30 1343 C 127.36 3.47556 -0.100149 0
M  V30 1344 H 126.683 3.90612 -0.852211 0
M  V30 1345 H 128.123 4.23794 0.132235 0
M  V30 1346 C 126.582 3.16337 1.159 0
M  V30 1347 O 127.112 3.33074 2.24555 0
M  V30 1348 N 125.318 2.70385 1.06491 0
M  V30 1349 H 124.865 2.56966 0.180668 0
M  V30 1350 H 124.823 2.49871 1.90819 0
M  V30 1351 N 128.595 0.856903 1.32268 0
M  V30 1352 C 129.82 0.474569 2.01897 0
M  V30 1353 C 130.245 -0.921766 1.63967 0
M  V30 1354 O 129.603 -1.60589 0.84148 0
M  V30 1355 C 129.651 0.623799 3.55164 0
M  V30 1356 O 128.755 -0.342459 4.10976 0
M  V30 1357 H 128.096 0.190422 0.63611 0
M  V30 1358 H 130.626 1.15672 1.68764 0
M  V30 1359 H 130.636 0.512169 4.04773 0
M  V30 1360 H 129.311 1.64202 3.82113 0
M  V30 1361 H 127.888 -0.18688 3.72431 0
M  V30 1362 N 130.073 -1.45103 0.615059 0
M  V30 1363 C 131.322 -2.01396 0.110718 0
M  V30 1364 C 131.635 -1.48834 -1.26916 0
M  V30 1365 O 132.841 -1.97152 -1.86664 0
M  V30 1366 C 131.297 -3.59599 0.14723 0
M  V30 1367 C 130.905 -4.21158 1.52743 0
M  V30 1368 C 132.649 -4.23428 -0.30148 0
M  V30 1369 C 130.556 -5.71535 1.51992 0
M  V30 1370 H 129.486 -0.753061 0.0376241 0
M  V30 1371 H 132.137 -1.66494 0.77149 0
M  V30 1372 H 130.519 -3.91724 -0.580339 0
M  V30 1373 H 131.693 -4.00594 2.2773 0
M  V30 1374 H 130.008 -3.69552 1.91886 0
M  V30 1375 H 132.605 -5.33703 -0.326392 0
M  V30 1376 H 132.948 -3.94629 -1.32565 0
M  V30 1377 H 133.481 -3.96047 0.373065 0
M  V30 1378 H 130.22 -6.05044 2.52193 0
M  V30 1379 H 129.74 -5.94268 0.81274 0
M  V30 1380 H 131.419 -6.34873 1.24681 0
M  V30 1381 N 131.551 -0.354651 -1.53558 0
M  V30 1382 C 132.776 0.242153 -2.05981 0
M  V30 1383 C 133.201 1.42553 -1.2272 0
M  V30 1384 O 132.559 1.79656 -0.243604 0
M  V30 1385 C 132.607 0.624367 -3.55154 0
M  V30 1386 O 131.711 1.72301 -3.74681 0
M  V30 1387 H 131.052 0.0378432 -0.662921 0
M  V30 1388 H 133.582 -0.512087 -1.98088 0
M  V30 1389 H 133.592 0.898433 -3.97985 0
M  V30 1390 H 132.267 -0.240989 -4.15201 0
M  V30 1391 H 130.844 1.44535 -3.4375 0
M  V30 1392 N 133.029 1.57378 -0.0835403 0
M  V30 1393 C 134.445 1.57246 0.273109 0
M  V30 1394 C 134.645 1.09385 1.69225 0
M  V30 1395 O 133.701 0.765051 2.40631 0
M  V30 1396 C 135.014 3.00614 0.0720628 0
M  V30 1397 C 136.562 3.12684 0.1407 0
M  V30 1398 C 137.037 4.57989 -0.0322094 0
M  V30 1399 N 138.528 4.63194 0.0230085 0
M  V30 1400 C 139.263 5.73335 -0.0861941 0
M  V30 1401 N 138.759 6.9235 -0.24958 0
M  V30 1402 N 140.552 5.62093 -0.0282886 0
M  V30 1403 H 132.703 1.86801 -1.0109 0
M  V30 1404 H 134.966 0.861687 -0.395222 0
M  V30 1405 H 134.672 3.39786 -0.907662 0
M  V30 1406 H 134.546 3.68193 0.81936 0
M  V30 1407 H 136.933 2.73391 1.11092 0
M  V30 1408 H 137.014 2.47719 -0.637896 0
M  V30 1409 H 136.658 4.97973 -0.999247 0
M  V30 1410 H 136.588 5.21 0.765937 0
M  V30 1411 H 139.079 3.77613 0.14722 0
M  V30 1412 H 139.392 7.72117 -0.324733 0
M  V30 1413 H 137.737 6.94415 -0.285097 0
M  V30 1414 H 140.928 4.67997 0.0981408 0
M  V30 1415 H 141.101 6.47895 -0.116845 0
M  V30 1416 N 134.507 -0.190092 1.56449 0
M  V30 1417 C 135.737 -0.92443 1.84764 0
M  V30 1418 C 136.145 -1.77146 0.664529 0
M  V30 1419 O 135.488 -1.79812 -0.375957 0
M  V30 1420 C 135.55 -1.86651 3.07248 0
M  V30 1421 C 135.214 -1.20094 4.40938 0
M  V30 1422 C 136.211 -0.575445 5.16706 0
M  V30 1423 C 133.896 -1.2033 4.87674 0
M  V30 1424 C 135.89 0.0388111 6.37388 0
M  V30 1425 C 133.577 -0.585214 6.08291 0
M  V30 1426 C 134.575 0.0347578 6.82991 0
M  V30 1427 O 134.263 0.643147 8.01323 0
M  V30 1428 H 133.995 -0.274974 0.617548 0
M  V30 1429 H 136.549 -0.200788 2.04416 0
M  V30 1430 H 134.779 -2.62998 2.83494 0
M  V30 1431 H 136.468 -2.46907 3.22167 0
M  V30 1432 H 137.234 -0.565728 4.81689 0
M  V30 1433 H 133.113 -1.67526 4.29484 0
M  V30 1434 H 136.657 0.523329 6.95634 0
M  V30 1435 H 132.554 -0.592451 6.42775 0
M  V30 1436 H 133.322 0.540545 8.16713 0
M  V30 1437 N 135.985 -1.50799 -0.457987 0
M  V30 1438 C 136.932 -1.70617 -1.5543 0
M  V30 1439 C 137.902 -0.547562 -1.56815 0
M  V30 1440 O 139.087 -0.779647 -1.74144 0
M  V30 1441 C 136.227 -1.81831 -2.93311 0
M  V30 1442 C 135.34 -3.09278 -3.01615 0
M  V30 1443 C 134.475 -3.11209 -4.30491 0
M  V30 1444 C 133.514 -4.33055 -4.32585 0
M  V30 1445 N 132.651 -4.32652 -5.52952 0
M  V30 1446 H 137.491 -2.64207 -1.37836 0
M  V30 1447 H 135.028 -1.30959 -0.669937 0
M  V30 1448 H 136.986 -1.86314 -3.73287 0
M  V30 1449 H 135.616 -0.916685 -3.0951 0
M  V30 1450 H 134.668 -3.14203 -2.1443 0
M  V30 1451 H 135.98 -3.99233 -2.99022 0
M  V30 1452 H 135.134 -3.14494 -5.18824 0
M  V30 1453 H 133.873 -2.19106 -4.35711 0
M  V30 1454 H 132.878 -4.29969 -3.42647 0
M  V30 1455 H 134.103 -5.264 -4.29046 0
M  V30 1456 H 132.049 -3.43409 -5.58933 0
M  V30 1457 H 131.966 -5.16392 -5.52155 0
M  V30 1458 H 133.234 -4.40101 -6.43375 0
M  V30 1459 N 137.463 0.71206 -1.40597 0
M  V30 1460 C 138.691 1.50111 -1.42388 0
M  V30 1461 C 139.106 1.88784 -0.0245395 0
M  V30 1462 O 138.463 1.55681 0.952351 0
M  V30 1463 C 138.514 2.7742 -2.31776 0
M  V30 1464 O 138.235 2.40382 -3.66262 0
M  V30 1465 C 139.736 3.7129 -2.42196 0
M  V30 1466 H 136.956 0.46314 -0.485533 0
M  V30 1467 H 139.5 0.878068 -1.8469 0
M  V30 1468 H 137.655 3.36001 -1.92827 0
M  V30 1469 H 138.069 3.22324 -4.13772 0
M  V30 1470 H 139.543 4.57448 -3.08943 0
M  V30 1471 H 140.02 4.14641 -1.44809 0
M  V30 1472 H 140.626 3.18619 -2.81712 0
M  V30 1473 N 138.941 1.26152 0.944643 0
M  V30 1474 C 140.19 1.10883 1.68487 0
M  V30 1475 C 140.503 -0.348153 1.92477 0
M  V30 1476 O 141.709 -0.621459 2.64292 0
M  V30 1477 C 140.165 1.93624 3.03377 0
M  V30 1478 C 139.773 3.43875 2.87148 0
M  V30 1479 C 141.517 1.86954 3.81115 0
M  V30 1480 C 139.424 4.18875 4.1749 0
M  V30 1481 H 138.354 0.41135 0.631907 0
M  V30 1482 H 141.005 1.50433 1.05082 0
M  V30 1483 H 139.387 1.46904 3.67743 0
M  V30 1484 H 140.561 3.98338 2.31653 0
M  V30 1485 H 138.876 3.51744 2.22856 0
M  V30 1486 H 141.473 2.40275 4.77673 0
M  V30 1487 H 141.816 0.839518 4.07747 0
M  V30 1488 H 142.349 2.31477 3.23517 0
M  V30 1489 H 139.088 5.22332 3.96043 0
M  V30 1490 H 138.608 3.69193 4.72712 0
M  V30 1491 H 140.287 4.27134 4.85968 0
M  V30 1492 N 140.419 -1.14872 1.07899 0
M  V30 1493 C 141.329 -2.2341 0.715915 0
M  V30 1494 C 142.345 -1.71808 -0.275306 0
M  V30 1495 O 143.521 -2.01039 -0.120545 0
M  V30 1496 C 140.586 -3.46474 0.125168 0
M  V30 1497 C 139.647 -4.13039 1.17034 0
M  V30 1498 C 138.88 -5.30229 0.607688 0
M  V30 1499 O 139.103 -5.675 -0.574497 0
M  V30 1500 O 138.037 -5.86444 1.35526 0
M  V30 1501 H 141.863 -2.56808 1.62121 0
M  V30 1502 H 139.448 -1.22702 0.852322 0
M  V30 1503 H 141.33 -4.20917 -0.201729 0
M  V30 1504 H 140.005 -3.14811 -0.753364 0
M  V30 1505 H 138.912 -3.40493 1.54968 0
M  V30 1506 H 140.245 -4.48796 2.02097 0
M  V30 1507 N 141.898 -0.863906 -1.31812 0
M  V30 1508 C 143.144 -0.481841 -1.9761 0
M  V30 1509 C 143.499 0.954048 -1.6708 0
M  V30 1510 O 142.792 1.66182 -0.953624 0
M  V30 1511 C 142.986 -0.668547 -3.51091 0
M  V30 1512 C 142.815 -2.12103 -3.96538 0
M  V30 1513 C 141.585 -2.76141 -4.23171 0
M  V30 1514 C 143.783 -3.09265 -4.10925 0
M  V30 1515 N 141.765 -4.12205 -4.54929 0
M  V30 1516 C 143.136 -4.30341 -4.46326 0
M  V30 1517 C 145.191 -3.05337 -3.93286 0
M  V30 1518 C 143.894 -5.48 -4.65928 0
M  V30 1519 C 145.92 -4.22248 -4.14078 0
M  V30 1520 C 145.282 -5.42085 -4.49804 0
M  V30 1521 H 141.381 -0.225238 -0.74886 0
M  V30 1522 H 143.965 -1.11723 -1.59455 0
M  V30 1523 H 142.136 -0.0627898 -3.88349 0
M  V30 1524 H 143.868 -0.255467 -4.03893 0
M  V30 1525 H 140.623 -2.27125 -4.15585 0
M  V30 1526 H 141.047 -4.82416 -4.74978 0
M  V30 1527 H 145.689 -2.138 -3.64759 0
M  V30 1528 H 143.407 -6.40059 -4.93305 0
M  V30 1529 H 146.993 -4.20654 -4.01922 0
M  V30 1530 H 145.873 -6.31044 -4.65567 0
M  V30 1531 N 143.376 1.44774 -0.622745 0
M  V30 1532 C 144.306 2.33382 0.0741861 0
M  V30 1533 C 145.287 1.47719 0.843387 0
M  V30 1534 O 146.472 1.76458 0.810934 0
M  V30 1535 C 143.602 3.30663 1.06204 0
M  V30 1536 C 142.556 4.26079 0.405037 0
M  V30 1537 C 141.882 5.13165 1.5022 0
M  V30 1538 C 143.182 5.1781 -0.683414 0
M  V30 1539 H 144.876 2.91905 -0.665713 0
M  V30 1540 H 142.422 1.40363 -0.321587 0
M  V30 1541 H 144.375 3.9153 1.55827 0
M  V30 1542 H 143.099 2.70331 1.83272 0
M  V30 1543 H 141.758 3.66532 -0.0704683 0
M  V30 1544 H 141.406 4.49191 2.26355 0
M  V30 1545 H 141.106 5.77812 1.06803 0
M  V30 1546 H 142.63 5.76902 2.00041 0
M  V30 1547 H 144.044 5.72661 -0.270631 0
M  V30 1548 H 142.441 5.91015 -1.04023 0
M  V30 1549 H 143.511 4.59326 -1.55395 0
M  V30 1550 N 144.854 0.36279 1.53368 0
M  V30 1551 C 145.802 -0.500155 2.27159 0
M  V30 1552 C 146.796 -1.08575 1.3003 0
M  V30 1553 O 148.002 -1.02927 1.47668 0
M  V30 1554 H 144.377 -0.180009 0.730138 0
M  V30 1555 H 146.348 0.14401 2.98052 0
M  V30 1556 C 145.097 -1.62937 3.07159 0
M  V30 1557 H 144.42 -1.18806 3.8174 0
M  V30 1558 H 145.86 -2.20795 3.61975 0
M  V30 1559 C 144.319 -2.57007 2.17829 0
M  V30 1560 O 144.849 -3.59752 1.78721 0
M  V30 1561 N 143.055 -2.26131 1.82518 0
M  V30 1562 H 142.602 -1.42616 2.14519 0
M  V30 1563 H 142.56 -2.89327 1.23034 0
M  V30 1564 N 146.332 -1.57332 0.0918853 0
M  V30 1565 C 147.562 -1.98286 -0.580205 0
M  V30 1566 C 147.97 -0.969713 -1.6246 0
M  V30 1567 O 147.313 0.0493501 -1.83634 0
M  V30 1568 C 147.375 -3.35603 -1.28882 0
M  V30 1569 C 147.039 -4.55285 -0.395559 0
M  V30 1570 C 148.036 -5.18687 0.355002 0
M  V30 1571 C 145.721 -5.01314 -0.314556 0
M  V30 1572 C 147.715 -6.26484 1.17458 0
M  V30 1573 C 145.402 -6.08979 0.508677 0
M  V30 1574 C 146.4 -6.71429 1.2519 0
M  V30 1575 O 146.088 -7.77018 2.06151 0
M  V30 1576 H 145.82 -0.656678 -0.160466 0
M  V30 1577 H 148.374 -2.04721 0.16688 0
M  V30 1578 H 146.604 -3.25842 -2.08241 0
M  V30 1579 H 148.293 -3.61026 -1.85512 0
M  V30 1580 H 149.059 -4.84058 0.302134 0
M  V30 1581 H 144.938 -4.5247 -0.882697 0
M  V30 1582 H 148.482 -6.75159 1.75518 0
M  V30 1583 H 144.379 -6.4304 0.563037 0
M  V30 1584 H 145.147 -7.93991 1.98799 0
M  V30 1585 N 147.81 0.181792 -1.56548 0
M  V30 1586 C 149.059 0.898348 -1.8059 0
M  V30 1587 C 149.372 1.83862 -0.667379 0
M  V30 1588 O 150.578 2.59678 -0.792446 0
M  V30 1589 C 149.034 1.64791 -3.19956 0
M  V30 1590 C 148.642 0.751789 -4.41647 0
M  V30 1591 C 150.386 2.35331 -3.53298 0
M  V30 1592 C 148.293 1.50098 -5.72035 0
M  V30 1593 H 147.223 0.339194 -0.673397 0
M  V30 1594 H 149.874 0.151413 -1.82874 0
M  V30 1595 H 148.256 2.43921 -3.11959 0
M  V30 1596 H 149.43 -0.0018076 -4.608 0
M  V30 1597 H 147.745 0.156562 -4.16106 0
M  V30 1598 H 150.342 2.91958 -4.47956 0
M  V30 1599 H 150.685 3.10164 -2.77676 0
M  V30 1600 H 151.218 1.63154 -3.62803 0
M  V30 1601 H 147.957 0.795175 -6.50659 0
M  V30 1602 H 147.477 2.22817 -5.56878 0
M  V30 1603 H 149.156 2.05125 -6.13622 0
M  V30 1604 N 149.288 1.51039 0.449983 0
M  V30 1605 C 150.251 1.70863 1.5277 0
M  V30 1606 C 151.251 0.578846 1.5002 0
M  V30 1607 O 152.441 0.846213 1.52266 0
M  V30 1608 C 149.573 1.75341 2.9235 0
M  V30 1609 H 150.766 2.67034 1.36502 0
M  V30 1610 H 148.319 1.40838 0.677812 0
M  V30 1611 H 149.054 0.809383 3.14037 0
M  V30 1612 H 148.839 2.57436 2.95752 0
M  V30 1613 H 150.329 1.92559 3.70555 0
M  V30 1614 N 150.766 -0.704594 1.40972 0
M  V30 1615 C 151.994 -1.49354 1.43182 0
M  V30 1616 C 152.409 -1.88768 0.0345508 0
M  V30 1617 O 151.766 -1.56184 -0.944081 0
M  V30 1618 C 151.817 -2.76187 2.33244 0
M  V30 1619 O 151.538 -2.38436 3.67532 0
M  V30 1620 C 153.039 -3.7 2.44162 0
M  V30 1621 H 150.259 -0.460559 0.487982 0
M  V30 1622 H 152.803 -0.868261 1.85153 0
M  V30 1623 H 150.958 -3.34974 1.94606 0
M  V30 1624 H 151.372 -3.20126 4.15475 0
M  V30 1625 H 152.846 -4.55803 3.11364 0
M  V30 1626 H 153.323 -4.13867 1.47006 0
M  V30 1627 H 153.929 -3.17121 2.83398 0
M  V30 1628 N 152.244 -1.26651 -0.937939 0
M  V30 1629 C 153.154 -1.10276 -2.07066 0
M  V30 1630 C 154.17 -0.0354197 -1.73964 0
M  V30 1631 O 155.346 -0.239816 -1.99967 0
M  V30 1632 C 152.411 -0.740887 -3.38691 0
M  V30 1633 C 151.472 -1.88799 -3.85556 0
M  V30 1634 C 150.705 -1.54329 -5.10899 0
M  V30 1635 O 150.928 -0.446494 -5.6865 0
M  V30 1636 O 149.862 -2.37911 -5.52885 0
M  V30 1637 H 153.688 -2.05309 -2.23789 0
M  V30 1638 H 151.273 -1.05743 -1.0554 0
M  V30 1639 H 153.155 -0.55195 -4.1777 0
M  V30 1640 H 151.83 0.180022 -3.23199 0
M  V30 1641 H 150.737 -2.13191 -3.07409 0
M  V30 1642 H 152.07 -2.78874 -4.05574 0
M  V30 1643 N 153.722 1.14298 -1.08507 0
M  V30 1644 C 154.652 2.21542 -0.737646 0
M  V30 1645 C 155.633 1.67773 0.280377 0
M  V30 1646 O 156.818 1.93616 0.150521 0
M  V30 1647 C 153.948 3.46988 -0.147259 0
M  V30 1648 C 152.902 4.13789 -1.09374 0
M  V30 1649 C 152.228 5.33449 -0.365524 0
M  V30 1650 C 153.528 4.62208 -2.4323 0
M  V30 1651 H 155.222 2.5086 -1.6343 0
M  V30 1652 H 152.768 1.20576 -0.787243 0
M  V30 1653 H 154.721 4.21262 0.107808 0
M  V30 1654 H 153.445 3.17037 0.784538 0
M  V30 1655 H 152.104 3.4147 -1.33393 0
M  V30 1656 H 151.752 4.99759 0.57011 0
M  V30 1657 H 151.452 5.79088 -0.996512 0
M  V30 1658 H 152.976 6.10485 -0.118534 0
M  V30 1659 H 154.39 5.27952 -2.23472 0
M  V30 1660 H 152.787 5.18553 -3.02031 0
M  V30 1661 H 153.857 3.77224 -3.04681 0
M  V30 1662 N 155.201 0.870884 1.31352 0
M  V30 1663 C 156.151 0.298889 2.26032 0
M  V30 1664 C 157.135 -0.564595 1.50669 0
M  V30 1665 O 158.327 -0.411323 1.72154 0
M  V30 1666 C 155.456 -0.497842 3.39671 0
M  V30 1667 C 154.542 0.378937 4.22404 0
M  V30 1668 N 154.933 1.47284 4.83881 0
M  V30 1669 C 153.231 0.171535 4.4567 0
M  V30 1670 C 153.932 2.01359 5.45738 0
M  V30 1671 N 152.908 1.31047 5.27568 0
M  V30 1672 H 156.71 1.13494 2.71102 0
M  V30 1673 H 154.224 0.718745 1.45629 0
M  V30 1674 H 156.221 -0.924155 4.06528 0
M  V30 1675 H 154.881 -1.33149 2.96144 0
M  V30 1676 H 155.892 1.85575 4.8351 0
M  V30 1677 H 152.569 -0.626091 4.12779 0
M  V30 1678 H 153.959 2.93143 6.0458 0
M  V30 1679 N 156.679 -1.44442 0.630414 0
M  V30 1680 C 157.626 -2.30678 -0.0749355 0
M  V30 1681 C 158.596 -1.4344 -0.837502 0
M  V30 1682 O 159.781 -1.72343 -0.818684 0
M  V30 1683 C 156.921 -3.28706 -1.05103 0
M  V30 1684 C 156.034 -4.31046 -0.286954 0
M  V30 1685 C 155.169 -5.16167 -1.2548 0
M  V30 1686 C 154.208 -6.10216 -0.479843 0
M  V30 1687 N 153.345 -6.88039 -1.39811 0
M  V30 1688 H 158.185 -2.90454 0.666386 0
M  V30 1689 H 155.722 -1.43107 0.340404 0
M  V30 1690 H 157.68 -3.84027 -1.63031 0
M  V30 1691 H 156.31 -2.70632 -1.75949 0
M  V30 1692 H 155.362 -3.78203 0.408243 0
M  V30 1693 H 156.674 -4.97794 0.316657 0
M  V30 1694 H 155.828 -5.76002 -1.90544 0
M  V30 1695 H 154.567 -4.49491 -1.89233 0
M  V30 1696 H 153.572 -5.49491 0.184295 0
M  V30 1697 H 154.797 -6.78928 0.152965 0
M  V30 1698 H 152.743 -6.24032 -2.02287 0
M  V30 1699 H 152.66 -7.51223 -0.848508 0
M  V30 1700 H 153.928 -7.52397 -2.03762 0
M  V30 1701 N 158.157 -0.370918 -1.53173 0
M  V30 1702 C 159.405 0.216673 -2.00935 0
M  V30 1703 C 159.726 1.48845 -1.25977 0
M  V30 1704 O 158.996 1.92286 -0.374551 0
M  V30 1705 H 157.576 0.0830565 -0.742368 0
M  V30 1706 H 160.238 -0.49838 -1.8842 0
M  V30 1707 H 159.334 0.439893 -3.08984 0
M  V30 1708 N 159.635 1.57281 -0.100228 0
M  V30 1709 C 160.882 1.94537 0.562268 0
M  V30 1710 C 161.21 0.982315 1.67871 0
M  V30 1711 O 160.465 0.00280936 1.957 0
M  V30 1712 C 160.764 3.38305 1.15259 0
M  V30 1713 C 160.43 4.50618 0.159409 0
M  V30 1714 C 159.092 4.81066 -0.113741 0
M  V30 1715 C 161.444 5.18615 -0.518461 0
M  V30 1716 C 158.772 5.76835 -1.07137 0
M  V30 1717 C 161.124 6.15412 -1.46459 0
M  V30 1718 C 159.788 6.44262 -1.74592 0
M  V30 1719 H 159.058 0.711863 0.205748 0
M  V30 1720 H 161.705 1.90679 -0.17715 0
M  V30 1721 H 160.01 3.38766 1.96836 0
M  V30 1722 H 161.707 3.64435 1.67297 0
M  V30 1723 H 158.297 4.2689 0.382491 0
M  V30 1724 H 162.481 4.95264 -0.320581 0
M  V30 1725 H 157.737 5.975 -1.29628 0
M  V30 1726 H 161.911 6.67194 -1.99564 0
M  V30 1727 H 159.538 7.1828 -2.48953 0
M  V30 1728 N 161.113 -0.173488 1.56642 0
M  V30 1729 C 162.341 -0.906095 1.86004 0
M  V30 1730 C 162.756 -1.75921 0.685355 0
M  V30 1731 O 162.113 -1.79198 -0.345578 0
M  V30 1732 C 162.164 -1.78462 3.14378 0
M  V30 1733 O 161.885 -0.965914 4.27319 0
M  V30 1734 C 163.386 -2.62707 3.57071 0
M  V30 1735 H 160.606 -0.263341 0.617165 0
M  V30 1736 H 163.15 -0.174236 2.03756 0
M  V30 1737 H 161.305 -2.46984 2.98459 0
M  V30 1738 H 161.719 -1.56655 5.00559 0
M  V30 1739 H 163.193 -3.19969 4.49804 0
M  V30 1740 H 163.67 -3.37472 2.81086 0
M  V30 1741 H 164.276 -1.99521 3.75595 0
M  V30 1742 N 162.591 -1.51276 -0.441967 0
M  V30 1743 C 164.002 -1.56244 -1.02199 0
M  V30 1744 C 164.353 -0.383149 -1.92422 0
M  V30 1745 O 163.478 0.500613 -2.1053 0
M  V30 1746 C 164.073 -2.83162 -1.86024 0
M  V30 1747 C 162.632 -2.90716 -2.39084 0
M  V30 1748 C 161.779 -2.50858 -1.18175 0
M  V30 1749 H 164.73 -1.5712 -0.223416 0
M  V30 1750 H 164.751 -2.66663 -2.71425 0
M  V30 1751 H 164.263 -3.68974 -1.20331 0
M  V30 1752 H 162.364 -2.09323 -3.08244 0
M  V30 1753 H 162.477 -3.94266 -2.72198 0
M  V30 1754 H 160.841 -2.03951 -1.52565 0
M  V30 1755 H 161.624 -3.3901 -0.541001 0
M  V30 1756 N 164.069 0.697108 -1.41344 0
M  V30 1757 C 164.999 1.82353 -1.45841 0
M  V30 1758 C 165.98 1.67115 -0.317247 0
M  V30 1759 O 167.165 1.86871 -0.528474 0
M  V30 1760 C 164.295 3.20476 -1.33838 0
M  V30 1761 C 163.249 3.50415 -2.4575 0
M  V30 1762 C 162.575 4.87878 -2.18813 0
M  V30 1763 C 163.875 3.49546 -3.88091 0
M  V30 1764 H 165.569 1.78846 -2.40113 0
M  V30 1765 H 163.115 0.859028 -1.15571 0
M  V30 1766 H 165.068 3.98988 -1.35596 0
M  V30 1767 H 163.792 3.24604 -0.360498 0
M  V30 1768 H 162.451 2.74253 -2.43271 0
M  V30 1769 H 162.099 4.8863 -1.19371 0
M  V30 1770 H 161.799 5.08875 -2.93803 0
M  V30 1771 H 163.323 5.68702 -2.22284 0
M  V30 1772 H 164.737 4.18066 -3.92293 0
M  V30 1773 H 163.134 3.82075 -4.62751 0
M  V30 1774 H 164.204 2.48552 -4.16353 0
M  V30 1775 N 165.547 1.27147 0.931209 0
M  V30 1776 C 166.794 1.13278 1.67852 0
M  V30 1777 C 167.122 -0.32204 1.91815 0
M  V30 1778 O 166.377 -1.25224 1.50391 0
M  V30 1779 C 166.676 1.8579 3.05314 0
M  V30 1780 C 166.342 3.35657 3.01073 0
M  V30 1781 C 165.004 3.76536 2.99623 0
M  V30 1782 C 167.356 4.31299 2.92627 0
M  V30 1783 C 164.684 5.11426 2.87506 0
M  V30 1784 C 167.036 5.66242 2.82051 0
M  V30 1785 C 165.7 6.06418 2.7895 0
M  V30 1786 H 164.97 0.414515 0.614214 0
M  V30 1787 H 167.617 1.57712 1.08624 0
M  V30 1788 H 165.922 1.33854 3.68226 0
M  V30 1789 H 167.619 1.72491 3.62005 0
M  V30 1790 H 164.209 3.03146 3.02986 0
M  V30 1791 H 168.393 4.00692 2.92848 0
M  V30 1792 H 163.649 5.41705 2.83489 0
M  V30 1793 H 167.823 6.40026 2.74481 0
M  V30 1794 H 165.45 7.10895 2.69318 0
M  V30 1795 N 167.025 -1.13721 1.09112 0
M  V30 1796 C 168.441 -1.36914 0.820174 0
M  V30 1797 C 168.641 -1.93356 -0.567079 0
M  V30 1798 O 167.697 -2.15093 -1.32255 0
M  V30 1799 C 169.01 -2.3235 1.90877 0
M  V30 1800 C 170.558 -2.45973 1.93562 0
M  V30 1801 C 171.033 -3.44714 3.01556 0
M  V30 1802 N 172.524 -3.52263 3.00775 0
M  V30 1803 C 173.259 -4.28536 3.80978 0
M  V30 1804 N 172.755 -5.07991 4.71081 0
M  V30 1805 N 174.548 -4.23804 3.69251 0
M  V30 1806 H 166.699 -0.754348 1.98553 0
M  V30 1807 H 168.962 -0.3944 0.862063 0
M  V30 1808 H 168.668 -1.98027 2.90651 0
M  V30 1809 H 168.542 -3.32332 1.78424 0
M  V30 1810 H 170.929 -2.79584 0.944286 0
M  V30 1811 H 171.01 -1.45926 2.10093 0
M  V30 1812 H 170.654 -3.11835 4.00901 0
M  V30 1813 H 170.584 -4.44558 2.82269 0
M  V30 1814 H 173.075 -2.95567 2.35475 0
M  V30 1815 H 173.388 -5.63487 5.28869 0
M  V30 1816 H 171.733 -5.07235 4.75119 0
M  V30 1817 H 174.924 -3.60806 2.98222 0
M  V30 1818 H 175.097 -4.82995 4.31995 0
M  V30 1819 N 168.503 -0.877838 -1.30888 0
M  V30 1820 C 169.914 -0.544193 -1.78593 0
M  V30 1821 C 170.265 0.939301 -1.72254 0
M  V30 1822 O 169.39 1.7337 -1.29505 0
M  V30 1823 C 169.985 -0.98105 -3.24285 0
M  V30 1824 C 168.544 -0.698935 -3.69854 0
M  V30 1825 C 167.691 -1.168 -2.51502 0
M  V30 1826 H 170.642 -1.06278 -1.17859 0
M  V30 1827 H 170.663 -0.307009 -3.79259 0
M  V30 1828 H 170.175 -2.06079 -3.28866 0
M  V30 1829 H 168.276 0.369112 -3.70767 0
M  V30 1830 H 168.389 -1.28148 -4.61644 0
M  V30 1831 H 166.753 -0.587535 -2.47831 0
M  V30 1832 H 167.536 -2.25533 -2.58824 0
M  V30 1833 N 169.982 1.44106 -0.638065 0
M  V30 1834 C 171.259 1.95453 -0.0759321 0
M  V30 1835 C 171.639 1.57984 1.40015 0
M  V30 1836 O 170.987 0.857361 2.11806 0
M  V30 1837 C 171.197 3.47655 -0.306132 0
M  V30 1838 C 172.545 4.24114 -0.203008 0
M  V30 1839 O 173.569 3.55405 -0.237871 0
M  V30 1840 O 172.428 5.46381 -0.113827 0
M  V30 1841 H 169.522 0.826797 0.0183332 0
M  V30 1842 H 172.068 1.54122 -0.710251 0
M  V30 1843 H 170.84 3.68 -1.3301 0
M  V30 1844 H 170.463 3.95949 0.361991 0
M  V30 1845 N 171.46 0.379036 1.52974 0
M  V30 1846 C 172.688 -0.20679 2.05864 0
M  V30 1847 C 173.103 -1.41356 1.25155 0
M  V30 1848 O 172.46 -1.8009 0.295588 0
M  V30 1849 C 172.511 -0.587045 3.56702 0
M  V30 1850 O 172.232 0.571776 4.34353 0
M  V30 1851 C 173.733 -1.22983 4.25899 0
M  V30 1852 H 170.953 -0.0336123 0.670158 0
M  V30 1853 H 173.497 0.541298 1.97206 0
M  V30 1854 H 171.652 -1.28504 3.65466 0
M  V30 1855 H 172.066 0.261544 5.23847 0
M  V30 1856 H 173.54 -1.44635 5.32715 0
M  V30 1857 H 174.017 -2.19416 3.80465 0
M  V30 1858 H 174.623 -0.572892 4.21424 0
M  V30 1859 N 172.938 -1.57226 0.108567 0
M  V30 1860 C 174.349 -1.8195 -0.418464 0
M  V30 1861 C 174.7 -1.02508 -1.67292 0
M  V30 1862 O 173.825 -0.258496 -2.14851 0
M  V30 1863 C 174.42 -3.30028 -0.765979 0
M  V30 1864 C 172.979 -3.55469 -1.23769 0
M  V30 1865 C 172.126 -2.7625 -0.241106 0
M  V30 1866 H 175.077 -1.55149 0.33384 0
M  V30 1867 H 175.098 -3.44086 -1.62434 0
M  V30 1868 H 174.61 -3.87821 0.147219 0
M  V30 1869 H 172.711 -3.03022 -2.16814 0
M  V30 1870 H 172.824 -4.6408 -1.19022 0
M  V30 1871 H 171.188 -2.44133 -0.72602 0
M  V30 1872 H 171.971 -3.36797 0.665007 0
M  V30 1873 N 174.416 0.165178 -1.56732 0
M  V30 1874 C 175.326 1.22423 -2.00125 0
M  V30 1875 C 176.342 1.48084 -0.913619 0
M  V30 1876 O 177.518 1.60112 -1.22172 0
M  V30 1877 C 174.583 2.54197 -2.35764 0
M  V30 1878 C 173.644 2.36343 -3.58386 0
M  V30 1879 C 172.877 3.61834 -3.92316 0
M  V30 1880 O 173.1 4.67267 -3.27135 0
M  V30 1881 O 172.034 3.55579 -4.85641 0
M  V30 1882 H 175.86 0.885886 -2.90492 0
M  V30 1883 H 173.445 0.372518 -1.44681 0
M  V30 1884 H 175.327 3.3192 -2.59629 0
M  V30 1885 H 174.002 2.87598 -1.48557 0
M  V30 1886 H 172.909 1.56632 -3.39731 0
M  V30 1887 H 174.242 2.07865 -4.46154 0
M  V30 1888 N 175.894 1.51508 0.433938 0
M  V30 1889 C 176.804 1.75917 1.5521 0
M  V30 1890 C 177.82 0.643545 1.61662 0
M  V30 1891 O 178.996 0.926183 1.7884 0
M  V30 1892 C 176.061 1.88213 2.91164 0
M  V30 1893 C 175.122 3.12074 2.94802 0
M  V30 1894 C 174.355 3.23774 4.24271 0
M  V30 1895 O 174.578 2.4133 5.16833 0
M  V30 1896 O 173.512 4.16774 4.34262 0
M  V30 1897 H 177.338 2.70777 1.37527 0
M  V30 1898 H 174.923 1.36051 0.617293 0
M  V30 1899 H 176.805 1.98267 3.71845 0
M  V30 1900 H 175.48 0.965413 3.08968 0
M  V30 1901 H 174.387 3.07497 2.13065 0
M  V30 1902 H 175.72 4.03446 2.81943 0
M  V30 1903 N 177.372 -0.689602 1.41712 0
M  V30 1904 C 178.602 -1.47613 1.44548 0
M  V30 1905 C 179.01 -1.89132 0.0509034 0
M  V30 1906 O 178.353 -1.57741 -0.94146 0
M  V30 1907 C 178.415 -2.76596 2.2964 0
M  V30 1908 C 178.079 -2.57245 3.77722 0
M  V30 1909 C 179.076 -2.22804 4.69739 0
M  V30 1910 C 176.761 -2.727 4.2183 0
M  V30 1911 C 178.755 -2.04064 6.03851 0
M  V30 1912 C 176.442 -2.53576 5.56006 0
M  V30 1913 C 177.44 -2.1931 6.46832 0
M  V30 1914 O 177.128 -2.00359 7.78532 0
M  V30 1915 H 176.86 -0.461227 0.494212 0
M  V30 1916 H 179.414 -0.856045 1.86711 0
M  V30 1917 H 177.644 -3.41033 1.82301 0
M  V30 1918 H 179.333 -3.38424 2.24107 0
M  V30 1919 H 180.099 -2.10473 4.36951 0
M  V30 1920 H 175.978 -2.98353 3.51435 0
M  V30 1921 H 179.522 -1.77241 6.74708 0
M  V30 1922 H 175.419 -2.65499 5.88371 0
M  V30 1923 H 176.187 -2.15075 7.89737 0
M  V30 1924 N 178.85 -1.27639 -0.924453 0
M  V30 1925 C 179.797 -1.10644 -2.0255 0
M  V30 1926 C 180.767 -0.00658438 -1.66099 0
M  V30 1927 O 181.952 -0.16952 -1.90045 0
M  V30 1928 C 179.092 -0.76309 -3.36557 0
M  V30 1929 C 178.205 -1.94091 -3.85944 0
M  V30 1930 C 177.34 -1.53914 -5.08413 0
M  V30 1931 C 176.379 -2.68425 -5.50104 0
M  V30 1932 N 175.516 -2.28815 -6.63768 0
M  V30 1933 H 180.356 -2.04858 -2.16419 0
M  V30 1934 H 177.893 -1.01974 -1.06017 0
M  V30 1935 H 179.851 -0.544822 -4.13627 0
M  V30 1936 H 178.481 0.142102 -3.22487 0
M  V30 1937 H 177.533 -2.27162 -3.05125 0
M  V30 1938 H 178.845 -2.7998 -4.12811 0
M  V30 1939 H 177.999 -1.28231 -5.92994 0
M  V30 1940 H 176.738 -0.651391 -4.8333 0
M  V30 1941 H 175.743 -2.94819 -4.64071 0
M  V30 1942 H 176.968 -3.57826 -5.7718 0
M  V30 1943 H 174.914 -1.42495 -6.40337 0
M  V30 1944 H 174.831 -3.08242 -6.90306 0
M  V30 1945 H 176.099 -2.06387 -7.51681 0
M  V30 1946 N 180.328 1.1314 -1.09713 0
M  V30 1947 C 181.739 1.66029 -0.853885 0
M  V30 1948 C 182.09 1.86241 0.617142 0
M  V30 1949 O 181.215 1.5834 1.47503 0
M  V30 1950 C 181.81 3.01599 -1.5435 0
M  V30 1951 C 180.369 3.51467 -1.34714 0
M  V30 1952 C 179.516 2.26648 -1.59769 0
M  V30 1953 H 182.467 0.970226 -1.25588 0
M  V30 1954 H 182.488 3.67709 -0.978267 0
M  V30 1955 H 182 2.86856 -2.6141 0
M  V30 1956 H 180.101 3.71408 -0.297838 0
M  V30 1957 H 180.214 4.314 -2.08401 0
M  V30 1958 H 178.578 2.33385 -1.01998 0
M  V30 1959 H 179.361 2.14467 -2.68065 0
M  V30 1960 N 181.806 0.884767 1.30421 0
M  V30 1961 C 183.034 0.518044 2.0031 0
M  V30 1962 C 183.449 -0.893408 1.66324 0
M  V30 1963 O 182.806 -1.5875 0.900262 0
M  V30 1964 C 182.857 0.682997 3.54989 0
M  V30 1965 O 182.578 2.03888 3.87764 0
M  V30 1966 C 184.079 0.31924 4.42149 0
M  V30 1967 H 181.299 0.200265 0.640418 0
M  V30 1968 H 183.843 1.19001 1.6631 0
M  V30 1969 H 181.998 0.0584052 3.87356 0
M  V30 1970 H 182.412 2.05735 4.82466 0
M  V30 1971 H 183.886 0.485555 5.4986 0
M  V30 1972 H 184.363 -0.742717 4.32875 0
M  V30 1973 H 184.969 0.920147 4.15227 0
M  V30 1974 N 183.284 -1.43765 0.645699 0
M  V30 1975 C 184.53 -2.02197 0.156271 0
M  V30 1976 C 184.863 -1.50776 -1.22393 0
M  V30 1977 O 184.138 -0.697771 -1.81553 0
M  V30 1978 C 184.421 -3.59749 0.158872 0
M  V30 1979 C 184.274 -4.21419 1.57245 0
M  V30 1980 C 185.593 -4.37149 -0.50879 0
M  V30 1981 H 182.712 -0.734694 0.0582602 0
M  V30 1982 H 185.354 -1.71157 0.824951 0
M  V30 1983 H 183.504 -3.86325 -0.410525 0
M  V30 1984 H 185.176 -4.059 2.19186 0
M  V30 1985 H 183.419 -3.78356 2.122 0
M  V30 1986 H 184.09 -5.30482 1.52619 0
M  V30 1987 H 186.566 -4.16093 -0.024412 0
M  V30 1988 H 185.442 -5.4683 -0.476213 0
M  V30 1989 H 185.703 -4.12839 -1.58165 0
M  V30 1990 N 184.763 -0.387143 -1.52771 0
M  V30 1991 C 186.179 -0.037007 -1.59557 0
M  V30 1992 C 186.379 1.44801 -1.40124 0
M  V30 1993 O 185.435 2.21227 -1.21716 0
M  V30 1994 C 186.748 -0.512256 -2.96305 0
M  V30 1995 C 188.296 -0.468328 -3.09476 0
M  V30 1996 C 188.771 -0.919731 -4.4867 0
M  V30 1997 N 190.262 -0.875656 -4.54848 0
M  V30 1998 C 190.997 -1.19637 -5.6078 0
M  V30 1999 N 190.493 -1.58745 -6.74368 0
M  V30 2000 N 192.286 -1.11776 -5.50874 0
M  V30 2001 H 184.437 -1.35395 -1.63652 0
M  V30 2002 H 186.7 -0.554818 -0.768688 0
M  V30 2003 H 186.406 -1.54935 -3.15734 0
M  V30 2004 H 186.28 0.089805 -3.77093 0
M  V30 2005 H 188.667 0.559671 -2.89744 0
M  V30 2006 H 188.748 -1.10616 -2.30646 0
M  V30 2007 H 188.392 -1.94595 -4.69143 0
M  V30 2008 H 188.322 -0.258927 -5.25963 0
M  V30 2009 H 190.813 -0.587843 -3.733 0
M  V30 2010 H 191.126 -1.81586 -7.51163 0
M  V30 2011 H 189.471 -1.6263 -6.75705 0
M  V30 2012 H 192.662 -0.811264 -4.61016 0
M  V30 2013 H 192.835 -1.37103 -6.3333 0
M  V30 2014 N 186.241 1.57166 -0.116904 0
M  V30 2015 C 187.204 2.14039 0.819742 0
M  V30 2016 C 188.204 1.07477 1.19605 0
M  V30 2017 O 189.394 1.33263 1.1219 0
M  V30 2018 C 186.526 2.67891 2.10826 0
M  V30 2019 H 187.719 2.98128 0.325511 0
M  V30 2020 H 185.272 1.55739 0.132312 0
M  V30 2021 H 186.007 1.87384 2.64685 0
M  V30 2022 H 185.792 3.45823 1.84793 0
M  V30 2023 H 187.282 3.11809 2.77785 0
M  V30 2024 N 187.719 -0.156864 1.56817 0
M  V30 2025 C 188.651 -1.21883 1.94106 0
M  V30 2026 C 189.664 -1.3971 0.835754 0
M  V30 2027 O 190.853 -1.39457 1.11418 0
M  V30 2028 C 187.953 -2.58527 2.19127 0
M  V30 2029 C 187.126 -2.61809 3.50393 0
M  V30 2030 C 186.185 -3.7992 3.64071 0
M  V30 2031 O 185.211 -3.65249 4.36557 0
M  V30 2032 N 186.413 -4.96973 2.99997 0
M  V30 2033 H 189.178 -0.901974 2.85805 0
M  V30 2034 H 186.739 -0.346513 1.58148 0
M  V30 2035 H 188.731 -3.36034 2.25529 0
M  V30 2036 H 187.301 -2.82545 1.33742 0
M  V30 2037 H 186.521 -1.7029 3.5552 0
M  V30 2038 H 187.809 -2.61024 4.36742 0
M  V30 2039 H 187.207 -5.11794 2.41004 0
M  V30 2040 H 185.764 -5.7229 3.11974 0
M  V30 2041 N 189.197 -1.51736 -0.425897 0
M  V30 2042 C 190.127 -1.76827 -1.52494 0
M  V30 2043 C 191.108 -0.618524 -1.58456 0
M  V30 2044 O 192.293 -0.862416 -1.74 0
M  V30 2045 C 189.423 -1.90374 -2.90474 0
M  V30 2046 C 188.377 -3.0588 -2.99369 0
M  V30 2047 C 187.703 -3.04625 -4.3944 0
M  V30 2048 C 189.003 -4.45644 -2.72394 0
M  V30 2049 H 190.697 -2.68855 -1.31748 0
M  V30 2050 H 188.243 -1.29372 -0.632362 0
M  V30 2051 H 190.196 -2.0651 -3.6733 0
M  V30 2052 H 188.92 -0.95004 -3.12477 0
M  V30 2053 H 187.579 -2.89467 -2.24954 0
M  V30 2054 H 187.227 -2.0701 -4.58428 0
M  V30 2055 H 186.927 -3.82195 -4.46319 0
M  V30 2056 H 188.451 -3.22869 -5.18255 0
M  V30 2057 H 189.865 -4.62348 -3.38979 0
M  V30 2058 H 188.262 -5.25006 -2.9067 0
M  V30 2059 H 189.332 -4.54893 -1.67929 0
M  V30 2060 N 190.675 0.682077 -1.42076 0
M  V30 2061 C 191.585 1.82535 -1.47371 0
M  V30 2062 C 192.601 1.7017 -0.363079 0
M  V30 2063 O 193.777 1.91848 -0.612875 0
M  V30 2064 C 190.842 3.18624 -1.36674 0
M  V30 2065 C 189.903 3.42999 -2.58167 0
M  V30 2066 C 189.136 4.72595 -2.4797 0
M  V30 2067 O 189.359 5.50006 -1.5116 0
M  V30 2068 O 188.293 4.98054 -3.37974 0
M  V30 2069 H 192.119 1.81023 -2.43853 0
M  V30 2070 H 189.704 0.836887 -1.2376 0
M  V30 2071 H 191.586 3.99847 -1.33043 0
M  V30 2072 H 190.261 3.20789 -0.433138 0
M  V30 2073 H 189.168 2.61653 -2.67373 0
M  V30 2074 H 190.501 3.45659 -3.50401 0
M  V30 2075 N 192.153 1.28127 0.917671 0
M  V30 2076 C 193.1 1.11717 2.0196 0
M  V30 2077 C 194.07 0.0153929 1.66093 0
M  V30 2078 O 195.255 0.179596 1.89953 0
M  V30 2079 C 192.395 0.780927 3.36148 0
M  V30 2080 C 191.508 1.96135 3.84909 0
M  V30 2081 C 190.643 1.56609 5.0759 0
M  V30 2082 C 189.682 2.71339 5.48673 0
M  V30 2083 N 188.819 2.32332 6.62545 0
M  V30 2084 H 193.659 2.06003 2.15329 0
M  V30 2085 H 191.196 1.02535 1.05475 0
M  V30 2086 H 193.154 0.56675 4.13333 0
M  V30 2087 H 191.784 -0.124998 3.22558 0
M  V30 2088 H 190.836 2.28777 3.03916 0
M  V30 2089 H 192.148 2.82165 4.1132 0
M  V30 2090 H 191.302 1.31374 5.92305 0
M  V30 2091 H 190.041 0.677014 4.82978 0
M  V30 2092 H 189.046 2.97276 4.62501 0
M  V30 2093 H 190.271 3.60882 5.75274 0
M  V30 2094 H 188.217 1.45889 6.39572 0
M  V30 2095 H 188.134 3.11899 6.88662 0
M  V30 2096 H 189.402 2.10371 7.50576 0
M  V30 2097 N 193.631 -1.12557 1.10312 0
M  V30 2098 C 194.578 -2.18247 0.750781 0
M  V30 2099 C 195.548 -1.63853 -0.272293 0
M  V30 2100 O 196.733 -1.90195 -0.151862 0
M  V30 2101 C 193.873 -3.44591 0.187379 0
M  V30 2102 C 192.986 -4.13046 1.2656 0
M  V30 2103 C 192.121 -5.27034 0.663978 0
M  V30 2104 C 191.16 -5.87353 1.72287 0
M  V30 2105 N 190.297 -6.92757 1.1416 0
M  V30 2106 H 195.137 -2.47732 1.65628 0
M  V30 2107 H 192.674 -1.21629 0.827337 0
M  V30 2108 H 194.632 -4.16904 -0.157148 0
M  V30 2109 H 193.262 -3.15527 -0.681355 0
M  V30 2110 H 192.314 -3.38924 1.72727 0
M  V30 2111 H 193.626 -4.53947 2.06721 0
M  V30 2112 H 192.78 -6.06104 0.268824 0
M  V30 2113 H 191.519 -4.87407 -0.169082 0
M  V30 2114 H 190.524 -5.06971 2.12746 0
M  V30 2115 H 191.749 -6.29051 2.55875 0
M  V30 2116 H 189.695 -6.5517 0.329984 0
M  V30 2117 H 189.612 -7.3225 1.88007 0
M  V30 2118 H 190.88 -7.75658 0.772956 0
M  V30 2119 N 195.109 -0.891671 -1.2995 0
M  V30 2120 C 196.039 -0.379797 -2.30391 0
M  V30 2121 C 197.02 0.540919 -1.6127 0
M  V30 2122 O 198.205 0.453352 -1.88834 0
M  V30 2123 C 195.335 0.400654 -3.44981 0
M  V30 2124 C 194.289 -0.428905 -4.25846 0
M  V30 2125 C 193.615 0.478557 -5.32554 0
M  V30 2126 C 194.915 -1.67458 -4.94727 0
M  V30 2127 H 196.609 -1.21914 -2.73454 0
M  V30 2128 H 194.155 -0.587675 -1.31462 0
M  V30 2129 H 196.108 0.769434 -4.14316 0
M  V30 2130 H 194.832 1.27371 -3.0074 0
M  V30 2131 H 193.491 -0.779911 -3.58208 0
M  V30 2132 H 193.139 1.34951 -4.84559 0
M  V30 2133 H 192.839 -0.0727433 -5.87555 0
M  V30 2134 H 194.363 0.843705 -6.04743 0
M  V30 2135 H 195.777 -1.376 -5.56542 0
M  V30 2136 H 194.174 -2.16659 -5.59624 0
M  V30 2137 H 195.244 -2.41518 -4.20473 0
M  V30 2138 N 196.587 1.43421 -0.653314 0
M  V30 2139 C 197.519 2.29071 0.0769134 0
M  V30 2140 C 198.532 1.42513 0.787017 0
M  V30 2141 O 199.721 1.66449 0.644757 0
M  V30 2142 C 196.821 3.19436 1.13199 0
M  V30 2143 C 195.994 4.34533 0.500006 0
M  V30 2144 C 195.053 5.05771 1.45198 0
M  V30 2145 O 194.079 5.61037 0.960538 0
M  V30 2146 N 195.281 5.0928 2.78594 0
M  V30 2147 H 198.046 2.92382 -0.658235 0
M  V30 2148 H 195.607 1.54112 -0.496104 0
M  V30 2149 H 197.599 3.63958 1.76964 0
M  V30 2150 H 196.169 2.57724 1.7691 0
M  V30 2151 H 195.389 3.92925 -0.316738 0
M  V30 2152 H 196.677 5.08766 0.0588345 0
M  V30 2153 H 196.075 4.65751 3.2108 0
M  V30 2154 H 194.632 5.57519 3.37662 0
M  V30 2155 N 198.065 0.39524 1.52563 0
M  V30 2156 C 199.295 -0.184675 2.05773 0
M  V30 2157 C 199.703 -1.40571 1.26635 0
M  V30 2158 O 199.046 -1.81105 0.30769 0
M  V30 2159 C 199.108 -0.613551 3.54226 0
M  V30 2160 C 198.772 0.49484 4.54313 0
M  V30 2161 C 199.769 1.3541 5.01956 0
M  V30 2162 C 197.454 0.663565 4.97898 0
M  V30 2163 C 199.448 2.36716 5.91814 0
M  V30 2164 C 197.135 1.67996 5.87555 0
M  V30 2165 C 198.133 2.53017 6.34406 0
M  V30 2166 O 197.821 3.52917 7.22291 0
M  V30 2167 H 197.553 -0.030077 0.675331 0
M  V30 2168 H 200.107 0.560708 1.97599 0
M  V30 2169 H 198.337 -1.411 3.60038 0
M  V30 2170 H 200.026 -1.11981 3.90148 0
M  V30 2171 H 200.792 1.23509 4.6901 0
M  V30 2172 H 196.671 0.0114913 4.60999 0
M  V30 2173 H 200.215 3.03113 6.28306 0
M  V30 2174 H 196.112 1.79933 6.19915 0
M  V30 2175 H 196.88 3.48996 7.40367 0
M  V30 2176 N 199.544 -1.57102 0.125237 0
M  V30 2177 C 200.79 -1.95697 -0.532035 0
M  V30 2178 C 201.123 -1.009 -1.6593 0
M  V30 2179 O 200.398 -0.047347 -1.94442 0
M  V30 2180 C 200.681 -3.44181 -1.05884 0
M  V30 2181 C 200.534 -4.49752 0.0654392 0
M  V30 2182 C 201.853 -3.94655 -1.9477 0
M  V30 2183 H 198.972 -0.711571 -0.191925 0
M  V30 2184 H 201.614 -1.88923 0.20206 0
M  V30 2185 H 199.764 -3.50085 -1.68442 0
M  V30 2186 H 201.436 -4.55943 0.700982 0
M  V30 2187 H 199.679 -4.27653 0.727709 0
M  V30 2188 H 200.35 -5.50924 -0.344505 0
M  V30 2189 H 202.826 -3.91094 -1.42074 0
M  V30 2190 H 201.702 -4.99057 -2.28546 0
M  V30 2191 H 201.963 -3.35718 -2.87656 0
M  V30 2192 N 201.022 0.148545 -1.56898 0
M  V30 2193 C 201.97 1.20265 -1.99096 0
M  V30 2194 C 202.964 1.44559 -0.883123 0
M  V30 2195 O 204.17 1.4487 -1.0683 0
M  V30 2196 H 200.545 0.404786 -0.63376 0
M  V30 2197 H 202.516 0.82004 -2.86911 0
M  V30 2198 C 201.265 2.52886 -2.3863 0
M  V30 2199 H 200.588 2.35021 -3.23427 0
M  V30 2200 H 202.028 3.25274 -2.7198 0
M  V30 2201 C 200.487 3.13315 -1.23837 0
M  V30 2202 O 201.017 3.98077 -0.538268 0
M  V30 2203 N 199.223 2.72742 -1.00301 0
M  V30 2204 H 198.77 2.03912 -1.5741 0
M  V30 2205 H 198.728 3.13507 -0.236838 0
M  V30 2206 N 202.5 1.5196 0.417844 0
M  V30 2207 C 203.41 1.77554 1.53336 0
M  V30 2208 C 204.426 0.660655 1.6097 0
M  V30 2209 O 205.602 0.945099 1.77848 0
M  V30 2210 C 202.667 1.91291 2.89152 0
M  V30 2211 C 201.728 3.15183 2.91475 0
M  V30 2212 C 200.961 3.28256 4.20813 0
M  V30 2213 O 201.184 2.46798 5.14244 0
M  V30 2214 O 200.118 4.21356 4.29817 0
M  V30 2215 H 203.944 2.7222 1.34647 0
M  V30 2216 H 201.529 1.36698 0.602828 0
M  V30 2217 H 203.411 2.02199 3.69721 0
M  V30 2218 H 202.086 0.998129 3.07927 0
M  V30 2219 H 200.993 3.09739 2.09791 0
M  V30 2220 H 202.326 4.06414 2.77648 0
M  V30 2221 N 203.978 -0.674533 1.42435 0
M  V30 2222 C 204.941 -1.76986 1.45632 0
M  V30 2223 C 205.941 -1.5708 0.343871 0
M  V30 2224 O 207.131 -1.63367 0.604709 0
M  V30 2225 C 204.263 -3.15623 1.28822 0
M  V30 2226 H 205.456 -1.75539 2.43158 0
M  V30 2227 H 203.009 -0.884189 1.28887 0
M  V30 2228 H 203.744 -3.22696 0.322193 0
M  V30 2229 H 203.529 -3.31475 2.09444 0
M  V30 2230 H 205.019 -3.95537 1.33942 0
M  V30 2231 N 205.456 -1.28612 -0.910864 0
M  V30 2232 C 206.386 -1.15326 -2.03032 0
M  V30 2233 C 207.367 -0.0502924 -1.70026 0
M  V30 2234 O 208.552 -0.227797 -1.92859 0
M  V30 2235 C 205.682 -0.817343 -3.37545 0
M  V30 2236 C 204.636 -1.8754 -3.84724 0
M  V30 2237 C 203.962 -1.39305 -5.16235 0
M  V30 2238 C 205.262 -3.28244 -4.06267 0
M  V30 2239 H 206.956 -2.08975 -2.14406 0
M  V30 2240 H 204.502 -1.00612 -1.03021 0
M  V30 2241 H 206.455 -0.711151 -4.15356 0
M  V30 2242 H 205.179 0.154846 -3.26233 0
M  V30 2243 H 203.838 -1.97079 -3.09121 0
M  V30 2244 H 203.486 -0.409846 -5.01328 0
M  V30 2245 H 203.186 -2.10057 -5.48771 0
M  V30 2246 H 204.71 -1.30014 -5.96598 0
M  V30 2247 H 206.124 -3.21611 -4.74594 0
M  V30 2248 H 204.521 -3.96855 -4.5014 0
M  V30 2249 H 205.591 -3.72048 -3.10979 0
M  V30 2250 N 206.934 1.1197 -1.10907 0
M  V30 2251 C 207.881 2.17846 -0.762345 0
M  V30 2252 C 208.851 1.63995 0.263599 0
M  V30 2253 O 210.036 1.90273 0.141773 0
M  V30 2254 C 207.176 3.44487 -0.205651 0
M  V30 2255 C 206.289 4.12369 -1.28748 0
M  V30 2256 C 205.424 5.26674 -0.691919 0
M  V30 2257 C 204.463 5.86431 -1.75399 0
M  V30 2258 N 203.6 6.92142 -1.17833 0
M  V30 2259 H 208.44 2.46851 -1.6694 0
M  V30 2260 H 205.977 1.21188 -0.833776 0
M  V30 2261 H 207.935 4.16981 0.135037 0
M  V30 2262 H 206.565 3.15884 0.664613 0
M  V30 2263 H 205.617 3.38003 -1.74522 0
M  V30 2264 H 206.929 4.52844 -2.09125 0
M  V30 2265 H 206.083 6.05953 -0.300963 0
M  V30 2266 H 204.822 4.8749 0.143232 0
M  V30 2267 H 203.827 5.05835 -2.15432 0
M  V30 2268 H 205.052 6.27685 -2.59208 0
M  V30 2269 H 202.998 6.54985 -0.364725 0
M  V30 2270 H 202.915 7.31242 -1.91887 0
M  V30 2271 H 204.183 7.75237 -0.81408 0
M  V30 2272 N 208.412 0.89855 1.29475 0
M  V30 2273 C 209.689 0.443416 1.90508 0
M  V30 2274 C 210.069 -1.07685 1.81569 0
M  V30 2275 O 209.417 -1.9182 1.24166 0
M  V30 2276 C 209.627 0.956708 3.35631 0
M  V30 2277 C 210.975 0.999728 4.12663 0
M  V30 2278 O 211.999 0.904299 3.4453 0
M  V30 2279 O 210.858 1.14289 5.34416 0
M  V30 2280 H 207.952 0.138025 0.815401 0
M  V30 2281 H 210.498 0.98834 1.37949 0
M  V30 2282 H 209.27 2.00067 3.36287 0
M  V30 2283 H 208.893 0.391728 3.95666 0
M  V30 2284 N 209.89 -1.43072 0.660911 0
M  V30 2285 C 210.8 -2.34585 -0.0264163 0
M  V30 2286 C 211.816 -1.54316 -0.803898 0
M  V30 2287 O 212.992 -1.86939 -0.749391 0
M  V30 2288 C 210.057 -3.32689 -0.975639 0
M  V30 2289 C 209.118 -4.2886 -0.194236 0
M  V30 2290 C 208.351 -5.22278 -1.09825 0
M  V30 2291 O 208.574 -5.20299 -2.33763 0
M  V30 2292 O 207.508 -5.99228 -0.566513 0
M  V30 2293 H 211.334 -2.94869 0.727034 0
M  V30 2294 H 208.919 -1.43342 0.42111 0
M  V30 2295 H 210.801 -3.92995 -1.52094 0
M  V30 2296 H 209.476 -2.74898 -1.70918 0
M  V30 2297 H 208.383 -3.72011 0.394835 0
M  V30 2298 H 209.716 -4.89655 0.499899 0
M  V30 2299 N 211.368 -0.403325 -1.52352 0
M  V30 2300 C 212.318 0.442244 -2.2367 0
M  V30 2301 C 213.302 1.01823 -1.24583 0
M  V30 2302 O 214.494 0.942005 -1.49851 0
M  V30 2303 C 211.623 1.5615 -3.05732 0
M  V30 2304 C 210.709 0.996575 -4.12225 0
M  V30 2305 N 211.1 0.157804 -5.05554 0
M  V30 2306 C 209.398 1.26767 -4.27605 0
M  V30 2307 C 210.099 -0.155853 -5.81491 0
M  V30 2308 N 209.075 0.451775 -5.41719 0
M  V30 2309 H 212.877 -0.204964 -2.93184 0
M  V30 2310 H 210.391 -0.213418 -1.60992 0
M  V30 2311 H 212.388 2.17981 -3.55373 0
M  V30 2312 H 211.048 2.21139 -2.37755 0
M  V30 2313 H 212.059 -0.206049 -5.1749 0
M  V30 2314 H 208.736 1.91757 -3.70858 0
M  V30 2315 H 210.126 -0.836329 -6.66675 0
M  V30 2316 N 212.846 1.57033 -0.133567 0
M  V30 2317 C 214.092 1.96764 0.515326 0
M  V30 2318 C 214.447 1.01653 1.63353 0
M  V30 2319 O 213.74 0.0491374 1.91537 0
M  V30 2320 C 213.934 3.40674 1.08057 0
M  V30 2321 C 213.763 4.49696 0.0186522 0
M  V30 2322 C 212.533 5.03567 -0.418174 0
M  V30 2323 C 214.731 5.08536 -0.767809 0
M  V30 2324 N 212.713 5.9618 -1.46434 0
M  V30 2325 C 214.084 5.97231 -1.6648 0
M  V30 2326 C 216.139 4.9115 -0.817087 0
M  V30 2327 C 214.842 6.70401 -2.60681 0
M  V30 2328 C 216.868 5.65012 -1.74687 0
M  V30 2329 C 216.23 6.53403 -2.63141 0
M  V30 2330 H 212.329 0.765919 0.157771 0
M  V30 2331 H 214.913 1.93395 -0.22506 0
M  V30 2332 H 213.084 3.44662 1.79061 0
M  V30 2333 H 214.816 3.67495 1.69497 0
M  V30 2334 H 211.571 4.73594 -0.0229803 0
M  V30 2335 H 211.995 6.47191 -1.98678 0
M  V30 2336 H 216.637 4.22543 -0.147326 0
M  V30 2337 H 214.355 7.38245 -3.28664 0
M  V30 2338 H 217.941 5.53559 -1.79063 0
M  V30 2339 H 216.821 7.09556 -3.33917 0
M  V30 2340 N 214.325 -0.140222 1.56975 0
M  V30 2341 C 215.574 -0.850152 1.82908 0
M  V30 2342 C 215.887 -1.82028 0.715892 0
M  V30 2343 O 217.093 -2.57485 0.861016 0
M  V30 2344 C 215.549 -1.5625 3.24213 0
M  V30 2345 C 215.157 -0.63443 4.43485 0
M  V30 2346 C 216.901 -2.25881 3.59413 0
M  V30 2347 C 214.808 -1.34879 5.75814 0
M  V30 2348 H 213.738 -0.321221 0.682153 0
M  V30 2349 H 216.389 -0.102874 1.83211 0
M  V30 2350 H 214.771 -2.35565 3.18316 0
M  V30 2351 H 215.945 0.12398 4.60633 0
M  V30 2352 H 214.26 -0.0461836 4.16374 0
M  V30 2353 H 216.857 -2.79978 4.5554 0
M  V30 2354 H 217.2 -3.02693 2.85802 0
M  V30 2355 H 217.733 -1.53477 3.67001 0
M  V30 2356 H 214.472 -0.622385 6.52539 0
M  V30 2357 H 213.992 -2.07974 5.6259 0
M  V30 2358 H 215.671 -1.88784 6.18845 0
M  V30 2359 N 215.803 -1.52179 -0.40978 0
M  V30 2360 C 217.043 -1.67882 -1.16597 0
M  V30 2361 C 217.407 -0.399795 -1.87791 0
M  V30 2362 O 218.608 -0.43292 -2.65291 0
M  V30 2363 C 216.879 -2.86662 -2.13448 0
M  V30 2364 S 218.438 -3.22843 -2.97183 0
M  V30 2365 H 215.256 -0.59118 -0.395002 0
M  V30 2366 H 217.858 -1.9017 -0.453373 0
M  V30 2367 H 216.562 -3.77998 -1.59831 0
M  V30 2368 H 216.093 -2.66645 -2.89247 0
M  V30 2369 H 218.108 -2.71415 -4.15389 0
M  V30 2370 N 217.281 0.66697 -1.42791 0
M  V30 2371 C 218.529 1.42417 -1.43394 0
M  V30 2372 C 218.85 1.94925 -0.0542373 0
M  V30 2373 O 218.12 1.73564 0.908415 0
M  V30 2374 H 216.7 0.528515 -0.527902 0
M  V30 2375 H 219.362 0.787562 -1.78279 0
M  V30 2376 H 218.458 2.27333 -2.13837 0
M  V30 2377 N 218.759 1.29093 0.90403 0
M  V30 2378 C 219.691 1.09658 2.01266 0
M  V30 2379 C 220.704 0.0453729 1.62737 0
M  V30 2380 O 221.893 0.289446 1.76138 0
M  V30 2381 C 218.993 0.646278 3.32681 0
M  V30 2382 C 218.166 1.77505 3.99763 0
M  V30 2383 C 217.225 1.31649 5.09465 0
M  V30 2384 O 216.251 2.02045 5.32134 0
M  V30 2385 N 217.453 0.184997 5.80205 0
M  V30 2386 H 220.218 2.05135 2.18494 0
M  V30 2387 H 217.779 1.20975 1.07594 0
M  V30 2388 H 219.771 0.322906 4.0341 0
M  V30 2389 H 218.341 -0.215916 3.11853 0
M  V30 2390 H 217.561 2.26752 3.22455 0
M  V30 2391 H 218.849 2.53198 4.41325 0
M  V30 2392 H 218.247 -0.402021 5.6427 0
M  V30 2393 H 216.804 -0.0790358 6.51752 0
M  V30 2394 N 220.237 -1.11381 1.11499 0
M  V30 2395 C 221.653 -1.35143 0.849031 0
M  V30 2396 C 221.853 -1.94515 -0.525938 0
M  V30 2397 O 220.909 -2.1785 -1.27662 0
M  V30 2398 C 222.222 -2.28249 1.95762 0
M  V30 2399 C 223.77 -2.41812 1.98736 0
M  V30 2400 C 224.245 -3.3824 3.088 0
M  V30 2401 N 225.736 -3.45803 3.08179 0
M  V30 2402 C 226.471 -4.20358 3.89982 0
M  V30 2403 N 225.967 -4.97884 4.8175 0
M  V30 2404 N 227.76 -4.15877 3.78157 0
M  V30 2405 H 219.911 -0.712062 2.00109 0
M  V30 2406 H 222.174 -0.376025 0.870235 0
M  V30 2407 H 221.88 -1.91817 2.94787 0
M  V30 2408 H 221.754 -3.28473 1.85433 0
M  V30 2409 H 224.141 -2.77518 1.00338 0
M  V30 2410 H 224.222 -1.41437 2.13141 0
M  V30 2411 H 223.866 -3.03261 4.07425 0
M  V30 2412 H 223.796 -4.38471 2.91635 0
M  V30 2413 H 226.287 -2.90506 2.41691 0
M  V30 2414 H 226.6 -5.52142 5.40702 0
M  V30 2415 H 224.945 -4.97043 4.85771 0
M  V30 2416 H 228.136 -3.544 3.05808 0
M  V30 2417 H 228.309 -4.73723 4.42143 0
M  V30 2418 N 221.715 -0.905404 -1.28997 0
M  V30 2419 C 222.962 -0.534248 -1.95325 0
M  V30 2420 C 223.29 0.920535 -1.71337 0
M  V30 2421 O 222.545 1.66861 -1.02254 0
M  V30 2422 C 222.844 -0.779906 -3.48787 0
M  V30 2423 C 222.51 -2.21293 -3.92861 0
M  V30 2424 C 221.172 -2.60475 -4.04606 0
M  V30 2425 C 223.524 -3.14587 -4.15553 0
M  V30 2426 C 220.852 -3.9212 -4.36416 0
M  V30 2427 C 223.204 -4.45787 -4.48839 0
M  V30 2428 C 221.868 -4.84834 -4.58794 0
M  V30 2429 H 221.138 -0.195495 -0.714747 0
M  V30 2430 H 223.785 -1.14514 -1.53488 0
M  V30 2431 H 222.09 -0.0861365 -3.91705 0
M  V30 2432 H 223.787 -0.472029 -3.98212 0
M  V30 2433 H 220.377 -1.89887 -3.84241 0
M  V30 2434 H 224.561 -2.85528 -4.0594 0
M  V30 2435 H 219.817 -4.22086 -4.42327 0
M  V30 2436 H 223.991 -5.18098 -4.65346 0
M  V30 2437 H 221.618 -5.86877 -4.83197 0
M  V30 2438 N 223.193 1.4272 -0.668489 0
M  V30 2439 C 224.421 2.05966 -0.196348 0
M  V30 2440 C 224.836 1.50191 1.14403 0
M  V30 2441 O 224.193 0.639208 1.7094 0
M  V30 2442 C 224.244 3.61314 -0.115815 0
M  V30 2443 O 223.965 4.1502 -1.40322 0
M  V30 2444 C 225.466 4.41663 0.380579 0
M  V30 2445 H 222.686 0.663954 -0.0969829 0
M  V30 2446 H 225.23 1.82966 -0.913446 0
M  V30 2447 H 223.385 3.83448 0.551931 0
M  V30 2448 H 223.799 5.08832 -1.27243 0
M  V30 2449 H 225.273 5.5065 0.385848 0
M  V30 2450 H 225.75 4.15792 1.41471 0
M  V30 2451 H 226.356 4.24534 -0.255209 0
M  V30 2452 N 224.671 0.411399 1.52136 0
M  V30 2453 C 225.92 -0.165009 2.01024 0
M  V30 2454 C 226.233 -1.4603 1.30133 0
M  V30 2455 O 227.439 -2.1181 1.69849 0
M  V30 2456 C 225.895 -0.344618 3.58246 0
M  V30 2457 C 225.503 0.938716 4.38055 0
M  V30 2458 C 227.247 -0.876195 4.15359 0
M  V30 2459 C 225.154 0.726172 5.86925 0
M  V30 2460 H 224.084 -0.0654407 0.751155 0
M  V30 2461 H 226.735 0.537192 1.75461 0
M  V30 2462 H 225.117 -1.10921 3.80148 0
M  V30 2463 H 226.291 1.70963 4.27912 0
M  V30 2464 H 224.606 1.39688 3.92271 0
M  V30 2465 H 227.203 -1.05128 5.24263 0
M  V30 2466 H 227.546 -1.85152 3.7286 0
M  V30 2467 H 228.079 -0.170607 3.97434 0
M  V30 2468 H 224.818 1.67312 6.33788 0
M  V30 2469 H 224.338 -0.00540283 5.998 0
M  V30 2470 H 226.017 0.369231 6.45946 0
M  V30 2471 N 226.149 -1.5696 0.141893 0
M  V30 2472 C 227.112 -2.15316 -0.785587 0
M  V30 2473 C 228.112 -1.09366 -1.1788 0
M  V30 2474 O 229.302 -1.35031 -1.10056 0
M  V30 2475 C 226.434 -2.71211 -2.06537 0
M  V30 2476 H 227.627 -2.98608 -0.278041 0
M  V30 2477 H 225.18 -1.5593 -0.107519 0
M  V30 2478 H 225.915 -1.91571 -2.6167 0
M  V30 2479 H 225.7 -3.4872 -1.79268 0
M  V30 2480 H 227.19 -3.16189 -2.72789 0
M  V30 2481 N 227.627 0.131896 -1.57047 0
M  V30 2482 C 228.904 0.871495 -1.75112 0
M  V30 2483 C 229.284 1.9866 -0.713949 0
M  V30 2484 O 228.632 2.26965 0.264447 0
M  V30 2485 C 228.842 1.40007 -3.19686 0
M  V30 2486 C 230.19 1.85752 -3.81813 0
M  V30 2487 O 231.214 1.49715 -3.23209 0
M  V30 2488 O 230.073 2.5226 -4.84796 0
M  V30 2489 H 227.167 0.412919 -0.716538 0
M  V30 2490 H 229.713 0.116641 -1.69299 0
M  V30 2491 H 228.485 0.599404 -3.86682 0
M  V30 2492 H 228.108 2.218 -3.29986 0
M  V30 2493 N 229.106 1.52395 0.401703 0
M  V30 2494 C 230.069 1.75636 1.47257 0
M  V30 2495 C 231.069 0.62628 1.48103 0
M  V30 2496 O 232.259 0.894227 1.49497 0
M  V30 2497 C 229.391 1.84553 2.86624 0
M  V30 2498 H 230.584 2.71241 1.27938 0
M  V30 2499 H 228.137 1.42923 0.632662 0
M  V30 2500 H 228.872 0.908882 3.11303 0
M  V30 2501 H 228.657 2.66715 2.87412 0
M  V30 2502 H 230.147 2.04251 3.64241 0
M  V30 2503 N 230.584 -0.659388 1.43143 0
M  V30 2504 C 231.814 -1.44513 1.47646 0
M  V30 2505 C 232.222 -1.88981 0.0910095 0
M  V30 2506 O 231.565 -1.59702 -0.907789 0
M  V30 2507 C 231.627 -2.71663 2.35456 0
M  V30 2508 C 231.291 -2.49175 3.83094 0
M  V30 2509 C 232.288 -2.1279 4.74359 0
M  V30 2510 C 229.973 -2.63691 4.27519 0
M  V30 2511 C 231.967 -1.9121 6.08044 0
M  V30 2512 C 229.654 -2.41726 5.61259 0
M  V30 2513 C 230.652 -2.0554 6.51339 0
M  V30 2514 O 230.34 -1.838 7.82606 0
M  V30 2515 H 230.072 -0.45064 0.503884 0
M  V30 2516 H 232.626 -0.816248 1.88485 0
M  V30 2517 H 230.856 -3.37089 1.89493 0
M  V30 2518 H 232.545 -3.33595 2.31235 0
M  V30 2519 H 233.311 -2.01157 4.41317 0
M  V30 2520 H 229.19 -2.90832 3.57684 0
M  V30 2521 H 232.734 -1.62889 6.78316 0
M  V30 2522 H 228.631 -2.52959 5.9387 0
M  V30 2523 H 229.399 -1.98275 7.94122 0
M  V30 2524 N 232.062 -1.29571 -0.897171 0
M  V30 2525 C 232.992 -1.17473 -2.01798 0
M  V30 2526 C 233.973 -0.068323 -1.69963 0
M  V30 2527 O 235.158 -0.248239 -1.92607 0
M  V30 2528 C 232.288 -0.853099 -3.36659 0
M  V30 2529 C 231.242 -1.9161 -3.82713 0
M  V30 2530 C 230.568 -1.44773 -5.14728 0
M  V30 2531 C 231.868 -3.32535 -4.02763 0
M  V30 2532 H 233.562 -2.11237 -2.12177 0
M  V30 2533 H 231.108 -1.01699 -1.01948 0
M  V30 2534 H 233.061 -0.755165 -4.14578 0
M  V30 2535 H 231.785 0.120236 -3.26379 0
M  V30 2536 H 230.444 -2.00346 -3.07013 0
M  V30 2537 H 230.092 -0.462995 -5.00865 0
M  V30 2538 H 229.792 -2.15865 -5.46513 0
M  V30 2539 H 231.316 -1.36334 -5.95185 0
M  V30 2540 H 232.73 -3.26626 -4.71156 0
M  V30 2541 H 231.127 -4.01607 -4.45905 0
M  V30 2542 H 232.197 -3.75326 -3.07016 0
M  V30 2543 N 233.54 1.10788 -1.12088 0
M  V30 2544 C 234.787 1.82671 -0.873931 0
M  V30 2545 C 235.115 1.85004 0.600311 0
M  V30 2546 O 234.37 1.30365 1.45957 0
M  V30 2547 C 234.669 3.29294 -1.38926 0
M  V30 2548 C 234.335 3.47113 -2.87791 0
M  V30 2549 C 232.997 3.51684 -3.28439 0
M  V30 2550 C 235.349 3.52808 -3.83635 0
M  V30 2551 C 232.677 3.59513 -4.63646 0
M  V30 2552 C 235.029 3.62169 -5.18668 0
M  V30 2553 C 233.693 3.65003 -5.58864 0
M  V30 2554 H 232.963 0.668441 -0.319794 0
M  V30 2555 H 235.61 1.30613 -1.40045 0
M  V30 2556 H 233.915 3.83894 -0.783122 0
M  V30 2557 H 235.612 3.83416 -1.17443 0
M  V30 2558 H 232.202 3.4423 -2.5535 0
M  V30 2559 H 236.386 3.4853 -3.53328 0
M  V30 2560 H 231.642 3.59987 -4.94185 0
M  V30 2561 H 235.816 3.6552 -5.92763 0
M  V30 2562 H 233.443 3.70822 -6.63623 0
M  V30 2563 N 235.018 0.912232 1.28515 0
M  V30 2564 C 236.246 0.560416 1.99166 0
M  V30 2565 C 236.661 -0.857927 1.68182 0
M  V30 2566 O 236.018 -1.56805 0.933733 0
M  V30 2567 C 236.069 0.758142 3.53461 0
M  V30 2568 O 235.79 2.12067 3.83352 0
M  V30 2569 C 237.291 0.412954 4.41372 0
M  V30 2570 H 234.511 0.213805 0.636026 0
M  V30 2571 H 237.055 1.22502 1.63749 0
M  V30 2572 H 235.21 0.140556 3.87145 0
M  V30 2573 H 235.624 2.15923 4.77993 0
M  V30 2574 H 237.098 0.60208 5.48707 0
M  V30 2575 H 237.575 -0.65073 4.34353 0
M  V30 2576 H 238.181 1.00802 4.13182 0
M  V30 2577 N 236.496 -1.42363 0.676048 0
M  V30 2578 C 237.742 -2.0182 0.199125 0
M  V30 2579 C 238.075 -1.53339 -1.19168 0
M  V30 2580 O 237.35 -0.736124 -1.80032 0
M  V30 2581 C 237.633 -3.59331 0.235144 0
M  V30 2582 C 237.486 -4.17989 1.66149 0
M  V30 2583 C 238.805 -4.3813 -0.41595 0
M  V30 2584 H 235.924 -0.733293 0.0738311 0
M  V30 2585 H 238.566 -1.69368 0.86107 0
M  V30 2586 H 236.716 -3.87109 -0.328487 0
M  V30 2587 H 238.388 -4.0116 2.27747 0
M  V30 2588 H 236.631 -3.7377 2.20178 0
M  V30 2589 H 237.302 -5.27126 1.63837 0
M  V30 2590 H 239.778 -4.16051 0.0638529 0
M  V30 2591 H 238.654 -5.47717 -0.360115 0
M  V30 2592 H 238.915 -4.16101 -1.49373 0
M  V30 2593 N 237.974 -0.419461 -1.51915 0
M  V30 2594 C 238.904 0.391813 -2.30189 0
M  V30 2595 C 239.885 1.03699 -1.34836 0
M  V30 2596 O 241.07 1.04403 -1.63748 0
M  V30 2597 C 238.2 1.50312 -3.13087 0
M  V30 2598 C 237.154 0.9824 -4.16573 0
M  V30 2599 C 236.48 2.18809 -4.8788 0
M  V30 2600 C 237.78 0.0292356 -5.22292 0
M  V30 2601 H 239.474 -0.26135 -2.98257 0
M  V30 2602 H 237.02 -0.127134 -1.43438 0
M  V30 2603 H 238.973 2.07773 -3.66617 0
M  V30 2604 H 237.697 2.18431 -2.42807 0
M  V30 2605 H 236.356 0.430119 -3.64068 0
M  V30 2606 H 236.004 2.85507 -4.14119 0
M  V30 2607 H 235.704 1.84615 -5.57845 0
M  V30 2608 H 237.228 2.76858 -5.44226 0
M  V30 2609 H 238.642 0.512976 -5.71 0
M  V30 2610 H 237.039 -0.2244 -5.9968 0
M  V30 2611 H 238.109 -0.912931 -4.76228 0
M  V30 2612 N 239.452 1.56882 -0.150215 0
M  V30 2613 C 240.868 1.58263 0.20617 0
M  V30 2614 C 241.068 1.16464 1.64434 0
M  V30 2615 O 240.124 0.866422 2.3717 0
M  V30 2616 C 241.437 3.00649 -0.0555025 0
M  V30 2617 C 242.985 3.12999 0.00795388 0
M  V30 2618 C 243.46 4.5744 -0.226429 0
M  V30 2619 N 244.951 4.62875 -0.173469 0
M  V30 2620 C 245.686 5.72454 -0.329288 0
M  V30 2621 N 245.182 6.90669 -0.543005 0
M  V30 2622 N 246.975 5.61467 -0.266666 0
M  V30 2623 H 239.126 1.82345 -1.08922 0
M  V30 2624 H 241.389 0.844149 -0.431413 0
M  V30 2625 H 241.095 3.3563 -1.05096 0
M  V30 2626 H 240.969 3.71337 0.66246 0
M  V30 2627 H 243.356 2.77857 0.993966 0
M  V30 2628 H 243.437 2.4479 -0.742388 0
M  V30 2629 H 243.081 4.93287 -1.20956 0
M  V30 2630 H 243.011 5.2378 0.544274 0
M  V30 2631 H 245.502 3.77898 -0.0130709 0
M  V30 2632 H 245.815 7.70045 -0.651922 0
M  V30 2633 H 244.16 6.92581 -0.579366 0
M  V30 2634 H 247.351 4.67992 -0.100441 0
M  V30 2635 H 247.524 6.46816 -0.391535 0
M  V30 2636 N 240.93 -0.123565 1.57115 0
M  V30 2637 C 242.176 -0.828428 1.85765 0
M  V30 2638 C 242.531 -1.77709 0.737371 0
M  V30 2639 O 241.824 -1.89787 -0.262978 0
M  V30 2640 C 242.018 -1.62016 3.18568 0
M  V30 2641 C 241.847 -0.749663 4.43407 0
M  V30 2642 C 240.617 -0.406251 5.03664 0
M  V30 2643 C 242.815 -0.0693505 5.14253 0
M  V30 2644 N 240.797 0.475389 6.12057 0
M  V30 2645 C 242.168 0.671474 6.16353 0
M  V30 2646 C 244.223 0.00754393 4.97899 0
M  V30 2647 C 242.926 1.48197 7.03868 0
M  V30 2648 C 244.952 0.804845 5.85898 0
M  V30 2649 C 244.314 1.53388 6.87497 0
M  V30 2650 H 240.413 -0.280219 0.73007 0
M  V30 2651 H 242.997 -0.0924183 1.94481 0
M  V30 2652 H 241.168 -2.32724 3.10957 0
M  V30 2653 H 242.9 -2.27 3.35042 0
M  V30 2654 H 239.655 -0.747446 4.67665 0
M  V30 2655 H 240.079 0.907924 6.70884 0
M  V30 2656 H 244.721 -0.541741 4.19315 0
M  V30 2657 H 242.439 2.04242 7.81864 0
M  V30 2658 H 246.025 0.866642 5.75309 0
M  V30 2659 H 244.905 2.1409 7.5441 0
M  V30 2660 N 242.408 -1.52605 -0.393616 0
M  V30 2661 C 243.371 -1.76415 -1.46323 0
M  V30 2662 C 244.371 -0.634126 -1.47768 0
M  V30 2663 O 245.561 -0.902142 -1.4902 0
M  V30 2664 C 242.693 -1.8607 -2.85641 0
M  V30 2665 H 243.886 -2.71916 -1.26498 0
M  V30 2666 H 241.439 -1.43257 -0.625073 0
M  V30 2667 H 242.174 -0.925378 -3.10817 0
M  V30 2668 H 241.959 -2.68235 -2.85993 0
M  V30 2669 H 243.449 -2.06179 -3.63153 0
M  V30 2670 N 243.887 0.651787 -1.4349 0
M  V30 2671 C 245.117 1.43728 -1.48411 0
M  V30 2672 C 245.525 1.8893 -0.10103 0
M  V30 2673 O 244.868 1.60182 0.899307 0
M  V30 2674 C 244.93 2.70411 -2.36893 0
M  V30 2675 C 244.594 2.4714 -3.8441 0
M  V30 2676 C 245.591 2.10271 -4.75481 0
M  V30 2677 C 243.276 2.6142 -4.28912 0
M  V30 2678 C 245.27 1.87982 -6.0905 0
M  V30 2679 C 242.957 2.38746 -5.62533 0
M  V30 2680 C 243.955 2.02083 -6.5242 0
M  V30 2681 O 243.643 1.79647 -7.8357 0
M  V30 2682 H 243.375 0.447962 -0.506267 0
M  V30 2683 H 245.929 0.80624 -1.88915 0
M  V30 2684 H 244.159 3.36079 -1.91278 0
M  V30 2685 H 245.848 3.32364 -2.33 0
M  V30 2686 H 246.614 1.98814 -4.42378 0
M  V30 2687 H 242.493 2.88931 -3.59222 0
M  V30 2688 H 246.037 1.5929 -6.7917 0
M  V30 2689 H 241.934 2.49806 -5.95203 0
M  V30 2690 H 242.702 1.9406 -7.95162 0
M  V30 2691 N 245.365 1.30045 0.890287 0
M  V30 2692 C 246.328 1.15963 1.977 0
M  V30 2693 C 247.328 0.0923777 1.60534 0
M  V30 2694 O 248.518 0.340071 1.70848 0
M  V30 2695 C 245.65 0.775451 3.31963 0
M  V30 2696 H 246.843 2.12502 2.11619 0
M  V30 2697 H 244.396 1.13366 1.07601 0
M  V30 2698 H 245.131 -0.189671 3.23745 0
M  V30 2699 H 244.916 1.54668 3.60306 0
M  V30 2700 H 246.406 0.700251 4.11687 0
M  V30 2701 N 246.843 -1.10192 1.12674 0
M  V30 2702 C 248.089 -1.82475 0.884915 0
M  V30 2703 C 248.422 -1.85093 -0.58773 0
M  V30 2704 O 247.697 -1.3134 -1.43457 0
M  V30 2705 C 247.98 -3.29018 1.46353 0
M  V30 2706 C 247.833 -3.34718 3.00473 0
M  V30 2707 C 249.152 -4.25473 1.12519 0
M  V30 2708 H 246.271 -0.662492 0.322915 0
M  V30 2709 H 248.913 -1.2913 1.39375 0
M  V30 2710 H 247.063 -3.74576 1.03077 0
M  V30 2711 H 248.735 -2.97622 3.52447 0
M  V30 2712 H 246.978 -2.74541 3.35872 0
M  V30 2713 H 247.649 -4.37918 3.36053 0
M  V30 2714 H 250.125 -3.88161 1.499 0
M  V30 2715 H 249.001 -5.26365 1.55663 0
M  V30 2716 H 249.262 -4.42084 0.0377407 0
M  V30 2717 N 248.321 -0.919034 -1.28029 0
M  V30 2718 C 249.268 -0.410005 -2.27129 0
M  V30 2719 C 250.238 0.518405 -1.57803 0
M  V30 2720 O 251.423 0.439451 -1.8567 0
M  V30 2721 C 248.563 0.339054 -3.4343 0
M  V30 2722 C 247.676 -0.622468 -4.27492 0
M  V30 2723 C 246.811 0.145567 -5.31001 0
M  V30 2724 C 245.85 -0.809226 -6.06727 0
M  V30 2725 N 244.987 -0.0743728 -7.02061 0
M  V30 2726 H 249.827 -1.26011 -2.70047 0
M  V30 2727 H 247.364 -0.632663 -1.328 0
M  V30 2728 H 249.322 0.789586 -4.0966 0
M  V30 2729 H 247.952 1.15346 -3.01488 0
M  V30 2730 H 247.004 -1.19153 -3.61257 0
M  V30 2731 H 248.316 -1.35252 -4.80113 0
M  V30 2732 H 247.47 0.656417 -6.03139 0
M  V30 2733 H 246.209 0.908643 -4.79161 0
M  V30 2734 H 245.214 -1.3314 -5.33436 0
M  V30 2735 H 246.439 -1.57194 -6.60656 0
M  V30 2736 H 244.385 0.670616 -6.52563 0
M  V30 2737 H 244.302 -0.744157 -7.52329 0
M  V30 2738 H 245.57 0.416109 -7.78389 0
M  V30 2739 N 249.799 1.42003 -0.683588 0
M  V30 2740 C 250.729 2.33487 -0.024866 0
M  V30 2741 C 251.71 1.51163 0.779975 0
M  V30 2742 O 252.895 1.79739 0.735362 0
M  V30 2743 C 250.025 3.3487 0.920836 0
M  V30 2744 C 248.979 4.27414 0.223958 0
M  V30 2745 C 248.305 5.19074 1.2832 0
M  V30 2746 C 249.605 5.14445 -0.90242 0
M  V30 2747 H 251.299 2.88819 -0.788921 0
M  V30 2748 H 248.845 1.38873 -0.38083 0
M  V30 2749 H 250.798 3.97787 1.39081 0
M  V30 2750 H 249.522 2.77861 1.71642 0
M  V30 2751 H 248.181 3.65904 -0.225864 0
M  V30 2752 H 247.829 4.58387 2.071 0
M  V30 2753 H 247.529 5.81822 0.821995 0
M  V30 2754 H 249.053 5.84867 1.75392 0
M  V30 2755 H 250.467 5.70998 -0.513272 0
M  V30 2756 H 248.864 5.86072 -1.28997 0
M  V30 2757 H 249.934 4.52322 -1.74737 0
M  V30 2758 N 251.277 0.427512 1.51691 0
M  V30 2759 C 252.225 -0.403359 2.29076 0
M  V30 2760 C 253.219 -1.02962 1.34518 0
M  V30 2761 O 254.425 -0.965715 1.51901 0
M  V30 2762 H 250.8 -0.148879 0.737115 0
M  V30 2763 H 252.771 0.270295 2.97173 0
M  V30 2764 C 251.52 -1.49763 3.13794 0
M  V30 2765 H 250.843 -1.02508 3.86435 0
M  V30 2766 H 252.283 -2.05244 3.71014 0
M  V30 2767 C 250.742 -2.47536 2.28533 0
M  V30 2768 O 251.272 -3.51848 1.93819 0
M  V30 2769 N 249.478 -2.18187 1.91945 0
M  V30 2770 H 249.025 -1.33389 2.20375 0
M  V30 2771 H 248.983 -2.83848 1.35195 0
M  V30 2772 N 252.755 -1.56801 0.158532 0
M  V30 2773 C 253.685 -2.20347 -0.772609 0
M  V30 2774 C 254.666 -1.15518 -1.24859 0
M  V30 2775 O 255.851 -1.43902 -1.30406 0
M  V30 2776 C 252.981 -2.83417 -2.00729 0
M  V30 2777 C 251.935 -3.94174 -1.66765 0
M  V30 2778 C 251.261 -4.44233 -2.97592 0
M  V30 2779 C 252.561 -5.14392 -0.905447 0
M  V30 2780 H 254.255 -2.98413 -0.242959 0
M  V30 2781 H 251.801 -1.43537 -0.115419 0
M  V30 2782 H 253.754 -3.26543 -2.6636 0
M  V30 2783 H 252.478 -2.02701 -2.56086 0
M  V30 2784 H 251.137 -3.51684 -1.03508 0
M  V30 2785 H 250.785 -3.60325 -3.50963 0
M  V30 2786 H 250.485 -5.18945 -2.75626 0
M  V30 2787 H 252.009 -4.90037 -3.64274 0
M  V30 2788 H 253.423 -5.5429 -1.46408 0
M  V30 2789 H 251.82 -5.9494 -0.7853 0
M  V30 2790 H 252.89 -4.84795 0.100668 0
M  V30 2791 N 254.233 0.115231 -1.57178 0
M  V30 2792 C 255.143 1.15994 -2.03918 0
M  V30 2793 C 256.159 1.45103 -0.960268 0
M  V30 2794 O 257.335 1.56144 -1.27204 0
M  V30 2795 C 254.4 2.46568 -2.43732 0
M  V30 2796 C 253.461 2.24822 -3.65723 0
M  V30 2797 C 252.694 3.4917 -4.03629 0
M  V30 2798 O 252.917 4.56623 -3.41835 0
M  V30 2799 O 251.851 3.39949 -4.96708 0
M  V30 2800 H 255.677 0.793019 -2.93164 0
M  V30 2801 H 253.262 0.3263 -1.45793 0
M  V30 2802 H 255.144 3.23492 -2.70057 0
M  V30 2803 H 253.819 2.82726 -1.57631 0
M  V30 2804 H 252.726 1.45744 -3.44542 0
M  V30 2805 H 254.059 1.93566 -4.52541 0
M  V30 2806 N 255.711 1.52812 0.385517 0
M  V30 2807 C 256.959 1.67694 1.12797 0
M  V30 2808 C 257.28 0.421115 1.90399 0
M  V30 2809 O 256.55 -0.564551 1.87589 0
M  V30 2810 H 255.13 0.618155 0.419396 0
M  V30 2811 H 257.792 1.89938 0.436972 0
M  V30 2812 H 256.888 2.52896 1.82894 0
M  V30 2813 N 257.189 -0.644168 1.43834 0
M  V30 2814 C 258.119 -1.76814 1.52509 0
M  V30 2815 C 259.1 -1.65823 0.379052 0
M  V30 2816 O 260.285 -1.84781 0.597466 0
M  V30 2817 C 257.415 -3.15288 1.4564 0
M  V30 2818 C 256.369 -3.41053 2.58586 0
M  V30 2819 C 255.695 -4.79421 2.36769 0
M  V30 2820 C 256.995 -3.34902 4.00797 0
M  V30 2821 H 258.689 -1.69812 2.46586 0
M  V30 2822 H 256.235 -0.815542 1.1868 0
M  V30 2823 H 258.188 -3.93681 1.50311 0
M  V30 2824 H 256.912 -3.23043 0.480725 0
M  V30 2825 H 255.571 -2.65035 2.53282 0
M  V30 2826 H 255.219 -4.83863 1.37424 0
M  V30 2827 H 254.919 -4.9762 3.12487 0
M  V30 2828 H 256.443 -5.6006 2.43238 0
M  V30 2829 H 257.857 -4.03218 4.07539 0
M  V30 2830 H 256.254 -3.64637 4.76613 0
M  V30 2831 H 257.324 -2.32928 4.25291 0
M  V30 2832 N 258.668 -1.30515 -0.883378 0
M  V30 2833 C 259.578 -1.18959 -2.02203 0
M  V30 2834 C 260.594 -0.109172 -1.73657 0
M  V30 2835 O 261.77 -0.324413 -1.9877 0
M  V30 2836 C 258.835 -0.883871 -3.35244 0
M  V30 2837 C 257.896 -2.04982 -3.77201 0
M  V30 2838 C 257.129 -1.75859 -5.03894 0
M  V30 2839 O 257.352 -0.687276 -5.66244 0
M  V30 2840 O 256.286 -2.61146 -5.42297 0
M  V30 2841 H 260.112 -2.14616 -2.1488 0
M  V30 2842 H 257.697 -1.10124 -1.0096 0
M  V30 2843 H 259.579 -0.728644 -4.15053 0
M  V30 2844 H 258.254 0.0427798 -3.23672 0
M  V30 2845 H 257.161 -2.26038 -2.9809 0
M  V30 2846 H 258.494 -2.95825 -3.93381 0
M  V30 2847 N 260.146 1.09593 -1.13257 0
M  V30 2848 C 261.096 2.14345 -0.777179 0
M  V30 2849 C 262.08 1.59277 0.227966 0
M  V30 2850 O 263.272 1.76971 0.0321413 0
M  V30 2851 C 260.401 3.42439 -0.242991 0
M  V30 2852 C 259.487 4.04419 -1.27694 0
M  V30 2853 N 259.878 4.40979 -2.47732 0
M  V30 2854 C 258.176 4.31596 -1.12432 0
M  V30 2855 C 258.877 4.89784 -3.13826 0
M  V30 2856 N 257.853 4.87133 -2.41252 0
M  V30 2857 H 261.655 2.40415 -1.69049 0
M  V30 2858 H 259.169 1.26803 -1.01463 0
M  V30 2859 H 261.166 4.16889 0.0298496 0
M  V30 2860 H 259.826 3.17824 0.66467 0
M  V30 2861 H 260.837 4.32396 -2.85051 0
M  V30 2862 H 257.514 4.16595 -0.274684 0
M  V30 2863 H 258.904 5.2755 -4.16102 0
M  V30 2864 N 261.624 0.925811 1.2754 0
M  V30 2865 C 262.873 0.561084 1.93739 0
M  V30 2866 C 263.186 -0.901685 1.73577 0
M  V30 2867 O 264.392 -1.37511 2.34101 0
M  V30 2868 C 262.848 0.952668 3.47062 0
M  V30 2869 C 262.456 2.43599 3.75983 0
M  V30 2870 C 264.2 0.659103 4.19352 0
M  V30 2871 C 262.107 2.76707 5.22673 0
M  V30 2872 H 261.037 0.206122 0.725279 0
M  V30 2873 H 263.688 1.12637 1.44863 0
M  V30 2874 H 262.07 0.316053 3.94737 0
M  V30 2875 H 263.244 3.12035 3.39073 0
M  V30 2876 H 261.559 2.70125 3.16893 0
M  V30 2877 H 264.156 0.882985 5.27359 0
M  V30 2878 H 264.499 -0.403607 4.14339 0
M  V30 2879 H 265.032 1.25473 3.77494 0
M  V30 2880 H 261.771 3.8188 5.32774 0
M  V30 2881 H 261.291 2.12919 5.60737 0
M  V30 2882 H 262.97 2.6435 5.90532 0
M  V30 2883 N 263.102 -1.41638 0.69111 0
M  V30 2884 C 264.065 -2.29178 0.0319786 0
M  V30 2885 C 265.065 -1.44153 -0.712496 0
M  V30 2886 O 266.255 -1.65354 -0.548053 0
M  V30 2887 C 263.387 -3.26952 -0.965161 0
M  V30 2888 H 264.58 -2.88959 0.802681 0
M  V30 2889 H 262.133 -1.4955 0.454356 0
M  V30 2890 H 262.868 -2.72142 -1.76378 0
M  V30 2891 H 262.653 -3.89685 -0.434522 0
M  V30 2892 H 264.143 -3.92561 -1.42428 0
M  V30 2893 N 264.58 -0.43555 -1.51462 0
M  V30 2894 C 265.543 0.365137 -2.26273 0
M  V30 2895 C 266.543 0.951227 -1.29647 0
M  V30 2896 O 267.733 0.825958 -1.53374 0
M  V30 2897 C 264.865 1.51645 -3.05314 0
M  V30 2898 H 266.058 -0.290474 -2.9849 0
M  V30 2899 H 263.611 -0.188676 -1.55157 0
M  V30 2900 H 264.346 2.20816 -2.3751 0
M  V30 2901 H 264.131 1.10238 -3.76284 0
M  V30 2902 H 265.621 2.08218 -3.61987 0
M  V30 2903 N 266.058 1.56714 -0.166846 0
M  V30 2904 C 267.305 1.96747 0.479252 0
M  V30 2905 C 267.633 1.05263 1.63554 0
M  V30 2906 O 266.888 0.0858098 1.95512 0
M  V30 2907 C 267.187 3.42889 1.00806 0
M  V30 2908 C 266.853 4.50889 -0.0318574 0
M  V30 2909 C 265.515 4.8015 -0.317675 0
M  V30 2910 C 267.867 5.15949 -0.737956 0
M  V30 2911 C 265.195 5.71772 -1.31506 0
M  V30 2912 C 267.547 6.08647 -1.72429 0
M  V30 2913 C 266.211 6.36277 -2.0176 0
M  V30 2914 H 265.481 0.719949 0.175371 0
M  V30 2915 H 268.128 1.89756 -0.257864 0
M  V30 2916 H 266.433 3.4681 1.82291 0
M  V30 2917 H 268.13 3.71203 1.51689 0
M  V30 2918 H 264.72 4.28128 0.201088 0
M  V30 2919 H 268.904 4.93458 -0.530351 0
M  V30 2920 H 264.16 5.91465 -1.54853 0
M  V30 2921 H 268.334 6.58129 -2.27682 0
M  V30 2922 H 265.961 7.07075 -2.79194 0
M  V30 2923 N 267.536 -0.106894 1.57237 0
M  V30 2924 C 268.469 -1.16125 1.96444 0
M  V30 2925 C 269.447 -1.3947 0.835871 0
M  V30 2926 O 270.631 -1.53425 1.09513 0
M  V30 2927 C 267.758 -2.51277 2.27107 0
M  V30 2928 C 266.804 -2.44285 3.4961 0
M  V30 2929 S 267.637 -1.87077 5.01759 0
M  V30 2930 C 268.793 -3.23877 5.35588 0
M  V30 2931 H 269.026 -0.826971 2.85567 0
M  V30 2932 H 266.559 -0.314124 1.51171 0
M  V30 2933 H 268.517 -3.29035 2.45451 0
M  V30 2934 H 267.178 -2.81879 1.38576 0
M  V30 2935 H 266.371 -3.4387 3.68469 0
M  V30 2936 H 265.973 -1.74652 3.30715 0
M  V30 2937 H 268.265 -4.20122 5.31511 0
M  V30 2938 H 269.208 -3.09833 6.36717 0
M  V30 2939 H 269.616 -3.22864 4.63054 0
M  V30 2940 N 269.014 -1.53014 -0.377408 0
M  V30 2941 C 269.946 -1.74884 -1.48149 0
M  V30 2942 C 270.959 -0.629433 -1.5014 0
M  V30 2943 O 272.148 -0.905416 -1.53833 0
M  V30 2944 C 269.248 -1.80299 -2.86959 0
M  V30 2945 C 268.421 -3.09776 -3.08801 0
M  V30 2946 C 267.48 -3.06586 -4.27658 0
M  V30 2947 O 266.506 -3.80419 -4.23403 0
M  V30 2948 N 267.708 -2.26578 -5.34455 0
M  V30 2949 H 270.473 -2.70147 -1.29771 0
M  V30 2950 H 268.034 -1.51646 -0.56703 0
M  V30 2951 H 270.026 -1.75657 -3.64591 0
M  V30 2952 H 268.596 -0.92372 -2.98641 0
M  V30 2953 H 267.816 -3.27815 -2.18931 0
M  V30 2954 H 269.104 -3.95366 -3.20255 0
M  V30 2955 H 268.502 -1.66081 -5.40771 0
M  V30 2956 H 267.059 -2.27766 -6.10709 0
M  V30 2957 N 270.492 0.636531 -1.44174 0
M  V30 2958 C 271.908 0.954104 -1.27941 0
M  V30 2959 C 272.108 2.0039 -0.211248 0
M  V30 2960 O 271.164 2.49236 0.404695 0
M  V30 2961 C 272.477 1.4225 -2.64925 0
M  V30 2962 C 274.025 1.53827 -2.72592 0
M  V30 2963 C 274.5 2.04053 -4.10032 0
M  V30 2964 N 275.991 2.11331 -4.12182 0
M  V30 2965 C 276.726 2.51352 -5.15374 0
M  V30 2966 N 276.222 2.90549 -6.2893 0
M  V30 2967 N 278.015 2.51438 -5.02728 0
M  V30 2968 H 270.166 -0.0578386 -2.12321 0
M  V30 2969 H 272.429 0.0367406 -0.947288 0
M  V30 2970 H 272.135 0.725466 -3.44136 0
M  V30 2971 H 272.009 2.39451 -2.9145 0
M  V30 2972 H 274.396 2.22628 -1.93702 0
M  V30 2973 H 274.477 0.550154 -2.49814 0
M  V30 2974 H 274.121 1.35848 -4.89395 0
M  V30 2975 H 274.051 3.03726 -4.30184 0
M  V30 2976 H 276.542 1.83745 -3.30222 0
M  V30 2977 H 276.855 3.19884 -7.03487 0
M  V30 2978 H 275.2 2.88313 -6.32377 0
M  V30 2979 H 278.391 2.20203 -4.13072 0
M  V30 2980 H 278.564 2.82304 -5.83274 0
M  V30 2981 N 271.97 1.30982 0.876444 0
M  V30 2982 C 272.903 1.12414 1.98591 0
M  V30 2983 C 273.881 0.0294078 1.62573 0
M  V30 2984 O 275.065 0.184598 1.87594 0
M  V30 2985 C 272.192 0.716276 3.3104 0
M  V30 2986 C 271.238 1.81311 3.86042 0
M  V30 2987 S 272.071 3.41727 4.1229 0
M  V30 2988 C 273.227 3.02863 5.47745 0
M  V30 2989 H 273.46 2.06338 2.14037 0
M  V30 2990 H 270.993 1.15393 1.02586 0
M  V30 2991 H 272.951 0.487697 4.07593 0
M  V30 2992 H 271.612 -0.203749 3.13438 0
M  V30 2993 H 270.805 1.48021 4.81774 0
M  V30 2994 H 270.407 1.99641 3.16259 0
M  V30 2995 H 272.699 2.51353 6.29148 0
M  V30 2996 H 273.642 3.97533 5.8598 0
M  V30 2997 H 274.05 2.40487 5.10711 0
M  V30 2998 N 273.449 -1.08991 1.13837 0
M  V30 2999 C 274.412 -2.13925 0.822715 0
M  V30 3000 C 275.412 -1.599 -0.1699 0
M  V30 3001 O 276.602 -1.74104 0.0577251 0
M  V30 3002 C 273.734 -3.40155 0.225318 0
M  V30 3003 H 274.927 -2.43358 1.75262 0
M  V30 3004 H 272.48 -1.24603 0.943594 0
M  V30 3005 H 273.215 -3.16352 -0.713594 0
M  V30 3006 H 273 -3.80661 0.940193 0
M  V30 3007 H 274.49 -4.17594 0.0214784 0
M  V30 3008 N 274.927 -0.932562 -1.27047 0
M  V30 3009 C 275.837 -0.441219 -2.30414 0
M  V30 3010 C 276.853 0.480525 -1.67233 0
M  V30 3011 O 278.029 0.362151 -1.98117 0
M  V30 3012 C 275.094 0.293651 -3.45454 0
M  V30 3013 C 274.155 -0.663601 -4.2414 0
M  V30 3014 C 273.388 0.0362932 -5.33688 0
M  V30 3015 O 273.611 1.2548 -5.56427 0
M  V30 3016 O 272.545 -0.638015 -5.98509 0
M  V30 3017 H 276.371 -1.29962 -2.74488 0
M  V30 3018 H 273.956 -0.6981 -1.32087 0
M  V30 3019 H 275.838 0.707951 -4.15411 0
M  V30 3020 H 274.513 1.12758 -3.03426 0
M  V30 3021 H 273.42 -1.12768 -3.56699 0
M  V30 3022 H 274.753 -1.46489 -4.69896 0
M  V30 3023 N 276.405 1.4127 -0.698611 0
M  V30 3024 C 277.821 1.55241 -0.370462 0
M  V30 3025 C 278.021 1.67351 1.12231 0
M  V30 3026 O 277.077 1.65363 1.90818 0
M  V30 3027 C 278.39 2.78997 -1.12165 0
M  V30 3028 C 279.938 2.92797 -1.1063 0
M  V30 3029 C 280.413 4.19445 -1.8393 0
M  V30 3030 N 281.904 4.26409 -1.80914 0
M  V30 3031 C 282.639 5.23271 -2.34467 0
M  V30 3032 N 282.135 6.26145 -2.96504 0
M  V30 3033 N 283.928 5.15232 -2.24706 0
M  V30 3034 H 276.079 1.31654 -1.66676 0
M  V30 3035 H 278.342 0.635393 -0.703548 0
M  V30 3036 H 278.048 2.76268 -2.17644 0
M  V30 3037 H 277.922 3.70606 -0.702209 0
M  V30 3038 H 280.309 2.95039 -0.0597713 0
M  V30 3039 H 280.39 2.02353 -1.56483 0
M  V30 3040 H 280.034 4.17964 -2.88563 0
M  V30 3041 H 279.964 5.08866 -1.35509 0
M  V30 3042 H 282.455 3.527 -1.35687 0
M  V30 3043 H 282.768 6.96451 -3.34927 0
M  V30 3044 H 281.113 6.26638 -3.00583 0
M  V30 3045 H 284.304 4.33789 -1.7591 0
M  V30 3046 H 284.477 5.90552 -2.66745 0
M  V30 3047 N 277.883 0.443576 1.51229 0
M  V30 3048 C 279.294 -0.0180867 1.86691 0
M  V30 3049 C 279.645 -1.41384 1.36033 0
M  V30 3050 O 278.77 -2.04291 0.713722 0
M  V30 3051 C 279.365 -0.039597 3.38777 0
M  V30 3052 C 277.924 -0.445692 3.73752 0
M  V30 3053 C 277.071 0.357584 2.74985 0
M  V30 3054 H 280.022 0.659138 1.44364 0
M  V30 3055 H 280.043 -0.847761 3.70936 0
M  V30 3056 H 279.555 0.976382 3.75617 0
M  V30 3057 H 277.656 -1.46704 3.42503 0
M  V30 3058 H 277.769 -0.166155 4.78812 0
M  V30 3059 H 276.133 -0.184973 2.54027 0
M  V30 3060 H 276.916 1.37256 3.14668 0
M  V30 3061 N 279.361 -1.56624 0.175154 0
M  V30 3062 C 280.271 -2.21741 -0.766042 0
M  V30 3063 C 281.287 -1.21023 -1.25018 0
M  V30 3064 O 282.463 -1.53697 -1.3015 0
M  V30 3065 C 279.528 -2.84839 -1.97655 0
M  V30 3066 C 278.589 -4.00769 -1.53892 0
M  V30 3067 C 277.822 -4.60849 -2.69173 0
M  V30 3068 O 278.045 -4.19823 -3.86141 0
M  V30 3069 O 276.979 -5.50655 -2.43028 0
M  V30 3070 H 280.805 -3.02738 -0.241585 0
M  V30 3071 H 278.39 -1.49305 -0.053222 0
M  V30 3072 H 280.272 -3.24834 -2.68442 0
M  V30 3073 H 278.947 -2.06836 -2.48999 0
M  V30 3074 H 277.854 -3.65436 -0.80044 0
M  V30 3075 H 279.187 -4.80376 -1.07236 0
M  V30 3076 N 280.839 0.0985539 -1.57292 0
M  V30 3077 C 282.085 0.803867 -1.86188 0
M  V30 3078 C 282.418 1.78549 -0.763794 0
M  V30 3079 O 281.693 1.93153 0.22855 0
M  V30 3080 C 281.976 1.53568 -3.25713 0
M  V30 3081 C 281.829 0.572277 -4.46145 0
M  V30 3082 C 283.148 2.48708 -3.63087 0
M  V30 3083 H 280.267 0.290781 -0.677211 0
M  V30 3084 H 282.909 0.0675783 -1.8988 0
M  V30 3085 H 281.059 2.16332 -3.22696 0
M  V30 3086 H 282.731 -0.0480894 -4.61275 0
M  V30 3087 H 280.974 -0.114618 -4.33649 0
M  V30 3088 H 281.645 1.12139 -5.40489 0
M  V30 3089 H 284.121 1.96039 -3.67026 0
M  V30 3090 H 282.997 2.96932 -4.61652 0
M  V30 3091 H 283.258 3.32309 -2.91588 0
M  V30 3092 N 282.317 1.53212 0.369288 0
M  V30 3093 C 283.249 1.75668 1.47219 0
M  V30 3094 C 284.262 0.637387 1.49804 0
M  V30 3095 O 285.451 0.913561 1.5335 0
M  V30 3096 C 282.551 1.81818 2.85999 0
M  V30 3097 C 281.724 3.11409 3.07153 0
M  V30 3098 C 280.783 3.08849 4.26026 0
M  V30 3099 O 279.809 3.82659 4.2138 0
M  V30 3100 N 281.011 2.29409 5.33246 0
M  V30 3101 H 283.776 2.70832 1.28337 0
M  V30 3102 H 281.337 1.51944 0.55898 0
M  V30 3103 H 283.329 1.77588 3.63655 0
M  V30 3104 H 281.899 0.939544 2.98146 0
M  V30 3105 H 281.119 3.28971 2.1719 0
M  V30 3106 H 282.407 3.97059 3.18154 0
M  V30 3107 H 281.805 1.68946 5.39883 0
M  V30 3108 H 280.362 2.31001 6.09493 0
M  V30 3109 N 283.795 -0.628877 1.44509 0
M  V30 3110 C 285.072 -1.38733 1.37886 0
M  V30 3111 C 285.452 -2.11065 0.0387008 0
M  V30 3112 O 284.8 -2.06476 -0.97878 0
M  V30 3113 C 285.01 -2.35188 2.57852 0
M  V30 3114 C 286.358 -2.9845 3.02014 0
M  V30 3115 O 287.382 -2.45513 2.58073 0
M  V30 3116 O 286.241 -3.94487 3.78209 0
M  V30 3117 H 283.335 -0.621015 0.54614 0
M  V30 3118 H 285.881 -0.653744 1.56602 0
M  V30 3119 H 284.653 -1.80855 3.46998 0
M  V30 3120 H 284.276 -3.1596 2.4136 0
M  V30 3121 N 285.273 -1.31445 -0.869486 0
M  V30 3122 C 286.236 -1.19094 -1.9583 0
M  V30 3123 C 287.236 -0.117906 -1.60367 0
M  V30 3124 O 288.426 -0.367208 -1.70286 0
M  V30 3125 C 285.558 -0.828165 -3.30688 0
M  V30 3126 H 286.751 -2.15842 -2.08212 0
M  V30 3127 H 284.304 -1.15063 -1.05784 0
M  V30 3128 H 285.039 0.138142 -3.24006 0
M  V30 3129 H 284.824 -1.6038 -3.578 0
M  V30 3130 H 286.314 -0.765658 -4.10521 0
M  V30 3131 N 286.751 1.08385 -1.14413 0
M  V30 3132 C 287.681 2.17321 -0.854044 0
M  V30 3133 C 288.662 1.69024 0.191049 0
M  V30 3134 O 289.847 1.94141 0.0476779 0
M  V30 3135 C 286.977 3.45719 -0.330983 0
M  V30 3136 C 285.931 4.07409 -1.31155 0
M  V30 3137 C 285.257 5.30762 -0.64778 0
M  V30 3138 C 286.557 4.48665 -2.67388 0
M  V30 3139 H 288.251 2.41845 -1.76498 0
M  V30 3140 H 285.797 1.16233 -0.850051 0
M  V30 3141 H 287.75 4.21241 -0.115645 0
M  V30 3142 H 286.474 3.2075 0.615381 0
M  V30 3143 H 285.133 3.33919 -1.51306 0
M  V30 3144 H 284.781 5.02078 0.304398 0
M  V30 3145 H 284.481 5.72992 -1.30207 0
M  V30 3146 H 286.005 6.08998 -0.441972 0
M  V30 3147 H 287.419 5.15364 -2.51143 0
M  V30 3148 H 285.816 5.01814 -3.29093 0
M  V30 3149 H 286.886 3.60543 -3.24248 0
M  V30 3150 N 288.23 0.939286 1.26551 0
M  V30 3151 C 289.455 0.602008 1.98471 0
M  V30 3152 C 289.88 -0.815624 1.69497 0
M  V30 3153 O 289.238 -1.54912 0.941905 0
M  V30 3154 C 289.286 0.848407 3.50477 0
M  V30 3155 O 288.39 -0.0804009 4.12322 0
M  V30 3156 H 287.731 0.23049 0.622712 0
M  V30 3157 H 290.261 1.2617 1.61066 0
M  V30 3158 H 290.271 0.768553 4.00696 0
M  V30 3159 H 288.946 1.88171 3.70897 0
M  V30 3160 H 287.523 0.0503508 3.72866 0
M  V30 3161 N 289.708 -1.40897 0.706093 0
M  V30 3162 C 290.671 -2.29131 0.0562841 0
M  V30 3163 C 291.671 -1.44901 -0.697166 0
M  V30 3164 O 292.861 -1.65926 -0.530484 0
M  V30 3165 C 289.993 -3.27957 -0.93043 0
M  V30 3166 H 291.186 -2.88091 0.833284 0
M  V30 3167 H 288.739 -1.4906 0.470192 0
M  V30 3168 H 289.474 -2.73997 -1.73482 0
M  V30 3169 H 289.259 -3.90124 -0.393166 0
M  V30 3170 H 290.749 -3.94049 -1.38256 0
M  V30 3171 N 291.186 -0.45159 -1.50991 0
M  V30 3172 C 292.096 0.358431 -2.31846 0
M  V30 3173 C 293.112 1.01438 -1.41373 0
M  V30 3174 O 294.288 1.00663 -1.74439 0
M  V30 3175 C 291.353 1.43704 -3.15515 0
M  V30 3176 C 290.414 0.799742 -4.21785 0
M  V30 3177 C 289.647 1.82696 -5.01456 0
M  V30 3178 O 289.87 3.05105 -4.81941 0
M  V30 3179 O 288.804 1.40958 -5.85162 0
M  V30 3180 H 292.63 -0.302032 -3.02194 0
M  V30 3181 H 290.215 -0.213825 -1.47862 0
M  V30 3182 H 292.097 2.06227 -3.67489 0
M  V30 3183 H 290.772 2.08133 -2.47916 0
M  V30 3184 H 289.679 0.136084 -3.73852 0
M  V30 3185 H 291.012 0.198718 -4.91799 0
M  V30 3186 N 292.664 1.56529 -0.183458 0
M  V30 3187 C 293.912 1.96855 0.457452 0
M  V30 3188 C 294.233 1.07104 1.62953 0
M  V30 3189 O 293.503 0.139887 1.954 0
M  V30 3190 H 292.083 0.72693 0.171992 0
M  V30 3191 H 294.745 1.93056 -0.267476 0
M  V30 3192 H 293.841 3.01423 0.809368 0
M  V30 3193 N 294.142 -0.090211 1.57342 0
M  V30 3194 C 295.072 -1.10976 2.05443 0
M  V30 3195 C 296.053 -1.41482 0.944284 0
M  V30 3196 O 297.238 -1.51428 1.21586 0
M  V30 3197 C 294.368 -2.42831 2.48295 0
M  V30 3198 C 293.322 -2.26721 3.63018 0
M  V30 3199 C 292.648 -3.63796 3.91863 0
M  V30 3200 C 293.948 -1.7037 4.93732 0
M  V30 3201 H 295.642 -0.709564 2.9087 0
M  V30 3202 H 293.188 -0.339874 1.39932 0
M  V30 3203 H 295.141 -3.14431 2.80555 0
M  V30 3204 H 293.865 -2.84795 1.59873 0
M  V30 3205 H 292.524 -1.57565 3.31012 0
M  V30 3206 H 292.172 -4.03297 3.00601 0
M  V30 3207 H 291.872 -3.53861 4.69101 0
M  V30 3208 H 293.396 -4.36855 4.26603 0
M  V30 3209 H 294.81 -2.31816 5.24342 0
M  V30 3210 H 293.207 -1.71181 5.75167 0
M  V30 3211 H 294.277 -0.663542 4.80339 0
M  V30 3212 N 295.62 -1.53406 -0.361157 0
M  V30 3213 C 296.567 -1.80156 -1.44265 0
M  V30 3214 C 297.537 -0.646183 -1.53015 0
M  V30 3215 O 298.722 -0.888818 -1.68833 0
M  V30 3216 C 295.862 -2.00116 -2.81154 0
M  V30 3217 C 294.975 -3.27833 -2.81335 0
M  V30 3218 C 294.11 -3.37957 -4.09828 0
M  V30 3219 C 293.149 -4.59689 -4.04168 0
M  V30 3220 N 292.286 -4.66942 -5.24318 0
M  V30 3221 H 297.126 -2.72438 -1.20754 0
M  V30 3222 H 294.663 -1.34954 -0.585296 0
M  V30 3223 H 296.621 -2.09677 -3.60682 0
M  V30 3224 H 295.251 -1.11167 -3.03054 0
M  V30 3225 H 294.303 -3.27204 -1.94014 0
M  V30 3226 H 295.615 -4.17442 -2.73027 0
M  V30 3227 H 294.769 -3.46853 -4.97773 0
M  V30 3228 H 293.508 -2.46372 -4.20894 0
M  V30 3229 H 292.513 -4.50889 -3.14609 0
M  V30 3230 H 293.738 -5.5262 -3.947 0
M  V30 3231 H 291.684 -3.7826 -5.35962 0
M  V30 3232 H 291.601 -5.50462 -5.18197 0
M  V30 3233 H 292.869 -4.80127 -6.14084 0
M  V30 3234 O 297.137 0.507134 -1.53331 0
M  V30 3235 H 297.828 1.16207 -1.5497 0
M  V30 END ATOM
M  V30 BEGIN BOND
M  V30 END BOND
M  V30 END CTAB
M  END
$$$$
