drugbank_target|P0A917 Outer membrane protein X (DB04233)
 OpenBabel12092120033D

  0  0  0     0  0            999 V3000
M  V30 BEGIN CTAB
M  V30 COUNTS 2556 2588 0 0 0
M  V30 BEGIN ATOM
M  V30 1 H -0.908 1.98254 -0.117106 0
M  V30 2 N 0 1.576 0 0
M  V30 3 C 0.933 2.03868 1.02534 0
M  V30 4 C 1.911 0.928543 1.3348 0
M  V30 5 O 3.095 1.19667 1.45644 0
M  V30 6 C 0.222 2.43627 2.35294 0
M  V30 7 C -0.732 3.65373 2.2001 0
M  V30 8 S 0.101 5.13292 1.52614 0
M  V30 9 C 1.257 5.56322 2.86805 0
M  V30 10 H 1.49 2.90518 0.631377 0
M  V30 11 H -0.977 1.52953 0.210867 0
M  V30 12 H 0.981 2.67203 3.11629 0
M  V30 13 H -0.358 1.57376 2.7183 0
M  V30 14 H -1.165 3.90944 3.18086 0
M  V30 15 H -1.563 3.418 1.51819 0
M  V30 16 H 0.729 5.58782 3.83104 0
M  V30 17 H 1.672 6.56266 2.65933 0
M  V30 18 H 2.08 4.83886 2.90714 0
M  V30 19 N 1.4781 -0.272755 1.55222 0
M  V30 20 C 2.4251 -1.33716 1.88119 0
M  V30 21 C 3.3951 -1.49066 0.73271 0
M  V30 22 O 4.5801 -1.63469 0.984002 0
M  V30 23 C 1.7201 -2.69238 2.15882 0
M  V30 24 C 0.8331 -2.62108 3.43399 0
M  V30 25 C -0.0319 -3.89811 3.60861 0
M  V30 26 C -0.9929 -3.77193 4.8207 0
M  V30 27 N -1.8559 -4.9673 4.96189 0
M  V30 28 H 2.9841 -1.04962 2.78903 0
M  V30 29 H 0.5211 -0.507088 1.38083 0
M  V30 30 H 2.4791 -3.48089 2.29978 0
M  V30 31 H 1.1091 -2.96194 1.28331 0
M  V30 32 H 0.1611 -1.74967 3.37773 0
M  V30 33 H 1.4731 -2.48685 4.32386 0
M  V30 34 H 0.6271 -4.77103 3.74777 0
M  V30 35 H -0.6339 -4.06102 2.7006 0
M  V30 36 H -1.6289 -2.88284 4.68159 0
M  V30 37 H -0.4039 -3.62421 5.74307 0
M  V30 38 H -2.4579 -5.13431 4.08319 0
M  V30 39 H -2.5409 -4.85839 5.79221 0
M  V30 40 H -1.2729 -5.85594 5.1449 0
M  V30 41 N 2.9562 -1.48159 -0.537278 0
M  V30 42 C 3.9032 -1.62138 -1.64256 0
M  V30 43 C 4.8732 -0.463668 -1.59497 0
M  V30 44 O 6.0582 -0.686241 -1.78032 0
M  V30 45 C 3.1982 -1.66028 -3.02537 0
M  V30 46 C 2.3112 -2.92855 -3.17585 0
M  V30 47 C 1.4462 -2.87952 -4.46382 0
M  V30 48 C 0.4852 -4.09516 -4.54932 0
M  V30 49 N -0.3778 -4.02733 -5.75109 0
M  V30 50 H 4.4622 -2.56529 -1.51647 0
M  V30 51 H 1.9992 -1.27224 -0.738414 0
M  V30 52 H 3.9572 -1.66265 -3.82638 0
M  V30 53 H 2.5872 -0.751331 -3.13934 0
M  V30 54 H 1.6392 -3.02395 -2.30784 0
M  V30 55 H 2.9512 -3.82822 -3.19764 0
M  V30 56 H 2.1052 -2.8655 -5.34765 0
M  V30 57 H 0.8442 -1.95702 -4.46712 0
M  V30 58 H -0.1508 -4.11201 -3.64957 0
M  V30 59 H 1.0742 -5.02917 -4.56346 0
M  V30 60 H -0.9798 -3.13299 -5.76351 0
M  V30 61 H -1.0628 -4.86397 -5.78752 0
M  V30 62 H 0.2052 -4.05379 -6.65799 0
M  V30 63 N 4.4343 0.785586 -1.36625 0
M  V30 64 C 5.6833 1.53883 -1.30396 0
M  V30 65 C 5.9963 1.95271 0.113452 0
M  V30 66 O 7.2023 2.69858 0.298142 0
M  V30 67 C 5.6583 2.77808 -2.28802 0
M  V30 68 C 5.2663 2.43574 -3.75999 0
M  V30 69 C 7.0103 3.55783 -2.31558 0
M  V30 70 C 4.9173 3.63919 -4.66173 0
M  V30 71 H 3.8473 0.577678 -0.484566 0
M  V30 72 H 6.4983 0.861705 -1.62009 0
M  V30 73 H 4.8803 3.47339 -1.90188 0
M  V30 74 H 6.0543 1.81916 -4.23371 0
M  V30 75 H 4.3693 1.78803 -3.76056 0
M  V30 76 H 6.9663 4.45205 -2.96137 0
M  V30 77 H 7.3093 3.94644 -1.3252 0
M  V30 78 H 7.8423 2.93235 -2.68809 0
M  V30 79 H 4.5813 3.3015 -5.66287 0
M  V30 80 H 4.1013 4.2473 -4.23515 0
M  V30 81 H 5.7803 4.30901 -4.82632 0
M  V30 82 N 5.9124 1.20967 1.01018 0
M  V30 83 C 6.8754 0.965918 2.07853 0
M  V30 84 C 7.8754 -0.0610545 1.60684 0
M  V30 85 O 9.0654 0.175681 1.73312 0
M  V30 86 C 6.1974 0.455513 3.37843 0
M  V30 87 H 7.3904 1.91365 2.3091 0
M  V30 88 H 4.9434 1.02594 1.17916 0
M  V30 89 H 5.6784 -0.497381 3.20463 0
M  V30 90 H 5.4634 1.19622 3.73407 0
M  V30 91 H 6.9534 0.304667 4.16487 0
M  V30 92 N 7.3905 -1.2043 1.01659 0
M  V30 93 C 8.6305 -1.91507 0.714456 0
M  V30 94 C 8.9945 -1.77073 -0.742237 0
M  V30 95 O 10.1955 -2.42631 -1.15688 0
M  V30 96 C 8.4665 -3.38795 1.13809 0
M  V30 97 S 10.0255 -4.28216 0.957925 0
M  V30 98 H 6.8435 -0.661571 0.260471 0
M  V30 99 H 9.4455 -1.45671 1.30384 0
M  V30 100 H 8.1495 -3.46822 2.19415 0
M  V30 101 H 7.6805 -3.89656 0.541474 0
M  V30 102 H 9.6955 -4.96007 -0.138531 0
M  V30 103 N 8.8686 -0.792821 -1.36206 0
M  V30 104 C 9.7986 -0.207853 -2.32573 0
M  V30 105 C 10.7796 0.659055 -1.56813 0
M  V30 106 O 11.9646 0.592176 -1.84951 0
M  V30 107 C 9.0946 0.655449 -3.41059 0
M  V30 108 C 8.0486 -0.111842 -4.27854 0
M  V30 109 C 7.3746 0.872274 -5.27537 0
M  V30 110 C 8.6746 -1.30299 -5.05786 0
M  V30 111 H 10.3686 -1.01294 -2.81744 0
M  V30 112 H 7.9146 -0.48854 -1.3546 0
M  V30 113 H 9.8676 1.07464 -4.07467 0
M  V30 114 H 8.5916 1.49328 -2.90463 0
M  V30 115 H 7.2506 -0.512053 -3.63006 0
M  V30 116 H 6.8986 1.70523 -4.73214 0
M  V30 117 H 6.5986 0.363291 -5.86476 0
M  V30 118 H 8.1226 1.28996 -5.96818 0
M  V30 119 H 9.5366 -0.959379 -5.65216 0
M  V30 120 H 7.9336 -1.7455 -5.74154 0
M  V30 121 H 9.0036 -2.09663 -4.37229 0
M  V30 122 N 10.3467 1.47872 -0.545128 0
M  V30 123 C 11.5717 2.07391 -0.0190611 0
M  V30 124 C 11.9967 1.39688 1.25971 0
M  V30 125 O 11.3547 0.467816 1.7516 0
M  V30 126 C 11.4027 3.60188 0.172335 0
M  V30 127 O 10.5067 3.9339 1.23766 0
M  V30 128 H 9.8477 0.662411 -0.0459059 0
M  V30 129 H 12.3777 1.90066 -0.757365 0
M  V30 130 H 12.3877 4.06129 0.390305 0
M  V30 131 H 11.0627 4.08865 -0.761725 0
M  V30 132 H 9.6397 3.5921 1.00114 0
M  V30 133 N 11.8248 0.280983 1.55075 0
M  V30 134 C 12.7878 -0.590896 2.21452 0
M  V30 135 C 13.7878 -1.07682 1.19421 0
M  V30 136 O 14.9778 -0.97605 1.44288 0
M  V30 137 C 12.1098 -1.81587 2.88511 0
M  V30 138 H 13.3028 -0.0112554 2.99898 0
M  V30 139 H 10.8558 0.0316438 1.56268 0
M  V30 140 H 11.5908 -2.43587 2.14093 0
M  V30 141 H 11.3758 -1.4753 3.63287 0
M  V30 142 H 12.8658 -2.43575 3.39206 0
M  V30 143 N 13.3029 -1.57598 0.00835791 0
M  V30 144 C 14.2329 -2.1198 -0.979113 0
M  V30 145 C 15.2139 -1.03091 -1.35301 0
M  V30 146 O 16.3989 -1.30818 -1.43528 0
M  V30 147 C 13.5289 -2.62995 -2.26828 0
M  V30 148 C 12.4829 -3.76485 -2.03576 0
M  V30 149 C 11.8089 -4.13846 -3.38579 0
M  V30 150 C 13.1089 -5.0342 -1.39161 0
M  V30 151 H 14.8029 -2.94738 -0.526281 0
M  V30 152 H 12.3489 -1.41783 -0.251704 0
M  V30 153 H 14.3019 -2.99669 -2.96271 0
M  V30 154 H 13.0259 -1.7737 -2.7424 0
M  V30 155 H 11.6849 -3.40217 -1.36557 0
M  V30 156 H 11.3329 -3.25232 -3.83709 0
M  V30 157 H 11.0329 -4.90312 -3.23834 0
M  V30 158 H 12.5569 -4.53086 -4.09323 0
M  V30 159 H 13.9709 -5.37812 -1.98573 0
M  V30 160 H 12.3679 -5.84746 -1.34878 0
M  V30 161 H 13.4379 -4.83548 -0.361868 0
M  V30 162 N 14.781 0.264519 -1.55364 0
M  V30 163 C 15.744 1.31046 -1.88042 0
M  V30 164 C 16.744 1.41943 -0.755569 0
M  V30 165 O 17.934 1.40947 -1.02369 0
M  V30 166 C 15.066 2.69067 -2.09323 0
M  V30 167 H 16.259 1.03297 -2.81549 0
M  V30 168 H 13.812 0.502989 -1.47986 0
M  V30 169 H 14.547 3.01982 -1.18226 0
M  V30 170 H 14.332 2.62542 -2.91229 0
M  V30 171 H 15.822 3.44623 -2.35848 0
M  V30 172 N 16.2591 1.48442 0.529413 0
M  V30 173 C 17.2221 1.62524 1.61612 0
M  V30 174 C 18.2221 0.498509 1.52877 0
M  V30 175 O 19.4121 0.76431 1.56537 0
M  V30 176 C 16.5441 1.59597 3.01233 0
M  V30 177 H 17.7371 2.59423 1.50465 0
M  V30 178 H 15.2901 1.37047 0.751514 0
M  V30 179 H 16.0251 0.641781 3.17886 0
M  V30 180 H 15.8101 2.41397 3.08982 0
M  V30 181 H 17.3001 1.72646 3.80241 0
M  V30 182 N 17.7372 -0.778329 1.37039 0
M  V30 183 C 18.9832 -1.53892 1.32079 0
M  V30 184 C 19.3162 -1.9396 -0.0965386 0
M  V30 185 O 18.5912 -1.63568 -1.05242 0
M  V30 186 C 18.8742 -2.80847 2.25382 0
M  V30 187 C 18.7272 -2.47076 3.75864 0
M  V30 188 C 20.0462 -3.82741 2.1725 0
M  V30 189 H 17.1652 -0.558303 0.48111 0
M  V30 190 H 19.8072 -0.893397 1.67685 0
M  V30 191 H 17.9572 -3.35931 1.95148 0
M  V30 192 H 19.6292 -1.97957 4.16666 0
M  V30 193 H 17.8722 -1.79863 3.94755 0
M  V30 194 H 18.5432 -3.37798 4.36574 0
M  V30 195 H 21.0192 -3.37133 2.43887 0
M  V30 196 H 19.8952 -4.69303 2.84686 0
M  V30 197 H 20.1562 -4.2652 1.16331 0
M  V30 198 N 19.2153 -1.21501 -1.00376 0
M  V30 199 C 20.1453 -0.999478 -2.11028 0
M  V30 200 C 21.1263 0.0759671 -1.6993 0
M  V30 201 O 22.3113 -0.0841106 -1.94018 0
M  V30 202 C 19.4413 -0.564709 -3.42678 0
M  V30 203 C 18.3953 -1.58486 -3.97576 0
M  V30 204 C 17.7213 -1.00628 -5.25146 0
M  V30 205 C 19.0213 -2.97204 -4.29496 0
M  V30 206 H 20.7153 -1.92495 -2.29317 0
M  V30 207 H 18.2613 -0.92693 -1.102 0
M  V30 208 H 20.2143 -0.401091 -4.19487 0
M  V30 209 H 18.9383 0.396411 -3.24185 0
M  V30 210 H 17.5973 -1.73606 -3.22888 0
M  V30 211 H 17.2453 -0.0368439 -5.02987 0
M  V30 212 H 16.9453 -1.68771 -5.62841 0
M  V30 213 H 18.4693 -0.854015 -6.04598 0
M  V30 214 H 19.8833 -2.8552 -4.97143 0
M  V30 215 H 18.2803 -3.62372 -4.78338 0
M  V30 216 H 19.3503 -3.47956 -3.3772 0
M  V30 217 N 20.6934 1.19889 -1.02296 0
M  V30 218 C 21.6564 2.21116 -0.603351 0
M  V30 219 C 22.6564 1.5738 0.329884 0
M  V30 220 O 23.8464 1.73802 0.117702 0
M  V30 221 C 20.9784 3.40696 0.117992 0
M  V30 222 H 22.1714 2.59754 -1.49893 0
M  V30 223 H 19.7244 1.33463 -0.813468 0
M  V30 224 H 20.4594 3.07569 1.0282 0
M  V30 225 H 20.2444 3.88188 -0.552511 0
M  V30 226 H 21.7344 4.15692 0.398696 0
M  V30 227 N 22.1715 0.800033 1.35784 0
M  V30 228 C 23.4185 0.377342 1.98953 0
M  V30 229 C 23.7465 -1.05378 1.6348 0
M  V30 230 O 23.0015 -1.74459 0.886707 0
M  V30 231 C 23.3005 0.500276 3.53881 0
M  V30 232 C 22.9665 1.89375 4.09204 0
M  V30 233 C 21.6285 2.27499 4.24025 0
M  V30 234 C 23.9805 2.8057 4.39238 0
M  V30 235 C 21.3085 3.562 4.66195 0
M  V30 236 C 23.6605 4.0871 4.82844 0
M  V30 237 C 22.3245 4.46843 4.95871 0
M  V30 238 H 21.5945 0.138079 0.728021 0
M  V30 239 H 24.2415 1.01955 1.62103 0
M  V30 240 H 22.5465 -0.225405 3.91151 0
M  V30 241 H 24.2435 0.154097 4.00704 0
M  V30 242 H 20.8335 1.58753 3.98115 0
M  V30 243 H 25.0175 2.52367 4.27346 0
M  V30 244 H 20.2735 3.85602 4.74469 0
M  V30 245 H 24.4475 4.79481 5.05046 0
M  V30 246 H 22.0745 5.46623 5.28306 0
M  V30 247 N 23.6496 -1.47581 0.552962 0
M  V30 248 C 24.8776 -2.06875 0.0320556 0
M  V30 249 C 25.2926 -1.40625 -1.25976 0
M  V30 250 O 24.6496 -0.501349 -1.75479 0
M  V30 251 C 24.7006 -3.61092 -0.17167 0
M  V30 252 O 24.4216 -4.24858 1.06899 0
M  V30 253 C 25.9226 -4.37242 -0.730344 0
M  V30 254 H 23.1426 -0.669561 0.043915 0
M  V30 255 H 25.6866 -1.89646 0.765163 0
M  V30 256 H 23.8416 -3.7785 -0.854894 0
M  V30 257 H 24.2556 -5.17334 0.864059 0
M  V30 258 H 25.7296 -5.45842 -0.822203 0
M  V30 259 H 26.2066 -4.03235 -1.74064 0
M  V30 260 H 26.8126 -4.25219 -0.0829543 0
M  V30 261 N 25.1277 -0.289203 -1.54924 0
M  V30 262 C 26.0907 0.579144 -2.21762 0
M  V30 263 C 27.0907 1.07047 -1.1999 0
M  V30 264 O 28.2807 0.968384 -1.44803 0
M  V30 265 C 25.4127 1.80055 -2.8947 0
M  V30 266 H 26.6057 -0.00464908 -2.999 0
M  V30 267 H 24.1587 -0.0399306 -1.56249 0
M  V30 268 H 24.8937 2.42449 -2.15381 0
M  V30 269 H 24.6787 1.45602 -3.64064 0
M  V30 270 H 26.1687 2.41773 -3.40493 0
M  V30 271 N 26.6058 1.57591 -0.0167156 0
M  V30 272 C 27.8538 1.90906 0.663285 0
M  V30 273 C 28.1748 0.892509 1.73376 0
M  V30 274 O 27.4448 -0.0677623 1.95783 0
M  V30 275 H 26.0248 0.704637 0.247983 0
M  V30 276 H 28.6868 1.94803 -0.0615909 0
M  V30 277 H 27.7828 2.9116 1.12393 0
M  V30 278 N 28.0839 -0.256276 1.55502 0
M  V30 279 C 29.3119 -1.00342 1.8094 0
M  V30 280 C 29.7269 -1.79307 0.59114 0
M  V30 281 O 29.0839 -1.77114 -0.440081 0
M  V30 282 C 29.1349 -1.94875 3.04476 0
M  V30 283 O 28.8559 -1.19107 4.21598 0
M  V30 284 C 30.3569 -2.81266 3.42644 0
M  V30 285 H 27.5769 -0.295685 0.602338 0
M  V30 286 H 30.1209 -0.281998 2.02546 0
M  V30 287 H 28.2759 -2.62457 2.84947 0
M  V30 288 H 28.6899 -1.82969 4.91551 0
M  V30 289 H 30.1639 -3.43362 4.32211 0
M  V30 290 H 30.6409 -3.51897 2.62802 0
M  V30 291 H 31.2469 -2.1915 3.64491 0
M  V30 292 N 29.562 -1.4872 -0.521534 0
M  V30 293 C 30.787 -1.61101 -1.30618 0
M  V30 294 C 31.212 -0.274611 -1.86085 0
M  V30 295 O 30.57 0.754937 -1.64834 0
M  V30 296 C 30.618 -2.66709 -2.4269 0
M  V30 297 O 29.722 -2.24456 -3.45967 0
M  V30 298 H 29.063 -0.539921 -0.386499 0
M  V30 299 H 31.593 -1.94767 -0.626645 0
M  V30 300 H 31.603 -2.88245 -2.88754 0
M  V30 301 H 30.278 -3.63727 -2.01682 0
M  V30 302 H 28.855 -2.13168 -3.05964 0
M  V30 303 N 31.0401 0.771051 -1.3745 0
M  V30 304 C 32.2861 1.5319 -1.32894 0
M  V30 305 C 32.6191 1.94008 0.0862511 0
M  V30 306 O 31.8941 1.64124 1.04373 0
M  V30 307 C 32.1771 2.79648 -2.26868 0
M  V30 308 C 32.0301 2.45079 -3.77169 0
M  V30 309 C 33.3491 3.81583 -2.19277 0
M  V30 310 H 30.4681 0.555744 -0.484064 0
M  V30 311 H 33.1101 0.884492 -1.68157 0
M  V30 312 H 31.2601 3.34891 -1.96926 0
M  V30 313 H 32.9321 1.95745 -4.1771 0
M  V30 314 H 31.1751 1.77767 -3.95704 0
M  V30 315 H 31.8461 3.35478 -4.38359 0
M  V30 316 H 34.3221 3.35835 -2.45671 0
M  V30 317 H 33.1981 4.67787 -2.87171 0
M  V30 318 H 33.4591 4.25897 -1.18592 0
M  V30 319 N 32.5182 1.22032 0.997298 0
M  V30 320 C 33.4812 0.987909 2.06816 0
M  V30 321 C 34.4812 -0.0440084 1.6074 0
M  V30 322 O 35.6712 0.194053 1.73116 0
M  V30 323 C 32.8032 0.49132 3.37341 0
M  V30 324 H 33.9962 1.93803 2.28868 0
M  V30 325 H 31.5492 1.03838 1.16822 0
M  V30 326 H 32.2842 -0.463364 3.20973 0
M  V30 327 H 32.0692 1.23575 3.72118 0
M  V30 328 H 33.5592 0.348824 4.16141 0
M  V30 329 N 33.9963 -1.19345 1.0293 0
M  V30 330 C 34.9593 -2.20793 0.615069 0
M  V30 331 C 35.9593 -1.57553 -0.321533 0
M  V30 332 O 37.1493 -1.73862 -0.108483 0
M  V30 333 C 34.2813 -3.40754 -0.0999222 0
M  V30 334 H 35.4743 -2.58955 1.51269 0
M  V30 335 H 33.0273 -1.3303 0.820534 0
M  V30 336 H 33.7623 -3.0811 -1.01187 0
M  V30 337 H 33.5473 -3.87889 0.57309 0
M  V30 338 H 35.0373 -4.15898 -0.376645 0
M  V30 339 N 35.4744 -0.807222 -1.35358 0
M  V30 340 C 36.7024 -0.400377 -2.02989 0
M  V30 341 C 37.1174 0.988859 -1.60832 0
M  V30 342 O 36.4744 1.63729 -0.806175 0
M  V30 343 C 36.5254 -0.474867 -3.58368 0
M  V30 344 O 36.2464 -1.80933 -3.98992 0
M  V30 345 C 37.7474 -0.0609112 -4.43258 0
M  V30 346 H 34.9674 -0.162587 -0.651004 0
M  V30 347 H 37.5114 -1.09102 -1.72965 0
M  V30 348 H 35.6664 0.167534 -3.87038 0
M  V30 349 H 36.0804 -1.77256 -4.9364 0
M  V30 350 H 37.5544 -0.164145 -5.51756 0
M  V30 351 H 38.0314 0.993831 -4.27808 0
M  V30 352 H 38.6374 -0.676492 -4.19885 0
M  V30 353 N 36.9525 1.47285 -0.560781 0
M  V30 354 C 38.1775 2.07359 -0.0410566 0
M  V30 355 C 38.6025 1.41017 1.24483 0
M  V30 356 O 37.9605 0.486368 1.74654 0
M  V30 357 C 38.0085 3.6035 0.134123 0
M  V30 358 O 37.1125 3.94681 1.19587 0
M  V30 359 H 36.4535 0.661887 -0.0529291 0
M  V30 360 H 38.9835 1.89252 -0.777482 0
M  V30 361 H 38.9935 4.0652 0.347207 0
M  V30 362 H 37.6685 4.08034 -0.805047 0
M  V30 363 H 36.2455 3.60251 0.962987 0
M  V30 364 N 38.4306 0.297415 1.54768 0
M  V30 365 C 39.6586 -0.315623 2.04478 0
M  V30 366 C 40.0736 -1.47792 1.17486 0
M  V30 367 O 39.4306 -1.81404 0.19971 0
M  V30 368 C 39.4816 -0.7753 3.53088 0
M  V30 369 O 39.2026 0.340732 4.36773 0
M  V30 370 C 40.7036 -1.45386 4.18781 0
M  V30 371 H 37.9236 -0.0690887 0.667434 0
M  V30 372 H 40.4676 0.436003 1.99798 0
M  V30 373 H 38.6226 -1.47696 3.58141 0
M  V30 374 H 39.0366 -0.0165035 5.24497 0
M  V30 375 H 40.5106 -1.72669 5.24299 0
M  V30 376 H 40.9876 -2.39275 3.68299 0
M  V30 377 H 41.5936 -0.795475 4.17795 0
M  V30 378 N 39.9087 -1.5758 0.0250728 0
M  V30 379 C 41.1547 -1.91917 -0.655413 0
M  V30 380 C 41.4877 -0.901433 -1.72011 0
M  V30 381 O 40.7627 0.0764069 -1.9435 0
M  V30 382 C 41.0457 -3.36751 -1.27558 0
M  V30 383 C 40.8987 -4.49258 -0.220719 0
M  V30 384 C 42.2177 -3.81469 -2.19475 0
M  V30 385 H 39.3367 -0.697925 -0.23679 0
M  V30 386 H 41.9787 -1.89825 0.0815036 0
M  V30 387 H 40.1287 -3.38664 -1.90365 0
M  V30 388 H 41.8007 -4.59478 0.409601 0
M  V30 389 H 40.0437 -4.31415 0.454264 0
M  V30 390 H 40.7147 -5.47618 -0.694175 0
M  V30 391 H 43.1907 -3.81266 -1.66659 0
M  V30 392 H 42.0667 -4.83512 -2.59822 0
M  V30 393 H 42.3277 -3.16744 -3.08424 0
M  V30 394 N 41.3868 0.248026 -1.55636 0
M  V30 395 C 42.6148 0.993808 -1.81469 0
M  V30 396 C 43.0298 1.78991 -0.60064 0
M  V30 397 O 42.3868 1.77345 0.430682 0
M  V30 398 C 42.4378 1.93258 -3.05506 0
M  V30 399 O 42.1588 1.16869 -4.22224 0
M  V30 400 C 43.6598 2.79444 -3.4413 0
M  V30 401 H 40.8798 0.292486 -0.603898 0
M  V30 402 H 43.4238 0.271253 -2.02693 0
M  V30 403 H 41.5788 2.60943 -2.86335 0
M  V30 404 H 41.9928 1.80359 -4.92515 0
M  V30 405 H 43.4668 3.41066 -4.34026 0
M  V30 406 H 43.9438 3.50499 -2.64665 0
M  V30 407 H 44.5498 2.17214 -3.65648 0
M  V30 408 N 42.8649 1.48995 0.513639 0
M  V30 409 C 44.1129 1.57531 1.26604 0
M  V30 410 C 44.4339 0.258236 1.93283 0
M  V30 411 O 43.7039 -0.721502 1.8213 0
M  V30 412 H 42.2839 0.580387 0.470276 0
M  V30 413 H 44.9459 1.85552 0.596373 0
M  V30 414 H 44.0419 2.36486 2.03669 0
M  V30 415 N 44.343 -0.763751 1.37857 0
M  V30 416 C 45.591 -1.51957 1.33243 0
M  V30 417 C 45.912 -1.94835 -0.0801709 0
M  V30 418 O 45.182 -1.66894 -1.02582 0
M  V30 419 H 43.762 -0.563626 0.49024 0
M  V30 420 H 46.424 -0.908504 1.7243 0
M  V30 421 H 45.52 -2.41523 1.97669 0
M  V30 422 N 45.8211 -1.22559 -0.990812 0
M  V30 423 C 47.0511 -1.07623 -1.76355 0
M  V30 424 C 47.4591 0.37601 -1.85426 0
M  V30 425 O 46.8021 1.27228 -1.32509 0
M  V30 426 C 46.8641 -1.61507 -3.21179 0
M  V30 427 C 46.5281 -3.10146 -3.35646 0
M  V30 428 C 47.5251 -4.07553 -3.22796 0
M  V30 429 C 45.2101 -3.49644 -3.60631 0
M  V30 430 C 47.2041 -5.42442 -3.34716 0
M  V30 431 C 44.8911 -4.84682 -3.72192 0
M  V30 432 C 45.8891 -5.8089 -3.59243 0
M  V30 433 O 45.5771 -7.13476 -3.70415 0
M  V30 434 H 45.3091 -0.377745 -0.560611 0
M  V30 435 H 47.8631 -1.62658 -1.25425 0
M  V30 436 H 46.0931 -1.00881 -3.73309 0
M  V30 437 H 47.7821 -1.42202 -3.80175 0
M  V30 438 H 48.5481 -3.78381 -3.03403 0
M  V30 439 H 44.4271 -2.75282 -3.69785 0
M  V30 440 H 47.9711 -6.17518 -3.24526 0
M  V30 441 H 43.8681 -5.13534 -3.91092 0
M  V30 442 H 44.6361 -7.21083 -3.87275 0
M  V30 443 N 47.2992 1.18797 -1.03562 0
M  V30 444 C 48.2622 2.20464 -0.626769 0
M  V30 445 C 49.2622 1.57721 0.313173 0
M  V30 446 O 50.4522 1.73917 0.0992615 0
M  V30 447 C 47.5842 3.40802 0.0818498 0
M  V30 448 H 48.7772 2.58149 -1.5264 0
M  V30 449 H 46.3302 1.32593 -0.827578 0
M  V30 450 H 47.0652 3.08642 0.995518 0
M  V30 451 H 46.8502 3.8758 -0.593652 0
M  V30 452 H 48.3402 4.16092 0.354584 0
M  V30 453 N 48.7773 0.814389 1.34928 0
M  V30 454 C 49.7093 0.187834 2.28429 0
M  V30 455 C 50.7223 -0.617374 1.5064 0
M  V30 456 O 51.9113 -0.448454 1.72775 0
M  V30 457 C 49.0113 -0.755962 3.30361 0
M  V30 458 C 48.1843 0.00456686 4.374 0
M  V30 459 C 47.2433 -0.858876 5.19143 0
M  V30 460 O 46.2693 -0.306968 5.68372 0
M  V30 461 N 47.4713 -2.17988 5.38016 0
M  V30 462 H 50.2363 0.991105 2.82838 0
M  V30 463 H 47.7973 0.670561 1.4736 0
M  V30 464 H 49.7893 -1.338 3.81942 0
M  V30 465 H 48.3593 -1.46001 2.7641 0
M  V30 466 H 47.5793 0.767865 3.86649 0
M  V30 467 H 48.8673 0.528422 5.06049 0
M  V30 468 H 48.2653 -2.65212 4.99679 0
M  V30 469 H 46.8223 -2.71098 5.92747 0
M  V30 470 N 50.2554 -1.46986 0.568584 0
M  V30 471 C 51.4804 -2.07335 0.0520528 0
M  V30 472 C 51.9054 -1.41675 -1.23733 0
M  V30 473 O 51.2634 -0.495623 -1.74394 0
M  V30 474 C 51.3114 -3.60417 -0.11501 0
M  V30 475 O 50.4154 -3.95309 -1.17492 0
M  V30 476 H 49.7564 -0.661597 0.0564385 0
M  V30 477 H 52.2864 -1.88837 0.787507 0
M  V30 478 H 52.2964 -4.06698 -0.325644 0
M  V30 479 H 50.9714 -4.07601 0.826675 0
M  V30 480 H 49.5484 -3.60757 -0.943869 0
M  V30 481 N 51.7335 -0.305618 -1.54608 0
M  V30 482 C 53.0105 0.355652 -1.92339 0
M  V30 483 C 53.3905 1.71324 -1.23335 0
M  V30 484 O 52.7385 2.25473 -0.370702 0
M  V30 485 C 52.9485 0.46572 -3.45879 0
M  V30 486 C 54.2965 0.734426 -4.182 0
M  V30 487 O 55.3205 0.54935 -3.51938 0
M  V30 488 O 54.1795 1.09024 -5.35515 0
M  V30 489 H 51.2735 0.199666 -0.802535 0
M  V30 490 H 53.8195 -0.354017 -1.65966 0
M  V30 491 H 52.5915 -0.488461 -3.88239 0
M  V30 492 H 52.2145 1.22367 -3.78301 0
M  V30 493 N 53.2116 1.57565 -0.0334293 0
M  V30 494 C 54.1746 2.09393 0.932048 0
M  V30 495 C 55.1746 1.00986 1.25134 0
M  V30 496 O 56.3646 1.27129 1.19096 0
M  V30 497 C 53.4966 2.56338 2.2473 0
M  V30 498 H 54.6896 2.95984 0.483085 0
M  V30 499 H 52.2426 1.54819 0.21468 0
M  V30 500 H 52.9776 1.7309 2.74245 0
M  V30 501 H 52.7626 3.35542 2.02865 0
M  V30 502 H 54.2526 2.96646 2.93923 0
M  V30 503 N 54.6897 -0.239769 1.55765 0
M  V30 504 C 55.6217 -1.32001 1.87372 0
M  V30 505 C 56.6347 -1.43944 0.760522 0
M  V30 506 O 57.8237 -1.45167 1.0387 0
M  V30 507 C 54.9237 -2.69779 2.05115 0
M  V30 508 C 54.0967 -2.80014 3.36022 0
M  V30 509 C 53.1557 -3.98684 3.4342 0
M  V30 510 O 52.1817 -3.87877 4.16582 0
M  V30 511 N 53.3837 -5.12176 2.73232 0
M  V30 512 H 56.1487 -1.0522 2.80622 0
M  V30 513 H 53.7097 -0.429857 1.56089 0
M  V30 514 H 55.7017 -3.47517 2.07399 0
M  V30 515 H 54.2717 -2.89237 1.18577 0
M  V30 516 H 53.4917 -1.88896 3.45994 0
M  V30 517 H 54.7797 -2.83808 4.22292 0
M  V30 518 H 54.1777 -5.2385 2.13536 0
M  V30 519 H 52.7347 -5.88022 2.81199 0
M  V30 520 N 56.1678 -1.49265 -0.50573 0
M  V30 521 C 57.4158 -1.582 -1.25766 0
M  V30 522 C 57.7368 -0.268482 -1.93143 0
M  V30 523 O 57.0068 0.711833 -1.8251 0
M  V30 524 H 55.5868 -0.582873 -0.467191 0
M  V30 525 H 58.2488 -1.85865 -0.586525 0
M  V30 526 H 57.3448 -2.37563 -2.02412 0
M  V30 527 N 57.6459 0.756429 -1.3826 0
M  V30 528 C 58.5779 1.87971 -1.31147 0
M  V30 529 C 59.5909 1.61248 -0.224239 0
M  V30 530 O 60.7799 1.71881 -0.481581 0
M  V30 531 C 57.8799 3.23545 -1.00857 0
M  V30 532 C 57.0529 3.77794 -2.20432 0
M  V30 533 C 56.1119 4.91877 -1.86931 0
M  V30 534 O 55.1379 5.06659 -2.59395 0
M  V30 535 N 56.3399 5.74643 -0.822568 0
M  V30 536 H 59.1049 1.94585 -2.2794 0
M  V30 537 H 56.6659 0.936234 -1.32084 0
M  V30 538 H 58.6579 3.97403 -0.765021 0
M  V30 539 H 57.2279 3.12335 -0.128687 0
M  V30 540 H 56.4479 2.95534 -2.6087 0
M  V30 541 H 57.7359 4.10771 -3.00241 0
M  V30 542 H 57.1339 5.65266 -0.221575 0
M  V30 543 H 55.6909 6.48661 -0.638899 0
M  V30 544 N 59.124 1.23083 0.984299 0
M  V30 545 C 60.057 0.951786 2.07404 0
M  V30 546 C 61.035 -0.10848 1.62238 0
M  V30 547 O 62.219 0.0249467 1.88483 0
M  V30 548 C 59.346 0.433142 3.35919 0
M  V30 549 C 58.392 1.47941 4.0002 0
M  V30 550 S 59.225 3.05556 4.39768 0
M  V30 551 C 60.381 2.55351 5.71442 0
M  V30 552 H 60.614 1.87456 2.30754 0
M  V30 553 H 58.147 1.06284 1.11996 0
M  V30 554 H 60.105 0.140506 4.10259 0
M  V30 555 H 58.766 -0.468656 3.10584 0
M  V30 556 H 57.959 1.06658 4.92585 0
M  V30 557 H 57.561 1.7212 3.3204 0
M  V30 558 H 59.853 1.97128 6.48187 0
M  V30 559 H 60.796 3.46441 6.17563 0
M  V30 560 H 61.204 1.96339 5.29255 0
M  V30 561 N 60.6021 -1.18246 1.0419 0
M  V30 562 C 61.5501 -2.23968 0.627792 0
M  V30 563 C 62.5441 -1.65828 -0.346019 0
M  V30 564 O 63.7501 -1.78733 -0.213175 0
M  V30 565 H 60.1251 -0.728939 0.184802 0
M  V30 566 H 62.0961 -2.56202 1.52981 0
M  V30 567 C 60.8451 -3.47699 0.00796591 0
M  V30 568 H 60.1681 -3.92734 0.748347 0
M  V30 569 H 61.6081 -4.23294 -0.24455 0
M  V30 570 C 60.0671 -3.13153 -1.24246 0
M  V30 571 O 60.5971 -3.27003 -2.33307 0
M  V30 572 N 58.8031 -2.67467 -1.13622 0
M  V30 573 H 58.3501 -2.56396 -0.248734 0
M  V30 574 H 58.3081 -2.44724 -1.97377 0
M  V30 575 N 62.0802 -0.821533 -1.34494 0
M  V30 576 C 63.0272 -0.240397 -2.29545 0
M  V30 577 C 63.9972 0.634031 -1.53523 0
M  V30 578 O 65.1822 0.575966 -1.81899 0
M  V30 579 C 62.3222 0.592869 -3.39969 0
M  V30 580 C 61.4352 -0.30365 -4.30932 0
M  V30 581 C 60.5702 0.539049 -5.28458 0
M  V30 582 C 59.6092 -0.356942 -6.11058 0
M  V30 583 N 58.7462 0.446603 -7.00678 0
M  V30 584 H 63.5862 -1.05632 -2.7865 0
M  V30 585 H 61.1232 -0.532413 -1.37127 0
M  V30 586 H 63.0812 1.09129 -4.02675 0
M  V30 587 H 61.7112 1.37392 -2.92102 0
M  V30 588 H 60.7632 -0.920276 -3.691 0
M  V30 589 H 62.0752 -0.992661 -4.88823 0
M  V30 590 H 61.2292 1.102 -5.96608 0
M  V30 591 H 59.9682 1.26157 -4.71101 0
M  V30 592 H 58.9732 -0.932047 -5.41842 0
M  V30 593 H 60.1982 -1.07755 -6.70497 0
M  V30 594 H 58.1442 1.15282 -6.45791 0
M  V30 595 H 58.0612 -0.184048 -7.55776 0
M  V30 596 H 59.3292 0.992352 -7.73158 0
M  V30 597 N 63.5583 1.46682 -0.576371 0
M  V30 598 C 64.4913 2.27243 0.208731 0
M  V30 599 C 65.4693 1.35238 0.902746 0
M  V30 600 O 66.6533 1.64641 0.917904 0
M  V30 601 C 63.7803 3.12802 1.29896 0
M  V30 602 C 62.8263 4.20524 0.711457 0
M  V30 603 S 63.6593 5.33548 -0.456781 0
M  V30 604 C 64.8153 6.22673 0.634798 0
M  V30 605 H 65.0483 2.93484 -0.474838 0
M  V30 606 H 62.5813 1.50069 -0.363118 0
M  V30 607 H 64.5393 3.62661 1.92321 0
M  V30 608 H 63.2003 2.45887 1.95444 0
M  V30 609 H 62.3933 4.80191 1.53076 0
M  V30 610 H 61.9953 3.73645 0.162999 0
M  V30 611 H 64.2873 6.60181 1.52209 0
M  V30 612 H 65.2303 7.0806 0.0750311 0
M  V30 613 H 65.6383 5.56684 0.936092 0
M  V30 614 N 65.0364 0.313813 1.54444 0
M  V30 615 C 66.2844 -0.291099 1.99993 0
M  V30 616 C 66.6054 -1.53418 1.20366 0
M  V30 617 O 65.8754 -1.93544 0.302927 0
M  V30 618 H 64.4554 -0.110552 0.738774 0
M  V30 619 H 67.1174 0.428106 1.9014 0
M  V30 620 H 66.2134 -0.554268 3.07139 0
M  V30 621 N 66.5145 -1.57545 0.0417849 0
M  V30 622 C 67.7625 -1.91937 -0.632829 0
M  V30 623 C 68.0835 -0.919978 -1.71934 0
M  V30 624 O 67.3535 0.0366064 -1.95866 0
M  V30 625 H 65.9335 -0.708493 -0.236742 0
M  V30 626 H 68.5955 -1.9468 0.0925745 0
M  V30 627 H 67.6915 -2.92912 -1.07746 0
M  V30 628 N 67.9926 0.231505 -1.5589 0
M  V30 629 C 69.2396 0.957352 -1.78441 0
M  V30 630 C 69.5676 1.84726 -0.60882 0
M  V30 631 O 68.8226 1.91416 0.40725 0
M  V30 632 C 69.1216 1.83577 -3.0665 0
M  V30 633 C 68.7876 1.09993 -4.37278 0
M  V30 634 C 67.4496 0.896629 -4.72773 0
M  V30 635 C 69.8016 0.579558 -5.17968 0
M  V30 636 C 67.1296 0.160896 -5.86479 0
M  V30 637 C 69.4816 -0.142783 -6.32439 0
M  V30 638 C 68.1456 -0.357427 -6.66542 0
M  V30 639 H 67.4156 0.35032 -0.65296 0
M  V30 640 H 70.0626 0.226259 -1.90159 0
M  V30 641 H 68.3676 2.63441 -2.90011 0
M  V30 642 H 70.0646 2.39934 -3.21298 0
M  V30 643 H 66.6546 1.26835 -4.09403 0
M  V30 644 H 70.8386 0.724125 -4.90989 0
M  V30 645 H 66.0946 -0.0157293 -6.11398 0
M  V30 646 H 70.2686 -0.553559 -6.94196 0
M  V30 647 H 67.8956 -0.929466 -7.54497 0
M  V30 648 N 69.4707 1.49531 0.497807 0
M  V30 649 C 70.4187 1.66926 1.61983 0
M  V30 650 C 71.4127 0.535167 1.60724 0
M  V30 651 O 72.6187 0.714896 1.65195 0
M  V30 652 H 68.9937 0.526415 0.537021 0
M  V30 653 H 70.9647 2.61098 1.44465 0
M  V30 654 C 69.7137 1.75602 3.00099 0
M  V30 655 H 69.0367 2.62244 3.01775 0
M  V30 656 H 70.4767 1.91807 3.78135 0
M  V30 657 C 68.9357 0.501543 3.33146 0
M  V30 658 O 69.4657 -0.371342 3.9998 0
M  V30 659 N 67.6717 0.363531 2.88317 0
M  V30 660 H 67.2187 1.07485 2.34104 0
M  V30 661 H 67.1767 -0.474728 3.10795 0
M  V30 662 N 70.9488 -0.749086 1.3866 0
M  V30 663 C 71.8788 -1.8764 1.38973 0
M  V30 664 C 72.8598 -1.68178 0.255004 0
M  V30 665 O 74.0448 -1.88704 0.458754 0
M  V30 666 C 71.1748 -3.25222 1.21851 0
M  V30 667 C 70.1288 -3.59295 2.32575 0
M  V30 668 C 69.4548 -4.95663 2.00555 0
M  V30 669 C 70.7548 -3.63709 3.7485 0
M  V30 670 H 72.4488 -1.87635 2.3331 0
M  V30 671 H 69.9948 -0.901329 1.12303 0
M  V30 672 H 71.9478 -4.03746 1.20695 0
M  V30 673 H 70.6718 -3.25719 0.239775 0
M  V30 674 H 69.3308 -2.83093 2.32925 0
M  V30 675 H 68.9788 -4.92724 1.01154 0
M  V30 676 H 68.6788 -5.19429 2.74714 0
M  V30 677 H 70.2028 -5.7656 2.01024 0
M  V30 678 H 71.6168 -4.32338 3.76506 0
M  V30 679 H 70.0138 -3.98986 4.48252 0
M  V30 680 H 71.0838 -2.63834 4.06841 0
M  V30 681 N 72.4269 -1.23603 -0.977757 0
M  V30 682 C 73.3739 -1.01954 -2.07061 0
M  V30 683 C 74.3439 0.0638697 -1.65977 0
M  V30 684 O 75.5289 -0.0887624 -1.90593 0
M  V30 685 C 72.6689 -0.619658 -3.39491 0
M  V30 686 C 71.7819 -1.77547 -3.93829 0
M  V30 687 C 70.9169 -1.32212 -5.14484 0
M  V30 688 C 69.9559 -2.44852 -5.60994 0
M  V30 689 N 69.0929 -2.00456 -6.72876 0
M  V30 690 H 73.9329 -1.95495 -2.24913 0
M  V30 691 H 71.4699 -0.973861 -1.10247 0
M  V30 692 H 73.4279 -0.368898 -4.15566 0
M  V30 693 H 72.0579 0.278752 -3.21594 0
M  V30 694 H 71.1099 -2.14016 -3.14486 0
M  V30 695 H 72.4219 -2.62219 -4.24314 0
M  V30 696 H 71.5759 -1.02965 -5.97899 0
M  V30 697 H 70.3149 -0.445808 -4.85658 0
M  V30 698 H 69.3199 -2.74871 -4.76157 0
M  V30 699 H 70.5449 -3.33024 -5.91837 0
M  V30 700 H 68.4909 -1.15208 -6.45804 0
M  V30 701 H 68.4079 -2.78687 -7.02759 0
M  V30 702 H 69.6759 -1.7432 -7.59758 0
M  V30 703 N 73.905 1.17692 -1.04816 0
M  V30 704 C 75.135 1.91508 -0.775128 0
M  V30 705 C 75.543 1.76844 0.67253 0
M  V30 706 O 74.886 1.10057 1.47082 0
M  V30 707 C 74.948 3.43167 -1.0713 0
M  V30 708 C 74.612 3.81612 -2.51438 0
M  V30 709 C 75.609 3.84772 -3.49638 0
M  V30 710 C 73.294 4.12687 -2.86348 0
M  V30 711 C 75.288 4.18469 -4.80794 0
M  V30 712 C 72.975 4.46053 -4.17708 0
M  V30 713 C 73.973 4.48921 -5.14741 0
M  V30 714 O 73.661 4.81504 -6.43746 0
M  V30 715 H 73.393 0.614575 -0.281555 0
M  V30 716 H 75.947 1.50206 -1.40098 0
M  V30 717 H 74.177 3.84745 -0.388342 0
M  V30 718 H 75.866 3.98239 -0.784883 0
M  V30 719 H 76.632 3.60893 -3.24008 0
M  V30 720 H 72.511 4.09627 -2.11486 0
M  V30 721 H 76.055 4.20623 -5.56527 0
M  V30 722 H 71.952 4.69393 -4.43103 0
M  V30 723 H 72.72 4.99377 -6.4851 0
M  V30 724 N 75.3831 0.828654 1.34056 0
M  V30 725 C 76.7991 0.515135 1.51058 0
M  V30 726 C 76.9991 -0.959581 1.77184 0
M  V30 727 O 76.0551 -1.74382 1.82612 0
M  V30 728 C 77.3681 1.37963 2.67183 0
M  V30 729 C 78.9161 1.37735 2.81066 0
M  V30 730 C 79.3911 2.22645 4.00241 0
M  V30 731 N 80.8821 2.203 4.07458 0
M  V30 732 C 81.6171 2.82744 4.98842 0
M  V30 733 N 81.1131 3.54201 5.9541 0
M  V30 734 N 82.9061 2.72268 4.91759 0
M  V30 735 H 75.0571 1.78343 1.15358 0
M  V30 736 H 77.3201 0.760304 0.566252 0
M  V30 737 H 77.0261 2.42714 2.54525 0
M  V30 738 H 76.9001 1.0484 3.62338 0
M  V30 739 H 79.2871 0.337593 2.93163 0
M  V30 740 H 79.3681 1.74859 1.86703 0
M  V30 741 H 79.0121 3.26674 3.88905 0
M  V30 742 H 78.9421 1.82869 4.93829 0
M  V30 743 H 81.4331 1.68327 3.38341 0
M  V30 744 H 81.7461 3.9908 6.61782 0
M  V30 745 H 80.0911 3.58308 5.95517 0
M  V30 746 H 83.2821 2.16014 4.15278 0
M  V30 747 H 83.4551 3.21219 5.62781 0
M  V30 748 N 76.8612 -1.46375 0.584142 0
M  V30 749 C 78.0912 -2.06461 0.0758195 0
M  V30 750 C 78.4992 -1.43322 -1.23512 0
M  V30 751 O 77.8422 -0.533216 -1.75791 0
M  V30 752 C 77.9042 -3.59131 -0.162773 0
M  V30 753 C 77.5682 -4.4447 1.06279 0
M  V30 754 C 78.5652 -4.80918 1.97519 0
M  V30 755 C 76.2502 -4.85584 1.28504 0
M  V30 756 C 78.2442 -5.57309 3.09331 0
M  V30 757 C 75.9312 -5.61734 2.4062 0
M  V30 758 C 76.9292 -5.9751 3.30863 0
M  V30 759 O 76.6172 -6.72121 4.41032 0
M  V30 760 H 76.3492 -0.673745 0.0551725 0
M  V30 761 H 78.9032 -1.88969 0.804984 0
M  V30 762 H 77.1332 -3.74936 -0.946565 0
M  V30 763 H 78.8222 -4.0114 -0.619782 0
M  V30 764 H 79.5882 -4.49732 1.81565 0
M  V30 765 H 75.4672 -4.57187 0.591702 0
M  V30 766 H 79.0112 -5.85152 3.79793 0
M  V30 767 H 74.9082 -5.92334 2.56537 0
M  V30 768 H 75.6762 -6.90547 4.39417 0
M  V30 769 N 78.3393 -0.321999 -1.54275 0
M  V30 770 C 79.2493 0.553631 -2.27974 0
M  V30 771 C 80.2653 1.13054 -1.32268 0
M  V30 772 O 81.4413 1.15084 -1.6528 0
M  V30 773 C 78.5063 1.69927 -3.02201 0
M  V30 774 C 77.5673 1.15433 -4.1349 0
M  V30 775 C 76.8003 2.24537 -4.84168 0
M  V30 776 O 77.0233 3.44852 -4.5435 0
M  V30 777 O 75.9573 1.90044 -5.7111 0
M  V30 778 H 79.7833 -0.0448345 -3.03667 0
M  V30 779 H 77.3683 -0.0877418 -1.49142 0
M  V30 780 H 79.2503 2.3663 -3.48689 0
M  V30 781 H 77.9253 2.28395 -2.29385 0
M  V30 782 H 76.8323 0.452436 -3.71354 0
M  V30 783 H 78.1653 0.614805 -4.88345 0
M  V30 784 N 79.8174 1.5752 -0.0501392 0
M  V30 785 C 80.7274 2.14952 0.939827 0
M  V30 786 C 81.7434 1.10706 1.34239 0
M  V30 787 O 82.9194 1.42869 1.41952 0
M  V30 788 C 79.9844 2.68232 2.19665 0
M  V30 789 C 79.0454 3.87272 1.85253 0
M  V30 790 C 78.2784 4.38002 3.04943 0
M  V30 791 O 78.5014 3.87811 4.18281 0
M  V30 792 O 77.4354 5.29602 2.86017 0
M  V30 793 H 81.2614 2.9986 0.481392 0
M  V30 794 H 78.8464 1.4841 0.171699 0
M  V30 795 H 80.7284 3.02475 2.93406 0
M  V30 796 H 79.4034 1.86395 2.64648 0
M  V30 797 H 78.3104 3.5792 1.0883 0
M  V30 798 H 79.6434 4.70336 1.4507 0
M  V30 799 N 81.2955 -0.223234 1.56011 0
M  V30 800 C 82.5725 -0.972108 1.69733 0
M  V30 801 C 82.9525 -2.02485 0.59691 0
M  V30 802 O 82.3005 -2.25037 -0.396324 0
M  V30 803 C 82.5105 -1.58407 3.10979 0
M  V30 804 C 83.8585 -2.07696 3.70334 0
M  V30 805 O 84.8825 -1.68304 3.1393 0
M  V30 806 O 83.7415 -2.80096 4.69264 0
M  V30 807 H 80.8355 -0.453993 0.691245 0
M  V30 808 H 83.3815 -0.215149 1.68331 0
M  V30 809 H 82.1535 -0.823831 3.82529 0
M  V30 810 H 81.7765 -2.40661 3.16493 0
M  V30 811 N 82.7736 -1.49793 -0.48987 0
M  V30 812 C 83.7216 -1.67783 -1.61095 0
M  V30 813 C 84.7156 -0.543683 -1.60438 0
M  V30 814 O 85.9216 -0.723647 -1.64813 0
M  V30 815 H 82.2966 -0.529255 -0.534222 0
M  V30 816 H 84.2676 -2.61861 -1.43078 0
M  V30 817 C 83.0166 -1.77191 -2.99164 0
M  V30 818 H 82.3396 -2.63841 -3.0038 0
M  V30 819 H 83.7796 -1.93809 -3.77113 0
M  V30 820 C 82.2386 -0.519203 -3.32875 0
M  V30 821 O 82.7686 0.350124 -4.00171 0
M  V30 822 N 80.9746 -0.378816 -2.8812 0
M  V30 823 H 80.5216 -1.08725 -2.33531 0
M  V30 824 H 80.4796 0.458239 -3.11043 0
M  V30 825 N 84.2517 0.741722 -1.39055 0
M  V30 826 C 85.4767 1.53607 -1.39354 0
M  V30 827 C 85.9017 1.88096 0.0116905 0
M  V30 828 O 85.2597 1.5143 0.996924 0
M  V30 829 C 85.3077 2.80441 -2.26682 0
M  V30 830 O 84.4117 3.76088 -1.69208 0
M  V30 831 H 83.7527 0.464142 -0.474835 0
M  V30 832 H 86.2827 0.915665 -1.82967 0
M  V30 833 H 86.2927 3.29246 -2.40959 0
M  V30 834 H 84.9677 2.5467 -3.2881 0
M  V30 835 H 83.5447 3.34833 -1.64138 0
M  V30 836 N 85.7298 1.2412 0.971189 0
M  V30 837 C 87.1408 1.07236 1.52831 0
M  V30 838 C 87.4918 -0.357352 1.92918 0
M  V30 839 O 86.6168 -1.24528 1.76979 0
M  V30 840 C 87.2118 1.94043 2.77728 0
M  V30 841 C 85.7708 1.81394 3.29808 0
M  V30 842 C 84.9178 1.89189 2.02738 0
M  V30 843 H 87.8688 1.37648 0.789864 0
M  V30 844 H 87.8898 1.47066 3.5093 0
M  V30 845 H 87.4018 2.98093 2.4852 0
M  V30 846 H 85.5028 0.801634 3.63874 0
M  V30 847 H 85.6158 2.65294 3.98944 0
M  V30 848 H 83.9798 1.32877 2.17292 0
M  V30 849 H 84.7628 2.94812 1.759 0
M  V30 850 N 87.2079 -1.17134 1.05439 0
M  V30 851 C 88.1379 -2.2342 0.678649 0
M  V30 852 C 89.1189 -1.66971 -0.32476 0
M  V30 853 O 90.3039 -1.93149 -0.201802 0
M  V30 854 C 87.4339 -3.47256 0.0552099 0
M  V30 855 C 86.3879 -4.16543 0.98365 0
M  V30 856 C 85.7139 -5.34231 0.223961 0
M  V30 857 C 87.0139 -4.68495 2.3089 0
M  V30 858 H 88.7079 -2.55105 1.56722 0
M  V30 859 H 86.2539 -1.2262 0.754998 0
M  V30 860 H 88.2069 -4.20828 -0.21946 0
M  V30 861 H 86.9309 -3.14846 -0.868319 0
M  V30 862 H 85.5899 -3.44887 1.24293 0
M  V30 863 H 85.2379 -4.98071 -0.702412 0
M  V30 864 H 84.9379 -5.81527 0.842627 0
M  V30 865 H 86.4619 -6.10585 -0.0433671 0
M  V30 866 H 87.8759 -5.33691 2.09396 0
M  V30 867 H 86.2729 -5.26379 2.88176 0
M  V30 868 H 87.3429 -3.85169 2.94572 0
M  V30 869 N 88.686 -0.835752 -1.33615 0
M  V30 870 C 89.934 -0.429109 -1.97492 0
M  V30 871 C 90.255 1.01433 -1.66543 0
M  V30 872 O 89.525 1.70611 -0.962744 0
M  V30 873 H 88.105 -0.155686 -0.730596 0
M  V30 874 H 90.767 -1.06802 -1.63031 0
M  V30 875 H 89.863 -0.55861 -3.0706 0
M  V30 876 N 90.1641 1.46063 -0.591896 0
M  V30 877 C 91.4101 2.02638 -0.0811191 0
M  V30 878 C 91.7431 1.4613 1.27905 0
M  V30 879 O 91.0181 0.629908 1.84017 0
M  V30 880 C 91.3011 3.60091 -0.0252436 0
M  V30 881 C 91.1541 4.26965 -1.41496 0
M  V30 882 C 92.4731 4.3496 0.670685 0
M  V30 883 H 89.5921 0.73635 -0.0309524 0
M  V30 884 H 92.2341 1.741 -0.760859 0
M  V30 885 H 90.3841 3.84535 0.553624 0
M  V30 886 H 92.0561 4.13756 -2.0397 0
M  V30 887 H 90.2991 3.85971 -1.98011 0
M  V30 888 H 90.9701 5.35781 -1.32825 0
M  V30 889 H 93.4461 4.15716 0.178825 0
M  V30 890 H 92.3221 5.44686 0.678837 0
M  V30 891 H 92.5831 4.06685 1.73379 0
M  V30 892 N 91.6422 0.330177 1.54103 0
M  V30 893 C 92.8912 -0.271336 1.99867 0
M  V30 894 C 93.2042 -1.52723 1.22209 0
M  V30 895 O 94.4102 -2.20515 1.58383 0
M  V30 896 C 92.8662 -0.534032 3.55916 0
M  V30 897 C 92.4742 0.705193 4.42415 0
M  V30 898 C 94.2182 -1.09514 4.1013 0
M  V30 899 C 92.1252 0.414035 5.89949 0
M  V30 900 H 91.0552 -0.105166 0.74663 0
M  V30 901 H 93.7062 0.443429 1.78062 0
M  V30 902 H 92.0882 -1.30915 3.73734 0
M  V30 903 H 93.2622 1.4804 4.36372 0
M  V30 904 H 91.5772 1.18698 3.99124 0
M  V30 905 H 94.1742 -1.3277 5.17954 0
M  V30 906 H 94.5172 -2.04656 3.62521 0
M  V30 907 H 95.0502 -0.381038 3.95971 0
M  V30 908 H 91.7892 1.33481 6.41766 0
M  V30 909 H 91.3092 -0.323336 5.98928 0
M  V30 910 H 92.9882 0.0263105 6.46995 0
M  V30 911 N 93.1203 -1.57491 0.0584922 0
M  V30 912 C 94.3683 -1.92597 -0.612436 0
M  V30 913 C 94.6893 -0.938162 -1.70949 0
M  V30 914 O 93.9593 0.0158301 -1.95894 0
M  V30 915 H 92.5393 -0.710964 -0.229214 0
M  V30 916 H 95.2013 -1.94571 0.113218 0
M  V30 917 H 94.2973 -2.94038 -1.04633 0
M  V30 918 N 94.5984 0.214957 -1.56127 0
M  V30 919 C 95.8234 0.95924 -1.83884 0
M  V30 920 C 96.2484 1.7689 -0.639644 0
M  V30 921 O 95.6064 1.76566 0.411601 0
M  V30 922 C 95.6544 1.84723 -3.09693 0
M  V30 923 O 94.7584 2.94346 -2.8885 0
M  V30 924 H 94.0994 0.27125 -0.606069 0
M  V30 925 H 96.6294 0.226276 -2.03345 0
M  V30 926 H 96.6394 2.25576 -3.39969 0
M  V30 927 H 95.3144 1.25218 -3.96602 0
M  V30 928 H 93.8914 2.57391 -2.69823 0
M  V30 929 N 96.0765 1.50051 0.48192 0
M  V30 930 C 97.3235 1.60498 1.23477 0
M  V30 931 C 97.6515 0.300331 1.92167 0
M  V30 932 O 96.9065 -0.713094 1.82246 0
M  V30 933 C 97.2055 2.72717 2.30998 0
M  V30 934 C 96.8715 4.13572 1.79636 0
M  V30 935 C 95.5335 4.519 1.65348 0
M  V30 936 C 97.8855 5.01649 1.41412 0
M  V30 937 C 95.2135 5.76057 1.11244 0
M  V30 938 C 97.5655 6.26343 0.887538 0
M  V30 939 C 96.2295 6.63483 0.731207 0
M  V30 940 H 95.4995 0.587303 0.451836 0
M  V30 941 H 98.1465 1.83948 0.532468 0
M  V30 942 H 96.4515 2.43312 3.07094 0
M  V30 943 H 98.1485 2.78006 2.88988 0
M  V30 944 H 94.7385 3.83329 1.91721 0
M  V30 945 H 98.9225 4.72679 1.51289 0
M  V30 946 H 94.1785 6.03516 0.978686 0
M  V30 947 H 98.3525 6.93958 0.582654 0
M  V30 948 H 95.9795 7.59568 0.309806 0
M  V30 949 N 97.5546 -0.734337 1.39446 0
M  V30 950 C 98.7826 -1.52358 1.39981 0
M  V30 951 C 99.1976 -1.88799 -0.0054975 0
M  V30 952 O 98.5546 -1.54146 -0.976998 0
M  V30 953 C 98.6056 -2.81072 2.27333 0
M  V30 954 O 98.3266 -2.46178 3.62392 0
M  V30 955 C 99.8276 -3.75096 2.36259 0
M  V30 956 H 97.0476 -0.470806 0.478103 0
M  V30 957 H 99.5916 -0.907339 1.83269 0
M  V30 958 H 97.7466 -3.39026 1.87457 0
M  V30 959 H 98.1606 -3.28866 4.08592 0
M  V30 960 H 99.6346 -4.62305 3.01626 0
M  V30 961 H 100.112 -4.16892 1.38194 0
M  V30 962 H 100.718 -3.23061 2.76608 0
M  V30 963 N 99.0327 -1.24633 -0.964593 0
M  V30 964 C 100.263 -1.11339 -1.74032 0
M  V30 965 C 100.671 0.336593 -1.86182 0
M  V30 966 O 100.014 1.24389 -1.35178 0
M  V30 967 C 100.076 -1.68284 -3.1768 0
M  V30 968 C 99.7397 -3.17196 -3.28992 0
M  V30 969 C 100.737 -4.14308 -3.14078 0
M  V30 970 C 98.4217 -3.57215 -3.53133 0
M  V30 971 C 100.416 -5.4942 -3.23135 0
M  V30 972 C 98.1027 -4.92468 -3.61827 0
M  V30 973 C 99.1007 -5.8838 -3.46841 0
M  V30 974 O 98.7887 -7.21173 -3.55197 0
M  V30 975 H 98.5207 -0.389551 -0.552472 0
M  V30 976 H 101.075 -1.65282 -1.21946 0
M  V30 977 H 99.3047 -1.08777 -3.71085 0
M  V30 978 H 100.994 -1.50234 -3.77074 0
M  V30 979 H 101.76 -3.84731 -2.95308 0
M  V30 980 H 97.6387 -2.83063 -3.63863 0
M  V30 981 H 101.183 -6.24263 -3.11355 0
M  V30 982 H 97.0797 -5.21714 -3.80111 0
M  V30 983 H 97.8477 -7.29135 -3.71892 0
M  V30 984 N 100.511 1.16574 -1.06058 0
M  V30 985 C 101.739 1.90952 -0.796552 0
M  V30 986 C 102.154 1.77302 0.648808 0
M  V30 987 O 101.511 1.11605 1.44397 0
M  V30 988 C 101.562 3.41736 -1.17894 0
M  V30 989 O 101.283 3.54975 -2.56758 0
M  V30 990 C 102.784 4.33169 -0.942308 0
M  V30 991 H 100.004 0.605594 -0.288959 0
M  V30 992 H 102.548 1.47777 -1.41358 0
M  V30 993 H 100.703 3.82623 -0.606491 0
M  V30 994 H 101.117 4.4846 -2.72 0
M  V30 995 H 102.591 5.37439 -1.25952 0
M  V30 996 H 103.068 4.3903 0.122078 0
M  V30 997 H 103.674 3.98007 -1.49902 0
M  V30 998 N 101.989 0.842826 1.3317 0
M  V30 999 C 102.899 0.281444 2.32906 0
M  V30 1000 C 103.915 -0.594587 1.63526 0
M  V30 1001 O 105.091 -0.49777 1.95152 0
M  V30 1002 C 102.156 -0.530929 3.42611 0
M  V30 1003 C 101.217 0.369843 4.27704 0
M  V30 1004 C 100.45 -0.403853 5.3217 0
M  V30 1005 O 100.673 -1.63513 5.46461 0
M  V30 1006 O 99.6069 0.224199 6.01482 0
M  V30 1007 H 103.433 1.10744 2.82789 0
M  V30 1008 H 101.018 0.60545 1.36582 0
M  V30 1009 H 102.9 -0.992437 4.09547 0
M  V30 1010 H 101.575 -1.33392 2.94938 0
M  V30 1011 H 100.482 0.879275 3.6362 0
M  V30 1012 H 101.815 1.13771 4.78871 0
M  V30 1013 N 103.467 -1.45747 0.599634 0
M  V30 1014 C 104.414 -2.30467 -0.123849 0
M  V30 1015 C 105.384 -1.41632 -0.86774 0
M  V30 1016 O 106.569 -1.70568 -0.855056 0
M  V30 1017 C 103.709 -3.26402 -1.12051 0
M  V30 1018 C 102.822 -4.3034 -0.37832 0
M  V30 1019 C 101.957 -5.13389 -1.364 0
M  V30 1020 C 100.996 -6.09061 -0.609171 0
M  V30 1021 N 100.133 -6.84918 -1.54374 0
M  V30 1022 H 104.973 -2.91802 0.604627 0
M  V30 1023 H 102.51 -1.43797 0.309972 0
M  V30 1024 H 104.468 -3.80482 -1.7114 0
M  V30 1025 H 103.098 -2.66839 -1.8165 0
M  V30 1026 H 102.15 -3.78984 0.327929 0
M  V30 1027 H 103.462 -4.98354 0.210997 0
M  V30 1028 H 102.616 -5.7183 -2.02719 0
M  V30 1029 H 101.355 -4.45376 -1.98725 0
M  V30 1030 H 100.36 -5.49758 0.0676979 0
M  V30 1031 H 101.585 -6.79099 0.00891991 0
M  V30 1032 H 99.531 -6.19601 -2.15478 0
M  V30 1033 H 99.448 -7.49254 -1.00766 0
M  V30 1034 H 100.716 -7.47906 -2.19676 0
M  V30 1035 N 104.945 -0.338344 -1.53925 0
M  V30 1036 C 106.17 0.263987 -2.05713 0
M  V30 1037 C 106.595 1.43847 -1.21201 0
M  V30 1038 O 105.953 1.79904 -0.224535 0
M  V30 1039 C 106.001 0.662 -3.54471 0
M  V30 1040 O 105.105 1.76265 -3.72833 0
M  V30 1041 H 104.446 0.0448722 -0.662482 0
M  V30 1042 H 106.976 -0.491048 -1.9862 0
M  V30 1043 H 106.986 0.940594 -3.9701 0
M  V30 1044 H 105.661 -0.196937 -4.15433 0
M  V30 1045 H 104.238 1.48173 -3.42198 0
M  V30 1046 N 106.423 1.57458 -0.0668435 0
M  V30 1047 C 107.839 1.56947 0.289772 0
M  V30 1048 C 108.039 1.07584 1.70376 0
M  V30 1049 O 107.095 0.739486 2.41429 0
M  V30 1050 C 108.408 3.0052 0.103943 0
M  V30 1051 C 109.956 3.12517 0.173857 0
M  V30 1052 C 110.431 4.57997 0.0163682 0
M  V30 1053 N 111.922 4.63144 0.0721352 0
M  V30 1054 C 112.657 5.73394 -0.0253794 0
M  V30 1055 N 112.153 6.92576 -0.176133 0
M  V30 1056 N 113.946 5.62091 0.0313305 0
M  V30 1057 H 106.097 1.87863 -0.991027 0
M  V30 1058 H 108.36 0.86583 -0.38606 0
M  V30 1059 H 108.066 3.40729 -0.871572 0
M  V30 1060 H 107.94 3.67304 0.858366 0
M  V30 1061 H 110.327 2.72197 1.13985 0
M  V30 1062 H 110.408 2.48381 -0.611586 0
M  V30 1063 H 110.052 4.99005 -0.946374 0
M  V30 1064 H 109.982 5.20158 0.821153 0
M  V30 1065 H 112.473 3.77436 0.187263 0
M  V30 1066 H 112.786 7.72418 -0.242821 0
M  V30 1067 H 111.131 6.94678 -0.211429 0
M  V30 1068 H 114.322 4.67867 0.147773 0
M  V30 1069 H 114.495 6.47982 -0.048121 0
M  V30 1070 N 107.901 -0.206675 1.56239 0
M  V30 1071 C 109.129 -0.945345 1.8404 0
M  V30 1072 C 109.544 -1.77336 0.647885 0
M  V30 1073 O 108.901 -1.78425 -0.383511 0
M  V30 1074 C 108.952 -1.8509 3.10522 0
M  V30 1075 O 108.673 -1.05634 4.25174 0
M  V30 1076 C 110.174 -2.70222 3.51418 0
M  V30 1077 H 107.394 -0.276372 0.61144 0
M  V30 1078 H 109.938 -0.217417 2.03341 0
M  V30 1079 H 108.093 -2.53259 2.93153 0
M  V30 1080 H 108.507 -1.67238 4.97124 0
M  V30 1081 H 109.981 -3.29438 4.42916 0
M  V30 1082 H 110.458 -3.43358 2.73864 0
M  V30 1083 H 111.064 -2.07443 3.71278 0
M  V30 1084 N 109.379 -1.50304 -0.473955 0
M  V30 1085 C 110.342 -1.6841 -1.55469 0
M  V30 1086 C 111.342 -0.554905 -1.50922 0
M  V30 1087 O 112.532 -0.821882 -1.53593 0
M  V30 1088 C 109.664 -1.70667 -2.95102 0
M  V30 1089 H 110.857 -2.64828 -1.40733 0
M  V30 1090 H 108.41 -1.39742 -0.700132 0
M  V30 1091 H 109.145 -0.75932 -3.15285 0
M  V30 1092 H 108.93 -2.52698 -2.9981 0
M  V30 1093 H 110.42 -1.8664 -3.73571 0
M  V30 1094 N 110.857 0.726932 -1.39834 0
M  V30 1095 C 112.082 1.52121 -1.40976 0
M  V30 1096 C 112.507 1.88098 -0.00826029 0
M  V30 1097 O 111.865 1.52479 0.980807 0
M  V30 1098 C 111.913 2.78021 -2.29644 0
M  V30 1099 O 111.017 3.74272 -1.73188 0
M  V30 1100 H 110.358 0.45908 -0.479731 0
M  V30 1101 H 112.888 0.896207 -1.83927 0
M  V30 1102 H 112.898 3.26671 -2.44438 0
M  V30 1103 H 111.573 2.51169 -3.31492 0
M  V30 1104 H 110.15 3.33073 -1.6768 0
M  V30 1105 N 112.336 1.25143 0.95797 0
M  V30 1106 C 113.561 1.12521 1.74223 0
M  V30 1107 C 113.986 -0.317402 1.85403 0
M  V30 1108 O 113.344 -1.2299 1.33204 0
M  V30 1109 C 113.392 1.78062 3.1357 0
M  V30 1110 O 112.496 1.058 3.98598 0
M  V30 1111 H 111.837 0.39304 0.535178 0
M  V30 1112 H 114.367 1.65641 1.201 0
M  V30 1113 H 114.377 1.84213 3.64046 0
M  V30 1114 H 113.052 2.83021 3.04749 0
M  V30 1115 H 111.629 1.07506 3.57067 0
M  V30 1116 N 113.814 -1.1601 1.06675 0
M  V30 1117 C 115.062 -1.86264 0.784229 0
M  V30 1118 C 115.383 -1.82328 -0.691488 0
M  V30 1119 O 114.653 -1.25947 -1.50047 0
M  V30 1120 H 113.233 -0.689621 0.28711 0
M  V30 1121 H 115.895 -1.40664 1.34906 0
M  V30 1122 H 114.991 -2.91595 1.11259 0
M  V30 1123 N 115.292 -0.849877 -1.32721 0
M  V30 1124 C 116.569 -0.372405 -1.92022 0
M  V30 1125 C 116.949 1.1435 -1.77447 0
M  V30 1126 O 116.297 1.96296 -1.16962 0
M  V30 1127 C 116.507 -0.831482 -3.3895 0
M  V30 1128 C 117.855 -0.845882 -4.16089 0
M  V30 1129 O 118.879 -0.775806 -3.47649 0
M  V30 1130 O 117.738 -0.943753 -5.38289 0
M  V30 1131 H 114.832 -0.107667 -0.819961 0
M  V30 1132 H 117.378 -0.93646 -1.41522 0
M  V30 1133 H 116.15 -1.87448 -3.4348 0
M  V30 1134 H 115.773 -0.24461 -3.96847 0
M  V30 1135 N 116.77 1.45427 -0.607355 0
M  V30 1136 C 118 2.06314 -0.108656 0
M  V30 1137 C 118.408 1.45269 1.21217 0
M  V30 1138 O 117.751 0.561115 1.74921 0
M  V30 1139 C 117.813 3.59345 0.105618 0
M  V30 1140 C 117.477 4.42723 -1.13337 0
M  V30 1141 C 118.474 4.77715 -2.05145 0
M  V30 1142 C 116.159 4.83478 -1.36213 0
M  V30 1143 C 118.153 5.52317 -3.18158 0
M  V30 1144 C 115.84 5.57835 -2.49527 0
M  V30 1145 C 116.838 5.92171 -3.40327 0
M  V30 1146 O 116.526 6.65019 -4.51669 0
M  V30 1147 H 116.258 0.672782 -0.0658842 0
M  V30 1148 H 118.812 1.87664 -0.834945 0
M  V30 1149 H 117.042 3.76394 0.886796 0
M  V30 1150 H 118.731 4.02076 0.555886 0
M  V30 1151 H 119.497 4.46787 -1.88697 0
M  V30 1152 H 115.376 4.56188 -0.664362 0
M  V30 1153 H 118.92 5.79036 -3.89054 0
M  V30 1154 H 114.817 5.88177 -2.65928 0
M  V30 1155 H 115.585 6.83469 -4.50348 0
M  V30 1156 N 118.248 0.346503 1.53744 0
M  V30 1157 C 119.196 -0.52422 2.26616 0
M  V30 1158 C 120.19 -1.09948 1.28871 0
M  V30 1159 O 121.396 -1.04488 1.46568 0
M  V30 1160 H 117.771 -0.187743 0.728187 0
M  V30 1161 H 119.742 0.11239 2.98188 0
M  V30 1162 C 118.491 -1.66186 3.05414 0
M  V30 1163 H 117.814 -1.22848 3.80458 0
M  V30 1164 H 119.254 -2.24622 3.59612 0
M  V30 1165 C 117.713 -2.59302 2.1509 0
M  V30 1166 O 118.243 -3.61628 1.74895 0
M  V30 1167 N 116.449 -2.28055 1.8011 0
M  V30 1168 H 115.996 -1.44883 2.12994 0
M  V30 1169 H 115.954 -2.90615 1.19958 0
M  V30 1170 N 119.726 -1.57421 0.075193 0
M  V30 1171 C 120.673 -2.12915 -0.890843 0
M  V30 1172 C 121.643 -1.04252 -1.29309 0
M  V30 1173 O 122.828 -1.31933 -1.37834 0
M  V30 1174 C 119.968 -2.69795 -2.15186 0
M  V30 1175 C 119.081 -3.92624 -1.80194 0
M  V30 1176 C 118.216 -4.37736 -3.00933 0
M  V30 1177 C 117.255 -5.53205 -2.61974 0
M  V30 1178 N 116.392 -5.9326 -3.75483 0
M  V30 1179 H 121.232 -2.95156 -0.410735 0
M  V30 1180 H 118.769 -1.45854 -0.191086 0
M  V30 1181 H 120.727 -3.00883 -2.89008 0
M  V30 1182 H 119.357 -1.90313 -2.60731 0
M  V30 1183 H 118.409 -3.67977 -0.964218 0
M  V30 1184 H 119.721 -4.76482 -1.47534 0
M  V30 1185 H 118.875 -4.70503 -3.8303 0
M  V30 1186 H 117.614 -3.52739 -3.36789 0
M  V30 1187 H 116.619 -5.20086 -1.783 0
M  V30 1188 H 117.844 -6.39936 -2.27284 0
M  V30 1189 H 115.79 -5.11212 -4.11094 0
M  V30 1190 H 115.707 -6.71865 -3.46602 0
M  V30 1191 H 116.975 -6.30651 -4.58148 0
M  V30 1192 N 121.204 0.198386 -1.56346 0
M  V30 1193 C 122.152 1.26538 -1.95169 0
M  V30 1194 C 123.146 1.47295 -0.836685 0
M  V30 1195 O 124.352 1.48195 -1.02167 0
M  V30 1196 H 120.727 0.424744 -0.620561 0
M  V30 1197 H 122.698 0.910904 -2.84157 0
M  V30 1198 C 121.447 2.6035 -2.30463 0
M  V30 1199 H 120.77 2.45192 -3.15786 0
M  V30 1200 H 122.21 3.33762 -2.61494 0
M  V30 1201 C 120.669 3.17096 -1.13806 0
M  V30 1202 O 121.199 3.99588 -0.41135 0
M  V30 1203 N 119.405 2.75795 -0.915736 0
M  V30 1204 H 118.952 2.08816 -1.50843 0
M  V30 1205 H 118.91 3.14101 -0.136979 0
M  V30 1206 N 122.682 1.50554 0.465978 0
M  V30 1207 C 123.614 1.65949 1.58093 0
M  V30 1208 C 124.627 0.540827 1.53554 0
M  V30 1209 O 125.816 0.814187 1.5885 0
M  V30 1210 C 122.916 1.63261 2.96983 0
M  V30 1211 C 122.089 2.91245 3.26336 0
M  V30 1212 C 121.148 2.8113 4.44806 0
M  V30 1213 O 120.174 3.55086 4.44862 0
M  V30 1214 N 121.376 1.95032 5.46756 0
M  V30 1215 H 124.141 2.62122 1.45301 0
M  V30 1216 H 121.702 1.48082 0.65448 0
M  V30 1217 H 123.694 1.54101 3.74212 0
M  V30 1218 H 122.264 0.748032 3.03518 0
M  V30 1219 H 121.484 3.14493 2.37672 0
M  V30 1220 H 122.772 3.76022 3.42761 0
M  V30 1221 H 122.17 1.3427 5.49534 0
M  V30 1222 H 120.727 1.91772 6.2295 0
M  V30 1223 N 124.16 -0.719506 1.40217 0
M  V30 1224 C 125.39 -1.50646 1.41384 0
M  V30 1225 C 125.798 -1.89197 0.0107743 0
M  V30 1226 O 125.141 -1.55709 -0.974708 0
M  V30 1227 C 125.203 -2.81405 2.23722 0
M  V30 1228 C 124.867 -2.65199 3.72181 0
M  V30 1229 C 125.864 -2.32717 4.64907 0
M  V30 1230 C 123.549 -2.81586 4.1595 0
M  V30 1231 C 125.543 -2.16827 5.99387 0
M  V30 1232 C 123.23 -2.65313 5.50502 0
M  V30 1233 C 124.228 -2.32981 6.42035 0
M  V30 1234 O 123.916 -2.16827 7.74107 0
M  V30 1235 H 123.648 -0.471606 0.484318 0
M  V30 1236 H 126.202 -0.895456 1.84853 0
M  V30 1237 H 124.432 -3.44823 1.75026 0
M  V30 1238 H 126.121 -3.43102 2.16878 0
M  V30 1239 H 126.887 -2.19694 4.32388 0
M  V30 1240 H 122.766 -3.0574 3.45027 0
M  V30 1241 H 126.31 -1.91513 6.70797 0
M  V30 1242 H 122.207 -2.7792 5.82607 0
M  V30 1243 H 122.975 -2.31778 7.84998 0
M  V30 1244 N 125.638 -1.25649 -0.95132 0
M  V30 1245 C 126.868 -1.13179 -1.72841 0
M  V30 1246 C 127.276 0.316827 -1.86528 0
M  V30 1247 O 126.619 1.22948 -1.3649 0
M  V30 1248 C 126.681 -1.71644 -3.15878 0
M  V30 1249 C 126.345 -3.20667 -3.25609 0
M  V30 1250 C 127.342 -4.17616 -3.09666 0
M  V30 1251 C 125.027 -3.6094 -3.49324 0
M  V30 1252 C 127.021 -5.52817 -3.17289 0
M  V30 1253 C 124.708 -4.96278 -3.56584 0
M  V30 1254 C 125.706 -5.92025 -3.40581 0
M  V30 1255 O 125.394 -7.24899 -3.47528 0
M  V30 1256 H 125.126 -0.395389 -0.54831 0
M  V30 1257 H 127.68 -1.66566 -1.20187 0
M  V30 1258 H 125.91 -1.12707 -3.69911 0
M  V30 1259 H 127.599 -1.54225 -3.75459 0
M  V30 1260 H 128.365 -3.87842 -2.91211 0
M  V30 1261 H 124.244 -2.86907 -3.6084 0
M  V30 1262 H 127.788 -6.2753 -3.04716 0
M  V30 1263 H 123.685 -5.25716 -3.74556 0
M  V30 1264 H 124.453 -7.33039 -3.64138 0
M  V30 1265 N 127.117 1.15442 -1.07289 0
M  V30 1266 C 128.365 1.85845 -0.794096 0
M  V30 1267 C 128.686 1.82692 0.681809 0
M  V30 1268 O 127.956 1.26741 1.49377 0
M  V30 1269 H 126.536 0.688089 -0.290763 0
M  V30 1270 H 129.198 1.39947 -1.3565 0
M  V30 1271 H 128.294 2.91001 -1.12804 0
M  V30 1272 N 128.595 0.856903 1.32268 0
M  V30 1273 C 129.844 0.457599 1.96441 0
M  V30 1274 C 130.157 -0.992426 1.68553 0
M  V30 1275 O 131.363 -1.49727 2.26482 0
M  V30 1276 C 129.819 0.767358 3.51624 0
M  V30 1277 C 129.427 2.23326 3.88367 0
M  V30 1278 C 131.171 0.435887 4.22256 0
M  V30 1279 C 129.078 2.48613 5.36606 0
M  V30 1280 H 128.008 0.167387 0.735185 0
M  V30 1281 H 130.659 1.048 1.5063 0
M  V30 1282 H 129.041 0.106367 3.95857 0
M  V30 1283 H 130.215 2.93623 3.55137 0
M  V30 1284 H 128.53 2.52948 3.30766 0
M  V30 1285 H 131.127 0.602202 5.31298 0
M  V30 1286 H 131.47 -0.622672 4.11617 0
M  V30 1287 H 132.003 1.05286 3.83614 0
M  V30 1288 H 128.742 3.53101 5.52268 0
M  V30 1289 H 128.262 1.82896 5.71235 0
M  V30 1290 H 129.941 2.32676 6.03714 0
M  V30 1291 N 130.073 -1.45103 0.615059 0
M  V30 1292 C 131.301 -2.06553 0.11977 0
M  V30 1293 C 131.716 -1.45842 -1.19898 0
M  V30 1294 O 131.073 -0.575325 -1.73194 0
M  V30 1295 C 131.124 -3.61495 -0.018364 0
M  V30 1296 O 130.845 -4.19942 1.24822 0
M  V30 1297 C 132.346 -4.39947 -0.544237 0
M  V30 1298 H 129.566 -0.667096 0.0722739 0
M  V30 1299 H 132.11 -1.8623 0.84491 0
M  V30 1300 H 130.265 -3.81135 -0.693865 0
M  V30 1301 H 130.679 -5.13204 1.0827 0
M  V30 1302 H 132.153 -5.48838 -0.589953 0
M  V30 1303 H 132.63 -4.10255 -1.56805 0
M  V30 1304 H 133.236 -4.25188 0.0974703 0
M  V30 1305 N 131.551 -0.354651 -1.53558 0
M  V30 1306 C 132.514 0.484566 -2.24019 0
M  V30 1307 C 133.514 1.01861 -1.24422 0
M  V30 1308 O 134.704 0.906097 -1.4878 0
M  V30 1309 C 131.836 1.67615 -2.96847 0
M  V30 1310 H 133.029 -0.131843 -2.9961 0
M  V30 1311 H 130.582 -0.106165 -1.55939 0
M  V30 1312 H 131.317 2.33095 -2.25471 0
M  V30 1313 H 131.102 1.30029 -3.69912 0
M  V30 1314 H 132.592 2.27114 -3.50441 0
M  V30 1315 N 133.029 1.57378 -0.0835403 0
M  V30 1316 C 134.277 1.93547 0.581718 0
M  V30 1317 C 134.598 0.96524 1.69435 0
M  V30 1318 O 133.868 0.0153369 1.95894 0
M  V30 1319 H 132.448 0.714521 0.217874 0
M  V30 1320 H 135.11 1.94366 -0.144158 0
M  V30 1321 H 134.206 2.95665 0.999423 0
M  V30 1322 N 134.507 -0.190092 1.56449 0
M  V30 1323 C 135.918 -0.754312 1.70784 0
M  V30 1324 C 136.269 -1.83631 0.690951 0
M  V30 1325 O 135.394 -2.15868 -0.151604 0
M  V30 1326 C 135.989 -1.37503 3.09642 0
M  V30 1327 C 134.548 -1.88628 3.25725 0
M  V30 1328 C 133.695 -0.758098 2.66736 0
M  V30 1329 H 136.646 0.0350524 1.58661 0
M  V30 1330 H 136.667 -2.2445 3.0725 0
M  V30 1331 H 136.179 -0.587302 3.83631 0
M  V30 1332 H 134.28 -2.70103 2.56661 0
M  V30 1333 H 134.393 -2.04462 4.3328 0
M  V30 1334 H 132.757 -1.17369 2.26046 0
M  V30 1335 H 133.54 0.0174705 3.43296 0
M  V30 1336 N 135.985 -1.50799 -0.457987 0
M  V30 1337 C 136.948 -1.7005 -1.53674 0
M  V30 1338 C 137.948 -0.570881 -1.50325 0
M  V30 1339 O 139.138 -0.838126 -1.52712 0
M  V30 1340 C 136.27 -1.73788 -2.93276 0
M  V30 1341 H 137.463 -2.66306 -1.37917 0
M  V30 1342 H 135.016 -1.40477 -0.685271 0
M  V30 1343 H 135.751 -0.792717 -3.14462 0
M  V30 1344 H 135.536 -2.55864 -2.97113 0
M  V30 1345 H 137.026 -1.90591 -3.71571 0
M  V30 1346 N 137.463 0.71206 -1.40597 0
M  V30 1347 C 138.693 1.49894 -1.42181 0
M  V30 1348 C 139.101 1.89189 -0.0208078 0
M  V30 1349 O 138.444 1.56223 0.966436 0
M  V30 1350 C 138.506 2.80215 -2.25211 0
M  V30 1351 C 138.17 2.63221 -3.73582 0
M  V30 1352 C 139.167 2.30249 -4.66135 0
M  V30 1353 C 136.852 2.79376 -4.17438 0
M  V30 1354 C 138.846 2.13645 -6.00529 0
M  V30 1355 C 136.533 2.6239 -5.51901 0
M  V30 1356 C 137.531 2.29573 -6.43262 0
M  V30 1357 O 137.219 2.12719 -7.75246 0
M  V30 1358 H 136.951 0.469031 -0.486812 0
M  V30 1359 H 139.505 0.88564 -1.85326 0
M  V30 1360 H 137.735 3.4389 -1.76852 0
M  V30 1361 H 139.424 3.41947 -2.18694 0
M  V30 1362 H 140.19 2.17398 -4.33547 0
M  V30 1363 H 136.069 3.03906 -3.46644 0
M  V30 1364 H 139.613 1.87953 -6.71803 0
M  V30 1365 H 135.51 2.74826 -5.84073 0
M  V30 1366 H 136.278 2.27611 -7.86216 0
M  V30 1367 N 138.941 1.26152 0.944643 0
M  V30 1368 C 140.357 1.03189 1.21754 0
M  V30 1369 C 140.557 -0.245112 2.00004 0
M  V30 1370 O 139.613 -0.955176 2.33736 0
M  V30 1371 C 140.926 2.26119 1.98219 0
M  V30 1372 C 142.474 2.30984 2.11224 0
M  V30 1373 C 142.949 3.53597 2.91089 0
M  V30 1374 N 144.44 3.54053 2.98664 0
M  V30 1375 C 145.175 4.45593 3.60881 0
M  V30 1376 N 144.671 5.47416 4.24626 0
M  V30 1377 N 146.464 4.33252 3.58119 0
M  V30 1378 H 138.615 2.08177 0.421437 0
M  V30 1379 H 140.878 0.914723 0.248969 0
M  V30 1380 H 140.584 3.18984 1.48128 0
M  V30 1381 H 140.458 2.3009 2.98895 0
M  V30 1382 H 142.845 1.38635 2.60508 0
M  V30 1383 H 142.926 2.31026 1.09821 0
M  V30 1384 H 142.57 4.46273 2.42493 0
M  V30 1385 H 142.5 3.50802 3.92741 0
M  V30 1386 H 144.991 2.80403 2.53343 0
M  V30 1387 H 145.304 6.13459 4.69987 0
M  V30 1388 H 143.649 5.51278 4.23223 0
M  V30 1389 H 146.84 3.52924 3.0751 0
M  V30 1390 H 147.013 5.04786 4.06319 0
M  V30 1391 N 140.419 -1.14872 1.07899 0
M  V30 1392 C 141.668 -1.85135 0.800499 0
M  V30 1393 C 141.981 -1.83547 -0.676014 0
M  V30 1394 O 143.187 -2.49548 -1.06948 0
M  V30 1395 C 141.643 -3.3231 1.38197 0
M  V30 1396 C 141.251 -3.42329 2.8899 0
M  V30 1397 C 142.995 -4.0772 1.18174 0
M  V30 1398 C 140.902 -4.83684 3.403 0
M  V30 1399 H 139.832 -0.693563 0.29578 0
M  V30 1400 H 142.483 -1.29532 1.29976 0
M  V30 1401 H 140.865 -3.87618 0.810431 0
M  V30 1402 H 142.039 -2.97097 3.52236 0
M  V30 1403 H 140.354 -2.80369 3.07867 0
M  V30 1404 H 142.951 -5.12049 1.5398 0
M  V30 1405 H 143.294 -4.16124 0.12117 0
M  V30 1406 H 143.827 -3.58696 1.71994 0
M  V30 1407 H 140.566 -4.80465 4.45907 0
M  V30 1408 H 140.086 -5.29474 2.81811 0
M  V30 1409 H 141.765 -5.52558 3.36584 0
M  V30 1410 N 141.898 -0.863906 -1.31812 0
M  V30 1411 C 142.846 -0.30422 -2.30602 0
M  V30 1412 C 143.84 0.577419 -1.59255 0
M  V30 1413 O 145.046 0.464194 -1.73912 0
M  V30 1414 H 141.421 -0.0796877 -0.747766 0
M  V30 1415 H 143.392 -1.15148 -2.75288 0
M  V30 1416 C 142.141 0.484617 -3.44306 0
M  V30 1417 H 141.464 -0.18451 -3.99374 0
M  V30 1418 H 142.904 0.841664 -4.15562 0
M  V30 1419 C 141.363 1.6735 -2.92396 0
M  V30 1420 O 141.893 2.77273 -2.90659 0
M  V30 1421 N 140.099 1.50362 -2.48676 0
M  V30 1422 H 139.646 0.609402 -2.50288 0
M  V30 1423 H 139.604 2.30051 -2.14299 0
M  V30 1424 N 143.376 1.44774 -0.622745 0
M  V30 1425 C 144.653 1.95522 -0.0551974 0
M  V30 1426 C 145.033 1.5649 1.41683 0
M  V30 1427 O 144.381 0.834848 2.12703 0
M  V30 1428 C 144.591 3.4796 -0.269242 0
M  V30 1429 C 145.939 4.24306 -0.158014 0
M  V30 1430 O 146.963 3.55637 -0.200162 0
M  V30 1431 O 145.822 5.46471 -0.0558693 0
M  V30 1432 H 142.916 0.826556 0.0271015 0
M  V30 1433 H 145.462 1.54866 -0.693864 0
M  V30 1434 H 144.234 3.6939 -1.29099 0
M  V30 1435 H 143.857 3.95543 0.403966 0
M  V30 1436 N 144.854 0.36279 1.53368 0
M  V30 1437 C 146.1 -0.220702 2.02199 0
M  V30 1438 C 146.455 -1.46649 1.24546 0
M  V30 1439 O 145.748 -1.88737 0.32996 0
M  V30 1440 C 145.942 -0.568417 3.52851 0
M  V30 1441 C 145.771 0.642126 4.45092 0
M  V30 1442 C 144.541 1.15335 4.91961 0
M  V30 1443 C 146.739 1.50649 4.91741 0
M  V30 1444 N 144.721 2.3242 5.68202 0
M  V30 1445 C 146.092 2.52404 5.66297 0
M  V30 1446 C 148.147 1.52969 4.73819 0
M  V30 1447 C 146.85 3.56331 6.24836 0
M  V30 1448 C 148.876 2.55789 5.33222 0
M  V30 1449 C 148.238 3.56268 6.07662 0
M  V30 1450 H 144.337 -0.0435508 0.780786 0
M  V30 1451 H 146.921 0.506704 1.87991 0
M  V30 1452 H 145.092 -1.2649 3.67226 0
M  V30 1453 H 146.824 -1.13676 3.88407 0
M  V30 1454 H 143.579 0.718412 4.68119 0
M  V30 1455 H 144.003 2.91591 6.10986 0
M  V30 1456 H 148.645 0.766418 4.15795 0
M  V30 1457 H 146.363 4.33543 6.81958 0
M  V30 1458 H 149.949 2.58435 5.21251 0
M  V30 1459 H 148.829 4.34524 6.52808 0
M  V30 1460 N 146.332 -1.57332 0.0918853 0
M  V30 1461 C 147.295 -2.12708 -0.85369 0
M  V30 1462 C 148.295 -1.05561 -1.213 0
M  V30 1463 O 149.485 -1.31461 -1.14296 0
M  V30 1464 C 146.617 -2.64503 -2.15061 0
M  V30 1465 H 147.81 -2.97573 -0.3729 0
M  V30 1466 H 145.363 -1.55509 -0.157072 0
M  V30 1467 H 146.098 -1.83149 -2.67632 0
M  V30 1468 H 145.883 -3.4284 -1.90272 0
M  V30 1469 H 147.373 -3.07351 -2.82711 0
M  V30 1470 N 147.81 0.181792 -1.56548 0
M  V30 1471 C 149.035 0.920019 -1.85877 0
M  V30 1472 C 149.46 1.75494 -0.677021 0
M  V30 1473 O 148.818 1.77399 0.374056 0
M  V30 1474 C 148.866 1.78112 -3.13542 0
M  V30 1475 O 147.97 2.88152 -2.95029 0
M  V30 1476 H 147.311 0.258334 -0.611686 0
M  V30 1477 H 149.841 0.183092 -2.03779 0
M  V30 1478 H 149.851 2.18314 -3.44678 0
M  V30 1479 H 148.526 1.16777 -3.99169 0
M  V30 1480 H 147.103 2.51609 -2.75222 0
M  V30 1481 N 149.288 1.51039 0.449983 0
M  V30 1482 C 150.537 1.62317 1.19733 0
M  V30 1483 C 150.85 0.339101 1.92638 0
M  V30 1484 O 152.056 0.331069 2.69474 0
M  V30 1485 C 150.512 2.86608 2.17678 0
M  V30 1486 C 150.12 4.21972 1.50479 0
M  V30 1487 C 151.864 3.07239 2.92924 0
M  V30 1488 C 149.771 5.37426 2.46834 0
M  V30 1489 H 148.701 0.604532 0.450619 0
M  V30 1490 H 151.352 1.77494 0.465625 0
M  V30 1491 H 149.734 2.65037 2.94231 0
M  V30 1492 H 150.908 4.53878 0.795716 0
M  V30 1493 H 149.223 4.07117 0.874344 0
M  V30 1494 H 151.82 3.90668 3.65079 0
M  V30 1495 H 152.163 2.19807 3.5354 0
M  V30 1496 H 152.696 3.29091 2.23481 0
M  V30 1497 H 149.435 6.27079 1.90926 0
M  V30 1498 H 148.955 5.09912 3.15832 0
M  V30 1499 H 150.634 5.68862 3.08228 0
M  V30 1500 N 150.766 -0.704594 1.40972 0
M  V30 1501 C 151.996 -1.49138 1.42974 0
M  V30 1502 C 152.404 -1.89175 0.0308406 0
M  V30 1503 O 151.747 -1.56734 -0.958138 0
M  V30 1504 C 151.809 -2.79016 2.26694 0
M  V30 1505 C 151.473 -2.61236 3.74973 0
M  V30 1506 C 152.47 -2.27773 4.67349 0
M  V30 1507 C 150.155 -2.77158 4.18914 0
M  V30 1508 C 152.149 -2.10457 6.01653 0
M  V30 1509 C 149.836 -2.59459 5.53285 0
M  V30 1510 C 150.834 -2.26158 6.4447 0
M  V30 1511 O 150.522 -2.08605 7.76363 0
M  V30 1512 H 150.254 -0.466443 0.489292 0
M  V30 1513 H 152.808 -0.8758 1.85793 0
M  V30 1514 H 151.038 -3.42947 1.78673 0
M  V30 1515 H 152.727 -3.40782 2.20504 0
M  V30 1516 H 153.493 -2.15095 4.34694 0
M  V30 1517 H 149.372 -3.02064 3.48251 0
M  V30 1518 H 152.916 -1.84387 6.72791 0
M  V30 1519 H 148.813 -2.71725 5.85522 0
M  V30 1520 H 149.581 -2.23439 7.87412 0
M  V30 1521 N 152.244 -1.26651 -0.937939 0
M  V30 1522 C 153.492 -1.12165 -1.68118 0
M  V30 1523 C 153.813 0.334983 -1.92101 0
M  V30 1524 O 153.083 1.23583 -1.52 0
M  V30 1525 H 151.663 -0.412093 -0.623048 0
M  V30 1526 H 154.325 -1.59027 -1.12678 0
M  V30 1527 H 153.421 -1.64289 -2.6536 0
M  V30 1528 N 153.722 1.14298 -1.08507 0
M  V30 1529 C 154.968 1.85633 -0.816581 0
M  V30 1530 C 155.301 1.82784 0.656021 0
M  V30 1531 O 154.576 1.25926 1.48233 0
M  V30 1532 C 154.859 3.34223 -1.34041 0
M  V30 1533 C 154.712 3.45639 -2.87843 0
M  V30 1534 C 156.031 4.29356 -0.9665 0
M  V30 1535 H 153.15 0.67402 -0.298104 0
M  V30 1536 H 155.792 1.34214 -1.34487 0
M  V30 1537 H 153.942 3.78144 -0.89104 0
M  V30 1538 H 155.614 3.10498 -3.41158 0
M  V30 1539 H 153.857 2.86817 -3.25451 0
M  V30 1540 H 154.528 4.50089 -3.19569 0
M  V30 1541 H 157.004 3.93457 -1.35391 0
M  V30 1542 H 155.88 5.3178 -1.3602 0
M  V30 1543 H 156.141 4.41919 0.126362 0
M  V30 1544 N 155.201 0.870884 1.31352 0
M  V30 1545 C 156.447 0.482987 1.96965 0
M  V30 1546 C 156.78 -0.962462 1.68672 0
M  V30 1547 O 156.055 -1.6779 0.98371 0
M  V30 1548 C 156.338 0.741752 3.52378 0
M  V30 1549 C 156.191 2.2368 3.9024 0
M  V30 1550 C 157.51 0.208838 4.39604 0
M  V30 1551 H 154.629 0.176955 0.715441 0
M  V30 1552 H 157.271 1.09229 1.55464 0
M  V30 1553 H 155.421 0.223149 3.87859 0
M  V30 1554 H 157.093 2.82273 3.64856 0
M  V30 1555 H 155.336 2.70901 3.38814 0
M  V30 1556 H 156.007 2.3685 4.98604 0
M  V30 1557 H 158.483 0.652529 4.10952 0
M  V30 1558 H 157.359 0.419336 5.47296 0
M  V30 1559 H 157.62 -0.889275 4.33064 0
M  V30 1560 N 156.679 -1.44442 0.630414 0
M  V30 1561 C 157.927 -2.01653 0.134351 0
M  V30 1562 C 158.248 -1.49836 -1.24796 0
M  V30 1563 O 157.518 -0.701684 -1.82902 0
M  V30 1564 H 156.098 -0.74554 0.0466769 0
M  V30 1565 H 158.76 -1.76952 0.816955 0
M  V30 1566 H 157.856 -3.11935 0.101498 0
M  V30 1567 N 158.157 -0.370918 -1.53173 0
M  V30 1568 C 159.403 0.217423 -2.01631 0
M  V30 1569 C 159.736 1.47983 -1.25756 0
M  V30 1570 O 159.011 1.91274 -0.352764 0
M  V30 1571 C 159.294 0.503982 -3.56556 0
M  V30 1572 C 159.147 -0.77243 -4.43118 0
M  V30 1573 C 160.466 1.30234 -4.20389 0
M  V30 1574 H 157.585 0.0775486 -0.732909 0
M  V30 1575 H 160.227 -0.496863 -1.83388 0
M  V30 1576 H 158.377 1.11248 -3.72231 0
M  V30 1577 H 160.049 -1.4098 -4.39229 0
M  V30 1578 H 158.292 -1.39167 -4.10871 0
M  V30 1579 H 158.963 -0.526815 -5.4948 0
M  V30 1580 H 161.439 0.787546 -4.08579 0
M  V30 1581 H 160.315 1.47158 -5.28806 0
M  V30 1582 H 160.576 2.31237 -3.76805 0
M  V30 1583 N 159.635 1.57281 -0.100228 0
M  V30 1584 C 160.883 1.94153 0.561157 0
M  V30 1585 C 161.204 0.983157 1.68401 0
M  V30 1586 O 160.474 0.0361132 1.95867 0
M  V30 1587 H 159.054 0.716791 0.210283 0
M  V30 1588 H 161.716 1.94202 -0.164765 0
M  V30 1589 H 160.812 2.96709 0.968008 0
M  V30 1590 N 161.113 -0.173488 1.56642 0
M  V30 1591 C 162.343 -0.904781 1.85734 0
M  V30 1592 C 162.751 -1.76431 0.68328 0
M  V30 1593 O 162.094 -1.802 -0.356865 0
M  V30 1594 C 162.156 -1.83382 3.09211 0
M  V30 1595 C 161.82 -1.15411 4.42187 0
M  V30 1596 C 162.817 -0.520609 5.17287 0
M  V30 1597 C 160.502 -1.15151 4.88923 0
M  V30 1598 C 162.496 0.106412 6.37311 0
M  V30 1599 C 160.183 -0.520664 6.08878 0
M  V30 1600 C 161.181 0.107196 6.82916 0
M  V30 1601 O 160.869 0.728102 8.00596 0
M  V30 1602 H 160.601 -0.268408 0.62043 0
M  V30 1603 H 163.155 -0.179096 2.04618 0
M  V30 1604 H 161.385 -2.59976 2.86268 0
M  V30 1605 H 163.074 -2.43476 3.24768 0
M  V30 1606 H 163.84 -0.514606 4.82262 0
M  V30 1607 H 159.719 -1.62961 4.31236 0
M  V30 1608 H 163.263 0.597081 6.9504 0
M  V30 1609 H 159.16 -0.524242 6.43368 0
M  V30 1610 H 159.928 0.627138 8.16094 0
M  V30 1611 N 162.591 -1.51276 -0.441967 0
M  V30 1612 C 163.839 -1.63392 -1.18943 0
M  V30 1613 C 164.16 -0.350159 -1.9183 0
M  V30 1614 O 163.43 0.633784 -1.85364 0
M  V30 1615 H 162.01 -0.602164 -0.442049 0
M  V30 1616 H 164.672 -1.88186 -0.507165 0
M  V30 1617 H 163.768 -2.45934 -1.92154 0
M  V30 1618 N 164.069 0.697108 -1.41344 0
M  V30 1619 C 165.016 1.81106 -1.43071 0
M  V30 1620 C 165.986 1.63632 -0.285275 0
M  V30 1621 O 167.171 1.84504 -0.486091 0
M  V30 1622 C 164.311 3.18975 -1.31715 0
M  V30 1623 C 163.424 3.47892 -2.56115 0
M  V30 1624 C 162.559 4.75367 -2.37064 0
M  V30 1625 C 161.598 4.97247 -3.56948 0
M  V30 1626 N 160.735 6.15947 -3.36977 0
M  V30 1627 H 165.575 1.78965 -2.38276 0
M  V30 1628 H 163.112 0.873975 -1.18322 0
M  V30 1629 H 165.07 3.98615 -1.23133 0
M  V30 1630 H 163.7 3.20297 -0.401183 0
M  V30 1631 H 162.752 2.62669 -2.75153 0
M  V30 1632 H 164.064 3.59962 -3.45295 0
M  V30 1633 H 163.218 5.63059 -2.25941 0
M  V30 1634 H 161.957 4.65541 -1.45338 0
M  V30 1635 H 160.962 4.08004 -3.68527 0
M  V30 1636 H 162.187 5.08934 -4.49626 0
M  V30 1637 H 160.133 6.07336 -2.47949 0
M  V30 1638 H 160.05 6.28777 -4.19732 0
M  V30 1639 H 161.318 7.06377 -3.29623 0
M  V30 1640 N 165.547 1.27147 0.931209 0
M  V30 1641 C 166.794 1.13278 1.67852 0
M  V30 1642 C 167.122 -0.32204 1.91815 0
M  V30 1643 O 166.377 -1.25224 1.50391 0
M  V30 1644 C 166.676 1.8579 3.05314 0
M  V30 1645 C 166.342 3.35657 3.01073 0
M  V30 1646 C 165.004 3.76536 2.99623 0
M  V30 1647 C 167.356 4.31299 2.92627 0
M  V30 1648 C 164.684 5.11426 2.87506 0
M  V30 1649 C 167.036 5.66242 2.82051 0
M  V30 1650 C 165.7 6.06418 2.7895 0
M  V30 1651 H 164.97 0.414515 0.614214 0
M  V30 1652 H 167.617 1.57712 1.08624 0
M  V30 1653 H 165.922 1.33854 3.68226 0
M  V30 1654 H 167.619 1.72491 3.62005 0
M  V30 1655 H 164.209 3.03146 3.02986 0
M  V30 1656 H 168.393 4.00692 2.92848 0
M  V30 1657 H 163.649 5.41705 2.83489 0
M  V30 1658 H 167.823 6.40026 2.74481 0
M  V30 1659 H 165.45 7.10895 2.69318 0
M  V30 1660 N 167.025 -1.13721 1.09112 0
M  V30 1661 C 167.957 -2.1871 0.685467 0
M  V30 1662 C 168.97 -1.60527 -0.271068 0
M  V30 1663 O 170.159 -1.78407 -0.0576148 0
M  V30 1664 C 167.259 -3.38898 -0.0111255 0
M  V30 1665 C 166.432 -4.26597 0.966131 0
M  V30 1666 C 165.491 -5.25324 0.303539 0
M  V30 1667 O 164.517 -5.61213 0.950177 0
M  V30 1668 N 165.719 -5.72779 -0.943651 0
M  V30 1669 H 168.484 -2.54126 1.58871 0
M  V30 1670 H 166.045 -1.29012 0.978143 0
M  V30 1671 H 168.037 -4.02014 -0.465517 0
M  V30 1672 H 166.607 -3.01747 -0.816565 0
M  V30 1673 H 165.827 -3.60306 1.59917 0
M  V30 1674 H 167.115 -4.82048 1.6281 0
M  V30 1675 H 166.513 -5.45762 -1.48862 0
M  V30 1676 H 165.07 -6.37847 -1.34142 0
M  V30 1677 N 168.503 -0.877838 -1.30888 0
M  V30 1678 C 169.731 -0.507414 -2.00581 0
M  V30 1679 C 170.146 0.902216 -1.65848 0
M  V30 1680 O 169.503 1.59225 -0.891831 0
M  V30 1681 C 169.554 -0.664162 -3.55347 0
M  V30 1682 O 169.275 -2.01829 -3.8884 0
M  V30 1683 C 170.776 -0.295787 -4.42312 0
M  V30 1684 H 167.996 -0.196866 -0.641471 0
M  V30 1685 H 170.54 -1.18117 -1.66939 0
M  V30 1686 H 168.695 -0.0378619 -3.87381 0
M  V30 1687 H 169.109 -2.03174 -4.8355 0
M  V30 1688 H 170.583 -0.456388 -5.5011 0
M  V30 1689 H 171.06 0.765663 -4.32475 0
M  V30 1690 H 171.666 -0.898113 -4.15709 0
M  V30 1691 N 169.982 1.44106 -0.638065 0
M  V30 1692 C 171.21 2.06336 -0.152615 0
M  V30 1693 C 171.625 1.47731 1.17563 0
M  V30 1694 O 170.982 0.602806 1.72257 0
M  V30 1695 C 171.033 3.61479 -0.0391491 0
M  V30 1696 O 170.754 4.17903 -1.31487 0
M  V30 1697 C 172.255 4.40757 0.474176 0
M  V30 1698 H 169.475 0.665862 -0.0828776 0
M  V30 1699 H 172.019 1.84862 -0.87443 0
M  V30 1700 H 170.174 3.82191 0.633142 0
M  V30 1701 H 170.588 5.11416 -1.16421 0
M  V30 1702 H 172.062 5.49707 0.502562 0
M  V30 1703 H 172.539 4.12697 1.50258 0
M  V30 1704 H 173.145 4.24979 -0.165102 0
M  V30 1705 N 171.46 0.379036 1.52974 0
M  V30 1706 C 172.37 -0.468639 2.29872 0
M  V30 1707 C 173.386 -1.08067 1.36373 0
M  V30 1708 O 174.562 -1.08871 1.69438 0
M  V30 1709 C 171.627 -1.58594 3.083 0
M  V30 1710 C 170.688 -1.00007 4.17489 0
M  V30 1711 C 169.921 -2.06413 4.92168 0
M  V30 1712 O 170.144 -3.27751 4.66835 0
M  V30 1713 O 169.078 -1.68717 5.7777 0
M  V30 1714 H 172.904 0.157508 3.03291 0
M  V30 1715 H 170.489 0.143035 1.48714 0
M  V30 1716 H 172.371 -2.23525 3.57232 0
M  V30 1717 H 171.046 -2.19724 2.37703 0
M  V30 1718 H 169.953 -0.314299 3.72777 0
M  V30 1719 H 171.286 -0.433135 4.90291 0
M  V30 1720 N 172.938 -1.57226 0.108567 0
M  V30 1721 C 174.168 -1.9889 -0.559142 0
M  V30 1722 C 174.576 -0.986889 -1.61422 0
M  V30 1723 O 173.919 0.0298705 -1.83676 0
M  V30 1724 C 173.981 -3.36952 -1.25315 0
M  V30 1725 C 173.645 -4.55679 -0.347248 0
M  V30 1726 C 174.642 -5.18281 0.409996 0
M  V30 1727 C 172.327 -5.0162 -0.261367 0
M  V30 1728 C 174.321 -6.25203 1.24096 0
M  V30 1729 C 172.008 -6.08405 0.573238 0
M  V30 1730 C 173.006 -6.70063 1.32304 0
M  V30 1731 O 172.694 -7.74788 2.14381 0
M  V30 1732 H 172.426 -0.658343 -0.153492 0
M  V30 1733 H 174.98 -2.04532 0.188584 0
M  V30 1734 H 173.21 -3.28032 -2.04773 0
M  V30 1735 H 174.899 -3.62974 -1.81673 0
M  V30 1736 H 175.665 -4.8371 0.353457 0
M  V30 1737 H 171.544 -4.53381 -0.834656 0
M  V30 1738 H 175.088 -6.73259 1.82669 0
M  V30 1739 H 170.985 -6.42406 0.631208 0
M  V30 1740 H 171.753 -7.91837 2.07209 0
M  V30 1741 N 174.416 0.165178 -1.56732 0
M  V30 1742 C 175.827 0.727046 -1.71962 0
M  V30 1743 C 176.178 1.82508 -0.720078 0
M  V30 1744 O 175.303 2.16082 0.117242 0
M  V30 1745 C 175.898 1.32559 -3.11791 0
M  V30 1746 C 174.457 1.83422 -3.28684 0
M  V30 1747 C 173.604 0.715567 -2.67908 0
M  V30 1748 H 176.555 -0.0602896 -1.58585 0
M  V30 1749 H 176.576 2.19533 -3.10782 0
M  V30 1750 H 176.088 0.526195 -3.84516 0
M  V30 1751 H 174.189 2.65986 -2.60926 0
M  V30 1752 H 174.302 1.97543 -4.36478 0
M  V30 1753 H 172.666 1.13758 -2.27884 0
M  V30 1754 H 173.449 -0.0720836 -3.43224 0
M  V30 1755 N 175.894 1.51508 0.433938 0
M  V30 1756 C 177.122 1.68157 1.20543 0
M  V30 1757 C 177.537 0.380362 1.84929 0
M  V30 1758 O 176.894 -0.641446 1.70856 0
M  V30 1759 C 176.945 2.79965 2.28696 0
M  V30 1760 O 176.666 4.05045 1.66943 0
M  V30 1761 C 178.167 3.07912 3.18912 0
M  V30 1762 H 175.387 0.56421 0.363191 0
M  V30 1763 H 177.931 1.97941 0.513754 0
M  V30 1764 H 176.086 2.5277 2.93574 0
M  V30 1765 H 176.5 4.67165 2.38448 0
M  V30 1766 H 177.974 3.89719 3.90926 0
M  V30 1767 H 178.451 2.20456 3.79863 0
M  V30 1768 H 179.057 3.36779 2.59731 0
M  V30 1769 N 177.372 -0.689602 1.41712 0
M  V30 1770 C 178.602 -1.47613 1.44548 0
M  V30 1771 C 179.01 -1.89132 0.0509034 0
M  V30 1772 O 178.353 -1.57741 -0.94146 0
M  V30 1773 C 178.415 -2.76596 2.2964 0
M  V30 1774 C 178.079 -2.57245 3.77722 0
M  V30 1775 C 179.076 -2.22804 4.69739 0
M  V30 1776 C 176.761 -2.727 4.2183 0
M  V30 1777 C 178.755 -2.04064 6.03851 0
M  V30 1778 C 176.442 -2.53576 5.56006 0
M  V30 1779 C 177.44 -2.1931 6.46832 0
M  V30 1780 O 177.128 -2.00359 7.78532 0
M  V30 1781 H 176.86 -0.461227 0.494212 0
M  V30 1782 H 179.414 -0.856045 1.86711 0
M  V30 1783 H 177.644 -3.41033 1.82301 0
M  V30 1784 H 179.333 -3.38424 2.24107 0
M  V30 1785 H 180.099 -2.10473 4.36951 0
M  V30 1786 H 175.978 -2.98353 3.51435 0
M  V30 1787 H 179.522 -1.77241 6.74708 0
M  V30 1788 H 175.419 -2.65499 5.88371 0
M  V30 1789 H 176.187 -2.15075 7.89737 0
M  V30 1790 N 178.85 -1.27639 -0.924453 0
M  V30 1791 C 179.797 -1.10644 -2.0255 0
M  V30 1792 C 180.767 -0.00658438 -1.66099 0
M  V30 1793 O 181.952 -0.16952 -1.90045 0
M  V30 1794 C 179.092 -0.76309 -3.36557 0
M  V30 1795 C 178.205 -1.94091 -3.85944 0
M  V30 1796 C 177.34 -1.53914 -5.08413 0
M  V30 1797 C 176.379 -2.68425 -5.50104 0
M  V30 1798 N 175.516 -2.28815 -6.63768 0
M  V30 1799 H 180.356 -2.04858 -2.16419 0
M  V30 1800 H 177.893 -1.01974 -1.06017 0
M  V30 1801 H 179.851 -0.544822 -4.13627 0
M  V30 1802 H 178.481 0.142102 -3.22487 0
M  V30 1803 H 177.533 -2.27162 -3.05125 0
M  V30 1804 H 178.845 -2.7998 -4.12811 0
M  V30 1805 H 177.999 -1.28231 -5.92994 0
M  V30 1806 H 176.738 -0.651391 -4.8333 0
M  V30 1807 H 175.743 -2.94819 -4.64071 0
M  V30 1808 H 176.968 -3.57826 -5.7718 0
M  V30 1809 H 174.914 -1.42495 -6.40337 0
M  V30 1810 H 174.831 -3.08242 -6.90306 0
M  V30 1811 H 176.099 -2.06387 -7.51681 0
M  V30 1812 N 180.328 1.1314 -1.09713 0
M  V30 1813 C 181.278 2.16709 -0.708593 0
M  V30 1814 C 182.262 1.58471 0.278523 0
M  V30 1815 O 183.454 1.76779 0.088427 0
M  V30 1816 C 180.583 3.43039 -0.133923 0
M  V30 1817 C 179.669 4.08277 -1.14763 0
M  V30 1818 N 180.06 4.48637 -2.33577 0
M  V30 1819 C 178.358 4.34954 -0.986446 0
M  V30 1820 C 179.059 4.9952 -2.98085 0
M  V30 1821 N 178.035 4.94561 -2.25632 0
M  V30 1822 H 181.837 2.45672 -1.61315 0
M  V30 1823 H 179.351 1.29967 -0.973775 0
M  V30 1824 H 181.348 4.16583 0.162465 0
M  V30 1825 H 180.008 3.15549 0.765447 0
M  V30 1826 H 181.019 4.41246 -2.7115 0
M  V30 1827 H 177.696 4.17258 -0.142008 0
M  V30 1828 H 179.086 5.40521 -3.99108 0
M  V30 1829 N 181.806 0.884767 1.30421 0
M  V30 1830 C 183.083 0.423185 1.90967 0
M  V30 1831 C 183.463 -1.09605 1.80416 0
M  V30 1832 O 182.811 -1.93126 1.22125 0
M  V30 1833 C 183.021 0.921056 3.36627 0
M  V30 1834 C 184.369 0.955903 4.137 0
M  V30 1835 O 185.393 0.867706 3.4547 0
M  V30 1836 O 184.252 1.08614 5.35598 0
M  V30 1837 H 181.346 0.129369 0.816819 0
M  V30 1838 H 183.892 0.973653 1.3899 0
M  V30 1839 H 182.664 1.96489 3.3839 0
M  V30 1840 H 182.287 0.349741 3.96059 0
M  V30 1841 N 183.284 -1.43765 0.645699 0
M  V30 1842 C 184.512 -2.06253 0.163556 0
M  V30 1843 C 184.927 -1.48352 -1.16778 0
M  V30 1844 O 184.284 -0.611932 -1.71935 0
M  V30 1845 C 184.335 -3.61453 0.0583186 0
M  V30 1846 O 184.056 -4.172 1.33702 0
M  V30 1847 C 185.557 -4.41002 -0.450795 0
M  V30 1848 H 182.777 -0.665413 0.0864077 0
M  V30 1849 H 185.321 -1.84396 0.884222 0
M  V30 1850 H 183.476 -3.82522 -0.612865 0
M  V30 1851 H 183.89 -5.10791 1.19131 0
M  V30 1852 H 185.364 -5.49966 -0.473403 0
M  V30 1853 H 185.841 -4.13488 -1.48068 0
M  V30 1854 H 186.447 -4.24886 0.187637 0
M  V30 1855 N 184.763 -0.387143 -1.52771 0
M  V30 1856 C 185.988 0.198407 -2.06449 0
M  V30 1857 C 186.413 1.39918 -1.25716 0
M  V30 1858 O 185.771 1.79099 -0.281657 0
M  V30 1859 C 185.819 0.548893 -3.56398 0
M  V30 1860 O 184.923 1.64315 -3.78252 0
M  V30 1861 H 184.264 0.0237731 -0.663574 0
M  V30 1862 H 186.794 -0.553989 -1.96957 0
M  V30 1863 H 186.804 0.813812 -3.99801 0
M  V30 1864 H 185.479 -0.329005 -4.14597 0
M  V30 1865 H 184.056 1.37211 -3.46738 0
M  V30 1866 N 186.241 1.57166 -0.116904 0
M  V30 1867 C 187.518 1.86645 0.585049 0
M  V30 1868 C 187.898 1.0177 1.84949 0
M  V30 1869 O 187.246 0.0960379 2.28298 0
M  V30 1870 C 187.456 3.37736 0.879507 0
M  V30 1871 C 188.804 4.06289 1.23348 0
M  V30 1872 O 189.828 3.42743 0.969836 0
M  V30 1873 O 188.687 5.18455 1.7282 0
M  V30 1874 H 185.781 0.772593 0.295007 0
M  V30 1875 H 188.327 1.69025 -0.151249 0
M  V30 1876 H 187.099 3.91296 -0.0166136 0
M  V30 1877 H 186.722 3.6078 1.67103 0
M  V30 1878 N 187.719 -0.156864 1.56817 0
M  V30 1879 C 188.949 -0.885031 1.86684 0
M  V30 1880 C 189.357 -1.75696 0.701954 0
M  V30 1881 O 188.7 -1.80569 -0.337732 0
M  V30 1882 C 188.762 -1.80092 3.11138 0
M  V30 1883 C 188.426 -1.10714 4.43386 0
M  V30 1884 C 189.423 -0.465714 5.1781 0
M  V30 1885 C 187.108 -1.09959 4.90117 0
M  V30 1886 C 189.102 0.174002 6.37162 0
M  V30 1887 C 186.789 -0.456055 6.09396 0
M  V30 1888 C 187.787 0.179622 6.82764 0
M  V30 1889 O 187.475 0.812975 7.99779 0
M  V30 1890 H 187.207 -0.261813 0.623242 0
M  V30 1891 H 189.761 -0.157383 2.04796 0
M  V30 1892 H 187.991 -2.56926 2.89009 0
M  V30 1893 H 189.68 -2.40018 3.27332 0
M  V30 1894 H 190.446 -0.463427 4.82781 0
M  V30 1895 H 186.325 -1.58378 4.3294 0
M  V30 1896 H 189.869 0.670765 6.94368 0
M  V30 1897 H 185.766 -0.455975 6.43888 0
M  V30 1898 H 186.534 0.71366 8.15383 0
M  V30 1899 N 189.197 -1.51736 -0.425897 0
M  V30 1900 C 190.445 -1.64644 -1.17204 0
M  V30 1901 C 190.766 -0.370486 -1.91448 0
M  V30 1902 O 190.036 0.614088 -1.86026 0
M  V30 1903 H 188.616 -0.606819 -0.435638 0
M  V30 1904 H 191.278 -1.88713 -0.487177 0
M  V30 1905 H 190.374 -2.47958 -1.89534 0
M  V30 1906 N 190.675 0.682077 -1.42076 0
M  V30 1907 C 191.922 1.44215 -1.42156 0
M  V30 1908 C 192.25 1.94468 -0.0354186 0
M  V30 1909 O 191.505 1.70816 0.955002 0
M  V30 1910 C 191.804 2.66036 -2.38662 0
M  V30 1911 C 191.47 2.34366 -3.85206 0
M  V30 1912 C 190.132 2.25439 -4.25124 0
M  V30 1913 C 192.484 2.08513 -4.77673 0
M  V30 1914 C 189.812 1.88775 -5.55501 0
M  V30 1915 C 192.164 1.73354 -6.08384 0
M  V30 1916 C 190.828 1.62933 -6.47309 0
M  V30 1917 H 190.098 0.527718 -0.520187 0
M  V30 1918 H 192.745 0.778387 -1.74967 0
M  V30 1919 H 191.05 3.3741 -1.99152 0
M  V30 1920 H 192.747 3.24205 -2.35991 0
M  V30 1921 H 189.337 2.42213 -3.53597 0
M  V30 1922 H 193.521 2.14346 -4.47626 0
M  V30 1923 H 188.777 1.7927 -5.84527 0
M  V30 1924 H 192.951 1.52373 -6.79526 0
M  V30 1925 H 190.578 1.34292 -7.48244 0
M  V30 1926 N 192.153 1.28127 0.917671 0
M  V30 1927 C 193.378 1.18007 1.70555 0
M  V30 1928 C 193.803 -0.258257 1.86319 0
M  V30 1929 O 193.161 -1.1869 1.37049 0
M  V30 1930 C 193.209 1.87948 3.07746 0
M  V30 1931 O 192.313 1.18427 3.9503 0
M  V30 1932 H 191.654 0.409867 0.522403 0
M  V30 1933 H 194.184 1.69379 1.1477 0
M  V30 1934 H 194.194 1.95701 3.58001 0
M  V30 1935 H 192.869 2.92573 2.95591 0
M  V30 1936 H 191.446 1.18811 3.53466 0
M  V30 1937 N 193.631 -1.12557 1.10312 0
M  V30 1938 C 194.861 -1.87592 0.865617 0
M  V30 1939 C 195.269 -1.79851 -0.587389 0
M  V30 1940 O 194.612 -1.16949 -1.41664 0
M  V30 1941 C 194.674 -3.37665 1.23381 0
M  V30 1942 C 194.338 -3.69181 2.69359 0
M  V30 1943 C 195.335 -3.67652 3.67597 0
M  V30 1944 C 193.02 -3.98555 3.05711 0
M  V30 1945 C 195.014 -3.95053 5.00212 0
M  V30 1946 C 192.701 -4.25616 4.38514 0
M  V30 1947 C 193.699 -4.23851 5.35574 0
M  V30 1948 O 193.387 -4.50242 6.65986 0
M  V30 1949 H 193.119 -0.600442 0.310557 0
M  V30 1950 H 195.673 -1.4335 1.47105 0
M  V30 1951 H 193.903 -3.82454 0.571467 0
M  V30 1952 H 195.592 -3.94041 0.973994 0
M  V30 1953 H 196.358 -3.45024 3.40857 0
M  V30 1954 H 192.237 -3.99071 2.30789 0
M  V30 1955 H 195.781 -3.93591 5.75962 0
M  V30 1956 H 191.678 -4.47718 4.64994 0
M  V30 1957 H 192.446 -4.67867 6.71597 0
M  V30 1958 N 195.109 -0.891671 -1.2995 0
M  V30 1959 C 196.357 -0.512486 -1.95494 0
M  V30 1960 C 196.678 0.942776 -1.70695 0
M  V30 1961 O 195.948 1.66374 -1.03424 0
M  V30 1962 H 194.528 -0.186533 -0.723336 0
M  V30 1963 H 197.19 -1.13621 -1.58355 0
M  V30 1964 H 196.286 -0.688342 -3.04415 0
M  V30 1965 N 196.587 1.43421 -0.653314 0
M  V30 1966 C 197.55 2.29182 0.0287951 0
M  V30 1967 C 198.55 1.42213 0.750465 0
M  V30 1968 O 199.74 1.63843 0.591701 0
M  V30 1969 C 196.872 3.24278 1.05151 0
M  V30 1970 H 198.065 2.90985 -0.725786 0
M  V30 1971 H 195.618 1.50702 -0.414545 0
M  V30 1972 H 196.353 2.6737 1.83532 0
M  V30 1973 H 196.138 3.88396 0.537687 0
M  V30 1974 H 197.628 3.88647 1.52786 0
M  V30 1975 N 198.065 0.39524 1.52563 0
M  V30 1976 C 199.313 -0.184678 2.01254 0
M  V30 1977 C 199.634 -1.46822 1.28329 0
M  V30 1978 O 198.904 -1.91666 0.405094 0
M  V30 1979 H 197.484 -0.0712355 0.743596 0
M  V30 1980 H 200.146 0.528293 1.87603 0
M  V30 1981 H 199.242 -0.390681 3.09645 0
M  V30 1982 N 199.544 -1.57102 0.125237 0
M  V30 1983 C 200.474 -2.18659 -0.819174 0
M  V30 1984 C 201.455 -1.12843 -1.27281 0
M  V30 1985 O 202.64 -1.41104 -1.33429 0
M  V30 1986 C 199.77 -2.79096 -2.06695 0
M  V30 1987 C 198.724 -3.90548 -1.75088 0
M  V30 1988 C 198.05 -4.37821 -3.06948 0
M  V30 1989 C 199.35 -5.12356 -1.01435 0
M  V30 1990 H 201.044 -2.9783 -0.306202 0
M  V30 1991 H 198.59 -1.4326 -0.145839 0
M  V30 1992 H 200.543 -3.2082 -2.73226 0
M  V30 1993 H 199.267 -1.97223 -2.60328 0
M  V30 1994 H 197.926 -3.49409 -1.10944 0
M  V30 1995 H 197.574 -3.52799 -3.58527 0
M  V30 1996 H 197.274 -5.12982 -2.86571 0
M  V30 1997 H 198.798 -4.822 -3.74587 0
M  V30 1998 H 200.212 -5.5106 -1.58132 0
M  V30 1999 H 198.609 -5.9314 -0.911319 0
M  V30 2000 H 199.679 -4.849 -0.00218681 0
M  V30 2001 N 201.022 0.148545 -1.56898 0
M  V30 2002 C 201.954 1.20852 -1.9475 0
M  V30 2003 C 202.967 1.39265 -0.843152 0
M  V30 2004 O 204.156 1.38864 -1.12156 0
M  V30 2005 C 201.256 2.57362 -2.20495 0
M  V30 2006 C 200.429 2.59947 -3.51776 0
M  V30 2007 C 199.488 3.77984 -3.6608 0
M  V30 2008 O 198.514 3.62929 -4.38487 0
M  V30 2009 N 199.716 4.95375 -3.02629 0
M  V30 2010 H 202.481 0.886804 -2.86279 0
M  V30 2011 H 200.042 0.338121 -1.5833 0
M  V30 2012 H 202.034 3.34833 -2.27307 0
M  V30 2013 H 200.604 2.81832 -1.35238 0
M  V30 2014 H 199.824 1.68403 -3.56419 0
M  V30 2015 H 201.112 2.58704 -4.38121 0
M  V30 2016 H 200.51 5.10509 -2.43715 0
M  V30 2017 H 199.067 5.70627 -3.15004 0
M  V30 2018 N 202.5 1.5196 0.417844 0
M  V30 2019 C 203.747 1.65591 1.16559 0
M  V30 2020 C 204.075 0.381565 1.90721 0
M  V30 2021 O 203.33 -0.635156 1.85106 0
M  V30 2022 C 203.629 2.82269 2.19223 0
M  V30 2023 C 203.295 4.20819 1.61933 0
M  V30 2024 C 201.957 4.58506 1.46033 0
M  V30 2025 C 204.309 5.07196 1.20008 0
M  V30 2026 C 201.637 5.80257 0.867113 0
M  V30 2027 C 203.989 6.29544 0.621086 0
M  V30 2028 C 202.653 6.65987 0.449144 0
M  V30 2029 H 201.923 0.605939 0.42652 0
M  V30 2030 H 204.57 1.86041 0.45397 0
M  V30 2031 H 202.875 2.56118 2.96498 0
M  V30 2032 H 204.572 2.90012 2.76936 0
M  V30 2033 H 201.162 3.91116 1.7529 0
M  V30 2034 H 205.346 4.7867 1.31105 0
M  V30 2035 H 200.602 6.07124 0.721833 0
M  V30 2036 H 204.776 6.95805 0.287798 0
M  V30 2037 H 202.403 7.60199 -0.012632 0
M  V30 2038 N 203.978 -0.674533 1.42435 0
M  V30 2039 C 204.926 -1.80934 1.46169 0
M  V30 2040 C 205.92 -1.66006 0.3374 0
M  V30 2041 O 207.126 -1.72611 0.510425 0
M  V30 2042 H 203.501 -0.596594 0.457798 0
M  V30 2043 H 205.472 -1.74903 2.41767 0
M  V30 2044 C 204.221 -3.19088 1.38123 0
M  V30 2045 H 203.544 -3.31203 2.23931 0
M  V30 2046 H 204.984 -3.9851 1.44797 0
M  V30 2047 C 203.443 -3.36763 0.0960517 0
M  V30 2048 O 203.973 -3.92581 -0.851073 0
M  V30 2049 N 202.179 -2.90597 0.0131186 0
M  V30 2050 H 201.726 -2.45359 0.784639 0
M  V30 2051 H 201.684 -3.028 -0.846133 0
M  V30 2052 N 205.456 -1.28612 -0.910864 0
M  V30 2053 C 206.867 -1.14406 -1.47541 0
M  V30 2054 C 207.218 0.264901 -1.94403 0
M  V30 2055 O 206.343 1.15942 -1.82719 0
M  V30 2056 C 206.938 -2.07073 -2.68153 0
M  V30 2057 C 205.497 -1.96923 -3.20778 0
M  V30 2058 C 204.644 -1.98646 -1.93481 0
M  V30 2059 H 207.595 -1.41259 -0.723291 0
M  V30 2060 H 207.616 -1.63642 -3.43514 0
M  V30 2061 H 207.128 -3.09611 -2.34015 0
M  V30 2062 H 205.229 -0.97433 -3.59635 0
M  V30 2063 H 205.342 -2.84026 -3.85832 0
M  V30 2064 H 203.706 -1.43093 -2.10705 0
M  V30 2065 H 204.489 -3.02868 -1.61634 0
M  V30 2066 N 206.934 1.1197 -1.10907 0
M  V30 2067 C 207.867 2.16998 -0.706192 0
M  V30 2068 C 208.845 1.59903 0.294897 0
M  V30 2069 O 210.029 1.87513 0.192636 0
M  V30 2070 C 207.156 3.38673 -0.0427664 0
M  V30 2071 C 206.202 4.14414 -1.00811 0
M  V30 2072 S 207.035 4.72079 -2.52789 0
M  V30 2073 C 208.191 5.97083 -1.87731 0
M  V30 2074 H 208.424 2.50837 -1.59587 0
M  V30 2075 H 205.957 1.23508 -0.926555 0
M  V30 2076 H 207.915 4.09142 0.333668 0
M  V30 2077 H 206.576 3.03105 0.823788 0
M  V30 2078 H 205.769 5.016 -0.491259 0
M  V30 2079 H 205.371 3.49678 -1.3267 0
M  V30 2080 H 207.663 6.66599 -1.21044 0
M  V30 2081 H 208.606 6.53403 -2.72892 0
M  V30 2082 H 209.014 5.4837 -1.33979 0
M  V30 2083 N 208.412 0.89855 1.29475 0
M  V30 2084 C 209.322 0.379974 2.31502 0
M  V30 2085 C 210.338 -0.524695 1.659 0
M  V30 2086 O 211.514 -0.414551 1.97087 0
M  V30 2087 C 208.579 -0.385138 3.44554 0
M  V30 2088 C 207.64 0.550914 4.2575 0
M  V30 2089 C 206.873 -0.177778 5.33404 0
M  V30 2090 O 207.096 -1.40189 5.52904 0
M  V30 2091 O 206.03 0.479106 5.9999 0
M  V30 2092 H 209.856 1.22639 2.77837 0
M  V30 2093 H 207.441 0.662834 1.33891 0
M  V30 2094 H 209.323 -0.817841 4.13388 0
M  V30 2095 H 207.998 -1.20763 3.0033 0
M  V30 2096 H 206.905 1.03271 3.59564 0
M  V30 2097 H 208.238 1.33979 4.73614 0
M  V30 2098 N 209.89 -1.43072 0.660911 0
M  V30 2099 C 210.838 -2.32569 -0.0378199 0
M  V30 2100 C 211.832 -1.49046 -0.805092 0
M  V30 2101 O 213.038 -1.65206 -0.714624 0
M  V30 2102 H 209.413 -0.75136 -0.031019 0
M  V30 2103 H 211.384 -2.89216 0.734609 0
M  V30 2104 C 210.133 -3.33453 -0.985124 0
M  V30 2105 H 209.456 -3.97752 -0.404147 0
M  V30 2106 H 210.896 -3.98691 -1.44297 0
M  V30 2107 C 209.355 -2.64642 -2.08486 0
M  V30 2108 O 209.885 -2.46776 -3.16961 0
M  V30 2109 N 208.091 -2.23891 -1.8526 0
M  V30 2110 H 207.638 -2.38621 -0.970449 0
M  V30 2111 H 207.596 -1.78181 -2.59034 0
M  V30 2112 N 211.368 -0.403325 -1.52352 0
M  V30 2113 C 212.614 0.174605 -2.02047 0
M  V30 2114 C 212.947 1.45282 -1.28867 0
M  V30 2115 O 212.222 1.90483 -0.393257 0
M  V30 2116 C 212.505 0.428238 -3.57545 0
M  V30 2117 C 212.358 -0.866248 -4.4138 0
M  V30 2118 C 213.677 1.21287 -4.23057 0
M  V30 2119 H 210.796 0.0619851 -0.734389 0
M  V30 2120 H 213.438 -0.53565 -1.82293 0
M  V30 2121 H 211.588 1.03327 -3.74507 0
M  V30 2122 H 213.26 -1.50265 -4.3614 0
M  V30 2123 H 211.503 -1.47851 -4.07827 0
M  V30 2124 H 212.174 -0.643249 -5.48239 0
M  V30 2125 H 214.65 0.700703 -4.10158 0
M  V30 2126 H 213.526 1.35909 -5.31808 0
M  V30 2127 H 213.787 2.23193 -3.81625 0
M  V30 2128 N 212.846 1.57033 -0.133567 0
M  V30 2129 C 213.809 2.14897 0.796995 0
M  V30 2130 C 214.809 1.0874 1.18458 0
M  V30 2131 O 215.999 1.34446 1.1077 0
M  V30 2132 C 213.131 2.70112 2.07973 0
M  V30 2133 H 214.324 2.98457 0.293873 0
M  V30 2134 H 211.877 1.55871 0.115787 0
M  V30 2135 H 212.612 1.9018 2.62682 0
M  V30 2136 H 212.397 3.47764 1.81115 0
M  V30 2137 H 213.887 3.14738 2.74462 0
M  V30 2138 N 214.325 -0.140222 1.56975 0
M  V30 2139 C 215.255 -1.17456 2.01808 0
M  V30 2140 C 216.236 -1.44415 0.898794 0
M  V30 2141 O 217.421 -1.5522 1.16707 0
M  V30 2142 C 214.551 -2.50607 2.40444 0
M  V30 2143 C 213.505 -2.38155 3.55621 0
M  V30 2144 C 212.831 -3.76078 3.80091 0
M  V30 2145 C 214.131 -1.85991 4.88062 0
M  V30 2146 H 215.825 -0.801743 2.88466 0
M  V30 2147 H 213.371 -0.38422 1.38779 0
M  V30 2148 H 215.324 -3.23197 2.7041 0
M  V30 2149 H 214.048 -2.89737 1.50732 0
M  V30 2150 H 212.707 -1.68016 3.25832 0
M  V30 2151 H 212.355 -4.12656 2.87618 0
M  V30 2152 H 212.055 -3.68606 4.57606 0
M  V30 2153 H 213.579 -4.50206 4.12488 0
M  V30 2154 H 214.993 -2.4838 5.16701 0
M  V30 2155 H 213.39 -1.89393 5.6943 0
M  V30 2156 H 214.46 -0.816023 4.77984 0
M  V30 2157 N 215.803 -1.52179 -0.40978 0
M  V30 2158 C 217.08 -1.56769 -1.16974 0
M  V30 2159 C 217.46 -0.348322 -2.08206 0
M  V30 2160 O 216.808 0.664862 -2.18613 0
M  V30 2161 C 217.018 -2.89603 -1.9476 0
M  V30 2162 C 218.366 -3.42579 -2.50849 0
M  V30 2163 O 219.39 -2.91338 -2.04941 0
M  V30 2164 O 218.249 -4.32054 -3.34652 0
M  V30 2165 H 215.343 -0.631439 -0.534054 0
M  V30 2166 H 217.889 -1.64507 -0.416613 0
M  V30 2167 H 216.661 -3.698 -1.27921 0
M  V30 2168 H 216.284 -2.85155 -2.77079 0
M  V30 2169 N 217.281 0.66697 -1.42791 0
M  V30 2170 C 218.528 1.42699 -1.43678 0
M  V30 2171 C 218.856 1.94419 -0.0560425 0
M  V30 2172 O 218.111 1.7182 0.936831 0
M  V30 2173 C 218.41 2.6349 -2.4147 0
M  V30 2174 C 218.076 2.30267 -3.8767 0
M  V30 2175 C 216.738 2.20918 -4.27491 0
M  V30 2176 C 219.09 2.03435 -4.79858 0
M  V30 2177 C 216.418 1.82873 -5.57471 0
M  V30 2178 C 218.77 1.66892 -6.10188 0
M  V30 2179 C 217.434 1.56058 -6.49001 0
M  V30 2180 H 216.704 0.522171 -0.525755 0
M  V30 2181 H 219.351 0.759785 -1.75783 0
M  V30 2182 H 217.656 3.35279 -2.0272 0
M  V30 2183 H 219.353 3.21684 -2.39417 0
M  V30 2184 H 215.943 2.38449 -3.56146 0
M  V30 2185 H 220.127 2.09586 -4.49875 0
M  V30 2186 H 215.383 1.7306 -5.86396 0
M  V30 2187 H 219.557 1.45157 -6.81104 0
M  V30 2188 H 217.184 1.26348 -7.49627 0
M  V30 2189 N 218.759 1.29093 0.90403 0
M  V30 2190 C 219.984 1.19809 1.69294 0
M  V30 2191 C 220.409 -0.238481 1.86582 0
M  V30 2192 O 219.767 -1.1723 1.383 0
M  V30 2193 C 219.815 1.91202 3.05736 0
M  V30 2194 O 218.919 1.22611 3.93752 0
M  V30 2195 H 218.26 0.415385 0.518027 0
M  V30 2196 H 220.79 1.70586 1.12967 0
M  V30 2197 H 220.8 1.99487 3.55906 0
M  V30 2198 H 219.475 2.95692 2.92471 0
M  V30 2199 H 218.052 1.22554 3.52186 0
M  V30 2200 N 220.237 -1.11381 1.11499 0
M  V30 2201 C 221.467 -1.86663 0.885464 0
M  V30 2202 C 221.875 -1.80464 -0.568281 0
M  V30 2203 O 221.218 -1.18445 -1.40415 0
M  V30 2204 C 221.28 -3.36337 1.26956 0
M  V30 2205 C 220.944 -3.66304 2.73259 0
M  V30 2206 C 221.941 -3.63733 3.71476 0
M  V30 2207 C 219.626 -3.9529 3.09921 0
M  V30 2208 C 221.62 -3.89725 5.04374 0
M  V30 2209 C 219.307 -4.20941 4.43004 0
M  V30 2210 C 220.305 -4.18147 5.40039 0
M  V30 2211 O 219.993 -4.43153 6.70724 0
M  V30 2212 H 219.725 -0.597114 0.316908 0
M  V30 2213 H 222.279 -1.41782 1.48617 0
M  V30 2214 H 220.509 -3.81826 0.611999 0
M  V30 2215 H 222.198 -3.92986 1.01573 0
M  V30 2216 H 222.964 -3.41389 3.44498 0
M  V30 2217 H 218.843 -3.966 2.35009 0
M  V30 2218 H 222.387 -3.8746 5.80104 0
M  V30 2219 H 218.284 -4.42761 4.69716 0
M  V30 2220 H 219.052 -4.60717 6.76522 0
M  V30 2221 N 221.715 -0.905404 -1.28997 0
M  V30 2222 C 222.625 -0.392246 -2.31298 0
M  V30 2223 C 223.641 0.515889 -1.66176 0
M  V30 2224 O 224.817 0.404093 -1.97304 0
M  V30 2225 C 221.882 0.36686 -3.44754 0
M  V30 2226 C 220.943 -0.573485 -4.25452 0
M  V30 2227 C 220.176 0.149488 -5.33491 0
M  V30 2228 O 220.399 1.37255 -5.5364 0
M  V30 2229 O 219.333 -0.510919 -5.99728 0
M  V30 2230 H 223.159 -1.2411 -2.77183 0
M  V30 2231 H 220.744 -0.669926 -1.33538 0
M  V30 2232 H 222.626 0.795907 -4.13816 0
M  V30 2233 H 221.301 1.19169 -3.00966 0
M  V30 2234 H 220.208 -1.05176 -3.59011 0
M  V30 2235 H 221.541 -1.36489 -4.72897 0
M  V30 2236 N 223.193 1.4272 -0.668489 0
M  V30 2237 C 224.125 2.2914 0.052613 0
M  V30 2238 C 225.138 1.43339 0.771857 0
M  V30 2239 O 226.327 1.67123 0.627067 0
M  V30 2240 C 223.427 3.20618 1.09804 0
M  V30 2241 C 222.6 4.35039 0.45389 0
M  V30 2242 C 221.659 5.07282 1.39825 0
M  V30 2243 O 220.685 5.62024 0.900978 0
M  V30 2244 N 221.887 5.12206 2.73176 0
M  V30 2245 H 224.652 2.91668 -0.689209 0
M  V30 2246 H 222.213 1.53577 -0.512422 0
M  V30 2247 H 224.205 3.65815 1.73094 0
M  V30 2248 H 222.775 2.59585 1.74167 0
M  V30 2249 H 221.995 3.92567 -0.358396 0
M  V30 2250 H 223.283 5.088 0.00486972 0
M  V30 2251 H 222.681 4.6913 3.16122 0
M  V30 2252 H 221.238 5.61069 3.31729 0
M  V30 2253 N 224.671 0.411399 1.52136 0
M  V30 2254 C 225.896 -0.165538 2.06738 0
M  V30 2255 C 226.321 -1.379 1.27926 0
M  V30 2256 O 225.679 -1.78628 0.310114 0
M  V30 2257 C 225.727 -0.492124 3.57226 0
M  V30 2258 O 224.831 -1.58276 3.80818 0
M  V30 2259 H 224.172 -0.0132132 0.663869 0
M  V30 2260 H 226.702 0.585253 1.96051 0
M  V30 2261 H 226.712 -0.750104 4.01045 0
M  V30 2262 H 225.387 0.394922 4.14021 0
M  V30 2263 H 223.964 -1.31677 3.48877 0
M  V30 2264 N 226.149 -1.5696 0.141893 0
M  V30 2265 C 227.565 -1.58151 -0.21456 0
M  V30 2266 C 227.765 -1.1559 -1.65049 0
M  V30 2267 O 226.821 -0.853832 -2.37626 0
M  V30 2268 C 228.134 -3.00674 0.0395576 0
M  V30 2269 C 229.682 -3.1299 -0.0245529 0
M  V30 2270 C 230.157 -4.57554 0.202167 0
M  V30 2271 N 231.648 -4.62961 0.148919 0
M  V30 2272 C 232.383 -5.7262 0.298924 0
M  V30 2273 N 231.879 -6.90947 0.50637 0
M  V30 2274 N 233.672 -5.61601 0.236886 0
M  V30 2275 H 225.823 -1.8292 1.07953 0
M  V30 2276 H 228.086 -0.846425 0.42693 0
M  V30 2277 H 227.792 -3.36183 1.03315 0
M  V30 2278 H 227.666 -3.70981 -0.682143 0
M  V30 2279 H 230.053 -2.77326 -1.00869 0
M  V30 2280 H 230.134 -2.4518 0.729396 0
M  V30 2281 H 229.778 -4.93922 1.18338 0
M  V30 2282 H 229.708 -5.23484 -0.572044 0
M  V30 2283 H 232.199 -3.77899 -0.00697015 0
M  V30 2284 H 232.512 -7.7038 0.611076 0
M  V30 2285 H 230.857 -6.92878 0.542628 0
M  V30 2286 H 234.048 -4.68039 0.0756209 0
M  V30 2287 H 234.221 -6.47015 0.357227 0
M  V30 2288 N 227.627 0.131896 -1.57047 0
M  V30 2289 C 228.876 0.84044 -1.83356 0
M  V30 2290 C 229.189 1.81646 -0.725535 0
M  V30 2291 O 230.395 2.57025 -0.874659 0
M  V30 2292 C 228.851 1.54528 -3.25037 0
M  V30 2293 C 228.459 0.610902 -4.43815 0
M  V30 2294 C 230.203 2.23972 -3.60606 0
M  V30 2295 C 228.11 1.31823 -5.76521 0
M  V30 2296 H 227.04 0.317599 -0.683847 0
M  V30 2297 H 229.691 0.0931561 -1.83263 0
M  V30 2298 H 228.073 2.33873 -3.19561 0
M  V30 2299 H 229.247 -0.148407 -4.60561 0
M  V30 2300 H 227.562 0.0241016 -4.16393 0
M  V30 2301 H 230.159 2.77558 -4.57018 0
M  V30 2302 H 230.502 3.01173 -2.87403 0
M  V30 2303 H 231.035 1.51529 -3.6781 0
M  V30 2304 H 227.774 0.587771 -6.52859 0
M  V30 2305 H 227.294 2.04987 -5.63685 0
M  V30 2306 H 228.973 1.855 -6.19838 0
M  V30 2307 N 229.106 1.52395 0.401703 0
M  V30 2308 C 230.522 1.41363 0.740864 0
M  V30 2309 C 230.722 0.523982 1.94568 0
M  V30 2310 O 229.778 -0.00741204 2.52499 0
M  V30 2311 C 231.091 2.84011 0.987847 0
M  V30 2312 C 232.639 2.93404 1.09011 0
M  V30 2313 C 233.114 4.37036 1.3698 0
M  V30 2314 N 234.605 4.40304 1.43829 0
M  V30 2315 C 235.34 5.48508 1.67112 0
M  V30 2316 N 234.836 6.66819 1.87949 0
M  V30 2317 N 236.629 5.36034 1.69187 0
M  V30 2318 H 228.78 2.08765 -0.391262 0
M  V30 2319 H 231.043 0.941265 -0.112798 0
M  V30 2320 H 230.749 3.51265 0.174835 0
M  V30 2321 H 230.623 3.25502 1.906 0
M  V30 2322 H 233.01 2.26325 1.8937 0
M  V30 2323 H 233.091 2.55359 0.15015 0
M  V30 2324 H 232.735 5.04676 0.571353 0
M  V30 2325 H 232.665 4.72623 2.3224 0
M  V30 2326 H 235.156 3.55024 1.29486 0
M  V30 2327 H 235.469 7.45063 2.05185 0
M  V30 2328 H 233.814 6.6987 1.85199 0
M  V30 2329 H 237.005 4.42579 1.52451 0
M  V30 2330 H 237.178 6.20434 1.86993 0
M  V30 2331 N 230.584 -0.659388 1.43143 0
M  V30 2332 C 231.809 -1.45221 1.48073 0
M  V30 2333 C 232.234 -1.87845 0.097995 0
M  V30 2334 O 231.592 -1.56985 -0.90694 0
M  V30 2335 C 231.64 -2.66748 2.42647 0
M  V30 2336 O 230.744 -3.65583 1.90848 0
M  V30 2337 H 230.085 -0.435669 0.501088 0
M  V30 2338 H 232.615 -0.807432 1.87994 0
M  V30 2339 H 232.625 -3.14637 2.59745 0
M  V30 2340 H 231.3 -2.35067 3.43098 0
M  V30 2341 H 229.877 -3.24693 1.83381 0
M  V30 2342 N 232.062 -1.29571 -0.897171 0
M  V30 2343 C 233.308 -1.17863 -1.65034 0
M  V30 2344 C 233.641 0.268729 -1.92332 0
M  V30 2345 O 232.916 1.19378 -1.53555 0
M  V30 2346 C 233.199 -1.995 -2.99786 0
M  V30 2347 C 233.052 -3.5239 -2.79538 0
M  V30 2348 C 234.371 -1.82335 -4.00552 0
M  V30 2349 H 231.49 -0.429528 -0.598895 0
M  V30 2350 H 234.132 -1.59072 -1.03905 0
M  V30 2351 H 232.282 -1.64485 -3.51962 0
M  V30 2352 H 233.954 -3.97401 -2.34244 0
M  V30 2353 H 232.197 -3.77187 -2.14273 0
M  V30 2354 H 232.868 -4.04787 -3.75302 0
M  V30 2355 H 235.344 -2.12924 -3.57495 0
M  V30 2356 H 234.22 -2.41801 -4.92771 0
M  V30 2357 H 234.481 -0.779209 -4.35179 0
M  V30 2358 N 233.54 1.10788 -1.12088 0
M  V30 2359 C 234.817 1.79136 -0.785476 0
M  V30 2360 C 235.197 1.98246 0.725377 0
M  V30 2361 O 234.545 1.57258 1.65778 0
M  V30 2362 C 234.755 3.12375 -1.55636 0
M  V30 2363 C 236.103 3.8731 -1.74001 0
M  V30 2364 O 237.127 3.22085 -1.52117 0
M  V30 2365 O 235.986 5.04369 -2.10415 0
M  V30 2366 H 233.08 0.776226 -0.285311 0
M  V30 2367 H 235.626 1.1747 -1.2247 0
M  V30 2368 H 234.398 2.93863 -2.5838 0
M  V30 2369 H 234.021 3.81758 -1.11114 0
M  V30 2370 N 235.018 0.912232 1.28515 0
M  V30 2371 C 236.264 0.545405 1.95328 0
M  V30 2372 C 236.597 -0.908313 1.71649 0
M  V30 2373 O 235.872 -1.64575 1.03659 0
M  V30 2374 C 236.155 0.853483 3.4984 0
M  V30 2375 C 236.008 2.35982 3.82926 0
M  V30 2376 C 237.327 0.348589 4.38717 0
M  V30 2377 H 234.446 0.199626 0.709449 0
M  V30 2378 H 237.088 1.1412 1.5191 0
M  V30 2379 H 235.238 0.34643 3.86952 0
M  V30 2380 H 236.91 2.93738 3.55691 0
M  V30 2381 H 235.153 2.81543 3.30024 0
M  V30 2382 H 235.824 2.52593 4.90816 0
M  V30 2383 H 238.3 0.78294 4.08668 0
M  V30 2384 H 237.176 0.593242 5.45685 0
M  V30 2385 H 237.437 -0.751049 4.35674 0
M  V30 2386 N 236.496 -1.42363 0.676048 0
M  V30 2387 C 237.744 -2.01123 0.198437 0
M  V30 2388 C 238.065 -1.53731 -1.19966 0
M  V30 2389 O 237.335 -0.759518 -1.80577 0
M  V30 2390 H 235.915 -0.743678 0.0703721 0
M  V30 2391 H 238.577 -1.74263 0.872837 0
M  V30 2392 H 237.673 -3.11454 0.200686 0
M  V30 2393 N 237.974 -0.419461 -1.51915 0
M  V30 2394 C 239.202 0.152136 -2.0634 0
M  V30 2395 C 239.617 1.37988 -1.28859 0
M  V30 2396 O 238.974 1.79243 -0.343232 0
M  V30 2397 C 239.025 0.492266 -3.58133 0
M  V30 2398 O 238.746 -0.686736 -4.32684 0
M  V30 2399 C 240.247 1.11648 -4.2901 0
M  V30 2400 H 237.467 0.0158325 -0.670813 0
M  V30 2401 H 240.011 -0.593394 -1.95702 0
M  V30 2402 H 238.166 1.18769 -3.68745 0
M  V30 2403 H 238.58 -0.400341 -5.2297 0
M  V30 2404 H 240.054 1.3046 -5.36362 0
M  V30 2405 H 240.531 2.09251 -3.86148 0
M  V30 2406 H 241.137 0.460958 -4.22795 0
M  V30 2407 N 239.452 1.56882 -0.150215 0
M  V30 2408 C 240.698 1.97299 0.494427 0
M  V30 2409 C 241.053 1.0338 1.62266 0
M  V30 2410 O 240.346 0.0694497 1.91474 0
M  V30 2411 C 240.54 3.41801 1.04437 0
M  V30 2412 C 240.369 4.49691 -0.0290451 0
M  V30 2413 C 239.139 5.03095 -0.47156 0
M  V30 2414 C 241.337 5.07693 -0.821703 0
M  V30 2415 N 239.319 5.94593 -1.52749 0
M  V30 2416 C 240.69 5.95431 -1.72805 0
M  V30 2417 C 242.745 4.90256 -0.869134 0
M  V30 2418 C 241.448 6.67599 -2.67777 0
M  V30 2419 C 243.474 5.63127 -1.8067 0
M  V30 2420 C 242.836 6.50576 -2.70057 0
M  V30 2421 H 238.935 0.76755 0.149639 0
M  V30 2422 H 241.519 1.93145 -0.24556 0
M  V30 2423 H 239.69 3.46541 1.75396 0
M  V30 2424 H 241.422 3.69272 1.6559 0
M  V30 2425 H 238.177 4.73543 -0.0732101 0
M  V30 2426 H 238.601 6.45047 -2.05531 0
M  V30 2427 H 243.243 4.22363 -0.192134 0
M  V30 2428 H 240.961 7.34717 -3.36476 0
M  V30 2429 H 244.547 5.51629 -1.84924 0
M  V30 2430 H 243.427 7.05974 -3.41424 0
M  V30 2431 N 240.93 -0.123565 1.57115 0
M  V30 2432 C 242.179 -0.830704 1.83799 0
M  V30 2433 C 242.492 -1.81259 0.735158 0
M  V30 2434 O 243.698 -2.56558 0.888278 0
M  V30 2435 C 242.154 -1.52802 3.25852 0
M  V30 2436 C 241.762 -0.587356 4.44133 0
M  V30 2437 C 243.506 -2.22056 3.61789 0
M  V30 2438 C 241.413 -1.28764 5.77212 0
M  V30 2439 H 240.343 -0.313967 0.685522 0
M  V30 2440 H 242.994 -0.0834359 1.8331 0
M  V30 2441 H 241.376 -2.32175 3.20797 0
M  V30 2442 H 242.55 0.172829 4.60476 0
M  V30 2443 H 240.865 -0.00201892 4.164 0
M  V30 2444 H 243.462 -2.75131 4.58483 0
M  V30 2445 H 243.805 -2.99644 2.88997 0
M  V30 2446 H 244.338 -1.49576 3.68608 0
M  V30 2447 H 241.077 -0.55314 6.53162 0
M  V30 2448 H 240.597 -2.01995 5.64764 0
M  V30 2449 H 242.276 -1.8221 6.20813 0
M  V30 2450 N 242.408 -1.52605 -0.393616 0
M  V30 2451 C 243.371 -1.76415 -1.46323 0
M  V30 2452 C 244.371 -0.634126 -1.47768 0
M  V30 2453 O 245.561 -0.902142 -1.4902 0
M  V30 2454 C 242.693 -1.8607 -2.85641 0
M  V30 2455 H 243.886 -2.71916 -1.26498 0
M  V30 2456 H 241.439 -1.43257 -0.625073 0
M  V30 2457 H 242.174 -0.925378 -3.10817 0
M  V30 2458 H 241.959 -2.68235 -2.85993 0
M  V30 2459 H 243.449 -2.06179 -3.63153 0
M  V30 2460 N 243.887 0.651787 -1.4349 0
M  V30 2461 C 245.135 1.40888 -1.44897 0
M  V30 2462 C 245.456 1.94856 -0.0749086 0
M  V30 2463 O 244.726 1.74518 0.889956 0
M  V30 2464 H 243.306 0.522887 -0.533478 0
M  V30 2465 H 245.968 0.768609 -1.79104 0
M  V30 2466 H 245.064 2.25052 -2.16236 0
M  V30 2467 N 245.365 1.30045 0.890287 0
M  V30 2468 C 246.611 1.18737 1.64406 0
M  V30 2469 C 246.944 -0.258525 1.92472 0
M  V30 2470 O 246.219 -1.18562 1.54186 0
M  V30 2471 C 246.502 2.01087 2.98724 0
M  V30 2472 C 246.355 3.53867 2.77665 0
M  V30 2473 C 247.674 1.84457 3.9958 0
M  V30 2474 H 244.793 0.432698 0.596608 0
M  V30 2475 H 247.435 1.5962 1.0306 0
M  V30 2476 H 245.585 1.66349 3.51084 0
M  V30 2477 H 247.257 3.98637 2.32133 0
M  V30 2478 H 245.5 3.78318 2.12269 0
M  V30 2479 H 246.171 4.06772 3.7315 0
M  V30 2480 H 248.647 2.14817 3.56361 0
M  V30 2481 H 247.523 2.44411 4.91482 0
M  V30 2482 H 247.784 0.802276 4.3476 0
M  V30 2483 N 246.843 -1.10192 1.12674 0
M  V30 2484 C 248.091 -1.81845 0.881861 0
M  V30 2485 C 248.412 -1.85737 -0.593867 0
M  V30 2486 O 247.682 -1.33724 -1.4316 0
M  V30 2487 H 246.262 -0.673432 0.323261 0
M  V30 2488 H 248.924 -1.33316 1.42172 0
M  V30 2489 H 248.02 -2.85288 1.2656 0
M  V30 2490 N 248.321 -0.919034 -1.28029 0
M  V30 2491 C 249.551 -0.570143 -1.98577 0
M  V30 2492 C 249.959 0.854172 -1.68821 0
M  V30 2493 O 249.302 1.57807 -0.940351 0
M  V30 2494 C 249.364 -0.705734 -3.52505 0
M  V30 2495 C 249.028 -2.10057 -4.05863 0
M  V30 2496 C 250.025 -3.07385 -4.19298 0
M  V30 2497 C 247.71 -2.41517 -4.40426 0
M  V30 2498 C 249.704 -4.34287 -4.66555 0
M  V30 2499 C 247.391 -3.68657 -4.87376 0
M  V30 2500 C 248.389 -4.64856 -5.00398 0
M  V30 2501 O 248.077 -5.89735 -5.46322 0
M  V30 2502 H 247.809 -0.215592 -0.6407 0
M  V30 2503 H 250.363 -1.23583 -1.64062 0
M  V30 2504 H 248.593 0.0170414 -3.86696 0
M  V30 2505 H 250.282 -0.363172 -4.04272 0
M  V30 2506 H 251.048 -2.84398 -3.92865 0
M  V30 2507 H 246.927 -1.67389 -4.29537 0
M  V30 2508 H 250.471 -5.09377 -4.76635 0
M  V30 2509 H 246.368 -3.91466 -5.13249 0
M  V30 2510 H 247.136 -5.92599 -5.64596 0
M  V30 2511 N 249.799 1.42003 -0.683588 0
M  V30 2512 C 251.215 1.55625 -0.353976 0
M  V30 2513 C 251.415 1.66151 1.14 0
M  V30 2514 O 250.471 1.63329 1.92561 0
M  V30 2515 C 251.784 2.80171 -1.092 0
M  V30 2516 C 253.332 2.93954 -1.07518 0
M  V30 2517 C 253.807 4.21372 -1.79471 0
M  V30 2518 N 255.298 4.28303 -1.76381 0
M  V30 2519 C 256.033 5.25729 -2.28904 0
M  V30 2520 N 255.529 6.29254 -2.89846 0
M  V30 2521 N 257.322 5.17586 -2.19228 0
M  V30 2522 H 249.473 1.33415 -1.6527 0
M  V30 2523 H 251.736 0.64282 -0.696769 0
M  V30 2524 H 251.442 2.78561 -2.14701 0
M  V30 2525 H 251.316 3.7133 -0.662862 0
M  V30 2526 H 253.703 2.95086 -0.028475 0
M  V30 2527 H 253.784 2.04002 -1.54328 0
M  V30 2528 H 253.428 4.21001 -2.84114 0
M  V30 2529 H 253.358 5.10275 -1.30104 0
M  V30 2530 H 255.849 3.54119 -1.31939 0
M  V30 2531 H 256.162 6.99964 -3.27522 0
M  V30 2532 H 254.507 6.29791 -2.93919 0
M  V30 2533 H 257.698 4.35631 -1.71299 0
M  V30 2534 H 257.871 5.93348 -2.60466 0
M  V30 2535 N 251.277 0.427512 1.51691 0
M  V30 2536 C 252.524 -0.142229 2.02 0
M  V30 2537 C 252.852 -1.43566 1.31221 0
M  V30 2538 O 252.107 -1.91298 0.412744 0
M  V30 2539 C 252.406 -0.418249 3.54944 0
M  V30 2540 C 252.072 0.788187 4.43958 0
M  V30 2541 C 250.734 1.11906 4.68007 0
M  V30 2542 C 253.086 1.59347 4.96244 0
M  V30 2543 C 250.414 2.25608 5.41588 0
M  V30 2544 C 252.766 2.7214 5.71072 0
M  V30 2545 C 251.43 3.05692 5.93387 0
M  V30 2546 H 250.7 -0.0520451 0.73917 0
M  V30 2547 H 253.347 0.572697 1.82736 0
M  V30 2548 H 251.652 -1.21496 3.72486 0
M  V30 2549 H 253.349 -0.872339 3.91397 0
M  V30 2550 H 249.939 0.520344 4.2543 0
M  V30 2551 H 254.123 1.35106 4.77556 0
M  V30 2552 H 249.379 2.51929 5.57083 0
M  V30 2553 H 253.553 3.34914 6.10578 0
M  V30 2554 H 251.18 3.9391 6.50184 0
M  V30 2555 O 252.794 -1.58699 0.299458 0
M  V30 2556 H 253.485 -1.91872 -0.265495 0
M  V30 END ATOM
M  V30 BEGIN BOND
M  V30 END BOND
M  V30 END CTAB
M  END
$$$$
