drugbank_target|P0A9J8 P-protein (DB08648)
 OpenBabel12092120513D

  0  0  0     0  0            999 V3000
M  V30 BEGIN CTAB
M  V30 COUNTS 6093 6148 0 0 0
M  V30 BEGIN ATOM
M  V30 1 H -0.908 1.98254 -0.117106 0
M  V30 2 N 0 1.576 0 0
M  V30 3 C 0.933 2.03868 1.02534 0
M  V30 4 C 1.911 0.928543 1.3348 0
M  V30 5 O 3.095 1.19667 1.45644 0
M  V30 6 C 0.222 2.43627 2.35294 0
M  V30 7 C -0.732 3.65373 2.2001 0
M  V30 8 S 0.101 5.13292 1.52614 0
M  V30 9 C 1.257 5.56322 2.86805 0
M  V30 10 H 1.49 2.90518 0.631377 0
M  V30 11 H -0.977 1.52953 0.210867 0
M  V30 12 H 0.981 2.67203 3.11629 0
M  V30 13 H -0.358 1.57376 2.7183 0
M  V30 14 H -1.165 3.90944 3.18086 0
M  V30 15 H -1.563 3.418 1.51819 0
M  V30 16 H 0.729 5.58782 3.83104 0
M  V30 17 H 1.672 6.56266 2.65933 0
M  V30 18 H 2.08 4.83886 2.90714 0
M  V30 19 N 1.4781 -0.272755 1.55222 0
M  V30 20 C 2.7061 -1.02255 1.79865 0
M  V30 21 C 3.1211 -1.79924 0.572088 0
M  V30 22 O 2.4781 -1.76638 -0.458842 0
M  V30 23 C 2.5291 -1.98094 3.02392 0
M  V30 24 O 2.2501 -1.23572 4.20311 0
M  V30 25 C 3.7511 -2.84884 3.39641 0
M  V30 26 H 0.9711 -0.302057 0.599168 0
M  V30 27 H 3.5151 -0.303465 2.02236 0
M  V30 28 H 1.6701 -2.65465 2.82147 0
M  V30 29 H 2.0841 -1.88172 4.89583 0
M  V30 30 H 3.5581 -3.47927 4.28545 0
M  V30 31 H 4.0351 -3.54665 2.59055 0
M  V30 32 H 4.6411 -2.23003 3.62146 0
M  V30 33 N 2.9562 -1.48159 -0.537278 0
M  V30 34 C 4.1812 -1.59707 -1.32319 0
M  V30 35 C 4.6062 -0.254859 -1.86365 0
M  V30 36 O 3.9642 0.772378 -1.64024 0
M  V30 37 C 4.0122 -2.6412 -2.45505 0
M  V30 38 O 3.1162 -2.20774 -3.48328 0
M  V30 39 H 2.4572 -0.535791 -0.392204 0
M  V30 40 H 4.9872 -1.94092 -0.647268 0
M  V30 41 H 4.9972 -2.85166 -2.91795 0
M  V30 42 H 3.6722 -3.61567 -2.05528 0
M  V30 43 H 2.2492 -2.09911 -3.08207 0
M  V30 44 N 4.4343 0.785586 -1.36625 0
M  V30 45 C 5.3443 1.92964 -1.33425 0
M  V30 46 C 6.3603 1.72394 -0.235851 0
M  V30 47 O 7.5363 1.95866 -0.468878 0
M  V30 48 C 4.6013 3.27884 -1.12662 0
M  V30 49 C 3.6623 3.61204 -2.32013 0
M  V30 50 C 2.8953 4.89687 -2.12231 0
M  V30 51 O 3.1183 5.59704 -1.09945 0
M  V30 52 O 2.0523 5.21752 -3.00098 0
M  V30 53 H 5.8783 1.98613 -2.29753 0
M  V30 54 H 3.4633 0.926384 -1.17211 0
M  V30 55 H 5.3453 4.08614 -1.03016 0
M  V30 56 H 4.0203 3.23118 -0.193991 0
M  V30 57 H 2.9273 2.80765 -2.47228 0
M  V30 58 H 4.2603 3.70698 -3.23796 0
M  V30 59 N 5.9124 1.20967 1.01018 0
M  V30 60 C 6.8604 0.961223 2.1181 0
M  V30 61 C 7.8544 -0.0897034 1.69162 0
M  V30 62 O 9.0604 0.0612271 1.79896 0
M  V30 63 H 5.4354 0.29355 0.692338 0
M  V30 64 H 7.4064 1.90178 2.29946 0
M  V30 65 C 6.1554 0.536854 3.4353 0
M  V30 66 H 5.4784 1.33713 3.76777 0
M  V30 67 H 6.9184 0.402286 4.22087 0
M  V30 68 C 5.3774 -0.751574 3.2841 0
M  V30 69 O 5.9074 -1.80841 3.58691 0
M  V30 70 N 4.1134 -0.716079 2.81639 0
M  V30 71 H 3.6604 0.144236 2.57196 0
M  V30 72 H 3.6184 -1.57847 2.71904 0
M  V30 73 N 7.3905 -1.2043 1.01659 0
M  V30 74 C 8.8015 -1.71517 0.737482 0
M  V30 75 C 9.1525 -1.81547 -0.743973 0
M  V30 76 O 8.2775 -1.47803 -1.58061 0
M  V30 77 C 8.8725 -3.11515 1.33206 0
M  V30 78 C 7.4315 -3.59912 1.10183 0
M  V30 79 C 6.5785 -2.37116 1.43776 0
M  V30 80 H 9.5295 -1.05444 1.18606 0
M  V30 81 H 9.5505 -3.73575 0.722636 0
M  V30 82 H 9.0625 -3.04182 2.41028 0
M  V30 83 H 7.1635 -3.72577 0.0412756 0
M  V30 84 H 7.2765 -4.44731 1.78188 0
M  V30 85 H 5.6405 -2.39857 0.856778 0
M  V30 86 H 6.4235 -2.32424 2.52654 0
M  V30 87 N 8.8686 -0.792821 -1.36206 0
M  V30 88 C 9.7986 -0.207853 -2.32573 0
M  V30 89 C 10.7796 0.659055 -1.56813 0
M  V30 90 O 11.9646 0.592176 -1.84951 0
M  V30 91 C 9.0946 0.655449 -3.41059 0
M  V30 92 C 8.0486 -0.111842 -4.27854 0
M  V30 93 C 7.3746 0.872274 -5.27537 0
M  V30 94 C 8.6746 -1.30299 -5.05786 0
M  V30 95 H 10.3686 -1.01294 -2.81744 0
M  V30 96 H 7.9146 -0.48854 -1.3546 0
M  V30 97 H 9.8676 1.07464 -4.07467 0
M  V30 98 H 8.5916 1.49328 -2.90463 0
M  V30 99 H 7.2506 -0.512053 -3.63006 0
M  V30 100 H 6.8986 1.70523 -4.73214 0
M  V30 101 H 6.5986 0.363291 -5.86476 0
M  V30 102 H 8.1226 1.28996 -5.96818 0
M  V30 103 H 9.5366 -0.959379 -5.65216 0
M  V30 104 H 7.9336 -1.7455 -5.74154 0
M  V30 105 H 9.0036 -2.09663 -4.37229 0
M  V30 106 N 10.3467 1.47872 -0.545128 0
M  V30 107 C 11.2767 2.32661 0.197793 0
M  V30 108 C 12.2577 1.43041 0.920504 0
M  V30 109 O 13.4427 1.71912 0.90333 0
M  V30 110 C 10.5727 3.24569 1.23582 0
M  V30 111 C 9.5267 4.23333 0.630323 0
M  V30 112 C 8.8527 5.0448 1.77211 0
M  V30 113 C 10.1527 5.20704 -0.407974 0
M  V30 114 H 11.8467 2.95024 -0.510045 0
M  V30 115 H 9.3927 1.4187 -0.246731 0
M  V30 116 H 11.3457 3.8272 1.76362 0
M  V30 117 H 10.0697 2.60236 1.97344 0
M  V30 118 H 8.7287 3.6639 0.123922 0
M  V30 119 H 8.3767 4.36561 2.49847 0
M  V30 120 H 8.0767 5.71339 1.37281 0
M  V30 121 H 9.6007 5.65487 2.3034 0
M  V30 122 H 11.0147 5.7329 0.033305 0
M  V30 123 H 9.4117 5.95699 -0.725486 0
M  V30 124 H 10.4817 4.66917 -1.30828 0
M  V30 125 N 11.8248 0.280983 1.55075 0
M  V30 126 C 12.7878 -0.590896 2.21452 0
M  V30 127 C 13.7878 -1.07682 1.19421 0
M  V30 128 O 14.9778 -0.97605 1.44288 0
M  V30 129 C 12.1098 -1.81587 2.88511 0
M  V30 130 H 13.3028 -0.0112554 2.99898 0
M  V30 131 H 10.8558 0.0316438 1.56268 0
M  V30 132 H 11.5908 -2.43587 2.14093 0
M  V30 133 H 11.3758 -1.4753 3.63287 0
M  V30 134 H 12.8658 -2.43575 3.39206 0
M  V30 135 N 13.3029 -1.57598 0.00835791 0
M  V30 136 C 14.2329 -2.1198 -0.979113 0
M  V30 137 C 15.2139 -1.03091 -1.35301 0
M  V30 138 O 16.3989 -1.30818 -1.43528 0
M  V30 139 C 13.5289 -2.62995 -2.26828 0
M  V30 140 C 12.4829 -3.76485 -2.03576 0
M  V30 141 C 11.8089 -4.13846 -3.38579 0
M  V30 142 C 13.1089 -5.0342 -1.39161 0
M  V30 143 H 14.8029 -2.94738 -0.526281 0
M  V30 144 H 12.3489 -1.41783 -0.251704 0
M  V30 145 H 14.3019 -2.99669 -2.96271 0
M  V30 146 H 13.0259 -1.7737 -2.7424 0
M  V30 147 H 11.6849 -3.40217 -1.36557 0
M  V30 148 H 11.3329 -3.25232 -3.83709 0
M  V30 149 H 11.0329 -4.90312 -3.23834 0
M  V30 150 H 12.5569 -4.53086 -4.09323 0
M  V30 151 H 13.9709 -5.37812 -1.98573 0
M  V30 152 H 12.3679 -5.84746 -1.34878 0
M  V30 153 H 13.4379 -4.83548 -0.361868 0
M  V30 154 N 14.781 0.264519 -1.55364 0
M  V30 155 C 16.197 0.61215 -1.47394 0
M  V30 156 C 16.397 1.89134 -0.695018 0
M  V30 157 O 15.453 2.51563 -0.217275 0
M  V30 158 C 16.766 0.731235 -2.91674 0
M  V30 159 C 18.314 0.82473 -3.01939 0
M  V30 160 C 18.789 0.975522 -4.4749 0
M  V30 161 N 20.28 1.04083 -4.51354 0
M  V30 162 C 21.015 1.17646 -5.61201 0
M  V30 163 N 20.511 1.27874 -6.80896 0
M  V30 164 N 22.304 1.20823 -5.48961 0
M  V30 165 H 14.455 -0.575456 -2.04456 0
M  V30 166 H 16.718 -0.196099 -0.927496 0
M  V30 167 H 16.424 -0.138392 -3.51428 0
M  V30 168 H 16.298 1.60883 -3.41169 0
M  V30 169 H 18.685 1.68482 -2.42276 0
M  V30 170 H 18.766 -0.0776479 -2.55682 0
M  V30 171 H 18.41 0.120058 -5.07758 0
M  V30 172 H 18.34 1.89268 -4.91412 0
M  V30 173 H 20.831 0.973846 -3.65136 0
M  V30 174 H 21.144 1.38081 -7.60364 0
M  V30 175 H 19.489 1.24863 -6.83692 0
M  V30 176 H 22.68 1.12469 -4.54388 0
M  V30 177 H 22.853 1.31049 -6.3461 0
M  V30 178 N 16.2591 1.48442 0.529413 0
M  V30 179 C 17.1691 1.6569 1.66084 0
M  V30 180 C 18.1851 0.539432 1.65427 0
M  V30 181 O 19.3611 0.810572 1.84368 0
M  V30 182 C 16.4261 1.69315 3.02545 0
M  V30 183 C 15.4871 2.92694 3.14052 0
M  V30 184 C 14.7201 2.96137 4.44003 0
M  V30 185 O 14.9431 2.07973 5.31134 0
M  V30 186 O 13.8771 3.88312 4.59888 0
M  V30 187 H 17.7031 2.61483 1.54469 0
M  V30 188 H 15.2881 1.3185 0.702567 0
M  V30 189 H 17.1701 1.74217 3.83701 0
M  V30 190 H 15.8451 0.766966 3.14483 0
M  V30 191 H 14.7521 2.93324 2.32189 0
M  V30 192 H 16.0851 3.84699 3.0703 0
M  V30 193 N 17.7372 -0.778329 1.37039 0
M  V30 194 C 18.6842 -1.89139 1.32269 0
M  V30 195 C 19.6542 -1.65017 0.189387 0
M  V30 196 O 20.8392 -1.87024 0.377693 0
M  V30 197 C 17.9792 -3.26112 1.12894 0
M  V30 198 C 17.0922 -3.62233 2.35396 0
M  V30 199 C 16.2272 -4.8838 2.08946 0
M  V30 200 C 15.2662 -5.17212 3.2735 0
M  V30 201 N 14.4032 -6.34546 3.00492 0
M  V30 202 H 19.2432 -1.92552 2.27437 0
M  V30 203 H 16.7802 -0.941473 1.13025 0
M  V30 204 H 18.7382 -4.05116 0.996835 0
M  V30 205 H 17.3682 -3.22091 0.213758 0
M  V30 206 H 16.4202 -2.78265 2.5937 0
M  V30 207 H 17.7322 -3.79481 3.23721 0
M  V30 208 H 16.8862 -5.75274 1.92729 0
M  V30 209 H 15.6252 -4.73222 1.17949 0
M  V30 210 H 14.6302 -4.28796 3.44113 0
M  V30 211 H 15.8552 -5.34283 4.19188 0
M  V30 212 H 13.8012 -6.20759 2.12118 0
M  V30 213 H 13.7182 -6.52179 3.82358 0
M  V30 214 H 14.9862 -7.24394 2.87879 0
M  V30 215 N 19.2153 -1.21501 -1.00376 0
M  V30 216 C 20.4643 -1.02718 -1.73586 0
M  V30 217 C 20.7773 0.439589 -1.90596 0
M  V30 218 O 21.9833 0.746848 -2.61026 0
M  V30 219 C 20.4393 -1.78929 -3.1227 0
M  V30 220 C 20.0473 -3.29783 -3.03228 0
M  V30 221 C 21.7913 -1.68557 -3.89601 0
M  V30 222 C 19.6983 -3.98479 -4.36999 0
M  V30 223 H 18.6283 -0.380733 -0.650814 0
M  V30 224 H 21.2793 -1.45248 -1.1214 0
M  V30 225 H 19.6613 -1.29192 -3.74333 0
M  V30 226 H 20.8353 -3.86832 -2.50395 0
M  V30 227 H 19.1503 -3.40711 -2.39385 0
M  V30 228 H 21.7473 -2.17211 -4.88593 0
M  V30 229 H 22.0903 -0.644021 -4.11288 0
M  V30 230 H 22.6233 -2.15778 -3.34193 0
M  V30 231 H 19.3623 -5.02841 -4.20513 0
M  V30 232 H 18.8823 -3.46219 -4.89788 0
M  V30 233 H 20.5613 -4.03462 -5.05794 0
M  V30 234 N 20.6934 1.19889 -1.02296 0
M  V30 235 C 21.9184 1.9393 -0.735237 0
M  V30 236 C 22.3434 1.74639 0.698782 0
M  V30 237 O 21.7014 1.04481 1.48167 0
M  V30 238 C 21.7494 3.43916 -1.08417 0
M  V30 239 O 20.8534 4.11917 -0.199446 0
M  V30 240 H 20.1944 0.605645 -0.272196 0
M  V30 241 H 22.7244 1.52137 -1.36804 0
M  V30 242 H 22.7344 3.9456 -1.03856 0
M  V30 243 H 21.4094 3.5728 -2.12894 0
M  V30 244 H 19.9864 3.71666 -0.303136 0
M  V30 245 N 22.1715 0.800033 1.35784 0
M  V30 246 C 23.1345 0.211565 2.28221 0
M  V30 247 C 24.1345 -0.59728 1.49296 0
M  V30 248 O 25.3245 -0.416721 1.69142 0
M  V30 249 C 22.4565 -0.705846 3.33513 0
M  V30 250 H 23.6495 1.02677 2.81776 0
M  V30 251 H 21.2025 0.570211 1.45528 0
M  V30 252 H 21.9375 -1.54498 2.85133 0
M  V30 253 H 21.7225 -0.127655 3.91892 0
M  V30 254 H 23.2125 -1.11211 4.02519 0
M  V30 255 N 23.6496 -1.47581 0.552962 0
M  V30 256 C 24.5796 -2.32762 -0.185451 0
M  V30 257 C 25.5606 -1.43527 -0.912905 0
M  V30 258 O 26.7456 -1.72388 -0.894201 0
M  V30 259 C 23.8756 -3.25219 -1.21859 0
M  V30 260 C 22.8296 -4.23661 -0.607864 0
M  V30 261 C 22.1556 -5.05413 -1.74533 0
M  V30 262 C 23.4556 -5.20481 0.435582 0
M  V30 263 H 25.1496 -2.94749 0.525684 0
M  V30 264 H 22.6956 -1.41738 0.254251 0
M  V30 265 H 24.6486 -3.8365 -1.7433 0
M  V30 266 H 23.3726 -2.61279 -1.95961 0
M  V30 267 H 22.0316 -3.66451 -0.104489 0
M  V30 268 H 21.6796 -4.3788 -2.47529 0
M  V30 269 H 21.3796 -5.72059 -1.34249 0
M  V30 270 H 22.9036 -5.66701 -2.27338 0
M  V30 271 H 24.3176 -5.733 -0.00290157 0
M  V30 272 H 22.7146 -5.95305 0.757067 0
M  V30 273 H 23.7846 -4.66217 1.33303 0
M  V30 274 N 25.1277 -0.289203 -1.54924 0
M  V30 275 C 26.4047 0.376032 -1.91951 0
M  V30 276 C 26.7847 1.72622 -1.21511 0
M  V30 277 O 26.1327 2.25853 -0.346767 0
M  V30 278 C 26.3427 0.502378 -3.45365 0
M  V30 279 C 27.6907 0.778741 -4.17398 0
M  V30 280 O 28.7147 0.586647 -3.51336 0
M  V30 281 O 27.5737 1.14698 -5.34328 0
M  V30 282 H 24.6677 0.208167 -0.800372 0
M  V30 283 H 27.2137 -0.336394 -1.66332 0
M  V30 284 H 25.9857 -0.447255 -3.88736 0
M  V30 285 H 25.6087 1.26373 -3.76982 0
M  V30 286 N 26.6058 1.57591 -0.0167156 0
M  V30 287 C 27.5158 2.1291 0.98521 0
M  V30 288 C 28.5318 1.07834 1.36557 0
M  V30 289 O 29.7078 1.39826 1.44951 0
M  V30 290 C 26.7728 2.63512 2.25305 0
M  V30 291 C 25.8338 3.83256 1.93426 0
M  V30 292 C 25.0668 4.31435 3.14165 0
M  V30 293 O 25.2898 3.78851 4.26413 0
M  V30 294 O 24.2238 5.23416 2.97186 0
M  V30 295 H 28.0498 2.98772 0.544888 0
M  V30 296 H 25.6348 1.48012 0.203141 0
M  V30 297 H 27.5168 2.96183 2.99756 0
M  V30 298 H 26.1918 1.8074 2.68542 0
M  V30 299 H 25.0988 3.55531 1.16398 0
M  V30 300 H 26.4318 4.67153 1.55013 0
M  V30 301 N 28.0839 -0.256276 1.55502 0
M  V30 302 C 29.0309 -1.31714 1.89526 0
M  V30 303 C 30.0009 -1.4828 0.748479 0
M  V30 304 O 31.1859 -1.62416 1.00128 0
M  V30 305 C 28.3259 -2.66933 2.18725 0
M  V30 306 C 27.4389 -2.58452 3.4616 0
M  V30 307 C 26.5739 -3.85961 3.64976 0
M  V30 308 C 25.6129 -3.72059 4.86044 0
M  V30 309 N 24.7499 -4.9144 5.01429 0
M  V30 310 H 29.5899 -1.01998 2.80001 0
M  V30 311 H 27.1269 -0.492413 1.38613 0
M  V30 312 H 29.0849 -3.4563 2.33657 0
M  V30 313 H 27.7149 -2.94816 1.31466 0
M  V30 314 H 26.7669 -1.71374 3.3961 0
M  V30 315 H 28.0789 -2.44085 4.34999 0
M  V30 316 H 27.2329 -4.73101 3.79816 0
M  V30 317 H 25.9719 -4.03215 2.74353 0
M  V30 318 H 24.9769 -2.83302 4.7119 0
M  V30 319 H 26.2019 -3.56309 5.78118 0
M  V30 320 H 24.1479 -5.09072 4.13741 0
M  V30 321 H 24.0649 -4.79668 5.84341 0
M  V30 322 H 25.3329 -5.80104 5.20672 0
M  V30 323 N 29.562 -1.4872 -0.521534 0
M  V30 324 C 30.492 -1.66771 -1.63431 0
M  V30 325 C 31.473 -0.516499 -1.62069 0
M  V30 326 O 32.658 -0.750013 -1.79132 0
M  V30 327 C 29.788 -1.71515 -3.01993 0
M  V30 328 C 28.742 -2.86222 -3.18216 0
M  V30 329 C 28.068 -2.76061 -4.57924 0
M  V30 330 C 29.368 -4.27419 -3.00184 0
M  V30 331 H 31.062 -2.59932 -1.48579 0
M  V30 332 H 28.608 -1.25089 -0.713358 0
M  V30 333 H 30.561 -1.82731 -3.7972 0
M  V30 334 H 29.285 -0.749393 -3.17886 0
M  V30 335 H 27.944 -2.74575 -2.42908 0
M  V30 336 H 27.592 -1.77437 -4.70665 0
M  V30 337 H 27.292 -3.53037 -4.69722 0
M  V30 338 H 28.816 -2.89256 -5.37739 0
M  V30 339 H 30.23 -4.39855 -3.67697 0
M  V30 340 H 28.627 -5.05458 -3.2347 0
M  V30 341 H 29.697 -4.43293 -1.96518 0
M  V30 342 N 31.0401 0.771051 -1.3745 0
M  V30 343 C 31.9701 1.89827 -1.3597 0
M  V30 344 C 32.9511 1.68562 -0.228216 0
M  V30 345 O 34.1361 1.8941 -0.428675 0
M  V30 346 C 31.2661 3.2712 -1.16662 0
M  V30 347 C 30.2201 3.6295 -2.2683 0
M  V30 348 C 29.5461 4.98791 -1.92644 0
M  V30 349 C 30.8461 3.69627 -3.69017 0
M  V30 350 H 32.5401 1.91323 -2.30295 0
M  V30 351 H 30.0861 0.919082 -1.10855 0
M  V30 352 H 32.0391 4.05615 -1.14256 0
M  V30 353 H 30.7631 3.26059 -0.187926 0
M  V30 354 H 29.4221 2.86763 -2.28392 0
M  V30 355 H 29.0701 4.94271 -0.933021 0
M  V30 356 H 28.7701 5.23733 -2.66416 0
M  V30 357 H 30.2941 5.79685 -1.91826 0
M  V30 358 H 31.7081 4.38273 -3.69581 0
M  V30 359 H 30.1051 4.06067 -4.41848 0
M  V30 360 H 31.1751 2.70273 -4.02592 0
M  V30 361 N 32.5182 1.22032 0.997298 0
M  V30 362 C 33.4812 0.987909 2.06816 0
M  V30 363 C 34.4812 -0.0440084 1.6074 0
M  V30 364 O 35.6712 0.194053 1.73116 0
M  V30 365 C 32.8032 0.49132 3.37341 0
M  V30 366 H 33.9962 1.93803 2.28868 0
M  V30 367 H 31.5492 1.03838 1.16822 0
M  V30 368 H 32.2842 -0.463364 3.20973 0
M  V30 369 H 32.0692 1.23575 3.72118 0
M  V30 370 H 33.5592 0.348824 4.16141 0
M  V30 371 N 33.9963 -1.19345 1.0293 0
M  V30 372 C 34.9263 -2.2481 0.631105 0
M  V30 373 C 35.9073 -1.66245 -0.360104 0
M  V30 374 O 37.0923 -1.92677 -0.242726 0
M  V30 375 C 34.2223 -3.47295 -0.0184607 0
M  V30 376 C 33.1763 -4.18536 0.895073 0
M  V30 377 C 32.5023 -5.34586 0.110592 0
M  V30 378 C 33.8023 -4.73287 2.209 0
M  V30 379 H 35.4963 -2.58372 1.51275 0
M  V30 380 H 33.0423 -1.24194 0.728818 0
M  V30 381 H 34.9953 -4.20268 -0.308675 0
M  V30 382 H 33.7193 -3.12933 -0.934907 0
M  V30 383 H 32.3783 -3.47446 1.16949 0
M  V30 384 H 32.0263 -4.96469 -0.807902 0
M  V30 385 H 31.7263 -5.83183 0.719087 0
M  V30 386 H 33.2503 -6.10355 -0.172871 0
M  V30 387 H 34.6643 -5.38013 1.98028 0
M  V30 388 H 33.0613 -5.32373 2.76946 0
M  V30 389 H 34.1313 -3.91331 2.86336 0
M  V30 390 N 35.4744 -0.807222 -1.35358 0
M  V30 391 C 36.4044 -0.232509 -2.3234 0
M  V30 392 C 37.3854 0.642386 -1.57504 0
M  V30 393 O 38.5704 0.572526 -1.85569 0
M  V30 394 C 35.7004 0.619238 -3.41735 0
M  V30 395 C 34.6544 -0.157215 -4.27711 0
M  V30 396 C 33.9804 0.816273 -5.28433 0
M  V30 397 C 35.2804 -1.35656 -5.04376 0
M  V30 398 H 36.9744 -1.04276 -2.80654 0
M  V30 399 H 34.5204 -0.50288 -1.34934 0
M  V30 400 H 36.4734 1.03137 -4.08584 0
M  V30 401 H 35.1974 1.46239 -2.92031 0
M  V30 402 H 33.8564 -0.550525 -3.62443 0
M  V30 403 H 33.5044 1.65494 -4.74996 0
M  V30 404 H 33.2044 0.301067 -5.86828 0
M  V30 405 H 34.7284 1.22659 -5.98153 0
M  V30 406 H 36.1424 -1.01927 -5.64166 0
M  V30 407 H 34.5394 -1.8063 -5.7227 0
M  V30 408 H 35.6094 -2.14288 -4.34981 0
M  V30 409 N 36.9525 1.47285 -0.560781 0
M  V30 410 C 37.9155 2.28535 0.174488 0
M  V30 411 C 38.9155 1.37153 0.839388 0
M  V30 412 O 40.1055 1.59748 0.694702 0
M  V30 413 C 37.2375 3.16934 1.25561 0
M  V30 414 H 38.4305 2.95012 -0.539262 0
M  V30 415 H 35.9835 1.53034 -0.317865 0
M  V30 416 H 36.7185 2.55157 2.00164 0
M  V30 417 H 36.5035 3.8419 0.783604 0
M  V30 418 H 37.9935 3.78143 1.77193 0
M  V30 419 N 38.4306 0.297415 1.54768 0
M  V30 420 C 39.3406 -0.58983 2.27064 0
M  V30 421 C 40.3566 -1.15144 1.30453 0
M  V30 422 O 41.5326 -1.17699 1.63428 0
M  V30 423 C 38.5976 -1.74714 2.9946 0
M  V30 424 C 37.6586 -1.21997 4.11601 0
M  V30 425 C 36.8916 -2.32212 4.80535 0
M  V30 426 O 37.1146 -3.52036 4.48806 0
M  V30 427 O 36.0486 -1.99106 5.68014 0
M  V30 428 H 39.8746 -0.00348199 3.037 0
M  V30 429 H 37.4596 0.0640035 1.49263 0
M  V30 430 H 39.3416 -2.42147 3.44881 0
M  V30 431 H 38.0166 -2.32016 2.25722 0
M  V30 432 H 36.9236 -0.511458 3.70587 0
M  V30 433 H 38.2566 -0.692419 4.87305 0
M  V30 434 N 39.9087 -1.5758 0.0250728 0
M  V30 435 C 41.3247 -1.56124 -0.331282 0
M  V30 436 C 41.5247 -1.03029 -1.73169 0
M  V30 437 O 40.5807 -0.675215 -2.43305 0
M  V30 438 C 41.8937 -3.00139 -0.183584 0
M  V30 439 C 43.4417 -3.11946 -0.256654 0
M  V30 440 C 43.9167 -4.57793 -0.137792 0
M  V30 441 N 45.4077 -4.6279 -0.194904 0
M  V30 442 C 46.1427 -5.7326 -0.126655 0
M  V30 443 N 45.6387 -6.928 -0.00755288 0
M  V30 444 N 47.4317 -5.61811 -0.180348 0
M  V30 445 H 39.5827 -1.90424 0.94087 0
M  V30 446 H 41.8457 -0.875761 0.362968 0
M  V30 447 H 41.5517 -3.4292 0.780927 0
M  V30 448 H 41.4257 -3.64899 -0.955448 0
M  V30 449 H 43.8127 -2.69079 -1.21162 0
M  V30 450 H 43.8937 -2.49915 0.545517 0
M  V30 451 H 43.5377 -5.01339 0.813739 0
M  V30 452 H 43.4677 -5.17798 -0.958775 0
M  V30 453 H 45.9587 -3.76807 -0.287267 0
M  V30 454 H 46.2717 -7.72791 0.0379428 0
M  V30 455 H 44.6167 -6.94995 0.0271731 0
M  V30 456 H 47.8077 -4.6731 -0.271767 0
M  V30 457 H 47.9807 -6.47882 -0.123697 0
M  V30 458 N 41.3868 0.248026 -1.55636 0
M  V30 459 C 42.8028 0.596483 -1.48035 0
M  V30 460 C 43.0028 1.88386 -0.715039 0
M  V30 461 O 42.0588 2.51319 -0.243944 0
M  V30 462 C 43.3718 0.700258 -2.92433 0
M  V30 463 C 44.9198 0.792659 -3.02797 0
M  V30 464 C 45.3948 0.928005 -4.485 0
M  V30 465 N 46.8858 0.992903 -4.52433 0
M  V30 466 C 47.6208 1.11687 -5.62418 0
M  V30 467 N 47.1168 1.20645 -6.82214 0
M  V30 468 N 48.9098 1.14994 -5.50212 0
M  V30 469 H 41.0608 -0.597109 -2.03834 0
M  V30 470 H 43.3238 -0.205925 -0.925364 0
M  V30 471 H 43.0298 -0.175658 -3.51261 0
M  V30 472 H 42.9038 1.57255 -3.42857 0
M  V30 473 H 45.2908 1.65903 -2.4405 0
M  V30 474 H 45.3718 -0.104762 -2.55585 0
M  V30 475 H 45.0158 0.0661971 -5.07857 0
M  V30 476 H 44.9458 1.84045 -4.93391 0
M  V30 477 H 47.4368 0.935064 -3.66149 0
M  V30 478 H 47.7498 1.30008 -7.61786 0
M  V30 479 H 46.0948 1.17605 -6.84977 0
M  V30 480 H 49.2858 1.07643 -4.55555 0
M  V30 481 H 49.4588 1.24311 -6.35965 0
M  V30 482 N 42.8649 1.48995 0.513639 0
M  V30 483 C 43.7749 1.67443 1.64317 0
M  V30 484 C 44.7909 0.556947 1.64846 0
M  V30 485 O 45.9669 0.830082 1.83498 0
M  V30 486 C 43.0319 1.72515 3.00732 0
M  V30 487 C 42.0929 2.96009 3.1093 0
M  V30 488 C 41.3259 3.00829 4.40837 0
M  V30 489 O 41.5489 2.13594 5.28898 0
M  V30 490 O 40.4829 3.93168 4.55744 0
M  V30 491 H 44.3089 2.63106 1.51687 0
M  V30 492 H 41.8939 1.32588 0.688543 0
M  V30 493 H 43.7759 1.78277 3.81831 0
M  V30 494 H 42.4509 0.800278 3.13651 0
M  V30 495 H 41.3579 2.9577 2.29065 0
M  V30 496 H 42.6909 3.87934 3.02933 0
M  V30 497 N 44.343 -0.763751 1.37857 0
M  V30 498 C 45.273 -1.89103 1.36975 0
M  V30 499 C 46.254 -1.68439 0.237152 0
M  V30 500 O 47.439 -1.8918 0.438713 0
M  V30 501 C 44.569 -3.26496 1.18395 0
M  V30 502 C 43.523 -3.61741 2.28751 0
M  V30 503 C 42.849 -4.97762 1.95286 0
M  V30 504 C 44.149 -3.67665 3.70972 0
M  V30 505 H 45.843 -1.90099 2.31307 0
M  V30 506 H 43.389 -0.91319 1.11341 0
M  V30 507 H 45.342 -4.05003 1.16406 0
M  V30 508 H 44.066 -3.25955 0.205215 0
M  V30 509 H 42.725 -2.85547 2.29909 0
M  V30 510 H 42.373 -4.93769 0.959221 0
M  V30 511 H 42.073 -5.22313 2.69189 0
M  V30 512 H 43.597 -5.7866 1.94898 0
M  V30 513 H 45.011 -4.36307 3.719 0
M  V30 514 H 43.408 -4.03718 4.43995 0
M  V30 515 H 44.478 -2.68134 4.0402 0
M  V30 516 N 45.8211 -1.22559 -0.990812 0
M  V30 517 C 46.7841 -0.998863 -2.0629 0
M  V30 518 C 47.7841 0.0354834 -1.60761 0
M  V30 519 O 48.9741 -0.203231 -1.7301 0
M  V30 520 C 46.1061 -0.509203 -3.37076 0
M  V30 521 H 47.2991 -1.95014 -2.27837 0
M  V30 522 H 44.8521 -1.04456 -1.16269 0
M  V30 523 H 45.5871 0.446335 -3.21214 0
M  V30 524 H 45.3721 -1.25547 -3.71457 0
M  V30 525 H 46.8621 -0.370888 -4.1595 0
M  V30 526 N 47.2992 1.18797 -1.03562 0
M  V30 527 C 48.5452 1.8893 -0.737113 0
M  V30 528 C 48.8782 1.79837 0.732956 0
M  V30 529 O 48.1532 1.19525 1.5344 0
M  V30 530 C 48.4362 3.39607 -1.19745 0
M  V30 531 C 48.2892 3.57537 -2.72924 0
M  V30 532 C 49.6082 4.33069 -0.783526 0
M  V30 533 H 46.7272 0.686057 -0.269249 0
M  V30 534 H 49.3692 1.39797 -1.28673 0
M  V30 535 H 47.5192 3.81583 -0.729855 0
M  V30 536 H 49.1912 3.24688 -3.27682 0
M  V30 537 H 47.4342 3.00363 -3.12993 0
M  V30 538 H 48.1052 4.63238 -3.00191 0
M  V30 539 H 50.5812 3.98846 -1.18581 0
M  V30 540 H 49.4572 5.3707 -1.13343 0
M  V30 541 H 49.7182 4.40986 0.313681 0
M  V30 542 N 48.7773 0.814389 1.34928 0
M  V30 543 C 49.6873 0.231978 2.3345 0
M  V30 544 C 50.7033 -0.629139 1.62228 0
M  V30 545 O 51.8793 -0.539052 1.94052 0
M  V30 546 C 48.9443 -0.603482 3.41407 0
M  V30 547 C 48.0053 0.279037 4.28392 0
M  V30 548 C 47.2383 -0.516643 5.31193 0
M  V30 549 O 47.4613 -1.75068 5.4287 0
M  V30 550 O 46.3953 0.0965652 6.01823 0
M  V30 551 H 50.2213 1.04721 2.85074 0
M  V30 552 H 47.8063 0.576343 1.37836 0
M  V30 553 H 49.6883 -1.07908 4.0735 0
M  V30 554 H 48.3633 -1.39618 2.92042 0
M  V30 555 H 47.2703 0.801948 3.65403 0
M  V30 556 H 48.6033 1.03588 4.81176 0
M  V30 557 N 50.2554 -1.46986 0.568584 0
M  V30 558 C 51.5014 -2.02741 0.0488709 0
M  V30 559 C 51.8344 -1.44077 -1.30214 0
M  V30 560 O 51.1094 -0.600552 -1.84996 0
M  V30 561 C 51.3924 -3.60086 -0.032047 0
M  V30 562 C 51.2454 -4.29162 1.34686 0
M  V30 563 C 52.5644 -4.33838 -0.739798 0
M  V30 564 H 49.6834 -0.736749 0.0192338 0
M  V30 565 H 52.3254 -1.75289 0.733065 0
M  V30 566 H 50.4754 -3.83606 -0.61473 0
M  V30 567 H 52.1474 -4.16948 1.97362 0
M  V30 568 H 50.3904 -3.89073 1.91846 0
M  V30 569 H 51.0614 -5.37826 1.24285 0
M  V30 570 H 53.5374 -4.15378 -0.244939 0
M  V30 571 H 52.4134 -5.43537 -0.765406 0
M  V30 572 H 52.6744 -4.03875 -1.79827 0
M  V30 573 N 51.7335 -0.305618 -1.54608 0
M  V30 574 C 52.9815 0.301701 -1.99835 0
M  V30 575 C 53.3025 1.54054 -1.19551 0
M  V30 576 O 52.5725 1.93702 -0.292658 0
M  V30 577 H 51.1525 0.114468 -0.738178 0
M  V30 578 H 53.8145 -0.418016 -1.90364 0
M  V30 579 H 52.9105 0.570548 -3.06841 0
M  V30 580 N 53.2116 1.57565 -0.0334293 0
M  V30 581 C 54.1586 2.10478 0.946981 0
M  V30 582 C 55.1286 1.00787 1.32027 0
M  V30 583 O 56.3136 1.28232 1.41284 0
M  V30 584 C 53.4536 2.63994 2.22263 0
M  V30 585 C 52.5666 3.87709 1.90541 0
M  V30 586 C 51.7016 4.29604 3.12433 0
M  V30 587 C 50.7406 5.46065 2.76549 0
M  V30 588 N 49.8776 5.83096 3.9108 0
M  V30 589 H 54.7176 2.93963 0.488846 0
M  V30 590 H 52.2546 1.45296 0.22969 0
M  V30 591 H 54.2126 2.93114 2.96884 0
M  V30 592 H 52.8426 1.83333 2.65685 0
M  V30 593 H 51.8946 3.65291 1.06144 0
M  V30 594 H 53.2066 4.72403 1.60116 0
M  V30 595 H 52.3606 4.60182 3.9537 0
M  V30 596 H 51.0996 3.43685 3.46023 0
M  V30 597 H 50.1046 5.15176 1.92026 0
M  V30 598 H 51.3296 6.33685 2.44171 0
M  V30 599 H 49.2756 5.00132 4.24504 0
M  V30 600 H 49.1926 6.6244 3.64293 0
M  V30 601 H 50.4606 6.18282 4.74708 0
M  V30 602 N 54.6897 -0.239769 1.55765 0
M  V30 603 C 55.6527 -1.28038 1.90103 0
M  V30 604 C 56.6527 -1.40723 0.778055 0
M  V30 605 O 57.8427 -1.39301 1.04599 0
M  V30 606 C 54.9747 -2.65702 2.13577 0
M  V30 607 H 56.1677 -0.988048 2.83157 0
M  V30 608 H 53.7207 -0.479382 1.48767 0
M  V30 609 H 54.4557 -3.00063 1.23015 0
M  V30 610 H 54.2407 -2.57875 2.95369 0
M  V30 611 H 55.7307 -3.40828 2.41301 0
M  V30 612 N 56.1678 -1.49265 -0.50573 0
M  V30 613 C 57.1148 -1.65585 -1.6078 0
M  V30 614 C 58.0848 -0.497396 -1.58478 0
M  V30 615 O 59.2698 -0.72385 -1.76536 0
M  V30 616 C 56.4098 -1.72408 -2.98948 0
M  V30 617 C 55.5228 -2.99525 -3.11301 0
M  V30 618 C 54.6578 -2.97356 -4.40174 0
M  V30 619 C 53.6968 -4.19074 -4.46143 0
M  V30 620 N 52.8338 -4.14841 -5.66437 0
M  V30 621 H 57.6738 -2.59688 -1.46172 0
M  V30 622 H 55.2108 -1.28761 -0.711261 0
M  V30 623 H 57.1688 -1.74344 -3.79025 0
M  V30 624 H 55.7988 -0.817753 -3.1227 0
M  V30 625 H 54.8508 -3.07222 -2.24318 0
M  V30 626 H 56.1628 -3.89518 -3.11572 0
M  V30 627 H 55.3168 -2.97829 -5.28567 0
M  V30 628 H 54.0558 -2.05133 -4.42461 0
M  V30 629 H 53.0608 -4.1885 -3.56153 0
M  V30 630 H 54.2858 -5.12483 -4.45575 0
M  V30 631 H 52.2318 -3.25453 -5.69575 0
M  V30 632 H 52.1488 -4.98564 -5.68304 0
M  V30 633 H 53.4168 -4.1941 -6.57051 0
M  V30 634 N 57.6459 0.756429 -1.3826 0
M  V30 635 C 58.5759 1.88374 -1.37976 0
M  V30 636 C 59.5569 1.68311 -0.246082 0
M  V30 637 O 60.7419 1.88944 -0.44874 0
M  V30 638 C 57.8719 3.25864 -1.20125 0
M  V30 639 C 56.8259 3.60523 -2.30666 0
M  V30 640 C 56.1519 4.9672 -1.97923 0
M  V30 641 C 57.4519 3.65692 -3.72916 0
M  V30 642 H 59.1459 1.88869 -2.32312 0
M  V30 643 H 56.6919 0.907272 -1.11824 0
M  V30 644 H 58.6449 4.0438 -1.18552 0
M  V30 645 H 57.3689 3.25841 -0.222498 0
M  V30 646 H 56.0279 2.84324 -2.3142 0
M  V30 647 H 55.6759 4.93253 -0.985393 0
M  V30 648 H 55.3759 5.20878 -2.71955 0
M  V30 649 H 56.8999 5.77618 -1.97964 0
M  V30 650 H 58.3139 4.34328 -3.74208 0
M  V30 651 H 56.7109 4.01358 -4.4613 0
M  V30 652 H 57.7809 2.65987 -4.05436 0
M  V30 653 N 59.124 1.23083 0.984299 0
M  V30 654 C 60.054 1.03292 2.09411 0
M  V30 655 C 61.035 -0.048923 1.7003 0
M  V30 656 O 62.22 0.114967 1.93859 0
M  V30 657 C 59.35 0.619155 3.41736 0
M  V30 658 C 58.304 1.64791 3.95004 0
M  V30 659 C 57.63 1.0897 5.23478 0
M  V30 660 C 58.93 3.03999 4.24714 0
M  V30 661 H 60.624 1.96119 2.26225 0
M  V30 662 H 58.17 0.944344 1.08711 0
M  V30 663 H 60.123 0.467777 4.18796 0
M  V30 664 H 58.847 -0.344786 3.24775 0
M  V30 665 H 57.506 1.78721 3.20085 0
M  V30 666 H 57.154 0.11686 5.02864 0
M  V30 667 H 56.854 1.77704 5.60085 0
M  V30 668 H 58.378 0.950093 6.03163 0
M  V30 669 H 59.792 2.93393 4.92538 0
M  V30 670 H 58.189 3.69936 4.72512 0
M  V30 671 H 59.259 3.53285 3.32142 0
M  V30 672 N 60.6021 -1.18246 1.0419 0
M  V30 673 C 61.8271 -1.92736 0.765996 0
M  V30 674 C 62.2521 -1.75728 -0.67091 0
M  V30 675 O 61.6101 -1.06825 -1.46486 0
M  V30 676 C 61.6581 -3.42148 1.13875 0
M  V30 677 O 60.7621 -4.11548 0.264954 0
M  V30 678 H 60.1031 -0.601238 0.281797 0
M  V30 679 H 62.6331 -1.49942 1.39207 0
M  V30 680 H 62.6431 -3.92858 1.1012 0
M  V30 681 H 61.3181 -3.53848 2.18551 0
M  V30 682 H 59.8951 -3.71137 0.362226 0
M  V30 683 N 62.0802 -0.821533 -1.34494 0
M  V30 684 C 63.0302 -0.214793 -2.26986 0
M  V30 685 C 64.0142 0.620125 -1.4847 0
M  V30 686 O 65.2062 0.474933 -1.70509 0
M  V30 687 C 62.3352 0.623566 -3.37589 0
M  V30 688 C 61.4212 -0.221904 -4.23519 0
M  V30 689 N 61.8122 -1.29223 -4.89014 0
M  V30 690 C 60.1102 -0.00600922 -4.46 0
M  V30 691 C 60.8112 -1.80965 -5.52835 0
M  V30 692 N 59.7872 -1.11376 -5.32068 0
M  V30 693 H 63.5892 -1.03354 -2.75128 0
M  V30 694 H 61.1032 -0.6642 -1.48196 0
M  V30 695 H 63.1002 1.0744 -4.02818 0
M  V30 696 H 61.7602 1.44049 -2.90998 0
M  V30 697 H 62.7712 -1.67502 -4.90065 0
M  V30 698 H 59.4482 0.77886 -4.10171 0
M  V30 699 H 60.8382 -2.70502 -6.15043 0
M  V30 700 N 63.5583 1.46682 -0.576371 0
M  V30 701 C 64.9743 1.57822 -0.237562 0
M  V30 702 C 65.1743 1.57237 1.26011 0
M  V30 703 O 64.2303 1.48596 2.04146 0
M  V30 704 C 65.5433 2.87499 -0.881168 0
M  V30 705 C 67.0913 3.01119 -0.85417 0
M  V30 706 C 67.5663 4.33524 -1.4772 0
M  V30 707 N 69.0573 4.40207 -1.44125 0
M  V30 708 C 69.7923 5.4126 -1.89276 0
M  V30 709 N 69.2883 6.49021 -2.42371 0
M  V30 710 N 71.0813 5.32422 -1.80231 0
M  V30 711 H 63.2323 1.45306 -1.54919 0
M  V30 712 H 65.4953 0.692733 -0.647167 0
M  V30 713 H 65.2013 2.9372 -1.93447 0
M  V30 714 H 65.0753 3.75224 -0.385592 0
M  V30 715 H 67.4623 2.94485 0.190491 0
M  V30 716 H 67.5433 2.14887 -1.3877 0
M  V30 717 H 67.1873 4.40916 -2.52103 0
M  V30 718 H 67.1173 5.1852 -0.918947 0
M  V30 719 H 69.6083 3.62931 -1.05307 0
M  V30 720 H 69.9213 7.2233 -2.74698 0
M  V30 721 H 68.2663 6.49858 -2.46393 0
M  V30 722 H 71.4573 4.47137 -1.38514 0
M  V30 723 H 71.6303 6.11034 -2.15735 0
M  V30 724 N 65.0364 0.313813 1.54444 0
M  V30 725 C 66.4474 -0.176243 1.85866 0
M  V30 726 C 66.7984 -1.52405 1.23561 0
M  V30 727 O 65.9234 -2.09605 0.538016 0
M  V30 728 C 66.5184 -0.32657 3.37222 0
M  V30 729 C 65.0774 -0.760846 3.6863 0
M  V30 730 C 64.2244 0.123247 2.77026 0
M  V30 731 H 67.1754 0.534418 1.49431 0
M  V30 732 H 67.1964 -1.15908 3.62416 0
M  V30 733 H 66.7084 0.654531 3.82541 0
M  V30 734 H 64.8094 -1.75204 3.28838 0
M  V30 735 H 64.9224 -0.571353 4.75681 0
M  V30 736 H 63.2864 -0.399597 2.51546 0
M  V30 737 H 64.0694 1.10094 3.25168 0
M  V30 738 N 66.5145 -1.57545 0.0417849 0
M  V30 739 C 67.7605 -1.92601 -0.635021 0
M  V30 740 C 68.0935 -0.919627 -1.71045 0
M  V30 741 O 67.3685 0.0557892 -1.9442 0
M  V30 742 C 67.6515 -3.38085 -1.23979 0
M  V30 743 C 67.5045 -4.49467 -0.173057 0
M  V30 744 C 68.8235 -3.83776 -2.15416 0
M  V30 745 H 65.9425 -0.700397 -0.229374 0
M  V30 746 H 68.5845 -1.89728 0.101633 0
M  V30 747 H 66.7345 -3.40664 -1.86762 0
M  V30 748 H 68.4065 -4.59018 0.458312 0
M  V30 749 H 66.6495 -4.30909 0.499996 0
M  V30 750 H 67.3205 -5.48323 -0.636054 0
M  V30 751 H 69.7965 -3.83013 -1.62605 0
M  V30 752 H 68.6725 -4.8624 -2.54679 0
M  V30 753 H 68.9335 -3.19998 -3.05047 0
M  V30 754 N 67.9926 0.231505 -1.5589 0
M  V30 755 C 69.4086 0.580748 -1.48659 0
M  V30 756 C 69.6086 1.87617 -0.73498 0
M  V30 757 O 68.6646 2.51046 -0.270586 0
M  V30 758 C 69.9776 0.669202 -2.93159 0
M  V30 759 C 71.5256 0.760499 -3.03621 0
M  V30 760 C 72.0006 0.880383 -4.49459 0
M  V30 761 N 73.4916 0.944861 -4.53461 0
M  V30 762 C 74.2266 1.05716 -5.63571 0
M  V30 763 N 73.7226 1.13403 -6.83456 0
M  V30 764 N 75.5156 1.09152 -5.514 0
M  V30 765 H 67.6666 -0.618695 -2.03189 0
M  V30 766 H 69.9296 -0.215728 -0.923128 0
M  V30 767 H 69.6356 -0.212904 -3.51055 0
M  V30 768 H 69.5096 1.5361 -3.44505 0
M  V30 769 H 71.8966 1.63305 -2.45796 0
M  V30 770 H 71.9776 -0.131864 -2.5546 0
M  V30 771 H 71.6216 0.0123284 -5.07899 0
M  V30 772 H 71.5516 1.78802 -4.95316 0
M  V30 773 H 74.0426 0.896176 -3.6712 0
M  V30 774 H 74.3556 1.21921 -7.63122 0
M  V30 775 H 72.7006 1.10333 -6.86186 0
M  V30 776 H 75.8916 1.02805 -4.56671 0
M  V30 777 H 76.0646 1.17558 -6.37247 0
M  V30 778 N 69.4707 1.49531 0.497807 0
M  V30 779 C 70.7477 1.49682 1.25915 0
M  V30 780 C 71.1277 0.226339 2.09883 0
M  V30 781 O 70.4757 -0.791189 2.14365 0
M  V30 782 C 70.6857 2.77755 2.11313 0
M  V30 783 C 72.0337 3.27371 2.70395 0
M  V30 784 O 73.0577 2.78894 2.21578 0
M  V30 785 O 71.9167 4.11808 3.59272 0
M  V30 786 H 69.0107 0.599228 0.56996 0
M  V30 787 H 71.5567 1.61798 0.511816 0
M  V30 788 H 70.3287 3.61713 1.49264 0
M  V30 789 H 69.9517 2.68515 2.93233 0
M  V30 790 N 70.9488 -0.749086 1.3866 0
M  V30 791 C 72.1978 -1.50371 1.3443 0
M  V30 792 C 72.5108 -1.95503 -0.0616397 0
M  V30 793 O 73.7168 -2.70554 -0.226489 0
M  V30 794 C 72.1728 -2.71644 2.36088 0
M  V30 795 C 71.7808 -2.3352 3.82325 0
M  V30 796 C 73.5248 -3.49518 2.40909 0
M  V30 797 C 71.4318 -3.51431 4.75658 0
M  V30 798 H 70.3618 -0.564628 0.499712 0
M  V30 799 H 73.0128 -0.818449 1.64237 0
M  V30 800 H 71.3948 -3.42175 1.9933 0
M  V30 801 H 72.5688 -1.70627 4.28046 0
M  V30 802 H 70.8838 -1.6877 3.80665 0
M  V30 803 H 73.4808 -4.37197 3.07836 0
M  V30 804 H 73.8238 -3.90992 1.42937 0
M  V30 805 H 74.3568 -2.86005 2.76489 0
M  V30 806 H 71.0958 -3.15019 5.74842 0
M  V30 807 H 70.6158 -4.13352 4.34627 0
M  V30 808 H 72.2948 -4.17953 4.93887 0
M  V30 809 N 72.4269 -1.23603 -0.977757 0
M  V30 810 C 73.7039 -0.977897 -1.69401 0
M  V30 811 C 74.0839 0.502738 -2.05026 0
M  V30 812 O 73.4319 1.47459 -1.74551 0
M  V30 813 C 73.6419 -1.89077 -2.93345 0
M  V30 814 C 74.9899 -2.15579 -3.65802 0
M  V30 815 O 76.0139 -1.86648 -3.03383 0
M  V30 816 O 74.8729 -2.64658 -4.78141 0
M  V30 817 H 71.9669 -0.369025 -0.740101 0
M  V30 818 H 74.5129 -1.34657 -1.03274 0
M  V30 819 H 73.2849 -2.89158 -2.63634 0
M  V30 820 H 72.9079 -1.52463 -3.67207 0
M  V30 821 N 73.905 1.17692 -1.04816 0
M  V30 822 C 75.321 1.39863 -0.768794 0
M  V30 823 C 75.521 1.91118 0.638451 0
M  V30 824 O 74.577 2.10036 1.40146 0
M  V30 825 C 75.89 2.39274 -1.82122 0
M  V30 826 C 77.438 2.52987 -1.843 0
M  V30 827 C 77.913 3.55669 -2.88555 0
M  V30 828 N 79.404 3.63183 -2.87493 0
M  V30 829 C 80.139 4.42381 -3.64811 0
M  V30 830 N 79.635 5.25125 -4.51903 0
M  V30 831 N 81.428 4.37217 -3.53267 0
M  V30 832 H 73.579 0.82752 -1.95617 0
M  V30 833 H 75.842 0.426123 -0.846831 0
M  V30 834 H 75.548 2.08678 -2.83102 0
M  V30 835 H 75.422 3.38725 -1.65967 0
M  V30 836 H 77.809 2.82896 -0.839869 0
M  V30 837 H 77.89 1.53623 -2.04532 0
M  V30 838 H 77.534 3.26499 -3.89051 0
M  V30 839 H 77.464 4.54728 -2.65575 0
M  V30 840 H 79.955 3.04103 -2.24343 0
M  V30 841 H 80.268 5.82728 -5.07591 0
M  V30 842 H 78.613 5.24519 -4.55966 0
M  V30 843 H 81.804 3.71626 -2.84625 0
M  V30 844 H 81.977 4.98696 -4.13771 0
M  V30 845 N 75.3831 0.828654 1.34056 0
M  V30 846 C 76.2931 0.256725 2.33191 0
M  V30 847 C 77.3091 -0.611898 1.62886 0
M  V30 848 O 78.4851 -0.51844 1.94613 0
M  V30 849 C 75.5501 -0.567238 3.42028 0
M  V30 850 C 74.6111 0.324458 4.28072 0
M  V30 851 C 73.8441 -0.460274 5.31712 0
M  V30 852 O 74.0671 -1.693 5.44696 0
M  V30 853 O 73.0011 0.160391 6.01686 0
M  V30 854 H 76.8271 1.07739 2.83947 0
M  V30 855 H 74.4121 0.59093 1.37217 0
M  V30 856 H 76.2941 -1.03582 4.08471 0
M  V30 857 H 74.9691 -1.36513 2.93506 0
M  V30 858 H 73.8761 0.840659 3.64532 0
M  V30 859 H 75.2091 1.08685 4.8005 0
M  V30 860 N 76.8612 -1.46375 0.584142 0
M  V30 861 C 78.2772 -1.57694 0.245929 0
M  V30 862 C 78.4772 -1.57903 -1.25175 0
M  V30 863 O 77.5332 -1.49676 -2.03355 0
M  V30 864 C 78.8462 -2.87028 0.896402 0
M  V30 865 C 80.3942 -3.00662 0.870127 0
M  V30 866 C 80.8692 -4.32734 1.50017 0
M  V30 867 N 82.3602 -4.39436 1.46458 0
M  V30 868 C 83.0952 -5.40248 1.92144 0
M  V30 869 N 82.5912 -6.47726 2.4581 0
M  V30 870 N 84.3842 -5.31459 1.83052 0
M  V30 871 H 76.5352 -1.44483 1.55687 0
M  V30 872 H 78.7982 -0.689291 0.650831 0
M  V30 873 H 78.5042 -2.9269 1.95002 0
M  V30 874 H 78.3782 -3.75014 0.405486 0
M  V30 875 H 80.7652 -2.94581 -0.174871 0
M  V30 876 H 80.8462 -2.14148 1.39908 0
M  V30 877 H 80.4902 -4.39573 2.54437 0
M  V30 878 H 80.4202 -5.18025 0.946432 0
M  V30 879 H 82.9112 -3.62367 1.07231 0
M  V30 880 H 83.2242 -7.20863 2.78525 0
M  V30 881 H 81.5692 -6.48542 2.49836 0
M  V30 882 H 84.7602 -4.46396 1.40883 0
M  V30 883 H 84.9332 -6.09881 2.18973 0
M  V30 884 N 78.3393 -0.321999 -1.54275 0
M  V30 885 C 79.6163 0.335232 -1.92706 0
M  V30 886 C 79.9963 1.70006 -1.25145 0
M  V30 887 O 79.3443 2.25067 -0.394596 0
M  V30 888 C 79.5543 0.429008 -3.46353 0
M  V30 889 C 80.9023 0.690029 -4.18956 0
M  V30 890 O 81.9263 0.511992 -3.52501 0
M  V30 891 O 80.7853 1.03338 -5.36641 0
M  V30 892 H 77.8793 0.191143 -0.804608 0
M  V30 893 H 80.4253 -0.3716 -1.65581 0
M  V30 894 H 79.1973 -0.529611 -3.87699 0
M  V30 895 H 78.8203 1.18348 -3.79578 0
M  V30 896 N 79.8174 1.5752 -0.0501392 0
M  V30 897 C 80.7474 2.14502 0.922566 0
M  V30 898 C 81.7284 1.06642 1.3252 0
M  V30 899 O 82.9134 1.34577 1.4001 0
M  V30 900 C 80.0434 2.68916 2.19776 0
M  V30 901 C 78.9974 3.8175 1.93523 0
M  V30 902 C 78.3234 4.22677 3.27487 0
M  V30 903 C 79.6234 5.06932 1.25765 0
M  V30 904 H 81.3174 2.9603 0.447952 0
M  V30 905 H 78.8634 1.42401 0.214024 0
M  V30 906 H 80.8164 3.07419 2.88222 0
M  V30 907 H 79.5404 1.84578 2.69441 0
M  V30 908 H 78.1994 3.43718 1.27489 0
M  V30 909 H 77.8474 3.35291 3.74952 0
M  V30 910 H 77.5474 4.98725 3.1072 0
M  V30 911 H 79.0714 4.63779 3.97166 0
M  V30 912 H 80.4854 5.42888 1.84244 0
M  V30 913 H 78.8824 5.88116 1.19328 0
M  V30 914 H 79.9524 4.84337 0.233536 0
M  V30 915 N 81.2955 -0.223234 1.56011 0
M  V30 916 C 82.2255 -1.27988 1.95298 0
M  V30 917 C 83.2065 -1.48976 0.820979 0
M  V30 918 O 84.3915 -1.61188 1.08315 0
M  V30 919 C 81.5215 -2.63 2.26822 0
M  V30 920 C 80.4755 -2.56671 3.42497 0
M  V30 921 C 79.8015 -3.95697 3.59622 0
M  V30 922 C 81.1015 -2.11601 4.77517 0
M  V30 923 H 82.7955 -0.953525 2.8381 0
M  V30 924 H 80.3415 -0.457244 1.36548 0
M  V30 925 H 82.2945 -3.37077 2.52898 0
M  V30 926 H 81.0185 -2.9732 1.35161 0
M  V30 927 H 79.6775 -1.85051 3.16467 0
M  V30 928 H 79.3255 -4.27322 2.6534 0
M  V30 929 H 79.0255 -3.92345 4.37424 0
M  V30 930 H 80.5495 -4.71438 3.88044 0
M  V30 931 H 81.9635 -2.7542 5.02809 0
M  V30 932 H 80.3605 -2.19311 5.5859 0
M  V30 933 H 81.4305 -1.06824 4.72987 0
M  V30 934 N 82.7736 -1.49793 -0.48987 0
M  V30 935 C 83.6836 -1.70036 -1.61632 0
M  V30 936 C 84.6996 -0.583102 -1.63939 0
M  V30 937 O 85.8756 -0.859169 -1.82154 0
M  V30 938 C 82.9406 -1.77277 -2.97949 0
M  V30 939 C 82.0016 -3.00918 -3.06181 0
M  V30 940 C 81.2346 -3.07804 -4.35996 0
M  V30 941 O 81.4576 -2.21982 -5.25433 0
M  V30 942 O 80.3916 -4.00369 -4.49431 0
M  V30 943 H 84.2176 -2.65486 -1.47482 0
M  V30 944 H 81.8026 -1.33666 -0.667362 0
M  V30 945 H 83.6846 -1.84329 -3.78947 0
M  V30 946 H 82.3596 -0.850076 -3.12339 0
M  V30 947 H 81.2666 -2.99377 -2.2433 0
M  V30 948 H 82.5996 -3.92704 -2.96723 0
M  V30 949 N 84.2517 0.741722 -1.39055 0
M  V30 950 C 85.6677 1.04638 -1.20512 0
M  V30 951 C 85.8677 2.01405 -0.0620218 0
M  V30 952 O 84.9237 2.45547 0.588457 0
M  V30 953 C 86.2367 1.6151 -2.53643 0
M  V30 954 C 87.7847 1.73623 -2.6043 0
M  V30 955 C 88.2597 2.33906 -3.93767 0
M  V30 956 N 89.7507 2.41323 -3.9537 0
M  V30 957 C 90.4857 2.88888 -4.95309 0
M  V30 958 N 89.9817 3.36401 -6.05645 0
M  V30 959 N 91.7747 2.88037 -4.82692 0
M  V30 960 H 83.9257 0.0998155 -2.12165 0
M  V30 961 H 86.1887 0.106907 -0.941953 0
M  V30 962 H 85.8947 0.978739 -3.37807 0
M  V30 963 H 85.7687 2.60411 -2.72885 0
M  V30 964 H 88.1557 2.36384 -1.76655 0
M  V30 965 H 88.2367 0.733945 -2.45045 0
M  V30 966 H 87.8807 1.71776 -4.7797 0
M  V30 967 H 87.8107 3.34799 -4.06469 0
M  V30 968 H 90.3017 2.07734 -3.15682 0
M  V30 969 H 90.6147 3.71186 -6.77821 0
M  V30 970 H 88.9597 3.34427 -6.09248 0
M  V30 971 H 92.1507 2.50237 -3.95599 0
M  V30 972 H 92.3237 3.24792 -5.60726 0
M  V30 973 N 85.7298 1.2412 0.971189 0
M  V30 974 C 86.6598 1.05508 2.08304 0
M  V30 975 C 87.6408 -0.0308864 1.70072 0
M  V30 976 O 88.8258 0.135521 1.93727 0
M  V30 977 C 85.9558 0.655365 3.4106 0
M  V30 978 C 84.9098 1.68971 3.93234 0
M  V30 979 C 84.2358 1.14516 5.22293 0
M  V30 980 C 85.5358 3.08487 4.21465 0
M  V30 981 H 87.2298 1.98507 2.24132 0
M  V30 982 H 84.7758 0.955821 1.07704 0
M  V30 983 H 86.7288 0.51217 4.18276 0
M  V30 984 H 85.4528 -0.31032 3.25122 0
M  V30 985 H 84.1118 1.82106 3.18171 0
M  V30 986 H 83.7598 0.170189 5.02712 0
M  V30 987 H 83.4598 1.83635 5.58168 0
M  V30 988 H 84.9838 1.01401 6.02121 0
M  V30 989 H 86.3978 2.98601 4.89398 0
M  V30 990 H 84.7948 3.74926 4.68562 0
M  V30 991 H 85.8648 3.56787 3.28376 0
M  V30 992 N 87.2079 -1.17134 1.05439 0
M  V30 993 C 88.4569 -1.86791 0.761049 0
M  V30 994 C 88.7699 -1.82072 -0.714795 0
M  V30 995 O 89.9759 -2.47223 -1.12218 0
M  V30 996 C 88.4319 -3.35166 1.31117 0
M  V30 997 C 88.0399 -3.48381 2.81664 0
M  V30 998 C 89.7839 -4.10134 1.09499 0
M  V30 999 C 87.6909 -4.90793 3.29964 0
M  V30 1000 H 86.6209 -0.699681 0.281002 0
M  V30 1001 H 89.2719 -1.3226 1.27199 0
M  V30 1002 H 87.6539 -3.8925 0.72803 0
M  V30 1003 H 88.8279 -3.04502 3.45855 0
M  V30 1004 H 87.1429 -2.86836 3.01851 0
M  V30 1005 H 89.7399 -5.152 1.43084 0
M  V30 1006 H 90.0829 -4.16287 0.0328772 0
M  V30 1007 H 90.6159 -3.62264 1.64346 0
M  V30 1008 H 87.3549 -4.89816 4.35616 0
M  V30 1009 H 86.8749 -5.35333 2.70516 0
M  V30 1010 H 88.5539 -5.59573 3.24787 0
M  V30 1011 N 88.686 -0.835752 -1.33615 0
M  V30 1012 C 89.914 -0.443344 -2.02094 0
M  V30 1013 C 90.329 0.954522 -1.62894 0
M  V30 1014 O 89.686 1.61982 -0.840723 0
M  V30 1015 C 89.737 -0.550775 -3.5728 0
M  V30 1016 O 89.458 -1.89356 -3.95065 0
M  V30 1017 C 90.959 -0.154919 -4.43029 0
M  V30 1018 H 88.179 -0.176359 -0.647409 0
M  V30 1019 H 90.723 -1.12746 -1.70612 0
M  V30 1020 H 88.878 0.0853997 -3.87306 0
M  V30 1021 H 89.292 -1.87687 -4.89769 0
M  V30 1022 H 90.766 -0.281144 -5.51284 0
M  V30 1023 H 91.243 0.902863 -4.2982 0
M  V30 1024 H 91.849 -0.765404 -4.18356 0
M  V30 1025 N 90.1641 1.46063 -0.591896 0
M  V30 1026 C 91.0941 2.33172 0.123673 0
M  V30 1027 C 92.0751 1.45897 0.87453 0
M  V30 1028 O 93.2601 1.74698 0.848181 0
M  V30 1029 C 90.3901 3.28336 1.13194 0
M  V30 1030 C 89.3441 4.25124 0.495324 0
M  V30 1031 C 88.6701 5.09863 1.61071 0
M  V30 1032 C 89.9701 5.19143 -0.573425 0
M  V30 1033 H 91.6641 2.93252 -0.603646 0
M  V30 1034 H 89.2101 1.41014 -0.291741 0
M  V30 1035 H 91.1631 3.88137 1.64097 0
M  V30 1036 H 89.8871 2.66383 1.88965 0
M  V30 1037 H 88.5461 3.66599 0.00729452 0
M  V30 1038 H 88.1941 4.44288 2.35832 0
M  V30 1039 H 87.8941 5.75417 1.19035 0
M  V30 1040 H 89.4181 5.72529 2.12233 0
M  V30 1041 H 90.8321 5.73106 -0.1491 0
M  V30 1042 H 89.2291 5.93089 -0.914636 0
M  V30 1043 H 90.2991 4.62519 -1.45617 0
M  V30 1044 N 91.6422 0.330177 1.54103 0
M  V30 1045 C 92.8902 -0.269871 2.0029 0
M  V30 1046 C 93.2112 -1.52133 1.21986 0
M  V30 1047 O 92.4812 -1.93212 0.323438 0
M  V30 1048 H 91.0612 -0.10271 0.739905 0
M  V30 1049 H 93.7232 0.448249 1.89675 0
M  V30 1050 H 92.8192 -0.52166 3.07709 0
M  V30 1051 N 93.1203 -1.57491 0.0584922 0
M  V30 1052 C 94.0673 -2.11958 -0.913376 0
M  V30 1053 C 95.0373 -1.02875 -1.30407 0
M  V30 1054 O 96.2223 -1.30464 -1.39226 0
M  V30 1055 C 93.3623 -2.67497 -2.18035 0
M  V30 1056 C 92.4753 -3.90691 -1.84349 0
M  V30 1057 C 91.6103 -4.3452 -3.05559 0
M  V30 1058 C 90.6493 -5.50395 -2.67827 0
M  V30 1059 N 89.7863 -5.89244 -3.81754 0
M  V30 1060 H 94.6263 -2.94704 -0.442017 0
M  V30 1061 H 92.1633 -1.45643 -0.206545 0
M  V30 1062 H 94.1213 -2.978 -2.92183 0
M  V30 1063 H 92.7513 -1.87537 -2.62735 0
M  V30 1064 H 91.8033 -3.66934 -1.00319 0
M  V30 1065 H 93.1153 -4.7489 -1.5258 0
M  V30 1066 H 92.2693 -4.66414 -3.87998 0
M  V30 1067 H 91.0083 -3.49147 -3.40511 0
M  V30 1068 H 90.0133 -5.18165 -1.83806 0
M  V30 1069 H 91.2383 -6.3749 -2.34059 0
M  V30 1070 H 89.1843 -5.06823 -4.16493 0
M  V30 1071 H 89.1013 -6.68151 -3.53708 0
M  V30 1072 H 90.3693 -6.25756 -4.64811 0
M  V30 1073 N 94.5984 0.214957 -1.56127 0
M  V30 1074 C 95.5614 1.24997 -1.92116 0
M  V30 1075 C 96.5614 1.39467 -0.800344 0
M  V30 1076 O 97.7514 1.37619 -1.06802 0
M  V30 1077 C 94.8834 2.62271 -2.17777 0
M  V30 1078 H 96.0764 0.942875 -2.84693 0
M  V30 1079 H 93.6294 0.455654 -1.49511 0
M  V30 1080 H 94.3644 2.98068 -1.27773 0
M  V30 1081 H 94.1494 2.53143 -2.99434 0
M  V30 1082 H 95.6394 3.36946 -2.46693 0
M  V30 1083 N 96.0765 1.50051 0.48192 0
M  V30 1084 C 97.0265 1.64512 1.5786 0
M  V30 1085 C 98.0105 0.500073 1.52932 0
M  V30 1086 O 99.2025 0.753964 1.60139 0
M  V30 1087 C 96.3315 1.73263 2.9637 0
M  V30 1088 C 95.4175 2.93409 3.06222 0
M  V30 1089 N 95.8085 4.17236 2.85915 0
M  V30 1090 C 94.1065 2.91742 3.37346 0
M  V30 1091 C 94.8075 4.981 3.00451 0
M  V30 1092 N 93.7835 4.3184 3.30174 0
M  V30 1093 H 97.5855 2.57955 1.40842 0
M  V30 1094 H 95.0995 1.47086 0.688439 0
M  V30 1095 H 97.0965 1.81724 3.75209 0
M  V30 1096 H 95.7565 0.809711 3.14442 0
M  V30 1097 H 96.7675 4.46909 2.6171 0
M  V30 1098 H 93.4445 2.08907 3.61475 0
M  V30 1099 H 94.8345 6.06532 2.89082 0
M  V30 1100 N 97.5546 -0.734337 1.39446 0
M  V30 1101 C 98.5046 -1.83949 1.34709 0
M  V30 1102 C 99.4886 -1.59279 0.227851 0
M  V30 1103 O 100.681 -1.70771 0.465438 0
M  V30 1104 C 97.8096 -3.21884 1.19356 0
M  V30 1105 C 96.8956 -3.52381 2.35984 0
M  V30 1106 N 97.2866 -3.53811 3.61457 0
M  V30 1107 C 95.5846 -3.82747 2.28956 0
M  V30 1108 C 96.2856 -3.82122 4.38586 0
M  V30 1109 N 95.2616 -3.9993 3.68181 0
M  V30 1110 H 99.0636 -1.83361 2.29687 0
M  V30 1111 H 96.5776 -0.932609 1.32952 0
M  V30 1112 H 98.5746 -4.00998 1.14046 0
M  V30 1113 H 97.2346 -3.23711 0.253295 0
M  V30 1114 H 98.2456 -3.35107 3.94872 0
M  V30 1115 H 94.9226 -3.92175 1.43194 0
M  V30 1116 H 96.3126 -3.89691 5.47349 0
M  V30 1117 N 99.0327 -1.24633 -0.964593 0
M  V30 1118 C 99.9627 -1.06611 -2.07741 0
M  V30 1119 C 100.944 0.0218666 -1.70086 0
M  V30 1120 O 102.129 -0.145793 -1.93652 0
M  V30 1121 C 99.2587 -0.673444 -3.40708 0
M  V30 1122 C 98.2127 -1.71054 -3.92332 0
M  V30 1123 C 97.5387 -1.17285 -5.21678 0
M  V30 1124 C 98.8387 -3.10718 -4.19824 0
M  V30 1125 H 100.533 -1.99693 -2.23076 0
M  V30 1126 H 98.0787 -0.96152 -1.07195 0
M  V30 1127 H 100.032 -0.534345 -4.17998 0
M  V30 1128 H 98.7557 0.293073 -3.25282 0
M  V30 1129 H 97.4147 -1.83791 -3.17201 0
M  V30 1130 H 97.0627 -0.196847 -5.02615 0
M  V30 1131 H 96.7627 -1.86592 -5.57187 0
M  V30 1132 H 98.2867 -1.04593 -6.01575 0
M  V30 1133 H 99.7007 -3.01192 -4.87808 0
M  V30 1134 H 98.0977 -3.77406 -4.66567 0
M  V30 1135 H 99.1677 -3.58524 -3.26479 0
M  V30 1136 N 100.511 1.16574 -1.06058 0
M  V30 1137 C 101.788 1.83048 -0.689416 0
M  V30 1138 C 102.168 1.94122 0.829443 0
M  V30 1139 O 101.516 1.48249 1.7388 0
M  V30 1140 C 101.726 3.20186 -1.38859 0
M  V30 1141 C 103.074 3.95989 -1.53226 0
M  V30 1142 O 104.098 3.29696 -1.3483 0
M  V30 1143 O 102.957 5.14813 -1.83384 0
M  V30 1144 H 100.051 0.790258 -0.243764 0
M  V30 1145 H 102.597 1.23797 -1.16071 0
M  V30 1146 H 101.369 3.07146 -2.4244 0
M  V30 1147 H 100.992 3.87112 -0.907216 0
M  V30 1148 N 101.989 0.842826 1.3317 0
M  V30 1149 C 102.952 0.284065 2.27433 0
M  V30 1150 C 103.952 -0.54948 1.5112 0
M  V30 1151 O 105.142 -0.362699 1.70382 0
M  V30 1152 C 102.274 -0.599384 3.35589 0
M  V30 1153 H 103.467 1.11589 2.78366 0
M  V30 1154 H 101.02 0.616221 1.4364 0
M  V30 1155 H 101.755 -1.45349 2.89904 0
M  V30 1156 H 101.54 -0.00291266 3.921 0
M  V30 1157 H 103.03 -0.983488 4.05854 0
M  V30 1158 N 103.467 -1.45747 0.599634 0
M  V30 1159 C 104.417 -2.27538 -0.145107 0
M  V30 1160 C 105.401 -1.3686 -0.846055 0
M  V30 1161 O 106.593 -1.6091 -0.737357 0
M  V30 1162 C 103.722 -3.23569 -1.14708 0
M  V30 1163 C 102.808 -4.21734 -0.447383 0
M  V30 1164 N 103.199 -5.03257 0.506535 0
M  V30 1165 C 101.497 -4.40536 -0.695966 0
M  V30 1166 C 102.198 -5.74426 0.917068 0
M  V30 1167 N 101.174 -5.42966 0.26253 0
M  V30 1168 H 104.976 -2.87965 0.587672 0
M  V30 1169 H 102.49 -1.56803 0.422697 0
M  V30 1170 H 104.487 -3.8089 -1.69495 0
M  V30 1171 H 103.147 -2.64702 -1.8805 0
M  V30 1172 H 104.158 -5.10319 0.882899 0
M  V30 1173 H 100.835 -3.92802 -1.41467 0
M  V30 1174 H 102.225 -6.4995 1.70338 0
M  V30 1175 N 104.945 -0.338344 -1.53925 0
M  V30 1176 C 106.175 0.260919 -2.04946 0
M  V30 1177 C 106.583 1.45174 -1.2133 0
M  V30 1178 O 105.926 1.82122 -0.240262 0
M  V30 1179 C 105.988 0.744596 -3.51704 0
M  V30 1180 C 105.652 -0.325883 -4.55837 0
M  V30 1181 C 106.649 -1.16687 -5.06636 0
M  V30 1182 C 104.334 -0.478317 -5.00017 0
M  V30 1183 C 106.328 -2.14588 -6.00192 0
M  V30 1184 C 104.015 -1.46073 -5.93385 0
M  V30 1185 C 105.013 -2.29297 -6.4336 0
M  V30 1186 O 104.701 -3.25867 -7.34892 0
M  V30 1187 H 104.433 0.0551207 -0.673749 0
M  V30 1188 H 106.987 -0.486984 -1.99544 0
M  V30 1189 H 105.217 1.54366 -3.54553 0
M  V30 1190 H 106.906 1.26383 -3.85723 0
M  V30 1191 H 107.672 -1.06016 -4.73271 0
M  V30 1192 H 103.551 0.159613 -4.60724 0
M  V30 1193 H 107.095 -2.79585 -6.39123 0
M  V30 1194 H 102.992 -1.56802 -6.26166 0
M  V30 1195 H 103.76 -3.21278 -7.5281 0
M  V30 1196 N 106.423 1.57458 -0.0668435 0
M  V30 1197 C 107.672 1.92477 0.602947 0
M  V30 1198 C 107.985 0.948419 1.71068 0
M  V30 1199 O 109.191 1.19124 2.43971 0
M  V30 1200 C 107.647 3.41903 1.12383 0
M  V30 1201 C 107.255 4.47975 0.04737 0
M  V30 1202 C 108.999 3.85931 1.76797 0
M  V30 1203 C 106.906 5.88529 0.582022 0
M  V30 1204 H 105.836 0.718387 0.22899 0
M  V30 1205 H 108.487 1.82978 -0.138276 0
M  V30 1206 H 106.869 3.46459 1.91787 0
M  V30 1207 H 108.043 4.55029 -0.726978 0
M  V30 1208 H 106.358 4.13384 -0.500243 0
M  V30 1209 H 108.955 4.88322 2.17821 0
M  V30 1210 H 109.298 3.23029 2.62599 0
M  V30 1211 H 109.831 3.83958 1.04024 0
M  V30 1212 H 106.57 6.55065 -0.238721 0
M  V30 1213 H 106.09 5.85004 1.324 0
M  V30 1214 H 107.769 6.38258 1.05999 0
M  V30 1215 N 107.901 -0.206675 1.56239 0
M  V30 1216 C 109.129 -0.945345 1.8404 0
M  V30 1217 C 109.544 -1.77336 0.647885 0
M  V30 1218 O 108.901 -1.78425 -0.383511 0
M  V30 1219 C 108.952 -1.8509 3.10522 0
M  V30 1220 O 108.673 -1.05634 4.25174 0
M  V30 1221 C 110.174 -2.70222 3.51418 0
M  V30 1222 H 107.394 -0.276372 0.61144 0
M  V30 1223 H 109.938 -0.217417 2.03341 0
M  V30 1224 H 108.093 -2.53259 2.93153 0
M  V30 1225 H 108.507 -1.67238 4.97124 0
M  V30 1226 H 109.981 -3.29438 4.42916 0
M  V30 1227 H 110.458 -3.43358 2.73864 0
M  V30 1228 H 111.064 -2.07443 3.71278 0
M  V30 1229 N 109.379 -1.50304 -0.473955 0
M  V30 1230 C 110.795 -1.37667 -0.807466 0
M  V30 1231 C 110.995 -0.430555 -1.96846 0
M  V30 1232 O 110.051 0.127874 -2.52176 0
M  V30 1233 C 111.364 -2.78974 -1.12223 0
M  V30 1234 C 112.912 -2.87868 -1.22885 0
M  V30 1235 C 113.387 -4.30003 -1.57676 0
M  V30 1236 N 114.878 -4.3294 -1.64673 0
M  V30 1237 C 115.613 -5.3991 -1.93091 0
M  V30 1238 N 115.109 -6.57092 -2.1955 0
M  V30 1239 N 116.902 -5.27351 -1.94569 0
M  V30 1240 H 109.053 -2.10394 0.291212 0
M  V30 1241 H 111.316 -0.945575 0.0677609 0
M  V30 1242 H 111.022 -3.50031 -0.342229 0
M  V30 1243 H 110.896 -3.16038 -2.05913 0
M  V30 1244 H 113.283 -2.17032 -1.99953 0
M  V30 1245 H 113.364 -2.54352 -0.271814 0
M  V30 1246 H 113.008 -5.01375 -0.81149 0
M  V30 1247 H 112.938 -4.61004 -2.54525 0
M  V30 1248 H 115.429 -3.48441 -1.46277 0
M  V30 1249 H 115.742 -7.34425 -2.405 0
M  V30 1250 H 114.087 -6.60272 -2.16948 0
M  V30 1251 H 117.278 -4.34801 -1.73394 0
M  V30 1252 H 117.451 -6.10805 -2.16381 0
M  V30 1253 N 110.857 0.726932 -1.39834 0
M  V30 1254 C 111.787 1.85405 -1.41941 0
M  V30 1255 C 112.768 1.67751 -0.281728 0
M  V30 1256 O 113.953 1.8795 -0.488717 0
M  V30 1257 C 111.083 3.23243 -1.2701 0
M  V30 1258 C 110.037 3.55549 -2.38262 0
M  V30 1259 C 109.363 4.9241 -2.08415 0
M  V30 1260 C 110.663 3.577 -3.80589 0
M  V30 1261 H 112.357 1.83899 -2.36266 0
M  V30 1262 H 109.903 0.883349 -1.13723 0
M  V30 1263 H 111.856 4.01775 -1.27103 0
M  V30 1264 H 110.58 3.25296 -0.291564 0
M  V30 1265 H 109.239 2.79351 -2.37399 0
M  V30 1266 H 108.887 4.91052 -1.0898 0
M  V30 1267 H 108.587 5.14992 -2.82943 0
M  V30 1268 H 110.111 5.73289 -2.10171 0
M  V30 1269 H 111.525 4.26293 -3.83337 0
M  V30 1270 H 109.922 3.91804 -4.54543 0
M  V30 1271 H 110.992 2.57328 -4.10987 0
M  V30 1272 N 112.336 1.25143 0.95797 0
M  V30 1273 C 113.583 1.09692 1.70217 0
M  V30 1274 C 113.911 -0.362654 1.91089 0
M  V30 1275 O 113.166 -1.28386 1.47701 0
M  V30 1276 C 113.465 1.79272 3.09187 0
M  V30 1277 C 113.131 3.29196 3.08125 0
M  V30 1278 C 111.793 3.70096 3.07543 0
M  V30 1279 C 114.145 4.24995 3.0171 0
M  V30 1280 C 111.473 5.05213 2.9829 0
M  V30 1281 C 113.825 5.60132 2.93999 0
M  V30 1282 C 112.489 6.00365 2.9175 0
M  V30 1283 H 111.759 0.401393 0.622868 0
M  V30 1284 H 114.406 1.55372 1.11945 0
M  V30 1285 H 112.711 1.26014 3.70982 0
M  V30 1286 H 114.408 1.64773 3.65583 0
M  V30 1287 H 110.998 2.96651 3.09348 0
M  V30 1288 H 115.182 3.9439 3.01281 0
M  V30 1289 H 110.438 5.35569 2.94916 0
M  V30 1290 H 114.612 6.3406 2.87996 0
M  V30 1291 H 112.239 7.05023 2.84336 0
M  V30 1292 N 113.814 -1.1601 1.06675 0
M  V30 1293 C 114.746 -2.20115 0.638921 0
M  V30 1294 C 115.759 -1.59916 -0.305057 0
M  V30 1295 O 116.948 -1.78245 -0.0954446 0
M  V30 1296 C 114.048 -3.38798 -0.0830083 0
M  V30 1297 C 113.221 -4.2855 0.875426 0
M  V30 1298 C 112.28 -5.25849 0.192042 0
M  V30 1299 O 111.306 -5.63102 0.830921 0
M  V30 1300 N 112.508 -5.70648 -1.06493 0
M  V30 1301 H 115.273 -2.57439 1.53444 0
M  V30 1302 H 112.834 -1.31057 0.950557 0
M  V30 1303 H 114.826 -4.00936 -0.550685 0
M  V30 1304 H 113.396 -2.99947 -0.880386 0
M  V30 1305 H 112.616 -3.63617 1.52238 0
M  V30 1306 H 113.904 -4.85393 1.52548 0
M  V30 1307 H 113.302 -5.42482 -1.60405 0
M  V30 1308 H 111.859 -6.34859 -1.47641 0
M  V30 1309 N 115.292 -0.849877 -1.32721 0
M  V30 1310 C 116.222 -0.306308 -2.31482 0
M  V30 1311 C 117.203 0.591952 -1.59468 0
M  V30 1312 O 118.388 0.513199 -1.87296 0
M  V30 1313 C 115.518 0.510204 -3.43532 0
M  V30 1314 C 114.472 -0.293209 -4.26994 0
M  V30 1315 C 113.798 0.647743 -5.30762 0
M  V30 1316 C 115.098 -1.51634 -4.99804 0
M  V30 1317 H 116.792 -1.13153 -2.77195 0
M  V30 1318 H 114.338 -0.545553 -1.33266 0
M  V30 1319 H 116.291 0.900856 -4.11658 0
M  V30 1320 H 115.015 1.36874 -2.96535 0
M  V30 1321 H 113.674 -0.665555 -3.60508 0
M  V30 1322 H 113.322 1.50299 -4.8002 0
M  V30 1323 H 113.022 0.11422 -5.87489 0
M  V30 1324 H 114.546 1.03567 -6.01753 0
M  V30 1325 H 115.96 -1.19824 -5.60638 0
M  V30 1326 H 114.357 -1.98745 -5.66234 0
M  V30 1327 H 115.427 -2.28018 -4.27943 0
M  V30 1328 N 116.77 1.45427 -0.607355 0
M  V30 1329 C 118.019 2.01452 -0.100036 0
M  V30 1330 C 118.332 1.48159 1.27704 0
M  V30 1331 O 119.538 1.96159 1.87707 0
M  V30 1332 C 117.994 3.59672 -0.128158 0
M  V30 1333 C 117.602 4.21962 -1.50507 0
M  V30 1334 C 119.346 4.23262 0.323932 0
M  V30 1335 C 117.253 5.72333 -1.48959 0
M  V30 1336 H 116.183 0.75325 -0.0336299 0
M  V30 1337 H 118.834 1.66901 -0.76265 0
M  V30 1338 H 117.216 3.91411 0.601105 0
M  V30 1339 H 118.39 4.01796 -2.25602 0
M  V30 1340 H 116.705 3.70565 -1.89923 0
M  V30 1341 H 119.302 5.33522 0.354691 0
M  V30 1342 H 119.645 3.93921 1.34656 0
M  V30 1343 H 120.178 3.96239 -0.352056 0
M  V30 1344 H 116.917 6.06373 -2.48981 0
M  V30 1345 H 116.437 5.94691 -0.781214 0
M  V30 1346 H 118.116 6.35525 -1.21313 0
M  V30 1347 N 118.248 0.346503 1.53744 0
M  V30 1348 C 119.497 -0.250122 2.00143 0
M  V30 1349 C 119.81 -1.51418 1.23822 0
M  V30 1350 O 121.016 -2.18823 1.60713 0
M  V30 1351 C 119.472 -0.496252 3.56462 0
M  V30 1352 C 119.08 0.752077 4.41642 0
M  V30 1353 C 120.824 -1.05157 4.11269 0
M  V30 1354 C 118.731 0.476583 5.89477 0
M  V30 1355 H 117.661 -0.0972409 0.747703 0
M  V30 1356 H 120.312 0.46229 1.77581 0
M  V30 1357 H 118.694 -1.26944 3.75102 0
M  V30 1358 H 119.868 1.5266 4.34778 0
M  V30 1359 H 118.183 1.22925 3.97842 0
M  V30 1360 H 120.78 -1.27269 5.19333 0
M  V30 1361 H 121.123 -2.00799 3.64672 0
M  V30 1362 H 121.656 -0.339019 3.96353 0
M  V30 1363 H 118.395 1.4028 6.40314 0
M  V30 1364 H 117.915 -0.259794 5.99237 0
M  V30 1365 H 119.594 0.0949315 6.4693 0
M  V30 1366 N 119.726 -1.57421 0.075193 0
M  V30 1367 C 120.636 -2.1642 -0.905511 0
M  V30 1368 C 121.652 -1.12828 -1.32461 0
M  V30 1369 O 122.828 -1.45109 -1.39661 0
M  V30 1370 C 119.893 -2.71693 -2.15369 0
M  V30 1371 C 118.954 -3.90171 -1.79068 0
M  V30 1372 C 118.187 -4.42798 -2.97936 0
M  V30 1373 O 118.41 -3.94416 -4.12058 0
M  V30 1374 O 117.344 -5.34085 -2.77555 0
M  V30 1375 H 121.17 -3.00588 -0.433626 0
M  V30 1376 H 118.755 -1.48664 -0.148067 0
M  V30 1377 H 120.637 -3.07104 -2.88557 0
M  V30 1378 H 119.312 -1.90582 -2.61649 0
M  V30 1379 H 118.219 -3.59606 -1.03122 0
M  V30 1380 H 119.552 -4.72584 -1.37569 0
M  V30 1381 N 121.204 0.198386 -1.56346 0
M  V30 1382 C 122.481 0.944982 -1.71258 0
M  V30 1383 C 122.861 2.0151 -0.629048 0
M  V30 1384 O 122.209 2.25639 0.360473 0
M  V30 1385 C 122.419 1.5344 -3.1346 0
M  V30 1386 C 123.767 2.01778 -3.73591 0
M  V30 1387 O 124.791 1.63288 -3.16568 0
M  V30 1388 O 123.65 2.72594 -4.73661 0
M  V30 1389 H 120.744 0.442939 -0.69838 0
M  V30 1390 H 123.29 0.188342 -1.68652 0
M  V30 1391 H 122.062 0.762869 -3.83792 0
M  V30 1392 H 121.685 2.35596 -3.20282 0
M  V30 1393 N 122.682 1.50554 0.465978 0
M  V30 1394 C 123.907 1.65838 1.24549 0
M  V30 1395 C 124.332 0.343486 1.84937 0
M  V30 1396 O 123.69 -0.69324 1.67523 0
M  V30 1397 C 123.738 2.75533 2.32624 0
M  V30 1398 O 122.842 2.37142 3.37398 0
M  V30 1399 H 122.183 0.553893 0.366194 0
M  V30 1400 H 124.713 1.96959 0.553927 0
M  V30 1401 H 124.723 2.98763 2.77857 0
M  V30 1402 H 123.398 3.70962 1.88043 0
M  V30 1403 H 121.975 2.24377 2.97841 0
M  V30 1404 N 124.16 -0.719506 1.40217 0
M  V30 1405 C 125.406 -1.48152 1.38488 0
M  V30 1406 C 125.739 -1.94195 -0.0141867 0
M  V30 1407 O 125.014 -1.67884 -0.982096 0
M  V30 1408 C 125.297 -2.71035 2.37091 0
M  V30 1409 C 125.15 -2.30912 3.86005 0
M  V30 1410 C 126.469 -3.73182 2.33288 0
M  V30 1411 H 123.588 -0.537395 0.504357 0
M  V30 1412 H 126.23 -0.821472 1.71324 0
M  V30 1413 H 124.38 -3.27352 2.0922 0
M  V30 1414 H 126.052 -1.80107 4.24687 0
M  V30 1415 H 124.295 -1.62958 4.02029 0
M  V30 1416 H 124.966 -3.18978 4.50508 0
M  V30 1417 H 127.442 -3.26485 2.57966 0
M  V30 1418 H 126.318 -4.56806 3.04334 0
M  V30 1419 H 126.579 -4.21202 1.34317 0
M  V30 1420 N 125.638 -1.25649 -0.95132 0
M  V30 1421 C 126.568 -1.08808 -2.06599 0
M  V30 1422 C 127.549 0.00382547 -1.701 0
M  V30 1423 O 128.734 -0.166325 -1.93486 0
M  V30 1424 C 125.864 -0.709542 -3.39975 0
M  V30 1425 C 124.818 -1.75206 -3.90496 0
M  V30 1426 C 124.144 -1.22811 -5.20405 0
M  V30 1427 C 125.444 -3.15153 -4.16504 0
M  V30 1428 H 127.138 -2.02048 -2.20946 0
M  V30 1429 H 124.684 -0.972835 -1.06169 0
M  V30 1430 H 126.637 -0.578649 -4.17408 0
M  V30 1431 H 125.361 0.258556 -3.25575 0
M  V30 1432 H 124.02 -1.87145 -3.15234 0
M  V30 1433 H 123.668 -0.250145 -5.02378 0
M  V30 1434 H 123.368 -1.92492 -5.55176 0
M  V30 1435 H 124.892 -1.10968 -6.00432 0
M  V30 1436 H 126.306 -3.06349 -4.84586 0
M  V30 1437 H 124.703 -3.82333 -4.62538 0
M  V30 1438 H 125.773 -3.61966 -3.22658 0
M  V30 1439 N 127.117 1.15442 -1.07289 0
M  V30 1440 C 128.345 1.90096 -0.81676 0
M  V30 1441 C 128.76 1.7798 0.629966 0
M  V30 1442 O 128.117 1.1313 1.43206 0
M  V30 1443 C 128.168 3.40466 -1.21512 0
M  V30 1444 O 127.889 3.52232 -2.60508 0
M  V30 1445 C 129.39 4.32145 -0.988198 0
M  V30 1446 H 126.61 0.602495 -0.295366 0
M  V30 1447 H 129.154 1.4627 -1.42918 0
M  V30 1448 H 127.309 3.81958 -0.647039 0
M  V30 1449 H 127.723 4.45549 -2.76742 0
M  V30 1450 H 129.197 5.36072 -1.31645 0
M  V30 1451 H 129.674 4.39135 0.0755063 0
M  V30 1452 H 130.28 3.96395 -1.54115 0
M  V30 1453 N 128.595 0.856903 1.32268 0
M  V30 1454 C 129.527 0.260412 2.27716 0
M  V30 1455 C 130.54 -0.569137 1.52528 0
M  V30 1456 O 131.729 -0.39326 1.74114 0
M  V30 1457 C 128.829 -0.650477 3.32599 0
M  V30 1458 C 128.002 0.14372 4.37164 0
M  V30 1459 C 127.061 -0.69328 5.21613 0
M  V30 1460 O 126.087 -0.12599 5.69061 0
M  V30 1461 N 127.289 -2.00761 5.44679 0
M  V30 1462 H 130.054 1.08059 2.79541 0
M  V30 1463 H 127.615 0.717103 1.45152 0
M  V30 1464 H 129.607 -1.21581 3.86005 0
M  V30 1465 H 128.177 -1.37133 2.80915 0
M  V30 1466 H 127.397 0.890486 3.8401 0
M  V30 1467 H 128.685 0.68915 5.04111 0
M  V30 1468 H 128.083 -2.49181 5.07863 0
M  V30 1469 H 126.64 -2.52103 6.01072 0
M  V30 1470 N 130.073 -1.45103 0.615059 0
M  V30 1471 C 131.005 -2.28786 -0.13762 0
M  V30 1472 C 132.018 -1.40376 -0.824525 0
M  V30 1473 O 133.207 -1.64681 -0.688662 0
M  V30 1474 C 130.307 -3.16322 -1.21628 0
M  V30 1475 C 129.48 -4.33054 -0.615039 0
M  V30 1476 C 128.539 -5.01743 -1.58556 0
M  V30 1477 O 127.565 -5.58293 -1.10895 0
M  V30 1478 N 128.767 -5.01714 -2.91998 0
M  V30 1479 H 131.532 -2.94025 0.580483 0
M  V30 1480 H 129.093 -1.55373 0.45507 0
M  V30 1481 H 131.085 -3.59139 -1.86552 0
M  V30 1482 H 129.655 -2.52943 -1.83681 0
M  V30 1483 H 128.875 -3.93627 0.21245 0
M  V30 1484 H 130.163 -5.08431 -0.193704 0
M  V30 1485 H 129.561 -4.57075 -3.33316 0
M  V30 1486 H 128.118 -5.48371 -3.52325 0
M  V30 1487 N 131.551 -0.354651 -1.53558 0
M  V30 1488 C 132.514 0.484566 -2.24019 0
M  V30 1489 C 133.514 1.01861 -1.24422 0
M  V30 1490 O 134.704 0.906097 -1.4878 0
M  V30 1491 C 131.836 1.67615 -2.96847 0
M  V30 1492 H 133.029 -0.131843 -2.9961 0
M  V30 1493 H 130.582 -0.106165 -1.55939 0
M  V30 1494 H 131.317 2.33095 -2.25471 0
M  V30 1495 H 131.102 1.30029 -3.69912 0
M  V30 1496 H 132.592 2.27114 -3.50441 0
M  V30 1497 N 133.029 1.57378 -0.0835403 0
M  V30 1498 C 133.959 2.1641 0.87686 0
M  V30 1499 C 134.94 1.09429 1.30228 0
M  V30 1500 O 136.125 1.37516 1.37124 0
M  V30 1501 C 133.255 2.73517 2.14022 0
M  V30 1502 C 132.209 3.85769 1.85381 0
M  V30 1503 C 131.535 4.29529 3.18448 0
M  V30 1504 C 132.835 5.09486 1.14984 0
M  V30 1505 H 134.529 2.96914 0.385059 0
M  V30 1506 H 132.075 1.42823 0.18377 0
M  V30 1507 H 134.028 3.13463 2.81636 0
M  V30 1508 H 132.752 1.90252 2.65465 0
M  V30 1509 H 131.411 3.46345 1.20169 0
M  V30 1510 H 131.059 3.43169 3.67755 0
M  V30 1511 H 130.759 5.05204 3.00071 0
M  V30 1512 H 132.283 4.72099 3.8724 0
M  V30 1513 H 133.697 5.46674 1.72687 0
M  V30 1514 H 132.094 5.90515 1.06826 0
M  V30 1515 H 133.164 4.84724 0.130749 0
M  V30 1516 N 134.507 -0.190092 1.56449 0
M  V30 1517 C 135.437 -1.23816 1.97969 0
M  V30 1518 C 136.418 -1.47201 0.852395 0
M  V30 1519 O 137.603 -1.58854 1.1171 0
M  V30 1520 C 134.733 -2.5813 2.3235 0
M  V30 1521 C 133.687 -2.49348 3.47864 0
M  V30 1522 C 133.013 -3.8798 3.67934 0
M  V30 1523 C 134.313 -2.01424 4.81898 0
M  V30 1524 H 136.007 -0.89311 2.85769 0
M  V30 1525 H 133.553 -0.428177 1.37487 0
M  V30 1526 H 135.506 -3.31637 2.59991 0
M  V30 1527 H 134.23 -2.94386 1.41438 0
M  V30 1528 H 132.889 -1.78297 3.20321 0
M  V30 1529 H 132.537 -4.21597 2.74344 0
M  V30 1530 H 132.237 -3.82978 4.45648 0
M  V30 1531 H 133.761 -4.63101 3.97957 0
M  V30 1532 H 135.175 -2.64693 5.08538 0
M  V30 1533 H 133.572 -2.07413 5.63116 0
M  V30 1534 H 134.642 -0.967677 4.75146 0
M  V30 1535 N 135.985 -1.50799 -0.457987 0
M  V30 1536 C 136.917 -1.66786 -1.57211 0
M  V30 1537 C 137.93 -0.548962 -1.53265 0
M  V30 1538 O 139.119 -0.8226 -1.58416 0
M  V30 1539 C 136.219 -1.64834 -2.96113 0
M  V30 1540 C 135.392 -2.92971 -3.24787 0
M  V30 1541 C 134.451 -2.83485 -4.43309 0
M  V30 1542 O 133.477 -3.5744 -4.42973 0
M  V30 1543 N 134.679 -1.97929 -5.45714 0
M  V30 1544 H 137.444 -2.62889 -1.43909 0
M  V30 1545 H 135.005 -1.48427 -0.646617 0
M  V30 1546 H 136.997 -1.56084 -3.7339 0
M  V30 1547 H 135.567 -0.764118 -3.03117 0
M  V30 1548 H 134.787 -3.15749 -2.36 0
M  V30 1549 H 136.075 -3.77834 -3.40762 0
M  V30 1550 H 135.473 -1.37182 -5.48815 0
M  V30 1551 H 134.03 -1.95073 -6.21924 0
M  V30 1552 N 137.463 0.71206 -1.40597 0
M  V30 1553 C 138.395 1.83704 -1.37061 0
M  V30 1554 C 139.408 1.60453 -0.275426 0
M  V30 1555 O 140.597 1.70262 -0.53602 0
M  V30 1556 C 137.697 3.20172 -1.11099 0
M  V30 1557 C 136.87 3.7059 -2.3234 0
M  V30 1558 C 135.929 4.85681 -2.02485 0
M  V30 1559 O 134.955 4.9815 -2.75382 0
M  V30 1560 N 136.157 5.71735 -1.00497 0
M  V30 1561 H 138.922 1.87235 -2.34016 0
M  V30 1562 H 136.483 0.893739 -1.34996 0
M  V30 1563 H 138.475 3.94768 -0.891064 0
M  V30 1564 H 137.045 3.11767 -0.227989 0
M  V30 1565 H 136.265 2.87085 -2.7014 0
M  V30 1566 H 137.553 4.01011 -3.13157 0
M  V30 1567 H 136.951 5.64275 -0.401298 0
M  V30 1568 H 135.508 6.463 -0.844942 0
M  V30 1569 N 138.941 1.26152 0.944643 0
M  V30 1570 C 139.891 1.04081 2.02857 0
M  V30 1571 C 140.875 -0.0256555 1.6088 0
M  V30 1572 O 142.067 0.190884 1.75968 0
M  V30 1573 C 139.196 0.672118 3.36656 0
M  V30 1574 C 138.282 1.77586 3.85128 0
M  V30 1575 N 138.673 3.01272 4.06287 0
M  V30 1576 C 136.971 1.65867 4.1401 0
M  V30 1577 C 137.672 3.72983 4.46384 0
M  V30 1578 N 136.648 3.00653 4.52889 0
M  V30 1579 H 140.45 1.97968 2.17223 0
M  V30 1580 H 137.964 1.16618 1.13022 0
M  V30 1581 H 139.961 0.495166 4.13949 0
M  V30 1582 H 138.621 -0.259307 3.23663 0
M  V30 1583 H 139.632 3.37213 3.93075 0
M  V30 1584 H 136.309 0.796907 4.09824 0
M  V30 1585 H 137.699 4.792 4.70975 0
M  V30 1586 N 140.419 -1.14872 1.07899 0
M  V30 1587 C 141.349 -2.2193 0.725887 0
M  V30 1588 C 142.33 -1.67622 -0.28927 0
M  V30 1589 O 143.515 -1.93533 -0.160787 0
M  V30 1590 C 140.645 -3.47061 0.128856 0
M  V30 1591 C 139.599 -4.14363 1.07178 0
M  V30 1592 C 138.925 -5.33636 0.337229 0
M  V30 1593 C 140.225 -4.63492 2.40775 0
M  V30 1594 H 141.919 -2.51724 1.62097 0
M  V30 1595 H 139.465 -1.20991 0.780838 0
M  V30 1596 H 141.418 -4.21199 -0.130147 0
M  V30 1597 H 140.142 -3.16617 -0.80134 0
M  V30 1598 H 138.801 -3.42173 1.3158 0
M  V30 1599 H 138.449 -4.99449 -0.596606 0
M  V30 1600 H 138.149 -5.79609 0.965788 0
M  V30 1601 H 139.673 -6.10539 0.0861567 0
M  V30 1602 H 141.087 -5.2913 2.20669 0
M  V30 1603 H 139.484 -5.20148 2.99276 0
M  V30 1604 H 140.554 -3.78834 3.02676 0
M  V30 1605 N 141.898 -0.863906 -1.31812 0
M  V30 1606 C 142.846 -0.30422 -2.30602 0
M  V30 1607 C 143.84 0.577419 -1.59255 0
M  V30 1608 O 145.046 0.464194 -1.73912 0
M  V30 1609 H 141.421 -0.0796877 -0.747766 0
M  V30 1610 H 143.392 -1.15148 -2.75288 0
M  V30 1611 C 142.141 0.484617 -3.44306 0
M  V30 1612 H 141.464 -0.18451 -3.99374 0
M  V30 1613 H 142.904 0.841664 -4.15562 0
M  V30 1614 C 141.363 1.6735 -2.92396 0
M  V30 1615 O 141.893 2.77273 -2.90659 0
M  V30 1616 N 140.099 1.50362 -2.48676 0
M  V30 1617 H 139.646 0.609402 -2.50288 0
M  V30 1618 H 139.604 2.30051 -2.14299 0
M  V30 1619 N 143.376 1.44774 -0.622745 0
M  V30 1620 C 144.323 2.30635 0.0871679 0
M  V30 1621 C 145.293 1.42994 0.845097 0
M  V30 1622 O 146.478 1.71907 0.827812 0
M  V30 1623 C 143.618 3.28144 1.06844 0
M  V30 1624 C 142.731 4.30888 0.309809 0
M  V30 1625 C 141.866 5.15494 1.28215 0
M  V30 1626 C 140.905 6.09953 0.512198 0
M  V30 1627 N 140.042 6.87287 1.43458 0
M  V30 1628 H 144.882 2.90803 -0.650974 0
M  V30 1629 H 142.419 1.43286 -0.33281 0
M  V30 1630 H 144.377 3.83157 1.65066 0
M  V30 1631 H 143.007 2.69695 1.77382 0
M  V30 1632 H 142.059 3.78414 -0.388181 0
M  V30 1633 H 143.371 4.97955 -0.290254 0
M  V30 1634 H 142.525 5.74983 1.93596 0
M  V30 1635 H 141.264 4.48481 1.91614 0
M  V30 1636 H 140.269 5.49581 -0.155151 0
M  V30 1637 H 141.494 6.78999 -0.116958 0
M  V30 1638 H 139.44 6.2295 2.05594 0
M  V30 1639 H 139.357 7.50763 0.888335 0
M  V30 1640 H 140.625 7.51306 2.07749 0
M  V30 1641 N 144.854 0.36279 1.53368 0
M  V30 1642 C 146.103 -0.22888 2.00397 0
M  V30 1643 C 146.416 -1.50096 1.25421 0
M  V30 1644 O 147.622 -2.17106 1.63025 0
M  V30 1645 C 146.078 -0.458417 3.56969 0
M  V30 1646 C 145.686 0.798877 4.4082 0
M  V30 1647 C 147.43 -1.00789 4.12361 0
M  V30 1648 C 145.337 0.539078 5.88938 0
M  V30 1649 H 144.267 -0.089305 0.748693 0
M  V30 1650 H 146.918 0.481099 1.77081 0
M  V30 1651 H 145.3 -1.22959 3.76427 0
M  V30 1652 H 146.474 1.57262 4.33134 0
M  V30 1653 H 144.789 1.27137 3.96516 0
M  V30 1654 H 147.386 -1.21754 5.20653 0
M  V30 1655 H 147.729 -1.9692 3.66781 0
M  V30 1656 H 148.262 -0.296961 3.9669 0
M  V30 1657 H 145.001 1.47064 6.3879 0
M  V30 1658 H 144.521 -0.196222 5.99479 0
M  V30 1659 H 146.2 0.163542 6.46793 0
M  V30 1660 N 146.332 -1.57332 0.0918853 0
M  V30 1661 C 147.28 -2.15075 -0.885747 0
M  V30 1662 C 148.274 -1.09277 -1.29441 0
M  V30 1663 O 149.48 -1.27627 -1.26931 0
M  V30 1664 H 145.855 -0.687966 -0.303656 0
M  V30 1665 H 147.826 -2.96047 -0.373995 0
M  V30 1666 C 146.575 -2.74325 -2.13638 0
M  V30 1667 H 145.898 -3.55418 -1.8308 0
M  V30 1668 H 147.338 -3.183 -2.80109 0
M  V30 1669 C 145.797 -1.70062 -2.90827 0
M  V30 1670 O 146.327 -1.13763 -3.85254 0
M  V30 1671 N 144.533 -1.40628 -2.54307 0
M  V30 1672 H 144.08 -1.866 -1.7759 0
M  V30 1673 H 144.038 -0.711043 -3.06254 0
M  V30 1674 N 147.81 0.181792 -1.56548 0
M  V30 1675 C 149.221 0.745244 -1.71181 0
M  V30 1676 C 149.572 1.83262 -0.70068 0
M  V30 1677 O 148.697 2.15946 0.140154 0
M  V30 1678 C 149.292 1.35859 -3.10367 0
M  V30 1679 C 147.851 1.86898 -3.2672 0
M  V30 1680 C 146.998 0.743942 -2.67134 0
M  V30 1681 H 149.949 -0.0434661 -1.5864 0
M  V30 1682 H 149.97 2.22817 -3.08436 0
M  V30 1683 H 149.482 0.566948 -3.83937 0
M  V30 1684 H 147.583 2.68738 -2.5809 0
M  V30 1685 H 147.696 2.02162 -4.34359 0
M  V30 1686 H 146.06 1.16169 -2.26665 0
M  V30 1687 H 146.843 -0.035676 -3.43281 0
M  V30 1688 N 149.288 1.51039 0.449983 0
M  V30 1689 C 150.238 1.67824 1.54335 0
M  V30 1690 C 151.222 0.5324 1.51836 0
M  V30 1691 O 152.414 0.787762 1.58503 0
M  V30 1692 C 149.543 1.7951 2.92628 0
M  V30 1693 C 148.629 2.99838 2.9993 0
M  V30 1694 N 149.02 4.23207 2.77001 0
M  V30 1695 C 147.318 2.98832 3.31082 0
M  V30 1696 C 148.019 5.04361 2.89818 0
M  V30 1697 N 146.995 4.38746 3.2094 0
M  V30 1698 H 150.797 2.60884 1.35339 0
M  V30 1699 H 148.311 1.48513 0.657085 0
M  V30 1700 H 150.308 1.89642 3.7127 0
M  V30 1701 H 148.968 0.876227 3.12654 0
M  V30 1702 H 149.979 4.5236 2.52172 0
M  V30 1703 H 146.656 2.16527 3.56963 0
M  V30 1704 H 148.046 6.12528 2.76151 0
M  V30 1705 N 150.766 -0.704594 1.40972 0
M  V30 1706 C 151.991 -1.49858 1.43378 0
M  V30 1707 C 152.416 -1.88061 0.038184 0
M  V30 1708 O 151.774 -1.5402 -0.956425 0
M  V30 1709 C 151.822 -2.74333 2.34038 0
M  V30 1710 O 150.926 -3.7147 1.7912 0
M  V30 1711 H 150.267 -0.45139 0.486974 0
M  V30 1712 H 152.797 -0.866832 1.8533 0
M  V30 1713 H 152.807 -3.22741 2.49604 0
M  V30 1714 H 151.482 -2.45863 3.35446 0
M  V30 1715 H 150.059 -3.30363 1.72958 0
M  V30 1716 N 152.244 -1.26651 -0.937939 0
M  V30 1717 C 153.207 -1.08546 -2.01867 0
M  V30 1718 C 154.207 -0.0327327 -1.60767 0
M  V30 1719 O 155.397 -0.276427 -1.71993 0
M  V30 1720 C 152.529 -0.651711 -3.34613 0
M  V30 1721 H 153.722 -2.04502 -2.1936 0
M  V30 1722 H 151.275 -1.09294 -1.11734 0
M  V30 1723 H 152.01 0.309696 -3.22818 0
M  V30 1724 H 151.795 -1.41189 -3.65798 0
M  V30 1725 H 153.285 -0.546973 -4.14002 0
M  V30 1726 N 153.722 1.14298 -1.08507 0
M  V30 1727 C 155.138 1.37347 -0.812901 0
M  V30 1728 C 155.338 1.93052 0.577325 0
M  V30 1729 O 154.394 2.14389 1.33393 0
M  V30 1730 C 155.707 2.33359 -1.89642 0
M  V30 1731 C 157.255 2.46996 -1.92255 0
M  V30 1732 C 157.73 3.46309 -2.99724 0
M  V30 1733 N 159.221 3.53853 -2.98902 0
M  V30 1734 C 159.956 4.3055 -3.787 0
M  V30 1735 N 159.452 5.10482 -4.6838 0
M  V30 1736 N 161.245 4.25757 -3.66998 0
M  V30 1737 H 153.396 0.764867 -1.9815 0
M  V30 1738 H 155.659 0.398966 -0.859959 0
M  V30 1739 H 155.365 1.99565 -2.89597 0
M  V30 1740 H 155.239 3.33274 -1.76659 0
M  V30 1741 H 157.626 2.80081 -0.929445 0
M  V30 1742 H 157.707 1.47039 -2.09316 0
M  V30 1743 H 157.351 3.13957 -3.99241 0
M  V30 1744 H 157.281 4.46049 -2.79907 0
M  V30 1745 H 159.772 2.96812 -2.33904 0
M  V30 1746 H 160.085 5.66284 -5.25873 0
M  V30 1747 H 158.43 5.09747 -4.72422 0
M  V30 1748 H 161.621 3.62383 -2.96304 0
M  V30 1749 H 161.794 4.85279 -4.29427 0
M  V30 1750 N 155.201 0.870884 1.31352 0
M  V30 1751 C 156.45 0.478408 1.95944 0
M  V30 1752 C 156.763 -0.974493 1.69597 0
M  V30 1753 O 157.969 -1.47316 2.28058 0
M  V30 1754 C 156.425 0.804609 3.50791 0
M  V30 1755 C 156.033 2.27433 3.85977 0
M  V30 1756 C 157.777 0.480648 4.2177 0
M  V30 1757 C 155.684 2.5429 5.33939 0
M  V30 1758 H 154.614 0.175175 0.733369 0
M  V30 1759 H 157.265 1.06391 1.4951 0
M  V30 1760 H 155.647 0.148347 3.95722 0
M  V30 1761 H 156.821 2.97373 3.52002 0
M  V30 1762 H 155.136 2.56442 3.28065 0
M  V30 1763 H 157.733 0.658519 5.30629 0
M  V30 1764 H 158.076 -0.578979 4.12254 0
M  V30 1765 H 158.609 1.09349 3.82476 0
M  V30 1766 H 155.348 3.58939 5.48491 0
M  V30 1767 H 154.868 1.88945 5.69263 0
M  V30 1768 H 156.547 2.39066 6.01212 0
M  V30 1769 N 156.679 -1.44442 0.630414 0
M  V30 1770 C 157.642 -2.29107 -0.0652523 0
M  V30 1771 C 158.642 -1.41002 -0.772995 0
M  V30 1772 O 159.832 -1.62881 -0.617692 0
M  V30 1773 C 156.964 -3.22564 -1.10296 0
M  V30 1774 H 158.157 -2.92103 0.679401 0
M  V30 1775 H 155.71 -1.51343 0.390517 0
M  V30 1776 H 156.445 -2.64416 -1.87762 0
M  V30 1777 H 156.23 -3.87491 -0.59941 0
M  V30 1778 H 157.72 -3.86167 -1.5895 0
M  V30 1779 N 158.157 -0.370918 -1.53173 0
M  V30 1780 C 159.404 0.217102 -2.01333 0
M  V30 1781 C 159.732 1.48338 -1.25802 0
M  V30 1782 O 158.987 1.92698 -0.34146 0
M  V30 1783 C 159.286 0.549696 -3.53147 0
M  V30 1784 C 158.952 -0.622872 -4.46577 0
M  V30 1785 C 157.614 -0.944595 -4.71838 0
M  V30 1786 C 159.966 -1.40819 -5.01816 0
M  V30 1787 C 157.294 -2.05351 -5.49589 0
M  V30 1788 C 159.646 -2.50757 -5.80778 0
M  V30 1789 C 158.31 -2.83458 -6.04324 0
M  V30 1790 H 157.58 0.0794431 -0.736729 0
M  V30 1791 H 160.227 -0.504481 -1.84736 0
M  V30 1792 H 158.532 1.35237 -3.6772 0
M  V30 1793 H 160.229 1.017 -3.87889 0
M  V30 1794 H 156.819 -0.36209 -4.27068 0
M  V30 1795 H 161.003 -1.17289 -4.82242 0
M  V30 1796 H 156.259 -2.3108 -5.6605 0
M  V30 1797 H 160.433 -3.12022 -6.22588 0
M  V30 1798 H 158.06 -3.69508 -6.64355 0
M  V30 1799 N 159.635 1.57281 -0.100228 0
M  V30 1800 C 160.565 2.17328 0.853857 0
M  V30 1801 C 161.546 1.10804 1.2906 0
M  V30 1802 O 162.731 1.38963 1.35657 0
M  V30 1803 C 159.861 2.75772 2.11109 0
M  V30 1804 C 158.815 3.87713 1.81279 0
M  V30 1805 C 158.141 4.32882 3.13874 0
M  V30 1806 C 159.441 5.10677 1.09574 0
M  V30 1807 H 161.135 2.97305 0.353545 0
M  V30 1808 H 158.681 1.43009 0.168612 0
M  V30 1809 H 160.634 3.16433 2.78296 0
M  V30 1810 H 159.358 1.93057 2.63432 0
M  V30 1811 H 158.017 3.476 1.16489 0
M  V30 1812 H 157.665 3.47051 3.64095 0
M  V30 1813 H 157.365 5.08358 2.94696 0
M  V30 1814 H 158.889 4.7618 3.82211 0
M  V30 1815 H 160.303 5.48474 1.66879 0
M  V30 1816 H 158.7 5.91615 1.00557 0
M  V30 1817 H 159.77 4.84835 0.0793299 0
M  V30 1818 N 161.113 -0.173488 1.56642 0
M  V30 1819 C 162.361 -0.888706 1.81512 0
M  V30 1820 C 162.682 -1.82875 0.676872 0
M  V30 1821 O 161.952 -1.93536 -0.303414 0
M  V30 1822 H 160.532 -0.331164 0.669582 0
M  V30 1823 H 163.194 -0.173823 1.94123 0
M  V30 1824 H 162.29 -1.46691 2.75478 0
M  V30 1825 N 162.591 -1.51276 -0.441967 0
M  V30 1826 C 164.002 -1.56244 -1.02199 0
M  V30 1827 C 164.353 -0.383149 -1.92422 0
M  V30 1828 O 163.478 0.500613 -2.1053 0
M  V30 1829 C 164.073 -2.83162 -1.86024 0
M  V30 1830 C 162.632 -2.90716 -2.39084 0
M  V30 1831 C 161.779 -2.50858 -1.18175 0
M  V30 1832 H 164.73 -1.5712 -0.223416 0
M  V30 1833 H 164.751 -2.66663 -2.71425 0
M  V30 1834 H 164.263 -3.68974 -1.20331 0
M  V30 1835 H 162.364 -2.09323 -3.08244 0
M  V30 1836 H 162.477 -3.94266 -2.72198 0
M  V30 1837 H 160.841 -2.03951 -1.52565 0
M  V30 1838 H 161.624 -3.3901 -0.541001 0
M  V30 1839 N 164.069 0.697108 -1.41344 0
M  V30 1840 C 165.016 1.81106 -1.43071 0
M  V30 1841 C 165.986 1.63632 -0.285275 0
M  V30 1842 O 167.171 1.84504 -0.486091 0
M  V30 1843 C 164.311 3.18975 -1.31715 0
M  V30 1844 C 163.424 3.47892 -2.56115 0
M  V30 1845 C 162.559 4.75367 -2.37064 0
M  V30 1846 C 161.598 4.97247 -3.56948 0
M  V30 1847 N 160.735 6.15947 -3.36977 0
M  V30 1848 H 165.575 1.78965 -2.38276 0
M  V30 1849 H 163.112 0.873975 -1.18322 0
M  V30 1850 H 165.07 3.98615 -1.23133 0
M  V30 1851 H 163.7 3.20297 -0.401183 0
M  V30 1852 H 162.752 2.62669 -2.75153 0
M  V30 1853 H 164.064 3.59962 -3.45295 0
M  V30 1854 H 163.218 5.63059 -2.25941 0
M  V30 1855 H 161.957 4.65541 -1.45338 0
M  V30 1856 H 160.962 4.08004 -3.68527 0
M  V30 1857 H 162.187 5.08934 -4.49626 0
M  V30 1858 H 160.133 6.07336 -2.47949 0
M  V30 1859 H 160.05 6.28777 -4.19732 0
M  V30 1860 H 161.318 7.06377 -3.29623 0
M  V30 1861 N 165.547 1.27147 0.931209 0
M  V30 1862 C 166.795 1.13055 1.6752 0
M  V30 1863 C 167.116 -0.324791 1.92276 0
M  V30 1864 O 166.386 -1.22775 1.52654 0
M  V30 1865 H 164.966 0.415391 0.620854 0
M  V30 1866 H 167.628 1.59623 1.11833 0
M  V30 1867 H 166.724 1.65694 2.64485 0
M  V30 1868 N 167.025 -1.13721 1.09112 0
M  V30 1869 C 168.25 -1.89314 0.847053 0
M  V30 1870 C 168.675 -1.78416 -0.595774 0
M  V30 1871 O 168.033 -1.12942 -1.41823 0
M  V30 1872 C 168.081 -3.3701 1.28284 0
M  V30 1873 O 167.185 -4.10054 0.439267 0
M  V30 1874 H 166.526 -0.588745 0.307044 0
M  V30 1875 H 169.056 -1.43902 1.45442 0
M  V30 1876 H 169.066 -3.87834 1.26683 0
M  V30 1877 H 167.741 -3.4426 2.33363 0
M  V30 1878 H 166.318 -3.69266 0.519312 0
M  V30 1879 N 168.503 -0.877838 -1.30888 0
M  V30 1880 C 169.733 -0.506678 -2.00291 0
M  V30 1881 C 170.141 0.907449 -1.66018 0
M  V30 1882 O 169.484 1.60719 -0.88967 0
M  V30 1883 C 169.546 -0.59323 -3.54572 0
M  V30 1884 C 169.21 -1.97038 -4.12341 0
M  V30 1885 C 170.207 -2.93889 -4.28865 0
M  V30 1886 C 167.892 -2.27383 -4.47886 0
M  V30 1887 C 169.886 -4.19224 -4.80136 0
M  V30 1888 C 167.573 -3.52965 -4.98857 0
M  V30 1889 C 168.571 -4.48701 -5.14934 0
M  V30 1890 O 168.259 -5.72056 -5.64808 0
M  V30 1891 H 167.991 -0.1951 -0.647234 0
M  V30 1892 H 170.545 -1.18301 -1.6791 0
M  V30 1893 H 168.775 0.140057 -3.86446 0
M  V30 1894 H 170.464 -0.234372 -4.05223 0
M  V30 1895 H 171.23 -2.71756 -4.01714 0
M  V30 1896 H 167.109 -1.53639 -4.34645 0
M  V30 1897 H 170.653 -4.93956 -4.92599 0
M  V30 1898 H 166.55 -3.74939 -5.25443 0
M  V30 1899 H 167.318 -5.74337 -5.83163 0
M  V30 1900 N 169.982 1.44106 -0.638065 0
M  V30 1901 C 171.207 2.0685 -0.150916 0
M  V30 1902 C 171.632 1.47417 1.16833 0
M  V30 1903 O 170.99 0.578264 1.71831 0
M  V30 1904 C 171.038 3.60555 -0.05708 0
M  V30 1905 O 170.142 4.00465 0.984972 0
M  V30 1906 H 169.483 0.658151 -0.0879399 0
M  V30 1907 H 172.013 1.84865 -0.876707 0
M  V30 1908 H 172.023 4.07789 0.131232 0
M  V30 1909 H 170.698 4.03193 -1.02021 0
M  V30 1910 H 169.275 3.64849 0.770672 0
M  V30 1911 N 171.46 0.379036 1.52974 0
M  V30 1912 C 172.41 -0.477772 2.22938 0
M  V30 1913 C 173.394 -1.03792 1.22948 0
M  V30 1914 O 174.586 -0.965725 1.48333 0
M  V30 1915 C 171.715 -1.60994 3.03209 0
M  V30 1916 C 170.801 -1.06203 4.10587 0
M  V30 1917 N 171.192 -0.238214 5.05239 0
M  V30 1918 C 169.49 -1.33554 4.25534 0
M  V30 1919 C 170.191 0.0633235 5.81666 0
M  V30 1920 N 169.167 -0.537901 5.40932 0
M  V30 1921 H 172.969 0.158295 2.93473 0
M  V30 1922 H 170.483 0.187778 1.61311 0
M  V30 1923 H 172.48 -2.23607 3.5186 0
M  V30 1924 H 171.14 -2.24893 2.34207 0
M  V30 1925 H 172.151 0.123695 5.17752 0
M  V30 1926 H 168.828 -1.97632 3.6776 0
M  V30 1927 H 170.218 0.730161 6.67921 0
M  V30 1928 N 172.938 -1.57226 0.108567 0
M  V30 1929 C 173.868 -2.17778 -0.84232 0
M  V30 1930 C 174.849 -1.11487 -1.2847 0
M  V30 1931 O 176.034 -1.39681 -1.34918 0
M  V30 1932 C 173.164 -2.76888 -2.09644 0
M  V30 1933 C 172.118 -3.88669 -1.79221 0
M  V30 1934 C 171.444 -4.34541 -3.11574 0
M  V30 1935 C 172.744 -5.11251 -1.06864 0
M  V30 1936 H 174.438 -2.97489 -0.337774 0
M  V30 1937 H 171.984 -1.43097 -0.161025 0
M  V30 1938 H 173.937 -3.17904 -2.76614 0
M  V30 1939 H 172.661 -1.94451 -2.62405 0
M  V30 1940 H 171.32 -3.48213 -1.14644 0
M  V30 1941 H 170.968 -3.48977 -3.62249 0
M  V30 1942 H 170.668 -5.09914 -2.91996 0
M  V30 1943 H 172.192 -4.782 -3.7968 0
M  V30 1944 H 173.606 -5.49352 -1.63968 0
M  V30 1945 H 172.003 -5.9214 -0.974178 0
M  V30 1946 H 173.073 -4.8487 -0.0536168 0
M  V30 1947 N 174.416 0.165178 -1.56732 0
M  V30 1948 C 175.379 1.18822 -1.95995 0
M  V30 1949 C 176.379 1.3685 -0.84431 0
M  V30 1950 O 177.569 1.34152 -1.11126 0
M  V30 1951 C 174.701 2.5521 -2.26011 0
M  V30 1952 H 175.894 0.851825 -2.87548 0
M  V30 1953 H 173.447 0.407857 -1.50885 0
M  V30 1954 H 174.182 2.93852 -1.37191 0
M  V30 1955 H 173.967 2.43489 -3.07336 0
M  V30 1956 H 175.457 3.28927 -2.57288 0
M  V30 1957 N 175.894 1.51508 0.433938 0
M  V30 1958 C 176.857 1.72473 1.50949 0
M  V30 1959 C 177.857 0.594725 1.49398 0
M  V30 1960 O 179.047 0.862315 1.5136 0
M  V30 1961 C 176.179 1.78431 2.90474 0
M  V30 1962 H 177.372 2.68467 1.33662 0
M  V30 1963 H 174.925 1.41549 0.662836 0
M  V30 1964 H 175.66 0.842645 3.13161 0
M  V30 1965 H 175.445 2.60558 2.93005 0
M  V30 1966 H 176.935 1.96479 3.68491 0
M  V30 1967 N 177.372 -0.689602 1.41712 0
M  V30 1968 C 178.788 -1.00093 1.24312 0
M  V30 1969 C 178.988 -2.01036 0.136729 0
M  V30 1970 O 178.044 -2.47562 -0.496918 0
M  V30 1971 C 179.357 -1.51985 2.59463 0
M  V30 1972 C 180.905 -1.63838 2.66695 0
M  V30 1973 C 181.38 -2.1913 4.02177 0
M  V30 1974 N 182.871 -2.26483 4.04054 0
M  V30 1975 C 183.606 -2.70306 5.0569 0
M  V30 1976 N 183.102 -3.13691 6.17713 0
M  V30 1977 N 184.895 -2.69923 4.9305 0
M  V30 1978 H 177.046 -0.0210029 2.1239 0
M  V30 1979 H 179.309 -0.0718733 0.945272 0
M  V30 1980 H 179.015 -0.85269 3.41207 0
M  V30 1981 H 178.889 -2.50103 2.82362 0
M  V30 1982 H 181.276 -2.29664 1.85306 0
M  V30 1983 H 181.357 -0.642492 2.476 0
M  V30 1984 H 181.001 -1.53918 4.84016 0
M  V30 1985 H 180.931 -3.19482 4.18615 0
M  V30 1986 H 183.422 -1.95874 3.23174 0
M  V30 1987 H 183.735 -3.45773 6.9113 0
M  V30 1988 H 182.08 -3.11585 6.21241 0
M  V30 1989 H 185.271 -2.35382 4.04614 0
M  V30 1990 H 185.444 -3.03758 5.72394 0
M  V30 1991 N 178.85 -1.27639 -0.924453 0
M  V30 1992 C 179.782 -1.06442 -2.02985 0
M  V30 1993 C 180.795 -0.0194771 -1.62788 0
M  V30 1994 O 181.984 -0.261388 -1.76576 0
M  V30 1995 C 179.084 -0.59327 -3.33667 0
M  V30 1996 C 178.257 -1.71123 -4.02537 0
M  V30 1997 C 177.316 -1.23527 -5.11495 0
M  V30 1998 O 176.342 -1.93553 -5.35281 0
M  V30 1999 N 177.544 -0.0926678 -5.80426 0
M  V30 2000 H 180.309 -2.01633 -2.2173 0
M  V30 2001 H 177.87 -1.19248 -1.09505 0
M  V30 2002 H 179.862 -0.258686 -4.03872 0
M  V30 2003 H 178.432 0.265502 -3.1147 0
M  V30 2004 H 177.652 -2.21593 -3.26022 0
M  V30 2005 H 178.94 -2.46145 -4.45298 0
M  V30 2006 H 178.338 0.491741 -5.63559 0
M  V30 2007 H 176.895 0.182714 -6.51544 0
M  V30 2008 N 180.328 1.1314 -1.09713 0
M  V30 2009 C 181.558 1.88048 -0.855656 0
M  V30 2010 C 181.966 1.79537 0.596919 0
M  V30 2011 O 181.309 1.16196 1.42282 0
M  V30 2012 C 181.371 3.38314 -1.21589 0
M  V30 2013 C 181.035 3.70605 -2.67397 0
M  V30 2014 C 182.032 3.69596 -3.65643 0
M  V30 2015 C 179.717 4.0017 -3.03593 0
M  V30 2016 C 181.711 3.977 -4.9811 0
M  V30 2017 C 179.398 4.27935 -4.36251 0
M  V30 2018 C 180.396 4.26685 -5.33318 0
M  V30 2019 O 180.084 4.53767 -6.63589 0
M  V30 2020 H 179.816 0.60208 -0.307368 0
M  V30 2021 H 182.37 1.44128 -1.46343 0
M  V30 2022 H 180.6 3.82752 -0.551177 0
M  V30 2023 H 182.289 3.94552 -0.953083 0
M  V30 2024 H 183.055 3.46826 -3.39023 0
M  V30 2025 H 178.934 4.00289 -2.2867 0
M  V30 2026 H 182.478 3.9664 -5.73866 0
M  V30 2027 H 178.375 4.50178 -4.62613 0
M  V30 2028 H 179.143 4.71422 -6.69107 0
M  V30 2029 N 181.806 0.884767 1.30421 0
M  V30 2030 C 182.769 0.356277 2.26414 0
M  V30 2031 C 183.769 -0.501124 1.52792 0
M  V30 2032 O 184.959 -0.30831 1.7145 0
M  V30 2033 C 182.091 -0.492316 3.37326 0
M  V30 2034 H 183.284 1.20389 2.74675 0
M  V30 2035 H 180.837 0.661607 1.41607 0
M  V30 2036 H 181.572 -1.36052 2.94381 0
M  V30 2037 H 181.357 0.121832 3.91911 0
M  V30 2038 H 182.847 -0.853871 4.08777 0
M  V30 2039 N 183.284 -1.43765 0.645699 0
M  V30 2040 C 184.247 -2.29163 -0.0409488 0
M  V30 2041 C 185.247 -1.41813 -0.757996 0
M  V30 2042 O 186.437 -1.63527 -0.600382 0
M  V30 2043 C 183.569 -3.23716 -1.06869 0
M  V30 2044 H 184.762 -2.91366 0.710345 0
M  V30 2045 H 182.315 -1.5092 0.406547 0
M  V30 2046 H 183.05 -2.66393 -1.84947 0
M  V30 2047 H 182.835 -3.88105 -0.558277 0
M  V30 2048 H 184.325 -3.87831 -1.54845 0
M  V30 2049 N 184.763 -0.387143 -1.52771 0
M  V30 2050 C 186.179 -0.037007 -1.59557 0
M  V30 2051 C 186.379 1.44801 -1.40124 0
M  V30 2052 O 185.435 2.21227 -1.21716 0
M  V30 2053 C 186.748 -0.512256 -2.96305 0
M  V30 2054 C 188.296 -0.468328 -3.09476 0
M  V30 2055 C 188.771 -0.919731 -4.4867 0
M  V30 2056 N 190.262 -0.875656 -4.54848 0
M  V30 2057 C 190.997 -1.19637 -5.6078 0
M  V30 2058 N 190.493 -1.58745 -6.74368 0
M  V30 2059 N 192.286 -1.11776 -5.50874 0
M  V30 2060 H 184.437 -1.35395 -1.63652 0
M  V30 2061 H 186.7 -0.554818 -0.768688 0
M  V30 2062 H 186.406 -1.54935 -3.15734 0
M  V30 2063 H 186.28 0.089805 -3.77093 0
M  V30 2064 H 188.667 0.559671 -2.89744 0
M  V30 2065 H 188.748 -1.10616 -2.30646 0
M  V30 2066 H 188.392 -1.94595 -4.69143 0
M  V30 2067 H 188.322 -0.258927 -5.25963 0
M  V30 2068 H 190.813 -0.587843 -3.733 0
M  V30 2069 H 191.126 -1.81586 -7.51163 0
M  V30 2070 H 189.471 -1.6263 -6.75705 0
M  V30 2071 H 192.662 -0.811264 -4.61016 0
M  V30 2072 H 192.835 -1.37103 -6.3333 0
M  V30 2073 N 186.241 1.57166 -0.116904 0
M  V30 2074 C 187.191 2.11756 0.845178 0
M  V30 2075 C 188.175 1.03783 1.22955 0
M  V30 2076 O 189.367 1.3002 1.20099 0
M  V30 2077 C 186.496 2.71886 2.09602 0
M  V30 2078 C 185.582 3.86937 1.7361 0
M  V30 2079 N 185.973 4.94073 1.08284 0
M  V30 2080 C 184.271 3.97082 2.03082 0
M  V30 2081 C 184.972 5.74477 0.913855 0
M  V30 2082 N 183.948 5.2423 1.43818 0
M  V30 2083 H 187.75 2.91967 0.336523 0
M  V30 2084 H 185.264 1.62174 0.0856332 0
M  V30 2085 H 187.261 3.09338 2.79492 0
M  V30 2086 H 185.921 1.93138 2.61013 0
M  V30 2087 H 186.932 5.12483 0.747067 0
M  V30 2088 H 183.609 3.29372 2.56554 0
M  V30 2089 H 184.999 6.70701 0.40125 0
M  V30 2090 N 187.719 -0.156864 1.56817 0
M  V30 2091 C 188.966 -0.871125 1.82805 0
M  V30 2092 C 189.294 -1.81611 0.696262 0
M  V30 2093 O 188.549 -1.93141 -0.315459 0
M  V30 2094 C 188.848 -1.68737 3.1506 0
M  V30 2095 C 188.514 -0.890045 4.42028 0
M  V30 2096 C 187.176 -0.670042 4.76512 0
M  V30 2097 C 189.528 -0.331769 5.20143 0
M  V30 2098 C 186.856 0.119104 5.86579 0
M  V30 2099 C 189.208 0.444365 6.31037 0
M  V30 2100 C 187.872 0.675035 6.64078 0
M  V30 2101 H 187.142 -0.318767 0.668931 0
M  V30 2102 H 189.789 -0.135274 1.91022 0
M  V30 2103 H 188.094 -2.49304 3.0225 0
M  V30 2104 H 189.791 -2.24331 3.3238 0
M  V30 2105 H 186.381 -1.07157 4.14988 0
M  V30 2106 H 190.565 -0.489043 4.93885 0
M  V30 2107 H 185.821 0.307417 6.10627 0
M  V30 2108 H 189.995 0.884139 6.90765 0
M  V30 2109 H 187.622 1.28839 7.49203 0
M  V30 2110 N 189.197 -1.51736 -0.425897 0
M  V30 2111 C 190.107 -1.76738 -1.54275 0
M  V30 2112 C 191.123 -0.65211 -1.61318 0
M  V30 2113 O 192.299 -0.935654 -1.78346 0
M  V30 2114 C 189.364 -1.89755 -2.90162 0
M  V30 2115 C 188.425 -3.13633 -2.93143 0
M  V30 2116 C 187.658 -3.2602 -4.22548 0
M  V30 2117 O 187.881 -2.44067 -5.15546 0
M  V30 2118 O 186.815 -4.19071 -4.32046 0
M  V30 2119 H 190.641 -2.71502 -1.36089 0
M  V30 2120 H 188.226 -1.36376 -0.610069 0
M  V30 2121 H 190.108 -2.00236 -3.70788 0
M  V30 2122 H 188.783 -0.981785 -3.08452 0
M  V30 2123 H 187.69 -3.08622 -2.11431 0
M  V30 2124 H 189.023 -4.04936 -2.798 0
M  V30 2125 N 190.675 0.682077 -1.42076 0
M  V30 2126 C 191.607 1.80755 -1.40926 0
M  V30 2127 C 192.62 1.59833 -0.309398 0
M  V30 2128 O 193.809 1.69087 -0.572014 0
M  V30 2129 C 190.909 3.17744 -1.17865 0
M  V30 2130 C 190.082 3.65578 -2.40149 0
M  V30 2131 C 189.141 4.81277 -2.12742 0
M  V30 2132 O 188.167 4.92197 -2.85887 0
M  V30 2133 N 189.369 5.69474 -1.12602 0
M  V30 2134 H 192.134 1.82229 -2.37935 0
M  V30 2135 H 189.695 0.864903 -1.36861 0
M  V30 2136 H 191.687 3.9279 -0.9746 0
M  V30 2137 H 190.257 3.11214 -0.294068 0
M  V30 2138 H 189.477 2.81291 -2.76169 0
M  V30 2139 H 190.765 3.94278 -3.21593 0
M  V30 2140 H 190.163 5.63297 -0.520899 0
M  V30 2141 H 188.72 6.44363 -0.981842 0
M  V30 2142 N 192.153 1.28127 0.917671 0
M  V30 2143 C 193.4 1.15052 1.66641 0
M  V30 2144 C 193.728 -0.301677 1.92146 0
M  V30 2145 O 192.983 -1.23622 1.51711 0
M  V30 2146 C 193.282 1.89018 3.03327 0
M  V30 2147 C 192.948 3.38832 2.97496 0
M  V30 2148 C 191.61 3.79693 2.95613 0
M  V30 2149 C 193.962 4.34378 2.88036 0
M  V30 2150 C 191.29 5.14447 2.82066 0
M  V30 2151 C 193.642 5.69201 2.7603 0
M  V30 2152 C 192.306 6.09343 2.72502 0
M  V30 2153 H 191.576 0.421006 0.609783 0
M  V30 2154 H 194.223 1.58855 1.06945 0
M  V30 2155 H 192.528 1.37752 3.66785 0
M  V30 2156 H 194.225 1.76321 3.60156 0
M  V30 2157 H 190.815 3.06342 2.99754 0
M  V30 2158 H 194.999 4.03775 2.88581 0
M  V30 2159 H 190.255 5.44681 2.77728 0
M  V30 2160 H 194.429 6.42901 2.67678 0
M  V30 2161 H 192.056 7.13712 2.61762 0
M  V30 2162 N 193.631 -1.12557 1.10312 0
M  V30 2163 C 194.88 -1.83395 0.839588 0
M  V30 2164 C 195.193 -1.84939 -0.636929 0
M  V30 2165 O 196.399 -2.51761 -1.01631 0
M  V30 2166 C 194.855 -3.29303 1.45215 0
M  V30 2167 C 194.463 -3.36122 2.96186 0
M  V30 2168 C 196.207 -4.05121 1.26796 0
M  V30 2169 C 194.114 -4.76357 3.50483 0
M  V30 2170 H 193.044 -0.687133 0.310425 0
M  V30 2171 H 195.695 -1.26746 1.32694 0
M  V30 2172 H 194.077 -3.85812 0.892469 0
M  V30 2173 H 195.251 -2.89559 3.58458 0
M  V30 2174 H 193.566 -2.73776 3.13745 0
M  V30 2175 H 196.163 -5.08668 1.64806 0
M  V30 2176 H 196.506 -4.15773 0.209409 0
M  V30 2177 H 197.039 -3.54967 1.79563 0
M  V30 2178 H 193.778 -4.70899 4.55998 0
M  V30 2179 H 193.298 -5.23377 2.92978 0
M  V30 2180 H 194.977 -5.45294 3.48228 0
M  V30 2181 N 195.109 -0.891671 -1.2995 0
M  V30 2182 C 196.019 -0.367691 -2.31701 0
M  V30 2183 C 197.035 0.533486 -1.6562 0
M  V30 2184 O 198.211 0.424997 -1.96865 0
M  V30 2185 C 195.276 0.403406 -3.44345 0
M  V30 2186 C 194.337 -0.528328 -4.26037 0
M  V30 2187 C 193.57 0.206063 -5.33302 0
M  V30 2188 O 193.793 1.43119 -5.52153 0
M  V30 2189 O 192.727 -0.447281 -6.00236 0
M  V30 2190 H 196.553 -1.21163 -2.78484 0
M  V30 2191 H 194.138 -0.655725 -1.34241 0
M  V30 2192 H 196.02 0.839753 -4.12948 0
M  V30 2193 H 194.695 1.22354 -2.99685 0
M  V30 2194 H 193.602 -1.01362 -3.60106 0
M  V30 2195 H 194.935 -1.31465 -4.74318 0
M  V30 2196 N 196.587 1.43421 -0.653314 0
M  V30 2197 C 197.812 2.06678 -0.172846 0
M  V30 2198 C 198.237 1.48648 1.15262 0
M  V30 2199 O 197.595 0.596457 1.71208 0
M  V30 2200 C 197.643 3.60474 -0.0953184 0
M  V30 2201 O 196.747 4.01487 0.942442 0
M  V30 2202 H 196.088 0.657181 -0.0949155 0
M  V30 2203 H 198.618 1.83925 -0.896265 0
M  V30 2204 H 198.628 4.07905 0.0879728 0
M  V30 2205 H 197.303 4.02088 -1.06291 0
M  V30 2206 H 195.88 3.65646 0.731932 0
M  V30 2207 N 198.065 0.39524 1.52563 0
M  V30 2208 C 199.313 -0.184678 2.01254 0
M  V30 2209 C 199.634 -1.46822 1.28329 0
M  V30 2210 O 198.904 -1.91666 0.405094 0
M  V30 2211 H 197.484 -0.0712355 0.743596 0
M  V30 2212 H 200.146 0.528293 1.87603 0
M  V30 2213 H 199.242 -0.390681 3.09645 0
M  V30 2214 N 199.544 -1.57102 0.125237 0
M  V30 2215 C 200.784 -1.97294 -0.534259 0
M  V30 2216 C 201.148 -1.0074 -1.63449 0
M  V30 2217 O 202.349 -1.29893 -2.35332 0
M  V30 2218 C 200.62 -3.41705 -1.04748 0
M  V30 2219 S 202.179 -4.03913 -1.71463 0
M  V30 2220 H 198.997 -0.689517 -0.173458 0
M  V30 2221 H 201.599 -1.94349 0.211797 0
M  V30 2222 H 200.303 -4.09723 -0.235649 0
M  V30 2223 H 199.834 -3.48315 -1.82867 0
M  V30 2224 H 201.849 -3.95182 -3.00077 0
M  V30 2225 N 201.022 0.148545 -1.56898 0
M  V30 2226 C 201.985 1.16736 -1.97244 0
M  V30 2227 C 202.985 1.35947 -0.858777 0
M  V30 2228 O 204.175 1.32966 -1.12542 0
M  V30 2229 C 201.307 2.52798 -2.28705 0
M  V30 2230 H 202.5 0.821279 -2.88435 0
M  V30 2231 H 200.053 0.391831 -1.51309 0
M  V30 2232 H 200.788 2.92381 -1.403 0
M  V30 2233 H 200.573 2.40216 -3.09901 0
M  V30 2234 H 202.063 3.26179 -2.60762 0
M  V30 2235 N 202.5 1.5196 0.417844 0
M  V30 2236 C 203.447 1.74678 1.50852 0
M  V30 2237 C 204.417 0.588947 1.55308 0
M  V30 2238 O 205.602 0.825544 1.72016 0
M  V30 2239 C 202.742 1.89544 2.88387 0
M  V30 2240 C 201.855 3.17166 2.93309 0
M  V30 2241 C 200.99 3.22513 4.22088 0
M  V30 2242 C 200.029 4.44372 4.20951 0
M  V30 2243 N 199.166 4.47161 5.41287 0
M  V30 2244 H 204.006 2.67768 1.30783 0
M  V30 2245 H 201.543 1.32689 0.63498 0
M  V30 2246 H 203.501 1.96146 3.68216 0
M  V30 2247 H 202.131 0.998424 3.06971 0
M  V30 2248 H 201.183 3.19778 2.06024 0
M  V30 2249 H 202.495 4.07021 2.88332 0
M  V30 2250 H 201.649 3.28139 5.10303 0
M  V30 2251 H 200.388 2.30581 4.29748 0
M  V30 2252 H 199.393 4.38902 3.31127 0
M  V30 2253 H 200.618 5.3759 4.14938 0
M  V30 2254 H 198.564 3.58108 5.49632 0
M  V30 2255 H 198.481 5.3085 5.3827 0
M  V30 2256 H 199.749 4.57005 6.3148 0
M  V30 2257 N 203.978 -0.674533 1.42435 0
M  V30 2258 C 205.225 -1.43459 1.42919 0
M  V30 2259 C 205.553 -1.94446 0.0457312 0
M  V30 2260 O 204.808 -1.7132 -0.94593 0
M  V30 2261 C 205.107 -2.64767 2.40069 0
M  V30 2262 C 204.773 -2.3232 3.86443 0
M  V30 2263 C 203.435 -2.23182 4.26314 0
M  V30 2264 C 205.787 -2.05977 4.78773 0
M  V30 2265 C 203.115 -1.85827 5.56494 0
M  V30 2266 C 205.467 -1.70125 6.09295 0
M  V30 2267 C 204.131 -1.59498 6.48164 0
M  V30 2268 H 203.401 -0.524952 0.522978 0
M  V30 2269 H 206.048 -0.769097 1.75377 0
M  V30 2270 H 204.353 -3.36349 2.00939 0
M  V30 2271 H 206.05 -3.22949 2.37707 0
M  V30 2272 H 202.64 -2.40334 3.54877 0
M  V30 2273 H 206.824 -2.11969 4.48757 0
M  V30 2274 H 202.08 -1.76168 5.8547 0
M  V30 2275 H 206.254 -1.48767 6.80324 0
M  V30 2276 H 203.881 -1.30322 7.48946 0
M  V30 2277 N 205.456 -1.28612 -0.910864 0
M  V30 2278 C 206.419 -1.12803 -1.9952 0
M  V30 2279 C 207.419 -0.0668264 -1.60661 0
M  V30 2280 O 208.609 -0.312847 -1.71368 0
M  V30 2281 C 205.741 -0.72254 -3.33155 0
M  V30 2282 H 206.934 -2.09109 -2.14973 0
M  V30 2283 H 204.487 -1.11639 -1.09391 0
M  V30 2284 H 205.222 0.241152 -3.23402 0
M  V30 2285 H 205.007 -1.48916 -3.62721 0
M  V30 2286 H 206.497 -0.634666 -4.12749 0
M  V30 2287 N 206.934 1.1197 -1.10907 0
M  V30 2288 C 208.211 1.79959 -0.766432 0
M  V30 2289 C 208.591 1.97466 0.746363 0
M  V30 2290 O 207.939 1.55491 1.67436 0
M  V30 2291 C 208.149 3.14009 -1.52314 0
M  V30 2292 C 209.497 3.89134 -1.69883 0
M  V30 2293 O 210.521 3.2368 -1.48692 0
M  V30 2294 O 209.38 5.06572 -2.05054 0
M  V30 2295 H 206.474 0.779208 -0.277062 0
M  V30 2296 H 209.02 1.18762 -1.21217 0
M  V30 2297 H 207.792 2.96587 -2.55249 0
M  V30 2298 H 207.415 3.82915 -1.07059 0
M  V30 2299 N 208.412 0.89855 1.29475 0
M  V30 2300 C 209.661 0.519863 1.94885 0
M  V30 2301 C 209.974 -0.9383 1.71625 0
M  V30 2302 O 211.18 -1.42445 2.31131 0
M  V30 2303 C 209.636 0.878836 3.49005 0
M  V30 2304 C 209.244 2.35569 3.81066 0
M  V30 2305 C 210.988 0.570004 4.20656 0
M  V30 2306 C 208.895 2.65558 5.28425 0
M  V30 2307 H 207.825 0.190692 0.729488 0
M  V30 2308 H 210.476 1.09539 1.47219 0
M  V30 2309 H 208.858 0.232253 3.95318 0
M  V30 2310 H 210.032 3.04773 3.45616 0
M  V30 2311 H 208.347 2.63343 3.22552 0
M  V30 2312 H 210.944 0.770925 5.29113 0
M  V30 2313 H 211.287 -0.491404 4.1339 0
M  V30 2314 H 211.82 1.17438 3.8007 0
M  V30 2315 H 208.559 3.70493 5.40754 0
M  V30 2316 H 208.079 2.00977 5.65127 0
M  V30 2317 H 209.758 2.51765 5.96006 0
M  V30 2318 N 209.89 -1.43072 0.660911 0
M  V30 2319 C 211.137 -2.01721 0.177445 0
M  V30 2320 C 211.465 -1.5218 -1.21126 0
M  V30 2321 O 210.72 -0.708659 -1.82419 0
M  V30 2322 C 211.019 -3.57103 0.145563 0
M  V30 2323 C 210.685 -4.26021 1.47705 0
M  V30 2324 C 209.347 -4.44563 1.84165 0
M  V30 2325 C 211.699 -4.64983 2.35458 0
M  V30 2326 C 209.027 -4.99334 3.0803 0
M  V30 2327 C 211.379 -5.21127 3.58622 0
M  V30 2328 C 210.043 -5.37884 3.95268 0
M  V30 2329 H 209.313 -0.73815 0.0649317 0
M  V30 2330 H 211.96 -1.71446 0.853144 0
M  V30 2331 H 210.265 -3.86965 -0.61361 0
M  V30 2332 H 211.962 -4.00248 -0.2455 0
M  V30 2333 H 208.552 -4.11939 1.18339 0
M  V30 2334 H 212.736 -4.50343 2.08579 0
M  V30 2335 H 207.992 -5.10493 3.36462 0
M  V30 2336 H 212.166 -5.50262 4.26831 0
M  V30 2337 H 209.793 -5.80089 4.91325 0
M  V30 2338 N 211.368 -0.403325 -1.52352 0
M  V30 2339 C 212.316 0.439752 -2.28405 0
M  V30 2340 C 213.31 1.05089 -1.32863 0
M  V30 2341 O 214.516 0.989759 -1.50345 0
M  V30 2342 H 210.891 0.160587 -0.734653 0
M  V30 2343 H 212.862 -0.222983 -2.97566 0
M  V30 2344 C 211.611 1.54736 -3.11371 0
M  V30 2345 H 210.934 1.08643 -3.84755 0
M  V30 2346 H 212.374 2.1112 -3.67701 0
M  V30 2347 C 210.833 2.51141 -2.24566 0
M  V30 2348 O 211.363 3.54887 -1.88196 0
M  V30 2349 N 209.569 2.21213 -1.8845 0
M  V30 2350 H 209.116 1.36878 -2.18225 0
M  V30 2351 H 209.074 2.85963 -1.30662 0
M  V30 2352 N 212.846 1.57033 -0.133567 0
M  V30 2353 C 213.778 2.13176 0.841944 0
M  V30 2354 C 214.791 1.07794 1.22001 0
M  V30 2355 O 215.98 1.35117 1.16643 0
M  V30 2356 C 213.08 2.62847 2.13926 0
M  V30 2357 C 212.253 3.92486 1.93064 0
M  V30 2358 C 211.312 4.27605 3.0666 0
M  V30 2359 O 210.338 4.96168 2.78937 0
M  V30 2360 N 211.54 3.861 4.33483 0
M  V30 2361 H 214.305 2.97503 0.362192 0
M  V30 2362 H 211.866 1.61821 0.05042 0
M  V30 2363 H 213.858 2.83363 2.88942 0
M  V30 2364 H 212.428 1.83319 2.53205 0
M  V30 2365 H 211.648 3.80732 1.02159 0
M  V30 2366 H 212.936 4.77225 1.76447 0
M  V30 2367 H 212.334 3.30828 4.58878 0
M  V30 2368 H 210.891 4.11694 5.05323 0
M  V30 2369 N 214.325 -0.140222 1.56975 0
M  V30 2370 C 215.571 -0.852949 1.83991 0
M  V30 2371 C 215.904 -1.80512 0.716187 0
M  V30 2372 O 215.179 -1.92479 -0.279681 0
M  V30 2373 C 215.462 -1.6215 3.21527 0
M  V30 2374 C 215.315 -0.690363 4.4447 0
M  V30 2375 C 216.634 -2.58247 3.56366 0
M  V30 2376 H 213.753 -0.308634 0.669264 0
M  V30 2377 H 216.395 -0.117898 1.89634 0
M  V30 2378 H 214.545 -2.24812 3.16847 0
M  V30 2379 H 216.217 -0.0742264 4.6124 0
M  V30 2380 H 214.46 -0.000396433 4.338 0
M  V30 2381 H 215.131 -1.2643 5.37326 0
M  V30 2382 H 217.607 -2.05701 3.61699 0
M  V30 2383 H 216.483 -3.09067 4.53617 0
M  V30 2384 H 216.744 -3.39923 2.82674 0
M  V30 2385 N 215.803 -1.52179 -0.40978 0
M  V30 2386 C 216.713 -1.78364 -1.52392 0
M  V30 2387 C 217.729 -0.669183 -1.60617 0
M  V30 2388 O 218.905 -0.954518 -1.77344 0
M  V30 2389 C 215.97 -1.92822 -2.88133 0
M  V30 2390 C 215.031 -3.16725 -2.898 0
M  V30 2391 C 214.264 -3.30483 -4.19067 0
M  V30 2392 O 214.487 -2.49522 -5.12928 0
M  V30 2393 O 213.421 -4.2363 -4.27576 0
M  V30 2394 H 217.247 -2.72931 -1.33201 0
M  V30 2395 H 214.832 -1.37016 -0.59557 0
M  V30 2396 H 216.714 -2.04157 -3.68643 0
M  V30 2397 H 215.389 -1.01444 -3.07393 0
M  V30 2398 H 214.296 -3.10848 -2.08146 0
M  V30 2399 H 215.629 -4.07881 -2.75489 0
M  V30 2400 N 217.281 0.66697 -1.42791 0
M  V30 2401 C 218.509 1.45505 -1.47091 0
M  V30 2402 C 218.924 1.8861 -0.0845873 0
M  V30 2403 O 218.281 1.58632 0.90234 0
M  V30 2404 C 218.332 2.69906 -2.40485 0
M  V30 2405 O 218.053 2.28608 -3.73725 0
M  V30 2406 C 219.554 3.63396 -2.53886 0
M  V30 2407 H 216.774 0.447459 -0.500022 0
M  V30 2408 H 219.318 0.818866 -1.8739 0
M  V30 2409 H 217.473 3.29696 -2.03419 0
M  V30 2410 H 217.887 3.08997 -4.23817 0
M  V30 2411 H 219.361 4.47387 -3.2334 0
M  V30 2412 H 219.838 4.09824 -1.57927 0
M  V30 2413 H 220.444 3.09495 -2.91706 0
M  V30 2414 N 218.759 1.29093 0.90403 0
M  V30 2415 C 220.007 1.16583 1.65085 0
M  V30 2416 C 220.328 -0.283933 1.92922 0
M  V30 2417 O 219.598 -1.19509 1.55224 0
M  V30 2418 H 218.178 0.428467 0.611903 0
M  V30 2419 H 220.84 1.61959 1.08422 0
M  V30 2420 H 219.936 1.71266 2.6091 0
M  V30 2421 N 220.237 -1.11381 1.11499 0
M  V30 2422 C 221.169 -2.17207 0.731704 0
M  V30 2423 C 222.182 -1.61066 -0.236957 0
M  V30 2424 O 223.371 -1.78489 -0.0197591 0
M  V30 2425 C 220.471 -3.38846 0.0607624 0
M  V30 2426 C 219.644 -4.24451 1.0564 0
M  V30 2427 C 218.703 -5.24562 0.4149 0
M  V30 2428 O 217.729 -5.59071 1.069 0
M  V30 2429 N 218.931 -5.74651 -0.821943 0
M  V30 2430 H 221.696 -2.50699 1.64225 0
M  V30 2431 H 219.257 -1.26908 1.00529 0
M  V30 2432 H 221.249 -4.02911 -0.380139 0
M  V30 2433 H 219.819 -3.03411 -0.752376 0
M  V30 2434 H 219.039 -3.56833 1.67524 0
M  V30 2435 H 220.327 -4.78486 1.72998 0
M  V30 2436 H 219.725 -5.48797 -1.37252 0
M  V30 2437 H 218.282 -6.40549 -1.20582 0
M  V30 2438 N 221.715 -0.905404 -1.28997 0
M  V30 2439 C 222.678 -0.392253 -2.25819 0
M  V30 2440 C 223.678 0.476753 -1.5357 0
M  V30 2441 O 224.868 0.280994 -1.71919 0
M  V30 2442 C 222 0.438588 -3.38067 0
M  V30 2443 H 223.193 -1.24743 -2.72725 0
M  V30 2444 H 220.746 -0.684051 -1.40536 0
M  V30 2445 H 221.481 1.31352 -2.96508 0
M  V30 2446 H 221.266 -0.184167 -3.91667 0
M  V30 2447 H 222.756 0.78873 -4.10084 0
M  V30 2448 N 223.193 1.4272 -0.668489 0
M  V30 2449 C 224.47 1.95248 -0.117373 0
M  V30 2450 C 224.85 1.60919 1.36632 0
M  V30 2451 O 224.198 0.902095 2.09939 0
M  V30 2452 C 224.408 3.46927 -0.379806 0
M  V30 2453 C 225.756 4.23588 -0.292923 0
M  V30 2454 O 226.78 3.5482 -0.313204 0
M  V30 2455 O 225.639 5.46017 -0.229697 0
M  V30 2456 H 222.733 0.827 0.00079152 0
M  V30 2457 H 225.279 1.52581 -0.742783 0
M  V30 2458 H 224.051 3.65096 -1.40786 0
M  V30 2459 H 223.674 3.96627 0.277923 0
M  V30 2460 N 224.671 0.411399 1.52136 0
M  V30 2461 C 225.901 -0.16284 2.05957 0
M  V30 2462 C 226.309 -1.3922 1.28119 0
M  V30 2463 O 225.652 -1.80768 0.326881 0
M  V30 2464 C 225.714 -0.575946 3.54856 0
M  V30 2465 C 225.378 0.542998 4.53763 0
M  V30 2466 C 226.375 1.40726 5.00492 0
M  V30 2467 C 224.06 0.716337 4.97166 0
M  V30 2468 C 226.054 2.4298 5.8927 0
M  V30 2469 C 223.741 1.74218 5.8574 0
M  V30 2470 C 224.739 2.59731 6.31687 0
M  V30 2471 O 224.427 3.60558 7.18507 0
M  V30 2472 H 224.159 -0.0229125 0.675612 0
M  V30 2473 H 226.713 0.581634 1.96993 0
M  V30 2474 H 224.943 -1.37274 3.61515 0
M  V30 2475 H 226.632 -1.07836 3.91313 0
M  V30 2476 H 227.398 1.28476 4.67674 0
M  V30 2477 H 223.277 0.0603857 4.6096 0
M  V30 2478 H 226.821 3.0976 6.25055 0
M  V30 2479 H 222.718 1.86498 6.17971 0
M  V30 2480 H 223.486 3.56829 7.36624 0
M  V30 2481 N 226.149 -1.5696 0.141893 0
M  V30 2482 C 227.112 -2.15316 -0.785587 0
M  V30 2483 C 228.112 -1.09366 -1.1788 0
M  V30 2484 O 229.302 -1.35031 -1.10056 0
M  V30 2485 C 226.434 -2.71211 -2.06537 0
M  V30 2486 H 227.627 -2.98608 -0.278041 0
M  V30 2487 H 225.18 -1.5593 -0.107519 0
M  V30 2488 H 225.915 -1.91571 -2.6167 0
M  V30 2489 H 225.7 -3.4872 -1.79268 0
M  V30 2490 H 227.19 -3.16189 -2.72789 0
M  V30 2491 N 227.627 0.131896 -1.57047 0
M  V30 2492 C 228.873 0.843179 -1.84441 0
M  V30 2493 C 229.206 1.80129 -0.725749 0
M  V30 2494 O 228.481 1.92624 0.269469 0
M  V30 2495 C 228.764 1.60442 -3.22382 0
M  V30 2496 C 228.617 0.666782 -4.4483 0
M  V30 2497 C 229.936 2.56354 -3.5773 0
M  V30 2498 H 227.055 0.305081 -0.670891 0
M  V30 2499 H 229.697 0.107839 -1.89694 0
M  V30 2500 H 227.847 2.23128 -3.18035 0
M  V30 2501 H 229.519 0.0497646 -4.61273 0
M  V30 2502 H 227.762 -0.022609 -4.33794 0
M  V30 2503 H 228.433 1.23579 -5.37989 0
M  V30 2504 H 230.909 2.0378 -3.62785 0
M  V30 2505 H 229.785 3.06657 -4.5525 0
M  V30 2506 H 230.046 3.38419 -2.84473 0
M  V30 2507 N 229.106 1.52395 0.401703 0
M  V30 2508 C 230.352 1.67065 1.14966 0
M  V30 2509 C 230.685 0.403052 1.89971 0
M  V30 2510 O 229.96 -0.598774 1.85054 0
M  V30 2511 C 230.243 2.8975 2.13815 0
M  V30 2512 C 230.096 4.26578 1.42658 0
M  V30 2513 C 231.415 3.07965 3.14397 0
M  V30 2514 H 228.534 0.607968 0.416587 0
M  V30 2515 H 231.176 1.84965 0.434511 0
M  V30 2516 H 229.326 2.74619 2.74803 0
M  V30 2517 H 230.998 4.53451 0.847329 0
M  V30 2518 H 229.241 4.27639 0.72849 0
M  V30 2519 H 229.912 5.08483 2.14823 0
M  V30 2520 H 232.388 3.22043 2.63491 0
M  V30 2521 H 231.264 3.95308 3.80819 0
M  V30 2522 H 231.525 2.21611 3.82545 0
M  V30 2523 N 230.584 -0.659388 1.43143 0
M  V30 2524 C 231.995 -1.24041 1.39537 0
M  V30 2525 C 232.346 -1.95963 0.0963364 0
M  V30 2526 O 231.471 -2.00892 -0.804438 0
M  V30 2527 C 232.066 -2.25601 2.52764 0
M  V30 2528 C 230.625 -2.79195 2.52443 0
M  V30 2529 C 229.772 -1.53743 2.30778 0
M  V30 2530 H 232.723 -0.451792 1.52133 0
M  V30 2531 H 232.744 -3.07651 2.23899 0
M  V30 2532 H 232.256 -1.73226 3.47296 0
M  V30 2533 H 230.357 -3.35649 1.61773 0
M  V30 2534 H 230.47 -3.2716 3.50004 0
M  V30 2535 H 228.834 -1.80869 1.79328 0
M  V30 2536 H 229.617 -1.03312 3.27386 0
M  V30 2537 N 232.062 -1.29571 -0.897171 0
M  V30 2538 C 233.311 -1.1706 -1.64256 0
M  V30 2539 C 233.624 0.276476 -1.93636 0
M  V30 2540 O 234.83 0.52294 -2.66416 0
M  V30 2541 C 233.286 -2.0475 -2.95982 0
M  V30 2542 C 232.894 -3.54295 -2.74187 0
M  V30 2543 C 234.638 -2.0097 -3.73914 0
M  V30 2544 C 232.545 -4.34081 -4.01656 0
M  V30 2545 H 231.475 -0.43452 -0.616205 0
M  V30 2546 H 234.126 -1.54229 -0.994268 0
M  V30 2547 H 232.508 -1.60452 -3.62038 0
M  V30 2548 H 233.682 -4.06662 -2.1671 0
M  V30 2549 H 231.997 -3.59773 -2.09648 0
M  V30 2550 H 234.594 -2.57838 -4.68427 0
M  V30 2551 H 234.937 -0.990273 -4.0435 0
M  V30 2552 H 235.47 -2.43325 -3.14703 0
M  V30 2553 H 232.209 -5.36671 -3.76384 0
M  V30 2554 H 231.729 -3.86483 -4.58684 0
M  V30 2555 H 233.408 -4.44877 -4.69781 0
M  V30 2556 N 233.54 1.10788 -1.12088 0
M  V30 2557 C 234.45 2.20599 -0.798338 0
M  V30 2558 C 235.466 1.72712 0.21135 0
M  V30 2559 O 236.642 2.01348 0.0458477 0
M  V30 2560 C 233.707 3.45771 -0.253674 0
M  V30 2561 C 232.768 4.08411 -1.32283 0
M  V30 2562 C 232.001 5.27608 -0.80406 0
M  V30 2563 O 232.224 5.69241 0.363478 0
M  V30 2564 O 231.158 5.8101 -1.57198 0
M  V30 2565 H 234.984 2.50614 -1.7154 0
M  V30 2566 H 232.569 1.19454 -0.897275 0
M  V30 2567 H 234.451 4.21376 0.0453691 0
M  V30 2568 H 233.126 3.1739 0.636005 0
M  V30 2569 H 232.033 3.34507 -1.67499 0
M  V30 2570 H 233.366 4.40986 -2.18614 0
M  V30 2571 N 235.018 0.912232 1.28515 0
M  V30 2572 C 235.966 0.389597 2.29314 0
M  V30 2573 C 236.96 -0.517915 1.61289 0
M  V30 2574 O 238.166 -0.399328 1.75515 0
M  V30 2575 H 234.541 0.107386 0.744293 0
M  V30 2576 H 236.512 1.25286 2.70825 0
M  V30 2577 C 235.261 -0.356496 3.45868 0
M  V30 2578 H 234.584 0.332608 3.98414 0
M  V30 2579 H 236.024 -0.686851 4.184 0
M  V30 2580 C 234.483 -1.56383 2.98406 0
M  V30 2581 O 235.013 -2.66294 3.00749 0
M  V30 2582 N 233.219 -1.41029 2.54085 0
M  V30 2583 H 232.766 -0.516089 2.52377 0
M  V30 2584 H 232.724 -2.21939 2.22689 0
M  V30 2585 N 236.496 -1.42363 0.676048 0
M  V30 2586 C 237.724 -2.05859 0.207268 0
M  V30 2587 C 238.139 -1.50796 -1.13605 0
M  V30 2588 O 237.496 -0.648265 -1.70598 0
M  V30 2589 C 237.547 -3.61248 0.134975 0
M  V30 2590 O 237.268 -4.1427 1.42521 0
M  V30 2591 C 238.769 -4.41859 -0.357151 0
M  V30 2592 H 235.989 -0.663431 0.100503 0
M  V30 2593 H 238.533 -1.82479 0.923136 0
M  V30 2594 H 236.688 -3.83735 -0.531588 0
M  V30 2595 H 237.102 -5.0815 1.29939 0
M  V30 2596 H 238.576 -5.50847 -0.356641 0
M  V30 2597 H 239.053 -4.16536 -1.39264 0
M  V30 2598 H 239.659 -4.24392 0.27772 0
M  V30 2599 N 237.974 -0.419461 -1.51915 0
M  V30 2600 C 239.199 0.154572 -2.06823 0
M  V30 2601 C 239.624 1.3722 -1.28656 0
M  V30 2602 O 238.982 1.78461 -0.319583 0
M  V30 2603 C 239.03 0.473172 -3.57482 0
M  V30 2604 O 238.134 1.56255 -3.81652 0
M  V30 2605 H 237.475 0.0096924 -0.663929 0
M  V30 2606 H 240.005 -0.595642 -1.95738 0
M  V30 2607 H 240.015 0.728825 -4.01438 0
M  V30 2608 H 238.69 -0.416873 -4.13805 0
M  V30 2609 H 237.267 1.29825 -3.49571 0
M  V30 2610 N 239.452 1.56882 -0.150215 0
M  V30 2611 C 240.677 2.01027 0.510184 0
M  V30 2612 C 241.102 1.02966 1.57415 0
M  V30 2613 O 240.46 0.00590158 1.81299 0
M  V30 2614 C 240.508 3.43899 1.08472 0
M  V30 2615 O 239.612 3.4885 2.19948 0
M  V30 2616 H 238.953 0.652233 0.124451 0
M  V30 2617 H 241.483 2.03093 -0.247894 0
M  V30 2618 H 241.493 3.82766 1.41259 0
M  V30 2619 H 240.168 4.14776 0.305582 0
M  V30 2620 H 238.745 3.21827 1.88366 0
M  V30 2621 N 240.93 -0.123565 1.57115 0
M  V30 2622 C 242.178 -0.83051 1.84247 0
M  V30 2623 C 242.499 -1.80629 0.73471 0
M  V30 2624 O 241.769 -1.94403 -0.241688 0
M  V30 2625 H 240.349 -0.309694 0.679778 0
M  V30 2626 H 243.011 -0.111976 1.94578 0
M  V30 2627 H 242.107 -1.37852 2.80006 0
M  V30 2628 N 242.408 -1.52605 -0.393616 0
M  V30 2629 C 243.371 -1.76415 -1.46323 0
M  V30 2630 C 244.371 -0.634126 -1.47768 0
M  V30 2631 O 245.561 -0.902142 -1.4902 0
M  V30 2632 C 242.693 -1.8607 -2.85641 0
M  V30 2633 H 243.886 -2.71916 -1.26498 0
M  V30 2634 H 241.439 -1.43257 -0.625073 0
M  V30 2635 H 242.174 -0.925378 -3.10817 0
M  V30 2636 H 241.959 -2.68235 -2.85993 0
M  V30 2637 H 243.449 -2.06179 -3.63153 0
M  V30 2638 N 243.887 0.651787 -1.4349 0
M  V30 2639 C 245.136 1.40754 -1.44469 0
M  V30 2640 C 245.449 1.95463 -0.0731845 0
M  V30 2641 O 246.655 2.71471 0.0395721 0
M  V30 2642 C 245.111 2.54735 -2.5424 0
M  V30 2643 C 244.719 2.06628 -3.97504 0
M  V30 2644 C 246.463 3.32092 -2.64414 0
M  V30 2645 C 244.37 3.17829 -4.98737 0
M  V30 2646 H 243.3 0.528862 -0.53742 0
M  V30 2647 H 245.951 0.703365 -1.69485 0
M  V30 2648 H 244.333 3.2763 -2.22428 0
M  V30 2649 H 245.507 1.40734 -4.38783 0
M  V30 2650 H 243.822 1.42146 -3.91387 0
M  V30 2651 H 246.419 4.14952 -3.37223 0
M  V30 2652 H 246.762 3.80217 -1.69532 0
M  V30 2653 H 247.295 2.66279 -2.95534 0
M  V30 2654 H 244.034 2.74671 -5.95177 0
M  V30 2655 H 243.554 3.82429 -4.62069 0
M  V30 2656 H 245.233 3.82937 -5.21505 0
M  V30 2657 N 245.365 1.30045 0.890287 0
M  V30 2658 C 246.313 1.15873 2.01683 0
M  V30 2659 C 247.307 0.0719403 1.69247 0
M  V30 2660 O 248.513 0.232414 1.78493 0
M  V30 2661 H 244.888 0.358203 0.661207 0
M  V30 2662 H 246.859 2.11229 2.10772 0
M  V30 2663 C 245.608 0.861842 3.36849 0
M  V30 2664 H 244.931 1.69016 3.62317 0
M  V30 2665 H 246.371 0.802762 4.16331 0
M  V30 2666 C 244.83 -0.435132 3.34078 0
M  V30 2667 O 245.36 -1.4583 3.74295 0
M  V30 2668 N 243.566 -0.444377 2.87182 0
M  V30 2669 H 243.113 0.388723 2.5465 0
M  V30 2670 H 243.071 -1.31213 2.85711 0
M  V30 2671 N 246.843 -1.10192 1.12674 0
M  V30 2672 C 248.12 -1.78717 0.794965 0
M  V30 2673 C 248.5 -1.98628 -0.714853 0
M  V30 2674 O 247.848 -1.58135 -1.64941 0
M  V30 2675 C 248.058 -3.11546 1.5729 0
M  V30 2676 C 249.406 -3.86382 1.76052 0
M  V30 2677 O 250.43 -3.21274 1.53823 0
M  V30 2678 O 249.289 -5.03246 2.13087 0
M  V30 2679 H 246.383 -0.774702 0.289423 0
M  V30 2680 H 248.929 -1.16819 1.23091 0
M  V30 2681 H 247.701 -2.92489 2.59935 0
M  V30 2682 H 247.324 -3.81164 1.13137 0
M  V30 2683 N 248.321 -0.919034 -1.28029 0
M  V30 2684 C 249.567 -0.555757 -1.95036 0
M  V30 2685 C 249.9 0.899198 -1.72128 0
M  V30 2686 O 249.175 1.64023 -1.04531 0
M  V30 2687 C 249.458 -0.872024 -3.49382 0
M  V30 2688 C 249.311 -2.3801 -3.81669 0
M  V30 2689 C 250.63 -0.37185 -4.38526 0
M  V30 2690 H 247.749 -0.203386 -0.708381 0
M  V30 2691 H 250.391 -1.14924 -1.51303 0
M  V30 2692 H 248.541 -0.366946 -3.86763 0
M  V30 2693 H 250.213 -2.9562 -3.54128 0
M  V30 2694 H 248.456 -2.83289 -3.28526 0
M  V30 2695 H 249.127 -2.55192 -4.8947 0
M  V30 2696 H 251.603 -0.804602 -4.08247 0
M  V30 2697 H 250.479 -0.622173 -5.45362 0
M  V30 2698 H 250.74 0.727934 -4.36066 0
M  V30 2699 N 249.799 1.42003 -0.683588 0
M  V30 2700 C 251.029 2.05448 -0.217866 0
M  V30 2701 C 251.437 1.51491 1.13346 0
M  V30 2702 O 250.78 0.653048 1.717 0
M  V30 2703 C 250.842 3.59399 -0.0850118 0
M  V30 2704 C 250.506 4.36093 -1.36645 0
M  V30 2705 C 251.503 4.66169 -2.30179 0
M  V30 2706 C 249.188 4.75578 -1.61649 0
M  V30 2707 C 251.182 5.34676 -3.46988 0
M  V30 2708 C 248.869 5.43824 -2.78745 0
M  V30 2709 C 249.867 5.73299 -3.71238 0
M  V30 2710 O 249.555 6.40142 -4.86285 0
M  V30 2711 H 249.287 0.668344 -0.101454 0
M  V30 2712 H 251.841 1.82974 -0.933248 0
M  V30 2713 H 250.071 3.80566 0.686031 0
M  V30 2714 H 251.76 4.04457 0.341973 0
M  V30 2715 H 252.526 4.36156 -2.12115 0
M  V30 2716 H 248.405 4.52025 -0.905243 0
M  V30 2717 H 251.949 5.57599 -4.19201 0
M  V30 2718 H 247.846 5.73254 -2.96732 0
M  V30 2719 H 248.614 6.58636 -4.85944 0
M  V30 2720 N 251.277 0.427512 1.51691 0
M  V30 2721 C 252.554 -0.201684 1.94557 0
M  V30 2722 C 252.934 -1.60981 1.36559 0
M  V30 2723 O 252.282 -2.21814 0.548702 0
M  V30 2724 C 252.492 -0.189394 3.48486 0
M  V30 2725 C 253.84 -0.39978 4.22714 0
M  V30 2726 O 254.864 -0.267945 3.55191 0
M  V30 2727 O 253.723 -0.661249 5.42485 0
M  V30 2728 H 250.817 -0.135261 0.815864 0
M  V30 2729 H 253.363 0.484782 1.62628 0
M  V30 2730 H 252.135 0.795431 3.8313 0
M  V30 2731 H 251.758 -0.919187 3.86829 0
M  V30 2732 N 252.755 -1.56801 0.158532 0
M  V30 2733 C 253.685 -2.20347 -0.772609 0
M  V30 2734 C 254.666 -1.15518 -1.24859 0
M  V30 2735 O 255.851 -1.43902 -1.30406 0
M  V30 2736 C 252.981 -2.83417 -2.00729 0
M  V30 2737 C 251.935 -3.94174 -1.66765 0
M  V30 2738 C 251.261 -4.44233 -2.97592 0
M  V30 2739 C 252.561 -5.14392 -0.905447 0
M  V30 2740 H 254.255 -2.98413 -0.242959 0
M  V30 2741 H 251.801 -1.43537 -0.115419 0
M  V30 2742 H 253.754 -3.26543 -2.6636 0
M  V30 2743 H 252.478 -2.02701 -2.56086 0
M  V30 2744 H 251.137 -3.51684 -1.03508 0
M  V30 2745 H 250.785 -3.60325 -3.50963 0
M  V30 2746 H 250.485 -5.18945 -2.75626 0
M  V30 2747 H 252.009 -4.90037 -3.64274 0
M  V30 2748 H 253.423 -5.5429 -1.46408 0
M  V30 2749 H 251.82 -5.9494 -0.7853 0
M  V30 2750 H 252.89 -4.84795 0.100668 0
M  V30 2751 N 254.233 0.115231 -1.57178 0
M  V30 2752 C 255.163 1.1423 -2.03651 0
M  V30 2753 C 256.144 1.42967 -0.921655 0
M  V30 2754 O 257.329 1.53343 -1.19162 0
M  V30 2755 C 254.459 2.4675 -2.44401 0
M  V30 2756 C 253.413 2.32467 -3.59365 0
M  V30 2757 C 252.739 3.69984 -3.86026 0
M  V30 2758 C 254.039 1.78203 -4.90959 0
M  V30 2759 H 255.733 0.755749 -2.89705 0
M  V30 2760 H 253.279 0.362093 -1.39373 0
M  V30 2761 H 255.232 3.18854 -2.75517 0
M  V30 2762 H 253.956 2.87302 -1.55322 0
M  V30 2763 H 252.615 1.62811 -3.28463 0
M  V30 2764 H 252.263 4.08028 -2.94147 0
M  V30 2765 H 251.963 3.61279 -4.63412 0
M  V30 2766 H 253.487 4.43587 -4.19599 0
M  V30 2767 H 254.901 2.40128 -5.20587 0
M  V30 2768 H 253.298 1.8031 -5.72371 0
M  V30 2769 H 254.368 0.739876 -4.79222 0
M  V30 2770 N 255.711 1.52812 0.385517 0
M  V30 2771 C 256.643 1.74096 1.49074 0
M  V30 2772 C 257.656 0.621462 1.50472 0
M  V30 2773 O 258.845 0.897245 1.54311 0
M  V30 2774 C 255.945 1.78774 2.87911 0
M  V30 2775 C 255.118 3.08134 3.10439 0
M  V30 2776 C 254.177 3.04313 4.29278 0
M  V30 2777 O 253.203 3.78168 4.25415 0
M  V30 2778 N 254.405 2.23741 5.35649 0
M  V30 2779 H 257.17 2.69455 1.31202 0
M  V30 2780 H 254.731 1.51343 0.575065 0
M  V30 2781 H 256.723 1.73721 3.65518 0
M  V30 2782 H 255.293 0.907869 2.99126 0
M  V30 2783 H 254.513 3.26649 2.20667 0
M  V30 2784 H 255.801 3.93662 3.22347 0
M  V30 2785 H 255.199 1.63211 5.41645 0
M  V30 2786 H 253.756 2.24524 6.11909 0
M  V30 2787 N 257.189 -0.644168 1.43834 0
M  V30 2788 C 258.139 -1.7501 1.46135 0
M  V30 2789 C 259.123 -1.57507 0.328685 0
M  V30 2790 O 260.315 -1.67465 0.5731 0
M  V30 2791 C 257.444 -3.13641 1.39585 0
M  V30 2792 C 256.53 -3.3666 2.57916 0
M  V30 2793 N 256.921 -3.30107 3.83227 0
M  V30 2794 C 255.219 -3.67411 2.52834 0
M  V30 2795 C 255.92 -3.53456 4.61999 0
M  V30 2796 N 254.896 -3.75705 3.9287 0
M  V30 2797 H 258.698 -1.68382 2.40883 0
M  V30 2798 H 256.212 -0.846169 1.38614 0
M  V30 2799 H 258.209 -3.92933 1.39317 0
M  V30 2800 H 256.869 -3.21444 0.45865 0
M  V30 2801 H 257.88 -3.09316 4.15384 0
M  V30 2802 H 254.557 -3.82275 1.67845 0
M  V30 2803 H 255.947 -3.54093 5.71024 0
M  V30 2804 N 258.668 -1.30515 -0.883378 0
M  V30 2805 C 259.896 -1.22359 -1.66841 0
M  V30 2806 C 260.311 0.213296 -1.87591 0
M  V30 2807 O 259.668 1.14075 -1.42454 0
M  V30 2808 C 259.719 -1.95011 -3.04389 0
M  V30 2809 O 259.44 -3.3309 -2.84575 0
M  V30 2810 C 260.941 -1.93532 -3.98824 0
M  V30 2811 H 258.161 -0.423371 -0.520575 0
M  V30 2812 H 260.705 -1.72167 -1.10357 0
M  V30 2813 H 258.86 -1.48997 -3.57601 0
M  V30 2814 H 259.274 -3.69907 -3.71846 0
M  V30 2815 H 260.748 -2.48902 -4.92699 0
M  V30 2816 H 261.225 -0.914627 -4.29571 0
M  V30 2817 H 261.831 -2.39364 -3.51547 0
M  V30 2818 N 260.146 1.09593 -1.13257 0
M  V30 2819 C 261.371 1.8604 -0.916732 0
M  V30 2820 C 261.796 1.80504 0.529146 0
M  V30 2821 O 261.154 1.18127 1.37534 0
M  V30 2822 C 261.202 3.32017 -1.40703 0
M  V30 2823 O 260.306 4.08141 -0.591153 0
M  V30 2824 H 259.647 0.576943 -0.328683 0
M  V30 2825 H 262.177 1.38405 -1.50682 0
M  V30 2826 H 262.187 3.82865 -1.4099 0
M  V30 2827 H 260.862 3.35361 -2.45979 0
M  V30 2828 H 259.439 3.67084 -0.656005 0
M  V30 2829 N 261.624 0.925811 1.2754 0
M  V30 2830 C 262.554 0.440748 2.29303 0
M  V30 2831 C 263.535 -0.497971 1.62648 0
M  V30 2832 O 264.72 -0.403126 1.8997 0
M  V30 2833 C 261.85 -0.309048 3.45922 0
M  V30 2834 C 260.804 0.54166 4.24559 0
M  V30 2835 C 260.13 -0.337191 5.33636 0
M  V30 2836 C 261.43 1.80516 4.90114 0
M  V30 2837 H 263.124 1.29121 2.70126 0
M  V30 2838 H 260.67 0.622323 1.29858 0
M  V30 2839 H 262.623 -0.659315 4.1621 0
M  V30 2840 H 261.347 -1.19352 3.04011 0
M  V30 2841 H 260.006 0.874609 3.56014 0
M  V30 2842 H 259.654 -1.22056 4.87966 0
M  V30 2843 H 259.354 0.228497 5.87156 0
M  V30 2844 H 260.878 -0.683072 6.06767 0
M  V30 2845 H 262.292 1.52307 5.52698 0
M  V30 2846 H 260.689 2.3142 5.53683 0
M  V30 2847 H 261.759 2.52581 4.13921 0
M  V30 2848 N 263.102 -1.41638 0.69111 0
M  V30 2849 C 264.327 -2.06148 0.227583 0
M  V30 2850 C 264.752 -1.51652 -1.11281 0
M  V30 2851 O 264.11 -0.64164 -1.69566 0
M  V30 2852 C 264.158 -3.60095 0.190858 0
M  V30 2853 O 263.262 -4.03845 -0.835664 0
M  V30 2854 H 262.603 -0.654434 0.112306 0
M  V30 2855 H 265.133 -1.81484 0.944714 0
M  V30 2856 H 265.143 -4.07995 0.020207 0
M  V30 2857 H 263.818 -3.99129 1.16915 0
M  V30 2858 H 262.395 -3.67458 -0.63473 0
M  V30 2859 N 264.58 -0.43555 -1.51462 0
M  V30 2860 C 265.829 0.133007 -2.01261 0
M  V30 2861 C 266.142 1.43942 -1.32439 0
M  V30 2862 O 267.348 2.09081 -1.73198 0
M  V30 2863 C 265.804 0.287581 -3.58749 0
M  V30 2864 C 265.412 -1.00829 -4.36506 0
M  V30 2865 C 267.156 0.810004 -4.167 0
M  V30 2866 C 265.063 -0.819454 -5.85695 0
M  V30 2867 H 263.993 0.0534822 -0.752101 0
M  V30 2868 H 266.644 -0.565038 -1.74584 0
M  V30 2869 H 265.026 1.04859 -3.81865 0
M  V30 2870 H 266.2 -1.77749 -4.25138 0
M  V30 2871 H 264.515 -1.45911 -3.89999 0
M  V30 2872 H 267.112 0.967743 -5.2587 0
M  V30 2873 H 267.455 1.79196 -3.75758 0
M  V30 2874 H 267.988 0.107357 -3.97655 0
M  V30 2875 H 264.727 -1.77374 -6.31046 0
M  V30 2876 H 264.247 -0.0900208 -5.99732 0
M  V30 2877 H 265.926 -0.471949 -6.45276 0
M  V30 2878 N 266.058 1.56714 -0.166846 0
M  V30 2879 C 267.304 1.97039 0.479962 0
M  V30 2880 C 267.637 1.05264 1.63197 0
M  V30 2881 O 266.912 0.0988833 1.94248 0
M  V30 2882 C 267.195 3.46867 0.967212 0
M  V30 2883 C 267.048 4.49421 -0.18466 0
M  V30 2884 C 268.367 3.9968 1.84238 0
M  V30 2885 H 265.486 0.71641 0.172992 0
M  V30 2886 H 268.128 1.8832 -0.252079 0
M  V30 2887 H 266.278 3.54428 1.59101 0
M  V30 2888 H 267.95 4.53924 -0.821621 0
M  V30 2889 H 266.193 4.25573 -0.840837 0
M  V30 2890 H 266.864 5.51644 0.198317 0
M  V30 2891 H 269.34 3.94723 1.31655 0
M  V30 2892 H 268.216 5.04941 2.15234 0
M  V30 2893 H 268.477 3.43226 2.78654 0
M  V30 2894 N 267.536 -0.106894 1.57237 0
M  V30 2895 C 268.784 -0.810921 1.85117 0
M  V30 2896 C 269.105 -1.7984 0.753827 0
M  V30 2897 O 268.375 -1.94649 -0.221056 0
M  V30 2898 H 266.955 -0.302466 0.683025 0
M  V30 2899 H 269.617 -0.0913324 1.94686 0
M  V30 2900 H 268.713 -1.34875 2.81452 0
M  V30 2901 N 269.014 -1.53014 -0.377408 0
M  V30 2902 C 269.924 -1.81557 -1.48574 0
M  V30 2903 C 270.94 -0.703102 -1.59162 0
M  V30 2904 O 272.116 -0.99192 -1.75279 0
M  V30 2905 C 269.181 -1.9889 -2.83978 0
M  V30 2906 C 268.242 -3.22801 -2.83016 0
M  V30 2907 C 267.475 -3.39298 -4.11962 0
M  V30 2908 O 267.698 -2.60345 -5.0752 0
M  V30 2909 O 266.632 -4.32604 -4.18494 0
M  V30 2910 H 270.458 -2.75695 -1.27382 0
M  V30 2911 H 268.043 -1.38248 -0.566373 0
M  V30 2912 H 269.925 -2.11931 -3.6423 0
M  V30 2913 H 268.6 -1.07942 -3.05172 0
M  V30 2914 H 267.507 -3.15193 -2.01505 0
M  V30 2915 H 268.84 -4.13632 -2.66775 0
M  V30 2916 N 270.492 0.636531 -1.44174 0
M  V30 2917 C 271.425 1.76139 -1.45087 0
M  V30 2918 C 272.403 1.59611 -0.310326 0
M  V30 2919 O 273.587 1.81568 -0.506477 0
M  V30 2920 C 270.714 3.13648 -1.27839 0
M  V30 2921 C 269.76 3.48838 -2.45386 0
M  V30 2922 S 270.593 3.46927 -4.07924 0
M  V30 2923 C 271.749 4.87064 -3.9309 0
M  V30 2924 H 271.982 1.75096 -2.40268 0
M  V30 2925 H 269.515 0.810666 -1.31406 0
M  V30 2926 H 271.473 3.93002 -1.18575 0
M  V30 2927 H 270.134 3.12235 -0.341787 0
M  V30 2928 H 269.327 4.48886 -2.29167 0
M  V30 2929 H 268.929 2.76935 -2.51362 0
M  V30 2930 H 271.221 5.76153 -3.56446 0
M  V30 2931 H 272.164 5.08337 -4.92949 0
M  V30 2932 H 272.572 4.61384 -3.25246 0
M  V30 2933 N 271.97 1.30982 0.876444 0
M  V30 2934 C 273.198 1.23242 1.6619 0
M  V30 2935 C 273.613 -0.203345 1.87702 0
M  V30 2936 O 272.97 -1.13317 1.43057 0
M  V30 2937 C 273.021 1.96623 3.03351 0
M  V30 2938 O 272.742 3.34594 2.82804 0
M  V30 2939 C 274.243 1.95644 3.97792 0
M  V30 2940 H 271.463 0.426126 0.518322 0
M  V30 2941 H 274.007 1.7275 1.09442 0
M  V30 2942 H 272.162 1.50892 3.56806 0
M  V30 2943 H 272.576 3.71873 3.69879 0
M  V30 2944 H 274.05 2.51511 4.91372 0
M  V30 2945 H 274.527 0.937395 4.2908 0
M  V30 2946 H 275.133 2.41225 3.50272 0
M  V30 2947 N 273.449 -1.08991 1.13837 0
M  V30 2948 C 274.379 -2.17771 0.842507 0
M  V30 2949 C 275.36 -1.6892 -0.20001 0
M  V30 2950 O 276.545 -1.94113 -0.0579731 0
M  V30 2951 C 273.675 -3.4589 0.312644 0
M  V30 2952 C 272.629 -4.08099 1.28992 0
M  V30 2953 C 271.955 -5.31098 0.619623 0
M  V30 2954 C 273.255 -4.50077 2.65005 0
M  V30 2955 H 274.949 -2.42777 1.75213 0
M  V30 2956 H 272.495 -1.16682 0.843875 0
M  V30 2957 H 274.448 -4.21297 0.0933043 0
M  V30 2958 H 273.172 -3.20419 -0.632382 0
M  V30 2959 H 271.831 -3.34717 1.49533 0
M  V30 2960 H 271.479 -5.0191 -0.33102 0
M  V30 2961 H 271.179 -5.73674 1.27167 0
M  V30 2962 H 272.703 -6.09224 0.409669 0
M  V30 2963 H 274.117 -5.16688 2.48407 0
M  V30 2964 H 272.514 -5.03553 3.26427 0
M  V30 2965 H 273.584 -3.62257 3.22332 0
M  V30 2966 N 274.927 -0.932562 -1.27047 0
M  V30 2967 C 276.155 -0.592031 -1.98249 0
M  V30 2968 C 276.57 0.831062 -1.69525 0
M  V30 2969 O 275.927 1.55299 -0.958561 0
M  V30 2970 C 275.978 -0.814279 -3.5221 0
M  V30 2971 O 275.699 -2.18139 -3.7993 0
M  V30 2972 C 277.2 -0.483121 -4.4066 0
M  V30 2973 H 274.42 -0.223896 -0.632544 0
M  V30 2974 H 276.964 -1.25091 -1.61779 0
M  V30 2975 H 275.119 -0.20213 -3.86872 0
M  V30 2976 H 275.533 -2.235 -4.74498 0
M  V30 2977 H 277.007 -0.689298 -5.47679 0
M  V30 2978 H 277.484 0.581546 -4.35333 0
M  V30 2979 H 278.09 -1.07362 -4.11526 0
M  V30 2980 N 276.405 1.4127 -0.698611 0
M  V30 2981 C 277.654 2.00408 -0.227949 0
M  V30 2982 C 277.967 1.55981 1.18023 0
M  V30 2983 O 279.173 2.07699 1.74852 0
M  V30 2984 C 277.629 3.58129 -0.356636 0
M  V30 2985 C 277.237 4.11536 -1.77037 0
M  V30 2986 C 278.981 4.24466 0.0540969 0
M  V30 2987 C 276.888 5.61701 -1.85055 0
M  V30 2988 H 275.818 0.749586 -0.0814657 0
M  V30 2989 H 278.469 1.61713 -0.867249 0
M  V30 2990 H 276.851 3.94442 0.350965 0
M  V30 2991 H 278.025 3.86636 -2.50698 0
M  V30 2992 H 276.34 3.57736 -2.13105 0
M  V30 2993 H 278.937 5.34698 0.0146723 0
M  V30 2994 H 279.28 4.01687 1.09332 0
M  V30 2995 H 279.813 3.93198 -0.603337 0
M  V30 2996 H 276.552 5.89312 -2.8704 0
M  V30 2997 H 276.072 5.88519 -1.15783 0
M  V30 2998 H 277.751 6.26524 -1.61484 0
M  V30 2999 N 277.883 0.443576 1.51229 0
M  V30 3000 C 279.16 -0.181038 1.9476 0
M  V30 3001 C 279.54 -1.59523 1.38259 0
M  V30 3002 O 278.888 -2.2122 0.572198 0
M  V30 3003 C 279.098 -0.152422 3.48667 0
M  V30 3004 C 280.446 -0.354923 4.23114 0
M  V30 3005 O 281.47 -0.230257 3.55455 0
M  V30 3006 O 280.329 -0.603674 5.43156 0
M  V30 3007 H 277.423 -0.1266 0.817252 0
M  V30 3008 H 279.969 0.502004 1.62105 0
M  V30 3009 H 278.741 0.836022 3.82265 0
M  V30 3010 H 278.364 -0.878107 3.87782 0
M  V30 3011 N 279.361 -1.56624 0.175154 0
M  V30 3012 C 280.311 -2.14747 -0.766004 0
M  V30 3013 C 281.295 -1.08275 -1.19018 0
M  V30 3014 O 282.487 -1.34388 -1.15191 0
M  V30 3015 C 279.616 -2.79478 -1.99366 0
M  V30 3016 C 278.702 -3.93114 -1.5913 0
M  V30 3017 N 279.093 -4.97752 -0.89872 0
M  V30 3018 C 277.391 -4.04345 -1.88204 0
M  V30 3019 C 278.092 -5.77473 -0.700012 0
M  V30 3020 N 277.068 -5.29207 -1.24263 0
M  V30 3021 H 280.87 -2.93015 -0.22793 0
M  V30 3022 H 278.384 -1.6238 -0.0253843 0
M  V30 3023 H 280.381 -3.19498 -2.67818 0
M  V30 3024 H 279.041 -2.02692 -2.53665 0
M  V30 3025 H 280.052 -5.14903 -0.556347 0
M  V30 3026 H 276.729 -3.38667 -2.44153 0
M  V30 3027 H 278.119 -6.71728 -0.152047 0
M  V30 3028 N 280.839 0.0985539 -1.57292 0
M  V30 3029 C 282.079 0.808332 -1.87737 0
M  V30 3030 C 282.443 1.7607 -0.76572 0
M  V30 3031 O 283.644 2.51358 -0.952499 0
M  V30 3032 C 281.915 1.52093 -3.23423 0
M  V30 3033 S 283.474 2.26947 -3.75554 0
M  V30 3034 H 280.292 0.269377 -0.657995 0
M  V30 3035 H 282.894 0.0656269 -1.9539 0
M  V30 3036 H 281.598 0.81363 -4.02254 0
M  V30 3037 H 281.129 2.30361 -3.189 0
M  V30 3038 H 283.144 3.53027 -3.48692 0
M  V30 3039 N 282.317 1.53212 0.369288 0
M  V30 3040 C 283.247 1.82365 1.45826 0
M  V30 3041 C 284.228 0.676907 1.56051 0
M  V30 3042 O 285.413 0.926401 1.70679 0
M  V30 3043 C 282.543 2.01023 2.83208 0
M  V30 3044 C 281.497 3.1678 2.8781 0
M  V30 3045 C 280.823 3.20724 4.27832 0
M  V30 3046 C 282.123 4.55447 2.55667 0
M  V30 3047 H 283.817 2.73559 1.21678 0
M  V30 3048 H 281.363 1.3163 0.583911 0
M  V30 3049 H 283.316 2.20001 3.59413 0
M  V30 3050 H 282.04 1.06536 3.08736 0
M  V30 3051 H 280.699 2.97616 2.14056 0
M  V30 3052 H 280.347 2.23882 4.50429 0
M  V30 3053 H 280.047 3.98496 4.31827 0
M  V30 3054 H 281.571 3.41881 5.05915 0
M  V30 3055 H 282.985 4.74611 3.21586 0
M  V30 3056 H 281.382 5.35432 2.70984 0
M  V30 3057 H 282.452 4.60812 1.5093 0
M  V30 3058 N 283.795 -0.628877 1.44509 0
M  V30 3059 C 284.725 -1.75187 1.54376 0
M  V30 3060 C 285.706 -1.65411 0.396618 0
M  V30 3061 O 286.891 -1.84137 0.617031 0
M  V30 3062 C 284.021 -3.13725 1.48976 0
M  V30 3063 C 282.975 -3.38291 2.62189 0
M  V30 3064 C 282.301 -4.76883 2.41841 0
M  V30 3065 C 283.601 -3.30632 4.04326 0
M  V30 3066 H 285.295 -1.67187 2.48373 0
M  V30 3067 H 282.841 -0.802909 1.19538 0
M  V30 3068 H 284.794 -3.92064 1.54478 0
M  V30 3069 H 283.518 -3.22515 0.514961 0
M  V30 3070 H 282.177 -2.62334 2.56079 0
M  V30 3071 H 281.825 -4.82378 1.42548 0
M  V30 3072 H 281.525 -4.94278 3.17747 0
M  V30 3073 H 283.049 -5.57449 2.49165 0
M  V30 3074 H 284.463 -3.98873 4.11793 0
M  V30 3075 H 282.86 -3.59561 4.80454 0
M  V30 3076 H 283.93 -2.28404 4.27738 0
M  V30 3077 N 285.273 -1.31445 -0.869486 0
M  V30 3078 C 286.519 -1.21337 -1.62496 0
M  V30 3079 C 286.852 0.227872 -1.92858 0
M  V30 3080 O 286.127 1.16094 -1.56053 0
M  V30 3081 C 286.41 -2.05814 -2.95487 0
M  V30 3082 C 286.263 -3.5824 -2.72 0
M  V30 3083 C 287.582 -1.9079 -3.96594 0
M  V30 3084 H 284.701 -0.442135 -0.589649 0
M  V30 3085 H 287.343 -1.6124 -1.00507 0
M  V30 3086 H 285.493 -1.71913 -3.48394 0
M  V30 3087 H 287.165 -4.0228 -2.25762 0
M  V30 3088 H 285.408 -3.81647 -2.06224 0
M  V30 3089 H 286.079 -4.12657 -3.66631 0
M  V30 3090 H 288.555 -2.20459 -3.52898 0
M  V30 3091 H 287.431 -2.52199 -4.87531 0
M  V30 3092 H 287.692 -0.871341 -4.33428 0
M  V30 3093 N 286.751 1.08385 -1.14413 0
M  V30 3094 C 287.976 1.85057 -0.936413 0
M  V30 3095 C 288.401 1.81055 0.509971 0
M  V30 3096 O 287.759 1.1958 1.36273 0
M  V30 3097 C 287.807 3.30505 -1.44217 0
M  V30 3098 O 286.911 4.07491 -0.634409 0
M  V30 3099 H 286.252 0.573425 -0.334784 0
M  V30 3100 H 288.782 1.36799 -1.52142 0
M  V30 3101 H 288.792 3.81348 -1.45043 0
M  V30 3102 H 287.467 3.32734 -2.49522 0
M  V30 3103 H 286.044 3.66368 -0.694902 0
M  V30 3104 N 288.23 0.939286 1.26551 0
M  V30 3105 C 289.478 0.58469 1.93457 0
M  V30 3106 C 289.799 -0.878774 1.74076 0
M  V30 3107 O 289.069 -1.62421 1.09528 0
M  V30 3108 H 287.649 0.21325 0.715914 0
M  V30 3109 H 290.311 1.1942 1.54029 0
M  V30 3110 H 289.407 0.800849 3.0165 0
M  V30 3111 N 289.708 -1.40897 0.706093 0
M  V30 3112 C 290.936 -2.05373 0.250887 0
M  V30 3113 C 291.351 -1.53172 -1.10381 0
M  V30 3114 O 290.708 -0.684305 -1.69185 0
M  V30 3115 C 290.759 -3.6088 0.211571 0
M  V30 3116 O 290.48 -4.11153 1.51276 0
M  V30 3117 C 291.981 -4.42517 -0.263346 0
M  V30 3118 H 289.201 -0.66115 0.114552 0
M  V30 3119 H 291.745 -1.80479 0.961635 0
M  V30 3120 H 289.9 -3.84777 -0.450073 0
M  V30 3121 H 290.314 -5.05279 1.40689 0
M  V30 3122 H 291.788 -5.51479 -0.239718 0
M  V30 3123 H 292.265 -4.19396 -1.30397 0
M  V30 3124 H 292.871 -4.23708 0.367677 0
M  V30 3125 N 291.186 -0.45159 -1.50991 0
M  V30 3126 C 292.414 0.108334 -2.06616 0
M  V30 3127 C 292.829 1.35224 -1.31757 0
M  V30 3128 O 292.186 1.78475 -0.381174 0
M  V30 3129 C 292.237 0.41619 -3.59096 0
M  V30 3130 O 291.958 -0.778361 -4.3113 0
M  V30 3131 C 293.459 1.02523 -4.31282 0
M  V30 3132 H 290.679 0.00159995 -0.670998 0
M  V30 3133 H 293.223 -0.634771 -1.94399 0
M  V30 3134 H 291.378 1.10921 -3.71181 0
M  V30 3135 H 291.792 -0.511181 -5.22003 0
M  V30 3136 H 293.266 1.19053 -5.39009 0
M  V30 3137 H 293.743 2.01013 -3.905 0
M  V30 3138 H 294.349 0.371173 -4.23677 0
M  V30 3139 N 292.664 1.56529 -0.183458 0
M  V30 3140 C 293.941 1.88959 0.50536 0
M  V30 3141 C 294.321 1.09523 1.80466 0
M  V30 3142 O 293.669 0.19278 2.27685 0
M  V30 3143 C 293.879 3.41162 0.73547 0
M  V30 3144 C 295.227 4.11155 1.06005 0
M  V30 3145 O 296.251 3.46548 0.823594 0
M  V30 3146 O 295.11 5.25318 1.50675 0
M  V30 3147 H 292.204 0.78441 0.261973 0
M  V30 3148 H 294.75 1.68231 -0.222802 0
M  V30 3149 H 293.522 3.90874 -0.182561 0
M  V30 3150 H 293.145 3.67543 1.51651 0
M  V30 3151 N 294.142 -0.090211 1.57342 0
M  V30 3152 C 295.072 -1.10976 2.05443 0
M  V30 3153 C 296.053 -1.41482 0.944284 0
M  V30 3154 O 297.238 -1.51428 1.21586 0
M  V30 3155 C 294.368 -2.42831 2.48295 0
M  V30 3156 C 293.322 -2.26721 3.63018 0
M  V30 3157 C 292.648 -3.63796 3.91863 0
M  V30 3158 C 293.948 -1.7037 4.93732 0
M  V30 3159 H 295.642 -0.709564 2.9087 0
M  V30 3160 H 293.188 -0.339874 1.39932 0
M  V30 3161 H 295.141 -3.14431 2.80555 0
M  V30 3162 H 293.865 -2.84795 1.59873 0
M  V30 3163 H 292.524 -1.57565 3.31012 0
M  V30 3164 H 292.172 -4.03297 3.00601 0
M  V30 3165 H 291.872 -3.53861 4.69101 0
M  V30 3166 H 293.396 -4.36855 4.26603 0
M  V30 3167 H 294.81 -2.31816 5.24342 0
M  V30 3168 H 293.207 -1.71181 5.75167 0
M  V30 3169 H 294.277 -0.663542 4.80339 0
M  V30 3170 N 295.62 -1.53406 -0.361157 0
M  V30 3171 C 296.845 -1.74024 -1.12829 0
M  V30 3172 C 297.27 -0.470069 -1.82132 0
M  V30 3173 O 296.628 0.57619 -1.719 0
M  V30 3174 C 296.676 -2.90903 -2.13091 0
M  V30 3175 O 295.78 -2.59821 -3.20261 0
M  V30 3176 H 295.121 -0.577804 -0.327168 0
M  V30 3177 H 297.651 -2.00307 -0.41693 0
M  V30 3178 H 297.661 -3.17194 -2.56616 0
M  V30 3179 H 296.336 -3.83034 -1.62042 0
M  V30 3180 H 294.913 -2.44362 -2.81677 0
M  V30 3181 N 297.098 0.621204 -1.44841 0
M  V30 3182 C 298.326 1.40752 -1.51646 0
M  V30 3183 C 298.741 1.88246 -0.144549 0
M  V30 3184 O 298.098 1.61422 0.851416 0
M  V30 3185 C 298.149 2.62119 -2.4895 0
M  V30 3186 O 297.87 2.16602 -3.80808 0
M  V30 3187 C 299.371 3.55135 -2.65319 0
M  V30 3188 H 296.591 0.431325 -0.514004 0
M  V30 3189 H 299.135 0.758835 -1.899 0
M  V30 3190 H 297.29 3.23058 -2.13805 0
M  V30 3191 H 297.704 2.95358 -4.33433 0
M  V30 3192 H 299.178 4.36874 -3.37409 0
M  V30 3193 H 299.655 4.04592 -1.70886 0
M  V30 3194 H 300.261 3.00058 -3.01405 0
M  V30 3195 N 298.576 1.31904 0.862503 0
M  V30 3196 C 299.825 1.21373 1.61094 0
M  V30 3197 C 300.138 -0.22504 1.94301 0
M  V30 3198 O 301.344 -0.452121 2.67709 0
M  V30 3199 C 299.8 2.12525 2.9045 0
M  V30 3200 C 299.408 3.61441 2.64697 0
M  V30 3201 C 301.152 2.10813 3.68454 0
M  V30 3202 C 299.059 4.44578 3.90006 0
M  V30 3203 H 297.989 0.450705 0.604468 0
M  V30 3204 H 300.64 1.56811 0.953027 0
M  V30 3205 H 299.022 1.69994 3.57656 0
M  V30 3206 H 300.196 4.12264 2.05851 0
M  V30 3207 H 298.511 3.65205 2.00036 0
M  V30 3208 H 301.108 2.70167 4.61426 0
M  V30 3209 H 301.451 1.09713 4.01583 0
M  V30 3210 H 301.984 2.51583 3.08141 0
M  V30 3211 H 298.723 5.46461 3.62023 0
M  V30 3212 H 298.243 3.98508 4.48276 0
M  V30 3213 H 299.922 4.57176 4.5782 0
M  V30 3214 N 300.054 -1.07777 1.14986 0
M  V30 3215 C 301.002 -2.16964 0.838406 0
M  V30 3216 C 301.996 -1.68372 -0.186386 0
M  V30 3217 O 303.202 -1.79951 -0.0418465 0
M  V30 3218 H 299.577 -0.708006 0.253439 0
M  V30 3219 H 301.548 -2.40454 1.76704 0
M  V30 3220 C 300.297 -3.4604 0.339335 0
M  V30 3221 H 299.62 -3.83813 1.11927 0
M  V30 3222 H 301.06 -4.23698 0.160021 0
M  V30 3223 C 299.519 -3.23569 -0.938325 0
M  V30 3224 O 300.049 -3.47752 -2.01077 0
M  V30 3225 N 298.255 -2.77079 -0.876117 0
M  V30 3226 H 297.802 -2.576 -0.00322037 0
M  V30 3227 H 297.76 -2.62422 -1.73153 0
M  V30 3228 N 301.532 -0.945985 -1.26051 0
M  V30 3229 C 302.76 -0.613025 -1.9761 0
M  V30 3230 C 303.175 0.813035 -1.70397 0
M  V30 3231 O 302.532 1.54274 -0.974979 0
M  V30 3232 C 302.583 -0.85159 -3.51326 0
M  V30 3233 O 302.304 -2.22157 -3.77595 0
M  V30 3234 C 303.805 -0.529831 -4.40122 0
M  V30 3235 H 301.025 -0.230593 -0.630133 0
M  V30 3236 H 303.569 -1.268 -1.60443 0
M  V30 3237 H 301.724 -0.243151 -3.86636 0
M  V30 3238 H 302.138 -2.2852 -4.721 0
M  V30 3239 H 303.612 -0.747348 -5.46917 0
M  V30 3240 H 304.089 0.535341 -4.35925 0
M  V30 3241 H 304.695 -1.11721 -4.10364 0
M  V30 3242 N 303.011 1.40521 -0.713556 0
M  V30 3243 C 304.257 2.01221 -0.252564 0
M  V30 3244 C 304.59 1.56444 1.1506 0
M  V30 3245 O 303.865 0.783597 1.78017 0
M  V30 3246 C 304.148 3.58582 -0.330332 0
M  V30 3247 C 304.001 4.13437 -1.77173 0
M  V30 3248 C 305.32 4.39079 0.299641 0
M  V30 3249 H 302.439 0.731077 -0.0932471 0
M  V30 3250 H 305.081 1.67026 -0.905673 0
M  V30 3251 H 303.231 3.87844 0.225737 0
M  V30 3252 H 304.903 3.9498 -2.38303 0
M  V30 3253 H 303.146 3.67801 -2.3001 0
M  V30 3254 H 303.817 5.22597 -1.77755 0
M  V30 3255 H 306.293 4.15735 -0.174139 0
M  V30 3256 H 305.169 5.4848 0.214771 0
M  V30 3257 H 305.43 4.19915 1.38288 0
M  V30 3258 N 304.489 0.459591 1.5075 0
M  V30 3259 C 305.719 -0.0972338 2.06371 0
M  V30 3260 C 306.127 -1.35074 1.32483 0
M  V30 3261 O 305.47 -1.79637 0.384226 0
M  V30 3262 C 305.532 -0.462759 3.56509 0
M  V30 3263 C 305.196 0.687084 4.51805 0
M  V30 3264 C 306.193 1.56578 4.95761 0
M  V30 3265 C 303.878 0.874144 4.94635 0
M  V30 3266 C 305.872 2.61604 5.81242 0
M  V30 3267 C 303.559 1.92765 5.79901 0
M  V30 3268 C 304.557 2.79697 6.23104 0
M  V30 3269 O 304.245 3.83235 7.06673 0
M  V30 3270 H 303.977 -0.00140687 0.675999 0
M  V30 3271 H 306.531 0.644011 1.95043 0
M  V30 3272 H 304.761 -1.25703 3.65699 0
M  V30 3273 H 306.45 -0.953323 3.94546 0
M  V30 3274 H 307.216 1.4329 4.6335 0
M  V30 3275 H 303.095 0.207006 4.60535 0
M  V30 3276 H 306.639 3.29489 6.14884 0
M  V30 3277 H 302.536 2.06064 6.11725 0
M  V30 3278 H 303.304 3.80084 7.24899 0
M  V30 3279 N 305.967 -1.56429 0.191757 0
M  V30 3280 C 307.192 -2.02309 -0.456706 0
M  V30 3281 C 307.617 -1.07103 -1.5463 0
M  V30 3282 O 306.975 -0.0539677 -1.8122 0
M  V30 3283 C 307.023 -3.46654 -0.993159 0
M  V30 3284 O 306.127 -3.54559 -2.10622 0
M  V30 3285 H 305.468 -0.655303 -0.107114 0
M  V30 3286 H 307.998 -2.02364 0.301653 0
M  V30 3287 H 308.008 -3.86377 -1.31061 0
M  V30 3288 H 306.683 -4.1544 -0.195504 0
M  V30 3289 H 305.26 -3.26708 -1.79767 0
M  V30 3290 N 307.445 0.0818655 -1.57387 0
M  V30 3291 C 308.395 1.10501 -1.99433 0
M  V30 3292 C 309.379 1.35041 -0.874798 0
M  V30 3293 O 310.571 1.35511 -1.13868 0
M  V30 3294 C 307.7 2.42159 -2.43339 0
M  V30 3295 C 306.786 2.20937 -3.62005 0
M  V30 3296 N 307.177 1.69616 -4.76512 0
M  V30 3297 C 305.475 2.51451 -3.68359 0
M  V30 3298 C 306.176 1.62973 -5.58404 0
M  V30 3299 N 305.152 2.08664 -5.01956 0
M  V30 3300 H 308.954 0.701373 -2.85408 0
M  V30 3301 H 306.468 0.289096 -1.59806 0
M  V30 3302 H 308.465 3.16208 -2.71695 0
M  V30 3303 H 307.125 2.83249 -1.58746 0
M  V30 3304 H 308.136 1.38624 -4.99003 0
M  V30 3305 H 304.813 2.95975 -2.94457 0
M  V30 3306 H 306.203 1.24233 -6.60315 0
M  V30 3307 N 308.923 1.53595 0.353017 0
M  V30 3308 C 310.334 1.61937 0.929153 0
M  V30 3309 C 310.685 0.494686 1.89861 0
M  V30 3310 O 309.81 -0.377017 2.1309 0
M  V30 3311 C 310.405 2.93526 1.69199 0
M  V30 3312 C 308.964 3.04161 2.21727 0
M  V30 3313 C 308.111 2.57322 1.03348 0
M  V30 3314 H 311.062 1.58155 0.131431 0
M  V30 3315 H 311.083 2.82034 2.55416 0
M  V30 3316 H 310.595 3.75362 0.986144 0
M  V30 3317 H 308.696 2.26938 2.95516 0
M  V30 3318 H 308.809 4.09465 2.48748 0
M  V30 3319 H 307.173 2.12499 1.40414 0
M  V30 3320 H 307.956 3.41588 0.342428 0
M  V30 3321 N 310.401 -0.613514 1.45168 0
M  V30 3322 C 311.333 -1.73825 1.4939 0
M  V30 3323 C 312.346 -1.58175 0.385304 0
M  V30 3324 O 313.535 -1.66165 0.652036 0
M  V30 3325 C 310.635 -3.11758 1.32891 0
M  V30 3326 C 309.808 -3.53704 2.57317 0
M  V30 3327 C 308.867 -4.70579 2.35462 0
M  V30 3328 O 307.893 -4.77996 3.09044 0
M  V30 3329 N 309.095 -5.63454 1.39644 0
M  V30 3330 H 311.86 -1.70669 2.46358 0
M  V30 3331 H 309.421 -0.79862 1.40832 0
M  V30 3332 H 311.413 -3.87692 1.1609 0
M  V30 3333 H 309.983 -3.09456 0.442218 0
M  V30 3334 H 309.203 -2.67794 2.89275 0
M  V30 3335 H 310.491 -3.78486 3.40038 0
M  V30 3336 H 309.889 -5.6017 0.789062 0
M  V30 3337 H 308.446 -6.38944 1.28816 0
M  V30 3338 N 311.879 -1.3236 -0.855495 0
M  V30 3339 C 313.29 -1.2056 -1.42556 0
M  V30 3340 C 313.641 0.182209 -1.95352 0
M  V30 3341 O 312.766 1.08088 -1.87472 0
M  V30 3342 C 313.361 -2.1826 -2.59129 0
M  V30 3343 C 311.92 -2.10351 -3.12137 0
M  V30 3344 C 311.067 -2.06674 -1.84882 0
M  V30 3345 H 314.018 -1.442 -0.662727 0
M  V30 3346 H 314.039 -1.78064 -3.36264 0
M  V30 3347 H 313.551 -3.19257 -2.20673 0
M  V30 3348 H 311.652 -1.12599 -3.55179 0
M  V30 3349 H 311.765 -3.00135 -3.73438 0
M  V30 3350 H 310.129 -1.51901 -2.04446 0
M  V30 3351 H 310.912 -3.09451 -1.48643 0
M  V30 3352 N 313.357 1.07166 -1.15556 0
M  V30 3353 C 314.604 1.79798 -0.931604 0
M  V30 3354 C 314.932 1.8682 0.54115 0
M  V30 3355 O 314.187 1.34942 1.41736 0
M  V30 3356 C 314.486 3.24707 -1.49332 0
M  V30 3357 C 314.152 3.37781 -2.98688 0
M  V30 3358 C 312.814 3.41057 -3.39461 0
M  V30 3359 C 315.166 3.40424 -3.94665 0
M  V30 3360 C 312.494 3.4458 -4.74849 0
M  V30 3361 C 314.846 3.45485 -5.29927 0
M  V30 3362 C 313.51 3.47039 -5.70193 0
M  V30 3363 H 312.78 0.657928 -0.340898 0
M  V30 3364 H 315.427 1.26091 -1.44129 0
M  V30 3365 H 313.732 3.81208 -0.904859 0
M  V30 3366 H 315.429 3.79486 -1.29582 0
M  V30 3367 H 312.019 3.35932 -2.66172 0
M  V30 3368 H 316.203 3.37113 -3.64237 0
M  V30 3369 H 311.459 3.44083 -5.05388 0
M  V30 3370 H 315.633 3.46476 -6.04092 0
M  V30 3371 H 313.26 3.49522 -6.75084 0
M  V30 3372 N 314.835 0.952656 1.25548 0
M  V30 3373 C 315.767 0.428609 2.25157 0
M  V30 3374 C 316.78 -0.454428 1.56329 0
M  V30 3375 O 317.969 -0.263023 1.76552 0
M  V30 3376 C 315.069 -0.401972 3.36508 0
M  V30 3377 C 314.242 0.467601 4.34893 0
M  V30 3378 C 313.301 -0.30445 5.25319 0
M  V30 3379 O 312.327 0.296473 5.68427 0
M  V30 3380 N 313.529 -1.59805 5.5807 0
M  V30 3381 H 316.294 1.28497 2.70756 0
M  V30 3382 H 313.855 0.822798 1.39433 0
M  V30 3383 H 315.847 -0.926134 3.9396 0
M  V30 3384 H 314.417 -1.15918 2.90313 0
M  V30 3385 H 313.637 1.17288 3.76347 0
M  V30 3386 H 314.925 1.06119 4.97611 0
M  V30 3387 H 314.323 -2.10823 5.24948 0
M  V30 3388 H 312.88 -2.06822 6.18116 0
M  V30 3389 N 316.313 -1.40141 0.720998 0
M  V30 3390 C 317.245 -2.29177 0.0324669 0
M  V30 3391 C 318.258 -1.46105 -0.718126 0
M  V30 3392 O 319.447 -1.69335 -0.564608 0
M  V30 3393 C 316.547 -3.24473 -0.978292 0
M  V30 3394 C 315.72 -4.36423 -0.292115 0
M  V30 3395 C 314.779 -5.12122 -1.20901 0
M  V30 3396 O 313.805 -5.64981 -0.691766 0
M  V30 3397 N 315.007 -5.21992 -2.53978 0
M  V30 3398 H 317.772 -2.88909 0.796984 0
M  V30 3399 H 315.333 -1.51569 0.569068 0
M  V30 3400 H 317.325 -3.71987 -1.59398 0
M  V30 3401 H 315.895 -2.65871 -1.64413 0
M  V30 3402 H 315.115 -3.90967 0.503847 0
M  V30 3403 H 316.403 -5.08467 0.183971 0
M  V30 3404 H 315.801 -4.8054 -2.98493 0
M  V30 3405 H 314.358 -5.72995 -3.10677 0
M  V30 3406 N 317.792 -0.46758 -1.50504 0
M  V30 3407 C 319.032 0.0874114 -2.04213 0
M  V30 3408 C 319.396 1.37301 -1.34211 0
M  V30 3409 O 320.597 2.01015 -1.78456 0
M  V30 3410 C 318.868 0.270571 -3.56374 0
M  V30 3411 S 320.427 0.784623 -4.31728 0
M  V30 3412 H 317.245 0.0176153 -0.710782 0
M  V30 3413 H 319.847 -0.633915 -1.84937 0
M  V30 3414 H 318.551 -0.670942 -4.04878 0
M  V30 3415 H 318.082 1.01811 -3.79997 0
M  V30 3416 H 320.097 2.05849 -4.51487 0
M  V30 3417 N 319.27 1.56325 -0.20005 0
M  V30 3418 C 320.495 2.02548 0.44597 0
M  V30 3419 C 320.92 1.07922 1.5406 0
M  V30 3420 O 320.278 0.0635775 1.81188 0
M  V30 3421 C 320.326 3.47175 0.974761 0
M  V30 3422 O 319.43 3.55671 2.08739 0
M  V30 3423 H 318.771 0.655862 0.103638 0
M  V30 3424 H 321.301 2.02201 -0.312381 0
M  V30 3425 H 321.311 3.87067 1.2901 0
M  V30 3426 H 319.986 4.15538 0.17347 0
M  V30 3427 H 318.563 3.27657 1.78032 0
M  V30 3428 N 320.748 -0.0735177 1.57428 0
M  V30 3429 C 321.695 -1.08756 2.0357 0
M  V30 3430 C 322.665 -1.38559 0.916 0
M  V30 3431 O 323.85 -1.49656 1.18354 0
M  V30 3432 C 320.99 -2.39657 2.48311 0
M  V30 3433 C 320.103 -2.16399 3.73892 0
M  V30 3434 C 319.238 -3.40852 4.07423 0
M  V30 3435 C 318.277 -3.1295 5.2605 0
M  V30 3436 N 317.414 -4.29729 5.55228 0
M  V30 3437 H 322.254 -0.687104 2.8997 0
M  V30 3438 H 319.791 -0.327709 1.43403 0
M  V30 3439 H 321.749 -3.16081 2.72303 0
M  V30 3440 H 320.379 -2.77508 1.64891 0
M  V30 3441 H 319.431 -1.30676 3.57251 0
M  V30 3442 H 320.743 -1.91788 4.60455 0
M  V30 3443 H 319.897 -4.25671 4.32306 0
M  V30 3444 H 318.636 -3.68537 3.19425 0
M  V30 3445 H 317.641 -2.26526 5.00965 0
M  V30 3446 H 318.866 -2.86589 6.15665 0
M  V30 3447 H 316.812 -4.57448 4.70188 0
M  V30 3448 H 316.729 -4.08385 6.36206 0
M  V30 3449 H 317.997 -5.1555 5.84661 0
M  V30 3450 N 322.226 -1.5378 -0.344866 0
M  V30 3451 C 323.473 -1.70963 -1.08526 0
M  V30 3452 C 323.801 -0.472126 -1.88683 0
M  V30 3453 O 323.056 0.546116 -1.87926 0
M  V30 3454 C 323.355 -2.92407 -2.05506 0
M  V30 3455 C 323.021 -4.28066 -1.41671 0
M  V30 3456 C 321.683 -4.64951 -1.2399 0
M  V30 3457 C 324.035 -5.12344 -0.956726 0
M  V30 3458 C 321.363 -5.83733 -0.589277 0
M  V30 3459 C 323.715 -6.3179 -0.320015 0
M  V30 3460 C 322.379 -6.67372 -0.130881 0
M  V30 3461 H 321.649 -0.625598 -0.397124 0
M  V30 3462 H 324.296 -1.87995 -0.36469 0
M  V30 3463 H 322.601 -2.69973 -2.8394 0
M  V30 3464 H 324.298 -3.02895 -2.62784 0
M  V30 3465 H 320.888 -3.99034 -1.56429 0
M  V30 3466 H 325.072 -4.8438 -1.08118 0
M  V30 3467 H 320.328 -6.09877 -0.431344 0
M  V30 3468 H 324.502 -6.96386 0.0445072 0
M  V30 3469 H 322.129 -7.59273 0.375318 0
M  V30 3470 N 323.704 0.605807 -1.45491 0
M  V30 3471 C 324.634 1.72709 -1.57143 0
M  V30 3472 C 325.615 1.6476 -0.422884 0
M  V30 3473 O 326.8 1.83132 -0.646247 0
M  V30 3474 C 323.93 3.11316 -1.53948 0
M  V30 3475 C 322.884 3.34077 -2.67537 0
M  V30 3476 C 322.21 4.72975 -2.49397 0
M  V30 3477 C 323.51 3.24158 -4.09535 0
M  V30 3478 H 325.204 1.63214 -2.51001 0
M  V30 3479 H 322.75 0.78379 -1.208 0
M  V30 3480 H 324.703 3.89557 -1.60696 0
M  V30 3481 H 323.427 3.21655 -0.566205 0
M  V30 3482 H 322.086 2.58227 -2.6022 0
M  V30 3483 H 321.734 4.8005 -1.50205 0
M  V30 3484 H 321.434 4.8916 -3.25571 0
M  V30 3485 H 322.958 5.53414 -2.58002 0
M  V30 3486 H 324.372 3.92271 -4.18086 0
M  V30 3487 H 322.769 3.51872 -4.86113 0
M  V30 3488 H 323.839 2.2157 -4.31317 0
M  V30 3489 N 325.182 1.32811 0.848464 0
M  V30 3490 C 326.13 1.22231 1.97895 0
M  V30 3491 C 327.124 0.125749 1.68933 0
M  V30 3492 O 328.33 0.289083 1.77663 0
M  V30 3493 H 324.705 0.379058 0.649476 0
M  V30 3494 H 326.676 2.17828 2.03945 0
M  V30 3495 C 325.425 0.968572 3.33937 0
M  V30 3496 H 324.748 1.80458 3.56756 0
M  V30 3497 H 326.188 0.934808 4.13567 0
M  V30 3498 C 324.647 -0.328628 3.35293 0
M  V30 3499 O 325.177 -1.33848 3.78745 0
M  V30 3500 N 323.383 -0.352788 2.88451 0
M  V30 3501 H 322.93 0.469541 2.53285 0
M  V30 3502 H 322.888 -1.22057 2.89741 0
M  V30 3503 N 326.66 -1.06551 1.16123 0
M  V30 3504 C 328.076 -1.3142 0.905585 0
M  V30 3505 C 328.276 -1.96571 -0.442964 0
M  V30 3506 O 327.332 -2.23068 -1.18308 0
M  V30 3507 C 328.645 -2.19741 2.05267 0
M  V30 3508 C 330.193 -2.33165 2.08813 0
M  V30 3509 C 330.668 -3.24838 3.22868 0
M  V30 3510 N 332.159 -3.32421 3.22568 0
M  V30 3511 C 332.894 -4.0344 4.0746 0
M  V30 3512 N 332.39 -4.77003 5.02434 0
M  V30 3513 N 334.183 -3.99464 3.95456 0
M  V30 3514 H 326.334 -0.626548 2.02949 0
M  V30 3515 H 328.597 -0.338777 0.8854 0
M  V30 3516 H 328.303 -1.79142 3.02657 0
M  V30 3517 H 328.177 -3.20313 1.99198 0
M  V30 3518 H 330.564 -2.73013 1.12018 0
M  V30 3519 H 330.645 -1.3227 2.18948 0
M  V30 3520 H 330.289 -2.85708 4.19921 0
M  V30 3521 H 330.219 -4.25707 3.0997 0
M  V30 3522 H 332.71 -2.79994 2.53795 0
M  V30 3523 H 333.023 -5.28712 5.63634 0
M  V30 3524 H 331.368 -4.75992 5.06415 0
M  V30 3525 H 334.559 -3.4111 3.20564 0
M  V30 3526 H 334.732 -4.54544 4.61837 0
M  V30 3527 N 328.138 -0.959301 -1.25041 0
M  V30 3528 C 329.368 -0.63303 -1.96663 0
M  V30 3529 C 329.776 0.800031 -1.71453 0
M  V30 3530 O 329.119 1.54736 -0.99008 0
M  V30 3531 C 329.181 -0.817523 -3.50081 0
M  V30 3532 C 328.845 -2.22863 -3.98975 0
M  V30 3533 C 329.842 -3.20569 -4.09306 0
M  V30 3534 C 327.527 -2.55407 -4.32519 0
M  V30 3535 C 329.521 -4.4891 -4.52503 0
M  V30 3536 C 327.208 -3.83976 -4.754 0
M  V30 3537 C 328.206 -4.8054 -4.85356 0
M  V30 3538 O 327.894 -6.06817 -5.27284 0
M  V30 3539 H 327.626 -0.235866 -0.633516 0
M  V30 3540 H 330.18 -1.2874 -1.60047 0
M  V30 3541 H 328.41 -0.105992 -3.86555 0
M  V30 3542 H 330.099 -0.491604 -4.02912 0
M  V30 3543 H 330.865 -2.96753 -3.83618 0
M  V30 3544 H 326.744 -1.8097 -4.23994 0
M  V30 3545 H 330.288 -5.24283 -4.60188 0
M  V30 3546 H 326.185 -4.07596 -5.00535 0
M  V30 3547 H 326.953 -6.10262 -5.45457 0
M  V30 3548 N 329.616 1.39756 -0.72842 0
M  V30 3549 C 331.027 1.83498 -0.344289 0
M  V30 3550 C 331.378 1.60868 1.12321 0
M  V30 3551 O 330.503 1.09634 1.86573 0
M  V30 3552 C 331.098 3.33114 -0.618112 0
M  V30 3553 C 329.657 3.753 -0.287549 0
M  V30 3554 C 328.804 2.62831 -0.884048 0
M  V30 3555 H 331.755 1.28842 -0.926578 0
M  V30 3556 H 331.776 3.80334 0.112349 0
M  V30 3557 H 331.288 3.49553 -1.68625 0
M  V30 3558 H 329.389 3.64451 0.775012 0
M  V30 3559 H 329.502 4.72945 -0.765512 0
M  V30 3560 H 327.866 2.52792 -0.311149 0
M  V30 3561 H 328.649 2.82078 -1.95671 0
M  V30 3562 N 331.094 0.475555 1.50254 0
M  V30 3563 C 332.044 -0.335025 2.25525 0
M  V30 3564 C 333.028 -0.957625 1.29299 0
M  V30 3565 O 334.22 -0.869436 1.54175 0
M  V30 3566 C 331.349 -1.41385 3.12834 0
M  V30 3567 C 330.435 -0.798762 4.1651 0
M  V30 3568 N 330.826 0.0835815 5.05731 0
M  V30 3569 C 329.124 -1.06221 4.33166 0
M  V30 3570 C 329.825 0.433113 5.80085 0
M  V30 3571 N 328.801 -0.1928 5.43258 0
M  V30 3572 H 332.603 0.344612 2.91873 0
M  V30 3573 H 330.117 0.289986 1.5979 0
M  V30 3574 H 332.114 -2.00777 3.65368 0
M  V30 3575 H 330.774 -2.09543 2.48036 0
M  V30 3576 H 331.785 0.452715 5.15918 0
M  V30 3577 H 328.462 -1.73844 3.79585 0
M  V30 3578 H 329.852 1.15346 6.61925 0
M  V30 3579 N 332.573 -1.56217 0.208337 0
M  V30 3580 C 333.819 -1.98998 -0.42086 0
M  V30 3581 C 334.174 -1.09331 -1.58317 0
M  V30 3582 O 333.467 -0.140466 -1.91084 0
M  V30 3583 C 333.661 -3.45441 -0.916797 0
M  V30 3584 C 333.49 -4.49273 0.195925 0
M  V30 3585 C 332.26 -5.00998 0.657956 0
M  V30 3586 C 334.458 -5.04294 1.00956 0
M  V30 3587 N 332.44 -5.88514 1.74712 0
M  V30 3588 C 333.811 -5.88607 1.94785 0
M  V30 3589 C 335.866 -4.86692 1.05049 0
M  V30 3590 C 334.569 -6.572 2.9237 0
M  V30 3591 C 336.595 -5.56034 2.01446 0
M  V30 3592 C 335.957 -6.40105 2.94016 0
M  V30 3593 H 332.056 -0.772574 -0.121048 0
M  V30 3594 H 334.64 -1.92101 0.317075 0
M  V30 3595 H 332.811 -3.52812 -1.62413 0
M  V30 3596 H 334.543 -3.75164 -1.51771 0
M  V30 3597 H 331.298 -4.72945 0.248912 0
M  V30 3598 H 331.722 -6.36975 2.2933 0
M  V30 3599 H 336.364 -4.21359 0.348759 0
M  V30 3600 H 334.082 -7.21723 3.63512 0
M  V30 3601 H 337.668 -5.44385 2.0527 0
M  V30 3602 H 336.548 -6.92816 3.6739 0
M  V30 3603 N 334.051 0.0651679 -1.57465 0
M  V30 3604 C 334.998 1.07675 -2.04144 0
M  V30 3605 C 335.968 1.38071 -0.923335 0
M  V30 3606 O 337.153 1.49026 -1.19146 0
M  V30 3607 C 334.293 2.38337 -2.49579 0
M  V30 3608 C 333.406 2.14413 -3.75035 0
M  V30 3609 C 332.541 3.38686 -4.09225 0
M  V30 3610 C 331.58 3.10156 -5.27702 0
M  V30 3611 N 330.717 4.26778 -5.57499 0
M  V30 3612 H 335.557 0.671716 -2.90331 0
M  V30 3613 H 333.094 0.3201 -1.43575 0
M  V30 3614 H 335.052 3.14632 -2.73975 0
M  V30 3615 H 333.682 2.7663 -1.6636 0
M  V30 3616 H 332.734 1.2878 -3.57939 0
M  V30 3617 H 334.046 1.89344 -4.61466 0
M  V30 3618 H 333.2 4.23373 -4.34558 0
M  V30 3619 H 331.939 3.66837 -3.21374 0
M  V30 3620 H 330.944 2.23866 -5.02159 0
M  V30 3621 H 332.169 2.8332 -6.17176 0
M  V30 3622 H 330.115 4.54948 -4.72608 0
M  V30 3623 H 330.032 4.05005 -6.38362 0
M  V30 3624 H 331.3 5.12443 -5.87386 0
M  V30 3625 N 335.529 1.53961 0.336706 0
M  V30 3626 C 336.778 1.70751 1.07363 0
M  V30 3627 C 337.091 0.481061 1.89592 0
M  V30 3628 O 338.297 0.530046 2.66276 0
M  V30 3629 C 336.753 3.01965 1.95818 0
M  V30 3630 C 336.361 4.31971 1.18764 0
M  V30 3631 C 338.105 3.28121 2.69327 0
M  V30 3632 C 336.012 5.54255 2.06289 0
M  V30 3633 H 334.942 0.636292 0.404535 0
M  V30 3634 H 337.593 1.80459 0.332681 0
M  V30 3635 H 335.975 2.86132 2.7376 0
M  V30 3636 H 337.149 4.5853 0.456849 0
M  V30 3637 H 335.464 4.12481 0.569946 0
M  V30 3638 H 338.061 4.16673 3.35094 0
M  V30 3639 H 338.404 2.45426 3.36261 0
M  V30 3640 H 338.937 3.44762 1.98454 0
M  V30 3641 H 335.676 6.39513 1.43885 0
M  V30 3642 H 335.196 5.31935 2.77138 0
M  V30 3643 H 336.875 5.90159 2.65182 0
M  V30 3644 N 337.007 -0.598083 1.45811 0
M  V30 3645 C 337.917 -1.73632 1.57763 0
M  V30 3646 C 338.933 -1.67763 0.461676 0
M  V30 3647 O 340.109 -1.87949 0.723685 0
M  V30 3648 C 337.174 -3.10114 1.55018 0
M  V30 3649 C 336.235 -3.27364 2.77726 0
M  V30 3650 C 335.468 -4.57334 2.75102 0
M  V30 3651 O 335.691 -5.40258 1.8297 0
M  V30 3652 O 334.625 -4.77502 3.66437 0
M  V30 3653 H 338.451 -1.66498 2.53992 0
M  V30 3654 H 336.036 -0.763308 1.28429 0
M  V30 3655 H 337.918 -3.9141 1.56129 0
M  V30 3656 H 336.593 -3.17718 0.619431 0
M  V30 3657 H 335.5 -2.45619 2.82174 0
M  V30 3658 H 336.833 -3.24641 3.69958 0
M  V30 3659 N 338.485 -1.33259 -0.841409 0
M  V30 3660 C 339.715 -1.2742 -1.62628 0
M  V30 3661 C 340.123 0.157604 -1.88542 0
M  V30 3662 O 339.466 1.10938 -1.46419 0
M  V30 3663 C 339.528 -1.97797 -3.00194 0
M  V30 3664 C 339.192 -3.47109 -2.97261 0
M  V30 3665 C 340.189 -4.42358 -2.73159 0
M  V30 3666 C 337.874 -3.89247 -3.17478 0
M  V30 3667 C 339.868 -5.77718 -2.69296 0
M  V30 3668 C 337.555 -5.24713 -3.13241 0
M  V30 3669 C 338.553 -6.1876 -2.89181 0
M  V30 3670 O 338.241 -7.51745 -2.84843 0
M  V30 3671 H 337.973 -0.440436 -0.512827 0
M  V30 3672 H 340.527 -1.76153 -1.05638 0
M  V30 3673 H 338.757 -1.43652 -3.59028 0
M  V30 3674 H 340.446 -1.8549 -3.61038 0
M  V30 3675 H 341.212 -4.11127 -2.57294 0
M  V30 3676 H 337.091 -3.16456 -3.35226 0
M  V30 3677 H 340.635 -6.51097 -2.50436 0
M  V30 3678 H 336.532 -5.55569 -3.28654 0
M  V30 3679 H 337.3 -7.61262 -3.00702 0
M  V30 3680 N 339.963 1.05934 -1.16686 0
M  V30 3681 C 341.191 1.8249 -0.974929 0
M  V30 3682 C 341.606 1.82679 0.476861 0
M  V30 3683 O 340.963 1.2486 1.33103 0
M  V30 3684 C 341.014 3.28943 -1.49929 0
M  V30 3685 O 340.735 3.28886 -2.89423 0
M  V30 3686 C 342.236 4.22215 -1.35089 0
M  V30 3687 H 339.456 0.575295 -0.345365 0
M  V30 3688 H 342 1.33631 -1.548 0
M  V30 3689 H 340.155 3.751 -0.968423 0
M  V30 3690 H 340.569 4.20493 -3.13506 0
M  V30 3691 H 342.043 5.22987 -1.76603 0
M  V30 3692 H 342.52 4.38195 -0.296935 0
M  V30 3693 H 343.126 3.81907 -1.87155 0
M  V30 3694 N 341.441 0.965919 1.2453 0
M  V30 3695 C 342.351 0.502154 2.29163 0
M  V30 3696 C 343.367 -0.436017 1.68448 0
M  V30 3697 O 344.543 -0.309497 1.99008 0
M  V30 3698 C 341.608 -0.201956 3.46111 0
M  V30 3699 C 340.669 0.775821 4.22232 0
M  V30 3700 C 339.902 0.105217 5.33596 0
M  V30 3701 O 340.125 -1.10683 5.59558 0
M  V30 3702 O 339.059 0.796475 5.96607 0
M  V30 3703 H 342.885 1.37194 2.70946 0
M  V30 3704 H 340.47 0.732875 1.30189 0
M  V30 3705 H 342.352 -0.597564 4.17142 0
M  V30 3706 H 341.027 -1.04673 3.06309 0
M  V30 3707 H 339.934 1.22185 3.53584 0
M  V30 3708 H 341.267 1.58896 4.65846 0
M  V30 3709 N 342.919 -1.39368 0.735821 0
M  V30 3710 C 344.144 -2.05319 0.293052 0
M  V30 3711 C 344.569 -1.55115 -1.064 0
M  V30 3712 O 343.927 -0.695261 -1.67439 0
M  V30 3713 C 343.975 -3.59305 0.305323 0
M  V30 3714 O 343.079 -4.06299 -0.706761 0
M  V30 3715 H 342.42 -0.650529 0.13307 0
M  V30 3716 H 344.95 -1.78386 1.00197 0
M  V30 3717 H 344.96 -4.07724 0.149997 0
M  V30 3718 H 343.635 -3.95207 1.29553 0
M  V30 3719 H 342.212 -3.69292 -0.517504 0
M  V30 3720 N 344.397 -0.483516 -1.5 0
M  V30 3721 C 345.625 0.0644831 -2.06799 0
M  V30 3722 C 346.04 1.32399 -1.34596 0
M  V30 3723 O 345.397 1.77626 -0.418946 0
M  V30 3724 C 345.448 0.339927 -3.59898 0
M  V30 3725 O 345.169 -0.869635 -4.29382 0
M  V30 3726 C 346.67 0.933515 -4.33359 0
M  V30 3727 H 343.89 -0.0126333 -0.670881 0
M  V30 3728 H 346.434 -0.675864 -1.93009 0
M  V30 3729 H 344.589 1.03022 -3.7345 0
M  V30 3730 H 345.003 -0.62179 -5.20801 0
M  V30 3731 H 346.477 1.07593 -5.41413 0
M  V30 3732 H 346.954 1.92685 -3.94676 0
M  V30 3733 H 347.56 0.281221 -4.24369 0
M  V30 3734 N 345.875 1.56104 -0.216619 0
M  V30 3735 C 347.1 2.0301 0.424462 0
M  V30 3736 C 347.525 1.0955 1.52907 0
M  V30 3737 O 346.883 0.0827914 1.81111 0
M  V30 3738 C 346.931 3.4819 0.937883 0
M  V30 3739 O 346.035 3.57865 2.04955 0
M  V30 3740 H 345.376 0.656925 0.0966755 0
M  V30 3741 H 347.906 2.01859 -0.33381 0
M  V30 3742 H 347.916 3.88413 1.24897 0
M  V30 3743 H 346.591 4.15699 0.129387 0
M  V30 3744 H 345.168 3.29527 1.74546 0
M  V30 3745 N 347.353 -0.0568162 1.57498 0
M  V30 3746 C 348.316 -1.05038 2.03715 0
M  V30 3747 C 349.316 -1.30709 0.936577 0
M  V30 3748 O 350.506 -1.26178 1.20103 0
M  V30 3749 C 347.638 -2.39034 2.43055 0
M  V30 3750 H 348.831 -0.651715 2.92733 0
M  V30 3751 H 346.384 -0.302947 1.53336 0
M  V30 3752 H 347.119 -2.83703 1.57108 0
M  V30 3753 H 346.904 -2.21739 3.2338 0
M  V30 3754 H 348.394 -3.10421 2.79336 0
M  V30 3755 N 348.832 -1.54138 -0.328536 0
M  V30 3756 C 349.795 -1.82462 -1.38709 0
M  V30 3757 C 350.795 -0.696229 -1.44946 0
M  V30 3758 O 351.985 -0.964535 -1.4506 0
M  V30 3759 C 349.117 -1.98018 -2.77492 0
M  V30 3760 H 350.31 -2.77037 -1.14851 0
M  V30 3761 H 347.863 -1.45779 -0.563751 0
M  V30 3762 H 348.598 -1.05637 -3.06613 0
M  V30 3763 H 348.383 -2.80124 -2.74359 0
M  V30 3764 H 349.873 -2.21396 -3.54081 0
M  V30 3765 N 350.31 0.590341 -1.46126 0
M  V30 3766 C 351.243 1.71434 -1.50617 0
M  V30 3767 C 352.221 1.58543 -0.360948 0
M  V30 3768 O 353.405 1.79865 -0.563985 0
M  V30 3769 C 350.532 3.09422 -1.37753 0
M  V30 3770 C 349.578 3.40854 -2.5636 0
M  V30 3771 S 350.411 3.33773 -4.18755 0
M  V30 3772 C 351.567 4.74312 -4.08386 0
M  V30 3773 H 351.8 1.67364 -2.45717 0
M  V30 3774 H 349.333 0.76845 -1.33919 0
M  V30 3775 H 351.291 3.8903 -1.31018 0
M  V30 3776 H 349.952 3.10989 -0.440949 0
M  V30 3777 H 349.145 4.41368 -2.43332 0
M  V30 3778 H 348.747 2.68798 -2.60046 0
M  V30 3779 H 351.039 5.64522 -3.74595 0
M  V30 3780 H 351.982 4.92397 -5.08872 0
M  V30 3781 H 352.39 4.50803 -3.3976 0
M  V30 3782 N 351.788 1.33704 0.83433 0
M  V30 3783 C 352.698 1.26382 1.97648 0
M  V30 3784 C 353.714 0.173548 1.73132 0
M  V30 3785 O 354.89 0.397962 1.97429 0
M  V30 3786 C 351.955 1.00769 3.31733 0
M  V30 3787 C 351.016 2.1884 3.69334 0
M  V30 3788 C 350.249 1.9444 4.9702 0
M  V30 3789 O 350.472 0.896961 5.63303 0
M  V30 3790 O 349.406 2.81093 5.32231 0
M  V30 3791 H 353.232 2.22444 2.06767 0
M  V30 3792 H 350.817 1.13795 0.968037 0
M  V30 3793 H 352.699 0.882186 4.12062 0
M  V30 3794 H 351.374 0.0773783 3.23608 0
M  V30 3795 H 350.281 2.36946 2.89495 0
M  V30 3796 H 351.614 3.10221 3.82131 0
M  V30 3797 N 353.266 -1.05314 1.17247 0
M  V30 3798 C 354.213 -2.13031 0.888058 0
M  V30 3799 C 355.183 -1.65253 -0.167537 0
M  V30 3800 O 356.368 -1.90775 -0.0305974 0
M  V30 3801 C 353.508 -3.42702 0.406147 0
M  V30 3802 C 352.621 -4.04161 1.52572 0
M  V30 3803 C 351.756 -5.21744 0.997808 0
M  V30 3804 C 350.795 -5.75207 2.09291 0
M  V30 3805 N 349.932 -6.84094 1.57986 0
M  V30 3806 H 354.772 -2.36698 1.81048 0
M  V30 3807 H 352.309 -1.16121 0.903013 0
M  V30 3808 H 354.267 -4.17059 0.108305 0
M  V30 3809 H 352.897 -3.19222 -0.479313 0
M  V30 3810 H 351.949 -3.27253 1.93931 0
M  V30 3811 H 353.261 -4.39881 2.35172 0
M  V30 3812 H 352.415 -6.03168 0.653739 0
M  V30 3813 H 351.154 -4.87495 0.141232 0
M  V30 3814 H 350.159 -4.92414 2.44557 0
M  V30 3815 H 351.384 -6.11505 2.95362 0
M  V30 3816 H 349.33 -6.51745 0.74598 0
M  V30 3817 H 349.247 -7.18811 2.34195 0
M  V30 3818 H 350.515 -7.69172 1.26468 0
M  V30 3819 N 354.744 -0.972509 -1.24016 0
M  V30 3820 C 355.99 -0.637978 -1.92504 0
M  V30 3821 C 356.323 0.825383 -1.75787 0
M  V30 3822 O 355.598 1.59442 -1.11393 0
M  V30 3823 C 355.881 -1.01942 -3.45369 0
M  V30 3824 C 355.734 -2.53983 -3.71231 0
M  V30 3825 C 357.053 -0.55751 -4.36555 0
M  V30 3826 H 354.172 -0.233248 -0.699117 0
M  V30 3827 H 356.814 -1.21238 -1.46292 0
M  V30 3828 H 354.964 -0.530656 -3.84859 0
M  V30 3829 H 356.636 -3.10374 -3.41271 0
M  V30 3830 H 354.879 -2.96968 -3.16216 0
M  V30 3831 H 355.55 -2.75723 -4.78206 0
M  V30 3832 H 358.026 -0.977029 -4.04467 0
M  V30 3833 H 356.902 -0.85292 -5.42233 0
M  V30 3834 H 357.163 0.542328 -4.38761 0
M  V30 3835 N 356.222 1.38976 -0.743202 0
M  V30 3836 C 357.185 2.28901 -0.117014 0
M  V30 3837 C 358.185 1.46698 0.658503 0
M  V30 3838 O 359.375 1.67274 0.486305 0
M  V30 3839 C 356.507 3.30309 0.84315 0
M  V30 3840 H 357.7 2.8578 -0.909373 0
M  V30 3841 H 355.253 1.47761 -0.509547 0
M  V30 3842 H 355.988 2.785 1.66157 0
M  V30 3843 H 355.773 3.91029 0.289594 0
M  V30 3844 H 357.263 3.97577 1.2776 0
M  V30 3845 N 357.7 0.491464 1.49741 0
M  V30 3846 C 358.632 -0.328609 2.26832 0
M  V30 3847 C 359.645 -0.939113 1.32983 0
M  V30 3848 O 360.834 -0.824067 1.58339 0
M  V30 3849 C 357.934 -1.47675 3.05033 0
M  V30 3850 C 357.107 -0.975305 4.26388 0
M  V30 3851 C 356.166 -1.99991 4.86714 0
M  V30 3852 O 355.192 -1.57229 5.47054 0
M  V30 3853 N 356.394 -3.32962 4.75517 0
M  V30 3854 H 359.159 0.332377 2.97851 0
M  V30 3855 H 356.72 0.323441 1.58636 0
M  V30 3856 H 358.712 -2.15954 3.42266 0
M  V30 3857 H 357.282 -2.04206 2.36683 0
M  V30 3858 H 356.502 -0.117723 3.94024 0
M  V30 3859 H 357.79 -0.618531 5.05026 0
M  V30 3860 H 357.188 -3.70399 4.27576 0
M  V30 3861 H 355.745 -3.96982 5.16961 0
M  V30 3862 N 359.178 -1.55987 0.224894 0
M  V30 3863 C 360.141 -2.19178 -0.670348 0
M  V30 3864 C 361.141 -1.15461 -1.11917 0
M  V30 3865 O 362.331 -1.40675 -1.02743 0
M  V30 3866 C 359.463 -2.81777 -1.9187 0
M  V30 3867 H 360.656 -2.99662 -0.119364 0
M  V30 3868 H 358.209 -1.5628 -0.0247128 0
M  V30 3869 H 358.944 -2.05172 -2.51147 0
M  V30 3870 H 358.729 -3.57732 -1.60531 0
M  V30 3871 H 360.219 -3.30205 -2.55645 0
M  V30 3872 N 360.656 0.0484629 -1.57525 0
M  V30 3873 C 361.603 1.05504 -2.05275 0
M  V30 3874 C 362.573 1.37084 -0.937927 0
M  V30 3875 O 363.758 1.47754 -1.2072 0
M  V30 3876 C 360.898 2.35676 -2.52093 0
M  V30 3877 C 360.011 2.10423 -3.77288 0
M  V30 3878 C 359.146 3.34327 -4.12794 0
M  V30 3879 C 358.185 3.04542 -5.30962 0
M  V30 3880 N 357.322 4.20841 -5.61994 0
M  V30 3881 H 362.162 0.640885 -2.91027 0
M  V30 3882 H 359.699 0.304854 -1.43906 0
M  V30 3883 H 361.657 3.11709 -2.77297 0
M  V30 3884 H 360.287 2.7485 -1.69285 0
M  V30 3885 H 359.339 1.24976 -3.59284 0
M  V30 3886 H 360.651 1.84438 -4.63448 0
M  V30 3887 H 359.805 4.1874 -4.39024 0
M  V30 3888 H 358.544 3.63408 -3.25247 0
M  V30 3889 H 357.549 2.18528 -5.04505 0
M  V30 3890 H 358.774 2.76758 -6.20146 0
M  V30 3891 H 356.72 4.4991 -4.77406 0
M  V30 3892 H 356.637 3.98212 -6.42622 0
M  V30 3893 H 357.905 5.06184 -5.92789 0
M  V30 3894 N 362.134 1.5431 0.320358 0
M  V30 3895 C 363.359 1.76954 1.08175 0
M  V30 3896 C 363.784 0.518193 1.80821 0
M  V30 3897 O 363.142 -0.530411 1.73368 0
M  V30 3898 C 363.19 2.96451 2.05303 0
M  V30 3899 O 362.294 2.68221 3.13259 0
M  V30 3900 H 361.635 0.586275 0.311733 0
M  V30 3901 H 364.165 2.01342 0.363676 0
M  V30 3902 H 364.175 3.23887 2.48116 0
M  V30 3903 H 362.85 3.87196 1.51829 0
M  V30 3904 H 361.427 2.51744 2.75099 0
M  V30 3905 N 363.613 -0.582584 1.46437 0
M  V30 3906 C 365.024 -1.1647 1.45916 0
M  V30 3907 C 365.375 -1.95177 0.200077 0
M  V30 3908 O 364.5 -2.04874 -0.696819 0
M  V30 3909 C 365.095 -2.11885 2.64367 0
M  V30 3910 C 363.654 -2.65421 2.66887 0
M  V30 3911 C 362.801 -1.41294 2.38603 0
M  V30 3912 H 365.752 -0.370514 1.54314 0
M  V30 3913 H 365.773 -2.9535 2.39892 0
M  V30 3914 H 365.285 -1.54573 3.5599 0
M  V30 3915 H 363.386 -3.26602 1.79338 0
M  V30 3916 H 363.499 -3.08147 3.66854 0
M  V30 3917 H 361.863 -1.71109 1.88663 0
M  V30 3918 H 362.646 -0.858125 3.32402 0
M  V30 3919 N 365.091 -1.34144 -0.827227 0
M  V30 3920 C 366.041 -1.21923 -1.92663 0
M  V30 3921 C 367.025 -0.119294 -1.60457 0
M  V30 3922 O 368.217 -0.348539 -1.73534 0
M  V30 3923 C 365.346 -0.972492 -3.29238 0
M  V30 3924 C 364.432 -2.1154 -3.67576 0
M  V30 3925 N 364.823 -3.36627 -3.77512 0
M  V30 3926 C 363.121 -2.02468 -3.97395 0
M  V30 3927 C 363.822 -4.11658 -4.1099 0
M  V30 3928 N 362.798 -3.40207 -4.23981 0
M  V30 3929 H 366.6 -2.16721 -1.98517 0
M  V30 3930 H 364.114 -1.2632 -1.02064 0
M  V30 3931 H 366.111 -0.865847 -4.0781 0
M  V30 3932 H 364.771 -0.0331509 -3.24683 0
M  V30 3933 H 365.782 -3.71234 -3.61118 0
M  V30 3934 H 362.459 -1.16265 -4.00985 0
M  V30 3935 H 363.849 -5.19657 -4.25918 0
M  V30 3936 N 366.569 1.04691 -1.17803 0
M  V30 3937 C 367.815 1.78045 -0.970969 0
M  V30 3938 C 368.148 1.87686 0.498751 0
M  V30 3939 O 367.423 1.38035 1.37027 0
M  V30 3940 C 367.706 3.2166 -1.61884 0
M  V30 3941 C 367.559 3.20001 -3.161 0
M  V30 3942 C 368.878 4.1962 -1.3269 0
M  V30 3943 H 365.997 0.64633 -0.354155 0
M  V30 3944 H 368.639 1.22333 -1.45378 0
M  V30 3945 H 366.789 3.69232 -1.20831 0
M  V30 3946 H 368.461 2.80467 -3.66246 0
M  V30 3947 H 366.704 2.58203 -3.48588 0
M  V30 3948 H 367.375 4.21386 -3.56564 0
M  V30 3949 H 369.851 3.80567 -1.68249 0
M  V30 3950 H 368.727 5.18339 -1.80599 0
M  V30 3951 H 368.988 4.414 -0.248622 0
M  V30 3952 N 368.047 0.979072 1.23499 0
M  V30 3953 C 369.01 0.523244 2.23147 0
M  V30 3954 C 370.01 -0.386406 1.56088 0
M  V30 3955 O 371.2 -0.180283 1.73265 0
M  V30 3956 C 368.332 -0.240739 3.40049 0
M  V30 3957 H 369.525 1.40432 2.64989 0
M  V30 3958 H 367.078 0.764824 1.36309 0
M  V30 3959 H 367.813 -1.13841 3.03662 0
M  V30 3960 H 367.598 0.412207 3.89927 0
M  V30 3961 H 369.088 -0.548297 4.13985 0
M  V30 3962 N 369.525 -1.3858 0.750561 0
M  V30 3963 C 370.488 -2.28836 0.129152 0
M  V30 3964 C 371.488 -1.47045 -0.650714 0
M  V30 3965 O 372.678 -1.6753 -0.477428 0
M  V30 3966 C 369.81 -3.30751 -0.825622 0
M  V30 3967 H 371.003 -2.85294 0.924516 0
M  V30 3968 H 368.556 -1.47489 0.517376 0
M  V30 3969 H 369.291 -2.79378 -1.64677 0
M  V30 3970 H 369.076 -3.91177 -0.268852 0
M  V30 3971 H 370.566 -3.98249 -1.2565 0
M  V30 3972 N 371.003 -0.499398 -1.49478 0
M  V30 3973 C 371.933 0.269244 -2.31943 0
M  V30 3974 C 372.914 0.964054 -1.40143 0
M  V30 3975 O 374.099 0.955767 -1.69052 0
M  V30 3976 C 371.229 1.33504 -3.20615 0
M  V30 3977 C 370.183 0.760202 -4.21195 0
M  V30 3978 C 369.509 1.9264 -4.98792 0
M  V30 3979 C 370.809 -0.247661 -5.21712 0
M  V30 3980 H 372.503 -0.419082 -2.96452 0
M  V30 3981 H 370.049 -0.202988 -1.42562 0
M  V30 3982 H 372.002 1.88048 -3.77115 0
M  V30 3983 H 370.726 2.05253 -2.54045 0
M  V30 3984 H 369.385 0.23653 -3.65836 0
M  V30 3985 H 369.033 2.63154 -4.28671 0
M  V30 3986 H 368.733 1.54785 -5.66847 0
M  V30 3987 H 370.257 2.4762 -5.58137 0
M  V30 3988 H 371.671 0.209579 -5.72917 0
M  V30 3989 H 370.068 -0.541962 -5.97648 0
M  V30 3990 H 371.138 -1.16409 -4.7072 0
M  V30 3991 N 372.481 1.55866 -0.233164 0
M  V30 3992 C 373.729 1.9821 0.394593 0
M  V30 3993 C 374.05 1.12234 1.59463 0
M  V30 3994 O 373.32 0.201981 1.94856 0
M  V30 3995 H 371.9 0.732034 0.148778 0
M  V30 3996 H 374.562 1.92107 -0.32876 0
M  V30 3997 H 373.658 3.03845 0.713063 0
M  V30 3998 N 373.959 -0.0401083 1.57549 0
M  V30 3999 C 375.184 -0.748931 1.93406 0
M  V30 4000 C 375.609 -1.68686 0.832274 0
M  V30 4001 O 374.967 -1.80047 -0.212818 0
M  V30 4002 C 375.015 -1.4916 3.28304 0
M  V30 4003 O 374.119 -2.6042 3.19774 0
M  V30 4004 H 373.46 -0.202212 0.63246 0
M  V30 4005 H 375.99 0.00112086 2.046 0
M  V30 4006 H 376 -1.86395 3.62934 0
M  V30 4007 H 374.675 -0.80364 4.08062 0
M  V30 4008 H 373.252 -2.25808 2.96758 0
M  V30 4009 N 375.437 -1.54477 -0.31217 0
M  V30 4010 C 376.347 -1.87695 -1.4074 0
M  V30 4011 C 377.363 -0.769975 -1.56036 0
M  V30 4012 O 378.539 -1.06537 -1.70915 0
M  V30 4013 C 375.604 -2.10755 -2.75287 0
M  V30 4014 C 374.665 -3.34514 -2.69071 0
M  V30 4015 C 373.898 -3.56465 -3.97201 0
M  V30 4016 O 374.121 -2.81637 -4.96021 0
M  V30 4017 O 373.055 -4.49964 -3.9977 0
M  V30 4018 H 376.881 -2.80849 -1.15574 0
M  V30 4019 H 374.466 -1.40526 -0.507228 0
M  V30 4020 H 376.348 -2.27188 -3.54913 0
M  V30 4021 H 375.023 -1.20788 -3.0032 0
M  V30 4022 H 373.93 -3.23456 -1.87955 0
M  V30 4023 H 375.263 -4.24575 -2.48992 0
M  V30 4024 N 376.915 0.57481 -1.46744 0
M  V30 4025 C 377.878 1.66533 -1.57478 0
M  V30 4026 C 378.878 1.54338 -0.451263 0
M  V30 4027 O 380.068 1.58814 -0.715813 0
M  V30 4028 C 377.2 3.05999 -1.50259 0
M  V30 4029 H 378.393 1.58372 -2.54673 0
M  V30 4030 H 375.946 0.793301 -1.34672 0
M  V30 4031 H 376.681 3.19709 -0.543725 0
M  V30 4032 H 376.466 3.16259 -2.31781 0
M  V30 4033 H 377.956 3.8537 -1.60872 0
M  V30 4034 N 378.394 1.34581 0.820102 0
M  V30 4035 C 379.642 1.26845 1.57336 0
M  V30 4036 C 379.963 -0.160667 1.94337 0
M  V30 4037 O 379.233 -1.09396 1.6251 0
M  V30 4038 H 377.813 0.466514 0.583415 0
M  V30 4039 H 380.475 1.68526 0.979027 0
M  V30 4040 H 379.571 1.87513 2.4949 0
M  V30 4041 N 379.872 -1.04064 1.18357 0
M  V30 4042 C 381.12 -1.76915 0.977013 0
M  V30 4043 C 381.441 -1.88624 -0.494577 0
M  V30 4044 O 380.711 -1.41125 -1.3587 0
M  V30 4045 H 379.291 -0.65535 0.358504 0
M  V30 4046 H 381.953 -1.25592 1.49039 0
M  V30 4047 H 381.049 -2.78178 1.41504 0
M  V30 4048 N 381.35 -0.985608 -1.22978 0
M  V30 4049 C 382.578 -0.675582 -1.95559 0
M  V30 4050 C 382.993 0.758413 -1.72897 0
M  V30 4051 O 382.35 1.51094 -1.02357 0
M  V30 4052 C 382.401 -0.96293 -3.48439 0
M  V30 4053 O 382.122 -2.34057 -3.70336 0
M  V30 4054 C 383.623 -0.669585 -4.38214 0
M  V30 4055 H 380.843 -0.250523 -0.622478 0
M  V30 4056 H 383.387 -1.3184 -1.56328 0
M  V30 4057 H 381.542 -0.366033 -3.85667 0
M  V30 4058 H 381.956 -2.43424 -4.64591 0
M  V30 4059 H 383.43 -0.920967 -5.44263 0
M  V30 4060 H 383.907 0.396383 -4.37408 0
M  V30 4061 H 384.513 -1.2472 -4.06602 0
M  V30 4062 N 382.828 1.3818 -0.7579 0
M  V30 4063 C 383.758 2.33027 -0.148597 0
M  V30 4064 C 384.739 1.55085 0.69875 0
M  V30 4065 O 385.924 1.83384 0.639053 0
M  V30 4066 C 383.054 3.3928 0.742034 0
M  V30 4067 C 382.008 4.28 -0.00291946 0
M  V30 4068 C 381.334 5.25146 1.00625 0
M  V30 4069 C 382.634 5.08938 -1.17385 0
M  V30 4070 H 384.328 2.84231 -0.940909 0
M  V30 4071 H 381.874 1.36659 -0.453908 0
M  V30 4072 H 383.827 4.046 1.17799 0
M  V30 4073 H 382.551 2.86569 1.56671 0
M  V30 4074 H 381.21 3.64192 -0.419504 0
M  V30 4075 H 380.858 4.68721 1.8251 0
M  V30 4076 H 380.558 5.85361 0.512428 0
M  V30 4077 H 382.082 5.93342 1.44143 0
M  V30 4078 H 383.496 5.67474 -0.815224 0
M  V30 4079 H 381.893 5.7841 -1.59882 0
M  V30 4080 H 382.963 4.42424 -1.98468 0
M  V30 4081 N 384.306 0.507319 1.49211 0
M  V30 4082 C 385.536 -0.0315292 2.06576 0
M  V30 4083 C 385.944 -1.30791 1.36713 0
M  V30 4084 O 385.287 -1.78324 0.441181 0
M  V30 4085 C 385.349 -0.349104 3.57801 0
M  V30 4086 C 385.013 0.830475 4.49391 0
M  V30 4087 C 386.01 1.72271 4.90529 0
M  V30 4088 C 383.695 1.03107 4.91604 0
M  V30 4089 C 385.689 2.79964 5.72625 0
M  V30 4090 C 383.376 2.11116 5.73475 0
M  V30 4091 C 384.374 2.99379 6.1389 0
M  V30 4092 O 384.062 4.05523 6.94123 0
M  V30 4093 H 383.794 0.0201002 0.675701 0
M  V30 4094 H 386.348 0.705737 1.92895 0
M  V30 4095 H 384.578 -1.14005 3.69513 0
M  V30 4096 H 386.267 -0.827319 3.97379 0
M  V30 4097 H 387.033 1.57958 4.58557 0
M  V30 4098 H 382.912 0.353417 4.59643 0
M  V30 4099 H 386.456 3.48884 6.04091 0
M  V30 4100 H 382.353 2.25421 6.0486 0
M  V30 4101 H 383.121 4.02953 7.1244 0
M  V30 4102 N 385.784 -1.5574 0.241426 0
M  V30 4103 C 387.032 -1.98417 -0.384075 0
M  V30 4104 C 387.353 -1.13078 -1.58866 0
M  V30 4105 O 386.623 -0.212312 -1.94746 0
M  V30 4106 H 385.203 -0.732813 -0.144894 0
M  V30 4107 H 387.865 -1.9193 0.338943 0
M  V30 4108 H 386.961 -3.04219 -0.696939 0
M  V30 4109 N 387.262 0.0317525 -1.57568 0
M  V30 4110 C 388.192 1.03274 -2.0942 0
M  V30 4111 C 389.173 1.3788 -0.996143 0
M  V30 4112 O 390.358 1.46811 -1.27122 0
M  V30 4113 C 387.488 2.33448 -2.57137 0
M  V30 4114 C 386.442 2.13091 -3.71182 0
M  V30 4115 C 385.768 3.49001 -4.05095 0
M  V30 4116 C 387.068 1.51928 -4.99715 0
M  V30 4117 H 388.762 0.60112 -2.93303 0
M  V30 4118 H 386.308 0.287705 -1.41097 0
M  V30 4119 H 388.261 3.03802 -2.92032 0
M  V30 4120 H 386.985 2.78665 -1.70333 0
M  V30 4121 H 385.644 1.45171 -3.36632 0
M  V30 4122 H 385.292 3.91862 -3.15362 0
M  V30 4123 H 384.992 3.36207 -4.81911 0
M  V30 4124 H 386.516 4.20721 -4.42522 0
M  V30 4125 H 387.93 2.12196 -5.32584 0
M  V30 4126 H 386.327 1.49716 -5.81124 0
M  V30 4127 H 387.397 0.484811 -4.8247 0
M  V30 4128 N 388.74 1.54641 0.303973 0
M  V30 4129 C 389.672 1.81754 1.39636 0
M  V30 4130 C 390.685 0.70035 1.46966 0
M  V30 4131 O 391.874 0.97778 1.49338 0
M  V30 4132 C 388.974 1.93785 2.7803 0
M  V30 4133 C 388.147 3.24156 2.93669 0
M  V30 4134 C 387.206 3.26641 4.12544 0
M  V30 4135 O 386.232 4.00187 4.04771 0
M  V30 4136 N 387.434 2.5182 5.23036 0
M  V30 4137 H 390.199 2.76031 1.16734 0
M  V30 4138 H 387.76 1.54178 0.494033 0
M  V30 4139 H 389.752 1.92852 3.55795 0
M  V30 4140 H 388.322 1.06515 2.93893 0
M  V30 4141 H 387.542 3.37887 2.03042 0
M  V30 4142 H 388.83 4.10195 3.01027 0
M  V30 4143 H 388.228 1.91692 5.32232 0
M  V30 4144 H 386.785 2.56644 5.99147 0
M  V30 4145 N 390.218 -0.567019 1.47046 0
M  V30 4146 C 391.464 -1.32658 1.53394 0
M  V30 4147 C 391.797 -1.93254 0.19148 0
M  V30 4148 O 391.072 -1.77338 -0.798844 0
M  V30 4149 C 391.355 -2.44412 2.64452 0
M  V30 4150 C 391.208 -1.88749 4.08282 0
M  V30 4151 C 392.527 -3.46387 2.71485 0
M  V30 4152 H 389.646 -0.48098 0.558415 0
M  V30 4153 H 392.288 -0.635481 1.79058 0
M  V30 4154 H 390.438 -3.03363 2.427 0
M  V30 4155 H 392.11 -1.34134 4.41368 0
M  V30 4156 H 390.353 -1.19481 4.17021 0
M  V30 4157 H 391.024 -2.69491 4.81745 0
M  V30 4158 H 393.5 -2.9734 2.91081 0
M  V30 4159 H 392.376 -4.2202 3.50985 0
M  V30 4160 H 392.637 -4.04616 1.78153 0
M  V30 4161 N 391.696 -1.35014 -0.812953 0
M  V30 4162 C 392.626 -1.30069 -1.93919 0
M  V30 4163 C 393.607 -0.176275 -1.69184 0
M  V30 4164 O 394.792 -0.370227 -1.90638 0
M  V30 4165 C 391.922 -1.06547 -3.30552 0
M  V30 4166 C 390.876 -2.15561 -3.69753 0
M  V30 4167 C 390.202 -1.77214 -5.04479 0
M  V30 4168 C 391.502 -3.57476 -3.808 0
M  V30 4169 H 393.196 -2.24303 -1.98314 0
M  V30 4170 H 390.742 -1.07977 -0.952736 0
M  V30 4171 H 392.695 -1.01729 -4.08937 0
M  V30 4172 H 391.419 -0.0875719 -3.26483 0
M  V30 4173 H 390.078 -2.19466 -2.9365 0
M  V30 4174 H 389.726 -0.780589 -4.96906 0
M  V30 4175 H 389.426 -2.50184 -5.31678 0
M  V30 4176 H 390.95 -1.7391 -5.8531 0
M  V30 4177 H 392.364 -3.55929 -4.4943 0
M  V30 4178 H 390.761 -4.29152 -4.19462 0
M  V30 4179 H 391.831 -3.94091 -2.82525 0
M  V30 4180 N 393.175 1.03435 -1.18907 0
M  V30 4181 C 394.085 2.15075 -0.937015 0
M  V30 4182 C 395.101 1.73706 0.101085 0
M  V30 4183 O 396.277 2.01232 -0.0822948 0
M  V30 4184 C 393.342 3.43458 -0.473057 0
M  V30 4185 C 392.403 3.99172 -1.57989 0
M  V30 4186 C 391.636 5.21427 -1.13797 0
M  V30 4187 O 391.859 5.704 0.000725941 0
M  V30 4188 O 390.793 5.69837 -1.9383 0
M  V30 4189 H 394.619 2.39198 -1.87131 0
M  V30 4190 H 392.204 1.13506 -0.971427 0
M  V30 4191 H 394.086 4.20811 -0.222702 0
M  V30 4192 H 392.761 3.20793 0.432869 0
M  V30 4193 H 391.668 3.23178 -1.88433 0
M  V30 4194 H 393.001 4.2619 -2.46217 0
M  V30 4195 N 394.653 0.992116 1.22453 0
M  V30 4196 C 396.069 0.702713 1.43297 0
M  V30 4197 C 396.269 -0.726909 1.87932 0
M  V30 4198 O 395.325 -1.49792 2.0327 0
M  V30 4199 C 396.638 1.70762 2.47509 0
M  V30 4200 C 398.186 1.72298 2.61309 0
M  V30 4201 C 398.661 2.71649 3.68742 0
M  V30 4202 N 400.152 2.70239 3.76199 0
M  V30 4203 C 400.887 3.43778 4.58917 0
M  V30 4204 N 400.383 4.26914 5.45633 0
M  V30 4205 N 402.176 3.32487 4.5322 0
M  V30 4206 H 394.327 1.91543 0.917871 0
M  V30 4207 H 396.59 0.826031 0.465162 0
M  V30 4208 H 396.296 2.73059 2.21657 0
M  V30 4209 H 396.17 1.49985 3.46099 0
M  V30 4210 H 398.557 0.706989 2.86506 0
M  V30 4211 H 398.638 1.97143 1.62997 0
M  V30 4212 H 398.282 3.73397 3.44292 0
M  V30 4213 H 398.212 2.44074 4.66622 0
M  V30 4214 H 400.703 2.09912 3.14237 0
M  V30 4215 H 401.016 4.79855 6.05771 0
M  V30 4216 H 399.361 4.31002 5.45218 0
M  V30 4217 H 402.552 2.6698 3.84499 0
M  V30 4218 H 402.725 3.90058 5.17454 0
M  V30 4219 N 396.131 -1.37776 0.765217 0
M  V30 4220 C 397.38 -1.99092 0.323307 0
M  V30 4221 C 397.693 -1.61434 -1.10446 0
M  V30 4222 O 398.899 -2.15805 -1.64743 0
M  V30 4223 C 397.355 -3.56019 0.527098 0
M  V30 4224 C 396.963 -4.0262 1.96471 0
M  V30 4225 C 398.707 -4.2424 0.148483 0
M  V30 4226 C 396.614 -5.52233 2.11644 0
M  V30 4227 H 395.544 -0.744846 0.117137 0
M  V30 4228 H 398.195 -1.57391 0.943417 0
M  V30 4229 H 396.577 -3.95667 -0.162372 0
M  V30 4230 H 397.751 -3.74234 2.68859 0
M  V30 4231 H 396.066 -3.47161 2.29931 0
M  V30 4232 H 398.663 -5.34159 0.240456 0
M  V30 4233 H 399.006 -4.06446 -0.900422 0
M  V30 4234 H 399.539 -3.89872 0.79025 0
M  V30 4235 H 396.278 -5.74945 3.1483 0
M  V30 4236 H 395.798 -5.82324 1.4373 0
M  V30 4237 H 397.477 -6.18106 1.91193 0
M  V30 4238 N 397.609 -0.515225 -1.4894 0
M  V30 4239 C 398.519 0.259774 -2.33157 0
M  V30 4240 C 399.535 0.953501 -1.45548 0
M  V30 4241 O 400.711 0.931735 -1.78552 0
M  V30 4242 C 397.776 1.30193 -3.21326 0
M  V30 4243 C 396.837 0.620129 -4.24797 0
M  V30 4244 C 396.07 1.61263 -5.08753 0
M  V30 4245 O 396.293 2.84389 -4.94448 0
M  V30 4246 O 395.227 1.16013 -5.90614 0
M  V30 4247 H 399.053 -0.429932 -3.00641 0
M  V30 4248 H 396.638 -0.276346 -1.46822 0
M  V30 4249 H 398.52 1.90455 -3.75905 0
M  V30 4250 H 397.195 1.97431 -2.56521 0
M  V30 4251 H 396.102 -0.0226019 -3.74093 0
M  V30 4252 H 397.435 -0.0100493 -4.92199 0
M  V30 4253 N 399.087 1.5561 -0.249682 0
M  V30 4254 C 400.05 2.20217 0.635394 0
M  V30 4255 C 401.05 1.17227 1.10066 0
M  V30 4256 O 402.24 1.42292 1.00492 0
M  V30 4257 C 399.372 2.84794 1.87363 0
M  V30 4258 H 400.565 2.99814 0.0716752 0
M  V30 4259 H 398.118 1.563 -0.000153234 0
M  V30 4260 H 398.853 2.09142 2.47851 0
M  V30 4261 H 398.638 3.60241 1.5482 0
M  V30 4262 H 400.128 3.3423 2.5036 0
M  V30 4263 N 400.565 -0.0233959 1.57583 0
M  V30 4264 C 401.513 -1.04063 2.08023 0
M  V30 4265 C 402.507 -1.37084 0.995204 0
M  V30 4266 O 403.713 -1.35923 1.18004 0
M  V30 4267 H 400.088 -0.353144 0.663922 0
M  V30 4268 H 402.059 -0.589453 2.9252 0
M  V30 4269 C 400.808 -2.33123 2.57971 0
M  V30 4270 H 400.131 -2.08577 3.4108 0
M  V30 4271 H 401.571 -3.02632 2.96967 0
M  V30 4272 C 400.03 -3.02483 1.48342 0
M  V30 4273 O 400.56 -3.92541 0.852898 0
M  V30 4274 N 398.766 -2.63909 1.21658 0
M  V30 4275 H 398.313 -1.90758 1.73116 0
M  V30 4276 H 398.271 -3.10633 0.485218 0
M  V30 4277 N 402.043 -1.548 -0.295768 0
M  V30 4278 C 402.975 -1.82492 -1.3867 0
M  V30 4279 C 403.988 -0.708134 -1.46592 0
M  V30 4280 O 405.177 -0.985686 -1.48817 0
M  V30 4281 C 402.277 -1.95256 -2.76999 0
M  V30 4282 C 401.45 -3.25709 -2.91946 0
M  V30 4283 C 400.509 -3.28824 -4.10806 0
M  V30 4284 O 399.535 -4.02328 -4.02643 0
M  V30 4285 N 400.737 -2.5459 -5.21694 0
M  V30 4286 H 403.502 -2.76646 -1.15269 0
M  V30 4287 H 401.063 -1.54438 -0.485849 0
M  V30 4288 H 403.055 -1.94736 -3.54768 0
M  V30 4289 H 401.625 -1.08072 -2.93324 0
M  V30 4290 H 400.845 -3.38959 -2.01247 0
M  V30 4291 H 402.133 -4.11786 -2.98847 0
M  V30 4292 H 401.531 -1.94512 -5.31208 0
M  V30 4293 H 400.088 -2.59818 -5.97778 0
M  V30 4294 N 403.521 0.559213 -1.47345 0
M  V30 4295 C 404.937 0.884943 -1.32819 0
M  V30 4296 C 405.137 1.98988 -0.317173 0
M  V30 4297 O 404.193 2.51031 0.272011 0
M  V30 4298 C 405.506 1.28007 -2.72093 0
M  V30 4299 C 407.054 1.39161 -2.80363 0
M  V30 4300 C 407.529 1.82031 -4.20272 0
M  V30 4301 N 409.02 1.89185 -4.22804 0
M  V30 4302 C 409.755 2.2368 -5.27973 0
M  V30 4303 N 409.251 2.56802 -6.43447 0
M  V30 4304 N 411.044 2.24436 -5.15349 0
M  V30 4305 H 403.195 -0.170304 -2.11716 0
M  V30 4306 H 405.458 -0.0135247 -0.947904 0
M  V30 4307 H 405.164 0.542027 -3.47498 0
M  V30 4308 H 405.038 2.23665 -3.03733 0
M  V30 4309 H 407.425 2.12048 -2.05231 0
M  V30 4310 H 407.506 0.41696 -2.52379 0
M  V30 4311 H 407.15 1.09715 -4.95908 0
M  V30 4312 H 407.08 2.80495 -4.45679 0
M  V30 4313 H 409.571 1.65982 -3.39497 0
M  V30 4314 H 409.884 2.82144 -7.19454 0
M  V30 4315 H 408.229 2.54387 -6.46771 0
M  V30 4316 H 411.42 1.97998 -4.24163 0
M  V30 4317 H 411.593 2.50989 -5.97418 0
M  V30 4318 N 404.999 1.35443 0.805782 0
M  V30 4319 C 405.931 1.24285 1.92577 0
M  V30 4320 C 406.944 0.165962 1.61952 0
M  V30 4321 O 408.133 0.419303 1.73505 0
M  V30 4322 C 405.233 0.891272 3.2697 0
M  V30 4323 C 404.406 2.06669 3.85495 0
M  V30 4324 C 403.465 1.69077 4.98297 0
M  V30 4325 O 402.491 2.4096 5.15681 0
M  V30 4326 N 403.693 0.614869 5.77234 0
M  V30 4327 H 406.458 2.20777 2.02676 0
M  V30 4328 H 404.019 1.28623 0.983243 0
M  V30 4329 H 406.011 0.621256 3.99903 0
M  V30 4330 H 404.581 0.016004 3.12596 0
M  V30 4331 H 403.801 2.50046 3.04747 0
M  V30 4332 H 405.089 2.85237 4.21328 0
M  V30 4333 H 404.487 0.017648 5.65697 0
M  V30 4334 H 403.044 0.404636 6.50543 0
M  V30 4335 N 406.477 -1.02803 1.19454 0
M  V30 4336 C 407.425 -2.13213 0.929673 0
M  V30 4337 C 408.419 -1.69011 -0.114806 0
M  V30 4338 O 409.625 -1.79967 0.0345147 0
M  V30 4339 H 406 -0.69662 0.28324 0
M  V30 4340 H 407.971 -2.32744 1.86743 0
M  V30 4341 C 406.72 -3.4429 0.485797 0
M  V30 4342 H 406.043 -3.7872 1.28105 0
M  V30 4343 H 407.483 -4.22638 0.339582 0
M  V30 4344 C 405.942 -3.27258 -0.800244 0
M  V30 4345 O 406.472 -3.55967 -1.86146 0
M  V30 4346 N 404.678 -2.80545 -0.75781 0
M  V30 4347 H 404.225 -2.57382 0.106039 0
M  V30 4348 H 404.183 -2.6953 -1.61867 0
M  V30 4349 N 407.956 -0.998596 -1.21925 0
M  V30 4350 C 409.203 -0.677663 -1.90824 0
M  V30 4351 C 409.531 0.790905 -1.77693 0
M  V30 4352 O 408.786 1.58817 -1.14349 0
M  V30 4353 C 409.085 -1.03648 -3.42041 0
M  V30 4354 C 408.751 -2.49825 -3.75364 0
M  V30 4355 C 407.413 -2.8977 -3.8417 0
M  V30 4356 C 409.765 -3.44545 -3.91073 0
M  V30 4357 C 407.093 -4.23412 -4.06127 0
M  V30 4358 C 409.445 -4.77853 -4.14535 0
M  V30 4359 C 408.109 -5.17531 -4.21566 0
M  V30 4360 H 407.379 -0.247975 -0.698276 0
M  V30 4361 H 410.026 -1.25584 -1.44571 0
M  V30 4362 H 408.331 -0.376457 -3.89987 0
M  V30 4363 H 410.028 -0.766113 -3.93614 0
M  V30 4364 H 406.618 -2.17866 -3.69097 0
M  V30 4365 H 410.802 -3.14853 -3.83642 0
M  V30 4366 H 406.058 -4.53734 -4.09799 0
M  V30 4367 H 410.232 -5.51189 -4.25633 0
M  V30 4368 H 407.859 -6.21102 -4.38333 0
M  V30 4369 N 409.434 1.37368 -0.772513 0
M  V30 4370 C 410.662 2.03942 -0.348588 0
M  V30 4371 C 411.077 1.58264 1.02947 0
M  V30 4372 O 410.434 0.764246 1.65727 0
M  V30 4373 C 410.485 3.5946 -0.38351 0
M  V30 4374 O 410.206 4.03468 -1.70721 0
M  V30 4375 C 411.707 4.4327 0.0519152 0
M  V30 4376 H 408.927 0.654931 -0.145966 0
M  V30 4377 H 411.471 1.75686 -1.04665 0
M  V30 4378 H 409.626 3.86486 0.265978 0
M  V30 4379 H 410.04 4.97991 -1.64636 0
M  V30 4380 H 411.514 5.51995 -0.0236733 0
M  V30 4381 H 411.991 4.2514 1.10238 0
M  V30 4382 H 412.597 4.21471 -0.569415 0
M  V30 4383 N 410.912 0.523116 1.48665 0
M  V30 4384 C 412.328 0.180511 1.58576 0
M  V30 4385 C 412.528 -1.31597 1.52592 0
M  V30 4386 O 411.584 -2.0937 1.4114 0
M  V30 4387 C 412.897 0.776949 2.90489 0
M  V30 4388 C 414.445 0.745058 3.04003 0
M  V30 4389 C 414.92 1.31995 4.38567 0
M  V30 4390 N 416.411 1.28162 4.45117 0
M  V30 4391 C 417.146 1.6964 5.47731 0
M  V30 4392 N 416.642 2.18816 6.57337 0
M  V30 4393 N 418.435 1.6092 5.38573 0
M  V30 4394 H 410.586 1.4958 1.50797 0
M  V30 4395 H 412.849 0.621772 0.715614 0
M  V30 4396 H 412.555 1.82732 3.00503 0
M  V30 4397 H 412.429 0.25007 3.7637 0
M  V30 4398 H 414.816 -0.296532 2.93606 0
M  V30 4399 H 414.897 1.30933 2.1975 0
M  V30 4400 H 414.541 2.36043 4.49718 0
M  V30 4401 H 414.471 0.731418 5.21496 0
M  V30 4402 H 416.962 0.92155 3.66491 0
M  V30 4403 H 417.275 2.48478 7.31764 0
M  V30 4404 H 415.62 2.22805 6.58318 0
M  V30 4405 H 418.811 1.22304 4.5184 0
M  V30 4406 H 418.984 1.93567 6.18414 0
M  V30 4407 N 412.39 -1.55475 0.257931 0
M  V30 4408 C 413.637 -1.99207 -0.363728 0
M  V30 4409 C 413.965 -1.1462 -1.57139 0
M  V30 4410 O 413.22 -0.199653 -1.94679 0
M  V30 4411 C 413.519 -3.48183 -0.806433 0
M  V30 4412 C 413.185 -4.49936 0.294684 0
M  V30 4413 C 411.847 -4.77481 0.597076 0
M  V30 4414 C 414.199 -5.10769 1.03751 0
M  V30 4415 C 411.527 -5.63132 1.64618 0
M  V30 4416 C 413.879 -5.97558 2.07622 0
M  V30 4417 C 412.543 -6.23432 2.38514 0
M  V30 4418 H 411.813 -0.728949 -0.133097 0
M  V30 4419 H 414.46 -1.8793 0.368059 0
M  V30 4420 H 412.765 -3.56848 -1.61761 0
M  V30 4421 H 414.462 -3.79415 -1.29789 0
M  V30 4422 H 411.052 -4.28572 0.0488649 0
M  V30 4423 H 415.236 -4.89527 0.817149 0
M  V30 4424 H 410.492 -5.8143 1.89074 0
M  V30 4425 H 414.666 -6.43735 2.65666 0
M  V30 4426 H 412.293 -6.89594 3.19943 0
M  V30 4427 N 413.868 0.0150385 -1.57593 0
M  V30 4428 C 415.114 0.704043 -1.90187 0
M  V30 4429 C 415.447 1.74249 -0.857366 0
M  V30 4430 O 414.722 1.94092 0.125843 0
M  V30 4431 C 415.005 1.36087 -3.33395 0
M  V30 4432 C 414.858 0.334981 -4.48551 0
M  V30 4433 C 416.177 2.29112 -3.7576 0
M  V30 4434 H 413.296 0.254475 -0.691673 0
M  V30 4435 H 415.938 -0.0331678 -1.89971 0
M  V30 4436 H 414.088 1.98922 -3.3371 0
M  V30 4437 H 415.76 -0.292534 -4.60372 0
M  V30 4438 H 414.003 -0.344325 -4.32431 0
M  V30 4439 H 414.674 0.833316 -5.45674 0
M  V30 4440 H 417.15 1.76308 -3.76902 0
M  V30 4441 H 416.026 2.72043 -4.76743 0
M  V30 4442 H 416.287 3.16385 -3.08793 0
M  V30 4443 N 415.346 1.54954 0.287554 0
M  V30 4444 C 416.592 1.75132 1.02257 0
M  V30 4445 C 416.925 0.542858 1.86458 0
M  V30 4446 O 416.2 -0.459856 1.88986 0
M  V30 4447 C 416.483 3.04812 1.91733 0
M  V30 4448 C 416.336 4.35985 1.10622 0
M  V30 4449 C 417.655 3.30438 2.90687 0
M  V30 4450 H 414.774 0.637194 0.370341 0
M  V30 4451 H 417.416 1.87678 0.296111 0
M  V30 4452 H 415.566 2.94247 2.53675 0
M  V30 4453 H 417.238 4.58487 0.508636 0
M  V30 4454 H 415.481 4.31865 0.409271 0
M  V30 4455 H 416.152 5.23017 1.76513 0
M  V30 4456 H 418.628 3.40701 2.38877 0
M  V30 4457 H 417.504 4.22467 3.50447 0
M  V30 4458 H 417.765 2.49377 3.65053 0
M  V30 4459 N 416.824 -0.551391 1.4764 0
M  V30 4460 C 417.754 -1.66757 1.63445 0
M  V30 4461 C 418.735 -1.63077 0.483742 0
M  V30 4462 O 419.92 -1.80607 0.71377 0
M  V30 4463 C 417.05 -3.05387 1.65396 0
M  V30 4464 C 416.004 -3.23918 2.79752 0
M  V30 4465 C 415.33 -4.63393 2.66779 0
M  V30 4466 C 416.63 -3.08735 4.21284 0
M  V30 4467 H 418.324 -1.53786 2.56886 0
M  V30 4468 H 415.87 -0.738415 1.23626 0
M  V30 4469 H 417.823 -3.83325 1.75043 0
M  V30 4470 H 416.547 -3.19332 0.685195 0
M  V30 4471 H 415.206 -2.48391 2.69625 0
M  V30 4472 H 414.854 -4.74144 1.67918 0
M  V30 4473 H 414.554 -4.7674 3.43501 0
M  V30 4474 H 416.078 -5.43458 2.78364 0
M  V30 4475 H 417.492 -3.76484 4.32357 0
M  V30 4476 H 415.889 -3.33588 4.98838 0
M  V30 4477 H 416.959 -2.0541 4.39243 0
M  V30 4478 N 418.302 -1.35869 -0.798587 0
M  V30 4479 C 419.265 -1.29307 -1.89242 0
M  V30 4480 C 420.265 -0.202747 -1.59517 0
M  V30 4481 O 421.455 -0.456957 -1.681 0
M  V30 4482 C 418.587 -1.00229 -3.25833 0
M  V30 4483 H 419.78 -2.26576 -1.96478 0
M  V30 4484 H 417.333 -1.20509 -0.995358 0
M  V30 4485 H 418.068 -0.033801 -3.24282 0
M  V30 4486 H 417.853 -1.79121 -3.48795 0
M  V30 4487 H 419.343 -0.98219 -4.05885 0
M  V30 4488 N 419.78 1.02168 -1.19998 0
M  V30 4489 C 421.196 1.27969 -0.953737 0
M  V30 4490 C 421.396 1.98079 0.369703 0
M  V30 4491 O 420.452 2.27306 1.09947 0
M  V30 4492 C 421.765 2.11971 -2.13281 0
M  V30 4493 C 423.313 2.25255 -2.17323 0
M  V30 4494 C 423.788 3.12632 -3.34702 0
M  V30 4495 N 425.279 3.2022 -3.34684 0
M  V30 4496 C 426.014 3.88039 -4.22153 0
M  V30 4497 N 425.51 4.58027 -5.19791 0
M  V30 4498 N 427.303 3.84511 -4.10009 0
M  V30 4499 H 419.454 0.550794 -2.05134 0
M  V30 4500 H 421.717 0.305683 -0.897364 0
M  V30 4501 H 421.423 1.67785 -3.09097 0
M  V30 4502 H 421.297 3.12699 -2.10949 0
M  V30 4503 H 423.684 2.68667 -1.22073 0
M  V30 4504 H 423.765 1.24053 -2.23706 0
M  V30 4505 H 423.409 2.69926 -4.30235 0
M  V30 4506 H 423.339 4.13909 -3.25556 0
M  V30 4507 H 425.83 2.70382 -2.64012 0
M  V30 4508 H 426.143 5.07429 -5.82868 0
M  V30 4509 H 424.488 4.56869 -5.23733 0
M  V30 4510 H 427.679 3.28978 -3.33003 0
M  V30 4511 H 427.852 4.3709 -4.78389 0
M  V30 4512 N 421.258 1.00505 1.21394 0
M  V30 4513 C 422.205 0.565496 2.23765 0
M  V30 4514 C 423.175 -0.408466 1.60999 0
M  V30 4515 O 424.36 -0.310503 1.88257 0
M  V30 4516 C 421.5 -0.101667 3.4495 0
M  V30 4517 C 420.613 0.915479 4.22188 0
M  V30 4518 C 419.748 0.220574 5.30742 0
M  V30 4519 C 418.787 1.22527 5.99711 0
M  V30 4520 N 417.924 0.557831 6.9988 0
M  V30 4521 H 422.764 1.44314 2.60725 0
M  V30 4522 H 420.301 0.722643 1.28126 0
M  V30 4523 H 422.259 -0.505504 4.14126 0
M  V30 4524 H 420.889 -0.94303 3.08718 0
M  V30 4525 H 419.941 1.43756 3.52191 0
M  V30 4526 H 421.253 1.68005 4.69655 0
M  V30 4527 H 420.407 -0.239368 6.06228 0
M  V30 4528 H 419.146 -0.576401 4.84282 0
M  V30 4529 H 418.151 1.69571 5.22997 0
M  V30 4530 H 419.376 2.02332 6.48258 0
M  V30 4531 H 417.322 -0.219486 6.55633 0
M  V30 4532 H 417.239 1.26065 7.45415 0
M  V30 4533 H 418.507 0.121095 7.79406 0
M  V30 4534 N 422.737 -1.36956 0.779787 0
M  V30 4535 C 423.7 -2.2851 0.177662 0
M  V30 4536 C 424.7 -1.48393 -0.619377 0
M  V30 4537 O 425.89 -1.68505 -0.441785 0
M  V30 4538 C 423.022 -3.32428 -0.755279 0
M  V30 4539 H 424.215 -2.83269 0.984823 0
M  V30 4540 H 421.768 -1.46358 0.548544 0
M  V30 4541 H 422.503 -2.82808 -1.58714 0
M  V30 4542 H 422.288 -3.91659 -0.185817 0
M  V30 4543 H 423.778 -4.00824 -1.17174 0
M  V30 4544 N 424.215 -0.530993 -1.48385 0
M  V30 4545 C 425.464 0.00474348 -2.01699 0
M  V30 4546 C 425.777 1.35227 -1.41325 0
M  V30 4547 O 426.983 1.97643 -1.86144 0
M  V30 4548 C 425.439 0.0588473 -3.59852 0
M  V30 4549 C 425.047 -1.28385 -4.2921 0
M  V30 4550 C 426.791 0.543358 -4.21008 0
M  V30 4551 C 424.698 -1.19028 -5.79298 0
M  V30 4552 H 423.628 0.00554317 -0.75398 0
M  V30 4553 H 426.279 -0.674924 -1.70637 0
M  V30 4554 H 424.661 0.803612 -3.8776 0
M  V30 4555 H 425.835 -2.04426 -4.12973 0
M  V30 4556 H 424.15 -1.70418 -3.7993 0
M  V30 4557 H 426.747 0.631351 -5.3096 0
M  V30 4558 H 427.09 1.54937 -3.86394 0
M  V30 4559 H 427.623 -0.145754 -3.97533 0
M  V30 4560 H 424.362 -2.17147 -6.18488 0
M  V30 4561 H 423.882 -0.471246 -5.97946 0
M  V30 4562 H 425.561 -0.881365 -6.40969 0
M  V30 4563 N 425.693 1.55336 -0.266172 0
M  V30 4564 C 426.641 2.23587 0.641228 0
M  V30 4565 C 427.635 1.22986 1.16494 0
M  V30 4566 O 428.841 1.40943 1.1196 0
M  V30 4567 H 425.216 0.717452 0.225315 0
M  V30 4568 H 427.187 2.9837 0.0426561 0
M  V30 4569 C 425.936 2.96369 1.81826 0
M  V30 4570 H 425.259 3.73563 1.42445 0
M  V30 4571 H 426.699 3.47459 2.42998 0
M  V30 4572 C 425.158 2.0133 2.70125 0
M  V30 4573 O 425.688 1.55875 3.70224 0
M  V30 4574 N 423.894 1.6802 2.37102 0
M  V30 4575 H 423.441 2.05181 1.55751 0
M  V30 4576 H 423.399 1.047 2.96454 0
M  V30 4577 N 427.171 -0.0066808 1.57599 0
M  V30 4578 C 428.417 -0.693947 1.90558 0
M  V30 4579 C 428.75 -1.73792 0.866594 0
M  V30 4580 O 428.025 -1.94156 -0.115548 0
M  V30 4581 C 428.308 -1.34317 3.34112 0
M  V30 4582 C 428.161 -0.311189 4.48722 0
M  V30 4583 C 429.48 -2.27116 3.7697 0
M  V30 4584 H 426.599 -0.250803 0.693013 0
M  V30 4585 H 429.241 0.043242 1.89951 0
M  V30 4586 H 427.391 -1.9715 3.3476 0
M  V30 4587 H 429.063 0.316944 4.6021 0
M  V30 4588 H 427.306 0.367253 4.32243 0
M  V30 4589 H 427.977 -0.804366 5.46108 0
M  V30 4590 H 430.453 -1.74306 3.77831 0
M  V30 4591 H 429.329 -2.69511 4.78179 0
M  V30 4592 H 429.59 -3.14743 3.10466 0
M  V30 4593 N 428.649 -1.55105 -0.279332 0
M  V30 4594 C 429.874 -1.7976 -1.03446 0
M  V30 4595 C 430.299 -0.565952 -1.79384 0
M  V30 4596 O 429.657 0.484259 -1.74713 0
M  V30 4597 C 429.705 -3.0179 -1.97371 0
M  V30 4598 O 428.809 -2.76432 -3.06038 0
M  V30 4599 H 428.15 -0.594334 -0.29608 0
M  V30 4600 H 430.68 -2.02235 -0.310165 0
M  V30 4601 H 430.69 -3.30351 -2.39441 0
M  V30 4602 H 429.365 -3.91085 -1.4151 0
M  V30 4603 H 427.942 -2.58949 -2.68328 0
M  V30 4604 N 430.127 0.543554 -1.4793 0
M  V30 4605 C 431.404 1.30458 -1.4574 0
M  V30 4606 C 431.784 2.1048 -0.161692 0
M  V30 4607 O 431.132 2.11831 0.856734 0
M  V30 4608 C 431.342 2.19754 -2.71126 0
M  V30 4609 C 432.69 2.80334 -3.18901 0
M  V30 4610 O 433.714 2.30049 -2.71948 0
M  V30 4611 O 432.573 3.71766 -4.00565 0
M  V30 4612 H 429.667 0.588117 -0.581418 0
M  V30 4613 H 432.213 0.561328 -1.60147 0
M  V30 4614 H 430.985 1.60316 -3.56952 0
M  V30 4615 H 430.608 3.01351 -2.59371 0
M  V30 4616 N 431.605 1.3629 0.791371 0
M  V30 4617 C 432.537 1.26321 1.91248 0
M  V30 4618 C 433.55 0.18313 1.61767 0
M  V30 4619 O 434.739 0.437682 1.73051 0
M  V30 4620 C 431.839 0.925901 3.26007 0
M  V30 4621 C 431.012 2.10746 3.83281 0
M  V30 4622 C 430.071 1.74352 4.96475 0
M  V30 4623 O 429.097 2.46416 5.13096 0
M  V30 4624 N 430.299 0.676058 5.7655 0
M  V30 4625 H 433.064 2.22915 2.00323 0
M  V30 4626 H 430.625 1.29659 0.969546 0
M  V30 4627 H 432.617 0.663636 3.99222 0
M  V30 4628 H 431.187 0.0491581 3.12561 0
M  V30 4629 H 430.407 2.53264 3.02077 0
M  V30 4630 H 431.695 2.8969 4.18279 0
M  V30 4631 H 431.093 0.0776467 5.65647 0
M  V30 4632 H 429.65 0.473612 6.50077 0
M  V30 4633 N 433.083 -1.0153 1.20538 0
M  V30 4634 C 434.329 -1.75408 1.01783 0
M  V30 4635 C 434.662 -1.88943 -0.448814 0
M  V30 4636 O 433.937 -1.4162 -1.33319 0
M  V30 4637 C 434.22 -3.17255 1.70356 0
M  V30 4638 C 434.073 -3.11508 3.24473 0
M  V30 4639 C 435.392 -4.15955 1.43769 0
M  V30 4640 H 432.511 -0.636713 0.371167 0
M  V30 4641 H 435.153 -1.18436 1.4857 0
M  V30 4642 H 433.303 -3.65898 1.30578 0
M  V30 4643 H 434.975 -2.70658 3.73553 0
M  V30 4644 H 433.218 -2.4887 3.55311 0
M  V30 4645 H 433.889 -4.11784 3.67611 0
M  V30 4646 H 436.365 -3.75973 1.7828 0
M  V30 4647 H 435.241 -5.13368 1.94279 0
M  V30 4648 H 435.502 -4.40586 0.365564 0
M  V30 4649 N 434.561 -1.01147 -1.20859 0
M  V30 4650 C 435.972 -0.730205 -1.71828 0
M  V30 4651 C 436.323 0.751662 -1.8123 0
M  V30 4652 O 435.448 1.58686 -1.47132 0
M  V30 4653 C 436.043 -1.31885 -3.12077 0
M  V30 4654 C 434.602 -1.08656 -3.60376 0
M  V30 4655 C 433.749 -1.42769 -2.37723 0
M  V30 4656 H 436.7 -1.18158 -1.05945 0
M  V30 4657 H 436.721 -0.706793 -3.73878 0
M  V30 4658 H 436.233 -2.39737 -3.05201 0
M  V30 4659 H 434.334 -0.0254814 -3.72591 0
M  V30 4660 H 434.447 -1.76301 -4.45483 0
M  V30 4661 H 432.811 -0.846603 -2.40218 0
M  V30 4662 H 433.594 -2.51666 -2.33493 0
M  V30 4663 N 436.039 1.36541 -0.78704 0
M  V30 4664 C 437.002 2.28413 -0.189778 0
M  V30 4665 C 438.002 1.48719 0.611499 0
M  V30 4666 O 439.192 1.68737 0.432842 0
M  V30 4667 C 436.324 3.32824 0.737638 0
M  V30 4668 H 437.517 2.82743 -0.999831 0
M  V30 4669 H 435.07 1.46065 -0.556298 0
M  V30 4670 H 435.805 2.83646 1.57212 0
M  V30 4671 H 435.59 3.91752 0.165044 0
M  V30 4672 H 437.08 4.0144 1.15047 0
M  V30 4673 N 437.518 0.538854 1.48102 0
M  V30 4674 C 438.465 -0.219042 2.29758 0
M  V30 4675 C 439.435 -0.925562 1.37922 0
M  V30 4676 O 440.62 -0.924855 1.66886 0
M  V30 4677 C 437.76 -1.25452 3.2149 0
M  V30 4678 C 436.873 -0.555943 4.28408 0
M  V30 4679 C 436.008 -1.57512 5.0731 0
M  V30 4680 C 435.047 -0.860498 6.06021 0
M  V30 4681 N 434.184 -1.82564 6.77949 0
M  V30 4682 H 439.024 0.483449 2.94052 0
M  V30 4683 H 436.561 0.250247 1.44956 0
M  V30 4684 H 438.519 -1.86727 3.7308 0
M  V30 4685 H 437.149 -1.92528 2.591 0
M  V30 4686 H 436.201 0.170938 3.80016 0
M  V30 4687 H 437.513 0.00474616 4.988 0
M  V30 4688 H 436.667 -2.26191 5.62959 0
M  V30 4689 H 435.406 -2.16972 4.36778 0
M  V30 4690 H 434.411 -0.159686 5.49568 0
M  V30 4691 H 435.636 -0.271897 6.78555 0
M  V30 4692 H 433.582 -2.40915 6.10161 0
M  V30 4693 H 433.499 -1.31662 7.44447 0
M  V30 4694 H 434.767 -2.50414 7.38182 0
M  V30 4695 N 438.996 -1.55193 0.274407 0
M  V30 4696 C 440.224 -2.03987 -0.345943 0
M  V30 4697 C 440.639 -1.15279 -1.4952 0
M  V30 4698 O 439.996 -0.172759 -1.8168 0
M  V30 4699 C 440.047 -3.51898 -0.827631 0
M  V30 4700 O 439.768 -4.37231 0.275855 0
M  V30 4701 C 441.269 -4.16577 -1.51587 0
M  V30 4702 H 438.489 -0.666335 -0.0789892 0
M  V30 4703 H 441.033 -2.00423 0.406294 0
M  V30 4704 H 439.188 -3.55909 -1.52996 0
M  V30 4705 H 439.602 -5.24415 -0.0943638 0
M  V30 4706 H 441.076 -5.21678 -1.80433 0
M  V30 4707 H 441.553 -3.64707 -2.44716 0
M  V30 4708 H 442.159 -4.16568 -0.857409 0
M  V30 4709 N 440.474 -0.00167713 -1.576 0
M  V30 4710 C 441.702 0.693759 -1.94922 0
M  V30 4711 C 442.117 1.67215 -0.876626 0
M  V30 4712 O 441.474 1.81929 0.144279 0
M  V30 4713 C 441.525 1.42416 -3.32265 0
M  V30 4714 O 441.246 0.485014 -4.35407 0
M  V30 4715 C 442.747 2.21395 -3.84056 0
M  V30 4716 H 439.967 0.193118 -0.642609 0
M  V30 4717 H 442.511 -0.0532952 -2.04431 0
M  V30 4718 H 440.666 2.12284 -3.24059 0
M  V30 4719 H 441.08 1.00053 -5.14868 0
M  V30 4720 H 442.554 2.67996 -4.82578 0
M  V30 4721 H 443.031 3.04142 -3.16851 0
M  V30 4722 H 443.637 1.56542 -3.95443 0
M  V30 4723 N 441.952 1.55251 0.271103 0
M  V30 4724 C 442.882 1.9127 1.33933 0
M  V30 4725 C 443.863 0.77478 1.5143 0
M  V30 4726 O 445.048 1.03307 1.64442 0
M  V30 4727 C 442.178 2.18627 2.69851 0
M  V30 4728 C 441.132 3.34442 2.67081 0
M  V30 4729 C 440.458 3.47284 4.06569 0
M  V30 4730 C 441.758 4.70784 2.26185 0
M  V30 4731 H 443.452 2.80744 1.04035 0
M  V30 4732 H 440.998 1.35077 0.499017 0
M  V30 4733 H 442.951 2.42413 3.44694 0
M  V30 4734 H 441.675 1.25955 3.01335 0
M  V30 4735 H 440.334 3.10627 1.94695 0
M  V30 4736 H 439.982 2.52074 4.35279 0
M  V30 4737 H 439.682 4.25152 4.0561 0
M  V30 4738 H 441.206 3.73363 4.83148 0
M  V30 4739 H 442.62 4.94102 2.90751 0
M  V30 4740 H 441.017 5.51582 2.36384 0
M  V30 4741 H 442.087 4.69478 1.21319 0
M  V30 4742 N 443.43 -0.535701 1.48216 0
M  V30 4743 C 444.36 -1.65014 1.65204 0
M  V30 4744 C 445.341 -1.62554 0.501011 0
M  V30 4745 O 446.526 -1.7984 0.732886 0
M  V30 4746 C 443.656 -3.03616 1.68626 0
M  V30 4747 C 442.61 -3.20932 2.83172 0
M  V30 4748 C 441.936 -4.60537 2.71679 0
M  V30 4749 C 443.236 -3.04249 4.24535 0
M  V30 4750 H 444.93 -1.51053 2.58502 0
M  V30 4751 H 442.476 -0.725262 1.24402 0
M  V30 4752 H 444.429 -3.81446 1.79099 0
M  V30 4753 H 443.153 -3.18587 0.719026 0
M  V30 4754 H 441.812 -2.45517 2.72244 0
M  V30 4755 H 441.46 -4.72336 1.72937 0
M  V30 4756 H 441.16 -4.73069 3.48538 0
M  V30 4757 H 442.684 -5.40475 2.84112 0
M  V30 4758 H 444.098 -3.71877 4.36326 0
M  V30 4759 H 442.495 -3.28278 5.02348 0
M  V30 4760 H 443.565 -2.00739 4.41397 0
M  V30 4761 N 444.908 -1.36708 -0.784132 0
M  V30 4762 C 445.841 -1.25827 -1.90375 0
M  V30 4763 C 446.819 -0.141331 -1.61985 0
M  V30 4764 O 448.003 -0.313389 -1.85877 0
M  V30 4765 C 445.13 -0.942621 -3.25319 0
M  V30 4766 C 444.176 -2.07474 -3.72635 0
M  V30 4767 S 445.009 -3.69317 -3.8777 0
M  V30 4768 C 446.165 -3.39876 -5.25581 0
M  V30 4769 H 446.398 -2.20593 -1.99314 0
M  V30 4770 H 443.931 -1.22186 -0.943926 0
M  V30 4771 H 445.889 -0.767321 -4.03265 0
M  V30 4772 H 444.55 -0.0126566 -3.14097 0
M  V30 4773 H 443.743 -1.80858 -4.70432 0
M  V30 4774 H 443.345 -2.20953 -3.01754 0
M  V30 4775 H 445.637 -2.94097 -6.10339 0
M  V30 4776 H 446.58 -4.36956 -5.57203 0
M  V30 4777 H 446.988 -2.75098 -4.92931 0
M  V30 4778 N 446.386 1.0089 -1.21074 0
M  V30 4779 C 447.349 2.0775 -0.968129 0
M  V30 4780 C 448.349 1.6069 0.0593445 0
M  V30 4781 O 449.539 1.73293 -0.177525 0
M  V30 4782 C 446.671 3.37794 -0.459108 0
M  V30 4783 H 447.864 2.30707 -1.9161 0
M  V30 4784 H 445.417 1.17807 -1.02719 0
M  V30 4785 H 446.152 3.20516 0.49397 0
M  V30 4786 H 445.937 3.7328 -1.20019 0
M  V30 4787 H 447.427 4.16454 -0.309099 0
M  V30 4788 N 447.864 1.01787 1.20321 0
M  V30 4789 C 449.092 0.727194 1.937 0
M  V30 4790 C 449.507 -0.712305 1.74848 0
M  V30 4791 O 448.864 -1.48327 1.06327 0
M  V30 4792 C 448.915 1.05497 3.45764 0
M  V30 4793 O 448.636 2.43794 3.64 0
M  V30 4794 C 450.137 0.785534 4.36285 0
M  V30 4795 H 447.357 0.266939 0.615617 0
M  V30 4796 H 449.901 1.35939 1.52777 0
M  V30 4797 H 448.056 0.468158 3.84561 0
M  V30 4798 H 448.47 2.55656 4.57974 0
M  V30 4799 H 449.944 1.06495 5.4163 0
M  V30 4800 H 450.421 -0.280273 4.38305 0
M  V30 4801 H 451.027 1.35456 4.03152 0
M  V30 4802 N 449.342 -1.36122 0.79427 0
M  V30 4803 C 450.59 -1.98718 0.368177 0
M  V30 4804 C 450.911 -1.63345 -1.06506 0
M  V30 4805 O 450.181 -0.909825 -1.73491 0
M  V30 4806 H 448.761 -0.735038 0.133146 0
M  V30 4807 H 451.423 -1.66239 1.01739 0
M  V30 4808 H 450.519 -3.08633 0.463923 0
M  V30 4809 N 450.82 -0.546701 -1.47814 0
M  V30 4810 C 451.752 0.244196 -2.27895 0
M  V30 4811 C 452.765 0.88911 -1.36377 0
M  V30 4812 O 453.954 0.764733 -1.61289 0
M  V30 4813 C 451.054 1.36252 -3.10304 0
M  V30 4814 C 450.227 0.816382 -4.29714 0
M  V30 4815 C 449.286 1.81789 -4.93801 0
M  V30 4816 O 448.312 1.36818 -5.52512 0
M  V30 4817 N 449.514 3.15085 -4.87547 0
M  V30 4818 H 452.279 -0.442694 -2.96412 0
M  V30 4819 H 449.84 -0.382095 -1.57327 0
M  V30 4820 H 451.832 2.03102 -3.50045 0
M  V30 4821 H 450.402 1.95281 -2.44099 0
M  V30 4822 H 449.622 -0.0285981 -3.9419 0
M  V30 4823 H 450.91 0.430668 -5.06974 0
M  V30 4824 H 450.308 3.54275 -4.41028 0
M  V30 4825 H 448.865 3.77522 -5.31339 0
M  V30 4826 N 452.299 1.55045 -0.282633 0
M  V30 4827 C 453.231 2.2023 0.634924 0
M  V30 4828 C 454.244 1.18931 1.11172 0
M  V30 4829 O 455.433 1.4562 1.03233 0
M  V30 4830 C 452.533 2.82041 1.87899 0
M  V30 4831 C 451.706 4.091 1.54776 0
M  V30 4832 C 450.765 4.54887 2.64507 0
M  V30 4833 O 449.791 5.20496 2.30375 0
M  V30 4834 N 450.993 4.25659 3.94709 0
M  V30 4835 H 453.758 2.99601 0.0769811 0
M  V30 4836 H 451.319 1.61565 -0.104048 0
M  V30 4837 H 453.311 3.09613 2.60619 0
M  V30 4838 H 451.881 2.06618 2.3458 0
M  V30 4839 H 451.101 3.88736 0.654049 0
M  V30 4840 H 452.389 4.9187 1.30158 0
M  V30 4841 H 451.787 3.7306 4.25256 0
M  V30 4842 H 450.344 4.57984 4.63782 0
M  V30 4843 N 453.777 0.010035 1.57597 0
M  V30 4844 C 454.74 -0.963029 2.07986 0
M  V30 4845 C 455.74 -1.26619 0.991173 0
M  V30 4846 O 456.93 -1.2097 1.25347 0
M  V30 4847 C 454.062 -2.2851 2.52974 0
M  V30 4848 H 455.255 -0.526971 2.95234 0
M  V30 4849 H 452.808 -0.237639 1.54483 0
M  V30 4850 H 453.543 -2.76784 1.69 0
M  V30 4851 H 453.328 -2.07824 3.32493 0
M  V30 4852 H 454.818 -2.98294 2.9225 0
M  V30 4853 N 455.255 -1.55392 -0.262866 0
M  V30 4854 C 456.503 -1.76127 -0.991147 0
M  V30 4855 C 456.824 -0.571083 -1.8645 0
M  V30 4856 O 456.094 0.413698 -1.91482 0
M  V30 4857 H 454.674 -0.649528 -0.368948 0
M  V30 4858 H 457.336 -1.9281 -0.284655 0
M  V30 4859 H 456.432 -2.6663 -1.62219 0
M  V30 4860 N 456.733 0.527833 -1.48498 0
M  V30 4861 C 457.696 1.61439 -1.62696 0
M  V30 4862 C 458.696 1.52824 -0.500136 0
M  V30 4863 O 459.886 1.56456 -0.765976 0
M  V30 4864 C 457.018 3.01063 -1.59918 0
M  V30 4865 H 458.211 1.50189 -2.59583 0
M  V30 4866 H 455.764 0.750055 -1.37127 0
M  V30 4867 H 456.499 3.17818 -0.645163 0
M  V30 4868 H 456.284 3.08725 -2.41726 0
M  V30 4869 H 457.774 3.80057 -1.73051 0
M  V30 4870 N 458.211 1.37122 0.776871 0
M  V30 4871 C 459.141 1.35164 1.90402 0
M  V30 4872 C 460.122 0.221069 1.68657 0
M  V30 4873 O 461.307 0.420642 1.8959 0
M  V30 4874 C 458.437 1.15274 3.27611 0
M  V30 4875 C 457.391 2.25289 3.63908 0
M  V30 4876 C 456.717 1.90527 4.99603 0
M  V30 4877 C 458.017 3.67446 3.71188 0
M  V30 4878 H 459.711 2.29482 1.92297 0
M  V30 4879 H 457.257 1.10465 0.923773 0
M  V30 4880 H 459.21 1.12536 4.06096 0
M  V30 4881 H 457.934 0.174102 3.26136 0
M  V30 4882 H 456.593 2.27174 2.87728 0
M  V30 4883 H 456.241 0.91206 4.94662 0
M  V30 4884 H 455.941 2.64193 5.24858 0
M  V30 4885 H 457.465 1.89367 5.80493 0
M  V30 4886 H 458.879 3.67719 4.39836 0
M  V30 4887 H 457.276 4.40123 4.07936 0
M  V30 4888 H 458.346 4.01443 2.71977 0
M  V30 4889 N 459.689 -1.00246 1.21608 0
M  V30 4890 C 460.935 -1.74319 1.03638 0
M  V30 4891 C 461.268 -1.89408 -0.428749 0
M  V30 4892 O 460.543 -1.43026 -1.3181 0
M  V30 4893 C 460.826 -3.15431 1.73711 0
M  V30 4894 C 460.679 -3.08049 3.27759 0
M  V30 4895 C 461.998 -4.14407 1.48173 0
M  V30 4896 H 459.117 -0.632741 0.377899 0
M  V30 4897 H 461.759 -1.16853 1.49818 0
M  V30 4898 H 459.909 -3.64493 1.34452 0
M  V30 4899 H 461.581 -2.66681 3.76403 0
M  V30 4900 H 459.824 -2.45088 3.57931 0
M  V30 4901 H 460.495 -4.07862 3.71958 0
M  V30 4902 H 462.971 -3.74061 1.82258 0
M  V30 4903 H 461.847 -5.11279 1.99713 0
M  V30 4904 H 462.108 -4.40174 0.412273 0
M  V30 4905 N 461.167 -1.02423 -1.1978 0
M  V30 4906 C 462.077 -0.610919 -2.26506 0
M  V30 4907 C 463.093 0.355152 -1.70337 0
M  V30 4908 O 464.269 0.214195 -2.00258 0
M  V30 4909 C 461.334 0.0365921 -3.46681 0
M  V30 4910 C 460.395 -0.976389 -4.18049 0
M  V30 4911 C 459.628 -0.359683 -5.32487 0
M  V30 4912 O 459.851 0.838601 -5.64202 0
M  V30 4913 O 458.785 -1.08022 -5.92127 0
M  V30 4914 H 462.611 -1.49965 -2.64091 0
M  V30 4915 H 460.196 -0.794156 -1.26545 0
M  V30 4916 H 462.078 0.39786 -4.19518 0
M  V30 4917 H 460.753 0.899398 -3.10954 0
M  V30 4918 H 459.66 -1.38916 -3.47352 0
M  V30 4919 H 460.993 -1.80941 -4.57735 0
M  V30 4920 N 462.645 1.35699 -0.801477 0
M  V30 4921 C 463.608 2.28199 -0.213994 0
M  V30 4922 C 464.608 1.49359 0.595691 0
M  V30 4923 O 465.798 1.69186 0.414921 0
M  V30 4924 C 462.93 3.33587 0.702297 0
M  V30 4925 H 464.123 2.81666 -1.02976 0
M  V30 4926 H 461.676 1.45467 -0.571759 0
M  V30 4927 H 462.411 2.85297 1.54195 0
M  V30 4928 H 462.196 3.91906 0.123484 0
M  V30 4929 H 463.686 4.02638 1.10783 0
M  V30 4930 N 464.123 0.554532 1.47522 0
M  V30 4931 C 465.053 -0.182974 2.32782 0
M  V30 4932 C 466.034 -0.911377 1.43624 0
M  V30 4933 O 467.219 -0.892366 1.72483 0
M  V30 4934 C 464.349 -1.21513 3.25349 0
M  V30 4935 C 463.303 -0.603355 4.23726 0
M  V30 4936 C 462.629 -1.73995 5.05598 0
M  V30 4937 C 463.929 0.441121 5.20434 0
M  V30 4938 H 465.623 0.52882 2.94693 0
M  V30 4939 H 463.169 0.255759 1.41711 0
M  V30 4940 H 465.122 -1.73922 3.83835 0
M  V30 4941 H 463.846 -1.95683 2.61487 0
M  V30 4942 H 462.505 -0.10059 3.66462 0
M  V30 4943 H 462.153 -2.47063 4.38143 0
M  V30 4944 H 461.853 -1.3364 5.72201 0
M  V30 4945 H 463.377 -2.26735 5.66942 0
M  V30 4946 H 464.791 0.00319931 5.733 0
M  V30 4947 H 463.188 0.763402 5.95224 0
M  V30 4948 H 464.258 1.33799 4.66075 0
M  V30 4949 N 465.601 -1.54893 0.290851 0
M  V30 4950 C 466.531 -2.26103 -0.583084 0
M  V30 4951 C 467.512 -1.25684 -1.14619 0
M  V30 4952 O 468.697 -1.54436 -1.17741 0
M  V30 4953 C 465.827 -2.99409 -1.75987 0
M  V30 4954 C 464.781 -4.0689 -1.32758 0
M  V30 4955 C 464.107 -4.67856 -2.58872 0
M  V30 4956 C 465.407 -5.20215 -0.46624 0
M  V30 4957 H 467.101 -2.99398 0.0108214 0
M  V30 4958 H 464.647 -1.43998 0.00664468 0
M  V30 4959 H 466.6 -3.47943 -2.37727 0
M  V30 4960 H 465.324 -2.23675 -2.37985 0
M  V30 4961 H 463.983 -3.59191 -0.733299 0
M  V30 4962 H 463.631 -3.88772 -3.19163 0
M  V30 4963 H 463.331 -5.40438 -2.30653 0
M  V30 4964 H 464.855 -5.19147 -3.21433 0
M  V30 4965 H 466.269 -5.64704 -0.989047 0
M  V30 4966 H 464.666 -5.99455 -0.27826 0
M  V30 4967 H 465.736 -4.82198 0.511173 0
M  V30 4968 N 467.08 -0.0183926 -1.57589 0
M  V30 4969 C 468.326 0.663543 -1.91638 0
M  V30 4970 C 468.659 1.72392 -0.894134 0
M  V30 4971 O 467.934 1.94316 0.0846449 0
M  V30 4972 C 468.217 1.28984 -3.36207 0
M  V30 4973 C 468.07 0.239761 -4.49161 0
M  V30 4974 C 469.389 2.2109 -3.80536 0
M  V30 4975 H 466.508 0.239746 -0.696915 0
M  V30 4976 H 469.15 -0.073456 -1.89858 0
M  V30 4977 H 467.3 1.91799 -3.37854 0
M  V30 4978 H 468.972 -0.390119 -4.59647 0
M  V30 4979 H 467.215 -0.435972 -4.31604 0
M  V30 4980 H 467.886 0.717383 -5.47319 0
M  V30 4981 H 470.362 1.68273 -3.80557 0
M  V30 4982 H 469.238 2.61869 -4.82406 0
M  V30 4983 H 469.499 3.09764 -3.15434 0
M  V30 4984 N 468.558 1.5553 0.254621 0
M  V30 4985 C 469.488 1.9268 1.31897 0
M  V30 4986 C 470.469 0.790797 1.506 0
M  V30 4987 O 471.654 1.05045 1.63337 0
M  V30 4988 C 468.784 2.21477 2.67517 0
M  V30 4989 C 467.738 3.37256 2.63519 0
M  V30 4990 C 467.064 3.51576 4.02862 0
M  V30 4991 C 468.364 4.73157 2.21179 0
M  V30 4992 H 470.058 2.81832 1.01051 0
M  V30 4993 H 467.604 1.35599 0.484662 0
M  V30 4994 H 469.557 2.46055 3.42104 0
M  V30 4995 H 468.281 1.29144 2.99982 0
M  V30 4996 H 466.94 3.12675 1.9139 0
M  V30 4997 H 466.588 2.56676 4.32581 0
M  V30 4998 H 466.288 4.2943 4.01078 0
M  V30 4999 H 467.812 3.78467 4.79161 0
M  V30 5000 H 469.226 4.97158 2.85494 0
M  V30 5001 H 467.623 5.54058 2.30521 0
M  V30 5002 H 468.693 4.70739 1.16332 0
M  V30 5003 N 470.036 -0.519951 1.48776 0
M  V30 5004 C 471.452 -0.849418 1.35119 0
M  V30 5005 C 471.652 -1.98077 0.36982 0
M  V30 5006 O 470.708 -2.51664 -0.205359 0
M  V30 5007 C 472.021 -1.20748 2.75391 0
M  V30 5008 C 473.569 -1.31679 2.83954 0
M  V30 5009 C 474.044 -1.70824 4.24951 0
M  V30 5010 N 475.535 -1.77908 4.27672 0
M  V30 5011 C 476.27 -2.09603 5.33717 0
M  V30 5012 N 475.766 -2.39652 6.5003 0
M  V30 5013 N 477.559 -2.10694 5.21119 0
M  V30 5014 H 469.71 0.226377 2.1119 0
M  V30 5015 H 471.973 0.0386519 0.947212 0
M  V30 5016 H 471.679 -0.449703 3.48813 0
M  V30 5017 H 471.553 -2.15534 3.09556 0
M  V30 5018 H 473.94 -2.06532 2.10781 0
M  V30 5019 H 474.021 -0.3499 2.53396 0
M  V30 5020 H 473.665 -0.965282 4.98643 0
M  V30 5021 H 473.595 -2.6858 4.52959 0
M  V30 5022 H 476.086 -1.56923 3.43779 0
M  V30 5023 H 476.399 -2.6297 7.26682 0
M  V30 5024 H 474.744 -2.37149 6.53288 0
M  V30 5025 H 477.935 -1.86682 4.29264 0
M  V30 5026 H 478.108 -2.35062 6.03863 0
M  V30 5027 N 471.514 -1.37532 -0.769588 0
M  V30 5028 C 472.462 -1.33561 -1.90432 0
M  V30 5029 C 473.456 -0.224027 -1.67912 0
M  V30 5030 O 474.662 -0.392174 -1.75676 0
M  V30 5031 H 471.037 -0.416279 -0.626271 0
M  V30 5032 H 473.008 -2.29348 -1.90899 0
M  V30 5033 C 471.757 -1.16162 -3.27722 0
M  V30 5034 H 471.08 -2.00951 -3.45628 0
M  V30 5035 H 472.52 -1.17434 -4.07413 0
M  V30 5036 C 470.979 0.132583 -3.36639 0
M  V30 5037 O 471.509 1.11539 -3.85904 0
M  V30 5038 N 469.715 0.184013 -2.90017 0
M  V30 5039 H 469.262 -0.616415 -2.50116 0
M  V30 5040 H 469.22 1.04956 -2.96364 0
M  V30 5041 N 472.992 0.995999 -1.22138 0
M  V30 5042 C 473.942 2.06988 -0.956042 0
M  V30 5043 C 474.926 1.60636 0.0921576 0
M  V30 5044 O 476.118 1.76607 -0.117958 0
M  V30 5045 C 473.247 3.39148 -0.532335 0
M  V30 5046 C 472.333 3.92142 -1.61509 0
M  V30 5047 N 472.724 4.18397 -2.84214 0
M  V30 5048 C 471.022 4.20514 -1.48606 0
M  V30 5049 C 471.723 4.61425 -3.54206 0
M  V30 5050 N 470.699 4.64934 -2.81669 0
M  V30 5051 H 474.501 2.25223 -1.88816 0
M  V30 5052 H 472.015 1.17748 -1.11845 0
M  V30 5053 H 474.012 4.15642 -0.323574 0
M  V30 5054 H 472.672 3.22314 0.392921 0
M  V30 5055 H 473.683 4.06682 -3.20671 0
M  V30 5056 H 470.36 4.12769 -0.626762 0
M  V30 5057 H 471.75 4.90387 -4.59315 0
M  V30 5058 N 474.47 1.03057 1.19235 0
M  V30 5059 C 475.418 0.606391 2.24557 0
M  V30 5060 C 476.412 -0.361826 1.65491 0
M  V30 5061 O 477.618 -0.23022 1.78522 0
M  V30 5062 H 473.993 0.177838 0.730669 0
M  V30 5063 H 475.964 1.50529 2.5765 0
M  V30 5064 C 474.713 -0.0252127 3.47691 0
M  V30 5065 H 474.036 0.710838 3.9343 0
M  V30 5066 H 475.476 -0.284931 4.23042 0
M  V30 5067 C 473.935 -1.27229 3.11953 0
M  V30 5068 O 474.465 -2.36416 3.24762 0
M  V30 5069 N 472.671 -1.16169 2.6637 0
M  V30 5070 H 472.218 -0.273189 2.56147 0
M  V30 5071 H 472.176 -1.99703 2.42829 0
M  V30 5072 N 475.948 -1.35272 0.808662 0
M  V30 5073 C 476.878 -2.32315 0.234981 0
M  V30 5074 C 477.859 -1.57572 -0.64071 0
M  V30 5075 O 479.044 -1.8563 -0.570551 0
M  V30 5076 C 476.174 -3.41801 -0.615601 0
M  V30 5077 C 475.128 -4.27694 0.161767 0
M  V30 5078 C 474.454 -5.28519 -0.810649 0
M  V30 5079 C 475.754 -5.04231 1.36193 0
M  V30 5080 H 477.448 -2.80543 1.04575 0
M  V30 5081 H 474.994 -1.3488 0.504315 0
M  V30 5082 H 476.947 -4.08693 -1.02702 0
M  V30 5083 H 475.671 -2.92186 -1.45928 0
M  V30 5084 H 474.33 -3.62384 0.554382 0
M  V30 5085 H 473.978 -4.75171 -1.64988 0
M  V30 5086 H 473.678 -5.8686 -0.294822 0
M  V30 5087 H 475.202 -5.98283 -1.22023 0
M  V30 5088 H 476.616 -5.64058 1.02528 0
M  V30 5089 H 475.013 -5.72077 1.81239 0
M  V30 5090 H 476.083 -4.34753 2.14751 0
M  V30 5091 N 477.426 -0.562348 -1.47226 0
M  V30 5092 C 478.675 -0.038041 -2.01664 0
M  V30 5093 C 478.988 1.32199 -1.44162 0
M  V30 5094 O 480.194 1.9365 -1.90294 0
M  V30 5095 C 478.65 -0.0174958 -3.59896 0
M  V30 5096 C 478.258 -1.3746 -4.2639 0
M  V30 5097 C 480.002 0.453934 -4.22066 0
M  V30 5098 C 477.909 -1.31289 -5.76643 0
M  V30 5099 H 476.839 -0.0104511 -0.753928 0
M  V30 5100 H 479.49 -0.710966 -1.69167 0
M  V30 5101 H 477.872 0.721182 -3.89378 0
M  V30 5102 H 479.046 -2.1314 -4.08544 0
M  V30 5103 H 477.361 -1.78438 -3.7623 0
M  V30 5104 H 479.958 0.518584 -5.32179 0
M  V30 5105 H 480.301 1.46706 -3.89594 0
M  V30 5106 H 480.834 -0.230044 -3.97134 0
M  V30 5107 H 477.573 -2.30217 -6.13743 0
M  V30 5108 H 477.093 -0.597973 -5.96812 0
M  V30 5109 H 478.772 -1.01713 -6.38955 0
M  V30 5110 N 478.904 1.54736 -0.299062 0
M  V30 5111 C 479.837 2.1962 0.619851 0
M  V30 5112 C 480.815 1.16496 1.13434 0
M  V30 5113 O 481.999 1.4513 1.2029 0
M  V30 5114 C 479.126 2.8385 1.84788 0
M  V30 5115 C 478.172 4.00484 1.46679 0
M  V30 5116 S 479.005 5.32926 0.524389 0
M  V30 5117 C 480.161 6.00638 1.76026 0
M  V30 5118 H 480.394 2.97221 0.0686177 0
M  V30 5119 H 477.927 1.54176 -0.0832085 0
M  V30 5120 H 479.885 3.21483 2.55263 0
M  V30 5121 H 478.546 2.06099 2.37028 0
M  V30 5122 H 477.739 4.44201 2.38121 0
M  V30 5123 H 477.341 3.64398 0.842008 0
M  V30 5124 H 479.633 6.21327 2.70109 0
M  V30 5125 H 480.576 6.94805 1.36569 0
M  V30 5126 H 480.984 5.3026 1.93609 0
M  V30 5127 N 480.382 0.0267497 1.57577 0
M  V30 5128 C 481.61 -0.662661 1.96001 0
M  V30 5129 C 482.025 -1.65799 0.903117 0
M  V30 5130 O 481.382 -1.82135 -0.115317 0
M  V30 5131 C 481.433 -1.37112 3.34488 0
M  V30 5132 O 481.154 -0.415683 4.36123 0
M  V30 5133 C 482.655 -2.15257 3.8753 0
M  V30 5134 H 479.875 -0.18287 0.6456 0
M  V30 5135 H 482.419 0.0858116 2.0432 0
M  V30 5136 H 480.574 -2.07101 3.27395 0
M  V30 5137 H 480.988 -0.918496 5.16395 0
M  V30 5138 H 482.462 -2.60285 4.86781 0
M  V30 5139 H 482.939 -2.99063 3.21649 0
M  V30 5140 H 483.545 -1.50231 3.97883 0
M  V30 5141 N 481.861 -1.55662 -0.24637 0
M  V30 5142 C 483.277 -1.48098 -0.594907 0
M  V30 5143 C 483.477 -0.717044 -1.8831 0
M  V30 5144 O 482.533 -0.246618 -2.51293 0
M  V30 5145 C 483.846 -2.92507 -0.697146 0
M  V30 5146 C 485.394 -3.02881 -0.789436 0
M  V30 5147 C 485.869 -4.48598 -0.923232 0
M  V30 5148 N 487.36 -4.52538 -0.988088 0
M  V30 5149 C 488.095 -5.62536 -1.11089 0
M  V30 5150 N 487.591 -6.82342 -1.19919 0
M  V30 5151 N 489.384 -5.50334 -1.14408 0
M  V30 5152 H 481.535 -2.0377 0.599278 0
M  V30 5153 H 483.798 -0.925145 0.20691 0
M  V30 5154 H 483.504 -3.51242 0.179396 0
M  V30 5155 H 483.378 -3.43024 -1.5689 0
M  V30 5156 H 485.765 -2.44226 -1.65643 0
M  V30 5157 H 485.846 -2.55574 0.107482 0
M  V30 5158 H 485.49 -5.07864 -0.0607927 0
M  V30 5159 H 485.42 -4.93587 -1.8352 0
M  V30 5160 H 487.911 -3.66248 -0.931167 0
M  V30 5161 H 488.224 -7.61924 -1.29197 0
M  V30 5162 H 486.569 -6.85102 -1.16876 0
M  V30 5163 H 489.76 -4.5567 -1.07158 0
M  V30 5164 H 489.933 -6.36096 -1.23634 0
M  V30 5165 N 483.339 0.512053 -1.4905 0
M  V30 5166 C 484.269 1.62365 -1.67809 0
M  V30 5167 C 485.25 1.61737 -0.526809 0
M  V30 5168 O 486.435 1.78651 -0.761404 0
M  V30 5169 C 483.565 3.00895 -1.73435 0
M  V30 5170 C 482.519 3.16387 -2.88242 0
M  V30 5171 C 481.845 4.56157 -2.78971 0
M  V30 5172 C 483.145 2.97457 -4.29321 0
M  V30 5173 H 484.839 1.46921 -2.60873 0
M  V30 5174 H 482.385 0.705379 -1.2554 0
M  V30 5175 H 484.338 3.78549 -1.85145 0
M  V30 5176 H 483.062 3.17403 -0.769619 0
M  V30 5177 H 481.721 2.41155 -2.76116 0
M  V30 5178 H 481.369 4.69525 -1.8043 0
M  V30 5179 H 481.069 4.67465 -3.5602 0
M  V30 5180 H 482.593 5.35886 -2.92675 0
M  V30 5181 H 484.007 3.64888 -4.42187 0
M  V30 5182 H 482.404 3.20245 -5.07507 0
M  V30 5183 H 483.474 1.93692 -4.44535 0
M  V30 5184 N 484.817 1.37938 0.762283 0
M  V30 5185 C 485.727 1.36681 1.90671 0
M  V30 5186 C 486.743 0.265078 1.71969 0
M  V30 5187 O 487.919 0.502055 1.95042 0
M  V30 5188 C 484.984 1.18211 3.25925 0
M  V30 5189 C 484.045 2.3811 3.57214 0
M  V30 5190 C 483.278 2.20512 4.86014 0
M  V30 5191 O 483.501 1.19429 5.57757 0
M  V30 5192 O 482.435 3.08911 5.16583 0
M  V30 5193 H 486.261 2.33091 1.94685 0
M  V30 5194 H 483.846 1.18767 0.906356 0
M  V30 5195 H 485.728 1.09937 4.06807 0
M  V30 5196 H 484.403 0.248807 3.22742 0
M  V30 5197 H 483.31 2.51958 2.76529 0
M  V30 5198 H 484.643 3.30041 3.65149 0
M  V30 5199 N 486.295 -0.989507 1.22664 0
M  V30 5200 C 487.52 -1.77031 1.08051 0
M  V30 5201 C 487.945 -1.84535 -0.364483 0
M  V30 5202 O 487.303 -1.3003 -1.2634 0
M  V30 5203 C 487.351 -3.18 1.70024 0
M  V30 5204 O 486.455 -4.01161 0.956216 0
M  V30 5205 H 485.796 -0.545008 0.379292 0
M  V30 5206 H 488.326 -1.24277 1.62531 0
M  V30 5207 H 488.336 -3.68616 1.74888 0
M  V30 5208 H 487.011 -3.11853 2.75174 0
M  V30 5209 H 485.588 -3.59687 0.98384 0
M  V30 5210 N 487.773 -1.03688 -1.18687 0
M  V30 5211 C 489.189 -0.755413 -1.4059 0
M  V30 5212 C 489.389 0.656659 -1.905 0
M  V30 5213 O 488.445 1.42144 -2.08689 0
M  V30 5214 C 489.758 -1.7983 -2.41001 0
M  V30 5215 C 491.306 -1.81877 -2.54735 0
M  V30 5216 C 491.781 -2.85148 -3.58406 0
M  V30 5217 N 493.272 -2.84015 -3.6591 0
M  V30 5218 C 494.007 -3.60573 -4.45841 0
M  V30 5219 N 493.503 -4.46871 -5.29413 0
M  V30 5220 N 495.296 -3.49079 -4.40568 0
M  V30 5221 H 487.447 -1.94818 -0.846148 0
M  V30 5222 H 489.71 -0.842727 -0.434184 0
M  V30 5223 H 489.416 -2.81097 -2.1137 0
M  V30 5224 H 489.29 -1.62727 -3.40294 0
M  V30 5225 H 491.677 -0.812836 -2.83685 0
M  V30 5226 H 491.758 -2.03057 -1.55568 0
M  V30 5227 H 491.402 -3.85918 -3.30197 0
M  V30 5228 H 491.332 -2.61224 -4.57241 0
M  V30 5229 H 493.823 -2.21431 -3.0623 0
M  V30 5230 H 494.136 -5.02007 -5.87545 0
M  V30 5231 H 492.481 -4.5094 -5.28846 0
M  V30 5232 H 495.672 -2.81066 -3.74325 0
M  V30 5233 H 495.845 -4.08994 -5.02621 0
M  V30 5234 N 489.251 1.34841 -0.815825 0
M  V30 5235 C 490.662 1.80937 -0.46029 0
M  V30 5236 C 491.013 1.67685 1.01863 0
M  V30 5237 O 490.138 1.21277 1.79223 0
M  V30 5238 C 490.733 3.28509 -0.828708 0
M  V30 5239 C 489.292 3.72712 -0.525644 0
M  V30 5240 C 488.439 2.56676 -1.04941 0
M  V30 5241 H 491.39 1.22688 -1.00664 0
M  V30 5242 H 491.411 3.80279 -0.129757 0
M  V30 5243 H 490.923 3.38122 -1.90513 0
M  V30 5244 H 489.024 3.68642 0.541666 0
M  V30 5245 H 489.137 4.67119 -1.06474 0
M  V30 5246 H 487.501 2.50302 -0.471286 0
M  V30 5247 H 488.284 2.69063 -2.13214 0
M  V30 5248 N 490.729 0.570148 1.46925 0
M  V30 5249 C 491.978 0.0487352 2.01641 0
M  V30 5250 C 492.291 -1.31433 1.44861 0
M  V30 5251 O 493.497 -1.92638 1.91318 0
M  V30 5252 C 491.953 0.0365817 3.59881 0
M  V30 5253 C 491.561 1.39719 4.25655 0
M  V30 5254 C 493.305 -0.431545 4.22301 0
M  V30 5255 C 491.212 1.34345 5.75939 0
M  V30 5256 H 490.142 0.0144492 0.753862 0
M  V30 5257 H 492.793 0.719928 1.68788 0
M  V30 5258 H 491.175 -0.700522 3.89755 0
M  V30 5259 H 492.349 2.15303 4.07408 0
M  V30 5260 H 490.664 1.80431 3.75278 0
M  V30 5261 H 493.261 -0.490354 5.32447 0
M  V30 5262 H 493.604 -1.44638 3.90366 0
M  V30 5263 H 494.137 0.251102 3.97007 0
M  V30 5264 H 490.876 2.33469 6.12513 0
M  V30 5265 H 490.396 0.629615 5.96486 0
M  V30 5266 H 492.075 1.051 6.38407 0
M  V30 5267 N 492.207 -1.54576 0.307264 0
M  V30 5268 C 493.157 -2.20467 -0.581249 0
M  V30 5269 C 494.141 -1.17972 -1.09414 0
M  V30 5270 O 495.333 -1.43667 -1.03387 0
M  V30 5271 C 492.462 -2.95369 -1.74963 0
M  V30 5272 C 491.548 -4.05186 -1.25241 0
M  V30 5273 N 491.939 -5.03577 -0.47364 0
M  V30 5274 C 490.237 -4.18841 -1.53259 0
M  V30 5275 C 490.938 -5.81328 -0.208083 0
M  V30 5276 N 489.914 -5.37834 -0.789651 0
M  V30 5277 H 493.716 -2.93892 0.0212221 0
M  V30 5278 H 491.23 -1.62011 0.112325 0
M  V30 5279 H 493.227 -3.41046 -2.39777 0
M  V30 5280 H 491.887 -2.23461 -2.35574 0
M  V30 5281 H 492.898 -5.17766 -0.117963 0
M  V30 5282 H 489.575 -3.58141 -2.14573 0
M  V30 5283 H 490.965 -6.706 0.417793 0
M  V30 5284 N 493.685 -0.035106 -1.57561 0
M  V30 5285 C 494.933 0.64096 -1.91667 0
M  V30 5286 C 495.254 1.72323 -0.912681 0
M  V30 5287 O 494.524 1.95849 0.0449089 0
M  V30 5288 H 493.104 0.239743 -0.707483 0
M  V30 5289 H 495.766 -0.084321 -1.94718 0
M  V30 5290 H 494.862 1.08987 -2.92452 0
M  V30 5291 N 495.163 1.55791 0.238111 0
M  V30 5292 C 496.111 1.91885 1.31464 0
M  V30 5293 C 497.105 0.798929 1.49377 0
M  V30 5294 O 498.311 0.983626 1.50747 0
M  V30 5295 H 494.686 0.609551 0.440399 0
M  V30 5296 H 496.657 2.81747 0.982925 0
M  V30 5297 C 495.406 2.23763 2.6613 0
M  V30 5298 H 494.729 3.09444 2.53149 0
M  V30 5299 H 496.169 2.52915 3.40309 0
M  V30 5300 C 494.628 1.05699 3.1989 0
M  V30 5301 O 495.158 0.309524 4.00506 0
M  V30 5302 N 493.364 0.845251 2.78036 0
M  V30 5303 H 492.911 1.4548 2.12588 0
M  V30 5304 H 492.869 0.0569973 3.14348 0
M  V30 5305 N 496.642 -0.504142 1.49319 0
M  V30 5306 C 498.053 -1.08572 1.51885 0
M  V30 5307 C 498.404 -1.93842 0.303255 0
M  V30 5308 O 497.529 -2.0828 -0.58724 0
M  V30 5309 C 498.124 -1.97574 2.75227 0
M  V30 5310 C 496.683 -2.509 2.80581 0
M  V30 5311 C 495.83 -1.28447 2.45757 0
M  V30 5312 H 498.781 -0.288194 1.56061 0
M  V30 5313 H 498.802 -2.82219 2.55211 0
M  V30 5314 H 498.314 -1.35486 3.63683 0
M  V30 5315 H 496.415 -3.16636 1.96398 0
M  V30 5316 H 496.528 -2.88268 3.82673 0
M  V30 5317 H 494.892 -1.60868 1.97468 0
M  V30 5318 H 495.675 -0.68072 3.36483 0
M  V30 5319 N 498.12 -1.38341 -0.754957 0
M  V30 5320 C 499.366 -1.35678 -1.51536 0
M  V30 5321 C 499.721 0.0533985 -1.92326 0
M  V30 5322 O 499.014 1.01573 -1.6246 0
M  V30 5323 C 499.208 -2.2452 -2.78075 0
M  V30 5324 C 499.037 -3.74035 -2.49655 0
M  V30 5325 C 497.807 -4.43066 -2.42942 0
M  V30 5326 C 500.005 -4.665 -2.16523 0
M  V30 5327 N 497.987 -5.78026 -2.06783 0
M  V30 5328 C 499.358 -5.89962 -1.90644 0
M  V30 5329 C 501.413 -4.54718 -2.02821 0
M  V30 5330 C 500.116 -7.0296 -1.52444 0
M  V30 5331 C 502.142 -5.67618 -1.66023 0
M  V30 5332 C 501.504 -6.90141 -1.41015 0
M  V30 5333 H 497.603 -0.551764 -0.554148 0
M  V30 5334 H 500.187 -1.73716 -0.879258 0
M  V30 5335 H 498.358 -1.88673 -3.39496 0
M  V30 5336 H 500.09 -2.12993 -3.44116 0
M  V30 5337 H 496.845 -3.96264 -2.59367 0
M  V30 5338 H 497.269 -6.49394 -1.91353 0
M  V30 5339 H 501.911 -3.60546 -2.20831 0
M  V30 5340 H 499.629 -7.97051 -1.33174 0
M  V30 5341 H 503.215 -5.6048 -1.56055 0
M  V30 5342 H 502.095 -7.76021 -1.12965 0
M  V30 5343 N 499.598 0.982988 -1.23187 0
M  V30 5344 C 500.508 2.10907 -1.02739 0
M  V30 5345 C 501.524 1.73979 0.0273188 0
M  V30 5346 O 502.7 2.00702 -0.16757 0
M  V30 5347 C 499.765 3.41142 -0.618304 0
M  V30 5348 C 498.826 3.92112 -1.74777 0
M  V30 5349 C 498.059 5.16131 -1.3581 0
M  V30 5350 O 498.282 5.6989 -0.241201 0
M  V30 5351 O 497.216 5.61103 -2.17824 0
M  V30 5352 H 501.042 2.31046 -1.97108 0
M  V30 5353 H 498.627 1.09284 -1.01869 0
M  V30 5354 H 500.509 4.19488 -0.400982 0
M  V30 5355 H 499.184 3.2234 0.296421 0
M  V30 5356 H 498.091 3.14895 -2.0197 0
M  V30 5357 H 499.424 4.15364 -2.64071 0
M  V30 5358 N 501.076 1.04316 1.18135 0
M  V30 5359 C 501.986 0.646876 2.25505 0
M  V30 5360 C 503.002 -0.328008 1.7088 0
M  V30 5361 O 504.178 -0.182309 2.00573 0
M  V30 5362 C 501.243 0.0185664 3.46695 0
M  V30 5363 C 500.304 1.04277 4.16443 0
M  V30 5364 C 499.537 0.444352 5.31847 0
M  V30 5365 O 499.76 -0.748735 5.65465 0
M  V30 5366 O 498.694 1.17428 5.90334 0
M  V30 5367 H 502.52 1.54147 2.61672 0
M  V30 5368 H 500.105 0.814188 1.25265 0
M  V30 5369 H 501.987 -0.331068 4.20097 0
M  V30 5370 H 500.662 -0.849814 3.12346 0
M  V30 5371 H 499.569 1.44425 3.45098 0
M  V30 5372 H 500.902 1.882 4.54798 0
M  V30 5373 N 502.554 -1.34406 0.822964 0
M  V30 5374 C 503.487 -2.27407 0.190124 0
M  V30 5375 C 504.465 -1.4889 -0.653486 0
M  V30 5376 O 505.649 -1.78109 -0.617216 0
M  V30 5377 C 502.776 -3.3064 -0.734477 0
M  V30 5378 C 501.822 -4.26488 0.0316099 0
M  V30 5379 S 502.655 -5.17445 1.3788 0
M  V30 5380 C 503.811 -6.24214 0.45907 0
M  V30 5381 H 504.044 -2.80733 0.978586 0
M  V30 5382 H 501.577 -1.41455 0.618866 0
M  V30 5383 H 503.535 -3.90607 -1.26238 0
M  V30 5384 H 502.196 -2.76161 -1.49646 0
M  V30 5385 H 501.389 -4.9951 -0.671285 0
M  V30 5386 H 500.991 -3.70775 0.490066 0
M  V30 5387 H 503.283 -6.76599 -0.349357 0
M  V30 5388 H 504.226 -6.98551 1.15896 0
M  V30 5389 H 504.634 -5.6448 0.0474825 0
M  V30 5390 N 504.032 -0.577932 -1.46621 0
M  V30 5391 C 505.279 -0.0616879 -2.02406 0
M  V30 5392 C 505.607 1.29638 -1.44997 0
M  V30 5393 O 504.862 1.86176 -0.60308 0
M  V30 5394 C 505.161 0.0590832 -3.57351 0
M  V30 5395 C 504.827 -1.23077 -4.33777 0
M  V30 5396 C 503.489 -1.58416 -4.54376 0
M  V30 5397 C 505.841 -2.08457 -4.77698 0
M  V30 5398 C 503.169 -2.78943 -5.16147 0
M  V30 5399 C 505.521 -3.28204 -5.408 0
M  V30 5400 C 504.185 -3.63832 -5.59627 0
M  V30 5401 H 503.455 -0.0225732 -0.740656 0
M  V30 5402 H 506.102 -0.753609 -1.76048 0
M  V30 5403 H 504.407 0.834104 -3.82818 0
M  V30 5404 H 506.104 0.474202 -3.98186 0
M  V30 5405 H 502.694 -0.945652 -4.18038 0
M  V30 5406 H 506.878 -1.82459 -4.61544 0
M  V30 5407 H 502.134 -3.06689 -5.28916 0
M  V30 5408 H 506.308 -3.94634 -5.73792 0
M  V30 5409 H 503.935 -4.57315 -6.07262 0
M  V30 5410 N 505.51 1.54411 -0.315457 0
M  V30 5411 C 506.74 2.04536 0.291315 0
M  V30 5412 C 507.148 1.19162 1.4696 0
M  V30 5413 O 506.491 0.213199 1.82459 0
M  V30 5414 C 506.553 3.5056 0.796725 0
M  V30 5415 C 506.217 4.5627 -0.258178 0
M  V30 5416 C 507.214 5.08312 -1.09153 0
M  V30 5417 C 504.899 5.00672 -0.404036 0
M  V30 5418 C 506.893 6.03312 -2.05655 0
M  V30 5419 C 504.58 5.95488 -1.37248 0
M  V30 5420 C 505.578 6.46693 -2.19721 0
M  V30 5421 O 505.266 7.39648 -3.14921 0
M  V30 5422 H 504.998 0.672856 0.0651165 0
M  V30 5423 H 507.552 2.00244 -0.457308 0
M  V30 5424 H 505.782 3.52223 1.59612 0
M  V30 5425 H 507.471 3.83804 1.32096 0
M  V30 5426 H 508.237 4.74793 -0.98979 0
M  V30 5427 H 504.116 4.60436 0.22799 0
M  V30 5428 H 507.66 6.43203 -2.70067 0
M  V30 5429 H 503.557 6.28424 -1.47489 0
M  V30 5430 H 504.325 7.57496 -3.10067 0
M  V30 5431 N 506.988 0.0434614 1.5754 0
M  V30 5432 C 507.918 -0.931651 2.14109 0
M  V30 5433 C 508.899 -1.32971 1.06079 0
M  V30 5434 O 510.084 -1.40579 1.33982 0
M  V30 5435 C 507.214 -2.20914 2.67982 0
M  V30 5436 C 506.168 -1.95139 3.80926 0
M  V30 5437 C 505.494 -3.29276 4.21285 0
M  V30 5438 C 506.794 -1.27913 5.06395 0
M  V30 5439 H 508.488 -0.460497 2.95837 0
M  V30 5440 H 506.034 -0.220058 1.42309 0
M  V30 5441 H 507.987 -2.89522 3.06194 0
M  V30 5442 H 506.711 -2.70221 1.83434 0
M  V30 5443 H 505.37 -1.28945 3.43175 0
M  V30 5444 H 505.018 -3.76369 3.33699 0
M  V30 5445 H 504.718 -3.12831 4.97404 0
M  V30 5446 H 506.242 -3.99129 4.62091 0
M  V30 5447 H 507.656 -1.86544 5.42102 0
M  V30 5448 H 506.053 -1.2182 5.87605 0
M  V30 5449 H 507.123 -0.254066 4.84234 0
M  V30 5450 N 508.466 -1.55915 -0.229846 0
M  V30 5451 C 509.743 -1.6932 -0.979295 0
M  V30 5452 C 510.123 -0.588321 -2.02736 0
M  V30 5453 O 509.471 0.40586 -2.24867 0
M  V30 5454 C 509.681 -3.10305 -1.59724 0
M  V30 5455 C 511.029 -3.6945 -2.09264 0
M  V30 5456 O 512.053 -3.13214 -1.69633 0
M  V30 5457 O 510.912 -4.68072 -2.82082 0
M  V30 5458 H 508.006 -0.689314 -0.456919 0
M  V30 5459 H 510.552 -1.68238 -0.222283 0
M  V30 5460 H 509.324 -3.82177 -0.840039 0
M  V30 5461 H 508.947 -3.1547 -2.42001 0
M  V30 5462 N 509.944 0.496216 -1.49584 0
M  V30 5463 C 511.193 1.24668 -1.58558 0
M  V30 5464 C 511.506 1.9359 -0.279703 0
M  V30 5465 O 512.712 2.70365 -0.248048 0
M  V30 5466 C 511.168 2.26388 -2.79779 0
M  V30 5467 C 510.776 1.63384 -4.17145 0
M  V30 5468 C 512.52 3.02233 -2.98086 0
M  V30 5469 C 510.427 2.63243 -5.29582 0
M  V30 5470 H 509.357 0.468995 -0.590389 0
M  V30 5471 H 512.008 0.519985 -1.75978 0
M  V30 5472 H 510.39 3.02241 -2.55863 0
M  V30 5473 H 511.564 0.93491 -4.51216 0
M  V30 5474 H 509.879 0.999121 -4.04236 0
M  V30 5475 H 512.476 3.76919 -3.79257 0
M  V30 5476 H 512.819 3.60132 -2.08831 0
M  V30 5477 H 513.352 2.33495 -3.22063 0
M  V30 5478 H 510.091 2.10119 -6.20911 0
M  V30 5479 H 509.611 3.31363 -4.99959 0
M  V30 5480 H 511.29 3.25575 -5.59115 0
M  V30 5481 N 511.423 1.38739 0.74761 0
M  V30 5482 C 512.355 1.32341 1.87132 0
M  V30 5483 C 513.368 0.234502 1.61102 0
M  V30 5484 O 514.557 0.492516 1.71571 0
M  V30 5485 C 511.657 1.02915 3.22896 0
M  V30 5486 C 510.83 2.22834 3.76383 0
M  V30 5487 C 509.889 1.90059 4.90677 0
M  V30 5488 O 508.915 2.62615 5.04997 0
M  V30 5489 N 510.117 0.859141 5.74107 0
M  V30 5490 H 512.882 2.29175 1.93129 0
M  V30 5491 H 510.443 1.32678 0.927805 0
M  V30 5492 H 512.435 0.79031 3.96908 0
M  V30 5493 H 511.005 0.148572 3.12247 0
M  V30 5494 H 510.225 2.62747 2.93867 0
M  V30 5495 H 511.513 3.02851 4.08851 0
M  V30 5496 H 510.911 0.257564 5.65113 0
M  V30 5497 H 509.468 0.680189 6.48241 0
M  V30 5498 N 512.901 -0.976442 1.23707 0
M  V30 5499 C 513.864 -2.0511 1.02287 0
M  V30 5500 C 514.864 -1.60791 -0.0167195 0
M  V30 5501 O 516.054 -1.72761 0.223408 0
M  V30 5502 C 513.186 -3.36458 0.548507 0
M  V30 5503 H 514.379 -2.25545 1.9766 0
M  V30 5504 H 511.932 -1.15042 1.05806 0
M  V30 5505 H 512.667 -3.21713 -0.408818 0
M  V30 5506 H 512.452 -3.69967 1.29874 0
M  V30 5507 H 513.942 -4.15489 0.419406 0
M  V30 5508 N 514.379 -1.04941 -1.1758 0
M  V30 5509 C 515.327 -0.64204 -2.23563 0
M  V30 5510 C 516.321 0.335453 -1.66045 0
M  V30 5511 O 517.527 0.20179 -1.78865 0
M  V30 5512 H 513.902 -0.18944 -0.727748 0
M  V30 5513 H 515.873 -1.54609 -2.55223 0
M  V30 5514 C 514.622 -0.0301051 -3.47687 0
M  V30 5515 H 513.945 -0.773339 -3.92249 0
M  V30 5516 H 515.385 0.217592 -4.23441 0
M  V30 5517 C 513.844 1.2225 -3.13937 0
M  V30 5518 O 514.374 2.3122 -3.28482 0
M  V30 5519 N 512.58 1.11917 -2.68185 0
M  V30 5520 H 512.127 0.232403 -2.5655 0
M  V30 5521 H 512.085 1.95814 -2.45976 0
M  V30 5522 N 515.857 1.33968 -0.830081 0
M  V30 5523 C 516.787 2.31911 -0.271911 0
M  V30 5524 C 517.768 1.58571 0.61556 0
M  V30 5525 O 518.953 1.86514 0.540946 0
M  V30 5526 C 516.083 3.42737 0.561146 0
M  V30 5527 C 515.037 4.27383 -0.229789 0
M  V30 5528 C 514.363 5.29742 0.726463 0
M  V30 5529 C 515.663 5.02 -1.44197 0
M  V30 5530 H 517.357 2.78844 -1.09025 0
M  V30 5531 H 514.903 1.34061 -0.52571 0
M  V30 5532 H 516.856 4.10276 0.961867 0
M  V30 5533 H 515.58 2.94471 1.41261 0
M  V30 5534 H 514.239 3.61456 -0.611964 0
M  V30 5535 H 513.887 4.77736 1.57408 0
M  V30 5536 H 513.587 5.87255 0.20142 0
M  V30 5537 H 515.111 6.00149 1.12489 0
M  V30 5538 H 516.525 5.62355 -1.11488 0
M  V30 5539 H 514.922 5.69122 -1.90317 0
M  V30 5540 H 515.992 4.31281 -2.2164 0
M  V30 5541 N 517.335 0.585699 1.46312 0
M  V30 5542 C 518.245 -0.148236 2.34131 0
M  V30 5543 C 519.261 -0.882972 1.49932 0
M  V30 5544 O 520.437 -0.845484 1.82794 0
M  V30 5545 C 517.502 -1.14714 3.27172 0
M  V30 5546 C 516.563 -0.416746 4.27272 0
M  V30 5547 C 515.796 -1.36806 5.15868 0
M  V30 5548 O 516.019 -2.60475 5.07454 0
M  V30 5549 O 514.953 -0.877018 5.95476 0
M  V30 5550 H 518.779 0.572882 2.98248 0
M  V30 5551 H 516.364 0.346082 1.45336 0
M  V30 5552 H 518.246 -1.72303 3.84564 0
M  V30 5553 H 516.921 -1.84967 2.65648 0
M  V30 5554 H 515.828 0.201061 3.73559 0
M  V30 5555 H 517.161 0.244872 4.9159 0
M  V30 5556 N 518.813 -1.54241 0.323641 0
M  V30 5557 C 520.038 -2.05452 -0.283605 0
M  V30 5558 C 520.463 -1.19823 -1.44997 0
M  V30 5559 O 519.821 -0.207358 -1.8011 0
M  V30 5560 C 519.869 -3.53823 -0.695795 0
M  V30 5561 O 518.973 -3.71134 -1.79815 0
M  V30 5562 H 518.314 -0.662024 -0.0511917 0
M  V30 5563 H 520.844 -1.99079 0.472073 0
M  V30 5564 H 520.854 -3.96094 -0.978434 0
M  V30 5565 H 519.529 -4.15602 0.157287 0
M  V30 5566 H 518.106 -3.40768 -1.51431 0
M  V30 5567 N 520.291 -0.0518155 -1.57515 0
M  V30 5568 C 521.254 0.907547 -2.10467 0
M  V30 5569 C 522.254 1.23947 -1.02439 0
M  V30 5570 O 523.444 1.17604 -1.2851 0
M  V30 5571 C 520.576 2.21723 -2.58944 0
M  V30 5572 H 521.769 0.44851 -2.96527 0
M  V30 5573 H 519.322 0.196598 -1.55059 0
M  V30 5574 H 520.057 2.72206 -1.76279 0
M  V30 5575 H 519.842 1.98935 -3.37886 0
M  V30 5576 H 521.332 2.90441 -3.00056 0
M  V30 5577 N 521.769 1.56035 0.221574 0
M  V30 5578 C 522.679 1.95581 1.29558 0
M  V30 5579 C 523.695 0.859639 1.51282 0
M  V30 5580 O 524.871 1.16321 1.64413 0
M  V30 5581 C 521.936 2.26447 2.62531 0
M  V30 5582 C 520.997 3.49632 2.4911 0
M  V30 5583 C 520.23 3.79017 3.75742 0
M  V30 5584 O 520.453 3.10077 4.78757 0
M  V30 5585 O 519.387 4.72507 3.72855 0
M  V30 5586 H 523.213 2.8711 0.990035 0
M  V30 5587 H 520.798 1.43244 0.424434 0
M  V30 5588 H 522.68 2.47494 3.41064 0
M  V30 5589 H 521.355 1.38092 2.92766 0
M  V30 5590 H 520.262 3.33864 1.68777 0
M  V30 5591 H 521.595 4.3837 2.23814 0
M  V30 5592 N 523.247 -0.488276 1.49845 0
M  V30 5593 C 524.18 -1.60651 1.62069 0
M  V30 5594 C 525.158 -1.5568 0.469308 0
M  V30 5595 O 526.342 -1.75553 0.686551 0
M  V30 5596 C 523.469 -2.99197 1.58741 0
M  V30 5597 C 522.515 -3.22385 2.79232 0
M  V30 5598 S 523.348 -3.04133 4.40753 0
M  V30 5599 C 524.504 -4.45052 4.4009 0
M  V30 5600 H 524.737 -1.50039 2.56662 0
M  V30 5601 H 522.27 -0.674371 1.38894 0
M  V30 5602 H 524.228 -3.79081 1.57506 0
M  V30 5603 H 522.889 -3.07213 0.654136 0
M  V30 5604 H 522.082 -4.23557 2.73159 0
M  V30 5605 H 521.684 -2.50245 2.77945 0
M  V30 5606 H 523.976 -5.37375 4.12594 0
M  V30 5607 H 524.919 -4.56172 5.41583 0
M  V30 5608 H 525.327 -4.26327 3.70008 0
M  V30 5609 N 524.725 -1.39134 -0.740242 0
M  V30 5610 C 525.657 -1.33332 -1.86428 0
M  V30 5611 C 526.67 -0.243042 -1.60976 0
M  V30 5612 O 527.859 -0.501608 -1.71307 0
M  V30 5613 C 524.959 -1.04626 -3.22346 0
M  V30 5614 C 524.132 -2.24826 -3.75196 0
M  V30 5615 C 523.191 -1.92659 -4.89662 0
M  V30 5616 O 522.217 -2.6529 -5.03597 0
M  V30 5617 N 523.419 -0.889575 -5.73643 0
M  V30 5618 H 526.184 -2.30196 -1.91911 0
M  V30 5619 H 523.745 -1.33168 -0.920756 0
M  V30 5620 H 525.737 -0.811347 -3.96484 0
M  V30 5621 H 524.307 -0.165129 -3.12164 0
M  V30 5622 H 523.527 -2.64301 -2.9247 0
M  V30 5623 H 524.815 -3.05015 -4.07239 0
M  V30 5624 H 524.213 -0.287529 -5.64969 0
M  V30 5625 H 522.77 -0.714557 -6.47871 0
M  V30 5626 N 526.204 0.969867 -1.24223 0
M  V30 5627 C 527.151 2.06407 -1.0327 0
M  V30 5628 C 528.121 1.66014 0.0533 0
M  V30 5629 O 529.306 1.90533 -0.100896 0
M  V30 5630 C 526.446 3.3909 -0.641262 0
M  V30 5631 C 525.559 3.9269 -1.80051 0
M  V30 5632 C 524.694 5.13631 -1.35486 0
M  V30 5633 C 523.733 5.59423 -2.48419 0
M  V30 5634 N 522.87 6.71586 -2.04737 0
M  V30 5635 H 527.71 2.23663 -1.96923 0
M  V30 5636 H 525.247 1.09624 -0.980862 0
M  V30 5637 H 527.205 4.15323 -0.395351 0
M  V30 5638 H 525.835 3.21765 0.258269 0
M  V30 5639 H 524.887 3.13116 -2.16014 0
M  V30 5640 H 526.199 4.22636 -2.64916 0
M  V30 5641 H 525.353 5.97231 -1.0677 0
M  V30 5642 H 524.092 4.85364 -0.476722 0
M  V30 5643 H 523.097 4.74398 -2.77897 0
M  V30 5644 H 524.322 5.89705 -3.36786 0
M  V30 5645 H 522.268 6.45058 -1.19318 0
M  V30 5646 H 522.185 7.0097 -2.83156 0
M  V30 5647 H 523.453 7.58633 -1.79154 0
M  V30 5648 N 527.682 1.05563 1.17022 0
M  V30 5649 C 528.645 0.664098 2.19368 0
M  V30 5650 C 529.645 -0.286358 1.5823 0
M  V30 5651 O 530.835 -0.069728 1.7406 0
M  V30 5652 C 527.967 -0.0239932 3.40892 0
M  V30 5653 H 529.16 1.57 2.55521 0
M  V30 5654 H 526.713 0.849964 1.31169 0
M  V30 5655 H 527.448 -0.942988 3.10287 0
M  V30 5656 H 527.233 0.659351 3.86516 0
M  V30 5657 H 528.723 -0.283909 4.16634 0
M  V30 5658 N 529.16 -1.33526 0.837174 0
M  V30 5659 C 530.09 -2.31764 0.284206 0
M  V30 5660 C 531.071 -1.58896 -0.607142 0
M  V30 5661 O 532.256 -1.86798 -0.531047 0
M  V30 5662 C 529.386 -3.43029 -0.542962 0
M  V30 5663 C 528.34 -4.27255 0.252451 0
M  V30 5664 C 527.666 -5.3012 -0.69836 0
M  V30 5665 C 528.966 -5.01229 1.46858 0
M  V30 5666 H 530.66 -2.78262 1.10502 0
M  V30 5667 H 528.206 -1.3378 0.532812 0
M  V30 5668 H 530.159 -4.1078 -0.940096 0
M  V30 5669 H 528.883 -2.95216 -1.39697 0
M  V30 5670 H 527.542 -3.61127 0.631124 0
M  V30 5671 H 527.19 -4.78564 -1.54872 0
M  V30 5672 H 526.89 -5.87353 -0.170274 0
M  V30 5673 H 528.414 -6.00737 -1.09305 0
M  V30 5674 H 529.828 -5.61756 1.14469 0
M  V30 5675 H 528.225 -5.68104 1.93333 0
M  V30 5676 H 529.295 -4.301 2.23924 0
M  V30 5677 N 530.638 -0.59345 -1.46 0
M  V30 5678 C 531.585 0.133618 -2.30413 0
M  V30 5679 C 532.555 0.873736 -1.41262 0
M  V30 5680 O 533.74 0.862279 -1.70204 0
M  V30 5681 C 530.88 1.13434 -3.25924 0
M  V30 5682 C 529.993 0.39656 -4.30176 0
M  V30 5683 C 529.128 1.38575 -5.12806 0
M  V30 5684 C 528.167 0.634984 -6.08797 0
M  V30 5685 N 527.304 1.57276 -6.84258 0
M  V30 5686 H 532.144 -0.592252 -2.92055 0
M  V30 5687 H 529.681 -0.303874 -1.43927 0
M  V30 5688 H 531.639 1.72752 -3.79753 0
M  V30 5689 H 530.269 1.82779 -2.66067 0
M  V30 5690 H 529.321 -0.311861 -3.79119 0
M  V30 5691 H 530.633 -0.189869 -4.98438 0
M  V30 5692 H 529.787 2.05141 -5.70966 0
M  V30 5693 H 528.526 2.00611 -4.44529 0
M  V30 5694 H 527.531 -0.0443925 -5.49782 0
M  V30 5695 H 528.756 0.0198678 -6.79097 0
M  V30 5696 H 526.702 2.18103 -6.18682 0
M  V30 5697 H 526.619 1.03941 -7.48821 0
M  V30 5698 H 527.887 2.22844 -7.46968 0
M  V30 5699 N 532.116 1.54067 -0.331816 0
M  V30 5700 C 533.026 2.28322 0.539104 0
M  V30 5701 C 534.042 1.32985 1.1221 0
M  V30 5702 O 535.218 1.6601 1.1403 0
M  V30 5703 C 532.283 3.03277 1.68 0
M  V30 5704 C 531.344 4.14216 1.12798 0
M  V30 5705 C 530.577 4.85588 2.2145 0
M  V30 5706 O 530.8 4.56536 3.41952 0
M  V30 5707 O 529.734 5.72309 1.86404 0
M  V30 5708 H 533.56 3.03632 -0.0641692 0
M  V30 5709 H 531.145 1.49083 -0.0972365 0
M  V30 5710 H 533.027 3.50189 2.34405 0
M  V30 5711 H 531.702 2.30834 2.2693 0
M  V30 5712 H 530.609 3.71635 0.428782 0
M  V30 5713 H 531.942 4.88727 0.583698 0
M  V30 5714 N 533.594 0.0601682 1.57485 0
M  V30 5715 C 534.524 -0.90889 2.15085 0
M  V30 5716 C 535.505 -1.31838 1.07484 0
M  V30 5717 O 536.69 -1.3915 1.35466 0
M  V30 5718 C 533.82 -2.18059 2.7031 0
M  V30 5719 C 532.774 -1.91088 3.82974 0
M  V30 5720 C 532.1 -3.24789 4.24754 0
M  V30 5721 C 533.4 -1.22535 5.07723 0
M  V30 5722 H 535.094 -0.429093 2.96309 0
M  V30 5723 H 532.64 -0.204952 1.42534 0
M  V30 5724 H 534.593 -2.86258 3.09248 0
M  V30 5725 H 533.317 -2.6826 1.8629 0
M  V30 5726 H 531.976 -1.25297 3.44523 0
M  V30 5727 H 531.624 -3.72809 3.37672 0
M  V30 5728 H 531.324 -3.07538 5.00694 0
M  V30 5729 H 532.848 -3.94205 4.66299 0
M  V30 5730 H 534.262 -1.80783 5.4405 0
M  V30 5731 H 532.659 -1.1558 5.88864 0
M  V30 5732 H 533.729 -0.202692 4.84476 0
M  V30 5733 N 535.072 -1.5615 -0.213296 0
M  V30 5734 C 536.32 -1.79191 -0.934612 0
M  V30 5735 C 536.641 -0.630112 -1.84539 0
M  V30 5736 O 535.911 0.35257 -1.92701 0
M  V30 5737 H 534.491 -0.660937 -0.348097 0
M  V30 5738 H 537.153 -1.93618 -0.22317 0
M  V30 5739 H 536.249 -2.71656 -1.53654 0
M  V30 5740 N 536.55 0.480323 -1.50102 0
M  V30 5741 C 537.46 1.60547 -1.71061 0
M  V30 5742 C 538.476 1.63564 -0.593529 0
M  V30 5743 O 539.652 1.81604 -0.870751 0
M  V30 5744 C 536.717 2.96814 -1.79171 0
M  V30 5745 C 535.778 3.04259 -3.02861 0
M  V30 5746 C 535.011 4.34027 -3.10574 0
M  V30 5747 O 535.234 5.24009 -2.25323 0
M  V30 5748 O 534.168 4.46873 -4.03223 0
M  V30 5749 H 537.994 1.45788 -2.6642 0
M  V30 5750 H 535.579 0.658838 -1.34088 0
M  V30 5751 H 537.461 3.77765 -1.86738 0
M  V30 5752 H 536.136 3.11791 -0.869947 0
M  V30 5753 H 535.043 2.22419 -3.008 0
M  V30 5754 H 536.376 2.94216 -3.94586 0
M  V30 5755 N 538.028 1.39524 0.732853 0
M  V30 5756 C 539.277 1.36175 1.48792 0
M  V30 5757 C 539.59 -0.0388195 1.95561 0
M  V30 5758 O 540.796 -0.194899 2.708 0
M  V30 5759 C 539.252 2.39242 2.68871 0
M  V30 5760 C 538.86 3.85024 2.29042 0
M  V30 5761 C 540.604 2.44972 3.46683 0
M  V30 5762 C 538.511 4.79727 3.45856 0
M  V30 5763 H 537.441 0.506267 0.558757 0
M  V30 5764 H 540.092 1.65181 0.799226 0
M  V30 5765 H 538.474 2.0331 3.39825 0
M  V30 5766 H 539.648 4.30008 1.6562 0
M  V30 5767 H 537.963 3.82609 1.64316 0
M  V30 5768 H 540.56 3.12918 4.33574 0
M  V30 5769 H 540.903 1.4749 3.89297 0
M  V30 5770 H 541.436 2.79808 2.82759 0
M  V30 5771 H 538.175 5.78479 3.08289 0
M  V30 5772 H 537.695 4.39421 4.08251 0
M  V30 5773 H 539.374 4.98731 4.12161 0
M  V30 5774 N 539.506 -0.963266 1.24736 0
M  V30 5775 C 540.734 -1.74166 1.11686 0
M  V30 5776 C 541.149 -1.8589 -0.330187 0
M  V30 5777 O 540.506 -1.35042 -1.2276 0
M  V30 5778 C 540.557 -3.15989 1.75595 0
M  V30 5779 O 540.278 -3.04847 3.14642 0
M  V30 5780 C 541.779 -4.10145 1.68213 0
M  V30 5781 H 538.999 -0.546031 0.389989 0
M  V30 5782 H 541.543 -1.20907 1.64929 0
M  V30 5783 H 539.698 -3.66219 1.26343 0
M  V30 5784 H 540.112 -3.9425 3.4593 0
M  V30 5785 H 541.586 -5.07299 2.17604 0
M  V30 5786 H 542.063 -4.3445 0.644208 0
M  V30 5787 H 542.669 -3.65827 2.16912 0
M  V30 5788 N 540.985 -1.06182 -1.16461 0
M  V30 5789 C 542.401 -0.785065 -1.38956 0
M  V30 5790 C 542.601 0.616103 -1.9185 0
M  V30 5791 O 541.657 1.37686 -2.11657 0
M  V30 5792 C 542.97 -1.84902 -2.37132 0
M  V30 5793 C 544.518 -1.8724 -2.50819 0
M  V30 5794 C 544.993 -2.92686 -3.52277 0
M  V30 5795 N 546.484 -2.91712 -3.59803 0
M  V30 5796 C 547.219 -3.69949 -4.38093 0
M  V30 5797 N 546.715 -4.58 -5.19815 0
M  V30 5798 N 548.508 -3.58346 -4.33064 0
M  V30 5799 H 540.659 -1.96569 -0.804634 0
M  V30 5800 H 542.922 -0.851747 -0.416211 0
M  V30 5801 H 542.628 -2.85518 -2.0536 0
M  V30 5802 H 542.502 -1.69908 -3.36766 0
M  V30 5803 H 544.889 -0.872827 -2.81897 0
M  V30 5804 H 544.97 -2.06311 -1.51226 0
M  V30 5805 H 544.614 -3.92835 -3.21937 0
M  V30 5806 H 544.544 -2.70864 -4.51598 0
M  V30 5807 H 547.035 -2.27876 -3.01464 0
M  V30 5808 H 547.348 -5.14357 -5.76764 0
M  V30 5809 H 545.693 -4.62056 -5.19162 0
M  V30 5810 H 548.884 -2.88943 -3.68279 0
M  V30 5811 H 549.057 -4.19563 -4.93833 0
M  V30 5812 N 542.463 1.3308 -0.844243 0
M  V30 5813 C 543.688 2.02341 -0.455282 0
M  V30 5814 C 544.113 1.6308 0.93737 0
M  V30 5815 O 543.471 0.826118 1.61385 0
M  V30 5816 C 543.519 3.55743 -0.58988 0
M  V30 5817 O 542.623 4.1063 0.38166 0
M  V30 5818 H 541.964 0.637898 -0.184343 0
M  V30 5819 H 544.494 1.6986 -1.14056 0
M  V30 5820 H 544.504 4.05243 -0.473522 0
M  V30 5821 H 543.179 3.83662 -1.60549 0
M  V30 5822 H 541.756 3.72236 0.22241 0
M  V30 5823 N 543.941 0.601185 1.45683 0
M  V30 5824 C 544.874 -0.17013 2.27565 0
M  V30 5825 C 545.852 -0.879661 1.36751 0
M  V30 5826 O 547.036 -0.889827 1.66176 0
M  V30 5827 C 544.163 -1.24568 3.14961 0
M  V30 5828 C 543.209 -0.639978 4.21671 0
M  V30 5829 S 544.042 0.547275 5.32696 0
M  V30 5830 C 545.198 -0.529019 6.2366 0
M  V30 5831 H 545.431 0.524583 2.92635 0
M  V30 5832 H 542.964 0.388537 1.49431 0
M  V30 5833 H 544.922 -1.86138 3.65873 0
M  V30 5834 H 543.583 -1.91243 2.49169 0
M  V30 5835 H 542.776 -1.44903 4.8272 0
M  V30 5836 H 542.378 -0.0995558 3.73867 0
M  V30 5837 H 544.67 -1.40981 6.62669 0
M  V30 5838 H 545.613 0.0451599 7.08086 0
M  V30 5839 H 546.021 -0.84147 5.58193 0
M  V30 5840 N 545.419 -1.53889 0.339982 0
M  V30 5841 C 546.366 -2.24902 -0.518452 0
M  V30 5842 C 547.336 -1.24593 -1.09844 0
M  V30 5843 O 548.521 -1.53317 -1.13572 0
M  V30 5844 C 545.661 -3.02262 -1.66529 0
M  V30 5845 C 544.774 -4.17418 -1.11295 0
M  V30 5846 C 543.909 -4.82273 -2.2268 0
M  V30 5847 C 542.948 -5.89503 -1.6478 0
M  V30 5848 N 542.085 -6.48153 -2.69893 0
M  V30 5849 H 546.925 -2.97853 0.0936579 0
M  V30 5850 H 544.462 -1.46986 0.0579924 0
M  V30 5851 H 546.42 -3.45371 -2.3404 0
M  V30 5852 H 545.05 -2.31614 -2.24844 0
M  V30 5853 H 544.102 -3.78976 -0.328886 0
M  V30 5854 H 545.414 -4.94554 -0.649414 0
M  V30 5855 H 544.568 -5.28435 -2.98063 0
M  V30 5856 H 543.307 -4.04552 -2.72376 0
M  V30 5857 H 542.312 -5.42728 -0.879004 0
M  V30 5858 H 543.537 -6.6913 -1.1594 0
M  V30 5859 H 541.483 -5.73298 -3.1885 0
M  V30 5860 H 541.4 -7.20752 -2.28151 0
M  V30 5861 H 542.668 -6.98968 -3.45056 0
M  V30 5862 N 546.897 -0.0685191 -1.57451 0
M  V30 5863 C 548.143 0.602239 -1.93652 0
M  V30 5864 C 548.476 1.6946 -0.948526 0
M  V30 5865 O 547.751 1.94487 0.022782 0
M  V30 5866 C 548.034 1.18223 -3.4014 0
M  V30 5867 C 547.887 0.0967431 -4.49696 0
M  V30 5868 C 549.206 2.08872 -3.87377 0
M  V30 5869 H 546.325 0.217453 -0.70419 0
M  V30 5870 H 548.967 -0.133821 -1.89528 0
M  V30 5871 H 547.117 1.80953 -3.43785 0
M  V30 5872 H 548.789 -0.536155 -4.58174 0
M  V30 5873 H 547.032 -0.573063 -4.29998 0
M  V30 5874 H 547.703 0.542894 -5.49324 0
M  V30 5875 H 550.179 1.56081 -3.85717 0
M  V30 5876 H 549.055 2.46389 -4.90493 0
M  V30 5877 H 549.316 2.99572 -3.25129 0
M  V30 5878 N 548.375 1.56261 0.205012 0
M  V30 5879 C 549.305 1.96779 1.257 0
M  V30 5880 C 550.286 0.838309 1.48008 0
M  V30 5881 O 551.471 1.10189 1.59913 0
M  V30 5882 C 548.601 2.29876 2.60335 0
M  V30 5883 C 547.555 3.45469 2.52656 0
M  V30 5884 C 546.881 3.64215 3.91473 0
M  V30 5885 C 548.181 4.79954 2.06014 0
M  V30 5886 H 549.875 2.84904 0.920338 0
M  V30 5887 H 547.421 1.37072 0.441277 0
M  V30 5888 H 549.374 2.56814 3.34102 0
M  V30 5889 H 548.098 1.38622 2.95722 0
M  V30 5890 H 546.757 3.18605 1.81345 0
M  V30 5891 H 546.405 2.70309 4.24196 0
M  V30 5892 H 546.105 4.41973 3.87213 0
M  V30 5893 H 547.629 3.93519 4.66878 0
M  V30 5894 H 549.043 5.05989 2.69533 0
M  V30 5895 H 547.44 5.61111 2.12777 0
M  V30 5896 H 548.51 4.74201 1.01297 0
M  V30 5897 N 549.853 -0.472356 1.50355 0
M  V30 5898 C 551.101 -1.22211 1.60962 0
M  V30 5899 C 551.422 -1.92497 0.311439 0
M  V30 5900 O 550.692 -1.8405 -0.671002 0
M  V30 5901 H 549.272 -0.454092 0.593135 0
M  V30 5902 H 551.934 -0.544977 1.87126 0
M  V30 5903 H 551.03 -1.9707 2.42012 0
M  V30 5904 N 551.331 -1.39911 -0.725443 0
M  V30 5905 C 552.571 -1.39096 -1.49772 0
M  V30 5906 C 552.935 0.0106452 -1.91997 0
M  V30 5907 O 554.136 0.143859 -2.68415 0
M  V30 5908 C 552.407 -2.34441 -2.69764 0
M  V30 5909 S 553.966 -2.51898 -3.59295 0
M  V30 5910 H 550.784 -0.49314 -0.512186 0
M  V30 5911 H 553.386 -1.76093 -0.849197 0
M  V30 5912 H 552.09 -3.35123 -2.36898 0
M  V30 5913 H 551.621 -1.98692 -3.39537 0
M  V30 5914 H 553.636 -1.76402 -4.63785 0
M  V30 5915 N 552.809 0.956637 -1.25245 0
M  V30 5916 C 554.039 1.7332 -1.12445 0
M  V30 5917 C 554.447 1.86392 0.324732 0
M  V30 5918 O 553.79 1.35967 1.23526 0
M  V30 5919 C 553.852 3.16603 -1.70303 0
M  V30 5920 C 553.516 3.26966 -3.19284 0
M  V30 5921 C 554.513 3.11434 -4.16299 0
M  V30 5922 C 552.198 3.50851 -3.59456 0
M  V30 5923 C 554.192 3.1963 -5.51467 0
M  V30 5924 C 551.879 3.58684 -4.94761 0
M  V30 5925 C 552.877 3.43087 -5.90576 0
M  V30 5926 O 552.565 3.50598 -7.2342 0
M  V30 5927 H 552.297 0.549981 -0.393061 0
M  V30 5928 H 554.851 1.20892 -1.66055 0
M  V30 5929 H 553.081 3.70385 -1.11138 0
M  V30 5930 H 554.77 3.76109 -1.52632 0
M  V30 5931 H 555.536 2.92853 -3.86604 0
M  V30 5932 H 551.415 3.62053 -2.85375 0
M  V30 5933 H 554.959 3.07373 -6.26233 0
M  V30 5934 H 550.856 3.76782 -5.24124 0
M  V30 5935 H 551.624 3.67242 -7.31489 0
M  V30 5936 N 554.287 1.06798 1.15896 0
M  V30 5937 C 555.698 0.811355 1.68149 0
M  V30 5938 C 556.049 -0.664339 1.8461 0
M  V30 5939 O 555.174 -1.51485 1.54535 0
M  V30 5940 C 555.769 1.46624 3.05429 0
M  V30 5941 C 554.328 1.25726 3.54781 0
M  V30 5942 C 553.475 1.53949 2.3064 0
M  V30 5943 H 556.426 1.23078 1.00187 0
M  V30 5944 H 556.447 0.88437 3.7008 0
M  V30 5945 H 555.959 2.54025 2.93416 0
M  V30 5946 H 554.06 0.20322 3.72045 0
M  V30 5947 H 554.173 1.97354 4.36564 0
M  V30 5948 H 552.537 0.96025 2.35905 0
M  V30 5949 H 553.32 2.6252 2.2122 0
M  V30 5950 N 555.766 -1.3263 0.851289 0
M  V30 5951 C 556.991 -2.02097 0.466006 0
M  V30 5952 C 557.416 -1.63574 -0.928709 0
M  V30 5953 O 556.774 -0.834665 -1.60944 0
M  V30 5954 C 556.822 -3.55425 0.608737 0
M  V30 5955 O 555.926 -4.10827 -0.359878 0
M  V30 5956 H 555.267 -0.636911 0.187724 0
M  V30 5957 H 557.797 -1.69253 1.14955 0
M  V30 5958 H 557.807 -4.04986 0.495006 0
M  V30 5959 H 556.482 -3.82806 1.62581 0
M  V30 5960 H 555.059 -3.72349 -0.202666 0
M  V30 5961 N 557.244 -0.608902 -1.45362 0
M  V30 5962 C 558.154 0.110969 -2.34337 0
M  V30 5963 C 559.17 0.859007 -1.51318 0
M  V30 5964 O 560.346 0.816296 -1.84116 0
M  V30 5965 C 557.411 1.09494 -3.28956 0
M  V30 5966 C 556.472 0.348718 -4.27881 0
M  V30 5967 C 555.705 1.28582 -5.17979 0
M  V30 5968 O 555.928 2.52369 -5.11533 0
M  V30 5969 O 554.862 0.782172 -5.96796 0
M  V30 5970 H 558.688 -0.620258 -2.97299 0
M  V30 5971 H 556.273 -0.36916 -1.44767 0
M  V30 5972 H 558.155 1.66163 -3.87257 0
M  V30 5973 H 556.83 1.80717 -2.68557 0
M  V30 5974 H 555.737 -0.260465 -3.73192 0
M  V30 5975 H 557.07 -0.323049 -4.91139 0
M  V30 5976 N 558.722 1.53707 -0.348139 0
M  V30 5977 C 559.67 2.26671 0.521808 0
M  V30 5978 C 560.664 1.28988 1.09811 0
M  V30 5979 O 561.87 1.4668 1.04332 0
M  V30 5980 H 558.245 0.728387 0.186968 0
M  V30 5981 H 560.216 2.98176 -0.115563 0
M  V30 5982 C 558.965 3.05591 1.6586 0
M  V30 5983 H 558.288 3.80589 1.22443 0
M  V30 5984 H 559.728 3.59851 2.24239 0
M  V30 5985 C 558.187 2.15366 2.59073 0
M  V30 5986 O 558.717 1.7528 3.61441 0
M  V30 5987 N 556.923 1.80352 2.27863 0
M  V30 5988 H 556.47 2.13149 1.44656 0
M  V30 5989 H 556.428 1.20268 2.90488 0
M  V30 5990 N 560.2 0.0768682 1.57412 0
M  V30 5991 C 561.446 -0.591961 1.93968 0
M  V30 5992 C 561.779 -1.68954 0.9575 0
M  V30 5993 O 561.054 -1.94496 -0.0124675 0
M  V30 5994 C 561.337 -1.16418 3.40762 0
M  V30 5995 C 561.19 -0.0728933 4.49741 0
M  V30 5996 C 562.509 -2.06814 3.88479 0
M  V30 5997 H 559.628 -0.213716 0.705333 0
M  V30 5998 H 562.27 0.14387 1.89455 0
M  V30 5999 H 560.42 -1.79128 3.4474 0
M  V30 6000 H 562.092 0.560446 4.57883 0
M  V30 6001 H 560.335 0.595859 4.29688 0
M  V30 6002 H 561.006 -0.513755 5.49604 0
M  V30 6003 H 563.482 -1.54033 3.8654 0
M  V30 6004 H 562.358 -2.43785 4.91793 0
M  V30 6005 H 562.619 -2.97844 3.26713 0
M  V30 6006 N 561.678 -1.56367 -0.196722 0
M  V30 6007 C 562.924 -1.80796 -0.918725 0
M  V30 6008 C 563.257 -0.650645 -1.82976 0
M  V30 6009 O 562.532 0.348889 -1.91345 0
M  V30 6010 C 562.815 -3.15472 -1.73636 0
M  V30 6011 C 562.668 -4.41693 -0.85015 0
M  V30 6012 C 563.987 -3.46824 -2.70927 0
M  V30 6013 H 561.106 -0.657702 -0.332561 0
M  V30 6014 H 563.748 -1.89086 -0.186186 0
M  V30 6015 H 561.898 -3.08536 -2.36088 0
M  V30 6016 H 563.57 -4.60673 -0.240459 0
M  V30 6017 H 561.813 -4.33517 -0.156785 0
M  V30 6018 H 562.484 -5.32419 -1.45719 0
M  V30 6019 H 564.96 -3.54049 -2.18607 0
M  V30 6020 H 563.836 -4.4218 -3.25219 0
M  V30 6021 H 564.097 -2.70236 -3.49893 0
M  V30 6022 N 563.156 0.464375 -1.50603 0
M  V30 6023 C 564.567 1.04507 -1.5471 0
M  V30 6024 C 564.918 1.9297 -0.354542 0
M  V30 6025 O 564.043 2.09763 0.531812 0
M  V30 6026 C 564.638 1.90207 -2.80369 0
M  V30 6027 C 563.197 2.43373 -2.87135 0
M  V30 6028 C 562.344 1.21886 -2.49076 0
M  V30 6029 H 565.295 0.246716 -1.56771 0
M  V30 6030 H 565.316 2.75353 -2.62604 0
M  V30 6031 H 564.828 1.25796 -3.67147 0
M  V30 6032 H 562.929 3.11318 -2.04724 0
M  V30 6033 H 563.042 2.7802 -3.90181 0
M  V30 6034 H 561.406 1.55575 -2.01664 0
M  V30 6035 H 562.189 0.591268 -3.3817 0
M  V30 6036 N 564.634 1.40294 0.718013 0
M  V30 6037 C 565.88 1.38645 1.48005 0
M  V30 6038 C 566.213 -0.0121202 1.94196 0
M  V30 6039 O 565.488 -0.980309 1.67989 0
M  V30 6040 C 565.771 2.37379 2.70782 0
M  V30 6041 C 565.624 3.8625 2.30501 0
M  V30 6042 C 566.943 2.33685 3.72933 0
M  V30 6043 H 564.062 0.504928 0.536858 0
M  V30 6044 H 566.704 1.71411 0.819649 0
M  V30 6045 H 564.854 2.09568 3.27129 0
M  V30 6046 H 566.526 4.24879 1.79655 0
M  V30 6047 H 564.769 4.02202 1.6253 0
M  V30 6048 H 565.44 4.50847 3.18498 0
M  V30 6049 H 567.916 2.58314 3.2621 0
M  V30 6050 H 566.792 3.0482 4.56482 0
M  V30 6051 H 567.053 1.34765 4.21059 0
M  V30 6052 N 566.112 -0.949982 1.2575 0
M  V30 6053 C 567.389 -1.6718 1.01539 0
M  V30 6054 C 567.769 -2.06095 -0.456942 0
M  V30 6055 O 567.117 -1.77792 -1.43534 0
M  V30 6056 C 567.327 -2.8906 1.95564 0
M  V30 6057 C 568.675 -3.60909 2.23673 0
M  V30 6058 O 569.699 -2.9915 1.9336 0
M  V30 6059 O 568.558 -4.72127 2.75243 0
M  V30 6060 H 565.652 -0.731697 0.385419 0
M  V30 6061 H 568.198 -1.00249 1.36924 0
M  V30 6062 H 566.97 -2.57128 2.94959 0
M  V30 6063 H 566.593 -3.63719 1.60605 0
M  V30 6064 N 567.59 -1.07411 -1.15328 0
M  V30 6065 C 569.001 -0.820261 -1.67716 0
M  V30 6066 C 569.352 0.654539 -1.8496 0
M  V30 6067 O 568.477 1.50664 -1.55337 0
M  V30 6068 C 569.072 -1.48242 -3.04647 0
M  V30 6069 C 567.631 -1.27606 -3.5411 0
M  V30 6070 C 566.778 -1.5517 -2.29821 0
M  V30 6071 H 569.729 -1.23608 -0.995332 0
M  V30 6072 H 569.75 -0.903984 -3.69606 0
M  V30 6073 H 569.262 -2.55578 -2.92064 0
M  V30 6074 H 567.363 -0.222948 -3.71932 0
M  V30 6075 H 567.476 -1.99667 -4.35511 0
M  V30 6076 H 565.84 -0.972747 -2.35393 0
M  V30 6077 H 566.623 -2.63689 -2.19824 0
M  V30 6078 N 569.068 1.32177 -0.85831 0
M  V30 6079 C 570.296 2.01313 -0.477582 0
M  V30 6080 C 570.711 1.6449 0.926736 0
M  V30 6081 O 570.068 0.868096 1.60531 0
M  V30 6082 C 570.119 3.56293 -0.611337 0
M  V30 6083 O 569.84 3.91794 -1.96034 0
M  V30 6084 C 571.341 4.42702 -0.230093 0
M  V30 6085 H 568.561 0.644323 -0.187322 0
M  V30 6086 H 571.105 1.68674 -1.15626 0
M  V30 6087 H 569.26 3.87395 0.0196494 0
M  V30 6088 H 569.674 4.86513 -1.95973 0
M  V30 6089 H 571.148 5.50727 -0.374674 0
M  V30 6090 H 571.625 4.3129 0.829779 0
M  V30 6091 H 572.231 4.16997 -0.836302 0
M  V30 6092 O 570.585 0.756816 1.42669 0
M  V30 6093 H 571.276 0.315719 1.9111 0
M  V30 END ATOM
M  V30 BEGIN BOND
M  V30 END BOND
M  V30 END CTAB
M  END
$$$$
