drugbank_target|P0A9P4 Thioredoxin reductase (DB03147)
 OpenBabel12092120033D

  0  0  0     0  0            999 V3000
M  V30 BEGIN CTAB
M  V30 COUNTS 4823 4862 0 0 0
M  V30 BEGIN ATOM
M  V30 1 H -0.908 1.98254 -0.117106 0
M  V30 2 N 0 1.576 0 0
M  V30 3 C 0.933 2.03868 1.02534 0
M  V30 4 C 1.911 0.928543 1.3348 0
M  V30 5 O 3.095 1.19667 1.45644 0
M  V30 6 C 0.222 2.43627 2.35294 0
M  V30 7 C -0.732 3.65373 2.2001 0
M  V30 8 S 0.101 5.13292 1.52614 0
M  V30 9 C 1.257 5.56322 2.86805 0
M  V30 10 H 1.49 2.90518 0.631377 0
M  V30 11 H -0.977 1.52953 0.210867 0
M  V30 12 H 0.981 2.67203 3.11629 0
M  V30 13 H -0.358 1.57376 2.7183 0
M  V30 14 H -1.165 3.90944 3.18086 0
M  V30 15 H -1.563 3.418 1.51819 0
M  V30 16 H 0.729 5.58782 3.83104 0
M  V30 17 H 1.672 6.56266 2.65933 0
M  V30 18 H 2.08 4.83886 2.90714 0
M  V30 19 N 1.4781 -0.272755 1.55222 0
M  V30 20 C 2.7261 -1.00234 1.75492 0
M  V30 21 C 3.0471 -1.8681 0.5592 0
M  V30 22 O 2.3171 -1.91215 -0.425882 0
M  V30 23 H 0.8971 -0.373076 0.647166 0
M  V30 24 H 3.5591 -0.296926 1.92625 0
M  V30 25 H 2.6551 -1.63913 2.65592 0
M  V30 26 N 2.9562 -1.48159 -0.537278 0
M  V30 27 C 4.1842 -1.59454 -1.31841 0
M  V30 28 C 4.5992 -0.252065 -1.8711 0
M  V30 29 O 3.9562 0.757621 -1.66031 0
M  V30 30 C 4.0072 -2.63546 -2.47439 0
M  V30 31 O 3.7282 -3.92583 -1.94449 0
M  V30 32 C 5.2292 -2.85212 -3.39366 0
M  V30 33 H 2.4492 -0.53785 -0.401196 0
M  V30 34 H 4.9932 -1.93932 -0.648891 0
M  V30 35 H 3.1482 -2.31946 -3.1029 0
M  V30 36 H 3.5622 -4.49629 -2.70063 0
M  V30 37 H 5.0362 -3.61863 -4.16844 0
M  V30 38 H 5.5132 -1.93765 -3.94147 0
M  V30 39 H 6.1192 -3.18086 -2.82314 0
M  V30 40 N 4.4343 0.785586 -1.36625 0
M  V30 41 C 5.6623 1.57448 -1.3423 0
M  V30 42 C 6.0773 1.88649 0.0755653 0
M  V30 43 O 5.4343 1.50414 1.03354 0
M  V30 44 C 5.4853 2.89316 -2.16745 0
M  V30 45 O 5.2063 2.59459 -3.53005 0
M  V30 46 C 6.7073 3.83606 -2.22174 0
M  V30 47 H 3.9273 0.488226 -0.4603 0
M  V30 48 H 6.4713 0.974733 -1.79775 0
M  V30 49 H 4.6263 3.4575 -1.74745 0
M  V30 50 H 5.0403 3.43804 -3.96105 0
M  V30 51 H 6.5143 4.73181 -2.8426 0
M  V30 52 H 6.9913 4.21734 -1.22627 0
M  V30 53 H 7.5973 3.33104 -2.64427 0
M  V30 54 N 5.9124 1.20967 1.01018 0
M  V30 55 C 6.8594 0.964281 2.09691 0
M  V30 56 C 7.8294 -0.107853 1.65749 0
M  V30 57 O 9.0144 0.0381987 1.90762 0
M  V30 58 C 6.1544 0.52943 3.41015 0
M  V30 59 C 5.2674 1.67043 3.98398 0
M  V30 60 C 4.4024 1.18525 5.17808 0
M  V30 61 C 3.4414 2.29892 5.67288 0
M  V30 62 N 2.5784 1.82546 6.77954 0
M  V30 63 H 7.4184 1.89463 2.30017 0
M  V30 64 H 4.9554 0.944289 1.1279 0
M  V30 65 H 6.9134 0.258588 4.16398 0
M  V30 66 H 5.5434 -0.363919 3.20742 0
M  V30 67 H 4.5954 2.05603 3.20049 0
M  V30 68 H 5.9074 2.50877 4.31117 0
M  V30 69 H 5.0614 0.870762 6.00419 0
M  V30 70 H 3.8004 0.316887 4.86669 0
M  V30 71 H 2.8054 2.6215 4.83278 0
M  V30 72 H 4.0304 3.17216 6.00459 0
M  V30 73 H 1.9764 0.980454 6.48632 0
M  V30 74 H 1.8934 2.59956 7.09901 0
M  V30 75 H 3.1614 1.54115 7.64113 0
M  V30 76 N 7.3905 -1.2043 1.01659 0
M  V30 77 C 8.3405 -2.21076 0.557623 0
M  V30 78 C 9.3245 -1.56176 -0.387029 0
M  V30 79 O 10.5165 -1.7575 -0.209996 0
M  V30 80 C 7.6455 -3.43146 -0.102707 0
M  V30 81 C 6.7315 -4.15213 0.863652 0
M  V30 82 N 7.1225 -4.63662 2.02117 0
M  V30 83 C 5.4205 -4.40716 0.684472 0
M  V30 84 C 6.1215 -5.18868 2.62966 0
M  V30 85 N 5.0975 -5.0893 1.91027 0
M  V30 86 H 8.8995 -2.56201 1.44008 0
M  V30 87 H 6.4135 -1.36366 0.881931 0
M  V30 88 H 8.4105 -4.14475 -0.449054 0
M  V30 89 H 7.0705 -3.09526 -0.981003 0
M  V30 90 H 8.0815 -4.58877 2.40109 0
M  V30 91 H 4.7585 -4.17245 -0.14577 0
M  V30 92 H 6.1485 -5.6673 3.60924 0
M  V30 93 N 8.8686 -0.792821 -1.36206 0
M  V30 94 C 10.0936 -0.377701 -2.03932 0
M  V30 95 C 10.5186 0.998947 -1.59382 0
M  V30 96 O 9.8766 1.64421 -0.763903 0
M  V30 97 C 9.9246 -0.453635 -3.57735 0
M  V30 98 O 9.0286 0.538151 -4.08874 0
M  V30 99 H 8.3696 -0.159855 -0.644471 0
M  V30 100 H 10.8996 -1.07488 -1.7409 0
M  V30 101 H 10.9096 -0.318464 -4.06755 0
M  V30 102 H 9.5846 -1.45784 -3.89512 0
M  V30 103 H 8.1616 0.364359 -3.71116 0
M  V30 104 N 10.3467 1.47872 -0.545128 0
M  V30 105 C 11.2937 2.29849 0.2093 0
M  V30 106 C 12.2637 1.38313 0.919707 0
M  V30 107 O 13.4487 1.67277 0.917772 0
M  V30 108 C 10.5887 3.22019 1.24088 0
M  V30 109 C 9.7017 4.2864 0.537778 0
M  V30 110 C 8.8367 5.07973 1.5536 0
M  V30 111 C 7.8757 6.06381 0.8348 0
M  V30 112 N 7.0127 6.78717 1.79688 0
M  V30 113 H 11.8527 2.93845 -0.49591 0
M  V30 114 H 9.3897 1.44848 -0.256389 0
M  V30 115 H 11.3477 3.73868 1.85144 0
M  V30 116 H 9.9777 2.59914 1.91428 0
M  V30 117 H 9.0297 3.7994 -0.187046 0
M  V30 118 H 10.3417 4.98793 -0.0258907 0
M  V30 119 H 9.4957 5.63912 2.23803 0
M  V30 120 H 8.2347 4.37693 2.15118 0
M  V30 121 H 7.2397 5.49631 0.136388 0
M  V30 122 H 8.4647 6.78665 0.24313 0
M  V30 123 H 6.4107 6.11177 2.38326 0
M  V30 124 H 6.3277 7.44998 1.28505 0
M  V30 125 H 7.5957 7.39237 2.47282 0
M  V30 126 N 11.8248 0.280983 1.55075 0
M  V30 127 C 12.7548 -0.597469 2.25727 0
M  V30 128 C 13.7358 -1.15417 1.24952 0
M  V30 129 O 14.9208 -1.18722 1.53684 0
M  V30 130 C 12.0508 -1.7789 2.98283 0
M  V30 131 C 11.0048 -1.35347 4.06036 0
M  V30 132 C 10.3308 -2.61846 4.66198 0
M  V30 133 C 11.6308 -0.499354 5.19907 0
M  V30 134 H 13.3248 -0.00824265 2.99399 0
M  V30 135 H 10.8708 -0.0025244 1.44 0
M  V30 136 H 12.8238 -2.39937 3.46422 0
M  V30 137 H 11.5478 -2.39405 2.22155 0
M  V30 138 H 10.2068 -0.756156 3.58717 0
M  V30 139 H 9.8548 -3.21632 3.86732 0
M  V30 140 H 9.5548 -2.3409 5.38958 0
M  V30 141 H 11.0788 -3.24732 5.1709 0
M  V30 142 H 12.4928 -1.02498 5.64063 0
M  V30 143 H 10.8898 -0.316424 5.99265 0
M  V30 144 H 11.9598 0.480459 4.82514 0
M  V30 145 N 13.3029 -1.57598 0.00835791 0
M  V30 146 C 14.2329 -2.1198 -0.979113 0
M  V30 147 C 15.2139 -1.03091 -1.35301 0
M  V30 148 O 16.3989 -1.30818 -1.43528 0
M  V30 149 C 13.5289 -2.62995 -2.26828 0
M  V30 150 C 12.4829 -3.76485 -2.03576 0
M  V30 151 C 11.8089 -4.13846 -3.38579 0
M  V30 152 C 13.1089 -5.0342 -1.39161 0
M  V30 153 H 14.8029 -2.94738 -0.526281 0
M  V30 154 H 12.3489 -1.41783 -0.251704 0
M  V30 155 H 14.3019 -2.99669 -2.96271 0
M  V30 156 H 13.0259 -1.7737 -2.7424 0
M  V30 157 H 11.6849 -3.40217 -1.36557 0
M  V30 158 H 11.3329 -3.25232 -3.83709 0
M  V30 159 H 11.0329 -4.90312 -3.23834 0
M  V30 160 H 12.5569 -4.53086 -4.09323 0
M  V30 161 H 13.9709 -5.37812 -1.98573 0
M  V30 162 H 12.3679 -5.84746 -1.34878 0
M  V30 163 H 13.4379 -4.83548 -0.361868 0
M  V30 164 N 14.781 0.264519 -1.55364 0
M  V30 165 C 16.03 0.992812 -1.75574 0
M  V30 166 C 16.343 1.87142 -0.568979 0
M  V30 167 O 17.549 2.63513 -0.653682 0
M  V30 168 C 16.005 1.81519 -3.10771 0
M  V30 169 C 15.613 0.984839 -4.37041 0
M  V30 170 C 17.357 2.53727 -3.40327 0
M  V30 171 C 15.264 1.80209 -5.63275 0
M  V30 172 H 14.194 0.374412 -0.65447 0
M  V30 173 H 16.845 0.248138 -1.81815 0
M  V30 174 H 15.227 2.60115 -2.98591 0
M  V30 175 H 16.401 0.242455 -4.60162 0
M  V30 176 H 14.716 0.37691 -4.14691 0
M  V30 177 H 17.313 3.15292 -4.3185 0
M  V30 178 H 17.656 3.24447 -2.60845 0
M  V30 179 H 18.189 1.82156 -3.53644 0
M  V30 180 H 14.928 1.13896 -6.45529 0
M  V30 181 H 14.448 2.52022 -5.44284 0
M  V30 182 H 16.127 2.37364 -6.01887 0
M  V30 183 N 16.2591 1.48442 0.529413 0
M  V30 184 C 17.1891 1.65902 1.64313 0
M  V30 185 C 18.1701 0.507897 1.6234 0
M  V30 186 O 19.3551 0.740503 1.79528 0
M  V30 187 C 16.4851 1.69911 3.02898 0
M  V30 188 C 15.4391 2.8453 3.19729 0
M  V30 189 C 14.7651 2.73629 4.59381 0
M  V30 190 C 16.0651 4.25821 3.02447 0
M  V30 191 H 17.7591 2.5914 1.49955 0
M  V30 192 H 15.3051 1.24709 0.719982 0
M  V30 193 H 17.2581 1.80715 3.80684 0
M  V30 194 H 15.9821 0.732524 3.18279 0
M  V30 195 H 14.6411 2.73283 2.44361 0
M  V30 196 H 14.2891 1.74938 4.71599 0
M  V30 197 H 13.9891 3.50541 4.71588 0
M  V30 198 H 15.5131 2.86401 5.39265 0
M  V30 199 H 16.9271 4.37898 3.70024 0
M  V30 200 H 15.3241 5.03735 3.26146 0
M  V30 201 H 16.3941 4.42244 1.98867 0
M  V30 202 N 17.7372 -0.778329 1.37039 0
M  V30 203 C 18.9852 -1.53361 1.31623 0
M  V30 204 C 19.3062 -1.94739 -0.100831 0
M  V30 205 O 18.5762 -1.65797 -1.04347 0
M  V30 206 H 17.1562 -0.568794 0.484234 0
M  V30 207 H 19.8182 -0.926742 1.71457 0
M  V30 208 H 18.9142 -2.43606 1.95096 0
M  V30 209 N 19.2153 -1.21501 -1.00376 0
M  V30 210 C 20.4403 -1.05977 -1.78279 0
M  V30 211 C 20.8653 0.385994 -1.84097 0
M  V30 212 O 20.2233 1.27849 -1.28547 0
M  V30 213 C 20.2713 -1.66302 -3.19963 0
M  V30 214 O 19.3753 -0.909333 -4.0225 0
M  V30 215 H 18.7163 -0.372906 -0.549397 0
M  V30 216 H 21.2463 -1.6107 -1.26165 0
M  V30 217 H 21.2563 -1.70574 -3.70632 0
M  V30 218 H 19.9313 -2.71515 -3.15043 0
M  V30 219 H 18.5083 -0.941795 -3.60811 0
M  V30 220 N 20.6934 1.19889 -1.02296 0
M  V30 221 C 21.9414 1.89046 -0.714558 0
M  V30 222 C 22.2624 1.79636 0.758681 0
M  V30 223 O 21.5324 1.20292 1.54618 0
M  V30 224 H 20.1124 0.699802 -0.261317 0
M  V30 225 H 22.7744 1.45574 -1.29592 0
M  V30 226 H 21.8704 2.95524 -1.0036 0
M  V30 227 N 22.1715 0.800033 1.35784 0
M  V30 228 C 23.5825 0.439142 1.81462 0
M  V30 229 C 23.9335 -1.03813 1.66485 0
M  V30 230 O 23.0585 -1.80626 1.19177 0
M  V30 231 C 23.6535 0.790314 3.29453 0
M  V30 232 C 22.2125 0.482111 3.733 0
M  V30 233 C 21.3595 1.01938 2.57883 0
M  V30 234 H 24.3105 0.992254 1.23855 0
M  V30 235 H 24.3315 0.0853677 3.80404 0
M  V30 236 H 23.8435 1.86554 3.40322 0
M  V30 237 H 21.9445 -0.584652 3.67984 0
M  V30 238 H 22.0575 1.01015 4.6833 0
M  V30 239 H 20.4215 0.442043 2.50835 0
M  V30 240 H 21.2045 2.10059 2.71533 0
M  V30 241 N 23.6496 -1.47581 0.552962 0
M  V30 242 C 24.6126 -2.28439 -0.186605 0
M  V30 243 C 25.6126 -1.36706 -0.84665 0
M  V30 244 O 26.8026 -1.59378 -0.703164 0
M  V30 245 C 23.9346 -3.16264 -1.2724 0
M  V30 246 H 25.1276 -2.95294 0.523609 0
M  V30 247 H 22.6806 -1.532 0.309745 0
M  V30 248 H 23.4156 -2.54091 -2.01514 0
M  V30 249 H 23.2006 -3.83769 -0.803968 0
M  V30 250 H 24.6906 -3.77198 -1.79196 0
M  V30 251 N 25.1277 -0.289203 -1.54924 0
M  V30 252 C 26.3757 0.322879 -1.99504 0
M  V30 253 C 26.6967 1.55313 -1.1791 0
M  V30 254 O 25.9667 1.94001 -0.272097 0
M  V30 255 H 24.5467 0.122291 -0.736922 0
M  V30 256 H 27.2087 -0.397802 -1.90797 0
M  V30 257 H 26.3047 0.603061 -3.06218 0
M  V30 258 N 26.6058 1.57591 -0.0167156 0
M  V30 259 C 27.8358 1.95292 0.674149 0
M  V30 260 C 28.2438 0.891097 1.66901 0
M  V30 261 O 27.5868 -0.136908 1.83189 0
M  V30 262 C 27.6488 3.29072 1.44747 0
M  V30 263 C 27.3128 4.52879 0.612331 0
M  V30 264 C 28.3098 5.1979 -0.107126 0
M  V30 265 C 25.9948 4.99242 0.553381 0
M  V30 266 C 27.9888 6.31375 -0.874339 0
M  V30 267 C 25.6758 6.10713 -0.217546 0
M  V30 268 C 26.6738 6.76637 -0.930123 0
M  V30 269 O 26.3618 7.85969 -1.68844 0
M  V30 270 H 26.0938 0.648275 0.191615 0
M  V30 271 H 28.6478 2.05284 -0.0690148 0
M  V30 272 H 26.8778 3.15535 2.2355 0
M  V30 273 H 28.5668 3.51764 2.02526 0
M  V30 274 H 29.3328 4.84948 -0.0708392 0
M  V30 275 H 25.2118 4.47744 1.09757 0
M  V30 276 H 28.7558 6.82764 -1.43106 0
M  V30 277 H 24.6528 6.44994 -0.255593 0
M  V30 278 H 25.4208 8.02571 -1.6069 0
M  V30 279 N 28.0839 -0.256276 1.55502 0
M  V30 280 C 29.3119 -1.00342 1.8094 0
M  V30 281 C 29.7269 -1.79307 0.59114 0
M  V30 282 O 29.0839 -1.77114 -0.440081 0
M  V30 283 C 29.1349 -1.94875 3.04476 0
M  V30 284 O 28.8559 -1.19107 4.21598 0
M  V30 285 C 30.3569 -2.81266 3.42644 0
M  V30 286 H 27.5769 -0.295685 0.602338 0
M  V30 287 H 30.1209 -0.281998 2.02546 0
M  V30 288 H 28.2759 -2.62457 2.84947 0
M  V30 289 H 28.6899 -1.82969 4.91551 0
M  V30 290 H 30.1639 -3.43362 4.32211 0
M  V30 291 H 30.6409 -3.51897 2.62802 0
M  V30 292 H 31.2469 -2.1915 3.64491 0
M  V30 293 N 29.562 -1.4872 -0.521534 0
M  V30 294 C 30.525 -1.63379 -1.60748 0
M  V30 295 C 31.525 -0.50661 -1.52611 0
M  V30 296 O 32.715 -0.772601 -1.5613 0
M  V30 297 C 29.847 -1.61192 -3.00383 0
M  V30 298 H 31.04 -2.60217 -1.49087 0
M  V30 299 H 28.593 -1.37444 -0.744235 0
M  V30 300 H 29.328 -0.65863 -3.17541 0
M  V30 301 H 29.113 -2.43032 -3.07698 0
M  V30 302 H 30.603 -1.7466 -3.7932 0
M  V30 303 N 31.0401 0.771051 -1.3745 0
M  V30 304 C 32.0031 1.86598 -1.33093 0
M  V30 305 C 33.0031 1.59076 -0.234845 0
M  V30 306 O 34.1931 1.67145 -0.490732 0
M  V30 307 C 31.3251 3.23747 -1.06773 0
M  V30 308 H 32.5181 1.91873 -2.30488 0
M  V30 309 H 30.0711 0.970876 -1.2249 0
M  V30 310 H 30.8061 3.24148 -0.099129 0
M  V30 311 H 30.5911 3.45115 -1.86112 0
M  V30 312 H 32.0811 4.03824 -1.06377 0
M  V30 313 N 32.5182 1.22032 0.997298 0
M  V30 314 C 33.7642 1.04376 1.73878 0
M  V30 315 C 34.0972 -0.420716 1.89588 0
M  V30 316 O 33.3722 -1.31202 1.43583 0
M  V30 317 C 33.6552 1.75047 3.14691 0
M  V30 318 C 33.5082 3.29062 3.06656 0
M  V30 319 C 34.8272 1.49928 4.13775 0
M  V30 320 H 31.9462 0.380578 0.631133 0
M  V30 321 H 34.5882 1.50312 1.16217 0
M  V30 322 H 32.7382 1.35996 3.63919 0
M  V30 323 H 34.4102 3.7753 2.65083 0
M  V30 324 H 32.6532 3.58967 2.43568 0
M  V30 325 H 33.3242 3.73683 4.06282 0
M  V30 326 H 35.8002 1.83842 3.73285 0
M  V30 327 H 34.6762 2.01878 5.10428 0
M  V30 328 H 34.9372 0.430929 4.39995 0
M  V30 329 N 33.9963 -1.19345 1.0293 0
M  V30 330 C 35.2263 -1.92717 0.744563 0
M  V30 331 C 35.6343 -1.75751 -0.700579 0
M  V30 332 O 34.9773 -1.07703 -1.48815 0
M  V30 333 C 35.0393 -3.44828 1.01657 0
M  V30 334 C 34.7033 -3.85564 2.45335 0
M  V30 335 C 35.7003 -3.90286 3.43472 0
M  V30 336 C 33.3853 -4.1719 2.79746 0
M  V30 337 C 35.3793 -4.26065 4.74075 0
M  V30 338 C 33.0663 -4.52642 4.10559 0
M  V30 339 C 34.0643 -4.57054 5.07534 0
M  V30 340 O 33.7523 -4.91685 6.36004 0
M  V30 341 H 33.4843 -0.618977 0.271742 0
M  V30 342 H 36.0383 -1.52415 1.37691 0
M  V30 343 H 34.2683 -3.85314 0.327084 0
M  V30 344 H 35.9573 -3.99437 0.721427 0
M  V30 345 H 36.7233 -3.66002 3.18225 0
M  V30 346 H 32.6023 -4.1294 2.04943 0
M  V30 347 H 36.1463 -4.29423 5.49765 0
M  V30 348 H 32.0433 -4.76383 4.35579 0
M  V30 349 H 32.8113 -5.09631 6.40483 0
M  V30 350 N 35.4744 -0.807222 -1.35358 0
M  V30 351 C 36.4374 -0.223665 -2.28106 0
M  V30 352 C 37.4374 0.589354 -1.4961 0
M  V30 353 O 38.6274 0.407745 -1.69361 0
M  V30 354 C 35.7594 0.688149 -3.33882 0
M  V30 355 H 36.9524 -1.04169 -2.81227 0
M  V30 356 H 34.5054 -0.577921 -1.45223 0
M  V30 357 H 35.2404 1.52984 -2.85948 0
M  V30 358 H 35.0254 0.10687 -3.91954 0
M  V30 359 H 36.5154 1.09075 -4.03104 0
M  V30 360 N 36.9525 1.47285 -0.560781 0
M  V30 361 C 37.9155 2.28535 0.174488 0
M  V30 362 C 38.9155 1.37153 0.839388 0
M  V30 363 O 40.1055 1.59748 0.694702 0
M  V30 364 C 37.2375 3.16934 1.25561 0
M  V30 365 H 38.4305 2.95012 -0.539262 0
M  V30 366 H 35.9835 1.53034 -0.317865 0
M  V30 367 H 36.7185 2.55157 2.00164 0
M  V30 368 H 36.5035 3.8419 0.783604 0
M  V30 369 H 37.9935 3.78143 1.77193 0
M  V30 370 N 38.4306 0.297415 1.54768 0
M  V30 371 C 39.8466 -0.0560823 1.59501 0
M  V30 372 C 40.0466 -1.52725 1.31444 0
M  V30 373 O 39.1026 -2.27947 1.08611 0
M  V30 374 C 40.4156 0.338631 2.98787 0
M  V30 375 C 41.9636 0.287097 3.11681 0
M  V30 376 C 42.4386 0.656579 4.53269 0
M  V30 377 N 43.9296 0.608977 4.59179 0
M  V30 378 C 44.6646 0.867385 5.66802 0
M  V30 379 N 44.1606 1.19157 6.82476 0
M  V30 380 N 45.9536 0.794687 5.56454 0
M  V30 381 H 38.1046 1.25624 1.71267 0
M  V30 382 H 40.3676 0.509057 0.799728 0
M  V30 383 H 40.0736 1.36263 3.2423 0
M  V30 384 H 39.9476 -0.309508 3.75928 0
M  V30 385 H 42.3346 -0.727649 2.85988 0
M  V30 386 H 42.4156 0.969809 2.36703 0
M  V30 387 H 42.0596 1.66912 4.7969 0
M  V30 388 H 41.9896 -0.0481649 5.26578 0
M  V30 389 H 44.4806 0.369198 3.76092 0
M  V30 390 H 44.7936 1.37482 7.60473 0
M  V30 391 H 43.1386 1.22958 6.84037 0
M  V30 392 H 46.3296 0.541098 4.64962 0
M  V30 393 H 46.5026 0.999445 6.40246 0
M  V30 394 N 39.9087 -1.5758 0.0250728 0
M  V30 395 C 40.8717 -2.08896 -0.943139 0
M  V30 396 C 41.8717 -1.00321 -1.25668 0
M  V30 397 O 43.0617 -1.26495 -1.19769 0
M  V30 398 C 40.1937 -2.55143 -2.26086 0
M  V30 399 H 41.3867 -2.95723 -0.498775 0
M  V30 400 H 38.9397 -1.54703 -0.222888 0
M  V30 401 H 39.6747 -1.71633 -2.75159 0
M  V30 402 H 39.4597 -3.34461 -2.04641 0
M  V30 403 H 40.9497 -2.95083 -2.95492 0
M  V30 404 N 41.3868 0.248026 -1.55636 0
M  V30 405 C 42.3348 1.32683 -1.91045 0
M  V30 406 C 43.3288 1.49883 -0.789401 0
M  V30 407 O 44.5348 1.51371 -0.974007 0
M  V30 408 H 40.9098 0.444272 -0.606734 0
M  V30 409 H 42.8808 1.00085 -2.81115 0
M  V30 410 C 41.6298 2.6755 -2.22064 0
M  V30 411 H 40.9528 2.55114 -3.07826 0
M  V30 412 H 42.3928 3.41912 -2.50743 0
M  V30 413 C 40.8518 3.20556 -1.0366 0
M  V30 414 O 41.3818 4.00695 -0.284016 0
M  V30 415 N 39.5878 2.78568 -0.82753 0
M  V30 416 H 39.1348 2.1351 -1.44123 0
M  V30 417 H 39.0928 3.14378 -0.0369803 0
M  V30 418 N 42.8649 1.48995 0.513639 0
M  V30 419 C 43.7949 1.67636 1.62544 0
M  V30 420 C 44.7759 0.525087 1.61793 0
M  V30 421 O 45.9609 0.759502 1.78732 0
M  V30 422 C 43.0909 1.73114 3.01079 0
M  V30 423 C 42.0449 2.87905 3.16693 0
M  V30 424 C 41.3709 2.78486 4.56453 0
M  V30 425 C 42.6709 4.29005 2.97913 0
M  V30 426 H 44.3649 2.60716 1.47198 0
M  V30 427 H 41.9109 1.25465 0.706714 0
M  V30 428 H 43.8639 1.84742 3.78746 0
M  V30 429 H 42.5879 0.766241 3.17484 0
M  V30 430 H 41.2469 2.75859 2.41448 0
M  V30 431 H 40.8949 1.7993 4.69717 0
M  V30 432 H 40.5949 3.55523 4.67843 0
M  V30 433 H 42.1189 2.92104 5.36197 0
M  V30 434 H 43.5329 4.41798 3.65359 0
M  V30 435 H 41.9299 5.07166 3.20785 0
M  V30 436 H 42.9999 4.44329 1.94165 0
M  V30 437 N 44.343 -0.763751 1.37857 0
M  V30 438 C 45.275 -1.88664 1.30148 0
M  V30 439 C 46.288 -1.61365 0.215685 0
M  V30 440 O 47.477 -1.72134 0.472459 0
M  V30 441 C 44.577 -3.24075 0.991396 0
M  V30 442 C 43.75 -3.78958 2.18426 0
M  V30 443 C 42.809 -4.92862 1.8432 0
M  V30 444 O 41.835 -5.08027 2.56704 0
M  V30 445 N 43.037 -5.75071 0.792081 0
M  V30 446 H 45.802 -1.95791 2.26905 0
M  V30 447 H 43.363 -0.943226 1.31586 0
M  V30 448 H 45.355 -3.97804 0.743935 0
M  V30 449 H 43.925 -3.12399 0.112122 0
M  V30 450 H 43.145 -2.96913 2.59299 0
M  V30 451 H 44.433 -4.12357 2.98058 0
M  V30 452 H 43.831 -5.65375 0.191595 0
M  V30 453 H 42.388 -6.48991 0.60449 0
M  V30 454 N 45.8211 -1.22559 -0.990812 0
M  V30 455 C 47.2321 -1.04791 -1.54518 0
M  V30 456 C 47.5831 0.387998 -1.92325 0
M  V30 457 O 46.7081 1.27328 -1.74976 0
M  V30 458 C 47.3031 -1.896 -2.80779 0
M  V30 459 C 45.8621 -1.76124 -3.32652 0
M  V30 460 C 45.0091 -1.8594 -2.05722 0
M  V30 461 H 47.9601 -1.36374 -0.811662 0
M  V30 462 H 47.9811 -1.41464 -3.53225 0
M  V30 463 H 47.4931 -2.94101 -2.53231 0
M  V30 464 H 45.5941 -0.743643 -3.65104 0
M  V30 465 H 45.7071 -2.58913 -4.03114 0
M  V30 466 H 44.0711 -1.29403 -2.19379 0
M  V30 467 H 44.8541 -2.91976 -1.80568 0
M  V30 468 N 47.2992 1.18797 -1.03562 0
M  V30 469 C 48.5452 1.8893 -0.737113 0
M  V30 470 C 48.8782 1.79837 0.732956 0
M  V30 471 O 48.1532 1.19525 1.5344 0
M  V30 472 C 48.4362 3.39607 -1.19745 0
M  V30 473 C 48.2892 3.57537 -2.72924 0
M  V30 474 C 49.6082 4.33069 -0.783526 0
M  V30 475 H 46.7272 0.686057 -0.269249 0
M  V30 476 H 49.3692 1.39797 -1.28673 0
M  V30 477 H 47.5192 3.81583 -0.729855 0
M  V30 478 H 49.1912 3.24688 -3.27682 0
M  V30 479 H 47.4342 3.00363 -3.12993 0
M  V30 480 H 48.1052 4.63238 -3.00191 0
M  V30 481 H 50.5812 3.98846 -1.18581 0
M  V30 482 H 49.4572 5.3707 -1.13343 0
M  V30 483 H 49.7182 4.40986 0.313681 0
M  V30 484 N 48.7773 0.814389 1.34928 0
M  V30 485 C 49.7073 0.244827 2.32213 0
M  V30 486 C 50.6883 -0.634024 1.57842 0
M  V30 487 O 51.8733 -0.562676 1.8587 0
M  V30 488 C 49.0033 -0.601106 3.42058 0
M  V30 489 C 47.9573 0.179896 4.27622 0
M  V30 490 C 47.2833 -0.788237 5.28858 0
M  V30 491 C 48.5833 1.38329 5.03649 0
M  V30 492 H 50.2773 1.05763 2.80097 0
M  V30 493 H 47.8233 0.510029 1.34665 0
M  V30 494 H 49.7763 -1.00968 4.09125 0
M  V30 495 H 48.5003 -1.44688 2.92802 0
M  V30 496 H 47.1593 0.569739 3.62146 0
M  V30 497 H 46.8073 -1.62973 4.75866 0
M  V30 498 H 46.5073 -0.269942 5.8698 0
M  V30 499 H 48.0313 -1.19485 5.98795 0
M  V30 500 H 49.4453 1.04918 5.63618 0
M  V30 501 H 47.8423 1.83662 5.71304 0
M  V30 502 H 48.9123 2.16592 4.33839 0
M  V30 503 N 50.2554 -1.46986 0.568584 0
M  V30 504 C 51.5044 -2.01646 0.0465894 0
M  V30 505 C 51.8174 -1.44721 -1.31587 0
M  V30 506 O 53.0234 -1.91113 -1.92842 0
M  V30 507 C 51.4794 -3.59885 0.032752 0
M  V30 508 C 51.0874 -4.25804 1.39266 0
M  V30 509 C 52.8314 -4.22255 -0.436038 0
M  V30 510 C 50.7384 -5.76081 1.33732 0
M  V30 511 H 49.6684 -0.753876 0.013647 0
M  V30 512 H 52.3194 -1.68864 0.718131 0
M  V30 513 H 50.7014 -3.8968 -0.704669 0
M  V30 514 H 51.8754 -4.07637 2.1487 0
M  V30 515 H 50.1904 -3.7547 1.80032 0
M  V30 516 H 52.7874 -5.32394 -0.49602 0
M  V30 517 H 53.1304 -3.90212 -1.45053 0
M  V30 518 H 53.6634 -3.97033 0.246877 0
M  V30 519 H 50.4024 -6.12761 2.32817 0
M  V30 520 H 49.9224 -5.96553 0.623267 0
M  V30 521 H 51.6014 -6.38518 1.0442 0
M  V30 522 N 51.7335 -0.305618 -1.54608 0
M  V30 523 C 52.9615 0.304775 -2.04643 0
M  V30 524 C 53.3765 1.47167 -1.18268 0
M  V30 525 O 52.7335 1.81296 -0.209328 0
M  V30 526 C 52.7845 0.756564 -3.53495 0
M  V30 527 O 52.5055 -0.36389 -4.36586 0
M  V30 528 C 54.0065 1.43163 -4.19546 0
M  V30 529 H 51.2265 0.0655481 -0.667791 0
M  V30 530 H 53.7705 -0.446592 -1.99564 0
M  V30 531 H 51.9255 1.45794 -3.58919 0
M  V30 532 H 52.3395 -0.0113121 -5.24499 0
M  V30 533 H 53.8135 1.69886 -5.25207 0
M  V30 534 H 54.2905 2.37318 -3.69563 0
M  V30 535 H 54.8965 0.773307 -4.18211 0
M  V30 536 N 53.2116 1.57565 -0.0334293 0
M  V30 537 C 54.4596 1.91598 0.642999 0
M  V30 538 C 54.7806 0.910847 1.7242 0
M  V30 539 O 54.0506 -0.0469931 1.95844 0
M  V30 540 H 52.6306 0.707228 0.240496 0
M  V30 541 H 55.2926 1.94726 -0.0822488 0
M  V30 542 H 54.3886 2.92336 1.09298 0
M  V30 543 N 54.6897 -0.239769 1.55765 0
M  V30 544 C 55.6227 -1.32356 1.85895 0
M  V30 545 C 56.6007 -1.46053 0.714662 0
M  V30 546 O 57.7847 -1.62154 0.961157 0
M  V30 547 C 54.9117 -2.6962 2.04994 0
M  V30 548 C 53.9577 -2.73036 3.27648 0
M  V30 549 S 54.7907 -2.28929 4.84099 0
M  V30 550 C 55.9467 -3.68103 5.06212 0
M  V30 551 H 56.1797 -1.06601 2.77531 0
M  V30 552 H 53.7127 -0.441112 1.47965 0
M  V30 553 H 55.6707 -3.48653 2.16682 0
M  V30 554 H 54.3317 -2.92609 1.14188 0
M  V30 555 H 53.5247 -3.7386 3.38 0
M  V30 556 H 53.1267 -2.02052 3.14723 0
M  V30 557 H 55.4187 -4.63656 4.93993 0
M  V30 558 H 56.3617 -3.6268 6.08168 0
M  V30 559 H 56.7697 -3.60947 4.34025 0
M  V30 560 N 56.1678 -1.49265 -0.50573 0
M  V30 561 C 57.0778 -1.68312 -1.63427 0
M  V30 562 C 58.0938 -0.565682 -1.64548 0
M  V30 563 O 59.2698 -0.839801 -1.83055 0
M  V30 564 C 56.3348 -1.74107 -2.99813 0
M  V30 565 C 55.3958 -2.97653 -3.09356 0
M  V30 566 C 54.6288 -3.03163 -4.39236 0
M  V30 567 O 54.8518 -2.16396 -5.27758 0
M  V30 568 O 53.7858 -3.9558 -4.53652 0
M  V30 569 H 57.6118 -2.63907 -1.50289 0
M  V30 570 H 55.1968 -1.32951 -0.681502 0
M  V30 571 H 57.0788 -1.803 -3.80881 0
M  V30 572 H 55.7538 -0.816901 -3.13223 0
M  V30 573 H 54.6608 -2.96981 -2.27493 0
M  V30 574 H 55.9938 -3.89535 -3.00871 0
M  V30 575 N 57.6459 0.756429 -1.3826 0
M  V30 576 C 58.5929 1.87011 -1.35261 0
M  V30 577 C 59.5629 1.64695 -0.215616 0
M  V30 578 O 60.7479 1.864 -0.407399 0
M  V30 579 C 57.8879 3.24275 -1.18068 0
M  V30 580 C 57.0009 3.58442 -2.41129 0
M  V30 581 C 56.1359 4.84994 -2.16689 0
M  V30 582 C 55.1749 5.11939 -3.35537 0
M  V30 583 N 54.3119 6.29685 -3.10549 0
M  V30 584 H 59.1519 1.8891 -2.30472 0
M  V30 585 H 56.6889 0.923373 -1.14509 0
M  V30 586 H 58.6469 4.03479 -1.06116 0
M  V30 587 H 57.2769 3.21711 -0.264973 0
M  V30 588 H 56.3289 2.74103 -2.63764 0
M  V30 589 H 57.6409 3.74283 -3.29717 0
M  V30 590 H 56.7949 5.72135 -2.01857 0
M  V30 591 H 55.5339 4.71286 -1.25462 0
M  V30 592 H 54.5389 4.23268 -3.50891 0
M  V30 593 H 55.7639 5.27546 -4.27635 0
M  V30 594 H 53.7099 6.17306 -2.21967 0
M  V30 595 H 53.6269 6.46014 -3.92686 0
M  V30 596 H 54.8949 7.19722 -2.99367 0
M  V30 597 N 59.124 1.23083 0.984299 0
M  V30 598 C 60.372 1.05848 1.72165 0
M  V30 599 C 60.693 -0.406049 1.90726 0
M  V30 600 O 59.963 -1.29139 1.47309 0
M  V30 601 H 58.543 0.388685 0.637913 0
M  V30 602 H 61.205 1.54736 1.18503 0
M  V30 603 H 60.301 1.54327 2.71274 0
M  V30 604 N 60.6021 -1.18246 1.0419 0
M  V30 605 C 61.8501 -1.87886 0.744543 0
M  V30 606 C 62.1711 -1.8082 -0.730006 0
M  V30 607 O 61.4411 -1.22736 -1.52685 0
M  V30 608 H 60.0211 -0.695556 0.272417 0
M  V30 609 H 62.6831 -1.43494 1.31892 0
M  V30 610 H 61.7791 -2.9389 1.05049 0
M  V30 611 N 62.0802 -0.821533 -1.34494 0
M  V30 612 C 63.0122 -0.199946 -2.28326 0
M  V30 613 C 64.0252 0.609377 -1.50965 0
M  V30 614 O 65.2142 0.439285 -1.7301 0
M  V30 615 C 62.3142 0.738431 -3.30757 0
M  V30 616 C 61.4872 -0.0277632 -4.37391 0
M  V30 617 C 60.5462 0.831332 -5.19591 0
M  V30 618 O 59.5722 0.276822 -5.68526 0
M  V30 619 N 60.7742 2.15132 -5.39165 0
M  V30 620 H 63.5392 -1.00609 -2.82308 0
M  V30 621 H 61.1002 -0.678366 -1.47003 0
M  V30 622 H 63.0922 1.31773 -3.82646 0
M  V30 623 H 61.6622 1.44533 -2.7718 0
M  V30 624 H 60.8822 -0.788359 -3.86236 0
M  V30 625 H 62.1702 -0.555251 -5.05761 0
M  V30 626 H 61.5682 2.62559 -5.01078 0
M  V30 627 H 60.1252 2.6795 -5.94177 0
M  V30 628 N 63.5583 1.46682 -0.576371 0
M  V30 629 C 64.4883 2.33028 0.148397 0
M  V30 630 C 65.4693 1.44961 0.889956 0
M  V30 631 O 66.6543 1.73789 0.866662 0
M  V30 632 C 63.7843 3.27117 1.1667 0
M  V30 633 C 62.7383 4.24575 0.540386 0
M  V30 634 C 62.0643 5.08126 1.6647 0
M  V30 635 C 63.3643 5.19722 -0.518331 0
M  V30 636 H 65.0583 2.93875 -0.572509 0
M  V30 637 H 62.6043 1.41315 -0.276768 0
M  V30 638 H 64.5573 3.86374 1.68204 0
M  V30 639 H 63.2813 2.64364 1.9178 0
M  V30 640 H 61.9403 3.66571 0.0461769 0
M  V30 641 H 61.5883 4.41762 2.40531 0
M  V30 642 H 61.2883 5.74122 1.25131 0
M  V30 643 H 62.8123 5.70246 2.18293 0
M  V30 644 H 64.2263 5.73232 -0.0883058 0
M  V30 645 H 62.6233 5.94026 -0.851679 0
M  V30 646 H 63.6933 4.64037 -1.40703 0
M  V30 647 N 65.0364 0.313813 1.54444 0
M  V30 648 C 66.2644 -0.293918 2.04802 0
M  V30 649 C 66.6794 -1.46537 1.19047 0
M  V30 650 O 66.0364 -1.81182 0.218939 0
M  V30 651 C 66.0874 -0.737806 3.53891 0
M  V30 652 O 65.8084 0.387038 4.36387 0
M  V30 653 C 67.3094 -1.40936 4.203 0
M  V30 654 H 64.5294 -0.0620057 0.668129 0
M  V30 655 H 67.0734 0.457169 1.99324 0
M  V30 656 H 65.2284 -1.43889 3.59687 0
M  V30 657 H 65.6424 0.0391274 5.24485 0
M  V30 658 H 67.1164 -1.67099 5.26101 0
M  V30 659 H 67.5934 -2.35355 3.70816 0
M  V30 660 H 68.1994 -0.751117 4.18615 0
M  V30 661 N 66.5145 -1.57545 0.0417849 0
M  V30 662 C 67.7425 -1.96624 -0.643928 0
M  V30 663 C 68.1575 -0.918897 -1.64929 0
M  V30 664 O 67.5145 0.0979323 -1.82237 0
M  V30 665 C 67.5655 -3.35781 -1.33914 0
M  V30 666 O 67.2865 -4.365 -0.374048 0
M  V30 667 C 68.7875 -3.89566 -2.1155 0
M  V30 668 H 66.0075 -0.647316 -0.176702 0
M  V30 669 H 68.5515 -2.04229 0.105304 0
M  V30 670 H 66.7065 -3.29357 -2.03968 0
M  V30 671 H 67.1205 -5.17248 -0.869179 0
M  V30 672 H 68.5945 -4.89242 -2.55628 0
M  V30 673 H 69.0715 -3.24488 -2.9598 0
M  V30 674 H 69.6775 -3.99298 -1.46427 0
M  V30 675 N 67.9926 0.231505 -1.5589 0
M  V30 676 C 69.2206 0.974505 -1.82513 0
M  V30 677 C 69.6356 1.78344 -0.619591 0
M  V30 678 O 68.9926 1.77792 0.411848 0
M  V30 679 C 69.0436 1.90007 -3.07538 0
M  V30 680 O 68.7646 1.12385 -4.2344 0
M  V30 681 C 70.2656 2.75779 -3.47075 0
M  V30 682 H 67.4856 0.286065 -0.606966 0
M  V30 683 H 70.0296 0.249739 -2.02969 0
M  V30 684 H 68.1846 2.57891 -2.89086 0
M  V30 685 H 68.5986 1.75125 -4.944 0
M  V30 686 H 70.0726 3.36443 -4.37619 0
M  V30 687 H 70.5496 3.47672 -2.68367 0
M  V30 688 H 71.1556 2.13323 -3.67931 0
M  V30 689 N 69.4707 1.49531 0.497807 0
M  V30 690 C 70.6987 1.62893 1.27567 0
M  V30 691 C 71.1137 0.301585 1.86376 0
M  V30 692 O 70.4707 -0.713335 1.67982 0
M  V30 693 C 70.5217 2.70013 2.40364 0
M  V30 694 O 70.2427 3.976 1.83972 0
M  V30 695 C 71.7437 2.94109 3.31685 0
M  V30 696 H 68.9637 0.548298 0.386794 0
M  V30 697 H 71.5077 1.95584 0.597245 0
M  V30 698 H 69.6627 2.40092 3.04031 0
M  V30 699 H 70.0767 4.56631 2.58047 0
M  V30 700 H 71.5507 3.72788 4.07104 0
M  V30 701 H 72.0277 2.04147 3.88871 0
M  V30 702 H 72.6337 3.2546 2.73781 0
M  V30 703 N 70.9488 -0.749086 1.3866 0
M  V30 704 C 71.8588 -1.89358 1.38494 0
M  V30 705 C 72.8748 -1.71708 0.281476 0
M  V30 706 O 74.0508 -1.94554 0.520643 0
M  V30 707 C 71.1158 -3.24782 1.21316 0
M  V30 708 C 70.1768 -3.54926 2.41508 0
M  V30 709 C 69.4098 -4.83888 2.2514 0
M  V30 710 O 69.6328 -5.56592 1.24746 0
M  V30 711 O 68.5668 -5.13612 3.13826 0
M  V30 712 H 72.3928 -1.92452 2.34938 0
M  V30 713 H 69.9778 -0.894981 1.19626 0
M  V30 714 H 71.8598 -4.05739 1.13814 0
M  V30 715 H 70.5348 -3.2249 0.279592 0
M  V30 716 H 69.4418 -2.74112 2.54585 0
M  V30 717 H 70.7748 -3.61983 3.3351 0
M  V30 718 N 72.4269 -1.23603 -0.977757 0
M  V30 719 C 73.6729 -1.07129 -1.72195 0
M  V30 720 C 74.0059 0.390501 -1.90233 0
M  V30 721 O 73.2809 1.28902 -1.45653 0
M  V30 722 C 73.5639 -1.80031 -3.11867 0
M  V30 723 C 73.4169 -3.33899 -3.01383 0
M  V30 724 C 74.7359 -1.56492 -4.11337 0
M  V30 725 H 71.8549 -0.390571 -0.624999 0
M  V30 726 H 74.4969 -1.52142 -1.13811 0
M  V30 727 H 72.6469 -1.41768 -3.6171 0
M  V30 728 H 74.3189 -3.81699 -2.59043 0
M  V30 729 H 72.5619 -3.62796 -2.37827 0
M  V30 730 H 73.2329 -3.801 -4.00285 0
M  V30 731 H 75.7089 -1.89757 -3.70313 0
M  V30 732 H 74.5849 -2.09973 -5.07151 0
M  V30 733 H 74.8459 -0.500874 -4.39254 0
M  V30 734 N 73.905 1.17692 -1.04816 0
M  V30 735 C 74.815 2.25229 -0.65643 0
M  V30 736 C 75.831 1.71018 0.320761 0
M  V30 737 O 77.007 2.00649 0.173805 0
M  V30 738 C 74.072 3.46684 -0.0332629 0
M  V30 739 C 73.133 4.15997 -1.06042 0
M  V30 740 C 72.366 5.31654 -0.466893 0
M  V30 741 O 72.589 5.65777 0.724758 0
M  V30 742 O 71.523 5.89831 -1.1993 0
M  V30 743 H 75.349 2.61016 -1.55255 0
M  V30 744 H 72.934 1.24919 -0.81949 0
M  V30 745 H 74.816 4.20234 0.313256 0
M  V30 746 H 73.491 3.12703 0.836566 0
M  V30 747 H 72.398 3.44482 -1.45886 0
M  V30 748 H 73.731 4.53996 -1.90127 0
M  V30 749 N 75.3831 0.828654 1.34056 0
M  V30 750 C 76.3311 0.242973 2.31327 0
M  V30 751 C 77.3251 -0.61944 1.57668 0
M  V30 752 O 78.5311 -0.51014 1.7262 0
M  V30 753 H 74.9061 0.059834 0.749616 0
M  V30 754 H 76.8771 1.07809 2.78244 0
M  V30 755 C 75.6261 -0.575733 3.429 0
M  V30 756 H 74.9491 0.0785582 3.99723 0
M  V30 757 H 76.3891 -0.951547 4.13185 0
M  V30 758 C 74.8481 -1.75044 2.87856 0
M  V30 759 O 75.3781 -2.84882 2.83205 0
M  V30 760 N 73.5841 -1.56903 2.44602 0
M  V30 761 H 73.1311 -0.675547 2.48584 0
M  V30 762 H 73.0891 -2.35652 2.08124 0
M  V30 763 N 76.8612 -1.46375 0.584142 0
M  V30 764 C 78.1072 -2.03248 0.0787103 0
M  V30 765 C 78.4622 -1.44737 -1.26763 0
M  V30 766 O 77.7552 -0.603625 -1.81843 0
M  V30 767 C 77.9492 -3.57373 -0.0439342 0
M  V30 768 C 77.7782 -4.30831 1.28897 0
M  V30 769 C 76.5482 -4.69683 1.8635 0
M  V30 770 C 78.7462 -4.64278 2.21248 0
M  V30 771 N 76.7282 -5.27898 3.13365 0
M  V30 772 C 78.0992 -5.23078 3.32851 0
M  V30 773 C 80.1542 -4.46209 2.20911 0
M  V30 774 C 78.8572 -5.65715 4.44251 0
M  V30 775 C 80.8832 -4.89864 3.31341 0
M  V30 776 C 80.2452 -5.48736 4.41665 0
M  V30 777 H 76.3442 -0.778714 0.0716144 0
M  V30 778 H 78.9282 -1.78509 0.777355 0
M  V30 779 H 77.0992 -3.81823 -0.711749 0
M  V30 780 H 78.8312 -4.00892 -0.553881 0
M  V30 781 H 75.5862 -4.52488 1.39826 0
M  V30 782 H 76.0102 -5.61525 3.78178 0
M  V30 783 H 80.6522 -4.00027 1.36888 0
M  V30 784 H 78.3702 -6.10875 5.29015 0
M  V30 785 H 81.9562 -4.77634 3.322 0
M  V30 786 H 80.8362 -5.81898 5.25704 0
M  V30 787 N 78.3393 -0.321999 -1.54275 0
M  V30 788 C 79.7503 0.166384 -1.85957 0
M  V30 789 C 80.1013 1.51747 -1.24367 0
M  V30 790 O 79.2263 2.09317 -0.549124 0
M  V30 791 C 79.8213 0.308681 -3.37391 0
M  V30 792 C 78.3803 0.741286 -3.69028 0
M  V30 793 C 77.5273 -0.137937 -2.76957 0
M  V30 794 H 80.4783 -0.542335 -1.49146 0
M  V30 795 H 80.4993 1.13984 -3.63026 0
M  V30 796 H 80.0113 -0.674809 -3.82188 0
M  V30 797 H 78.1123 1.73458 -3.29762 0
M  V30 798 H 78.2253 0.546118 -4.75977 0
M  V30 799 H 76.5893 0.386251 -2.51754 0
M  V30 800 H 77.3723 -1.11816 -3.2458 0
M  V30 801 N 79.8174 1.5752 -0.0501392 0
M  V30 802 C 81.0654 1.9227 0.622642 0
M  V30 803 C 81.3864 0.929083 1.71444 0
M  V30 804 O 80.6564 -0.0262186 1.95882 0
M  V30 805 H 79.2364 0.709739 0.232981 0
M  V30 806 H 81.8984 1.94628 -0.102898 0
M  V30 807 H 80.9944 2.93479 1.06191 0
M  V30 808 N 81.2955 -0.223234 1.56011 0
M  V30 809 C 82.5725 -0.972108 1.69733 0
M  V30 810 C 82.9525 -2.02485 0.59691 0
M  V30 811 O 82.3005 -2.25037 -0.396324 0
M  V30 812 C 82.5105 -1.58407 3.10979 0
M  V30 813 C 83.8585 -2.07696 3.70334 0
M  V30 814 O 84.8825 -1.68304 3.1393 0
M  V30 815 O 83.7415 -2.80096 4.69264 0
M  V30 816 H 80.8355 -0.453993 0.691245 0
M  V30 817 H 83.3815 -0.215149 1.68331 0
M  V30 818 H 82.1535 -0.823831 3.82529 0
M  V30 819 H 81.7765 -2.40661 3.16493 0
M  V30 820 N 82.7736 -1.49793 -0.48987 0
M  V30 821 C 84.1846 -1.52914 -1.07118 0
M  V30 822 C 84.5356 -0.321738 -1.93544 0
M  V30 823 O 83.6606 0.567338 -2.08831 0
M  V30 824 C 84.2556 -2.771 -1.94938 0
M  V30 825 C 82.8146 -2.82963 -2.48212 0
M  V30 826 C 81.9616 -2.46972 -1.26096 0
M  V30 827 H 84.9126 -1.56329 -0.273289 0
M  V30 828 H 84.9336 -2.57892 -2.79771 0
M  V30 829 H 84.4456 -3.64959 -1.32009 0
M  V30 830 H 82.5466 -1.99411 -3.14748 0
M  V30 831 H 82.6596 -3.85406 -2.84603 0
M  V30 832 H 81.0236 -1.98994 -1.58976 0
M  V30 833 H 81.8066 -3.37118 -0.648581 0
M  V30 834 N 84.2517 0.741722 -1.39055 0
M  V30 835 C 85.1997 1.87702 -1.3737 0
M  V30 836 C 86.1937 1.67427 -0.257812 0
M  V30 837 O 87.3997 1.7485 -0.427489 0
M  V30 838 H 83.7747 0.617757 -0.428812 0
M  V30 839 H 85.7457 1.86239 -2.33147 0
M  V30 840 C 84.4947 3.25315 -1.22741 0
M  V30 841 H 83.8177 3.41509 -2.07873 0
M  V30 842 H 85.2577 4.04964 -1.25618 0
M  V30 843 C 83.7167 3.36838 0.0647316 0
M  V30 844 O 84.2467 3.88073 1.03741 0
M  V30 845 N 82.4527 2.90329 0.125544 0
M  V30 846 H 81.9997 2.48823 -0.666682 0
M  V30 847 H 81.9577 2.98418 0.989639 0
M  V30 848 N 85.7298 1.2412 0.971189 0
M  V30 849 C 87.0068 0.986867 1.6888 0
M  V30 850 C 87.3868 -0.491857 2.0529 0
M  V30 851 O 86.7348 -1.46531 1.75331 0
M  V30 852 C 86.9448 1.9063 2.92338 0
M  V30 853 C 88.2928 2.17515 3.64654 0
M  V30 854 O 89.3168 1.88254 3.02388 0
M  V30 855 O 88.1758 2.6719 4.7673 0
M  V30 856 H 85.2698 0.372944 0.738134 0
M  V30 857 H 87.8158 1.35203 1.02559 0
M  V30 858 H 86.5878 2.90552 2.62097 0
M  V30 859 H 86.2108 1.54408 3.66393 0
M  V30 860 N 87.2079 -1.17134 1.05439 0
M  V30 861 C 88.1379 -2.2342 0.678649 0
M  V30 862 C 89.1189 -1.66971 -0.32476 0
M  V30 863 O 90.3039 -1.93149 -0.201802 0
M  V30 864 C 87.4339 -3.47256 0.0552099 0
M  V30 865 C 86.3879 -4.16543 0.98365 0
M  V30 866 C 85.7139 -5.34231 0.223961 0
M  V30 867 C 87.0139 -4.68495 2.3089 0
M  V30 868 H 88.7079 -2.55105 1.56722 0
M  V30 869 H 86.2539 -1.2262 0.754998 0
M  V30 870 H 88.2069 -4.20828 -0.21946 0
M  V30 871 H 86.9309 -3.14846 -0.868319 0
M  V30 872 H 85.5899 -3.44887 1.24293 0
M  V30 873 H 85.2379 -4.98071 -0.702412 0
M  V30 874 H 84.9379 -5.81527 0.842627 0
M  V30 875 H 86.4619 -6.10585 -0.0433671 0
M  V30 876 H 87.8759 -5.33691 2.09396 0
M  V30 877 H 86.2729 -5.26379 2.88176 0
M  V30 878 H 87.3429 -3.85169 2.94572 0
M  V30 879 N 88.686 -0.835752 -1.33615 0
M  V30 880 C 89.914 -0.443344 -2.02094 0
M  V30 881 C 90.329 0.954522 -1.62894 0
M  V30 882 O 89.686 1.61982 -0.840723 0
M  V30 883 C 89.737 -0.550775 -3.5728 0
M  V30 884 O 89.458 -1.89356 -3.95065 0
M  V30 885 C 90.959 -0.154919 -4.43029 0
M  V30 886 H 88.179 -0.176359 -0.647409 0
M  V30 887 H 90.723 -1.12746 -1.70612 0
M  V30 888 H 88.878 0.0853997 -3.87306 0
M  V30 889 H 89.292 -1.87687 -4.89769 0
M  V30 890 H 90.766 -0.281144 -5.51284 0
M  V30 891 H 91.243 0.902863 -4.2982 0
M  V30 892 H 91.849 -0.765404 -4.18356 0
M  V30 893 N 90.1641 1.46063 -0.591896 0
M  V30 894 C 91.4121 2.01938 -0.0808391 0
M  V30 895 C 91.7331 1.46475 1.28725 0
M  V30 896 O 91.0031 0.652944 1.84698 0
M  V30 897 H 89.5831 0.746516 -0.0268938 0
M  V30 898 H 92.2451 1.79055 -0.769752 0
M  V30 899 H 91.3411 3.12094 -0.0187578 0
M  V30 900 N 91.6422 0.330177 1.54103 0
M  V30 901 C 93.0532 -0.15652 1.86043 0
M  V30 902 C 93.4042 -1.51086 1.2517 0
M  V30 903 O 92.5292 -2.09023 0.560217 0
M  V30 904 C 93.1242 -0.290784 3.3755 0
M  V30 905 C 91.6832 -0.721705 3.69416 0
M  V30 906 C 90.8302 0.152622 2.7688 0
M  V30 907 H 93.7812 0.550237 1.48856 0
M  V30 908 H 93.8022 -1.12058 3.63625 0
M  V30 909 H 93.3142 0.695068 3.81825 0
M  V30 910 H 91.4152 -1.71706 3.30678 0
M  V30 911 H 91.5282 -0.520869 4.7626 0
M  V30 912 H 89.8922 -0.372894 2.51956 0
M  V30 913 H 90.6752 1.13536 3.23982 0
M  V30 914 N 93.1203 -1.57491 0.0584922 0
M  V30 915 C 94.0503 -2.14988 -0.911178 0
M  V30 916 C 95.0313 -1.07343 -1.31952 0
M  V30 917 O 96.2163 -1.35318 -1.39294 0
M  V30 918 C 93.3463 -2.70078 -2.18347 0
M  V30 919 C 92.3003 -3.82771 -1.91495 0
M  V30 920 C 91.6263 -4.24408 -3.25241 0
M  V30 921 C 92.9263 -5.07592 -1.23075 0
M  V30 922 H 94.6203 -2.96263 -0.432246 0
M  V30 923 H 92.1663 -1.42512 -0.206469 0
M  V30 924 H 94.1193 -3.08943 -2.86587 0
M  V30 925 H 92.8433 -1.86005 -2.68458 0
M  V30 926 H 91.5023 -3.44389 -1.25664 0
M  V30 927 H 91.1503 -3.37275 -3.73168 0
M  V30 928 H 90.8503 -5.00366 -3.08071 0
M  V30 929 H 92.3743 -4.65879 -3.94701 0
M  V30 930 H 93.7883 -5.43857 -1.81362 0
M  V30 931 H 92.1853 -5.88741 -1.16207 0
M  V30 932 H 93.2553 -4.84454 -0.207847 0
M  V30 933 N 94.5984 0.214957 -1.56127 0
M  V30 934 C 95.5284 1.2695 -1.95974 0
M  V30 935 C 96.5094 1.48539 -0.828868 0
M  V30 936 O 97.6944 1.60611 -1.09168 0
M  V30 937 C 94.8244 2.61794 -2.28214 0
M  V30 938 C 93.7784 2.54851 -3.43853 0
M  V30 939 C 93.1044 3.93785 -3.61715 0
M  V30 940 C 94.4044 2.09065 -4.78632 0
M  V30 941 H 96.0984 0.93846 -2.84312 0
M  V30 942 H 93.6444 0.449996 -1.36788 0
M  V30 943 H 95.5974 3.35731 -2.54682 0
M  V30 944 H 94.3214 2.96599 -1.36736 0
M  V30 945 H 92.9804 1.8337 -3.17444 0
M  V30 946 H 92.6284 4.25908 -2.67602 0
M  V30 947 H 92.3284 3.90019 -4.39498 0
M  V30 948 H 93.8524 4.69374 -3.90539 0
M  V30 949 H 95.2664 2.7275 -5.04262 0
M  V30 950 H 93.6634 2.16346 -5.59745 0
M  V30 951 H 94.7334 1.04315 -4.73547 0
M  V30 952 N 96.0765 1.50051 0.48192 0
M  V30 953 C 97.0095 1.62749 1.59963 0
M  V30 954 C 97.9875 0.475903 1.5548 0
M  V30 955 O 99.1715 0.693986 1.7526 0
M  V30 956 C 96.2985 1.60008 2.98522 0
M  V30 957 C 95.3445 2.80596 3.21198 0
M  V30 958 S 96.1775 4.42038 3.02262 0
M  V30 959 C 97.3335 4.41973 4.43182 0
M  V30 960 H 97.5665 2.57296 1.4895 0
M  V30 961 H 95.0995 1.39179 0.668477 0
M  V30 962 H 97.0575 1.59112 3.78409 0
M  V30 963 H 95.7185 0.667153 3.06933 0
M  V30 964 H 94.9115 2.74952 4.22395 0
M  V30 965 H 94.5135 2.79003 2.49065 0
M  V30 966 H 96.8055 4.14868 5.35622 0
M  V30 967 H 97.7485 5.43512 4.53873 0
M  V30 968 H 98.1565 3.71812 4.24755 0
M  V30 969 N 97.5546 -0.734337 1.39446 0
M  V30 970 C 98.4646 -1.87879 1.40495 0
M  V30 971 C 99.4806 -1.714 0.299672 0
M  V30 972 O 100.657 -1.93991 0.541249 0
M  V30 973 C 97.7216 -3.23477 1.24754 0
M  V30 974 C 96.7826 -3.52344 2.45259 0
M  V30 975 C 96.0156 -4.81473 2.30259 0
M  V30 976 O 96.2386 -5.55237 1.30643 0
M  V30 977 O 95.1726 -5.10254 3.19256 0
M  V30 978 H 98.9986 -1.89949 2.36966 0
M  V30 979 H 96.5836 -0.882243 1.20569 0
M  V30 980 H 98.4656 -4.04509 1.18111 0
M  V30 981 H 97.1406 -3.22176 0.313781 0
M  V30 982 H 96.0476 -2.71396 2.57478 0
M  V30 983 H 97.3806 -3.58426 3.37331 0
M  V30 984 N 99.0327 -1.24633 -0.964593 0
M  V30 985 C 100.449 -1.01239 -1.2338 0
M  V30 986 C 100.649 0.2769 -1.99588 0
M  V30 987 O 99.7047 0.992241 -2.32187 0
M  V30 988 C 101.018 -2.22937 -2.01791 0
M  V30 989 C 102.566 -2.27594 -2.14872 0
M  V30 990 C 103.041 -3.48921 -2.96678 0
M  V30 991 N 104.532 -3.49257 -3.04259 0
M  V30 992 C 105.267 -4.39795 -3.67924 0
M  V30 993 N 104.763 -5.40591 -4.33281 0
M  V30 994 N 106.556 -4.275 -3.64966 0
M  V30 995 H 98.7067 -2.0748 -0.454502 0
M  V30 996 H 100.97 -0.910647 -0.26349 0
M  V30 997 H 100.676 -3.16587 -1.53184 0
M  V30 998 H 100.55 -2.25306 -3.02518 0
M  V30 999 H 102.937 -1.34473 -2.6268 0
M  V30 1000 H 103.018 -2.2925 -1.13482 0
M  V30 1001 H 102.662 -4.42359 -2.49562 0
M  V30 1002 H 102.592 -3.4451 -3.98272 0
M  V30 1003 H 105.083 -2.76337 -2.57771 0
M  V30 1004 H 105.396 -6.05904 -4.79687 0
M  V30 1005 H 103.741 -5.44475 -4.3194 0
M  V30 1006 H 106.932 -3.47987 -3.13086 0
M  V30 1007 H 107.105 -4.98258 -4.14298 0
M  V30 1008 N 100.511 1.16574 -1.06058 0
M  V30 1009 C 101.444 2.19798 -0.61352 0
M  V30 1010 C 102.422 1.58509 0.362453 0
M  V30 1011 O 103.606 1.86527 0.271994 0
M  V30 1012 C 100.733 3.3855 0.100915 0
M  V30 1013 C 99.7788 4.18317 -0.831438 0
M  V30 1014 S 100.612 4.82375 -2.32539 0
M  V30 1015 C 101.768 6.04508 -1.62238 0
M  V30 1016 H 102.001 2.5738 -1.48805 0
M  V30 1017 H 99.5338 1.27327 -0.873338 0
M  V30 1018 H 101.492 4.07358 0.506898 0
M  V30 1019 H 100.153 2.99338 0.951604 0
M  V30 1020 H 99.3458 5.03232 -0.278071 0
M  V30 1021 H 98.9478 3.5499 -1.17719 0
M  V30 1022 H 101.24 6.71133 -0.926622 0
M  V30 1023 H 102.183 6.64389 -2.44934 0
M  V30 1024 H 102.591 5.53559 -1.106 0
M  V30 1025 N 101.989 0.842826 1.3317 0
M  V30 1026 C 102.939 0.250877 2.26616 0
M  V30 1027 C 103.923 -0.596427 1.49437 0
M  V30 1028 O 105.115 -0.447747 1.71243 0
M  V30 1029 C 102.244 -0.569779 3.38539 0
M  V30 1030 C 101.33 0.289254 4.23112 0
M  V30 1031 N 101.721 1.36987 4.86897 0
M  V30 1032 C 100.019 0.0769631 4.45934 0
M  V30 1033 C 100.72 1.89737 5.49886 0
M  V30 1034 N 99.6959 1.19827 5.30229 0
M  V30 1035 H 103.498 1.07718 2.73448 0
M  V30 1036 H 101.012 0.687693 1.47121 0
M  V30 1037 H 103.009 -1.01018 4.04476 0
M  V30 1038 H 101.669 -1.39401 2.93253 0
M  V30 1039 H 102.68 1.75277 4.87338 0
M  V30 1040 H 99.3569 -0.713507 4.11358 0
M  V30 1041 H 100.747 2.80253 6.10662 0
M  V30 1042 N 103.467 -1.45747 0.599634 0
M  V30 1043 C 104.377 -2.34262 -0.125888 0
M  V30 1044 C 105.393 -1.50768 -0.868625 0
M  V30 1045 O 106.569 -1.83592 -0.828003 0
M  V30 1046 C 103.634 -3.28252 -1.11587 0
M  V30 1047 C 102.695 -4.27651 -0.375956 0
M  V30 1048 C 101.928 -5.1715 -1.31877 0
M  V30 1049 O 102.151 -5.09916 -2.55621 0
M  V30 1050 O 101.085 -5.96286 -0.820157 0
M  V30 1051 H 104.911 -2.97688 0.601315 0
M  V30 1052 H 102.496 -1.44999 0.359934 0
M  V30 1053 H 104.378 -3.86191 -1.68626 0
M  V30 1054 H 103.053 -2.67401 -1.82424 0
M  V30 1055 H 101.96 -3.7335 0.236698 0
M  V30 1056 H 103.293 -4.91334 0.29177 0
M  V30 1057 N 104.945 -0.338344 -1.53925 0
M  V30 1058 C 105.895 0.536712 -2.21593 0
M  V30 1059 C 106.879 1.07015 -1.20153 0
M  V30 1060 O 108.071 1.00471 -1.45721 0
M  V30 1061 C 105.2 1.68977 -2.98834 0
M  V30 1062 C 104.286 1.17052 -4.07627 0
M  V30 1063 N 104.677 0.372085 -5.0443 0
M  V30 1064 C 102.975 1.44789 -4.21844 0
M  V30 1065 C 103.676 0.0909171 -5.81629 0
M  V30 1066 N 102.652 0.681131 -5.39316 0
M  V30 1067 H 106.454 -0.0804298 -2.9379 0
M  V30 1068 H 103.968 -0.144943 -1.61752 0
M  V30 1069 H 105.965 2.32857 -3.45808 0
M  V30 1070 H 104.625 2.31024 -2.28162 0
M  V30 1071 H 105.636 0.0136217 -5.17898 0
M  V30 1072 H 102.313 2.07313 -3.62391 0
M  V30 1073 H 103.703 -0.552817 -6.69622 0
M  V30 1074 N 106.423 1.57458 -0.0668435 0
M  V30 1075 C 107.386 2.11323 0.887422 0
M  V30 1076 C 108.386 1.03618 1.22964 0
M  V30 1077 O 109.576 1.29626 1.16373 0
M  V30 1078 C 106.708 2.61048 2.19242 0
M  V30 1079 H 107.901 2.96942 0.420194 0
M  V30 1080 H 105.454 1.55239 0.181793 0
M  V30 1081 H 106.189 1.78868 2.70512 0
M  V30 1082 H 105.974 3.39769 1.95702 0
M  V30 1083 H 107.464 3.02814 2.87565 0
M  V30 1084 N 107.901 -0.206675 1.56239 0
M  V30 1085 C 109.129 -0.945345 1.8404 0
M  V30 1086 C 109.544 -1.77336 0.647885 0
M  V30 1087 O 108.901 -1.78425 -0.383511 0
M  V30 1088 C 108.952 -1.8509 3.10522 0
M  V30 1089 O 108.673 -1.05634 4.25174 0
M  V30 1090 C 110.174 -2.70222 3.51418 0
M  V30 1091 H 107.394 -0.276372 0.61144 0
M  V30 1092 H 109.938 -0.217417 2.03341 0
M  V30 1093 H 108.093 -2.53259 2.93153 0
M  V30 1094 H 108.507 -1.67238 4.97124 0
M  V30 1095 H 109.981 -3.29438 4.42916 0
M  V30 1096 H 110.458 -3.43358 2.73864 0
M  V30 1097 H 111.064 -2.07443 3.71278 0
M  V30 1098 N 109.379 -1.50304 -0.473955 0
M  V30 1099 C 110.326 -1.68959 -1.57231 0
M  V30 1100 C 111.296 -0.530899 -1.57387 0
M  V30 1101 O 112.481 -0.761133 -1.74961 0
M  V30 1102 C 109.621 -1.7871 -2.95223 0
M  V30 1103 C 108.734 -3.06061 -3.04878 0
M  V30 1104 C 107.869 -3.06626 -4.33767 0
M  V30 1105 C 106.908 -4.28443 -4.37154 0
M  V30 1106 N 106.045 -4.26763 -5.5751 0
M  V30 1107 H 110.885 -2.6273 -1.40631 0
M  V30 1108 H 108.422 -1.30241 -0.683789 0
M  V30 1109 H 110.38 -1.82344 -3.75242 0
M  V30 1110 H 109.01 -0.883806 -3.10465 0
M  V30 1111 H 108.062 -3.11911 -2.17751 0
M  V30 1112 H 109.374 -3.96039 -3.0324 0
M  V30 1113 H 108.528 -3.08973 -5.22131 0
M  V30 1114 H 107.267 -2.14473 -4.3801 0
M  V30 1115 H 106.272 -4.2631 -3.47188 0
M  V30 1116 H 107.497 -5.2182 -4.34605 0
M  V30 1117 H 105.443 -3.37462 -5.62544 0
M  V30 1118 H 105.36 -5.10507 -5.57601 0
M  V30 1119 H 106.628 -4.33253 -6.48006 0
M  V30 1120 N 110.857 0.726932 -1.39834 0
M  V30 1121 C 112.104 1.48664 -1.37496 0
M  V30 1122 C 112.432 1.94482 0.0264678 0
M  V30 1123 O 111.687 1.67692 1.00886 0
M  V30 1124 C 111.986 2.73495 -2.30077 0
M  V30 1125 C 111.652 2.46502 -3.77555 0
M  V30 1126 C 110.314 2.3885 -4.17737 0
M  V30 1127 C 112.666 2.23604 -4.70798 0
M  V30 1128 C 109.994 2.06352 -5.49214 0
M  V30 1129 C 112.346 1.92622 -6.02561 0
M  V30 1130 C 111.01 1.83444 -6.41798 0
M  V30 1131 H 110.28 0.544001 -0.503135 0
M  V30 1132 H 112.927 0.833657 -1.72402 0
M  V30 1133 H 111.232 3.43575 -1.88317 0
M  V30 1134 H 112.929 3.31549 -2.25558 0
M  V30 1135 H 109.519 2.5334 -3.45712 0
M  V30 1136 H 113.703 2.28479 -4.40581 0
M  V30 1137 H 108.959 1.97776 -5.78528 0
M  V30 1138 H 113.133 1.73914 -6.74334 0
M  V30 1139 H 110.76 1.58029 -7.43593 0
M  V30 1140 N 112.336 1.25143 0.95797 0
M  V30 1141 C 113.246 1.06968 2.08794 0
M  V30 1142 C 114.262 0.00773911 1.73998 0
M  V30 1143 O 115.438 0.207972 2.00323 0
M  V30 1144 C 112.503 0.68691 3.39827 0
M  V30 1145 C 111.564 1.82641 3.88511 0
M  V30 1146 C 110.797 1.46181 5.1329 0
M  V30 1147 O 111.02 0.355971 5.69288 0
M  V30 1148 O 109.954 2.29085 5.566 0
M  V30 1149 H 113.78 2.01723 2.27027 0
M  V30 1150 H 111.365 1.04051 1.07209 0
M  V30 1151 H 113.247 0.485417 4.18595 0
M  V30 1152 H 111.922 -0.231417 3.22872 0
M  V30 1153 H 110.829 2.08274 3.10762 0
M  V30 1154 H 112.162 2.72386 4.09959 0
M  V30 1155 N 113.814 -1.1601 1.06675 0
M  V30 1156 C 115.042 -1.90527 0.806667 0
M  V30 1157 C 115.457 -1.77643 -0.639396 0
M  V30 1158 O 114.814 -1.12369 -1.43803 0
M  V30 1159 C 114.865 -3.41106 1.19705 0
M  V30 1160 O 114.586 -3.53608 2.58636 0
M  V30 1161 C 116.087 -4.32663 0.965266 0
M  V30 1162 H 113.307 -0.604053 0.292166 0
M  V30 1163 H 115.851 -1.47026 1.4214 0
M  V30 1164 H 114.006 -3.82296 0.626774 0
M  V30 1165 H 114.42 -4.47011 2.74375 0
M  V30 1166 H 115.894 -5.36763 1.288 0
M  V30 1167 H 116.371 -4.39089 -0.0987936 0
M  V30 1168 H 116.977 -3.97206 1.52011 0
M  V30 1169 N 115.292 -0.849877 -1.32721 0
M  V30 1170 C 116.202 -0.293791 -2.32753 0
M  V30 1171 C 117.218 0.585906 -1.63839 0
M  V30 1172 O 118.394 0.487413 -1.95413 0
M  V30 1173 C 115.459 0.512752 -3.42887 0
M  V30 1174 C 114.52 -0.39252 -4.27502 0
M  V30 1175 C 113.753 0.375625 -5.32377 0
M  V30 1176 O 113.976 1.60613 -5.4732 0
M  V30 1177 O 112.91 -0.256094 -6.01355 0
M  V30 1178 H 116.736 -1.12242 -2.82197 0
M  V30 1179 H 114.321 -0.612685 -1.36259 0
M  V30 1180 H 116.203 0.970704 -4.10067 0
M  V30 1181 H 114.878 1.31826 -2.95641 0
M  V30 1182 H 113.785 -0.898547 -3.63149 0
M  V30 1183 H 115.118 -1.16309 -4.7826 0
M  V30 1184 N 116.77 1.45427 -0.607355 0
M  V30 1185 C 118.019 2.01452 -0.100036 0
M  V30 1186 C 118.332 1.48159 1.27704 0
M  V30 1187 O 119.538 1.96159 1.87707 0
M  V30 1188 C 117.994 3.59672 -0.128158 0
M  V30 1189 C 117.602 4.21962 -1.50507 0
M  V30 1190 C 119.346 4.23262 0.323932 0
M  V30 1191 C 117.253 5.72333 -1.48959 0
M  V30 1192 H 116.183 0.75325 -0.0336299 0
M  V30 1193 H 118.834 1.66901 -0.76265 0
M  V30 1194 H 117.216 3.91411 0.601105 0
M  V30 1195 H 118.39 4.01796 -2.25602 0
M  V30 1196 H 116.705 3.70565 -1.89923 0
M  V30 1197 H 119.302 5.33522 0.354691 0
M  V30 1198 H 119.645 3.93921 1.34656 0
M  V30 1199 H 120.178 3.96239 -0.352056 0
M  V30 1200 H 116.917 6.06373 -2.48981 0
M  V30 1201 H 116.437 5.94691 -0.781214 0
M  V30 1202 H 118.116 6.35525 -1.21313 0
M  V30 1203 N 118.248 0.346503 1.53744 0
M  V30 1204 C 119.497 -0.250122 2.00143 0
M  V30 1205 C 119.81 -1.51418 1.23822 0
M  V30 1206 O 121.016 -2.18823 1.60713 0
M  V30 1207 C 119.472 -0.496252 3.56462 0
M  V30 1208 C 119.08 0.752077 4.41642 0
M  V30 1209 C 120.824 -1.05157 4.11269 0
M  V30 1210 C 118.731 0.476583 5.89477 0
M  V30 1211 H 117.661 -0.0972409 0.747703 0
M  V30 1212 H 120.312 0.46229 1.77581 0
M  V30 1213 H 118.694 -1.26944 3.75102 0
M  V30 1214 H 119.868 1.5266 4.34778 0
M  V30 1215 H 118.183 1.22925 3.97842 0
M  V30 1216 H 120.78 -1.27269 5.19333 0
M  V30 1217 H 121.123 -2.00799 3.64672 0
M  V30 1218 H 121.656 -0.339019 3.96353 0
M  V30 1219 H 118.395 1.4028 6.40314 0
M  V30 1220 H 117.915 -0.259794 5.99237 0
M  V30 1221 H 119.594 0.0949315 6.4693 0
M  V30 1222 N 119.726 -1.57421 0.075193 0
M  V30 1223 C 120.973 -1.93618 -0.593146 0
M  V30 1224 C 121.301 -0.955484 -1.69413 0
M  V30 1225 O 120.556 0.0283251 -1.9568 0
M  V30 1226 C 120.855 -3.36428 -1.20626 0
M  V30 1227 C 120.521 -4.50307 -0.231078 0
M  V30 1228 C 119.183 -4.81186 0.0371936 0
M  V30 1229 C 121.535 -5.19374 0.435888 0
M  V30 1230 C 118.863 -5.78466 0.979461 0
M  V30 1231 C 121.215 -6.17665 1.3665 0
M  V30 1232 C 119.879 -6.46958 1.6432 0
M  V30 1233 H 119.149 -0.708499 -0.217047 0
M  V30 1234 H 121.796 -1.90937 0.146793 0
M  V30 1235 H 120.101 -3.35592 -2.02201 0
M  V30 1236 H 121.798 -3.61727 -1.73073 0
M  V30 1237 H 118.388 -4.26227 -0.450357 0
M  V30 1238 H 122.572 -4.95711 0.241748 0
M  V30 1239 H 117.828 -5.99487 1.20106 0
M  V30 1240 H 122.002 -6.70284 1.88924 0
M  V30 1241 H 119.629 -7.2215 2.37494 0
M  V30 1242 N 121.204 0.198386 -1.56346 0
M  V30 1243 C 122.481 0.944982 -1.71258 0
M  V30 1244 C 122.861 2.0151 -0.629048 0
M  V30 1245 O 122.209 2.25639 0.360473 0
M  V30 1246 C 122.419 1.5344 -3.1346 0
M  V30 1247 C 123.767 2.01778 -3.73591 0
M  V30 1248 O 124.791 1.63288 -3.16568 0
M  V30 1249 O 123.65 2.72594 -4.73661 0
M  V30 1250 H 120.744 0.442939 -0.69838 0
M  V30 1251 H 123.29 0.188342 -1.68652 0
M  V30 1252 H 122.062 0.762869 -3.83792 0
M  V30 1253 H 121.685 2.35596 -3.20282 0
M  V30 1254 N 122.682 1.50554 0.465978 0
M  V30 1255 C 123.632 1.66177 1.56106 0
M  V30 1256 C 124.616 0.516265 1.52393 0
M  V30 1257 O 125.808 0.770906 1.5933 0
M  V30 1258 C 122.937 1.76396 2.94515 0
M  V30 1259 C 122.023 2.9664 3.03093 0
M  V30 1260 N 122.414 4.20245 2.81474 0
M  V30 1261 C 120.712 2.95304 3.34233 0
M  V30 1262 C 121.413 5.01259 2.95151 0
M  V30 1263 N 120.389 4.35318 3.25576 0
M  V30 1264 H 124.191 2.59434 1.38099 0
M  V30 1265 H 121.705 1.47808 0.6728 0
M  V30 1266 H 123.702 1.85694 3.73261 0
M  V30 1267 H 122.362 0.843017 3.13565 0
M  V30 1268 H 123.373 4.4966 2.56956 0
M  V30 1269 H 120.05 2.12729 3.59239 0
M  V30 1270 H 121.44 6.09564 2.82632 0
M  V30 1271 N 124.16 -0.719506 1.40217 0
M  V30 1272 C 125.409 -1.47486 1.37589 0
M  V30 1273 C 125.722 -1.9559 -0.0201568 0
M  V30 1274 O 126.928 -2.70973 -0.169049 0
M  V30 1275 C 125.384 -2.66575 2.41796 0
M  V30 1276 C 124.992 -2.25358 3.87192 0
M  V30 1277 C 126.736 -3.4433 2.48269 0
M  V30 1278 C 124.643 -3.41262 4.83005 0
M  V30 1279 H 123.573 -0.553901 0.511576 0
M  V30 1280 H 126.224 -0.783427 1.65936 0
M  V30 1281 H 124.606 -3.3787 2.06543 0
M  V30 1282 H 125.78 -1.61509 4.31569 0
M  V30 1283 H 124.095 -1.60657 3.84159 0
M  V30 1284 H 126.692 -4.30569 3.17041 0
M  V30 1285 H 127.035 -3.87872 1.51198 0
M  V30 1286 H 127.568 -2.80076 2.82493 0
M  V30 1287 H 124.307 -3.02755 5.81394 0
M  V30 1288 H 123.827 -4.0404 4.43297 0
M  V30 1289 H 125.506 -4.07383 5.02641 0
M  V30 1290 N 125.638 -1.25649 -0.95132 0
M  V30 1291 C 126.586 -1.06118 -2.06982 0
M  V30 1292 C 127.58 0.00889169 -1.69398 0
M  V30 1293 O 128.786 -0.146988 -1.79399 0
M  V30 1294 H 125.161 -0.326248 -0.677544 0
M  V30 1295 H 127.132 -2.00932 -2.2061 0
M  V30 1296 C 125.881 -0.700145 -3.40578 0
M  V30 1297 H 125.204 -1.51537 -3.69968 0
M  V30 1298 H 126.644 -0.603211 -4.19687 0
M  V30 1299 C 125.103 0.59403 -3.31622 0
M  V30 1300 O 125.633 1.63522 -3.66911 0
M  V30 1301 N 123.839 0.58089 -2.84735 0
M  V30 1302 H 123.386 -0.266783 -2.56215 0
M  V30 1303 H 123.344 1.44695 -2.79125 0
M  V30 1304 N 127.117 1.15442 -1.07289 0
M  V30 1305 C 128.064 2.20161 -0.692653 0
M  V30 1306 C 129.034 1.63073 0.31564 0
M  V30 1307 O 130.219 1.89725 0.202235 0
M  V30 1308 C 127.359 3.44967 -0.0959509 0
M  V30 1309 C 126.472 4.16256 -1.15564 0
M  V30 1310 C 125.607 5.28609 -0.524011 0
M  V30 1311 C 124.646 5.91715 -1.56653 0
M  V30 1312 N 123.783 6.9554 -0.957531 0
M  V30 1313 H 128.623 2.52037 -1.59002 0
M  V30 1314 H 126.16 1.2378 -0.794798 0
M  V30 1315 H 128.118 4.16341 0.267628 0
M  V30 1316 H 126.748 3.1361 0.764772 0
M  V30 1317 H 125.8 3.43385 -1.6368 0
M  V30 1318 H 127.112 4.59268 -1.94613 0
M  V30 1319 H 126.266 6.06604 -0.108032 0
M  V30 1320 H 125.005 4.86787 0.29825 0
M  V30 1321 H 124.01 5.12433 -1.9923 0
M  V30 1322 H 125.235 6.35614 -2.39107 0
M  V30 1323 H 123.181 6.55814 -0.156162 0
M  V30 1324 H 123.098 7.36977 -1.68526 0
M  V30 1325 H 124.366 7.77435 -0.567032 0
M  V30 1326 N 128.595 0.856903 1.32268 0
M  V30 1327 C 129.841 0.462069 1.97466 0
M  V30 1328 C 130.174 -0.980298 1.67642 0
M  V30 1329 O 129.449 -1.68824 0.965858 0
M  V30 1330 C 129.732 0.704336 3.53145 0
M  V30 1331 C 129.585 2.19529 3.9259 0
M  V30 1332 C 130.904 0.1622 4.39801 0
M  V30 1333 H 128.023 0.169357 0.717278 0
M  V30 1334 H 130.665 1.07574 1.56614 0
M  V30 1335 H 128.815 0.181999 3.88073 0
M  V30 1336 H 130.487 2.78387 3.67829 0
M  V30 1337 H 128.73 2.67292 3.41668 0
M  V30 1338 H 129.401 2.31549 5.01088 0
M  V30 1339 H 131.877 0.608905 4.11621 0
M  V30 1340 H 130.753 0.361265 5.4771 0
M  V30 1341 H 131.014 -0.935158 4.32096 0
M  V30 1342 N 130.073 -1.45103 0.615059 0
M  V30 1343 C 131.35 -1.95549 0.0448276 0
M  V30 1344 C 131.73 -1.55737 -1.4251 0
M  V30 1345 O 131.078 -0.823556 -2.13143 0
M  V30 1346 C 131.288 -3.48098 0.250785 0
M  V30 1347 C 132.636 -4.24384 0.135509 0
M  V30 1348 O 133.66 -3.55738 0.181299 0
M  V30 1349 O 132.519 -5.46493 0.0268878 0
M  V30 1350 H 129.613 -0.8264 -0.0314845 0
M  V30 1351 H 132.159 -1.55232 0.685642 0
M  V30 1352 H 130.931 -3.7007 1.27139 0
M  V30 1353 H 130.554 -3.95323 -0.424937 0
M  V30 1354 N 131.551 -0.354651 -1.53558 0
M  V30 1355 C 132.481 0.489091 -2.2832 0
M  V30 1356 C 133.462 1.09324 -1.30316 0
M  V30 1357 O 134.647 1.11255 -1.59173 0
M  V30 1358 C 131.777 1.63456 -3.0643 0
M  V30 1359 C 130.731 1.1582 -4.12031 0
M  V30 1360 C 130.057 2.39305 -4.7816 0
M  V30 1361 C 131.357 0.250731 -5.21698 0
M  V30 1362 H 133.051 -0.134614 -2.99097 0
M  V30 1363 H 130.597 -0.0661826 -1.43848 0
M  V30 1364 H 132.55 2.23136 -3.57475 0
M  V30 1365 H 131.274 2.28533 -2.33325 0
M  V30 1366 H 129.933 0.584146 -3.61916 0
M  V30 1367 H 129.581 3.02814 -4.01637 0
M  V30 1368 H 129.281 2.08109 -5.49513 0
M  V30 1369 H 130.805 2.99691 -5.31994 0
M  V30 1370 H 132.219 0.754695 -5.68311 0
M  V30 1371 H 130.616 0.0301468 -6.00092 0
M  V30 1372 H 131.686 -0.710125 -4.79672 0
M  V30 1373 N 133.029 1.57378 -0.0835403 0
M  V30 1374 C 133.961 2.10389 0.909338 0
M  V30 1375 C 134.974 1.03858 1.25369 0
M  V30 1376 O 136.163 1.31338 1.20882 0
M  V30 1377 C 133.263 2.55908 2.2218 0
M  V30 1378 C 132.436 3.86145 2.05453 0
M  V30 1379 C 131.495 4.17633 3.20108 0
M  V30 1380 O 130.521 4.87043 2.94581 0
M  V30 1381 N 131.723 3.72113 4.45547 0
M  V30 1382 H 134.488 2.962 0.456657 0
M  V30 1383 H 132.049 1.61579 0.101877 0
M  V30 1384 H 134.041 2.74027 2.97811 0
M  V30 1385 H 132.611 1.75171 2.58909 0
M  V30 1386 H 131.831 3.7729 1.1422 0
M  V30 1387 H 133.119 4.7137 1.91541 0
M  V30 1388 H 132.517 3.16062 4.69171 0
M  V30 1389 H 131.074 3.95409 5.18165 0
M  V30 1390 N 134.507 -0.190092 1.56449 0
M  V30 1391 C 135.455 -1.25501 1.95837 0
M  V30 1392 C 136.449 -1.4685 0.844485 0
M  V30 1393 O 137.655 -1.47651 1.02952 0
M  V30 1394 H 134.03 -0.421447 0.622805 0
M  V30 1395 H 136.001 -0.895821 2.84636 0
M  V30 1396 C 134.75 -2.59124 2.31841 0
M  V30 1397 H 134.073 -2.43514 3.17082 0
M  V30 1398 H 135.513 -3.32371 2.6326 0
M  V30 1399 C 133.972 -3.16488 1.15486 0
M  V30 1400 O 134.502 -3.99365 0.432535 0
M  V30 1401 N 132.708 -2.75305 0.930349 0
M  V30 1402 H 132.255 -2.08013 1.51948 0
M  V30 1403 H 132.213 -3.14024 0.153634 0
M  V30 1404 N 135.985 -1.50799 -0.457987 0
M  V30 1405 C 137.401 -1.38515 -0.792819 0
M  V30 1406 C 137.601 -0.451409 -1.96379 0
M  V30 1407 O 136.657 0.10112 -2.52297 0
M  V30 1408 C 137.97 -2.80149 -1.09258 0
M  V30 1409 C 139.518 -2.89156 -1.19825 0
M  V30 1410 C 139.993 -4.31651 -1.53106 0
M  V30 1411 N 141.484 -4.34662 -1.60072 0
M  V30 1412 C 142.219 -5.41928 -1.87354 0
M  V30 1413 N 141.715 -6.59384 -2.12568 0
M  V30 1414 N 143.508 -5.29385 -1.88965 0
M  V30 1415 H 135.659 -2.10073 0.313511 0
M  V30 1416 H 137.922 -0.944803 0.0777862 0
M  V30 1417 H 137.628 -3.50374 -0.305084 0
M  V30 1418 H 137.502 -3.18204 -2.02549 0
M  V30 1419 H 139.889 -2.19141 -1.97639 0
M  V30 1420 H 139.97 -2.54626 -0.244821 0
M  V30 1421 H 139.614 -5.02208 -0.758266 0
M  V30 1422 H 139.544 -4.63678 -2.49621 0
M  V30 1423 H 142.035 -3.49973 -1.42573 0
M  V30 1424 H 142.348 -7.36934 -2.32696 0
M  V30 1425 H 140.693 -6.62535 -2.09933 0
M  V30 1426 H 143.884 -4.36616 -1.68772 0
M  V30 1427 H 144.057 -6.13066 -2.09891 0
M  V30 1428 N 137.463 0.71206 -1.40597 0
M  V30 1429 C 138.874 1.29135 -1.34837 0
M  V30 1430 C 139.225 1.96186 -0.0235395 0
M  V30 1431 O 138.35 1.97768 0.878444 0
M  V30 1432 C 138.945 2.34827 -2.44217 0
M  V30 1433 C 137.504 2.88371 -2.41907 0
M  V30 1434 C 136.651 1.62202 -2.24913 0
M  V30 1435 H 139.602 0.507944 -1.50352 0
M  V30 1436 H 139.623 3.15749 -2.12327 0
M  V30 1437 H 139.135 1.85996 -3.40627 0
M  V30 1438 H 137.236 3.41422 -1.49204 0
M  V30 1439 H 137.349 3.39925 -3.37621 0
M  V30 1440 H 135.713 1.874 -1.72492 0
M  V30 1441 H 136.496 1.15391 -3.23326 0
M  V30 1442 N 138.941 1.26152 0.944643 0
M  V30 1443 C 140.188 1.11492 1.69044 0
M  V30 1444 C 140.516 -0.342366 1.91463 0
M  V30 1445 O 139.771 -1.26812 1.49054 0
M  V30 1446 C 140.07 1.82541 3.07268 0
M  V30 1447 C 139.736 3.32445 3.04616 0
M  V30 1448 C 138.398 3.73337 3.036 0
M  V30 1449 C 140.75 4.28171 2.97185 0
M  V30 1450 C 138.078 5.08348 2.92915 0
M  V30 1451 C 140.43 5.63218 2.88041 0
M  V30 1452 C 139.094 6.03426 2.85366 0
M  V30 1453 H 138.364 0.407977 0.618576 0
M  V30 1454 H 141.011 1.56551 1.10291 0
M  V30 1455 H 139.316 1.29941 3.69625 0
M  V30 1456 H 141.013 1.68642 3.63815 0
M  V30 1457 H 137.603 2.99915 3.06185 0
M  V30 1458 H 141.787 3.97563 2.97081 0
M  V30 1459 H 137.043 5.38667 2.89219 0
M  V30 1460 H 141.217 6.37078 2.81254 0
M  V30 1461 H 138.844 7.07999 2.76842 0
M  V30 1462 N 140.419 -1.14872 1.07899 0
M  V30 1463 C 141.835 -1.37776 0.805606 0
M  V30 1464 C 142.035 -1.92743 -0.587555 0
M  V30 1465 O 141.091 -2.13678 -1.34528 0
M  V30 1466 C 142.404 -2.34361 1.88402 0
M  V30 1467 C 143.952 -2.48012 1.90942 0
M  V30 1468 C 144.427 -3.47893 2.97883 0
M  V30 1469 N 145.918 -3.55433 2.97021 0
M  V30 1470 C 146.653 -4.32553 3.76412 0
M  V30 1471 N 146.149 -5.12959 4.65666 0
M  V30 1472 N 147.942 -4.27697 3.64735 0
M  V30 1473 H 140.093 -0.775365 1.97742 0
M  V30 1474 H 142.356 -0.403521 0.857831 0
M  V30 1475 H 142.062 -2.01098 2.88535 0
M  V30 1476 H 141.936 -3.34206 1.74889 0
M  V30 1477 H 144.323 -2.8057 0.914579 0
M  V30 1478 H 144.404 -1.48147 2.08534 0
M  V30 1479 H 144.048 -3.16069 3.97571 0
M  V30 1480 H 143.978 -4.47527 2.77538 0
M  V30 1481 H 146.469 -2.98048 2.32326 0
M  V30 1482 H 146.782 -5.69065 5.22862 0
M  V30 1483 H 145.127 -5.12245 4.69712 0
M  V30 1484 H 148.318 -3.63949 2.94378 0
M  V30 1485 H 148.491 -4.8755 4.26848 0
M  V30 1486 N 141.898 -0.863906 -1.31812 0
M  V30 1487 C 142.828 -0.330843 -2.31144 0
M  V30 1488 C 143.809 0.575005 -1.60087 0
M  V30 1489 O 144.994 0.493304 -1.8783 0
M  V30 1490 C 142.124 0.47374 -3.44054 0
M  V30 1491 C 141.078 -0.338481 -4.26659 0
M  V30 1492 C 140.404 0.591412 -5.31419 0
M  V30 1493 C 141.704 -1.56926 -4.98168 0
M  V30 1494 H 143.398 -1.16086 -2.75979 0
M  V30 1495 H 140.944 -0.559657 -1.32679 0
M  V30 1496 H 142.897 0.857143 -4.12591 0
M  V30 1497 H 141.621 1.33721 -2.9797 0
M  V30 1498 H 140.28 -0.703754 -3.59782 0
M  V30 1499 H 139.928 1.45199 -4.81587 0
M  V30 1500 H 139.628 0.0519022 -5.87577 0
M  V30 1501 H 141.152 0.97179 -6.02817 0
M  V30 1502 H 142.566 -1.25764 -5.59336 0
M  V30 1503 H 140.963 -2.04739 -5.64094 0
M  V30 1504 H 142.033 -2.32544 -4.25501 0
M  V30 1505 N 143.376 1.44774 -0.622745 0
M  V30 1506 C 144.324 2.32387 0.0994683 0
M  V30 1507 C 145.318 1.46859 0.844326 0
M  V30 1508 O 146.524 1.63254 0.758174 0
M  V30 1509 H 142.899 0.750273 0.0509291 0
M  V30 1510 H 144.87 2.91062 -0.65767 0
M  V30 1511 C 143.619 3.30723 1.07319 0
M  V30 1512 H 142.942 3.96541 0.509462 0
M  V30 1513 H 144.382 3.94725 1.54817 0
M  V30 1514 C 142.841 2.59021 2.15429 0
M  V30 1515 O 143.371 2.38286 3.23393 0
M  V30 1516 N 141.577 2.189 1.91131 0
M  V30 1517 H 141.124 2.35964 1.03337 0
M  V30 1518 H 141.082 1.71251 2.63668 0
M  V30 1519 N 144.854 0.36279 1.53368 0
M  V30 1520 C 146.102 -0.227326 2.00817 0
M  V30 1521 C 146.423 -1.49511 1.25186 0
M  V30 1522 O 145.693 -1.92482 0.364348 0
M  V30 1523 H 144.273 -0.0869923 0.741917 0
M  V30 1524 H 146.935 0.488381 1.88682 0
M  V30 1525 H 146.031 -0.456273 3.08747 0
M  V30 1526 N 146.332 -1.57332 0.0918853 0
M  V30 1527 C 147.609 -1.85691 -0.614668 0
M  V30 1528 C 147.989 -0.988146 -1.86545 0
M  V30 1529 O 147.337 -0.0597055 -2.28422 0
M  V30 1530 C 147.547 -3.36294 -0.933126 0
M  V30 1531 C 148.895 -4.04275 -1.29796 0
M  V30 1532 O 149.919 -3.41157 -1.02424 0
M  V30 1533 O 148.778 -5.1564 -1.81047 0
M  V30 1534 H 145.872 -0.767802 -0.307261 0
M  V30 1535 H 148.418 -1.69244 0.12434 0
M  V30 1536 H 147.19 -3.91273 -0.0456404 0
M  V30 1537 H 146.813 -3.58076 -1.72822 0
M  V30 1538 N 147.81 0.181792 -1.56548 0
M  V30 1539 C 148.758 1.24461 -1.965 0
M  V30 1540 C 149.752 1.464 -0.852261 0
M  V30 1541 O 150.958 1.47103 -1.03733 0
M  V30 1542 H 147.333 0.418138 -0.625031 0
M  V30 1543 H 149.304 0.880714 -2.85107 0
M  V30 1544 C 148.053 2.57891 -2.33212 0
M  V30 1545 H 147.376 2.41829 -3.18369 0
M  V30 1546 H 148.816 3.3097 -2.65019 0
M  V30 1547 C 147.275 3.15871 -1.17163 0
M  V30 1548 O 147.805 3.9913 -0.453708 0
M  V30 1549 N 146.011 2.74808 -0.944936 0
M  V30 1550 H 145.558 2.07205 -1.53049 0
M  V30 1551 H 145.516 3.13939 -0.170286 0
M  V30 1552 N 149.288 1.51039 0.449983 0
M  V30 1553 C 150.536 1.62759 1.19808 0
M  V30 1554 C 150.857 0.339981 1.92013 0
M  V30 1555 O 150.127 -0.643606 1.85026 0
M  V30 1556 H 148.707 0.599811 0.445237 0
M  V30 1557 H 151.369 1.87914 0.517138 0
M  V30 1558 H 150.465 2.44911 1.93455 0
M  V30 1559 N 150.766 -0.704594 1.40972 0
M  V30 1560 C 151.676 -1.84856 1.44448 0
M  V30 1561 C 152.692 -1.70726 0.335961 0
M  V30 1562 O 153.868 -1.92799 0.582276 0
M  V30 1563 C 150.933 -3.20758 1.31587 0
M  V30 1564 C 149.994 -3.47063 2.52677 0
M  V30 1565 C 149.227 -4.76481 2.4042 0
M  V30 1566 O 149.45 -5.52341 1.42391 0
M  V30 1567 O 148.384 -5.03367 3.30007 0
M  V30 1568 H 152.21 -1.8488 2.40942 0
M  V30 1569 H 149.795 -0.85647 1.22413 0
M  V30 1570 H 151.677 -4.01913 1.26665 0
M  V30 1571 H 150.352 -3.21438 0.382049 0
M  V30 1572 H 149.259 -2.65873 2.63177 0
M  V30 1573 H 150.592 -3.5119 3.44858 0
M  V30 1574 N 152.244 -1.26651 -0.937939 0
M  V30 1575 C 153.474 -1.15006 -1.71631 0
M  V30 1576 C 153.882 0.297026 -1.86854 0
M  V30 1577 O 153.225 1.21493 -1.37786 0
M  V30 1578 C 153.287 -1.74984 -3.14039 0
M  V30 1579 C 152.951 -3.24103 -3.2219 0
M  V30 1580 C 153.948 -4.20877 -3.05219 0
M  V30 1581 C 151.633 -3.64625 -3.45476 0
M  V30 1582 C 153.627 -5.56151 -3.11408 0
M  V30 1583 C 151.314 -5.00032 -3.513 0
M  V30 1584 C 152.312 -5.95604 -3.34282 0
M  V30 1585 O 152 -7.28545 -3.3982 0
M  V30 1586 H 151.732 -0.401183 -0.544085 0
M  V30 1587 H 154.286 -1.67832 -1.18413 0
M  V30 1588 H 152.516 -1.16624 -3.68695 0
M  V30 1589 H 154.205 -1.58199 -3.73802 0
M  V30 1590 H 154.971 -3.90908 -2.87081 0
M  V30 1591 H 150.85 -2.90718 -3.57777 0
M  V30 1592 H 154.394 -6.30727 -2.98043 0
M  V30 1593 H 150.291 -5.29659 -3.68959 0
M  V30 1594 H 151.059 -7.3686 -3.56343 0
M  V30 1595 N 153.722 1.14298 -1.08507 0
M  V30 1596 C 154.95 1.89219 -0.836876 0
M  V30 1597 C 155.365 1.78638 0.611054 0
M  V30 1598 O 154.722 1.14643 1.41998 0
M  V30 1599 C 154.773 3.39158 -1.25116 0
M  V30 1600 O 154.494 3.49449 -2.64229 0
M  V30 1601 C 155.995 4.31073 -1.03398 0
M  V30 1602 H 153.215 0.599328 -0.301739 0
M  V30 1603 H 155.759 1.44746 -1.44461 0
M  V30 1604 H 153.914 3.81251 -0.687514 0
M  V30 1605 H 154.328 4.42589 -2.81452 0
M  V30 1606 H 155.802 5.34646 -1.37323 0
M  V30 1607 H 156.279 4.3919 0.0289259 0
M  V30 1608 H 156.885 3.94738 -1.58311 0
M  V30 1609 N 155.201 0.870884 1.31352 0
M  V30 1610 C 156.441 0.488783 1.9847 0
M  V30 1611 C 156.805 -0.941536 1.67329 0
M  V30 1612 O 158.006 -1.42903 2.27667 0
M  V30 1613 C 156.277 0.739688 3.49662 0
M  V30 1614 S 157.836 0.457582 4.36408 0
M  V30 1615 H 154.654 0.18242 0.6872 0
M  V30 1616 H 157.256 1.12711 1.59739 0
M  V30 1617 H 155.96 1.77944 3.69816 0
M  V30 1618 H 155.491 0.0883905 3.93301 0
M  V30 1619 H 157.506 -0.709752 4.91098 0
M  V30 1620 N 156.679 -1.44442 0.630414 0
M  V30 1621 C 157.956 -1.9549 0.0655657 0
M  V30 1622 C 158.336 -1.5724 -1.40851 0
M  V30 1623 O 157.684 -0.846116 -2.12257 0
M  V30 1624 C 157.894 -3.47812 0.287691 0
M  V30 1625 C 159.242 -4.24216 0.180513 0
M  V30 1626 O 160.266 -3.55526 0.219019 0
M  V30 1627 O 159.125 -5.46434 0.0848493 0
M  V30 1628 H 156.219 -0.826688 -0.0227177 0
M  V30 1629 H 158.765 -1.54496 0.702068 0
M  V30 1630 H 157.537 -3.687 1.31056 0
M  V30 1631 H 157.16 -3.95751 -0.382984 0
M  V30 1632 N 158.157 -0.370918 -1.53173 0
M  V30 1633 C 159.12 0.460778 -2.24521 0
M  V30 1634 C 160.12 1.00536 -1.25496 0
M  V30 1635 O 161.31 0.890266 -1.49733 0
M  V30 1636 C 158.442 1.64457 -2.98608 0
M  V30 1637 H 159.635 -0.163613 -2.99453 0
M  V30 1638 H 157.188 -0.122699 -1.55818 0
M  V30 1639 H 157.923 2.30691 -2.2793 0
M  V30 1640 H 157.708 1.26099 -3.7127 0
M  V30 1641 H 159.198 2.23384 -3.5283 0
M  V30 1642 N 159.635 1.57281 -0.100228 0
M  V30 1643 C 160.565 2.17328 0.853857 0
M  V30 1644 C 161.546 1.10804 1.2906 0
M  V30 1645 O 162.731 1.38963 1.35657 0
M  V30 1646 C 159.861 2.75772 2.11109 0
M  V30 1647 C 158.815 3.87713 1.81279 0
M  V30 1648 C 158.141 4.32882 3.13874 0
M  V30 1649 C 159.441 5.10677 1.09574 0
M  V30 1650 H 161.135 2.97305 0.353545 0
M  V30 1651 H 158.681 1.43009 0.168612 0
M  V30 1652 H 160.634 3.16433 2.78296 0
M  V30 1653 H 159.358 1.93057 2.63432 0
M  V30 1654 H 158.017 3.476 1.16489 0
M  V30 1655 H 157.665 3.47051 3.64095 0
M  V30 1656 H 157.365 5.08358 2.94696 0
M  V30 1657 H 158.889 4.7618 3.82211 0
M  V30 1658 H 160.303 5.48474 1.66879 0
M  V30 1659 H 158.7 5.91615 1.00557 0
M  V30 1660 H 159.77 4.84835 0.0793299 0
M  V30 1661 N 161.113 -0.173488 1.56642 0
M  V30 1662 C 162.362 -0.888758 1.81063 0
M  V30 1663 C 162.675 -1.83506 0.67712 0
M  V30 1664 O 163.881 -2.59254 0.806206 0
M  V30 1665 C 162.337 -1.63091 3.20826 0
M  V30 1666 C 161.945 -0.728357 4.4204 0
M  V30 1667 C 163.689 -2.33454 3.54541 0
M  V30 1668 C 161.596 -1.47062 5.72823 0
M  V30 1669 H 160.526 -0.335618 0.675186 0
M  V30 1670 H 163.177 -0.141712 1.82952 0
M  V30 1671 H 161.559 -2.42263 3.13248 0
M  V30 1672 H 162.733 0.0262449 4.60793 0
M  V30 1673 H 161.048 -0.134492 4.16183 0
M  V30 1674 H 163.645 -2.89578 4.49498 0
M  V30 1675 H 163.988 -3.08687 2.79317 0
M  V30 1676 H 164.521 -1.61227 3.63663 0
M  V30 1677 H 161.26 -0.760658 6.51072 0
M  V30 1678 H 160.78 -2.1986 5.58052 0
M  V30 1679 H 162.459 -2.01868 6.14702 0
M  V30 1680 N 162.591 -1.51276 -0.441967 0
M  V30 1681 C 163.84 -1.6295 -1.18871 0
M  V30 1682 C 164.153 -0.349312 -1.92456 0
M  V30 1683 O 165.359 -0.345355 -2.69295 0
M  V30 1684 C 163.815 -2.87759 -2.16155 0
M  V30 1685 C 163.423 -4.22764 -1.48239 0
M  V30 1686 C 165.167 -3.08788 -2.91291 0
M  V30 1687 C 163.074 -5.38728 -2.4398 0
M  V30 1688 H 162.004 -0.606913 -0.447406 0
M  V30 1689 H 164.655 -1.77739 -0.456205 0
M  V30 1690 H 163.037 -2.66593 -2.92821 0
M  V30 1691 H 164.211 -4.54293 -0.771635 0
M  V30 1692 H 162.526 -4.07575 -0.852741 0
M  V30 1693 H 165.123 -3.92599 -3.63002 0
M  V30 1694 H 165.466 -2.21679 -3.5237 0
M  V30 1695 H 165.999 -3.30272 -2.21733 0
M  V30 1696 H 162.738 -6.28082 -1.87598 0
M  V30 1697 H 162.258 -5.1158 -3.13123 0
M  V30 1698 H 163.937 -5.70489 -3.05207 0
M  V30 1699 N 164.069 0.697108 -1.41344 0
M  V30 1700 C 165.032 1.79281 -1.42797 0
M  V30 1701 C 166.032 1.57607 -0.318837 0
M  V30 1702 O 167.222 1.64309 -0.578642 0
M  V30 1703 C 164.354 3.17632 -1.23785 0
M  V30 1704 H 165.547 1.79385 -2.40335 0
M  V30 1705 H 163.1 0.904582 -1.27464 0
M  V30 1706 H 163.835 3.23167 -0.270814 0
M  V30 1707 H 163.62 3.34765 -2.04144 0
M  V30 1708 H 165.11 3.97617 -1.27633 0
M  V30 1709 N 165.547 1.27147 0.931209 0
M  V30 1710 C 166.775 1.16082 1.71267 0
M  V30 1711 C 167.19 -0.282772 1.8667 0
M  V30 1712 O 166.547 -1.19283 1.38122 0
M  V30 1713 C 166.598 1.8358 3.11417 0
M  V30 1714 O 166.319 3.22299 2.96741 0
M  V30 1715 C 167.82 1.78597 4.05732 0
M  V30 1716 H 165.04 0.403758 0.535929 0
M  V30 1717 H 167.584 1.67953 1.16671 0
M  V30 1718 H 165.739 1.35623 3.62885 0
M  V30 1719 H 166.153 3.55851 3.85319 0
M  V30 1720 H 167.627 2.30444 5.01597 0
M  V30 1721 H 168.104 0.754564 4.3267 0
M  V30 1722 H 168.71 2.26152 3.60188 0
M  V30 1723 N 167.025 -1.13721 1.09112 0
M  V30 1724 C 168.273 -1.84559 0.823562 0
M  V30 1725 C 168.594 -1.83754 -0.652658 0
M  V30 1726 O 167.864 -1.29102 -1.47342 0
M  V30 1727 H 166.444 -0.683376 0.301673 0
M  V30 1728 H 169.106 -1.37771 1.37859 0
M  V30 1729 H 168.202 -2.8917 1.17419 0
M  V30 1730 N 168.503 -0.877838 -1.30888 0
M  V30 1731 C 169.466 -0.344265 -2.266 0
M  V30 1732 C 170.466 0.50922 -1.52524 0
M  V30 1733 O 171.656 0.317398 -1.71284 0
M  V30 1734 C 168.788 0.510198 -3.37061 0
M  V30 1735 H 169.981 -1.1893 -2.7531 0
M  V30 1736 H 167.534 -0.654088 -1.41956 0
M  V30 1737 H 168.269 1.37612 -2.93655 0
M  V30 1738 H 168.054 -0.101047 -3.9197 0
M  V30 1739 H 169.544 0.875537 -4.08319 0
M  V30 1740 N 169.982 1.44106 -0.638065 0
M  V30 1741 C 171.207 2.0685 -0.150916 0
M  V30 1742 C 171.632 1.47417 1.16833 0
M  V30 1743 O 170.99 0.578264 1.71831 0
M  V30 1744 C 171.038 3.60555 -0.05708 0
M  V30 1745 O 170.142 4.00465 0.984972 0
M  V30 1746 H 169.483 0.658151 -0.0879399 0
M  V30 1747 H 172.013 1.84865 -0.876707 0
M  V30 1748 H 172.023 4.07789 0.131232 0
M  V30 1749 H 170.698 4.03193 -1.02021 0
M  V30 1750 H 169.275 3.64849 0.770672 0
M  V30 1751 N 171.46 0.379036 1.52974 0
M  V30 1752 C 172.423 -0.448865 2.24762 0
M  V30 1753 C 173.423 -0.998689 1.26027 0
M  V30 1754 O 174.613 -0.882313 1.50203 0
M  V30 1755 C 171.745 -1.62872 2.99476 0
M  V30 1756 H 172.938 0.179491 2.99362 0
M  V30 1757 H 170.491 0.13096 1.5575 0
M  V30 1758 H 171.226 -2.29479 2.29151 0
M  V30 1759 H 171.011 -1.24128 3.71934 0
M  V30 1760 H 172.501 -2.2151 3.5401 0
M  V30 1761 N 172.938 -1.57226 0.108567 0
M  V30 1762 C 174.354 -1.5766 -0.248058 0
M  V30 1763 C 174.554 -1.12063 -1.67464 0
M  V30 1764 O 173.61 -0.803236 -2.39383 0
M  V30 1765 C 174.923 -3.0069 -0.0242287 0
M  V30 1766 C 176.471 -3.12868 -0.0909372 0
M  V30 1767 C 176.946 -4.57879 0.105067 0
M  V30 1768 N 178.437 -4.63172 0.0506846 0
M  V30 1769 C 179.172 -5.73126 0.177396 0
M  V30 1770 N 178.668 -6.91866 0.359696 0
M  V30 1771 N 180.461 -5.61977 0.117709 0
M  V30 1772 H 172.612 -1.85169 1.04049 0
M  V30 1773 H 174.875 -0.85529 0.40888 0
M  V30 1774 H 174.581 -3.38299 0.961604 0
M  V30 1775 H 174.455 -3.6945 -0.76068 0
M  V30 1776 H 176.842 -2.75124 -1.06729 0
M  V30 1777 H 176.923 -2.46672 0.677225 0
M  V30 1778 H 176.567 -4.96321 1.07834 0
M  V30 1779 H 176.497 -5.22153 -0.682954 0
M  V30 1780 H 178.988 -3.778 -0.0871266 0
M  V30 1781 H 179.301 -7.71503 0.447529 0
M  V30 1782 H 177.646 -6.93874 0.395536 0
M  V30 1783 H 180.837 -4.68094 -0.0236741 0
M  V30 1784 H 181.01 -6.47627 0.219905 0
M  V30 1785 N 174.416 0.165178 -1.56732 0
M  V30 1786 C 175.646 0.894919 -1.86212 0
M  V30 1787 C 176.054 1.76066 -0.692627 0
M  V30 1788 O 175.397 1.80387 0.347303 0
M  V30 1789 C 175.459 1.8174 -3.10179 0
M  V30 1790 C 175.123 1.13064 -4.42793 0
M  V30 1791 C 176.12 0.493169 -5.17556 0
M  V30 1792 C 173.805 1.12556 -4.89527 0
M  V30 1793 C 175.799 -0.140209 -6.37246 0
M  V30 1794 C 173.486 0.488366 -6.09145 0
M  V30 1795 C 174.484 -0.143411 -6.82849 0
M  V30 1796 O 174.172 -0.77055 -8.00199 0
M  V30 1797 H 173.904 0.265114 -0.621844 0
M  V30 1798 H 176.458 0.168242 -2.0471 0
M  V30 1799 H 174.688 2.58455 -2.87642 0
M  V30 1800 H 176.377 2.4175 -3.26055 0
M  V30 1801 H 177.143 0.489023 -4.82528 0
M  V30 1802 H 173.022 1.60672 -4.32094 0
M  V30 1803 H 176.566 -0.633932 -6.94714 0
M  V30 1804 H 172.463 0.490116 -6.43637 0
M  V30 1805 H 173.231 -0.670408 -8.1575 0
M  V30 1806 N 175.894 1.51508 0.433938 0
M  V30 1807 C 176.824 1.76016 1.53429 0
M  V30 1808 C 177.805 0.610112 1.58782 0
M  V30 1809 O 178.99 0.853177 1.74455 0
M  V30 1810 C 176.12 1.88831 2.9148 0
M  V30 1811 C 175.074 3.04288 3.00987 0
M  V30 1812 C 174.4 3.0229 4.4105 0
M  V30 1813 C 175.7 4.44193 2.74754 0
M  V30 1814 H 177.394 2.68152 1.33171 0
M  V30 1815 H 174.94 1.29035 0.639214 0
M  V30 1816 H 176.893 2.04559 3.6842 0
M  V30 1817 H 175.617 0.933455 3.12976 0
M  V30 1818 H 174.276 2.8827 2.26486 0
M  V30 1819 H 173.924 2.04576 4.59519 0
M  V30 1820 H 173.624 3.79822 4.4834 0
M  V30 1821 H 175.148 3.20116 5.1996 0
M  V30 1822 H 176.562 4.60544 3.41426 0
M  V30 1823 H 174.959 5.23457 2.9345 0
M  V30 1824 H 176.029 4.53996 1.70339 0
M  V30 1825 N 177.372 -0.689602 1.41712 0
M  V30 1826 C 178.62 -1.4468 1.4111 0
M  V30 1827 C 178.941 -1.94986 0.0232196 0
M  V30 1828 O 178.211 -1.72097 -0.935913 0
M  V30 1829 H 176.791 -0.536847 0.519427 0
M  V30 1830 H 179.453 -0.815825 1.77004 0
M  V30 1831 H 178.549 -2.30706 2.10193 0
M  V30 1832 N 178.85 -1.27639 -0.924453 0
M  V30 1833 C 179.78 -1.13166 -2.04244 0
M  V30 1834 C 180.761 -0.032256 -1.70069 0
M  V30 1835 O 181.946 -0.207328 -1.9309 0
M  V30 1836 C 179.076 -0.781496 -3.38393 0
M  V30 1837 C 178.03 -1.83449 -3.86692 0
M  V30 1838 C 177.356 -1.33822 -5.17683 0
M  V30 1839 C 178.656 -3.23917 -4.09726 0
M  V30 1840 H 180.35 -2.06689 -2.1661 0
M  V30 1841 H 177.896 -0.995136 -1.04082 0
M  V30 1842 H 179.849 -0.667057 -4.16087 0
M  V30 1843 H 178.573 0.189439 -3.2605 0
M  V30 1844 H 177.232 -1.93789 -3.11193 0
M  V30 1845 H 176.88 -0.35665 -5.01734 0
M  V30 1846 H 176.58 -2.04224 -5.50968 0
M  V30 1847 H 178.104 -1.23679 -5.97943 0
M  V30 1848 H 179.518 -3.16559 -4.77978 0
M  V30 1849 H 177.915 -3.92059 -4.54324 0
M  V30 1850 H 178.985 -3.68729 -3.14908 0
M  V30 1851 N 180.328 1.1314 -1.09713 0
M  V30 1852 C 181.739 1.66029 -0.853885 0
M  V30 1853 C 182.09 1.86241 0.617142 0
M  V30 1854 O 181.215 1.5834 1.47503 0
M  V30 1855 C 181.81 3.01599 -1.5435 0
M  V30 1856 C 180.369 3.51467 -1.34714 0
M  V30 1857 C 179.516 2.26648 -1.59769 0
M  V30 1858 H 182.467 0.970226 -1.25588 0
M  V30 1859 H 182.488 3.67709 -0.978267 0
M  V30 1860 H 182 2.86856 -2.6141 0
M  V30 1861 H 180.101 3.71408 -0.297838 0
M  V30 1862 H 180.214 4.314 -2.08401 0
M  V30 1863 H 178.578 2.33385 -1.01998 0
M  V30 1864 H 179.361 2.14467 -2.68065 0
M  V30 1865 N 181.806 0.884767 1.30421 0
M  V30 1866 C 183.031 0.517288 2.00845 0
M  V30 1867 C 183.456 -0.886779 1.65885 0
M  V30 1868 O 182.814 -1.58768 0.875354 0
M  V30 1869 C 182.862 0.698994 3.5376 0
M  V30 1870 O 181.966 -0.255208 4.1161 0
M  V30 1871 H 181.307 0.203872 0.631927 0
M  V30 1872 H 183.837 1.19225 1.66272 0
M  V30 1873 H 183.847 0.597912 4.03595 0
M  V30 1874 H 182.522 1.72271 3.78544 0
M  V30 1875 H 181.099 -0.10784 3.72744 0
M  V30 1876 N 183.284 -1.43765 0.645699 0
M  V30 1877 C 184.194 -2.34544 -0.0512957 0
M  V30 1878 C 185.21 -1.53455 -0.82022 0
M  V30 1879 O 186.386 -1.86133 -0.769176 0
M  V30 1880 C 183.451 -3.31636 -1.01087 0
M  V30 1881 C 182.512 -4.2863 -0.239712 0
M  V30 1882 C 181.745 -5.21084 -1.15358 0
M  V30 1883 O 181.968 -5.1779 -2.39269 0
M  V30 1884 O 180.902 -5.98593 -0.630038 0
M  V30 1885 H 184.728 -2.95624 0.695718 0
M  V30 1886 H 182.313 -1.43781 0.405882 0
M  V30 1887 H 184.195 -3.9136 -1.56254 0
M  V30 1888 H 182.87 -2.73069 -1.73824 0
M  V30 1889 H 181.777 -3.72408 0.355356 0
M  V30 1890 H 183.11 -4.90157 0.447936 0
M  V30 1891 N 184.763 -0.387143 -1.52771 0
M  V30 1892 C 185.673 0.456442 -2.30117 0
M  V30 1893 C 186.689 1.07342 -1.36944 0
M  V30 1894 O 187.865 1.07971 -1.70013 0
M  V30 1895 C 184.93 1.56957 -3.09136 0
M  V30 1896 C 183.991 0.977916 -4.18014 0
M  V30 1897 C 183.224 2.038 -4.93256 0
M  V30 1898 O 183.447 3.25271 -4.68567 0
M  V30 1899 O 182.381 1.6565 -5.78657 0
M  V30 1900 H 186.207 -0.17359 -3.03203 0
M  V30 1901 H 183.792 -0.150919 -1.48636 0
M  V30 1902 H 185.674 2.21628 -3.58412 0
M  V30 1903 H 184.349 2.18461 -2.38865 0
M  V30 1904 H 183.256 0.294525 -3.72939 0
M  V30 1905 H 184.589 0.407128 -4.90513 0
M  V30 1906 N 186.241 1.57166 -0.116904 0
M  V30 1907 C 187.204 2.14039 0.819742 0
M  V30 1908 C 188.204 1.07477 1.19605 0
M  V30 1909 O 189.394 1.33263 1.1219 0
M  V30 1910 C 186.526 2.67891 2.10826 0
M  V30 1911 H 187.719 2.98128 0.325511 0
M  V30 1912 H 185.272 1.55739 0.132312 0
M  V30 1913 H 186.007 1.87384 2.64685 0
M  V30 1914 H 185.792 3.45823 1.84793 0
M  V30 1915 H 187.282 3.11809 2.77785 0
M  V30 1916 N 187.719 -0.156864 1.56817 0
M  V30 1917 C 188.966 -0.871125 1.82805 0
M  V30 1918 C 189.294 -1.81611 0.696262 0
M  V30 1919 O 188.549 -1.93141 -0.315459 0
M  V30 1920 C 188.848 -1.68737 3.1506 0
M  V30 1921 C 188.514 -0.890045 4.42028 0
M  V30 1922 C 187.176 -0.670042 4.76512 0
M  V30 1923 C 189.528 -0.331769 5.20143 0
M  V30 1924 C 186.856 0.119104 5.86579 0
M  V30 1925 C 189.208 0.444365 6.31037 0
M  V30 1926 C 187.872 0.675035 6.64078 0
M  V30 1927 H 187.142 -0.318767 0.668931 0
M  V30 1928 H 189.789 -0.135274 1.91022 0
M  V30 1929 H 188.094 -2.49304 3.0225 0
M  V30 1930 H 189.791 -2.24331 3.3238 0
M  V30 1931 H 186.381 -1.07157 4.14988 0
M  V30 1932 H 190.565 -0.489043 4.93885 0
M  V30 1933 H 185.821 0.307417 6.10627 0
M  V30 1934 H 189.995 0.884139 6.90765 0
M  V30 1935 H 187.622 1.28839 7.49203 0
M  V30 1936 N 189.197 -1.51736 -0.425897 0
M  V30 1937 C 190.144 -1.73875 -1.51776 0
M  V30 1938 C 191.114 -0.580702 -1.55618 0
M  V30 1939 O 192.299 -0.81641 -1.72451 0
M  V30 1940 C 189.439 -1.88012 -2.89388 0
M  V30 1941 C 188.552 -3.15606 -2.94986 0
M  V30 1942 C 187.687 -3.20271 -4.23793 0
M  V30 1943 C 186.726 -4.42134 -4.23302 0
M  V30 1944 N 185.863 -4.44284 -5.43651 0
M  V30 1945 H 190.703 -2.67071 -1.32201 0
M  V30 1946 H 188.24 -1.32351 -0.642008 0
M  V30 1947 H 190.198 -1.9419 -3.69251 0
M  V30 1948 H 188.828 -0.98213 -3.07496 0
M  V30 1949 H 187.88 -3.18681 -2.07717 0
M  V30 1950 H 189.192 -4.05486 -2.90486 0
M  V30 1951 H 188.346 -3.25428 -5.12036 0
M  V30 1952 H 187.085 -2.28299 -4.30965 0
M  V30 1953 H 186.09 -4.3714 -3.3345 0
M  V30 1954 H 187.315 -5.35382 -4.17783 0
M  V30 1955 H 185.261 -3.55188 -5.51523 0
M  V30 1956 H 185.178 -5.27988 -5.41078 0
M  V30 1957 H 186.446 -4.53649 -6.33895 0
M  V30 1958 N 190.675 0.682077 -1.42076 0
M  V30 1959 C 191.923 1.4393 -1.41876 0
M  V30 1960 C 192.244 1.94971 -0.0335599 0
M  V30 1961 O 191.514 1.72591 0.926773 0
M  V30 1962 H 190.094 0.534085 -0.522267 0
M  V30 1963 H 192.756 0.806427 -1.77434 0
M  V30 1964 H 191.852 2.29588 -2.11414 0
M  V30 1965 N 192.153 1.28127 0.917671 0
M  V30 1966 C 193.569 1.05749 1.19538 0
M  V30 1967 C 193.769 -0.202633 2.00479 0
M  V30 1968 O 192.825 -0.905382 2.3571 0
M  V30 1969 C 194.138 2.30273 1.93378 0
M  V30 1970 C 195.686 2.35412 2.06277 0
M  V30 1971 C 196.161 3.59692 2.83524 0
M  V30 1972 N 197.652 3.60309 2.91087 0
M  V30 1973 C 198.387 4.53147 3.51348 0
M  V30 1974 N 197.883 5.563 4.12919 0
M  V30 1975 N 199.676 4.40751 3.48849 0
M  V30 1976 H 191.827 2.09024 0.377184 0
M  V30 1977 H 194.09 0.919798 0.22951 0
M  V30 1978 H 193.796 3.22055 1.41328 0
M  V30 1979 H 193.67 2.36378 2.93947 0
M  V30 1980 H 196.057 1.4413 2.57508 0
M  V30 1981 H 196.138 2.33304 1.04895 0
M  V30 1982 H 195.782 4.51316 2.32973 0
M  V30 1983 H 195.712 3.59054 3.85211 0
M  V30 1984 H 198.203 2.85714 2.47338 0
M  V30 1985 H 198.516 6.2329 4.56869 0
M  V30 1986 H 196.861 5.60131 4.11435 0
M  V30 1987 H 200.052 3.59367 2.99955 0
M  V30 1988 H 200.225 5.13291 3.9552 0
M  V30 1989 N 193.631 -1.12557 1.10312 0
M  V30 1990 C 194.879 -1.83675 0.843091 0
M  V30 1991 C 195.2 -1.84435 -0.633131 0
M  V30 1992 O 194.47 -1.30657 -1.45964 0
M  V30 1993 H 193.05 -0.680138 0.308904 0
M  V30 1994 H 195.712 -1.36301 1.39313 0
M  V30 1995 H 194.808 -2.87908 1.2048 0
M  V30 1996 N 195.109 -0.891671 -1.2995 0
M  V30 1997 C 196.355 -0.514261 -1.96171 0
M  V30 1998 C 196.688 0.935506 -1.70182 0
M  V30 1999 O 195.963 1.66204 -1.01028 0
M  V30 2000 C 196.246 -0.797719 -3.51153 0
M  V30 2001 C 196.099 -2.2986 -3.86632 0
M  V30 2002 C 197.418 -0.278749 -4.39216 0
M  V30 2003 H 194.537 -0.188314 -0.712535 0
M  V30 2004 H 197.179 -1.11689 -1.53706 0
M  V30 2005 H 195.329 -0.284826 -3.87455 0
M  V30 2006 H 197.001 -2.88042 -3.60319 0
M  V30 2007 H 195.244 -2.76257 -3.34462 0
M  V30 2008 H 195.915 -2.44753 -4.94773 0
M  V30 2009 H 198.391 -0.717825 -4.09862 0
M  V30 2010 H 197.267 -0.506353 -5.46559 0
M  V30 2011 H 197.528 0.820266 -4.34424 0
M  V30 2012 N 196.587 1.43421 -0.653314 0
M  V30 2013 C 197.812 2.06678 -0.172846 0
M  V30 2014 C 198.237 1.48648 1.15262 0
M  V30 2015 O 197.595 0.596457 1.71208 0
M  V30 2016 C 197.643 3.60474 -0.0953184 0
M  V30 2017 O 196.747 4.01487 0.942442 0
M  V30 2018 H 196.088 0.657181 -0.0949155 0
M  V30 2019 H 198.618 1.83925 -0.896265 0
M  V30 2020 H 198.628 4.07905 0.0879728 0
M  V30 2021 H 197.303 4.02088 -1.06291 0
M  V30 2022 H 195.88 3.65646 0.731932 0
M  V30 2023 N 198.065 0.39524 1.52563 0
M  V30 2024 C 199.028 -0.425001 2.25225 0
M  V30 2025 C 200.028 -0.985266 1.27079 0
M  V30 2026 O 201.218 -0.866332 1.5113 0
M  V30 2027 C 198.35 -1.59686 3.01186 0
M  V30 2028 H 199.543 0.211233 2.99155 0
M  V30 2029 H 197.096 0.147472 1.55603 0
M  V30 2030 H 197.831 -2.27035 2.31572 0
M  V30 2031 H 197.616 -1.20176 3.73229 0
M  V30 2032 H 199.106 -2.17743 3.5634 0
M  V30 2033 N 199.544 -1.57102 0.125237 0
M  V30 2034 C 200.784 -1.97294 -0.534259 0
M  V30 2035 C 201.148 -1.0074 -1.63449 0
M  V30 2036 O 202.349 -1.29893 -2.35332 0
M  V30 2037 C 200.62 -3.41705 -1.04748 0
M  V30 2038 S 202.179 -4.03913 -1.71463 0
M  V30 2039 H 198.997 -0.689517 -0.173458 0
M  V30 2040 H 201.599 -1.94349 0.211797 0
M  V30 2041 H 200.303 -4.09723 -0.235649 0
M  V30 2042 H 199.834 -3.48315 -1.82867 0
M  V30 2043 H 201.849 -3.95182 -3.00077 0
M  V30 2044 N 201.022 0.148545 -1.56898 0
M  V30 2045 C 201.985 1.16736 -1.97244 0
M  V30 2046 C 202.985 1.35947 -0.858777 0
M  V30 2047 O 204.175 1.32966 -1.12542 0
M  V30 2048 C 201.307 2.52798 -2.28705 0
M  V30 2049 H 202.5 0.821279 -2.88435 0
M  V30 2050 H 200.053 0.391831 -1.51309 0
M  V30 2051 H 200.788 2.92381 -1.403 0
M  V30 2052 H 200.573 2.40216 -3.09901 0
M  V30 2053 H 202.063 3.26179 -2.60762 0
M  V30 2054 N 202.5 1.5196 0.417844 0
M  V30 2055 C 203.728 1.69426 1.18753 0
M  V30 2056 C 204.143 0.399955 1.84515 0
M  V30 2057 O 203.5 -0.623288 1.71527 0
M  V30 2058 C 203.551 2.82375 2.25714 0
M  V30 2059 O 203.272 4.06793 1.62638 0
M  V30 2060 C 204.773 3.11277 3.15628 0
M  V30 2061 H 201.993 0.568031 0.357186 0
M  V30 2062 H 204.537 1.98475 0.49273 0
M  V30 2063 H 202.692 2.5587 2.90877 0
M  V30 2064 H 203.106 4.69667 2.3348 0
M  V30 2065 H 204.58 3.93843 3.86771 0
M  V30 2066 H 205.057 2.24473 3.77503 0
M  V30 2067 H 205.663 3.39515 2.56144 0
M  V30 2068 N 203.978 -0.674533 1.42435 0
M  V30 2069 C 205.218 -1.4466 1.44405 0
M  V30 2070 C 205.582 -1.91911 0.0585784 0
M  V30 2071 O 206.783 -2.68759 -0.0469991 0
M  V30 2072 C 205.054 -2.61136 2.44013 0
M  V30 2073 S 206.613 -3.49981 2.64687 0
M  V30 2074 H 203.431 -0.494074 0.511284 0
M  V30 2075 H 206.033 -0.785162 1.7904 0
M  V30 2076 H 204.737 -2.24662 3.43446 0
M  V30 2077 H 204.268 -3.32153 2.10803 0
M  V30 2078 H 206.283 -4.57124 1.93007 0
M  V30 2079 N 205.456 -1.28612 -0.910864 0
M  V30 2080 C 206.733 -1.06632 -1.63979 0
M  V30 2081 C 207.113 0.393351 -2.07403 0
M  V30 2082 O 206.461 1.37999 -1.82122 0
M  V30 2083 C 206.671 -2.0436 -2.8291 0
M  V30 2084 C 208.019 -2.34666 -3.5386 0
M  V30 2085 O 209.043 -2.02467 -2.93062 0
M  V30 2086 O 207.902 -2.89631 -4.63439 0
M  V30 2087 H 204.996 -0.407737 -0.7195 0
M  V30 2088 H 207.542 -1.39942 -0.959914 0
M  V30 2089 H 206.314 -3.02727 -2.47936 0
M  V30 2090 H 205.937 -1.71714 -3.58609 0
M  V30 2091 N 206.934 1.1197 -1.10907 0
M  V30 2092 C 208.182 1.83225 -0.852819 0
M  V30 2093 C 208.503 1.84769 0.623341 0
M  V30 2094 O 207.773 1.3143 1.45269 0
M  V30 2095 H 206.353 0.67849 -0.312507 0
M  V30 2096 H 209.015 1.3556 -1.40033 0
M  V30 2097 H 208.111 2.87265 -1.22005 0
M  V30 2098 N 208.412 0.89855 1.29475 0
M  V30 2099 C 209.659 0.523882 1.95606 0
M  V30 2100 C 209.987 -0.929608 1.70847 0
M  V30 2101 O 209.242 -1.67401 1.01367 0
M  V30 2102 C 209.541 0.761398 3.49195 0
M  V30 2103 C 209.207 2.19207 3.94029 0
M  V30 2104 C 207.869 2.58326 4.05982 0
M  V30 2105 C 210.221 3.12379 4.17216 0
M  V30 2106 C 207.549 3.898 4.38489 0
M  V30 2107 C 209.901 4.43401 4.51197 0
M  V30 2108 C 208.565 4.82394 4.61359 0
M  V30 2109 H 207.835 0.191702 0.715773 0
M  V30 2110 H 210.482 1.13699 1.54094 0
M  V30 2111 H 208.787 0.0653622 3.91745 0
M  V30 2112 H 210.484 0.450904 3.98457 0
M  V30 2113 H 207.074 1.87846 3.85242 0
M  V30 2114 H 211.258 2.83371 4.07449 0
M  V30 2115 H 206.514 4.19734 4.44559 0
M  V30 2116 H 210.688 5.15623 4.68087 0
M  V30 2117 H 208.315 5.84306 4.86303 0
M  V30 2118 N 209.89 -1.43072 0.660911 0
M  V30 2119 C 211.137 -2.01721 0.177445 0
M  V30 2120 C 211.465 -1.5218 -1.21126 0
M  V30 2121 O 210.72 -0.708659 -1.82419 0
M  V30 2122 C 211.019 -3.57103 0.145563 0
M  V30 2123 C 210.685 -4.26021 1.47705 0
M  V30 2124 C 209.347 -4.44563 1.84165 0
M  V30 2125 C 211.699 -4.64983 2.35458 0
M  V30 2126 C 209.027 -4.99334 3.0803 0
M  V30 2127 C 211.379 -5.21127 3.58622 0
M  V30 2128 C 210.043 -5.37884 3.95268 0
M  V30 2129 H 209.313 -0.73815 0.0649317 0
M  V30 2130 H 211.96 -1.71446 0.853144 0
M  V30 2131 H 210.265 -3.86965 -0.61361 0
M  V30 2132 H 211.962 -4.00248 -0.2455 0
M  V30 2133 H 208.552 -4.11939 1.18339 0
M  V30 2134 H 212.736 -4.50343 2.08579 0
M  V30 2135 H 207.992 -5.10493 3.36462 0
M  V30 2136 H 212.166 -5.50262 4.26831 0
M  V30 2137 H 209.793 -5.80089 4.91325 0
M  V30 2138 N 211.368 -0.403325 -1.52352 0
M  V30 2139 C 212.598 0.17376 -2.05868 0
M  V30 2140 C 213.006 1.39898 -1.27378 0
M  V30 2141 O 212.349 1.80939 -0.31729 0
M  V30 2142 C 212.411 0.594756 -3.54546 0
M  V30 2143 C 212.075 -0.518926 -4.54044 0
M  V30 2144 C 213.072 -1.3807 -5.01231 0
M  V30 2145 C 210.757 -0.689961 -4.97539 0
M  V30 2146 C 212.751 -2.39852 -5.90551 0
M  V30 2147 C 210.438 -1.71109 -5.86656 0
M  V30 2148 C 211.436 -2.56378 -6.33056 0
M  V30 2149 O 211.124 -3.56743 -7.20409 0
M  V30 2150 H 210.856 0.0264951 -0.675481 0
M  V30 2151 H 213.41 -0.571179 -1.97299 0
M  V30 2152 H 211.64 1.39189 -3.60782 0
M  V30 2153 H 213.329 1.0991 -3.90736 0
M  V30 2154 H 214.095 -1.25994 -4.68349 0
M  V30 2155 H 209.974 -0.035939 -4.60986 0
M  V30 2156 H 213.518 -3.06441 -6.26689 0
M  V30 2157 H 209.415 -1.83218 -6.18952 0
M  V30 2158 H 210.183 -3.52918 -7.38506 0
M  V30 2159 N 212.846 1.57033 -0.133567 0
M  V30 2160 C 214.262 1.58035 0.222944 0
M  V30 2161 C 214.462 1.14713 1.6566 0
M  V30 2162 O 213.518 0.841218 2.38075 0
M  V30 2163 C 214.831 3.00691 -0.0236116 0
M  V30 2164 C 216.379 3.12973 0.0411512 0
M  V30 2165 C 216.854 4.57654 -0.177899 0
M  V30 2166 N 218.345 4.63033 -0.124365 0
M  V30 2167 C 219.08 5.72771 -0.268553 0
M  V30 2168 N 218.576 6.91206 -0.46972 0
M  V30 2169 N 220.369 5.61718 -0.2071 0
M  V30 2170 H 212.52 1.8349 -1.06981 0
M  V30 2171 H 214.783 0.848677 -0.422436 0
M  V30 2172 H 214.489 3.36726 -1.0153 0
M  V30 2173 H 214.363 3.70614 0.701808 0
M  V30 2174 H 216.75 2.76787 1.02338 0
M  V30 2175 H 216.831 2.45564 -0.716383 0
M  V30 2176 H 216.475 4.94542 -1.15717 0
M  V30 2177 H 216.405 5.23173 0.599797 0
M  V30 2178 H 218.896 3.7789 0.027011 0
M  V30 2179 H 219.209 7.70693 -0.570212 0
M  V30 2180 H 217.554 6.93156 -0.505876 0
M  V30 2181 H 220.745 4.68072 -0.0507986 0
M  V30 2182 H 220.918 6.47195 -0.322909 0
M  V30 2183 N 214.325 -0.140222 1.56975 0
M  V30 2184 C 215.273 -1.19207 1.99731 0
M  V30 2185 C 216.267 -1.44089 0.890777 0
M  V30 2186 O 217.473 -1.44301 1.07597 0
M  V30 2187 H 213.848 -0.40142 0.635898 0
M  V30 2188 H 215.819 -0.804813 2.87342 0
M  V30 2189 C 214.568 -2.51617 2.39967 0
M  V30 2190 H 213.891 -2.33303 3.24669 0
M  V30 2191 H 215.331 -3.23827 2.73701 0
M  V30 2192 C 213.79 -3.12654 1.25496 0
M  V30 2193 O 214.32 -3.97786 0.559371 0
M  V30 2194 N 212.526 -2.72206 1.01746 0
M  V30 2195 H 212.073 -2.03074 1.58489 0
M  V30 2196 H 212.031 -3.13377 0.253461 0
M  V30 2197 N 215.803 -1.52179 -0.40978 0
M  V30 2198 C 216.735 -1.71703 -1.51825 0
M  V30 2199 C 217.748 -0.597445 -1.51441 0
M  V30 2200 O 218.937 -0.872582 -1.55719 0
M  V30 2201 C 216.037 -1.74171 -2.90719 0
M  V30 2202 C 215.21 -3.03156 -3.15302 0
M  V30 2203 C 214.269 -2.97445 -4.34065 0
M  V30 2204 O 213.295 -3.71352 -4.31377 0
M  V30 2205 N 214.497 -2.15191 -5.39141 0
M  V30 2206 H 217.262 -2.67334 -1.35472 0
M  V30 2207 H 214.823 -1.50409 -0.599069 0
M  V30 2208 H 216.815 -1.67884 -3.68235 0
M  V30 2209 H 215.385 -0.860166 -3.00533 0
M  V30 2210 H 214.605 -3.23097 -2.25836 0
M  V30 2211 H 215.893 -3.88484 -3.28569 0
M  V30 2212 H 215.291 -1.54573 -5.44173 0
M  V30 2213 H 213.848 -2.1476 -6.15403 0
M  V30 2214 N 217.281 0.66697 -1.42791 0
M  V30 2215 C 218.228 1.7803 -1.4688 0
M  V30 2216 C 219.198 1.6299 -0.319919 0
M  V30 2217 O 220.383 1.83432 -0.525118 0
M  V30 2218 C 217.523 3.1611 -1.38451 0
M  V30 2219 C 216.636 3.42381 -2.63437 0
M  V30 2220 C 215.771 4.70232 -2.47094 0
M  V30 2221 C 214.81 4.89564 -3.67415 0
M  V30 2222 N 213.947 6.08661 -3.49966 0
M  V30 2223 H 218.787 1.7387 -2.42019 0
M  V30 2224 H 216.324 0.84868 -1.20149 0
M  V30 2225 H 218.282 3.95914 -1.31561 0
M  V30 2226 H 216.912 3.19374 -0.469033 0
M  V30 2227 H 215.964 2.56774 -2.80662 0
M  V30 2228 H 217.276 3.52557 -3.52853 0
M  V30 2229 H 216.43 5.5814 -2.37834 0
M  V30 2230 H 215.169 4.62353 -1.5518 0
M  V30 2231 H 214.174 4.00096 -3.77099 0
M  V30 2232 H 215.399 4.99282 -4.6032 0
M  V30 2233 H 213.345 6.0194 -2.60776 0
M  V30 2234 H 213.262 6.19733 -4.32975 0
M  V30 2235 H 214.53 6.99226 -3.44532 0
M  V30 2236 N 218.759 1.29093 0.90403 0
M  V30 2237 C 220.005 1.16986 1.65656 0
M  V30 2238 C 220.338 -0.278925 1.92186 0
M  V30 2239 O 219.613 -1.2019 1.5292 0
M  V30 2240 C 219.896 1.97908 3.0084 0
M  V30 2241 C 219.749 3.50903 2.81403 0
M  V30 2242 C 221.068 1.80208 4.01513 0
M  V30 2243 H 218.187 0.426346 0.601164 0
M  V30 2244 H 220.829 1.58518 1.04747 0
M  V30 2245 H 218.979 1.62616 3.52829 0
M  V30 2246 H 220.651 3.96153 2.36348 0
M  V30 2247 H 218.894 3.76045 2.1627 0
M  V30 2248 H 219.565 4.02791 3.77443 0
M  V30 2249 H 222.041 2.11025 3.58619 0
M  V30 2250 H 220.917 2.39184 4.94047 0
M  V30 2251 H 221.178 0.756119 4.35586 0
M  V30 2252 N 220.237 -1.11381 1.11499 0
M  V30 2253 C 221.2 -2.15622 0.777153 0
M  V30 2254 C 222.2 -1.59504 -0.203779 0
M  V30 2255 O 223.39 -1.74188 0.020782 0
M  V30 2256 C 220.522 -3.40556 0.153116 0
M  V30 2257 H 221.715 -2.47021 1.70061 0
M  V30 2258 H 219.268 -1.26577 0.916952 0
M  V30 2259 H 220.003 -3.14767 -0.780536 0
M  V30 2260 H 219.788 -3.8257 0.859238 0
M  V30 2261 H 221.278 -4.17546 -0.0671044 0
M  V30 2262 N 221.715 -0.905404 -1.28997 0
M  V30 2263 C 222.961 -0.535039 -1.95615 0
M  V30 2264 C 223.294 0.917404 -1.71165 0
M  V30 2265 O 222.569 1.65123 -1.02785 0
M  V30 2266 C 222.852 -0.834918 -3.50287 0
M  V30 2267 C 222.705 -2.33948 -3.84172 0
M  V30 2268 C 224.024 -0.325318 -4.38896 0
M  V30 2269 H 221.143 -0.195861 -0.710498 0
M  V30 2270 H 223.785 -1.13313 -1.52513 0
M  V30 2271 H 221.935 -0.325904 -3.87131 0
M  V30 2272 H 223.607 -2.91847 -3.57243 0
M  V30 2273 H 221.85 -2.79789 -3.31513 0
M  V30 2274 H 222.521 -2.49987 -4.92149 0
M  V30 2275 H 224.997 -0.761256 -4.09077 0
M  V30 2276 H 223.873 -0.564295 -5.45992 0
M  V30 2277 H 224.134 0.774144 -4.35269 0
M  V30 2278 N 223.193 1.4272 -0.668489 0
M  V30 2279 C 224.442 2.00846 -0.185389 0
M  V30 2280 C 224.755 1.53442 1.21305 0
M  V30 2281 O 225.961 2.03944 1.79218 0
M  V30 2282 C 224.417 3.58805 -0.280591 0
M  V30 2283 C 224.025 4.15198 -1.68268 0
M  V30 2284 C 225.769 4.24255 0.14412 0
M  V30 2285 C 223.676 5.655 -1.73099 0
M  V30 2286 H 222.606 0.751145 -0.0655475 0
M  V30 2287 H 225.257 1.63516 -0.832752 0
M  V30 2288 H 223.639 3.93608 0.434553 0
M  V30 2289 H 224.813 3.91866 -2.42441 0
M  V30 2290 H 223.128 3.62176 -2.05469 0
M  V30 2291 H 225.725 5.34547 0.128086 0
M  V30 2292 H 226.068 3.99277 1.17827 0
M  V30 2293 H 226.601 3.94389 -0.519798 0
M  V30 2294 H 223.34 5.95268 -2.74475 0
M  V30 2295 H 222.86 5.90842 -1.03274 0
M  V30 2296 H 224.539 6.29808 -1.48158 0
M  V30 2297 N 224.671 0.411399 1.52136 0
M  V30 2298 C 225.919 -0.163322 2.01439 0
M  V30 2299 C 226.24 -1.45453 1.29879 0
M  V30 2300 O 225.51 -1.91225 0.4254 0
M  V30 2301 H 224.09 -0.0633447 0.744309 0
M  V30 2302 H 226.752 0.548161 1.87033 0
M  V30 2303 H 225.848 -0.357817 3.10042 0
M  V30 2304 N 226.149 -1.5696 0.141893 0
M  V30 2305 C 227.397 -1.95573 -0.509484 0
M  V30 2306 C 227.718 -1.02746 -1.65736 0
M  V30 2307 O 226.988 -0.0880311 -1.95702 0
M  V30 2308 H 225.568 -0.722115 -0.191205 0
M  V30 2309 H 228.23 -1.93697 0.216196 0
M  V30 2310 H 227.326 -2.99171 -0.889 0
M  V30 2311 N 227.627 0.131896 -1.57047 0
M  V30 2312 C 228.875 0.840269 -1.83804 0
M  V30 2313 C 229.196 1.81017 -0.72512 0
M  V30 2314 O 228.466 1.94272 0.251995 0
M  V30 2315 H 227.046 0.313294 -0.678127 0
M  V30 2316 H 229.708 0.122294 -1.94516 0
M  V30 2317 H 228.804 1.39335 -2.79271 0
M  V30 2318 N 229.106 1.52395 0.401703 0
M  V30 2319 C 230.054 1.7689 1.51039 0
M  V30 2320 C 231.048 0.636298 1.56996 0
M  V30 2321 O 232.254 0.818507 1.60314 0
M  V30 2322 H 228.629 0.559502 0.502456 0
M  V30 2323 H 230.6 2.69757 1.27568 0
M  V30 2324 C 229.349 1.94331 2.88324 0
M  V30 2325 H 228.672 2.80905 2.84486 0
M  V30 2326 H 230.112 2.15466 3.65172 0
M  V30 2327 C 228.571 0.712396 3.29282 0
M  V30 2328 O 229.101 -0.116218 4.01532 0
M  V30 2329 N 227.307 0.546154 2.85422 0
M  V30 2330 H 226.854 1.22156 2.26794 0
M  V30 2331 H 226.812 -0.276113 3.13185 0
M  V30 2332 N 230.584 -0.659388 1.43143 0
M  V30 2333 C 231.812 -1.44723 1.47861 0
M  V30 2334 C 232.227 -1.88563 0.0945886 0
M  V30 2335 O 231.584 -1.59108 -0.893915 0
M  V30 2336 C 231.635 -2.68627 2.41913 0
M  V30 2337 O 231.356 -2.26623 3.74932 0
M  V30 2338 C 232.857 -3.62045 2.55809 0
M  V30 2339 H 230.077 -0.444801 0.502387 0
M  V30 2340 H 232.621 -0.808916 1.87821 0
M  V30 2341 H 230.776 -3.28613 2.05164 0
M  V30 2342 H 231.19 -3.06745 4.2545 0
M  V30 2343 H 232.664 -4.45666 3.25708 0
M  V30 2344 H 233.141 -4.08981 1.60099 0
M  V30 2345 H 233.747 -3.07944 2.93344 0
M  V30 2346 N 232.062 -1.29571 -0.897171 0
M  V30 2347 C 233.025 -1.14913 -1.98312 0
M  V30 2348 C 234.025 -0.0838629 -1.60581 0
M  V30 2349 O 235.215 -0.331006 -1.71026 0
M  V30 2350 C 232.347 -0.757835 -3.3237 0
M  V30 2351 H 233.54 -2.11377 -2.12743 0
M  V30 2352 H 231.093 -1.12793 -1.08201 0
M  V30 2353 H 231.828 0.206837 -3.2364 0
M  V30 2354 H 231.613 -1.52755 -3.61121 0
M  V30 2355 H 233.103 -0.678408 -4.12053 0
M  V30 2356 N 233.54 1.10788 -1.12088 0
M  V30 2357 C 234.786 1.82942 -0.875226 0
M  V30 2358 C 235.119 1.84779 0.597538 0
M  V30 2359 O 234.394 1.30578 1.44152 0
M  V30 2360 C 234.677 3.29789 -1.44606 0
M  V30 2361 C 234.53 3.36307 -2.98693 0
M  V30 2362 C 235.849 4.26064 -1.10261 0
M  V30 2363 H 232.968 0.664195 -0.319397 0
M  V30 2364 H 235.61 1.29867 -1.38689 0
M  V30 2365 H 233.76 3.75118 -1.01089 0
M  V30 2366 H 235.432 2.99487 -3.50864 0
M  V30 2367 H 233.675 2.76318 -3.34411 0
M  V30 2368 H 234.346 4.39694 -3.33726 0
M  V30 2369 H 236.822 3.88951 -1.4784 0
M  V30 2370 H 235.698 5.27183 -1.52869 0
M  V30 2371 H 235.959 4.42098 -0.0142953 0
M  V30 2372 N 235.018 0.912232 1.28515 0
M  V30 2373 C 235.928 0.404506 2.31086 0
M  V30 2374 C 236.944 -0.50707 1.66448 0
M  V30 2375 O 238.12 -0.393624 1.97516 0
M  V30 2376 C 235.185 -0.348572 3.44943 0
M  V30 2377 C 234.246 0.59604 4.25142 0
M  V30 2378 C 233.479 -0.121194 5.33562 0
M  V30 2379 O 233.702 -1.34317 5.5436 0
M  V30 2380 O 232.636 0.542716 5.99448 0
M  V30 2381 H 236.462 1.25579 2.76521 0
M  V30 2382 H 234.047 0.676998 1.33181 0
M  V30 2383 H 235.929 -0.77395 4.14232 0
M  V30 2384 H 234.604 -1.17571 3.01594 0
M  V30 2385 H 233.511 1.07079 3.58448 0
M  V30 2386 H 234.844 1.38995 4.72167 0
M  V30 2387 N 236.496 -1.42363 0.676048 0
M  V30 2388 C 237.406 -2.346 -0.00153389 0
M  V30 2389 C 238.422 -1.5516 -0.787485 0
M  V30 2390 O 239.598 -1.87723 -0.729521 0
M  V30 2391 C 236.663 -3.33705 -0.940298 0
M  V30 2392 C 235.724 -4.29042 -0.148739 0
M  V30 2393 C 234.957 -5.23413 -1.04279 0
M  V30 2394 O 235.18 -5.22749 -2.28232 0
M  V30 2395 O 234.114 -5.99795 -0.502925 0
M  V30 2396 H 237.94 -2.94082 0.758268 0
M  V30 2397 H 235.525 -1.42888 0.436289 0
M  V30 2398 H 237.407 -3.94586 -1.47917 0
M  V30 2399 H 236.082 -2.76695 -1.67993 0
M  V30 2400 H 234.989 -3.71571 0.43427 0
M  V30 2401 H 236.322 -4.89097 0.551805 0
M  V30 2402 N 237.974 -0.419461 -1.51915 0
M  V30 2403 C 238.937 0.389116 -2.25873 0
M  V30 2404 C 239.937 0.964924 -1.28631 0
M  V30 2405 O 241.127 0.842179 -1.52489 0
M  V30 2406 C 238.259 1.54874 -3.03689 0
M  V30 2407 H 239.452 -0.258799 -2.98781 0
M  V30 2408 H 237.005 -0.172209 -1.55348 0
M  V30 2409 H 237.74 2.23323 -2.35154 0
M  V30 2410 H 237.525 1.14223 -3.75094 0
M  V30 2411 H 239.015 2.12046 -3.59759 0
M  V30 2412 N 239.452 1.56882 -0.150215 0
M  V30 2413 C 240.382 2.19935 0.784284 0
M  V30 2414 C 241.363 1.14854 1.25469 0
M  V30 2415 O 242.548 1.43209 1.31168 0
M  V30 2416 C 239.678 2.82349 2.02229 0
M  V30 2417 C 238.632 3.93285 1.68853 0
M  V30 2418 C 237.958 4.42649 2.99944 0
M  V30 2419 C 239.258 5.13904 0.932714 0
M  V30 2420 H 240.952 2.9828 0.258781 0
M  V30 2421 H 238.498 1.43473 0.123029 0
M  V30 2422 H 240.451 3.25126 2.68088 0
M  V30 2423 H 239.175 2.0134 2.57157 0
M  V30 2424 H 237.834 3.5113 1.05371 0
M  V30 2425 H 237.482 3.58458 3.52869 0
M  V30 2426 H 237.182 5.17476 2.78374 0
M  V30 2427 H 238.706 4.88099 3.66868 0
M  V30 2428 H 240.12 5.53506 1.49345 0
M  V30 2429 H 238.517 5.94515 0.81684 0
M  V30 2430 H 239.587 4.84842 -0.0749568 0
M  V30 2431 N 240.93 -0.123565 1.57115 0
M  V30 2432 C 242.16 -0.845233 1.88519 0
M  V30 2433 C 242.568 -1.74168 0.739064 0
M  V30 2434 O 241.911 -1.81244 -0.299355 0
M  V30 2435 C 241.973 -1.73452 3.14888 0
M  V30 2436 C 241.637 -1.01285 4.45635 0
M  V30 2437 C 242.634 -0.355774 5.18681 0
M  V30 2438 C 240.319 -0.99538 4.92339 0
M  V30 2439 C 242.313 0.309114 6.3665 0
M  V30 2440 C 240 -0.32669 6.10226 0
M  V30 2441 C 240.998 0.324406 6.82229 0
M  V30 2442 O 240.686 0.982437 7.97874 0
M  V30 2443 H 240.418 -0.248534 0.628655 0
M  V30 2444 H 242.972 -0.113907 2.05084 0
M  V30 2445 H 241.202 -2.50737 2.94394 0
M  V30 2446 H 242.891 -2.33021 3.32349 0
M  V30 2447 H 243.657 -0.360918 4.83655 0
M  V30 2448 H 239.536 -1.49159 4.36202 0
M  V30 2449 H 243.08 0.8179 6.92789 0
M  V30 2450 H 238.977 -0.319294 6.4471 0
M  V30 2451 H 239.745 0.886454 8.13686 0
M  V30 2452 N 242.408 -1.52605 -0.393616 0
M  V30 2453 C 243.338 -1.80022 -1.48709 0
M  V30 2454 C 244.319 -0.651995 -1.57108 0
M  V30 2455 O 245.504 -0.89913 -1.72132 0
M  V30 2456 C 242.634 -1.96492 -2.86371 0
M  V30 2457 C 241.588 -3.12161 -2.92813 0
M  V30 2458 C 240.914 -3.13877 -4.3288 0
M  V30 2459 C 242.214 -4.51322 -2.6288 0
M  V30 2460 H 243.908 -2.71589 -1.26015 0
M  V30 2461 H 241.454 -1.30684 -0.604778 0
M  V30 2462 H 243.407 -2.14255 -3.62867 0
M  V30 2463 H 242.131 -1.01611 -3.10391 0
M  V30 2464 H 240.79 -2.94173 -2.18764 0
M  V30 2465 H 240.438 -2.16687 -4.53933 0
M  V30 2466 H 240.138 -3.91576 -4.38112 0
M  V30 2467 H 241.662 -3.33789 -5.1129 0
M  V30 2468 H 243.076 -4.69435 -3.29096 0
M  V30 2469 H 241.473 -5.31053 -2.79468 0
M  V30 2470 H 242.543 -4.58353 -1.58242 0
M  V30 2471 N 243.887 0.651787 -1.4349 0
M  V30 2472 C 245.112 1.44434 -1.48841 0
M  V30 2473 C 245.537 1.8779 -0.107955 0
M  V30 2474 O 244.895 1.57464 0.898602 0
M  V30 2475 C 244.943 2.65458 -2.44059 0
M  V30 2476 O 244.047 3.64566 -1.92784 0
M  V30 2477 H 243.388 0.433005 -0.503391 0
M  V30 2478 H 245.918 0.797451 -1.88419 0
M  V30 2479 H 245.928 3.13255 -2.6141 0
M  V30 2480 H 244.603 2.33244 -3.4434 0
M  V30 2481 H 243.18 3.23716 -1.851 0
M  V30 2482 N 245.365 1.30045 0.890287 0
M  V30 2483 C 246.313 1.15873 2.01683 0
M  V30 2484 C 247.307 0.0719403 1.69247 0
M  V30 2485 O 248.513 0.232414 1.78493 0
M  V30 2486 H 244.888 0.358203 0.661207 0
M  V30 2487 H 246.859 2.11229 2.10772 0
M  V30 2488 C 245.608 0.861842 3.36849 0
M  V30 2489 H 244.931 1.69016 3.62317 0
M  V30 2490 H 246.371 0.802762 4.16331 0
M  V30 2491 C 244.83 -0.435132 3.34078 0
M  V30 2492 O 245.36 -1.4583 3.74295 0
M  V30 2493 N 243.566 -0.444377 2.87182 0
M  V30 2494 H 243.113 0.388723 2.5465 0
M  V30 2495 H 243.071 -1.31213 2.85711 0
M  V30 2496 N 246.843 -1.10192 1.12674 0
M  V30 2497 C 248.092 -1.81573 0.8783 0
M  V30 2498 C 248.405 -1.86249 -0.597557 0
M  V30 2499 O 249.611 -2.5386 -0.962681 0
M  V30 2500 C 248.067 -3.26149 1.52167 0
M  V30 2501 C 247.675 -3.29763 3.03249 0
M  V30 2502 C 249.419 -4.0234 1.3536 0
M  V30 2503 C 247.326 -4.68815 3.60508 0
M  V30 2504 H 246.256 -0.680394 0.324931 0
M  V30 2505 H 248.907 -1.23902 1.35353 0
M  V30 2506 H 247.289 -3.83832 0.974104 0
M  V30 2507 H 248.463 -2.8189 3.6452 0
M  V30 2508 H 246.778 -2.67059 3.19481 0
M  V30 2509 H 249.375 -5.05058 1.75559 0
M  V30 2510 H 249.718 -4.15235 0.297554 0
M  V30 2511 H 250.251 -3.51079 1.87052 0
M  V30 2512 H 246.99 -4.61121 4.65884 0
M  V30 2513 H 246.51 -5.17045 3.04014 0
M  V30 2514 H 248.189 -5.37785 3.59717 0
M  V30 2515 N 248.321 -0.919034 -1.28029 0
M  V30 2516 C 249.284 -0.416182 -2.2539 0
M  V30 2517 C 250.284 0.460438 -1.54067 0
M  V30 2518 O 251.474 0.262744 -1.72207 0
M  V30 2519 C 248.606 0.402707 -3.38513 0
M  V30 2520 H 249.799 -1.27629 -2.71387 0
M  V30 2521 H 247.352 -0.698919 -1.39803 0
M  V30 2522 H 248.087 1.282 -2.97885 0
M  V30 2523 H 247.872 -0.225698 -3.9145 0
M  V30 2524 H 249.362 0.745191 -4.10897 0
M  V30 2525 N 249.799 1.42003 -0.683588 0
M  V30 2526 C 251.024 2.06265 -0.216647 0
M  V30 2527 C 251.449 1.51059 1.12083 0
M  V30 2528 O 250.807 0.632638 1.69904 0
M  V30 2529 C 250.855 3.60191 -0.171759 0
M  V30 2530 O 249.959 4.03396 0.857069 0
M  V30 2531 H 249.3 0.65502 -0.108834 0
M  V30 2532 H 251.83 1.81982 -0.935077 0
M  V30 2533 H 251.84 4.08 0.0014303 0
M  V30 2534 H 250.515 3.99743 -1.14796 0
M  V30 2535 H 249.092 3.67117 0.654208 0
M  V30 2536 N 251.277 0.427512 1.51691 0
M  V30 2537 C 252.187 -0.39527 2.31246 0
M  V30 2538 C 253.203 -1.03674 1.39742 0
M  V30 2539 O 254.379 -1.03425 1.72816 0
M  V30 2540 C 251.444 -1.48706 3.13189 0
M  V30 2541 C 250.505 -0.866743 4.20459 0
M  V30 2542 C 249.738 -1.90651 4.98486 0
M  V30 2543 O 249.961 -3.12733 4.77026 0
M  V30 2544 O 248.895 -1.5025 5.82845 0
M  V30 2545 H 252.721 0.253918 3.02637 0
M  V30 2546 H 250.306 0.190274 1.48183 0
M  V30 2547 H 252.188 -2.12047 3.64162 0
M  V30 2548 H 250.863 -2.12051 2.44573 0
M  V30 2549 H 249.77 -0.195544 3.73589 0
M  V30 2550 H 251.103 -0.276934 4.9142 0
M  V30 2551 N 252.755 -1.56801 0.158532 0
M  V30 2552 C 254.001 -1.96781 -0.490405 0
M  V30 2553 C 254.334 -1.04397 -1.63753 0
M  V30 2554 O 253.609 -0.0885805 -1.94298 0
M  V30 2555 C 253.892 -3.4635 -0.985594 0
M  V30 2556 C 253.745 -4.49512 0.160824 0
M  V30 2557 C 255.064 -3.98697 -1.86355 0
M  V30 2558 H 252.183 -0.715482 -0.176788 0
M  V30 2559 H 254.825 -1.88451 0.242088 0
M  V30 2560 H 252.975 -3.53579 -1.60978 0
M  V30 2561 H 254.647 -4.54353 0.797537 0
M  V30 2562 H 252.89 -4.26013 0.818256 0
M  V30 2563 H 253.561 -5.51531 -0.227569 0
M  V30 2564 H 256.037 -3.94019 -1.33746 0
M  V30 2565 H 254.913 -5.03792 -2.17909 0
M  V30 2566 H 255.174 -3.41744 -2.8047 0
M  V30 2567 N 254.233 0.115231 -1.57178 0
M  V30 2568 C 255.183 1.14707 -1.97044 0
M  V30 2569 C 256.167 1.36866 -0.845957 0
M  V30 2570 O 257.359 1.37895 -1.10968 0
M  V30 2571 C 254.488 2.47266 -2.38148 0
M  V30 2572 C 253.574 2.28566 -3.57237 0
M  V30 2573 N 253.965 1.79685 -4.72807 0
M  V30 2574 C 252.263 2.59208 -3.62943 0
M  V30 2575 C 252.964 1.74781 -5.54821 0
M  V30 2576 N 251.94 2.19264 -4.97417 0
M  V30 2577 H 255.742 0.761754 -2.83857 0
M  V30 2578 H 253.256 0.322928 -1.59157 0
M  V30 2579 H 255.253 3.219 -2.64927 0
M  V30 2580 H 253.913 2.86552 -1.52702 0
M  V30 2581 H 254.924 1.49177 -4.9595 0
M  V30 2582 H 251.601 3.02154 -2.88113 0
M  V30 2583 H 252.991 1.38212 -6.57531 0
M  V30 2584 N 255.711 1.52812 0.385517 0
M  V30 2585 C 256.641 1.80808 1.47752 0
M  V30 2586 C 257.622 0.660318 1.5676 0
M  V30 2587 O 258.807 0.908246 1.71652 0
M  V30 2588 C 255.937 1.98008 2.85324 0
M  V30 2589 C 254.891 3.13709 2.91154 0
M  V30 2590 C 254.217 3.16169 4.31209 0
M  V30 2591 C 255.517 4.52709 2.60483 0
M  V30 2592 H 257.211 2.72253 1.24573 0
M  V30 2593 H 254.757 1.31003 0.597839 0
M  V30 2594 H 256.71 2.16176 3.61726 0
M  V30 2595 H 255.434 1.03255 3.09848 0
M  V30 2596 H 254.093 2.95329 2.17201 0
M  V30 2597 H 253.741 2.19092 4.52778 0
M  V30 2598 H 253.441 3.93894 4.36029 0
M  V30 2599 H 254.965 3.36496 5.09512 0
M  V30 2600 H 256.379 4.71173 3.26602 0
M  V30 2601 H 254.776 5.32528 2.76648 0
M  V30 2602 H 255.846 4.59186 1.55809 0
M  V30 2603 N 257.189 -0.644168 1.43834 0
M  V30 2604 C 258.438 -1.39985 1.45214 0
M  V30 2605 C 258.751 -1.95421 0.0835494 0
M  V30 2606 O 259.957 -2.71488 -0.0251748 0
M  V30 2607 C 258.413 -2.53384 2.55587 0
M  V30 2608 C 258.021 -2.04517 3.98594 0
M  V30 2609 C 259.765 -3.30685 2.66172 0
M  V30 2610 C 257.672 -3.1518 5.00416 0
M  V30 2611 H 256.602 -0.526005 0.540218 0
M  V30 2612 H 259.253 -0.694367 1.69855 0
M  V30 2613 H 257.635 -3.26446 2.24163 0
M  V30 2614 H 258.809 -1.38405 4.39523 0
M  V30 2615 H 257.124 -1.40068 3.92135 0
M  V30 2616 H 259.721 -4.13158 3.39418 0
M  V30 2617 H 260.064 -3.79312 1.71546 0
M  V30 2618 H 260.597 -2.64708 2.96942 0
M  V30 2619 H 257.336 -2.71511 5.96625 0
M  V30 2620 H 256.856 -3.79974 4.64091 0
M  V30 2621 H 258.535 -3.80166 5.23529 0
M  V30 2622 N 258.668 -1.30515 -0.883378 0
M  V30 2623 C 259.618 -1.13641 -1.9766 0
M  V30 2624 C 260.602 -0.0511314 -1.60819 0
M  V30 2625 O 261.794 -0.274623 -1.74857 0
M  V30 2626 C 258.923 -0.831976 -3.33066 0
M  V30 2627 C 258.009 -1.95759 -3.76217 0
M  V30 2628 N 258.4 -3.20313 -3.9145 0
M  V30 2629 C 256.698 -1.85431 -4.05625 0
M  V30 2630 C 257.399 -3.93856 -4.2808 0
M  V30 2631 N 256.375 -3.21919 -4.38029 0
M  V30 2632 H 260.177 -2.08106 -2.07531 0
M  V30 2633 H 257.691 -1.21877 -1.0733 0
M  V30 2634 H 259.688 -0.692102 -4.11115 0
M  V30 2635 H 258.348 0.104588 -3.24532 0
M  V30 2636 H 259.359 -3.55583 -3.76538 0
M  V30 2637 H 256.036 -0.991531 -4.05555 0
M  V30 2638 H 257.426 -5.01125 -4.47575 0
M  V30 2639 N 260.146 1.09593 -1.13257 0
M  V30 2640 C 261.562 1.33775 -0.870423 0
M  V30 2641 C 261.762 1.95327 0.494926 0
M  V30 2642 O 260.818 2.19853 1.2418 0
M  V30 2643 C 262.131 2.25106 -1.99369 0
M  V30 2644 C 263.679 2.3862 -2.02558 0
M  V30 2645 C 264.154 3.33285 -3.14142 0
M  V30 2646 N 265.645 3.40857 -3.13641 0
M  V30 2647 C 266.38 4.14101 -3.96621 0
M  V30 2648 N 265.876 4.90157 -4.8961 0
M  V30 2649 N 267.669 4.09808 -3.84726 0
M  V30 2650 H 259.82 0.680136 -2.01216 0
M  V30 2651 H 262.083 0.362133 -0.876107 0
M  V30 2652 H 261.789 1.87103 -2.97801 0
M  V30 2653 H 261.663 3.25481 -1.90635 0
M  V30 2654 H 264.05 2.75887 -1.0474 0
M  V30 2655 H 264.131 1.38028 -2.15364 0
M  V30 2656 H 263.775 2.96741 -4.12198 0
M  V30 2657 H 263.705 4.33776 -2.98574 0
M  V30 2658 H 266.196 2.86624 -2.46282 0
M  V30 2659 H 266.509 5.4347 -5.49418 0
M  V30 2660 H 264.854 4.89251 -4.93617 0
M  V30 2661 H 268.045 3.4949 -3.11408 0
M  V30 2662 H 268.218 4.66629 -4.49623 0
M  V30 2663 N 261.624 0.925811 1.2754 0
M  V30 2664 C 263.04 0.625767 1.46821 0
M  V30 2665 C 263.24 -0.825506 1.83814 0
M  V30 2666 O 262.296 -1.60356 1.95044 0
M  V30 2667 C 263.609 1.57402 2.56213 0
M  V30 2668 C 265.157 1.58204 2.70075 0
M  V30 2669 C 265.632 2.51721 3.82623 0
M  V30 2670 N 267.123 2.49917 3.89994 0
M  V30 2671 C 267.858 3.18968 4.76494 0
M  V30 2672 N 267.354 3.97391 5.67496 0
M  V30 2673 N 269.147 3.07996 4.70208 0
M  V30 2674 H 261.298 1.86409 1.01811 0
M  V30 2675 H 263.561 0.800213 0.508295 0
M  V30 2676 H 263.267 2.60925 2.35819 0
M  V30 2677 H 263.141 1.31428 3.53563 0
M  V30 2678 H 265.528 0.554124 2.89851 0
M  V30 2679 H 265.609 1.88226 1.73218 0
M  V30 2680 H 265.253 3.54622 3.63601 0
M  V30 2681 H 265.183 2.18996 4.78903 0
M  V30 2682 H 267.674 1.9296 3.24923 0
M  V30 2683 H 267.987 4.4707 6.30356 0
M  V30 2684 H 266.332 4.01495 5.67298 0
M  V30 2685 H 269.523 2.46223 3.9811 0
M  V30 2686 H 269.696 3.6208 5.37403 0
M  V30 2687 N 263.102 -1.41638 0.69111 0
M  V30 2688 C 264.379 -1.95036 0.148421 0
M  V30 2689 C 264.759 -1.63072 -1.34055 0
M  V30 2690 O 264.107 -0.93538 -2.08478 0
M  V30 2691 C 264.317 -3.46279 0.434951 0
M  V30 2692 C 265.665 -4.23069 0.360275 0
M  V30 2693 O 266.689 -3.54277 0.369613 0
M  V30 2694 O 265.548 -5.45583 0.316534 0
M  V30 2695 H 262.642 -0.826908 0.0123654 0
M  V30 2696 H 265.188 -1.5138 0.766963 0
M  V30 2697 H 263.96 -3.6281 1.46576 0
M  V30 2698 H 263.583 -3.97019 -0.214787 0
M  V30 2699 N 264.58 -0.43555 -1.51462 0
M  V30 2700 C 265.828 0.131254 -2.01673 0
M  V30 2701 C 266.149 1.43368 -1.32177 0
M  V30 2702 O 265.419 1.90524 -0.455769 0
M  V30 2703 H 263.999 0.0514954 -0.745223 0
M  V30 2704 H 266.661 -0.577847 -1.86137 0
M  V30 2705 H 265.757 0.308446 -3.10572 0
M  V30 2706 N 266.058 1.56714 -0.166846 0
M  V30 2707 C 267.305 1.96747 0.479252 0
M  V30 2708 C 267.633 1.05263 1.63554 0
M  V30 2709 O 266.888 0.0858098 1.95512 0
M  V30 2710 C 267.187 3.42889 1.00806 0
M  V30 2711 C 266.853 4.50889 -0.0318574 0
M  V30 2712 C 265.515 4.8015 -0.317675 0
M  V30 2713 C 267.867 5.15949 -0.737956 0
M  V30 2714 C 265.195 5.71772 -1.31506 0
M  V30 2715 C 267.547 6.08647 -1.72429 0
M  V30 2716 C 266.211 6.36277 -2.0176 0
M  V30 2717 H 265.481 0.719949 0.175371 0
M  V30 2718 H 268.128 1.89756 -0.257864 0
M  V30 2719 H 266.433 3.4681 1.82291 0
M  V30 2720 H 268.13 3.71203 1.51689 0
M  V30 2721 H 264.72 4.28128 0.201088 0
M  V30 2722 H 268.904 4.93458 -0.530351 0
M  V30 2723 H 264.16 5.91465 -1.54853 0
M  V30 2724 H 268.334 6.58129 -2.27682 0
M  V30 2725 H 265.961 7.07075 -2.79194 0
M  V30 2726 N 267.536 -0.106894 1.57237 0
M  V30 2727 C 268.952 -0.46078 1.52804 0
M  V30 2728 C 269.152 -1.81184 0.881746 0
M  V30 2729 O 268.208 -2.48102 0.469224 0
M  V30 2730 C 269.521 -0.434127 2.9755 0
M  V30 2731 C 271.069 -0.516821 3.08704 0
M  V30 2732 C 271.544 -0.520436 4.55033 0
M  V30 2733 N 273.035 -0.58153 4.59535 0
M  V30 2734 C 273.77 -0.605973 5.70189 0
M  V30 2735 N 273.266 -0.587331 6.90306 0
M  V30 2736 N 275.059 -0.649895 5.5833 0
M  V30 2737 H 267.21 0.778203 1.9763 0
M  V30 2738 H 269.473 0.288403 0.903066 0
M  V30 2739 H 269.179 0.491197 3.48253 0
M  V30 2740 H 269.053 -1.25748 3.55622 0
M  V30 2741 H 271.44 -1.43256 2.57995 0
M  V30 2742 H 271.521 0.334449 2.53604 0
M  V30 2743 H 271.165 0.391313 5.0639 0
M  V30 2744 H 271.095 -1.38876 5.07958 0
M  V30 2745 H 273.586 -0.60161 3.73081 0
M  V30 2746 H 273.899 -0.60894 7.70397 0
M  V30 2747 H 272.244 -0.554564 6.92784 0
M  V30 2748 H 275.435 -0.661907 4.63397 0
M  V30 2749 H 275.608 -0.665476 6.44574 0
M  V30 2750 N 269.014 -1.53014 -0.377408 0
M  V30 2751 C 269.977 -1.77957 -1.44444 0
M  V30 2752 C 270.977 -0.649763 -1.47087 0
M  V30 2753 O 272.167 -0.917897 -1.48055 0
M  V30 2754 C 269.299 -1.89089 -2.83651 0
M  V30 2755 H 270.492 -2.73243 -1.23606 0
M  V30 2756 H 268.045 -1.43912 -0.609844 0
M  V30 2757 H 268.78 -0.958293 -3.09818 0
M  V30 2758 H 268.565 -2.71254 -2.83132 0
M  V30 2759 H 270.055 -2.1002 -3.60945 0
M  V30 2760 N 270.492 0.636531 -1.44174 0
M  V30 2761 C 271.402 1.77754 -1.53103 0
M  V30 2762 C 272.418 1.68928 -0.417034 0
M  V30 2763 O 273.594 1.89801 -0.6736 0
M  V30 2764 C 270.659 3.14115 -1.46741 0
M  V30 2765 C 269.72 3.34612 -2.68948 0
M  V30 2766 C 268.953 4.64467 -2.6288 0
M  V30 2767 O 269.176 5.44919 -1.68581 0
M  V30 2768 O 268.11 4.87049 -3.53648 0
M  V30 2769 H 271.936 1.73174 -2.49489 0
M  V30 2770 H 269.521 0.79709 -1.2636 0
M  V30 2771 H 271.403 3.95412 -1.45696 0
M  V30 2772 H 270.078 3.19249 -0.534975 0
M  V30 2773 H 268.985 2.53014 -2.75562 0
M  V30 2774 H 270.318 3.34336 -3.61221 0
M  V30 2775 N 271.97 1.30982 0.876444 0
M  V30 2776 C 272.917 1.18085 1.98304 0
M  V30 2777 C 273.887 0.0682263 1.6596 0
M  V30 2778 O 275.072 0.239937 1.89285 0
M  V30 2779 C 272.212 0.887475 3.33493 0
M  V30 2780 C 271.325 2.08281 3.78475 0
M  V30 2781 C 270.46 1.72678 5.0235 0
M  V30 2782 C 269.499 2.88657 5.39762 0
M  V30 2783 N 268.636 2.53292 6.54819 0
M  V30 2784 H 273.476 2.1275 2.08666 0
M  V30 2785 H 271.013 1.05839 1.02159 0
M  V30 2786 H 272.971 0.697961 4.1132 0
M  V30 2787 H 271.601 -0.022315 3.22792 0
M  V30 2788 H 270.653 2.3833 2.96484 0
M  V30 2789 H 271.965 2.95108 4.02135 0
M  V30 2790 H 271.119 1.50151 5.87826 0
M  V30 2791 H 269.858 0.830327 4.8058 0
M  V30 2792 H 268.863 3.1184 4.52809 0
M  V30 2793 H 270.088 3.79002 5.63502 0
M  V30 2794 H 268.034 1.66163 6.34607 0
M  V30 2795 H 267.951 3.3365 6.7839 0
M  V30 2796 H 269.219 2.34143 7.43503 0
M  V30 2797 N 273.449 -1.08991 1.13837 0
M  V30 2798 C 274.698 -1.80631 0.897509 0
M  V30 2799 C 275.011 -1.86872 -0.57777 0
M  V30 2800 O 276.217 -2.54866 -0.935701 0
M  V30 2801 C 274.673 -3.24517 1.55618 0
M  V30 2802 C 274.281 -3.26529 3.0673 0
M  V30 2803 C 276.025 -4.00882 1.3962 0
M  V30 2804 C 273.932 -4.64965 3.65461 0
M  V30 2805 H 272.862 -0.67691 0.332129 0
M  V30 2806 H 275.513 -1.2246 1.3666 0
M  V30 2807 H 273.895 -3.82778 1.01476 0
M  V30 2808 H 275.069 -2.78008 3.67489 0
M  V30 2809 H 273.384 -2.63656 3.22296 0
M  V30 2810 H 275.981 -5.03167 1.80906 0
M  V30 2811 H 276.324 -4.14896 0.341578 0
M  V30 2812 H 276.857 -3.49075 1.90766 0
M  V30 2813 H 273.596 -4.56153 4.70749 0
M  V30 2814 H 273.116 -5.13792 3.09481 0
M  V30 2815 H 274.795 -5.3394 3.654 0
M  V30 2816 N 274.927 -0.932562 -1.27047 0
M  V30 2817 C 275.857 -0.452902 -2.29066 0
M  V30 2818 C 276.838 0.489338 -1.62909 0
M  V30 2819 O 278.023 0.393046 -1.90181 0
M  V30 2820 C 275.153 0.290698 -3.46081 0
M  V30 2821 C 274.107 -0.564168 -4.24265 0
M  V30 2822 C 273.433 0.308886 -5.33807 0
M  V30 2823 C 274.733 -1.83112 -4.89149 0
M  V30 2824 H 276.427 -1.30552 -2.69437 0
M  V30 2825 H 273.973 -0.629201 -1.29526 0
M  V30 2826 H 275.926 0.637233 -4.16554 0
M  V30 2827 H 274.65 1.17738 -3.0464 0
M  V30 2828 H 273.309 -0.893477 -3.55545 0
M  V30 2829 H 272.957 1.19467 -4.88607 0
M  V30 2830 H 272.657 -0.259633 -5.87026 0
M  V30 2831 H 274.181 0.650884 -6.07121 0
M  V30 2832 H 275.595 -1.55236 -5.51883 0
M  V30 2833 H 273.992 -2.34353 -5.52448 0
M  V30 2834 H 275.062 -2.54772 -4.12576 0
M  V30 2835 N 276.405 1.4127 -0.698611 0
M  V30 2836 C 277.654 2.00408 -0.227949 0
M  V30 2837 C 277.967 1.55981 1.18023 0
M  V30 2838 O 279.173 2.07699 1.74852 0
M  V30 2839 C 277.629 3.58129 -0.356636 0
M  V30 2840 C 277.237 4.11536 -1.77037 0
M  V30 2841 C 278.981 4.24466 0.0540969 0
M  V30 2842 C 276.888 5.61701 -1.85055 0
M  V30 2843 H 275.818 0.749586 -0.0814657 0
M  V30 2844 H 278.469 1.61713 -0.867249 0
M  V30 2845 H 276.851 3.94442 0.350965 0
M  V30 2846 H 278.025 3.86636 -2.50698 0
M  V30 2847 H 276.34 3.57736 -2.13105 0
M  V30 2848 H 278.937 5.34698 0.0146723 0
M  V30 2849 H 279.28 4.01687 1.09332 0
M  V30 2850 H 279.813 3.93198 -0.603337 0
M  V30 2851 H 276.552 5.89312 -2.8704 0
M  V30 2852 H 276.072 5.88519 -1.15783 0
M  V30 2853 H 277.751 6.26524 -1.61484 0
M  V30 2854 N 277.883 0.443576 1.51229 0
M  V30 2855 C 278.83 -0.364716 2.279 0
M  V30 2856 C 279.8 -1.0114 1.31757 0
M  V30 2857 O 280.985 -1.02912 1.60667 0
M  V30 2858 C 278.125 -1.45644 3.12861 0
M  V30 2859 C 277.238 -0.827269 4.24005 0
M  V30 2860 C 276.373 -1.89456 4.96266 0
M  V30 2861 C 275.412 -1.24416 5.99322 0
M  V30 2862 N 274.549 -2.25309 6.64966 0
M  V30 2863 H 279.389 0.295464 2.96532 0
M  V30 2864 H 276.926 0.157554 1.46254 0
M  V30 2865 H 278.884 -2.10076 3.6045 0
M  V30 2866 H 277.514 -2.08616 2.46331 0
M  V30 2867 H 276.566 -0.0710839 3.80334 0
M  V30 2868 H 277.878 -0.312481 4.9782 0
M  V30 2869 H 277.032 -2.61535 5.47434 0
M  V30 2870 H 275.771 -2.4431 4.22095 0
M  V30 2871 H 274.776 -0.508868 5.4744 0
M  V30 2872 H 276.001 -0.702882 6.75453 0
M  V30 2873 H 273.947 -2.79231 5.93604 0
M  V30 2874 H 273.864 -1.78739 7.34567 0
M  V30 2875 H 275.132 -2.96853 7.20763 0
M  V30 2876 N 279.361 -1.56624 0.175154 0
M  V30 2877 C 280.777 -1.58571 -0.180966 0
M  V30 2878 C 280.977 -1.19065 -1.6256 0
M  V30 2879 O 280.033 -0.904044 -2.35761 0
M  V30 2880 C 281.346 -3.00522 0.103326 0
M  V30 2881 C 282.894 -3.12972 0.0418426 0
M  V30 2882 C 283.369 -4.57022 0.299175 0
M  V30 2883 N 284.86 -4.62541 0.247086 0
M  V30 2884 C 285.595 -5.71857 0.420318 0
M  V30 2885 N 285.091 -6.89717 0.652816 0
M  V30 2886 N 286.884 -5.60972 0.355957 0
M  V30 2887 H 279.035 -1.80589 1.11809 0
M  V30 2888 H 281.298 -0.837178 0.444788 0
M  V30 2889 H 281.004 -3.33916 1.10422 0
M  V30 2890 H 280.878 -3.72344 -0.603299 0
M  V30 2891 H 283.265 -2.79403 -0.949636 0
M  V30 2892 H 283.346 -2.43578 0.781238 0
M  V30 2893 H 282.99 -4.913 1.28788 0
M  V30 2894 H 282.92 -5.24579 -0.460876 0
M  V30 2895 H 285.411 -3.77829 0.0731895 0
M  V30 2896 H 285.724 -7.68911 0.774347 0
M  V30 2897 H 284.069 -6.91572 0.689476 0
M  V30 2898 H 287.26 -4.67773 0.174882 0
M  V30 2899 H 287.433 -6.46111 0.494388 0
M  V30 2900 N 280.839 0.0985539 -1.57292 0
M  V30 2901 C 281.769 1.12064 -2.04851 0
M  V30 2902 C 282.75 1.41981 -0.936767 0
M  V30 2903 O 283.935 1.52071 -1.20781 0
M  V30 2904 C 281.065 2.44144 -2.47004 0
M  V30 2905 C 280.019 2.28643 -3.6181 0
M  V30 2906 C 279.345 3.65869 -3.89929 0
M  V30 2907 C 280.645 1.72986 -4.92822 0
M  V30 2908 H 282.339 0.724979 -2.9049 0
M  V30 2909 H 279.885 0.34729 -1.39749 0
M  V30 2910 H 281.838 3.15914 -2.78884 0
M  V30 2911 H 280.562 2.85639 -1.5836 0
M  V30 2912 H 279.221 1.59318 -3.30172 0
M  V30 2913 H 278.869 4.04885 -2.98458 0
M  V30 2914 H 278.569 3.56344 -4.67218 0
M  V30 2915 H 280.093 4.39112 -4.2428 0
M  V30 2916 H 281.507 2.34593 -5.23105 0
M  V30 2917 H 279.904 1.74229 -5.74251 0
M  V30 2918 H 280.974 0.689007 -4.7998 0
M  V30 2919 N 282.317 1.53212 0.369288 0
M  V30 2920 C 283.25 1.74166 1.4745 0
M  V30 2921 C 284.228 0.589923 1.51521 0
M  V30 2922 O 285.412 0.822078 1.69629 0
M  V30 2923 C 282.539 1.81711 2.8583 0
M  V30 2924 C 281.585 3.03649 2.99499 0
M  V30 2925 S 282.418 4.63242 2.6864 0
M  V30 2926 C 283.574 4.7363 4.09177 0
M  V30 2927 H 283.807 2.67636 1.29454 0
M  V30 2928 H 281.34 1.43754 0.563396 0
M  V30 2929 H 283.298 1.86743 3.65564 0
M  V30 2930 H 281.959 0.89299 3.01139 0
M  V30 2931 H 281.152 3.05526 4.00836 0
M  V30 2932 H 280.754 2.9671 2.27683 0
M  V30 2933 H 283.046 4.53456 5.03372 0
M  V30 2934 H 283.989 5.75682 4.12306 0
M  V30 2935 H 284.397 4.02295 3.96004 0
M  V30 2936 N 283.795 -0.628877 1.44509 0
M  V30 2937 C 285.072 -1.38733 1.37886 0
M  V30 2938 C 285.452 -2.11065 0.0387008 0
M  V30 2939 O 284.8 -2.06476 -0.97878 0
M  V30 2940 C 285.01 -2.35188 2.57852 0
M  V30 2941 C 286.358 -2.9845 3.02014 0
M  V30 2942 O 287.382 -2.45513 2.58073 0
M  V30 2943 O 286.241 -3.94487 3.78209 0
M  V30 2944 H 283.335 -0.621015 0.54614 0
M  V30 2945 H 285.881 -0.653744 1.56602 0
M  V30 2946 H 284.653 -1.80855 3.46998 0
M  V30 2947 H 284.276 -3.1596 2.4136 0
M  V30 2948 N 285.273 -1.31445 -0.869486 0
M  V30 2949 C 286.22 -1.19135 -1.97675 0
M  V30 2950 C 287.19 -0.0770266 -1.65921 0
M  V30 2951 O 288.375 -0.249972 -1.89155 0
M  V30 2952 C 285.515 -0.905149 -3.33018 0
M  V30 2953 C 284.628 -2.10285 -3.77365 0
M  V30 2954 C 283.763 -1.75339 -5.01427 0
M  V30 2955 C 282.802 -2.91515 -5.38224 0
M  V30 2956 N 281.939 -2.56762 -6.53466 0
M  V30 2957 H 286.779 -2.13853 -2.07535 0
M  V30 2958 H 284.316 -1.06379 -1.01597 0
M  V30 2959 H 286.274 -0.719765 -4.10944 0
M  V30 2960 H 284.904 0.00519624 -3.228 0
M  V30 2961 H 283.956 -2.39899 -2.95216 0
M  V30 2962 H 285.268 -2.97237 -4.00564 0
M  V30 2963 H 284.422 -1.53266 -5.87022 0
M  V30 2964 H 283.161 -0.855801 -4.80133 0
M  V30 2965 H 282.166 -3.14237 -4.51149 0
M  V30 2966 H 283.391 -3.81985 -5.61484 0
M  V30 2967 H 281.337 -1.69526 -6.33717 0
M  V30 2968 H 281.254 -3.37243 -6.76612 0
M  V30 2969 H 282.522 -2.38083 -7.42251 0
M  V30 2970 N 286.751 1.08385 -1.14413 0
M  V30 2971 C 287.997 1.81044 -0.913834 0
M  V30 2972 C 288.33 1.86004 0.558209 0
M  V30 2973 O 287.605 1.33606 1.4135 0
M  V30 2974 C 287.888 3.26648 -1.51569 0
M  V30 2975 C 287.741 3.29895 -3.0576 0
M  V30 2976 C 289.06 4.23629 -1.19273 0
M  V30 2977 H 286.179 0.65727 -0.333414 0
M  V30 2978 H 288.821 1.26896 -1.41412 0
M  V30 2979 H 286.971 3.72889 -1.09023 0
M  V30 2980 H 288.643 2.91977 -3.57137 0
M  V30 2981 H 286.886 2.69163 -3.40197 0
M  V30 2982 H 287.557 4.32516 -3.42977 0
M  V30 2983 H 290.033 3.85727 -1.56057 0
M  V30 2984 H 288.909 5.23822 -1.64017 0
M  V30 2985 H 289.17 4.41968 -0.108068 0
M  V30 2986 N 288.23 0.939286 1.26551 0
M  V30 2987 C 289.14 0.453432 2.30176 0
M  V30 2988 C 290.156 -0.471649 1.67486 0
M  V30 2989 O 291.332 -0.35164 1.98306 0
M  V30 2990 C 288.397 -0.275326 3.45605 0
M  V30 2991 C 287.458 0.686084 4.23782 0
M  V30 2992 C 286.691 -0.00798994 5.33699 0
M  V30 2993 O 286.914 -1.22528 5.57085 0
M  V30 2994 O 285.848 0.669746 5.98162 0
M  V30 2995 H 289.674 1.31416 2.73795 0
M  V30 2996 H 287.259 0.705095 1.31715 0
M  V30 2997 H 289.141 -0.685911 4.1578 0
M  V30 2998 H 287.816 -1.11147 3.0402 0
M  V30 2999 H 286.723 1.14658 3.56096 0
M  V30 3000 H 288.056 1.48979 4.69112 0
M  V30 3001 N 289.708 -1.40897 0.706093 0
M  V30 3002 C 290.656 -2.32572 0.0361893 0
M  V30 3003 C 291.65 -1.51532 -0.757266 0
M  V30 3004 O 292.856 -1.67396 -0.661703 0
M  V30 3005 H 289.231 -0.751966 -0.00709935 0
M  V30 3006 H 291.202 -2.86733 0.826249 0
M  V30 3007 C 289.951 -3.36418 -0.87854 0
M  V30 3008 H 289.274 -3.98836 -0.277401 0
M  V30 3009 H 290.714 -4.0308 -1.3154 0
M  V30 3010 C 289.173 -2.71141 -1.99961 0
M  V30 3011 O 289.703 -2.56735 -3.0895 0
M  V30 3012 N 287.909 -2.29671 -1.78043 0
M  V30 3013 H 287.456 -2.41588 -0.894042 0
M  V30 3014 H 287.414 -1.86332 -2.53235 0
M  V30 3015 N 291.186 -0.45159 -1.50991 0
M  V30 3016 C 292.434 0.109857 -2.01801 0
M  V30 3017 C 292.755 1.41958 -1.3369 0
M  V30 3018 O 292.025 1.9003 -0.475951 0
M  V30 3019 H 290.605 0.0435884 -0.745727 0
M  V30 3020 H 293.267 -0.597557 -1.85514 0
M  V30 3021 H 292.363 0.275489 -3.10882 0
M  V30 3022 N 292.664 1.56529 -0.183458 0
M  V30 3023 C 293.612 2.19873 0.758845 0
M  V30 3024 C 294.606 1.16638 1.22849 0
M  V30 3025 O 295.812 1.3481 1.19274 0
M  V30 3026 H 292.187 0.7045 0.263029 0
M  V30 3027 H 294.158 2.97724 0.200755 0
M  V30 3028 C 292.907 2.86314 1.9728 0
M  V30 3029 H 292.23 3.65487 1.62047 0
M  V30 3030 H 293.67 3.3409 2.61075 0
M  V30 3031 C 292.129 1.86729 2.80418 0
M  V30 3032 O 292.659 1.36031 3.77966 0
M  V30 3033 N 290.865 1.55216 2.45675 0
M  V30 3034 H 290.412 1.96636 1.66409 0
M  V30 3035 H 290.37 0.888388 3.01588 0
M  V30 3036 N 294.142 -0.090211 1.57342 0
M  V30 3037 C 295.391 -0.791531 1.8552 0
M  V30 3038 C 295.704 -1.79659 0.773441 0
M  V30 3039 O 296.91 -2.54616 0.942497 0
M  V30 3040 C 295.366 -1.45856 3.2902 0
M  V30 3041 C 294.974 -0.493017 4.45279 0
M  V30 3042 C 296.718 -2.14332 3.66418 0
M  V30 3043 C 294.625 -1.16491 5.79814 0
M  V30 3044 H 293.555 -0.299356 0.692027 0
M  V30 3045 H 296.206 -0.0445343 1.83446 0
M  V30 3046 H 294.588 -2.25318 3.2565 0
M  V30 3047 H 295.762 0.270464 4.60006 0
M  V30 3048 H 294.077 0.0863061 4.16311 0
M  V30 3049 H 296.674 -2.65344 4.64216 0
M  V30 3050 H 297.017 -2.93447 2.95287 0
M  V30 3051 H 297.55 -1.41724 3.71698 0
M  V30 3052 H 294.289 -0.41447 6.54188 0
M  V30 3053 H 293.809 -1.8997 5.68921 0
M  V30 3054 H 295.488 -1.69001 6.24538 0
M  V30 3055 N 295.62 -1.53406 -0.361157 0
M  V30 3056 C 296.869 -1.69022 -1.10066 0
M  V30 3057 C 297.182 -0.450838 -1.90333 0
M  V30 3058 O 298.388 -0.487617 -2.67085 0
M  V30 3059 C 296.844 -2.98812 -2.00598 0
M  V30 3060 C 296.452 -4.30027 -1.25621 0
M  V30 3061 C 298.196 -3.23795 -2.74513 0
M  V30 3062 C 296.103 -5.50903 -2.1508 0
M  V30 3063 H 295.033 -0.629776 -0.414606 0
M  V30 3064 H 297.684 -1.79907 -0.361348 0
M  V30 3065 H 296.066 -2.8174 -2.78278 0
M  V30 3066 H 297.24 -4.57745 -0.529739 0
M  V30 3067 H 295.555 -4.11522 -0.635496 0
M  V30 3068 H 298.152 -4.11289 -3.41681 0
M  V30 3069 H 298.495 -2.40045 -3.40123 0
M  V30 3070 H 299.028 -3.41561 -2.03914 0
M  V30 3071 H 295.767 -6.37143 -1.54041 0
M  V30 3072 H 295.287 -5.27459 -2.85565 0
M  V30 3073 H 296.966 -5.85865 -2.74538 0
M  V30 3074 N 297.098 0.621204 -1.44841 0
M  V30 3075 C 298.028 1.74366 -1.55303 0
M  V30 3076 C 299.009 1.65199 -0.405385 0
M  V30 3077 O 300.194 1.83807 -0.626787 0
M  V30 3078 C 297.324 3.12931 -1.50637 0
M  V30 3079 C 296.278 3.36896 -2.63979 0
M  V30 3080 C 295.604 4.75594 -2.44366 0
M  V30 3081 C 296.904 3.28483 -4.06074 0
M  V30 3082 H 298.598 1.65867 -2.49256 0
M  V30 3083 H 296.144 0.796558 -1.19962 0
M  V30 3084 H 298.097 3.9124 -1.56555 0
M  V30 3085 H 296.821 3.22237 -0.532057 0
M  V30 3086 H 295.48 2.60972 -2.57467 0
M  V30 3087 H 295.128 4.81616 -1.45105 0
M  V30 3088 H 294.828 4.92586 -3.20364 0
M  V30 3089 H 296.352 5.5612 -2.52117 0
M  V30 3090 H 297.766 3.96684 -4.13902 0
M  V30 3091 H 296.163 3.57008 -4.82354 0
M  V30 3092 H 297.233 2.26133 -4.28943 0
M  V30 3093 N 298.576 1.31904 0.862503 0
M  V30 3094 C 299.526 1.16772 1.95827 0
M  V30 3095 C 300.51 0.0767098 1.60717 0
M  V30 3096 O 301.702 0.302407 1.74398 0
M  V30 3097 C 298.831 0.884858 3.317 0
M  V30 3098 C 297.917 2.0172 3.73055 0
M  V30 3099 N 298.308 3.265 3.86305 0
M  V30 3100 C 296.606 1.91861 4.02623 0
M  V30 3101 C 297.307 4.00616 4.2176 0
M  V30 3102 N 296.283 3.28847 4.32852 0
M  V30 3103 H 300.085 2.11382 2.04193 0
M  V30 3104 H 297.599 1.2357 1.05377 0
M  V30 3105 H 299.596 0.757419 4.09962 0
M  V30 3106 H 298.256 -0.0529448 3.24657 0
M  V30 3107 H 299.267 3.61529 3.70833 0
M  V30 3108 H 295.944 1.05593 4.03926 0
M  V30 3109 H 297.334 5.08182 4.39546 0
M  V30 3110 N 300.054 -1.07777 1.14986 0
M  V30 3111 C 301.282 -1.84018 0.945773 0
M  V30 3112 C 301.697 -1.81897 -0.505863 0
M  V30 3113 O 301.054 -1.22726 -1.35072 0
M  V30 3114 C 301.105 -3.31287 1.44677 0
M  V30 3115 O 300.826 -3.33449 2.84154 0
M  V30 3116 C 302.327 -4.24311 1.28355 0
M  V30 3117 H 299.547 -0.580716 0.336169 0
M  V30 3118 H 302.091 -1.36077 1.52654 0
M  V30 3119 H 300.246 -3.76594 0.908625 0
M  V30 3120 H 300.66 -4.25427 3.06777 0
M  V30 3121 H 302.134 -5.2573 1.68261 0
M  V30 3122 H 302.611 -4.38612 0.227184 0
M  V30 3123 H 303.217 -3.84836 1.81056 0
M  V30 3124 N 301.532 -0.945985 -1.26051 0
M  V30 3125 C 302.48 -0.450259 -2.282 0
M  V30 3126 C 303.474 0.47497 -1.62605 0
M  V30 3127 O 304.68 0.352653 -1.76512 0
M  V30 3128 H 301.055 -0.127081 -0.741184 0
M  V30 3129 H 303.026 -1.32422 -2.67408 0
M  V30 3130 C 301.775 0.26467 -3.46691 0
M  V30 3131 H 301.098 -0.438123 -3.97392 0
M  V30 3132 H 302.538 0.575678 -4.20074 0
M  V30 3133 C 300.997 1.48416 -3.02447 0
M  V30 3134 O 301.527 2.58227 -3.07704 0
M  V30 3135 N 299.733 1.34243 -2.57735 0
M  V30 3136 H 299.28 0.448994 -2.53657 0
M  V30 3137 H 299.238 2.15957 -2.28495 0
M  V30 3138 N 303.011 1.40521 -0.713556 0
M  V30 3139 C 304.427 1.54839 -0.386907 0
M  V30 3140 C 304.627 1.68532 1.1045 0
M  V30 3141 O 303.683 1.67377 1.89053 0
M  V30 3142 C 304.996 2.77792 -1.15118 0
M  V30 3143 C 306.544 2.91607 -1.13729 0
M  V30 3144 C 307.019 4.1747 -1.88368 0
M  V30 3145 N 308.51 4.24466 -1.85427 0
M  V30 3146 C 309.245 5.20755 -2.40004 0
M  V30 3147 N 308.741 6.22965 -3.03129 0
M  V30 3148 N 310.534 5.1282 -2.30158 0
M  V30 3149 H 302.685 1.29879 -1.68063 0
M  V30 3150 H 304.948 0.627896 -0.710247 0
M  V30 3151 H 304.654 2.73944 -2.20561 0
M  V30 3152 H 304.528 3.6984 -0.741477 0
M  V30 3153 H 306.915 2.94959 -0.0910608 0
M  V30 3154 H 306.996 2.00682 -1.5862 0
M  V30 3155 H 306.64 4.1488 -2.9298 0
M  V30 3156 H 306.57 5.074 -1.40898 0
M  V30 3157 H 309.061 3.51241 -1.3942 0
M  V30 3158 H 309.374 6.92859 -3.42295 0
M  V30 3159 H 307.719 6.23415 -3.07212 0
M  V30 3160 H 310.91 4.31899 -1.80501 0
M  V30 3161 H 311.083 5.87689 -2.72993 0
M  V30 3162 N 304.489 0.459591 1.5075 0
M  V30 3163 C 305.717 -0.0973749 2.06671 0
M  V30 3164 C 306.132 -1.34524 1.32472 0
M  V30 3165 O 305.489 -1.7827 0.390634 0
M  V30 3166 C 305.54 -0.39714 3.59312 0
M  V30 3167 O 305.261 0.801214 4.30711 0
M  V30 3168 C 306.762 -1.00234 4.31819 0
M  V30 3169 H 303.982 0.00195854 0.670997 0
M  V30 3170 H 306.526 0.645072 1.94059 0
M  V30 3171 H 304.681 -1.08951 3.71764 0
M  V30 3172 H 305.095 0.538857 5.21725 0
M  V30 3173 H 306.569 -1.16193 5.39632 0
M  V30 3174 H 307.046 -1.98939 3.91561 0
M  V30 3175 H 307.652 -0.348699 4.23868 0
M  V30 3176 N 305.967 -1.56429 0.191757 0
M  V30 3177 C 306.897 -2.21937 -0.725696 0
M  V30 3178 C 307.878 -1.1814 -1.2238 0
M  V30 3179 O 309.063 -1.46636 -1.27325 0
M  V30 3180 C 306.193 -2.87611 -1.94672 0
M  V30 3181 C 305.147 -3.97623 -1.58366 0
M  V30 3182 C 304.473 -4.50446 -2.88102 0
M  V30 3183 C 305.773 -5.16197 -0.796133 0
M  V30 3184 H 307.467 -2.98861 -0.179606 0
M  V30 3185 H 305.013 -1.43749 -0.0849464 0
M  V30 3186 H 306.966 -3.3212 -2.59373 0
M  V30 3187 H 305.69 -2.08087 -2.51728 0
M  V30 3188 H 304.349 -3.53801 -0.960247 0
M  V30 3189 H 303.997 -3.67688 -3.43241 0
M  V30 3190 H 303.697 -5.24675 -2.64556 0
M  V30 3191 H 305.221 -4.97654 -3.53798 0
M  V30 3192 H 306.635 -5.57271 -1.34618 0
M  V30 3193 H 305.032 -5.96471 -0.658928 0
M  V30 3194 H 306.102 -4.84473 0.203478 0
M  V30 3195 N 307.445 0.0818655 -1.57387 0
M  V30 3196 C 308.355 1.11642 -2.06333 0
M  V30 3197 C 309.371 1.43033 -0.99083 0
M  V30 3198 O 310.547 1.53411 -1.30488 0
M  V30 3199 C 307.612 2.41342 -2.48907 0
M  V30 3200 C 306.673 2.17014 -3.7041 0
M  V30 3201 C 305.906 3.4053 -4.10944 0
M  V30 3202 O 306.129 4.4927 -3.51444 0
M  V30 3203 O 305.063 3.29336 -5.03807 0
M  V30 3204 H 308.889 0.730657 -2.9478 0
M  V30 3205 H 306.474 0.295301 -1.46452 0
M  V30 3206 H 308.356 3.17691 -2.76858 0
M  V30 3207 H 307.031 2.79319 -1.63593 0
M  V30 3208 H 305.938 1.38403 -3.47556 0
M  V30 3209 H 307.271 1.83923 -4.56545 0
M  V30 3210 N 308.923 1.53595 0.353017 0
M  V30 3211 C 309.833 1.83897 1.45667 0
M  V30 3212 C 310.849 0.728334 1.58023 0
M  V30 3213 O 312.025 1.01968 1.73679 0
M  V30 3214 C 309.09 2.03383 2.80778 0
M  V30 3215 C 308.151 3.27262 2.77845 0
M  V30 3216 C 307.384 3.45809 4.06512 0
M  V30 3217 O 307.607 2.68387 5.03314 0
M  V30 3218 O 306.541 4.39207 4.11559 0
M  V30 3219 H 310.367 2.77686 1.2298 0
M  V30 3220 H 307.952 1.39132 0.544308 0
M  V30 3221 H 309.834 2.17698 3.60812 0
M  V30 3222 H 308.509 1.12783 3.03417 0
M  V30 3223 H 307.416 3.18359 1.96465 0
M  V30 3224 H 308.749 4.17824 2.60161 0
M  V30 3225 N 310.401 -0.613514 1.45168 0
M  V30 3226 C 311.647 -1.37471 1.49096 0
M  V30 3227 C 311.98 -1.93765 0.129901 0
M  V30 3228 O 311.255 -1.74707 -0.854858 0
M  V30 3229 C 311.538 -2.52701 2.56542 0
M  V30 3230 C 311.391 -2.01643 4.0207 0
M  V30 3231 C 312.71 -3.54849 2.60327 0
M  V30 3232 H 309.829 -0.498502 0.54283 0
M  V30 3233 H 312.471 -0.692125 1.76945 0
M  V30 3234 H 310.621 -3.10931 2.32926 0
M  V30 3235 H 312.293 -1.48108 4.36877 0
M  V30 3236 H 310.536 -1.32688 4.13009 0
M  V30 3237 H 311.207 -2.84681 4.72928 0
M  V30 3238 H 313.683 -3.0645 2.81474 0
M  V30 3239 H 312.559 -4.32973 3.37381 0
M  V30 3240 H 312.82 -4.10079 1.6519 0
M  V30 3241 N 311.879 -1.3236 -0.855495 0
M  V30 3242 C 313.107 -1.2587 -1.64208 0
M  V30 3243 C 313.522 0.173457 -1.88002 0
M  V30 3244 O 312.879 1.11027 -1.44842 0
M  V30 3245 C 312.93 -2.01424 -3.00184 0
M  V30 3246 O 312.651 -3.39051 -2.77445 0
M  V30 3247 C 314.152 -2.01948 -3.94629 0
M  V30 3248 H 311.372 -0.434318 -0.511477 0
M  V30 3249 H 313.916 -1.74469 -1.0668 0
M  V30 3250 H 312.071 -1.56549 -3.5436 0
M  V30 3251 H 312.485 -3.77711 -3.63916 0
M  V30 3252 H 313.959 -2.59297 -4.87308 0
M  V30 3253 H 314.436 -1.00554 -4.27534 0
M  V30 3254 H 315.042 -2.46767 -3.4639 0
M  V30 3255 N 313.357 1.07166 -1.15556 0
M  V30 3256 C 314.605 1.79443 -0.929764 0
M  V30 3257 C 314.926 1.87246 0.544414 0
M  V30 3258 O 314.196 1.37473 1.39564 0
M  V30 3259 H 312.776 0.664625 -0.341003 0
M  V30 3260 H 315.438 1.29499 -1.45657 0
M  V30 3261 H 314.534 2.81832 -1.34079 0
M  V30 3262 N 314.835 0.952656 1.25548 0
M  V30 3263 C 316.112 0.523818 1.88456 0
M  V30 3264 C 316.492 -0.998871 1.85973 0
M  V30 3265 O 315.84 -1.86381 1.3219 0
M  V30 3266 C 316.05 1.0982 3.31271 0
M  V30 3267 C 317.398 1.17385 4.08051 0
M  V30 3268 O 318.422 1.04961 3.40384 0
M  V30 3269 O 317.281 1.36852 5.29088 0
M  V30 3270 H 314.375 0.172485 0.808813 0
M  V30 3271 H 316.921 1.04596 1.33633 0
M  V30 3272 H 315.693 2.1415 3.27499 0
M  V30 3273 H 315.316 0.559191 3.93648 0
M  V30 3274 N 316.313 -1.40141 0.720998 0
M  V30 3275 C 317.245 -2.29177 0.0324669 0
M  V30 3276 C 318.258 -1.46105 -0.718126 0
M  V30 3277 O 319.447 -1.69335 -0.564608 0
M  V30 3278 C 316.547 -3.24473 -0.978292 0
M  V30 3279 C 315.72 -4.36423 -0.292115 0
M  V30 3280 C 314.779 -5.12122 -1.20901 0
M  V30 3281 O 313.805 -5.64981 -0.691766 0
M  V30 3282 N 315.007 -5.21992 -2.53978 0
M  V30 3283 H 317.772 -2.88909 0.796984 0
M  V30 3284 H 315.333 -1.51569 0.569068 0
M  V30 3285 H 317.325 -3.71987 -1.59398 0
M  V30 3286 H 315.895 -2.65871 -1.64413 0
M  V30 3287 H 315.115 -3.90967 0.503847 0
M  V30 3288 H 316.403 -5.08467 0.183971 0
M  V30 3289 H 315.801 -4.8054 -2.98493 0
M  V30 3290 H 314.358 -5.72995 -3.10677 0
M  V30 3291 N 317.792 -0.46758 -1.50504 0
M  V30 3292 C 318.725 0.374324 -2.25109 0
M  V30 3293 C 319.703 0.99921 -1.28275 0
M  V30 3294 O 320.887 1.03583 -1.57489 0
M  V30 3295 C 318.014 1.52419 -3.02467 0
M  V30 3296 C 317.06 1.01702 -4.14197 0
M  V30 3297 S 317.893 -0.0654477 -5.3546 0
M  V30 3298 C 319.049 1.08837 -6.16365 0
M  V30 3299 H 319.282 -0.258983 -2.9617 0
M  V30 3300 H 316.815 -0.252421 -1.52323 0
M  V30 3301 H 318.773 2.18322 -3.47628 0
M  V30 3302 H 317.434 2.129 -2.30938 0
M  V30 3303 H 316.627 1.87776 -4.67714 0
M  V30 3304 H 316.229 0.435757 -3.71453 0
M  V30 3305 H 318.521 2.00071 -6.47285 0
M  V30 3306 H 319.464 0.592538 -7.05616 0
M  V30 3307 H 319.872 1.34061 -5.4835 0
M  V30 3308 N 319.27 1.56325 -0.20005 0
M  V30 3309 C 320.518 1.97329 0.436547 0
M  V30 3310 C 320.839 1.08826 1.61808 0
M  V30 3311 O 320.109 0.160604 1.95241 0
M  V30 3312 H 318.689 0.728714 0.164272 0
M  V30 3313 H 321.351 1.92761 -0.287937 0
M  V30 3314 H 320.447 3.02264 0.777353 0
M  V30 3315 N 320.748 -0.0735177 1.57428 0
M  V30 3316 C 321.994 -0.774145 1.87443 0
M  V30 3317 C 322.327 -1.77311 0.792103 0
M  V30 3318 O 321.602 -1.93492 -0.197793 0
M  V30 3319 C 321.885 -1.48367 3.28115 0
M  V30 3320 C 321.738 -0.501227 4.46999 0
M  V30 3321 C 323.057 -2.429 3.66998 0
M  V30 3322 H 320.176 -0.279971 0.681752 0
M  V30 3323 H 322.818 -0.0373616 1.89963 0
M  V30 3324 H 320.968 -2.11171 3.26097 0
M  V30 3325 H 322.64 0.121468 4.6114 0
M  V30 3326 H 320.883 0.183593 4.33411 0
M  V30 3327 H 321.554 -1.03526 5.42205 0
M  V30 3328 H 324.03 -1.90175 3.70098 0
M  V30 3329 H 322.906 -2.89549 4.66318 0
M  V30 3330 H 323.167 -3.27628 2.96837 0
M  V30 3331 N 322.226 -1.5378 -0.344866 0
M  V30 3332 C 323.454 -1.74899 -1.10534 0
M  V30 3333 C 323.869 -0.487534 -1.82397 0
M  V30 3334 O 323.226 0.540741 -1.74305 0
M  V30 3335 C 323.277 -2.92822 -2.11984 0
M  V30 3336 O 322.998 -4.14089 -1.43044 0
M  V30 3337 C 324.499 -3.25982 -3.00417 0
M  V30 3338 H 321.719 -0.584426 -0.329678 0
M  V30 3339 H 324.263 -2.006 -0.397474 0
M  V30 3340 H 322.418 -2.69457 -2.78338 0
M  V30 3341 H 322.832 -4.80272 -2.10805 0
M  V30 3342 H 324.306 -4.11848 -3.67539 0
M  V30 3343 H 324.783 -2.42228 -3.66363 0
M  V30 3344 H 325.389 -3.51349 -2.39654 0
M  V30 3345 N 323.704 0.605807 -1.45491 0
M  V30 3346 C 324.952 1.36207 -1.49305 0
M  V30 3347 C 325.273 1.94519 -0.136863 0
M  V30 3348 O 324.543 1.77261 0.833983 0
M  V30 3349 H 323.123 0.50565 -0.549843 0
M  V30 3350 H 325.785 0.711239 -1.81459 0
M  V30 3351 H 324.881 2.18058 -2.23287 0
M  V30 3352 N 325.182 1.32811 0.848464 0
M  V30 3353 C 326.428 1.23907 1.60546 0
M  V30 3354 C 326.761 -0.197161 1.93197 0
M  V30 3355 O 326.036 -1.13596 1.5788 0
M  V30 3356 C 326.319 2.10489 2.92175 0
M  V30 3357 C 326.172 3.62522 2.66266 0
M  V30 3358 C 327.491 1.97075 3.93509 0
M  V30 3359 H 324.61 0.451459 0.58254 0
M  V30 3360 H 327.252 1.62818 0.979296 0
M  V30 3361 H 325.402 1.77434 3.45614 0
M  V30 3362 H 327.074 4.05821 2.19334 0
M  V30 3363 H 325.317 3.84879 2.00126 0
M  V30 3364 H 325.988 4.18437 3.6002 0
M  V30 3365 H 328.464 2.26045 3.49346 0
M  V30 3366 H 327.34 2.59923 4.83457 0
M  V30 3367 H 327.601 0.940186 4.31987 0
M  V30 3368 N 326.66 -1.06551 1.16123 0
M  V30 3369 C 328.076 -1.3142 0.905585 0
M  V30 3370 C 328.276 -1.96571 -0.442964 0
M  V30 3371 O 327.332 -2.23068 -1.18308 0
M  V30 3372 C 328.645 -2.19741 2.05267 0
M  V30 3373 C 330.193 -2.33165 2.08813 0
M  V30 3374 C 330.668 -3.24838 3.22868 0
M  V30 3375 N 332.159 -3.32421 3.22568 0
M  V30 3376 C 332.894 -4.0344 4.0746 0
M  V30 3377 N 332.39 -4.77003 5.02434 0
M  V30 3378 N 334.183 -3.99464 3.95456 0
M  V30 3379 H 326.334 -0.626548 2.02949 0
M  V30 3380 H 328.597 -0.338777 0.8854 0
M  V30 3381 H 328.303 -1.79142 3.02657 0
M  V30 3382 H 328.177 -3.20313 1.99198 0
M  V30 3383 H 330.564 -2.73013 1.12018 0
M  V30 3384 H 330.645 -1.3227 2.18948 0
M  V30 3385 H 330.289 -2.85708 4.19921 0
M  V30 3386 H 330.219 -4.25707 3.0997 0
M  V30 3387 H 332.71 -2.79994 2.53795 0
M  V30 3388 H 333.023 -5.28712 5.63634 0
M  V30 3389 H 331.368 -4.75992 5.06415 0
M  V30 3390 H 334.559 -3.4111 3.20564 0
M  V30 3391 H 334.732 -4.54544 4.61837 0
M  V30 3392 N 328.138 -0.959301 -1.25041 0
M  V30 3393 C 329.068 -0.501388 -2.28053 0
M  V30 3394 C 330.049 0.454673 -1.63911 0
M  V30 3395 O 331.234 0.352618 -1.90972 0
M  V30 3396 C 328.364 0.217224 -3.4662 0
M  V30 3397 C 327.318 -0.654034 -4.22973 0
M  V30 3398 C 326.644 0.195589 -5.34342 0
M  V30 3399 C 327.944 -1.93447 -4.85155 0
M  V30 3400 H 329.638 -1.36238 -2.66608 0
M  V30 3401 H 327.184 -0.656534 -1.28163 0
M  V30 3402 H 329.137 0.548732 -4.17812 0
M  V30 3403 H 327.861 1.1125 -3.07068 0
M  V30 3404 H 326.52 -0.968693 -3.5357 0
M  V30 3405 H 326.168 1.09076 -4.91031 0
M  V30 3406 H 325.868 -0.384091 -5.86343 0
M  V30 3407 H 327.392 0.521958 -6.08365 0
M  V30 3408 H 328.806 -1.66908 -5.48466 0
M  V30 3409 H 327.203 -2.46018 -5.47353 0
M  V30 3410 H 328.273 -2.63466 -4.07079 0
M  V30 3411 N 329.616 1.39756 -0.72842 0
M  V30 3412 C 331.032 1.5442 -0.403308 0
M  V30 3413 C 331.232 1.69694 1.08656 0
M  V30 3414 O 330.288 1.69373 1.87267 0
M  V30 3415 C 331.601 2.76555 -1.18058 0
M  V30 3416 C 333.149 2.90384 -1.16815 0
M  V30 3417 C 333.624 4.15449 -1.92785 0
M  V30 3418 N 335.115 4.22475 -1.89918 0
M  V30 3419 C 335.85 5.1818 -2.45514 0
M  V30 3420 N 335.346 6.19714 -3.09719 0
M  V30 3421 N 337.139 5.1035 -2.35584 0
M  V30 3422 H 329.29 1.28089 -1.69431 0
M  V30 3423 H 331.553 0.620327 -0.716867 0
M  V30 3424 H 331.259 2.7159 -2.23455 0
M  V30 3425 H 331.133 3.69033 -0.780662 0
M  V30 3426 H 333.52 2.94846 -0.12234 0
M  V30 3427 H 333.601 1.98988 -1.6074 0
M  V30 3428 H 333.245 4.11749 -2.97364 0
M  V30 3429 H 333.175 5.05877 -1.46272 0
M  V30 3430 H 335.666 3.49743 -1.43138 0
M  V30 3431 H 335.979 6.8919 -3.49625 0
M  V30 3432 H 334.324 6.20121 -3.13807 0
M  V30 3433 H 337.515 4.2996 -1.85072 0
M  V30 3434 H 337.688 5.84761 -2.79211 0
M  V30 3435 N 331.094 0.475555 1.50254 0
M  V30 3436 C 332.371 -0.139685 1.95101 0
M  V30 3437 C 332.751 -1.56555 1.41611 0
M  V30 3438 O 332.099 -2.19956 0.618993 0
M  V30 3439 C 332.309 -0.0784298 3.48912 0
M  V30 3440 C 333.657 -0.265095 4.23772 0
M  V30 3441 O 334.681 -0.154808 3.55863 0
M  V30 3442 O 333.54 -0.488327 5.44314 0
M  V30 3443 H 330.634 -0.109236 0.819754 0
M  V30 3444 H 333.18 0.536276 1.61004 0
M  V30 3445 H 331.952 0.916918 3.80405 0
M  V30 3446 H 331.575 -0.795655 3.89558 0
M  V30 3447 N 332.573 -1.56217 0.208337 0
M  V30 3448 C 333.801 -2.02337 -0.43215 0
M  V30 3449 C 334.216 -1.08834 -1.54275 0
M  V30 3450 O 333.573 -0.0955462 -1.8225 0
M  V30 3451 C 333.624 -3.48072 -0.976138 0
M  V30 3452 O 333.345 -4.38007 0.0901621 0
M  V30 3453 C 334.846 -4.09773 -1.69119 0
M  V30 3454 H 332.066 -0.662385 -0.10718 0
M  V30 3455 H 334.61 -2.01966 0.320923 0
M  V30 3456 H 332.765 -3.49099 -1.67954 0
M  V30 3457 H 333.179 -5.23543 -0.316701 0
M  V30 3458 H 334.653 -5.13556 -2.02397 0
M  V30 3459 H 335.13 -3.53999 -2.59964 0
M  V30 3460 H 335.736 -4.12556 -1.03332 0
M  V30 3461 N 334.051 0.0651679 -1.57465 0
M  V30 3462 C 334.983 1.10359 -2.00882 0
M  V30 3463 C 335.996 1.346 -0.915788 0
M  V30 3464 O 337.185 1.32723 -1.1936 0
M  V30 3465 C 334.285 2.45312 -2.33828 0
M  V30 3466 C 333.458 2.40934 -3.65061 0
M  V30 3467 C 332.517 3.58047 -3.85602 0
M  V30 3468 O 331.543 3.39175 -4.57109 0
M  V30 3469 N 332.745 4.78637 -3.28462 0
M  V30 3470 H 335.51 0.733807 -2.90578 0
M  V30 3471 H 333.071 0.253719 -1.599 0
M  V30 3472 H 335.063 3.22314 -2.44737 0
M  V30 3473 H 333.633 2.74267 -1.49988 0
M  V30 3474 H 332.853 1.49273 -3.64844 0
M  V30 3475 H 334.141 2.35117 -4.51218 0
M  V30 3476 H 333.539 4.96872 -2.70433 0
M  V30 3477 H 332.096 5.53127 -3.44809 0
M  V30 3478 N 335.529 1.53961 0.336706 0
M  V30 3479 C 336.477 1.83136 1.43401 0
M  V30 3480 C 337.471 0.702313 1.54156 0
M  V30 3481 O 338.677 0.885765 1.56698 0
M  V30 3482 H 335.052 0.580309 0.478273 0
M  V30 3483 H 337.023 2.74925 1.16012 0
M  V30 3484 C 335.772 2.06385 2.79822 0
M  V30 3485 H 335.095 2.92718 2.72316 0
M  V30 3486 H 336.535 2.30761 3.55704 0
M  V30 3487 C 334.994 0.851414 3.25964 0
M  V30 3488 O 335.524 0.0541904 4.01663 0
M  V30 3489 N 333.73 0.66672 2.82848 0
M  V30 3490 H 333.277 1.31665 2.21409 0
M  V30 3491 H 333.235 -0.143032 3.14074 0
M  V30 3492 N 337.007 -0.598083 1.45811 0
M  V30 3493 C 338.232 -1.3881 1.54099 0
M  V30 3494 C 338.657 -1.8726 0.177578 0
M  V30 3495 O 338.015 -1.6069 -0.839541 0
M  V30 3496 C 338.063 -2.56217 2.53743 0
M  V30 3497 O 337.167 -3.5716 2.06182 0
M  V30 3498 H 336.508 -0.414024 0.519115 0
M  V30 3499 H 339.038 -0.726971 1.91249 0
M  V30 3500 H 339.048 -3.03337 2.72856 0
M  V30 3501 H 337.723 -2.20303 3.5276 0
M  V30 3502 H 336.3 -3.16624 1.96987 0
M  V30 3503 N 338.485 -1.33259 -0.841409 0
M  V30 3504 C 339.762 -1.15174 -1.58096 0
M  V30 3505 C 340.142 0.282858 -2.09196 0
M  V30 3506 O 339.49 1.28151 -1.89181 0
M  V30 3507 C 339.7 -2.1907 -2.71679 0
M  V30 3508 C 341.048 -2.53093 -3.40924 0
M  V30 3509 O 342.072 -2.17717 -2.81918 0
M  V30 3510 O 340.931 -3.1379 -4.47435 0
M  V30 3511 H 338.025 -0.445303 -0.696875 0
M  V30 3512 H 340.571 -1.44833 -0.884385 0
M  V30 3513 H 339.343 -3.15443 -2.31541 0
M  V30 3514 H 338.966 -1.90481 -3.49002 0
M  V30 3515 N 339.963 1.05934 -1.16686 0
M  V30 3516 C 340.911 2.15603 -0.872817 0
M  V30 3517 C 341.905 1.68647 0.159576 0
M  V30 3518 O 343.111 1.79995 0.0132125 0
M  V30 3519 H 339.486 0.703885 -0.264671 0
M  V30 3520 H 341.457 2.37613 -1.80507 0
M  V30 3521 C 340.206 3.45457 -0.394344 0
M  V30 3522 H 339.529 3.81984 -1.18019 0
M  V30 3523 H 340.969 4.2339 -0.227408 0
M  V30 3524 C 339.428 3.25021 0.88673 0
M  V30 3525 O 339.958 3.50906 1.95519 0
M  V30 3526 N 338.164 2.78437 0.831925 0
M  V30 3527 H 337.711 2.57572 -0.0377619 0
M  V30 3528 H 337.669 2.65144 1.68956 0
M  V30 3529 N 341.441 0.965919 1.2453 0
M  V30 3530 C 342.69 0.622437 1.91856 0
M  V30 3531 C 343.003 -0.846006 1.76358 0
M  V30 3532 O 344.209 -1.29993 2.38357 0
M  V30 3533 C 342.665 1.0626 3.43856 0
M  V30 3534 C 342.273 2.55437 3.68043 0
M  V30 3535 C 344.017 0.792183 4.17043 0
M  V30 3536 C 341.924 2.93196 5.13605 0
M  V30 3537 H 340.854 0.229092 0.718354 0
M  V30 3538 H 343.505 1.17189 1.41206 0
M  V30 3539 H 341.887 0.441476 3.93531 0
M  V30 3540 H 343.061 3.22665 3.28974 0
M  V30 3541 H 341.376 2.8007 3.08139 0
M  V30 3542 H 343.973 1.05031 5.24283 0
M  V30 3543 H 344.316 -0.271584 4.15413 0
M  V30 3544 H 344.849 1.37419 3.73311 0
M  V30 3545 H 341.588 3.98636 5.20355 0
M  V30 3546 H 341.108 2.30651 5.53679 0
M  V30 3547 H 342.787 2.83004 5.81823 0
M  V30 3548 N 342.919 -1.39368 0.735821 0
M  V30 3549 C 343.829 -2.34395 0.0979693 0
M  V30 3550 C 344.845 -1.58361 -0.720968 0
M  V30 3551 O 346.021 -1.90648 -0.649245 0
M  V30 3552 C 343.086 -3.37393 -0.797916 0
M  V30 3553 C 342.147 -4.29287 0.0333662 0
M  V30 3554 C 341.38 -5.27365 -0.819854 0
M  V30 3555 O 341.603 -5.31959 -2.05855 0
M  V30 3556 O 340.537 -6.01389 -0.248079 0
M  V30 3557 H 344.363 -2.90601 0.882315 0
M  V30 3558 H 341.948 -1.40909 0.4965 0
M  V30 3559 H 343.83 -4.00505 -1.31048 0
M  V30 3560 H 342.505 -2.83571 -1.56106 0
M  V30 3561 H 341.412 -3.69395 0.591475 0
M  V30 3562 H 342.745 -4.86317 0.758752 0
M  V30 3563 N 344.397 -0.483516 -1.5 0
M  V30 3564 C 345.622 0.0667119 -2.07293 0
M  V30 3565 C 346.047 1.3164 -1.3436 0
M  V30 3566 O 345.405 1.76945 -0.394987 0
M  V30 3567 C 345.453 0.321126 -3.59167 0
M  V30 3568 O 344.557 1.39927 -3.87936 0
M  V30 3569 H 343.898 -0.0184758 -0.663743 0
M  V30 3570 H 346.428 -0.678125 -1.93035 0
M  V30 3571 H 346.438 0.557906 -4.04168 0
M  V30 3572 H 345.113 -0.592007 -4.11665 0
M  V30 3573 H 343.69 1.14882 -3.54763 0
M  V30 3574 N 345.875 1.56104 -0.216619 0
M  V30 3575 C 346.805 2.23063 0.690296 0
M  V30 3576 C 347.786 1.20072 1.20485 0
M  V30 3577 O 348.971 1.48643 1.24976 0
M  V30 3578 C 346.101 2.90672 1.90072 0
M  V30 3579 C 345.055 4.00092 1.5202 0
M  V30 3580 C 344.381 4.54972 2.80899 0
M  V30 3581 C 345.681 5.17398 0.71391 0
M  V30 3582 H 347.375 2.99109 0.132038 0
M  V30 3583 H 344.921 1.43866 0.0620664 0
M  V30 3584 H 346.874 3.36204 2.54057 0
M  V30 3585 H 345.598 2.12066 2.48386 0
M  V30 3586 H 344.257 3.55283 0.903839 0
M  V30 3587 H 343.905 3.73102 3.37348 0
M  V30 3588 H 343.605 5.28817 2.56176 0
M  V30 3589 H 345.129 5.0322 3.45836 0
M  V30 3590 H 346.543 5.59342 1.25735 0
M  V30 3591 H 344.94 5.97444 0.563951 0
M  V30 3592 H 346.01 4.84088 -0.280527 0
M  V30 3593 N 347.353 -0.0568162 1.57498 0
M  V30 3594 C 348.63 -0.786954 1.79071 0
M  V30 3595 C 349.01 -1.95028 0.80792 0
M  V30 3596 O 348.358 -2.27968 -0.155858 0
M  V30 3597 C 348.568 -1.24594 3.26002 0
M  V30 3598 C 349.916 -1.67323 3.90241 0
M  V30 3599 O 350.94 -1.34124 3.29984 0
M  V30 3600 O 349.799 -2.28842 4.9628 0
M  V30 3601 H 346.893 -0.378262 0.735423 0
M  V30 3602 H 349.439 -0.035734 1.69662 0
M  V30 3603 H 348.211 -0.41423 3.89101 0
M  V30 3604 H 347.834 -2.05803 3.40192 0
M  V30 3605 N 348.832 -1.54138 -0.328536 0
M  V30 3606 C 350.078 -1.7236 -1.06865 0
M  V30 3607 C 350.411 -0.493231 -1.87832 0
M  V30 3608 O 349.686 0.5098 -1.877 0
M  V30 3609 C 349.969 -2.99621 -1.99747 0
M  V30 3610 C 349.822 -4.32899 -1.22143 0
M  V30 3611 C 351.141 -3.22615 -2.99345 0
M  V30 3612 H 348.26 -0.627151 -0.387105 0
M  V30 3613 H 350.902 -1.86827 -0.345767 0
M  V30 3614 H 349.052 -2.87418 -2.61387 0
M  V30 3615 H 350.724 -4.56978 -0.630017 0
M  V30 3616 H 348.967 -4.30628 -0.523628 0
M  V30 3617 H 349.638 -5.18154 -1.90318 0
M  V30 3618 H 352.114 -3.34248 -2.47826 0
M  V30 3619 H 350.99 -4.13027 -3.61524 0
M  V30 3620 H 351.251 -2.3961 -3.71536 0
M  V30 3621 N 350.31 0.590341 -1.46126 0
M  V30 3622 C 351.273 1.68194 -1.55703 0
M  V30 3623 C 352.273 1.54808 -0.434868 0
M  V30 3624 O 353.463 1.59564 -0.698928 0
M  V30 3625 C 350.595 3.07575 -1.47005 0
M  V30 3626 H 351.788 1.61064 -2.52979 0
M  V30 3627 H 349.341 0.807541 -1.33823 0
M  V30 3628 H 350.076 3.20268 -0.509785 0
M  V30 3629 H 349.861 3.187 -2.28414 0
M  V30 3630 H 351.351 3.87055 -1.56776 0
M  V30 3631 N 351.788 1.33704 0.83433 0
M  V30 3632 C 353.036 1.25169 1.58673 0
M  V30 3633 C 353.357 -0.18127 1.94156 0
M  V30 3634 O 352.627 -1.11113 1.6134 0
M  V30 3635 H 351.207 0.4603 0.58833 0
M  V30 3636 H 353.869 1.67478 0.996847 0
M  V30 3637 H 352.965 1.84856 2.51465 0
M  V30 3638 N 353.266 -1.05314 1.17247 0
M  V30 3639 C 354.196 -2.1498 0.911362 0
M  V30 3640 C 355.177 -1.69471 -0.146169 0
M  V30 3641 O 356.362 -1.942 0.003812 0
M  V30 3642 C 353.492 -3.4472 0.422528 0
M  V30 3643 C 352.446 -4.03789 1.4191 0
M  V30 3644 C 351.772 -5.28858 0.788274 0
M  V30 3645 C 353.072 -4.41418 2.7919 0
M  V30 3646 H 354.766 -2.3708 1.82848 0
M  V30 3647 H 352.312 -1.13938 0.880569 0
M  V30 3648 H 354.265 -4.20787 0.227289 0
M  V30 3649 H 352.989 -3.22269 -0.530123 0
M  V30 3650 H 351.648 -3.2979 1.60106 0
M  V30 3651 H 351.296 -5.02709 -0.171173 0
M  V30 3652 H 350.996 -5.69338 1.45353 0
M  V30 3653 H 352.52 -6.07612 0.603282 0
M  V30 3654 H 353.934 -5.08524 2.64719 0
M  V30 3655 H 352.331 -4.92913 3.42282 0
M  V30 3656 H 353.401 -3.51819 3.33693 0
M  V30 3657 N 354.744 -0.972509 -1.24016 0
M  V30 3658 C 355.991 -0.637034 -1.92219 0
M  V30 3659 C 356.319 0.828418 -1.75976 0
M  V30 3660 O 355.574 1.61206 -1.10955 0
M  V30 3661 C 355.873 -0.963694 -3.44162 0
M  V30 3662 C 355.539 -2.41807 -3.80579 0
M  V30 3663 C 354.201 -2.81556 -3.9023 0
M  V30 3664 C 356.553 -3.36172 -3.98293 0
M  V30 3665 C 353.881 -4.14702 -4.15017 0
M  V30 3666 C 356.233 -4.68952 -4.24578 0
M  V30 3667 C 354.897 -5.08472 -4.32449 0
M  V30 3668 H 354.167 -0.233107 -0.703379 0
M  V30 3669 H 356.814 -1.2249 -1.47202 0
M  V30 3670 H 355.119 -0.29365 -3.90698 0
M  V30 3671 H 356.816 -0.682449 -3.9515 0
M  V30 3672 H 353.406 -2.09988 -3.73635 0
M  V30 3673 H 357.59 -3.06644 -3.90234 0
M  V30 3674 H 352.846 -4.4494 -4.19331 0
M  V30 3675 H 357.02 -5.42037 -4.37229 0
M  V30 3676 H 354.647 -6.11665 -4.51409 0
M  V30 3677 N 356.222 1.38976 -0.743202 0
M  V30 3678 C 357.468 2.0064 -0.295189 0
M  V30 3679 C 357.801 1.5885 1.11716 0
M  V30 3680 O 357.076 0.821181 1.76315 0
M  V30 3681 C 357.359 3.578 -0.406318 0
M  V30 3682 C 357.212 4.09586 -1.85903 0
M  V30 3683 C 358.531 4.39616 0.206439 0
M  V30 3684 H 355.65 0.728935 -0.108733 0
M  V30 3685 H 358.292 1.65067 -0.940897 0
M  V30 3686 H 356.442 3.88235 0.143419 0
M  V30 3687 H 358.114 3.89837 -2.46627 0
M  V30 3688 H 356.357 3.6284 -2.3776 0
M  V30 3689 H 357.028 5.18708 -1.888 0
M  V30 3690 H 359.504 4.15273 -0.262283 0
M  V30 3691 H 358.38 5.48812 0.0983819 0
M  V30 3692 H 358.641 4.22754 1.2935 0
M  V30 3693 N 357.7 0.491464 1.49741 0
M  V30 3694 C 358.663 -0.280906 2.27472 0
M  V30 3695 C 359.663 -0.902454 1.33088 0
M  V30 3696 O 360.853 -0.768465 1.56334 0
M  V30 3697 C 357.985 -1.40209 3.10732 0
M  V30 3698 H 359.178 0.401056 2.97206 0
M  V30 3699 H 356.731 0.246131 1.5435 0
M  V30 3700 H 357.466 -2.11849 2.45541 0
M  V30 3701 H 357.251 -0.961969 3.80117 0
M  V30 3702 H 358.741 -1.9464 3.69466 0
M  V30 3703 N 359.178 -1.55987 0.224894 0
M  V30 3704 C 360.427 -1.97566 -0.406273 0
M  V30 3705 C 360.74 -1.11569 -1.6066 0
M  V30 3706 O 361.946 -1.43062 -2.3075 0
M  V30 3707 C 360.402 -3.51474 -0.774207 0
M  V30 3708 C 360.01 -4.46179 0.403496 0
M  V30 3709 C 361.754 -4.01758 -1.37079 0
M  V30 3710 C 359.661 -5.91399 0.0129412 0
M  V30 3711 H 358.591 -0.737777 -0.155565 0
M  V30 3712 H 361.242 -1.80659 0.321635 0
M  V30 3713 H 359.624 -3.63994 -1.55963 0
M  V30 3714 H 360.798 -4.45409 1.18101 0
M  V30 3715 H 359.113 -4.06255 0.913536 0
M  V30 3716 H 361.71 -5.07756 -1.67596 0
M  V30 3717 H 362.053 -3.47805 -2.28773 0
M  V30 3718 H 362.586 -3.92475 -0.648733 0
M  V30 3719 H 359.325 -6.49341 0.896451 0
M  V30 3720 H 358.845 -5.95356 -0.728821 0
M  V30 3721 H 360.524 -6.45683 -0.412582 0
M  V30 3722 N 360.656 0.0484629 -1.57525 0
M  V30 3723 C 361.904 0.741657 -1.88 0
M  V30 3724 C 362.225 1.76918 -0.820054 0
M  V30 3725 O 361.495 1.95335 0.148661 0
M  V30 3726 H 360.075 0.276908 -0.69378 0
M  V30 3727 H 362.737 0.019013 -1.94891 0
M  V30 3728 H 361.833 1.24336 -2.86264 0
M  V30 3729 N 362.134 1.5431 0.320358 0
M  V30 3730 C 363.084 1.803 1.39556 0
M  V30 3731 C 364.068 0.659166 1.46778 0
M  V30 3732 O 365.26 0.91926 1.51257 0
M  V30 3733 C 362.389 2.03665 2.76361 0
M  V30 3734 C 361.475 3.24178 2.73439 0
M  V30 3735 N 361.866 4.4516 2.40137 0
M  V30 3736 C 360.164 3.25816 3.04565 0
M  V30 3737 C 360.865 5.27109 2.4603 0
M  V30 3738 N 359.841 4.64368 2.82601 0
M  V30 3739 H 363.643 2.71416 1.12742 0
M  V30 3740 H 361.157 1.53548 0.528856 0
M  V30 3741 H 363.154 2.20425 3.53862 0
M  V30 3742 H 361.814 1.13805 3.04103 0
M  V30 3743 H 362.825 4.72104 2.12927 0
M  V30 3744 H 359.502 2.46001 3.37328 0
M  V30 3745 H 360.892 6.33728 2.23246 0
M  V30 3746 N 363.613 -0.582584 1.46437 0
M  V30 3747 C 364.838 -1.37168 1.55563 0
M  V30 3748 C 365.263 -1.87061 0.19743 0
M  V30 3749 O 364.621 -1.61572 -0.822451 0
M  V30 3750 C 364.669 -2.53511 2.56446 0
M  V30 3751 O 363.773 -3.54953 2.09958 0
M  V30 3752 H 363.114 -0.408494 0.523477 0
M  V30 3753 H 365.644 -0.706646 1.9201 0
M  V30 3754 H 365.654 -3.00426 2.76058 0
M  V30 3755 H 364.329 -2.16549 3.55076 0
M  V30 3756 H 362.906 -3.14516 2.00334 0
M  V30 3757 N 365.091 -1.34144 -0.827227 0
M  V30 3758 C 366.502 -1.23557 -1.39966 0
M  V30 3759 C 366.853 0.140731 -1.95695 0
M  V30 3760 O 365.978 1.04087 -1.89723 0
M  V30 3761 C 366.573 -2.23708 -2.54441 0
M  V30 3762 C 365.132 -2.16924 -3.07605 0
M  V30 3763 C 364.279 -2.10549 -1.80456 0
M  V30 3764 H 367.23 -1.45573 -0.631991 0
M  V30 3765 H 367.251 -1.85157 -3.32411 0
M  V30 3766 H 366.763 -3.23866 -2.13851 0
M  V30 3767 H 364.864 -1.20107 -3.52711 0
M  V30 3768 H 364.977 -3.07988 -3.66988 0
M  V30 3769 H 363.341 -1.56203 -2.01178 0
M  V30 3770 H 364.124 -3.12535 -1.42046 0
M  V30 3771 N 366.569 1.04691 -1.17803 0
M  V30 3772 C 367.517 2.14665 -0.895635 0
M  V30 3773 C 368.511 1.68806 0.141679 0
M  V30 3774 O 369.717 1.79999 -0.00587914 0
M  V30 3775 H 366.092 0.701038 -0.272121 0
M  V30 3776 H 368.063 2.35685 -1.83017 0
M  V30 3777 C 366.812 3.45019 -0.430962 0
M  V30 3778 H 366.135 3.8071 -1.22064 0
M  V30 3779 H 367.575 4.23125 -0.272301 0
M  V30 3780 C 366.034 3.25943 0.852207 0
M  V30 3781 O 366.564 3.5296 1.91786 0
M  V30 3782 N 364.77 2.79304 0.802346 0
M  V30 3783 H 364.317 2.57518 -0.0650788 0
M  V30 3784 H 364.275 2.66921 1.66134 0
M  V30 3785 N 368.047 0.979072 1.23499 0
M  V30 3786 C 369.275 0.665202 1.95915 0
M  V30 3787 C 369.69 -0.767571 1.72493 0
M  V30 3788 O 369.047 -1.51635 1.01554 0
M  V30 3789 C 369.098 0.944438 3.48945 0
M  V30 3790 O 368.819 2.3209 3.71572 0
M  V30 3791 C 370.32 0.646336 4.38563 0
M  V30 3792 H 367.54 0.247218 0.623798 0
M  V30 3793 H 370.084 1.31009 1.57025 0
M  V30 3794 H 368.239 0.345575 3.85856 0
M  V30 3795 H 368.653 2.40957 4.65876 0
M  V30 3796 H 370.127 0.892091 5.44744 0
M  V30 3797 H 370.604 -0.419575 4.37191 0
M  V30 3798 H 371.21 1.22562 4.07258 0
M  V30 3799 N 369.525 -1.3858 0.750561 0
M  V30 3800 C 370.488 -2.28836 0.129152 0
M  V30 3801 C 371.488 -1.47045 -0.650714 0
M  V30 3802 O 372.678 -1.6753 -0.477428 0
M  V30 3803 C 369.81 -3.30751 -0.825622 0
M  V30 3804 H 371.003 -2.85294 0.924516 0
M  V30 3805 H 368.556 -1.47489 0.517376 0
M  V30 3806 H 369.291 -2.79378 -1.64677 0
M  V30 3807 H 369.076 -3.91177 -0.268852 0
M  V30 3808 H 370.566 -3.98249 -1.2565 0
M  V30 3809 N 371.003 -0.499398 -1.49478 0
M  V30 3810 C 372.252 0.0475259 -2.01644 0
M  V30 3811 C 372.565 1.38195 -1.38425 0
M  V30 3812 O 373.771 2.01547 -1.8191 0
M  V30 3813 C 372.227 0.135164 -3.59646 0
M  V30 3814 C 371.835 -1.19252 -4.31837 0
M  V30 3815 C 373.579 0.632538 -4.19761 0
M  V30 3816 C 371.486 -1.06713 -5.81693 0
M  V30 3817 H 370.416 0.0215349 -0.753692 0
M  V30 3818 H 373.067 -0.638577 -1.7203 0
M  V30 3819 H 371.449 0.885681 -3.85969 0
M  V30 3820 H 372.623 -1.9562 -4.17216 0
M  V30 3821 H 370.938 -1.62321 -3.83459 0
M  V30 3822 H 373.535 0.743833 -5.29501 0
M  V30 3823 H 373.878 1.63098 -3.83021 0
M  V30 3824 H 374.411 -0.0613987 -3.97753 0
M  V30 3825 H 371.15 -2.03979 -6.22955 0
M  V30 3826 H 370.67 -0.344307 -5.98811 0
M  V30 3827 H 372.349 -0.745208 -6.42694 0
M  V30 3828 N 372.481 1.55866 -0.233164 0
M  V30 3829 C 373.728 1.98603 0.395374 0
M  V30 3830 C 374.056 1.12105 1.58942 0
M  V30 3831 O 373.311 0.168656 1.94972 0
M  V30 3832 C 373.61 3.46856 0.861724 0
M  V30 3833 C 373.276 4.50348 -0.223066 0
M  V30 3834 C 371.938 4.78371 -0.521038 0
M  V30 3835 C 374.29 5.12355 -0.956124 0
M  V30 3836 C 371.618 5.6568 -1.55638 0
M  V30 3837 C 373.97 6.00786 -1.98089 0
M  V30 3838 C 372.634 6.27148 -2.28565 0
M  V30 3839 H 371.904 0.726739 0.144677 0
M  V30 3840 H 374.551 1.88491 -0.338114 0
M  V30 3841 H 372.856 3.5423 1.67418 0
M  V30 3842 H 374.553 3.77302 1.35809 0
M  V30 3843 H 371.143 4.28596 0.0193234 0
M  V30 3844 H 375.327 4.90765 -0.739166 0
M  V30 3845 H 370.583 5.84365 -1.798 0
M  V30 3846 H 374.757 6.4788 -2.55391 0
M  V30 3847 H 372.384 6.94597 -3.08932 0
M  V30 3848 N 373.959 -0.0401083 1.57549 0
M  V30 3849 C 374.869 -1.06133 2.0922 0
M  V30 3850 C 375.885 -1.40356 1.0284 0
M  V30 3851 O 377.061 -1.49897 1.34509 0
M  V30 3852 C 374.126 -2.34658 2.55218 0
M  V30 3853 C 373.187 -2.07117 3.76033 0
M  V30 3854 C 372.42 -3.29514 4.19829 0
M  V30 3855 O 372.643 -4.39794 3.63232 0
M  V30 3856 O 371.577 -3.15863 5.12362 0
M  V30 3857 H 375.403 -0.652244 2.96613 0
M  V30 3858 H 372.988 -0.256368 1.47184 0
M  V30 3859 H 374.87 -3.10239 2.85184 0
M  V30 3860 H 373.545 -2.74883 1.70941 0
M  V30 3861 H 372.452 -1.29139 3.51104 0
M  V30 3862 H 373.785 -1.71754 4.61261 0
M  V30 3863 N 375.437 -1.54477 -0.31217 0
M  V30 3864 C 376.685 -1.72884 -1.04668 0
M  V30 3865 C 377.006 -0.511477 -1.88173 0
M  V30 3866 O 376.276 0.474407 -1.90069 0
M  V30 3867 H 374.856 -0.637461 -0.389425 0
M  V30 3868 H 377.518 -1.91807 -0.345852 0
M  V30 3869 H 376.614 -2.61334 -1.70619 0
M  V30 3870 N 376.915 0.57481 -1.46744 0
M  V30 3871 C 377.847 1.69804 -1.53946 0
M  V30 3872 C 378.86 1.57098 -0.427106 0
M  V30 3873 O 380.049 1.64378 -0.695863 0
M  V30 3874 C 377.149 3.08125 -1.4111 0
M  V30 3875 C 376.322 3.46757 -2.66605 0
M  V30 3876 C 375.381 4.6417 -2.47855 0
M  V30 3877 O 374.407 4.69634 -3.21609 0
M  V30 3878 N 375.609 5.59553 -1.54534 0
M  V30 3879 H 378.374 1.64077 -2.50796 0
M  V30 3880 H 375.935 0.761 -1.429 0
M  V30 3881 H 377.927 3.84478 -1.26328 0
M  V30 3882 H 376.497 3.08175 -0.524109 0
M  V30 3883 H 375.717 2.6003 -2.96274 0
M  V30 3884 H 377.005 3.69337 -3.49954 0
M  V30 3885 H 376.403 5.57881 -0.937304 0
M  V30 3886 H 374.96 6.35304 -1.45711 0
M  V30 3887 N 378.394 1.34581 0.820102 0
M  V30 3888 C 379.324 1.29038 1.94606 0
M  V30 3889 C 380.305 0.1673 1.69275 0
M  V30 3890 O 381.49 0.360112 1.90832 0
M  V30 3891 C 378.62 1.04793 3.31113 0
M  V30 3892 C 377.574 2.13597 3.70891 0
M  V30 3893 C 376.9 1.74537 5.05412 0
M  V30 3894 C 378.2 3.55451 3.8269 0
M  V30 3895 H 379.894 2.23248 1.99501 0
M  V30 3896 H 377.44 1.0747 0.958449 0
M  V30 3897 H 379.393 0.995592 4.0947 0
M  V30 3898 H 378.117 0.0702565 3.26524 0
M  V30 3899 H 376.776 2.17905 2.9481 0
M  V30 3900 H 376.424 0.754226 4.97313 0
M  V30 3901 H 376.124 2.47361 5.32997 0
M  V30 3902 H 377.648 1.70803 5.86224 0
M  V30 3903 H 379.062 3.5354 4.51312 0
M  V30 3904 H 377.459 4.26922 4.21732 0
M  V30 3905 H 378.529 3.92587 2.84611 0
M  V30 3906 N 379.872 -1.04064 1.18357 0
M  V30 3907 C 380.782 -2.15569 0.925596 0
M  V30 3908 C 381.798 -1.7365 -0.110295 0
M  V30 3909 O 382.974 -2.01273 0.0716218 0
M  V30 3910 C 380.039 -3.43704 0.454836 0
M  V30 3911 C 379.1 -4.00004 1.55869 0
M  V30 3912 C 378.333 -5.22023 1.1103 0
M  V30 3913 O 378.556 -5.70392 -0.0309756 0
M  V30 3914 O 377.49 -5.70856 1.90805 0
M  V30 3915 H 381.316 -2.40187 1.8586 0
M  V30 3916 H 378.901 -1.1402 0.965394 0
M  V30 3917 H 380.783 -4.20923 0.200382 0
M  V30 3918 H 379.458 -3.20559 -0.449876 0
M  V30 3919 H 378.365 -3.24172 1.86716 0
M  V30 3920 H 379.698 -4.2749 2.43953 0
M  V30 3921 N 381.35 -0.985608 -1.22978 0
M  V30 3922 C 382.28 -0.549649 -2.26939 0
M  V30 3923 C 383.261 0.419803 -1.64838 0
M  V30 3924 O 384.446 0.31203 -1.91677 0
M  V30 3925 C 381.576 0.143652 -3.47003 0
M  V30 3926 C 380.53 -0.743606 -4.21491 0
M  V30 3927 C 379.856 0.0822027 -5.34637 0
M  V30 3928 C 381.156 -2.03694 -4.80943 0
M  V30 3929 H 382.85 -1.41862 -2.63658 0
M  V30 3930 H 380.396 -0.683571 -1.26741 0
M  V30 3931 H 382.349 0.459985 -4.18882 0
M  V30 3932 H 381.073 1.04711 -3.09359 0
M  V30 3933 H 379.732 -1.04347 -3.51436 0
M  V30 3934 H 379.38 0.986359 -4.93234 0
M  V30 3935 H 379.08 -0.508377 -5.85397 0
M  V30 3936 H 380.604 0.392797 -6.09335 0
M  V30 3937 H 382.018 -1.78504 -5.44802 0
M  V30 3938 H 380.415 -2.57573 -5.42011 0
M  V30 3939 H 381.485 -2.72042 -4.01399 0
M  V30 3940 N 382.828 1.3818 -0.7579 0
M  V30 3941 C 383.738 2.3421 -0.135247 0
M  V30 3942 C 384.754 1.59487 0.695683 0
M  V30 3943 O 385.93 1.91657 0.618832 0
M  V30 3944 C 382.995 3.3862 0.744139 0
M  V30 3945 C 382.056 4.2918 -0.101658 0
M  V30 3946 C 381.289 5.28603 0.735851 0
M  V30 3947 O 381.512 5.35166 1.97366 0
M  V30 3948 O 380.446 6.01707 0.152372 0
M  V30 3949 H 384.272 2.8916 -0.928436 0
M  V30 3950 H 381.857 1.40101 -0.518855 0
M  V30 3951 H 383.739 4.02539 1.2466 0
M  V30 3952 H 382.414 2.86019 1.51575 0
M  V30 3953 H 381.321 3.68407 -0.650167 0
M  V30 3954 H 382.654 4.85048 -0.836024 0
M  V30 3955 N 384.306 0.507319 1.49211 0
M  V30 3956 C 385.254 -0.281364 2.30892 0
M  V30 3957 C 386.248 -0.95687 1.39787 0
M  V30 3958 O 387.454 -0.883838 1.56807 0
M  V30 3959 H 383.829 -0.109597 0.743971 0
M  V30 3960 H 385.8 0.42744 2.95323 0
M  V30 3961 C 384.549 -1.32918 3.21291 0
M  V30 3962 H 383.872 -0.818799 3.91326 0
M  V30 3963 H 385.312 -1.85288 3.81372 0
M  V30 3964 C 383.771 -2.35074 2.41333 0
M  V30 3965 O 384.301 -3.4108 2.12197 0
M  V30 3966 N 382.507 -2.07705 2.03241 0
M  V30 3967 H 382.054 -1.2152 2.27136 0
M  V30 3968 H 382.012 -2.76283 1.50051 0
M  V30 3969 N 385.784 -1.5574 0.241426 0
M  V30 3970 C 387.032 -1.98417 -0.384075 0
M  V30 3971 C 387.353 -1.13078 -1.58866 0
M  V30 3972 O 386.623 -0.212312 -1.94746 0
M  V30 3973 H 385.203 -0.732813 -0.144894 0
M  V30 3974 H 387.865 -1.9193 0.338943 0
M  V30 3975 H 386.961 -3.04219 -0.696939 0
M  V30 3976 N 387.262 0.0317525 -1.57568 0
M  V30 3977 C 388.492 0.733884 -1.93126 0
M  V30 3978 C 388.9 1.69563 -0.839352 0
M  V30 3979 O 388.243 1.82681 0.193175 0
M  V30 3980 C 388.305 1.54798 -3.24465 0
M  V30 3981 C 387.969 0.751304 -4.50782 0
M  V30 3982 C 388.966 0.0527632 -5.19873 0
M  V30 3983 C 386.651 0.706639 -4.97305 0
M  V30 3984 C 388.645 -0.679774 -6.33765 0
M  V30 3985 C 386.332 -0.0296449 -6.11093 0
M  V30 3986 C 387.33 -0.721614 -6.79177 0
M  V30 3987 O 387.018 -1.44595 -7.90789 0
M  V30 3988 H 386.75 0.211459 -0.642076 0
M  V30 3989 H 389.304 -0.00585615 -2.05399 0
M  V30 3990 H 387.534 2.33147 -3.08512 0
M  V30 3991 H 389.223 2.13247 -3.4537 0
M  V30 3992 H 389.989 0.0783188 -4.84937 0
M  V30 3993 H 385.868 1.23474 -4.44157 0
M  V30 3994 H 389.412 -1.22042 -6.86842 0
M  V30 3995 H 385.309 -0.0571331 -6.45475 0
M  V30 3996 H 386.077 -1.35935 -8.07133 0
M  V30 3997 N 388.74 1.54641 0.303973 0
M  V30 3998 C 389.989 1.7299 1.03717 0
M  V30 3999 C 390.302 0.521168 1.88529 0
M  V30 4000 O 391.508 0.586408 2.65092 0
M  V30 4001 C 389.964 3.06051 1.89369 0
M  V30 4002 C 389.572 4.34393 1.09574 0
M  V30 4003 C 391.316 3.3376 2.62306 0
M  V30 4004 C 389.223 5.58506 1.94486 0
M  V30 4005 H 388.153 0.64473 0.390947 0
M  V30 4006 H 390.804 1.81124 0.294328 0
M  V30 4007 H 389.186 2.91874 2.67629 0
M  V30 4008 H 390.36 4.59396 0.359485 0
M  V30 4009 H 388.675 4.13597 0.482324 0
M  V30 4010 H 391.272 4.23687 3.26181 0
M  V30 4011 H 391.615 2.52503 3.3098 0
M  V30 4012 H 392.148 3.48894 1.91097 0
M  V30 4013 H 388.887 6.42422 1.30287 0
M  V30 4014 H 388.407 5.37694 2.65792 0
M  V30 4015 H 390.086 5.95651 2.52605 0
M  V30 4016 N 390.218 -0.567019 1.47046 0
M  V30 4017 C 391.165 -1.67489 1.58796 0
M  V30 4018 C 392.135 -1.60399 0.43144 0
M  V30 4019 O 393.32 -1.79378 0.650233 0
M  V30 4020 C 390.46 -3.05821 1.59899 0
M  V30 4021 C 389.573 -3.2342 2.86397 0
M  V30 4022 C 388.708 -4.52093 2.789 0
M  V30 4023 C 387.747 -4.6309 4.00267 0
M  V30 4024 N 386.884 -5.83106 3.91064 0
M  V30 4025 H 391.724 -1.56785 2.53422 0
M  V30 4026 H 389.261 -0.763896 1.2571 0
M  V30 4027 H 391.219 -3.8591 1.58522 0
M  V30 4028 H 389.849 -3.15384 0.687929 0
M  V30 4029 H 388.901 -2.3683 2.97684 0
M  V30 4030 H 390.213 -3.27412 3.76301 0
M  V30 4031 H 389.367 -5.4043 2.75718 0
M  V30 4032 H 388.106 -4.50565 1.86662 0
M  V30 4033 H 387.111 -3.73168 4.03765 0
M  V30 4034 H 388.336 -4.66386 4.93621 0
M  V30 4035 H 386.282 -5.82546 3.01623 0
M  V30 4036 H 386.199 -5.88434 4.74638 0
M  V30 4037 H 387.467 -6.73831 3.91882 0
M  V30 4038 N 391.696 -1.35014 -0.812953 0
M  V30 4039 C 392.942 -1.2812 -1.57204 0
M  V30 4040 C 393.275 0.145869 -1.93651 0
M  V30 4041 O 392.55 1.0937 -1.60836 0
M  V30 4042 C 392.833 -2.18162 -2.86492 0
M  V30 4043 C 392.686 -3.69454 -2.56561 0
M  V30 4044 C 394.005 -2.07439 -3.88145 0
M  V30 4045 H 391.124 -0.466746 -0.570366 0
M  V30 4046 H 393.766 -1.65357 -0.935783 0
M  V30 4047 H 391.916 -1.86535 -3.40789 0
M  V30 4048 H 393.588 -4.11493 -2.08497 0
M  V30 4049 H 391.831 -3.9005 -1.89851 0
M  V30 4050 H 392.502 -4.27835 -3.48799 0
M  V30 4051 H 394.978 -2.35228 -3.4323 0
M  V30 4052 H 393.854 -2.7265 -4.76396 0
M  V30 4053 H 394.115 -1.05439 -4.29343 0
M  V30 4054 N 393.175 1.03435 -1.18907 0
M  V30 4055 C 394.107 2.1165 -0.879595 0
M  V30 4056 C 395.12 1.62316 0.125439 0
M  V30 4057 O 396.309 1.78201 -0.103245 0
M  V30 4058 C 393.409 3.37622 -0.294042 0
M  V30 4059 C 392.582 4.16166 -1.34629 0
M  V30 4060 C 391.641 5.20457 -0.775274 0
M  V30 4061 O 390.667 5.50379 -1.4516 0
M  V30 4062 N 391.869 5.78949 0.424126 0
M  V30 4063 H 394.634 2.38791 -1.81105 0
M  V30 4064 H 392.195 1.19681 -1.09032 0
M  V30 4065 H 394.187 4.04572 0.101679 0
M  V30 4066 H 392.757 3.07873 0.541575 0
M  V30 4067 H 391.977 3.44444 -1.91707 0
M  V30 4068 H 393.265 4.65432 -2.05549 0
M  V30 4069 H 392.663 5.56948 0.991209 0
M  V30 4070 H 391.22 6.47334 0.761691 0
M  V30 4071 N 394.653 0.992116 1.22453 0
M  V30 4072 C 395.878 0.685644 1.95739 0
M  V30 4073 C 396.303 -0.743 1.72804 0
M  V30 4074 O 395.661 -1.50778 1.00676 0
M  V30 4075 C 395.709 0.996293 3.46564 0
M  V30 4076 O 394.813 0.0945512 4.12292 0
M  V30 4077 H 394.154 0.256694 0.612376 0
M  V30 4078 H 396.684 1.32888 1.5557 0
M  V30 4079 H 396.694 0.93781 3.97076 0
M  V30 4080 H 395.369 2.03733 3.62582 0
M  V30 4081 H 393.946 0.208451 3.72317 0
M  V30 4082 N 396.131 -1.37776 0.765217 0
M  V30 4083 C 397.379 -1.99454 0.325943 0
M  V30 4084 C 397.7 -1.61049 -1.09947 0
M  V30 4085 O 396.97 -0.872821 -1.75381 0
M  V30 4086 H 395.55 -0.737697 0.117525 0
M  V30 4087 H 398.212 -1.68359 0.981895 0
M  V30 4088 H 397.308 -3.09547 0.398353 0
M  V30 4089 N 397.609 -0.515225 -1.4894 0
M  V30 4090 C 398.858 0.0261361 -2.01683 0
M  V30 4091 C 399.171 1.36719 -1.39883 0
M  V30 4092 O 400.377 1.99606 -1.84037 0
M  V30 4093 C 398.833 0.0970111 -3.59769 0
M  V30 4094 C 398.441 -1.23825 -4.30548 0
M  V30 4095 C 400.185 0.587981 -4.20408 0
M  V30 4096 C 398.092 -1.12877 -5.80528 0
M  V30 4097 H 397.022 0.0135398 -0.753878 0
M  V30 4098 H 399.673 -0.656787 -1.71343 0
M  V30 4099 H 398.055 0.844694 -3.86886 0
M  V30 4100 H 399.229 -2.00034 -4.15118 0
M  V30 4101 H 397.544 -1.66379 -3.81716 0
M  V30 4102 H 400.141 0.68763 -5.3026 0
M  V30 4103 H 400.484 1.59026 -3.84729 0
M  V30 4104 H 401.017 -0.103582 -3.97665 0
M  V30 4105 H 397.756 -2.10575 -6.20756 0
M  V30 4106 H 397.276 -0.407799 -5.98412 0
M  V30 4107 H 398.955 -0.813332 -6.41868 0
M  V30 4108 N 399.087 1.5561 -0.249682 0
M  V30 4109 C 400.037 2.18157 0.662673 0
M  V30 4110 C 401.021 1.1383 1.13717 0
M  V30 4111 O 402.213 1.39731 1.08648 0
M  V30 4112 C 399.342 2.88672 1.85805 0
M  V30 4113 C 398.428 4.00258 1.40193 0
M  V30 4114 N 398.819 5.01473 0.660213 0
M  V30 4115 C 397.117 4.12864 1.68698 0
M  V30 4116 C 397.818 5.80155 0.423695 0
M  V30 4117 N 396.794 5.34533 0.988721 0
M  V30 4118 H 400.596 2.93769 0.0878688 0
M  V30 4119 H 398.11 1.62316 -0.0521183 0
M  V30 4120 H 400.107 3.31912 2.5227 0
M  V30 4121 H 398.767 2.14564 2.43705 0
M  V30 4122 H 399.778 5.16971 0.310047 0
M  V30 4123 H 396.455 3.4993 2.27717 0
M  V30 4124 H 397.845 6.71688 -0.168616 0
M  V30 4125 N 400.565 -0.0233959 1.57583 0
M  V30 4126 C 401.813 -0.711654 1.89156 0
M  V30 4127 C 402.134 -1.75591 0.848096 0
M  V30 4128 O 401.404 -1.95547 -0.117566 0
M  V30 4129 H 399.984 -0.265835 0.698098 0
M  V30 4130 H 402.646 0.0119948 1.94896 0
M  V30 4131 H 401.742 -1.19766 2.88206 0
M  V30 4132 N 402.043 -1.548 -0.295768 0
M  V30 4133 C 402.991 -1.86874 -1.38495 0
M  V30 4134 C 403.985 -0.742938 -1.52239 0
M  V30 4135 O 405.191 -0.926999 -1.54294 0
M  V30 4136 H 401.566 -0.592786 -0.462719 0
M  V30 4137 H 403.537 -2.77904 -1.08682 0
M  V30 4138 C 402.286 -2.13732 -2.74252 0
M  V30 4139 H 401.609 -2.99835 -2.64459 0
M  V30 4140 H 403.049 -2.4011 -3.49461 0
M  V30 4141 C 401.508 -0.937539 -3.23592 0
M  V30 4142 O 402.038 -0.160665 -4.01379 0
M  V30 4143 N 400.244 -0.741478 -2.80981 0
M  V30 4144 H 399.791 -1.37489 -2.1784 0
M  V30 4145 H 399.749 0.0597103 -3.14343 0
M  V30 4146 N 403.521 0.559213 -1.47345 0
M  V30 4147 C 404.484 1.64854 -1.59235 0
M  V30 4148 C 405.484 1.53851 -0.467607 0
M  V30 4149 O 406.674 1.58045 -0.732617 0
M  V30 4150 C 403.806 3.04388 -1.53496 0
M  V30 4151 H 404.999 1.55662 -2.56339 0
M  V30 4152 H 402.552 0.778973 -1.35505 0
M  V30 4153 H 403.287 3.19115 -0.577604 0
M  V30 4154 H 403.072 3.13783 -2.35123 0
M  V30 4155 H 404.562 3.83642 -1.6495 0
M  V30 4156 N 404.999 1.35443 0.805782 0
M  V30 4157 C 406.227 1.31878 1.59423 0
M  V30 4158 C 406.642 -0.103562 1.88516 0
M  V30 4159 O 405.999 -1.05575 1.48863 0
M  V30 4160 C 406.05 2.12426 2.92502 0
M  V30 4161 O 405.771 3.49115 2.6467 0
M  V30 4162 C 407.272 2.16455 3.86862 0
M  V30 4163 H 404.492 0.453002 0.495005 0
M  V30 4164 H 407.036 1.78309 1.00131 0
M  V30 4165 H 405.191 1.69593 3.48306 0
M  V30 4166 H 405.605 3.90957 3.49647 0
M  V30 4167 H 407.079 2.77204 4.77349 0
M  V30 4168 H 407.556 1.16352 4.23508 0
M  V30 4169 H 408.162 2.59453 3.36993 0
M  V30 4170 N 406.477 -1.02803 1.19454 0
M  V30 4171 C 407.409 -2.11181 0.890807 0
M  V30 4172 C 408.422 -1.6238 -0.116829 0
M  V30 4173 O 409.611 -1.78144 0.112694 0
M  V30 4174 C 406.711 -3.37461 0.311942 0
M  V30 4175 C 405.884 -4.15446 1.36834 0
M  V30 4176 C 404.943 -5.20039 0.802864 0
M  V30 4177 O 403.969 -5.49602 1.48077 0
M  V30 4178 N 405.171 -5.79165 -0.393417 0
M  V30 4179 H 407.936 -2.37827 1.82369 0
M  V30 4180 H 405.497 -1.19101 1.09666 0
M  V30 4181 H 407.489 -4.0462 -0.0802225 0
M  V30 4182 H 406.059 -3.08156 -0.52524 0
M  V30 4183 H 405.279 -3.43423 1.93531 0
M  V30 4184 H 406.567 -4.64335 2.08015 0
M  V30 4185 H 405.965 -5.57466 -0.961658 0
M  V30 4186 H 404.522 -6.47729 -0.727351 0
M  V30 4187 N 407.956 -0.998596 -1.21925 0
M  V30 4188 C 409.184 -0.696286 -1.94832 0
M  V30 4189 C 409.599 0.740032 -1.73692 0
M  V30 4190 O 408.956 1.5 -1.03953 0
M  V30 4191 C 409.007 -0.999833 -3.47398 0
M  V30 4192 O 408.728 -2.37972 -3.67833 0
M  V30 4193 C 410.229 -0.716025 -4.37479 0
M  V30 4194 H 407.449 -0.257111 -0.619786 0
M  V30 4195 H 409.993 -1.33491 -1.54921 0
M  V30 4196 H 408.148 -0.406918 -3.85257 0
M  V30 4197 H 408.562 -2.48338 -4.61983 0
M  V30 4198 H 410.036 -0.978642 -5.43256 0
M  V30 4199 H 410.513 0.349968 -4.37803 0
M  V30 4200 H 411.119 -1.29025 -4.05256 0
M  V30 4201 N 409.434 1.37368 -0.772513 0
M  V30 4202 C 410.659 2.0447 -0.347386 0
M  V30 4203 C 411.084 1.57882 1.0225 0
M  V30 4204 O 410.442 0.73941 1.65537 0
M  V30 4205 C 410.49 3.58369 -0.400479 0
M  V30 4206 O 409.594 4.0803 0.598789 0
M  V30 4207 H 408.935 0.646773 -0.15027 0
M  V30 4208 H 411.465 1.75667 -1.04892 0
M  V30 4209 H 411.475 4.07183 -0.258045 0
M  V30 4210 H 410.15 3.91633 -1.39986 0
M  V30 4211 H 408.727 3.70534 0.419411 0
M  V30 4212 N 410.912 0.523116 1.48665 0
M  V30 4213 C 412.161 -0.01544 2.01694 0
M  V30 4214 C 412.474 -1.35975 1.40606 0
M  V30 4215 O 413.68 -1.98627 1.85093 0
M  V30 4216 C 412.136 -0.0779303 3.59816 0
M  V30 4217 C 411.744 1.26107 4.29885 0
M  V30 4218 C 413.488 -0.565678 4.20714 0
M  V30 4219 C 411.395 1.15954 5.79921 0
M  V30 4220 H 410.325 -0.00954163 0.75394 0
M  V30 4221 H 412.976 0.665865 1.70993 0
M  V30 4222 H 411.358 -0.824165 3.87329 0
M  V30 4223 H 412.532 2.02233 4.14051 0
M  V30 4224 H 410.847 1.68401 3.80828 0
M  V30 4225 H 413.444 -0.6595 5.30617 0
M  V30 4226 H 413.787 -1.56984 3.85567 0
M  V30 4227 H 414.32 0.12467 3.97605 0
M  V30 4228 H 411.059 2.13864 6.19631 0
M  V30 4229 H 410.579 0.439529 5.98187 0
M  V30 4230 H 412.258 0.847361 6.41427 0
M  V30 4231 N 412.39 -1.55475 0.257931 0
M  V30 4232 C 413.801 -1.8511 -0.243135 0
M  V30 4233 C 414.152 -1.17986 -1.5676 0
M  V30 4234 O 413.277 -0.462102 -2.11409 0
M  V30 4235 C 413.872 -3.35826 -0.447929 0
M  V30 4236 C 412.431 -3.65647 -0.893245 0
M  V30 4237 C 411.578 -2.7729 0.0232965 0
M  V30 4238 H 414.529 -1.51261 0.480199 0
M  V30 4239 H 414.55 -3.58002 -1.28898 0
M  V30 4240 H 414.062 -3.84652 0.516196 0
M  V30 4241 H 412.163 -3.22308 -1.86945 0
M  V30 4242 H 412.276 -4.73312 -0.742469 0
M  V30 4243 H 410.64 -2.49942 -0.490021 0
M  V30 4244 H 411.423 -3.28926 0.982994 0
M  V30 4245 N 413.868 0.0150385 -1.57593 0
M  V30 4246 C 415.116 0.701613 -1.8953 0
M  V30 4247 C 415.437 1.75139 -0.857396 0
M  V30 4248 O 414.707 1.95607 0.107194 0
M  V30 4249 H 413.287 0.26213 -0.699498 0
M  V30 4250 H 415.949 -0.0223304 -1.94887 0
M  V30 4251 H 415.045 1.18236 -2.88837 0
M  V30 4252 N 415.346 1.54954 0.287554 0
M  V30 4253 C 416.592 1.75132 1.02257 0
M  V30 4254 C 416.925 0.542858 1.86458 0
M  V30 4255 O 416.2 -0.459856 1.88986 0
M  V30 4256 C 416.483 3.04812 1.91733 0
M  V30 4257 C 416.336 4.35985 1.10622 0
M  V30 4258 C 417.655 3.30438 2.90687 0
M  V30 4259 H 414.774 0.637194 0.370341 0
M  V30 4260 H 417.416 1.87678 0.296111 0
M  V30 4261 H 415.566 2.94247 2.53675 0
M  V30 4262 H 417.238 4.58487 0.508636 0
M  V30 4263 H 415.481 4.31865 0.409271 0
M  V30 4264 H 416.152 5.23017 1.76513 0
M  V30 4265 H 418.628 3.40701 2.38877 0
M  V30 4266 H 417.504 4.22467 3.50447 0
M  V30 4267 H 417.765 2.49377 3.65053 0
M  V30 4268 N 416.824 -0.551391 1.4764 0
M  V30 4269 C 418.071 -1.3083 1.54563 0
M  V30 4270 C 418.399 -1.93359 0.210361 0
M  V30 4271 O 417.654 -1.78721 -0.797332 0
M  V30 4272 C 417.953 -2.43469 2.61644 0
M  V30 4273 C 417.619 -1.98732 4.04742 0
M  V30 4274 C 416.281 -1.86248 4.43695 0
M  V30 4275 C 418.633 -1.64659 4.94507 0
M  V30 4276 C 415.961 -1.37995 5.70241 0
M  V30 4277 C 418.313 -1.17875 6.21521 0
M  V30 4278 C 416.977 -1.03992 6.5935 0
M  V30 4279 H 416.247 -0.478741 0.565587 0
M  V30 4280 H 418.894 -0.617697 1.81264 0
M  V30 4281 H 417.199 -3.18109 2.28722 0
M  V30 4282 H 418.896 -3.01642 2.64222 0
M  V30 4283 H 415.486 -2.09393 3.73968 0
M  V30 4284 H 419.67 -1.73174 4.65107 0
M  V30 4285 H 414.926 -1.25915 5.98294 0
M  V30 4286 H 419.1 -0.905739 6.90485 0
M  V30 4287 H 416.727 -0.663794 7.57296 0
M  V30 4288 N 418.302 -1.35869 -0.798587 0
M  V30 4289 C 419.265 -1.29307 -1.89242 0
M  V30 4290 C 420.265 -0.202747 -1.59517 0
M  V30 4291 O 421.455 -0.456957 -1.681 0
M  V30 4292 C 418.587 -1.00229 -3.25833 0
M  V30 4293 H 419.78 -2.26576 -1.96478 0
M  V30 4294 H 417.333 -1.20509 -0.995358 0
M  V30 4295 H 418.068 -0.033801 -3.24282 0
M  V30 4296 H 417.853 -1.79121 -3.48795 0
M  V30 4297 H 419.343 -0.98219 -4.05885 0
M  V30 4298 N 419.78 1.02168 -1.19998 0
M  V30 4299 C 420.743 2.08765 -0.94604 0
M  V30 4300 C 421.743 1.60618 0.0763846 0
M  V30 4301 O 422.933 1.73472 -0.159135 0
M  V30 4302 C 420.065 3.38262 -0.423255 0
M  V30 4303 H 421.258 2.32726 -1.89153 0
M  V30 4304 H 418.811 1.1889 -1.01464 0
M  V30 4305 H 419.546 3.19974 0.527938 0
M  V30 4306 H 419.331 3.74532 -1.16053 0
M  V30 4307 H 420.821 4.16759 -0.264911 0
M  V30 4308 N 421.258 1.00505 1.21394 0
M  V30 4309 C 422.506 0.686415 1.90086 0
M  V30 4310 C 422.827 -0.785264 1.7849 0
M  V30 4311 O 422.097 -1.56387 1.17983 0
M  V30 4312 H 420.677 0.2509 0.703604 0
M  V30 4313 H 423.339 1.27417 1.47482 0
M  V30 4314 H 422.435 0.959621 2.96981 0
M  V30 4315 N 422.737 -1.36956 0.779787 0
M  V30 4316 C 424.014 -1.93697 0.272156 0
M  V30 4317 C 424.394 -1.71267 -1.23413 0
M  V30 4318 O 423.742 -1.06607 -2.02107 0
M  V30 4319 C 423.952 -3.42812 0.654291 0
M  V30 4320 C 425.3 -4.19921 0.628602 0
M  V30 4321 O 426.324 -3.51209 0.594172 0
M  V30 4322 O 425.183 -5.42465 0.662864 0
M  V30 4323 H 422.277 -0.824447 0.0649286 0
M  V30 4324 H 424.823 -1.46196 0.861682 0
M  V30 4325 H 423.595 -3.52754 1.69353 0
M  V30 4326 H 423.218 -3.97582 0.0381369 0
M  V30 4327 N 424.215 -0.530993 -1.48385 0
M  V30 4328 C 425.461 0.00274135 -2.028 0
M  V30 4329 C 425.794 1.33838 -1.40716 0
M  V30 4330 O 425.069 1.86465 -0.553277 0
M  V30 4331 C 425.352 0.123676 -3.59888 0
M  V30 4332 C 425.205 -1.2372 -4.3245 0
M  V30 4333 C 426.524 0.849967 -4.31814 0
M  V30 4334 H 423.643 -0.000477758 -0.737 0
M  V30 4335 H 426.285 -0.688217 -1.77098 0
M  V30 4336 H 424.435 0.712157 -3.81917 0
M  V30 4337 H 426.107 -1.86687 -4.21836 0
M  V30 4338 H 424.35 -1.81882 -3.93829 0
M  V30 4339 H 425.021 -1.10557 -5.40815 0
M  V30 4340 H 427.497 0.350572 -4.14621 0
M  V30 4341 H 426.373 0.903486 -5.41413 0
M  V30 4342 H 426.634 1.90047 -3.99167 0
M  V30 4343 N 425.693 1.55336 -0.266172 0
M  V30 4344 C 426.626 2.18256 0.666296 0
M  V30 4345 C 427.604 1.14064 1.1588 0
M  V30 4346 O 428.788 1.42546 1.23341 0
M  V30 4347 C 425.915 2.79867 1.90768 0
M  V30 4348 C 424.961 3.97283 1.55141 0
M  V30 4349 S 425.794 5.31694 0.637313 0
M  V30 4350 C 426.95 5.96769 1.88727 0
M  V30 4351 H 427.183 2.97008 0.131647 0
M  V30 4352 H 424.716 1.54317 -0.0504869 0
M  V30 4353 H 426.674 3.15996 2.62025 0
M  V30 4354 H 425.335 2.01025 2.41346 0
M  V30 4355 H 424.528 4.3905 2.4749 0
M  V30 4356 H 424.13 3.6253 0.919113 0
M  V30 4357 H 426.422 6.15458 2.83227 0
M  V30 4358 H 427.365 6.91752 1.51276 0
M  V30 4359 H 427.773 5.26034 2.04814 0
M  V30 4360 N 427.171 -0.0066808 1.57599 0
M  V30 4361 C 428.448 -0.729586 1.81484 0
M  V30 4362 C 428.828 -1.92359 0.869558 0
M  V30 4363 O 428.176 -2.28348 -0.0832533 0
M  V30 4364 C 428.386 -1.1416 3.29801 0
M  V30 4365 C 429.734 -1.54823 3.95367 0
M  V30 4366 O 430.758 -1.23558 3.34084 0
M  V30 4367 O 429.617 -2.12937 5.03309 0
M  V30 4368 H 426.711 -0.354674 0.747085 0
M  V30 4369 H 429.257 0.0182609 1.6969 0
M  V30 4370 H 428.029 -0.290231 3.90222 0
M  V30 4371 H 427.652 -1.94876 3.46568 0
M  V30 4372 N 428.649 -1.55105 -0.279332 0
M  V30 4373 C 429.599 -1.83937 -1.34727 0
M  V30 4374 C 430.583 -0.69785 -1.44979 0
M  V30 4375 O 431.775 -0.95904 -1.48766 0
M  V30 4376 C 428.904 -2.1092 -2.70864 0
M  V30 4377 C 427.99 -3.31314 -2.64748 0
M  V30 4378 N 428.381 -4.51371 -2.2825 0
M  V30 4379 C 426.679 -3.33777 -2.95819 0
M  V30 4380 C 427.38 -5.33447 -2.31969 0
M  V30 4381 N 426.356 -4.71697 -2.7019 0
M  V30 4382 H 430.158 -2.74309 -1.05506 0
M  V30 4383 H 427.672 -1.54896 -0.487959 0
M  V30 4384 H 429.669 -2.2973 -3.47893 0
M  V30 4385 H 428.329 -1.21828 -3.00979 0
M  V30 4386 H 429.34 -4.77584 -2.00335 0
M  V30 4387 H 426.017 -2.54858 -3.30687 0
M  V30 4388 H 427.407 -6.39424 -2.06365 0
M  V30 4389 N 430.127 0.543554 -1.4793 0
M  V30 4390 C 431.376 1.29649 -1.54512 0
M  V30 4391 C 431.689 1.94382 -0.217973 0
M  V30 4392 O 432.895 2.71017 -0.161908 0
M  V30 4393 C 431.351 2.35175 -2.72435 0
M  V30 4394 C 430.959 1.76572 -4.11736 0
M  V30 4395 C 432.703 3.11564 -2.8832 0
M  V30 4396 C 430.61 2.79958 -5.20939 0
M  V30 4397 H 429.54 0.487541 -0.57517 0
M  V30 4398 H 432.191 0.575708 -1.74235 0
M  V30 4399 H 430.573 3.10229 -2.46118 0
M  V30 4400 H 431.747 1.07799 -4.48013 0
M  V30 4401 H 430.062 1.12722 -4.00852 0
M  V30 4402 H 432.659 3.88794 -3.67074 0
M  V30 4403 H 433.002 3.66594 -1.97268 0
M  V30 4404 H 433.535 2.43623 -3.14472 0
M  V30 4405 H 430.274 2.29766 -6.13912 0
M  V30 4406 H 429.794 3.47101 -4.89164 0
M  V30 4407 H 431.473 3.43198 -5.48474 0
M  V30 4408 N 431.605 1.3629 0.791371 0
M  V30 4409 C 432.835 1.33368 1.57786 0
M  V30 4410 C 433.243 -0.0875188 1.88997 0
M  V30 4411 O 432.586 -1.05427 1.50435 0
M  V30 4412 C 432.648 2.08802 2.92646 0
M  V30 4413 C 432.312 3.57903 2.84174 0
M  V30 4414 C 433.309 4.52191 2.56553 0
M  V30 4415 C 430.994 4.00762 3.02812 0
M  V30 4416 C 432.988 5.87315 2.47669 0
M  V30 4417 C 430.675 5.35977 2.93551 0
M  V30 4418 C 431.673 6.29066 2.66017 0
M  V30 4419 O 431.361 7.61798 2.56746 0
M  V30 4420 H 431.093 0.459166 0.496128 0
M  V30 4421 H 433.647 1.79952 0.990269 0
M  V30 4422 H 431.877 1.56878 3.53449 0
M  V30 4423 H 433.566 1.98762 3.53904 0
M  V30 4424 H 434.332 4.20393 2.41858 0
M  V30 4425 H 430.211 3.2868 3.2325 0
M  V30 4426 H 433.755 6.59943 2.26099 0
M  V30 4427 H 429.652 5.67384 3.07808 0
M  V30 4428 H 430.42 7.71898 2.72242 0
M  V30 4429 N 433.083 -1.0153 1.20538 0
M  V30 4430 C 434.499 -1.27461 0.96051 0
M  V30 4431 C 434.699 -1.98273 -0.359193 0
M  V30 4432 O 433.755 -2.27886 -1.0874 0
M  V30 4433 C 435.068 -2.10837 2.14402 0
M  V30 4434 C 436.616 -2.24099 2.18515 0
M  V30 4435 C 437.091 -3.10852 3.36355 0
M  V30 4436 N 438.582 -3.18441 3.36377 0
M  V30 4437 C 439.317 -3.85795 4.24205 0
M  V30 4438 N 438.813 -4.55264 5.22213 0
M  V30 4439 N 440.606 -3.82331 4.12043 0
M  V30 4440 H 432.757 -0.539907 2.05423 0
M  V30 4441 H 435.02 -0.30092 0.898972 0
M  V30 4442 H 434.726 -1.66144 3.09983 0
M  V30 4443 H 434.6 -3.11576 2.12604 0
M  V30 4444 H 436.987 -2.68016 1.23497 0
M  V30 4445 H 437.068 -1.22865 2.24361 0
M  V30 4446 H 436.712 -2.6764 4.31661 0
M  V30 4447 H 436.642 -4.12177 3.27746 0
M  V30 4448 H 439.133 -2.68978 2.65442 0
M  V30 4449 H 439.446 -5.04331 5.85551 0
M  V30 4450 H 437.791 -4.54085 5.26148 0
M  V30 4451 H 440.982 -3.27207 3.34743 0
M  V30 4452 H 441.155 -4.34547 4.807 0
M  V30 4453 N 434.561 -1.01147 -1.20859 0
M  V30 4454 C 435.493 -0.535546 -2.22855 0
M  V30 4455 C 436.506 0.379323 -1.58319 0
M  V30 4456 O 437.695 0.178489 -1.77605 0
M  V30 4457 C 434.795 0.240962 -3.38042 0
M  V30 4458 C 433.968 -0.674562 -4.32167 0
M  V30 4459 C 433.027 0.053467 -5.26173 0
M  V30 4460 O 432.053 -0.567339 -5.66366 0
M  V30 4461 N 433.255 1.32997 -5.65059 0
M  V30 4462 H 436.02 -1.41268 -2.64317 0
M  V30 4463 H 433.581 -0.888386 -1.35349 0
M  V30 4464 H 435.573 0.737115 -3.97931 0
M  V30 4465 H 434.143 1.01935 -2.95513 0
M  V30 4466 H 433.363 -1.35111 -3.70322 0
M  V30 4467 H 434.651 -1.2974 -4.91981 0
M  V30 4468 H 434.049 1.85536 -5.34409 0
M  V30 4469 H 432.606 1.77095 -6.2728 0
M  V30 4470 N 436.039 1.36541 -0.78704 0
M  V30 4471 C 437.002 2.28413 -0.189778 0
M  V30 4472 C 438.002 1.48719 0.611499 0
M  V30 4473 O 439.192 1.68737 0.432842 0
M  V30 4474 C 436.324 3.32824 0.737638 0
M  V30 4475 H 437.517 2.82743 -0.999831 0
M  V30 4476 H 435.07 1.46065 -0.556298 0
M  V30 4477 H 435.805 2.83646 1.57212 0
M  V30 4478 H 435.59 3.91752 0.165044 0
M  V30 4479 H 437.08 4.0144 1.15047 0
M  V30 4480 N 437.518 0.538854 1.48102 0
M  V30 4481 C 438.767 0.0059532 2.01699 0
M  V30 4482 C 439.08 -1.34476 1.42041 0
M  V30 4483 O 440.286 -1.96653 1.87189 0
M  V30 4484 C 438.742 -0.0397627 3.59878 0
M  V30 4485 C 438.35 1.30659 4.28523 0
M  V30 4486 C 440.094 -0.521024 4.2129 0
M  V30 4487 C 438.001 1.22098 5.78659 0
M  V30 4488 H 436.931 -0.00154456 0.753998 0
M  V30 4489 H 439.582 0.683963 1.70277 0
M  V30 4490 H 437.964 -0.783037 3.88181 0
M  V30 4491 H 439.138 2.06613 4.11883 0
M  V30 4492 H 437.453 1.7243 3.79021 0
M  V30 4493 H 440.05 -0.603184 5.31287 0
M  V30 4494 H 440.393 -1.52885 3.8721 0
M  V30 4495 H 440.926 0.166834 3.9745 0
M  V30 4496 H 437.665 2.20424 6.17328 0
M  V30 4497 H 437.185 0.50295 5.97688 0
M  V30 4498 H 438.864 0.915345 6.40492 0
M  V30 4499 N 438.996 -1.55193 0.274407 0
M  V30 4500 C 440.224 -2.03987 -0.345943 0
M  V30 4501 C 440.639 -1.15279 -1.4952 0
M  V30 4502 O 439.996 -0.172759 -1.8168 0
M  V30 4503 C 440.047 -3.51898 -0.827631 0
M  V30 4504 O 439.768 -4.37231 0.275855 0
M  V30 4505 C 441.269 -4.16577 -1.51587 0
M  V30 4506 H 438.489 -0.666335 -0.0789892 0
M  V30 4507 H 441.033 -2.00423 0.406294 0
M  V30 4508 H 439.188 -3.55909 -1.52996 0
M  V30 4509 H 439.602 -5.24415 -0.0943638 0
M  V30 4510 H 441.076 -5.21678 -1.80433 0
M  V30 4511 H 441.553 -3.64707 -2.44716 0
M  V30 4512 H 442.159 -4.16568 -0.857409 0
M  V30 4513 N 440.474 -0.00167713 -1.576 0
M  V30 4514 C 441.699 0.69739 -1.95323 0
M  V30 4515 C 442.124 1.6642 -0.876706 0
M  V30 4516 O 441.482 1.80548 0.165007 0
M  V30 4517 C 441.53 1.40403 -3.32144 0
M  V30 4518 O 440.634 2.5185 -3.26566 0
M  V30 4519 H 439.975 0.185373 -0.637599 0
M  V30 4520 H 442.505 -0.0553665 -2.04525 0
M  V30 4521 H 442.515 1.76707 -3.67748 0
M  V30 4522 H 441.19 0.695167 -4.10049 0
M  V30 4523 H 439.767 2.17861 -3.0264 0
M  V30 4524 N 441.952 1.55251 0.271103 0
M  V30 4525 C 442.915 1.87484 1.31842 0
M  V30 4526 C 443.915 0.749545 1.42262 0
M  V30 4527 O 445.105 1.01771 1.4138 0
M  V30 4528 C 442.237 2.0818 2.69951 0
M  V30 4529 H 443.43 2.81108 1.0449 0
M  V30 4530 H 440.983 1.47771 0.509258 0
M  V30 4531 H 441.718 1.16944 3.02481 0
M  V30 4532 H 441.503 2.90114 2.63774 0
M  V30 4533 H 442.993 2.34385 3.4562 0
M  V30 4534 N 443.43 -0.535701 1.48216 0
M  V30 4535 C 444.678 -1.28928 1.55634 0
M  V30 4536 C 444.999 -1.93645 0.229514 0
M  V30 4537 O 444.269 -1.81038 -0.74846 0
M  V30 4538 H 442.849 -0.47884 0.573342 0
M  V30 4539 H 445.511 -0.623853 1.84646 0
M  V30 4540 H 444.607 -2.07157 2.33436 0
M  V30 4541 N 444.908 -1.36708 -0.784132 0
M  V30 4542 C 446.136 -1.34398 -1.57305 0
M  V30 4543 C 446.551 0.0735577 -1.88657 0
M  V30 4544 O 445.908 1.03193 -1.50524 0
M  V30 4545 C 445.959 -2.17053 -2.89085 0
M  V30 4546 O 445.68 -3.53281 -2.59083 0
M  V30 4547 C 447.181 -2.22583 -3.83369 0
M  V30 4548 H 444.401 -0.460819 -0.487736 0
M  V30 4549 H 446.945 -1.79879 -0.972819 0
M  V30 4550 H 445.1 -1.75113 -3.45564 0
M  V30 4551 H 445.514 -3.9647 -3.43383 0
M  V30 4552 H 446.988 -2.84763 -4.72878 0
M  V30 4553 H 447.465 -1.23075 -4.21603 0
M  V30 4554 H 448.071 -2.64781 -3.32823 0
M  V30 4555 N 446.386 1.0089 -1.21074 0
M  V30 4556 C 447.634 1.74262 -1.02358 0
M  V30 4557 C 447.955 1.89869 0.444393 0
M  V30 4558 O 447.225 1.44677 1.32081 0
M  V30 4559 H 445.805 0.645615 -0.375754 0
M  V30 4560 H 448.467 1.21596 -1.52317 0
M  V30 4561 H 447.563 2.74328 -1.4883 0
M  V30 4562 N 447.864 1.01787 1.20321 0
M  V30 4563 C 449.104 0.716493 1.91431 0
M  V30 4564 C 449.468 -0.740352 1.77152 0
M  V30 4565 O 450.669 -1.1543 2.42754 0
M  V30 4566 C 448.94 1.14169 3.38674 0
M  V30 4567 S 450.499 0.962482 4.28114 0
M  V30 4568 H 447.317 0.261175 0.661293 0
M  V30 4569 H 449.919 1.30539 1.45533 0
M  V30 4570 H 448.623 2.19784 3.46588 0
M  V30 4571 H 448.154 0.545621 3.89598 0
M  V30 4572 H 450.169 -0.133253 4.96021 0
M  V30 4573 N 449.342 -1.36122 0.79427 0
M  V30 4574 C 450.275 -2.27759 0.141845 0
M  V30 4575 C 451.253 -1.47471 -0.684921 0
M  V30 4576 O 452.437 -1.76759 -0.654857 0
M  V30 4577 C 449.564 -3.29008 -0.804446 0
M  V30 4578 C 448.61 -4.26459 -0.0588617 0
M  V30 4579 S 449.443 -5.20253 1.26873 0
M  V30 4580 C 450.599 -6.25048 0.326562 0
M  V30 4581 H 450.832 -2.82746 0.918818 0
M  V30 4582 H 448.365 -1.42736 0.588722 0
M  V30 4583 H 450.323 -3.87842 -1.34495 0
M  V30 4584 H 448.984 -2.72924 -1.5547 0
M  V30 4585 H 448.177 -4.97973 -0.777087 0
M  V30 4586 H 447.779 -3.71731 0.411309 0
M  V30 4587 H 450.071 -6.75705 -0.492795 0
M  V30 4588 H 451.014 -7.00852 1.01053 0
M  V30 4589 H 451.422 -5.64454 -0.0722627 0
M  V30 4590 N 450.82 -0.546701 -1.47814 0
M  V30 4591 C 451.783 0.196287 -2.28358 0
M  V30 4592 C 452.783 0.852437 -1.36346 0
M  V30 4593 O 453.973 0.709913 -1.59078 0
M  V30 4594 C 451.105 1.28579 -3.15722 0
M  V30 4595 H 452.298 -0.511086 -2.95513 0
M  V30 4596 H 449.851 -0.303248 -1.5333 0
M  V30 4597 H 450.586 2.0259 -2.53235 0
M  V30 4598 H 450.371 0.820229 -3.83425 0
M  V30 4599 H 451.861 1.80793 -3.76435 0
M  V30 4600 N 452.299 1.55045 -0.282633 0
M  V30 4601 C 453.262 2.21515 0.588539 0
M  V30 4602 C 454.262 1.19535 1.07554 0
M  V30 4603 O 455.452 1.44391 0.974514 0
M  V30 4604 C 452.584 2.88704 1.8128 0
M  V30 4605 H 453.777 2.99899 0.00806397 0
M  V30 4606 H 451.33 1.56265 -0.0333067 0
M  V30 4607 H 452.065 2.14352 2.43359 0
M  V30 4608 H 451.85 3.63443 1.47144 0
M  V30 4609 H 453.34 3.39465 2.43214 0
M  V30 4610 N 453.777 0.010035 1.57597 0
M  V30 4611 C 454.707 -0.976857 2.12084 0
M  V30 4612 C 455.688 -1.35191 1.03235 0
M  V30 4613 O 456.873 -1.43389 1.3097 0
M  V30 4614 C 454.003 -2.26548 2.63236 0
M  V30 4615 C 452.957 -2.03175 3.76701 0
M  V30 4616 C 452.283 -3.38138 4.14206 0
M  V30 4617 C 453.583 -1.38625 5.03568 0
M  V30 4618 H 455.277 -0.523145 2.94794 0
M  V30 4619 H 452.823 -0.250195 1.4181 0
M  V30 4620 H 454.776 -2.95952 2.99984 0
M  V30 4621 H 453.5 -2.74051 1.77661 0
M  V30 4622 H 452.159 -1.36195 3.40362 0
M  V30 4623 H 451.807 -3.83363 3.25641 0
M  V30 4624 H 451.507 -3.23312 4.90656 0
M  V30 4625 H 453.031 -4.08841 4.53521 0
M  V30 4626 H 454.445 -1.98 5.38023 0
M  V30 4627 H 452.842 -1.34256 5.84889 0
M  V30 4628 H 453.912 -0.356722 4.83586 0
M  V30 4629 N 455.255 -1.55392 -0.262866 0
M  V30 4630 C 456.532 -1.67204 -1.01499 0
M  V30 4631 C 456.912 -0.545186 -2.03939 0
M  V30 4632 O 456.26 0.453467 -2.23955 0
M  V30 4633 C 456.47 -3.06847 -1.6627 0
M  V30 4634 C 457.818 -3.64928 -2.17054 0
M  V30 4635 O 458.842 -3.09545 -1.76239 0
M  V30 4636 O 457.701 -4.61984 -2.91947 0
M  V30 4637 H 454.795 -0.679467 -0.471438 0
M  V30 4638 H 457.341 -1.67729 -0.257918 0
M  V30 4639 H 456.113 -3.80309 -0.920915 0
M  V30 4640 H 455.736 -3.10266 -2.48638 0
M  V30 4641 N 456.733 0.527833 -1.48498 0
M  V30 4642 C 457.696 1.61439 -1.62696 0
M  V30 4643 C 458.696 1.52824 -0.500136 0
M  V30 4644 O 459.886 1.56456 -0.765976 0
M  V30 4645 C 457.018 3.01063 -1.59918 0
M  V30 4646 H 458.211 1.50189 -2.59583 0
M  V30 4647 H 455.764 0.750055 -1.37127 0
M  V30 4648 H 456.499 3.17818 -0.645163 0
M  V30 4649 H 456.284 3.08725 -2.41726 0
M  V30 4650 H 457.774 3.80057 -1.73051 0
M  V30 4651 N 458.211 1.37122 0.776871 0
M  V30 4652 C 459.121 1.34651 1.9211 0
M  V30 4653 C 460.137 0.246824 1.7224 0
M  V30 4654 O 461.313 0.48134 1.95563 0
M  V30 4655 C 458.378 1.14748 3.2716 0
M  V30 4656 C 457.439 2.34308 3.5972 0
M  V30 4657 C 456.672 2.15345 4.88326 0
M  V30 4658 O 456.895 1.13507 5.58992 0
M  V30 4659 O 455.829 3.03414 5.1983 0
M  V30 4660 H 459.655 2.31013 1.97146 0
M  V30 4661 H 457.24 1.17799 0.918901 0
M  V30 4662 H 459.122 1.05616 4.0795 0
M  V30 4663 H 457.797 0.214562 3.22988 0
M  V30 4664 H 456.704 2.49011 2.79185 0
M  V30 4665 H 458.037 3.26149 3.68629 0
M  V30 4666 N 459.689 -1.00246 1.21608 0
M  V30 4667 C 461.105 -1.26435 0.973975 0
M  V30 4668 C 461.305 -1.98642 -0.338143 0
M  V30 4669 O 460.361 -2.29026 -1.06317 0
M  V30 4670 C 461.674 -2.08551 2.16626 0
M  V30 4671 C 463.222 -2.21769 2.20879 0
M  V30 4672 C 463.697 -3.07267 3.39633 0
M  V30 4673 N 465.188 -3.14855 3.39736 0
M  V30 4674 C 465.923 -3.81274 4.28273 0
M  V30 4675 N 465.419 -4.497 5.27012 0
M  V30 4676 N 467.212 -3.7794 4.16074 0
M  V30 4677 H 459.363 -0.518089 2.05984 0
M  V30 4678 H 461.626 -0.291368 0.902113 0
M  V30 4679 H 461.332 -1.62847 3.11727 0
M  V30 4680 H 461.206 -3.09303 2.15897 0
M  V30 4681 H 463.593 -2.66691 1.26332 0
M  V30 4682 H 463.674 -1.20478 2.25652 0
M  V30 4683 H 463.318 -2.63047 4.34475 0
M  V30 4684 H 463.248 -4.08678 3.321 0
M  V30 4685 H 465.739 -2.66147 2.6828 0
M  V30 4686 H 466.052 -4.98092 5.90867 0
M  V30 4687 H 464.397 -4.48479 5.30935 0
M  V30 4688 H 467.588 -3.23638 3.38195 0
M  V30 4689 H 467.761 -4.29424 4.85282 0
M  V30 4690 N 461.167 -1.02423 -1.1978 0
M  V30 4691 C 462.397 -0.736387 -1.93031 0
M  V30 4692 C 462.805 0.708023 -1.75453 0
M  V30 4693 O 462.148 1.4927 -1.07071 0
M  V30 4694 C 462.21 -1.00194 -3.45255 0
M  V30 4695 C 461.874 -2.43698 -3.86601 0
M  V30 4696 C 462.871 -3.41814 -3.91738 0
M  V30 4697 C 460.556 -2.77975 -4.18372 0
M  V30 4698 C 462.55 -4.72265 -4.28071 0
M  V30 4699 C 460.237 -4.08636 -4.54378 0
M  V30 4700 C 461.235 -5.05592 -4.59201 0
M  V30 4701 O 460.923 -6.33914 -4.94376 0
M  V30 4702 H 460.655 -0.269116 -0.620123 0
M  V30 4703 H 463.209 -1.37043 -1.52998 0
M  V30 4704 H 461.439 -0.310747 -3.85449 0
M  V30 4705 H 463.128 -0.704488 -3.9974 0
M  V30 4706 H 463.894 -3.16671 -3.67348 0
M  V30 4707 H 459.773 -2.0319 -4.13805 0
M  V30 4708 H 463.317 -5.4794 -4.3175 0
M  V30 4709 H 459.214 -4.33556 -4.78226 0
M  V30 4710 H 459.982 -6.38317 -5.12341 0
M  V30 4711 N 462.645 1.35699 -0.801477 0
M  V30 4712 C 463.575 2.32436 -0.222658 0
M  V30 4713 C 464.556 1.5723 0.649057 0
M  V30 4714 O 465.741 1.85324 0.580387 0
M  V30 4715 C 462.871 3.41469 0.633719 0
M  V30 4716 C 461.825 4.27774 -0.139083 0
M  V30 4717 C 461.151 5.28082 0.838666 0
M  V30 4718 C 462.451 5.04946 -1.33517 0
M  V30 4719 H 464.145 2.81094 -1.03086 0
M  V30 4720 H 461.691 1.35146 -0.497155 0
M  V30 4721 H 463.644 4.08143 1.04868 0
M  V30 4722 H 462.368 2.91408 1.47475 0
M  V30 4723 H 461.027 3.62673 -0.535156 0
M  V30 4724 H 460.675 4.7429 1.67506 0
M  V30 4725 H 460.375 5.86695 0.32594 0
M  V30 4726 H 461.899 5.97628 1.25194 0
M  V30 4727 H 463.313 5.64593 -0.995349 0
M  V30 4728 H 461.71 5.7303 -1.78202 0
M  V30 4729 H 462.78 4.35886 -2.12442 0
M  V30 4730 N 464.123 0.554532 1.47522 0
M  V30 4731 C 465.4 -0.0360704 1.95567 0
M  V30 4732 C 465.78 -1.48828 1.49711 0
M  V30 4733 O 465.128 -2.16366 0.734717 0
M  V30 4734 C 465.338 0.106631 3.48837 0
M  V30 4735 C 466.686 -0.0400899 4.24581 0
M  V30 4736 O 467.71 0.0340453 3.56184 0
M  V30 4737 O 466.569 -0.199111 5.46137 0
M  V30 4738 H 463.663 -0.0656294 0.824392 0
M  V30 4739 H 466.209 0.620867 1.57935 0
M  V30 4740 H 464.981 1.11727 3.7501 0
M  V30 4741 H 464.604 -0.58804 3.93227 0
M  V30 4742 N 465.601 -1.54893 0.290851 0
M  V30 4743 C 466.849 -1.99538 -0.320756 0
M  V30 4744 C 467.17 -1.18075 -1.55188 0
M  V30 4745 O 466.44 -0.274162 -1.93972 0
M  V30 4746 H 465.02 -0.737052 -0.121507 0
M  V30 4747 H 467.682 -1.90755 0.399832 0
M  V30 4748 H 466.778 -3.06282 -0.599802 0
M  V30 4749 N 467.08 -0.0183926 -1.57589 0
M  V30 4750 C 468.01 0.965596 -2.12599 0
M  V30 4751 C 468.991 1.34641 -1.0395 0
M  V30 4752 O 470.176 1.42693 -1.31729 0
M  V30 4753 C 467.306 2.25149 -2.64434 0
M  V30 4754 C 466.26 2.01175 -3.77773 0
M  V30 4755 C 465.586 3.35937 -4.15994 0
M  V30 4756 C 466.886 1.35953 -5.04296 0
M  V30 4757 H 468.58 0.507504 -2.95067 0
M  V30 4758 H 466.126 0.242671 -1.41941 0
M  V30 4759 H 468.079 2.94357 -3.01549 0
M  V30 4760 H 466.803 2.73105 -1.79112 0
M  V30 4761 H 465.462 1.34388 -3.4108 0
M  V30 4762 H 465.11 3.81631 -3.27669 0
M  V30 4763 H 464.81 3.20705 -4.92364 0
M  V30 4764 H 466.334 4.0643 -4.55683 0
M  V30 4765 H 467.748 1.95144 -5.39065 0
M  V30 4766 H 466.145 1.31152 -5.85593 0
M  V30 4767 H 467.215 0.331071 -4.83768 0
M  V30 4768 N 468.558 1.5553 0.254621 0
M  V30 4769 C 469.521 1.88872 1.29846 0
M  V30 4770 C 470.521 0.764591 1.41459 0
M  V30 4771 O 471.711 1.03265 1.40293 0
M  V30 4772 C 468.843 2.11032 2.67728 0
M  V30 4773 H 470.036 2.82201 1.01502 0
M  V30 4774 H 467.589 1.48303 0.493556 0
M  V30 4775 H 468.324 1.20146 3.01223 0
M  V30 4776 H 468.109 2.92895 2.60682 0
M  V30 4777 H 469.599 2.38038 3.43115 0
M  V30 4778 N 470.036 -0.519951 1.48776 0
M  V30 4779 C 471.313 -1.28123 1.47797 0
M  V30 4780 C 471.693 -2.10196 0.195157 0
M  V30 4781 O 471.041 -2.13167 -0.822925 0
M  V30 4782 C 471.251 -2.15413 2.74587 0
M  V30 4783 C 472.599 -2.75225 3.23321 0
M  V30 4784 O 473.623 -2.25694 2.75574 0
M  V30 4785 O 472.482 -3.65346 4.06429 0
M  V30 4786 H 469.576 -0.578793 0.590701 0
M  V30 4787 H 472.122 -0.535779 1.6102 0
M  V30 4788 H 470.894 -1.54617 3.59457 0
M  V30 4789 H 470.517 -2.97186 2.64132 0
M  V30 4790 N 471.514 -1.37532 -0.769588 0
M  V30 4791 C 472.477 -1.33292 -1.86456 0
M  V30 4792 C 473.477 -0.236537 -1.59051 0
M  V30 4793 O 474.667 -0.492511 -1.67093 0
M  V30 4794 C 471.799 -1.07118 -3.23633 0
M  V30 4795 H 472.992 -2.30692 -1.91628 0
M  V30 4796 H 470.545 -1.22593 -0.969572 0
M  V30 4797 H 471.28 -0.102578 -3.24138 0
M  V30 4798 H 471.065 -1.86479 -3.44917 0
M  V30 4799 H 472.555 -1.06806 -4.03711 0
M  V30 4800 N 472.992 0.995999 -1.22138 0
M  V30 4801 C 473.939 2.08551 -0.988687 0
M  V30 4802 C 474.909 1.65864 0.0885021 0
M  V30 4803 O 476.094 1.90704 -0.0604589 0
M  V30 4804 C 473.234 3.40374 -0.569191 0
M  V30 4805 C 472.347 3.96421 -1.71681 0
M  V30 4806 C 471.482 5.1639 -1.2456 0
M  V30 4807 C 470.521 5.64567 -2.36497 0
M  V30 4808 N 469.658 6.75777 -1.90445 0
M  V30 4809 H 474.498 2.2779 -1.92135 0
M  V30 4810 H 472.035 1.1168 -0.957388 0
M  V30 4811 H 473.993 4.16068 -0.307166 0
M  V30 4812 H 472.623 3.21145 0.326462 0
M  V30 4813 H 471.675 3.17628 -2.09324 0
M  V30 4814 H 472.987 4.2816 -2.55891 0
M  V30 4815 H 472.141 5.99362 -0.940774 0
M  V30 4816 H 470.88 4.86266 -0.373662 0
M  V30 4817 H 469.885 4.80185 -2.67772 0
M  V30 4818 H 471.11 5.96716 -3.24202 0
M  V30 4819 H 469.056 6.47443 -1.05609 0
M  V30 4820 H 468.973 7.06818 -2.68223 0
M  V30 4821 H 470.241 7.62262 -1.63022 0
M  V30 4822 O 474.509 1.15683 1.12693 0
M  V30 4823 H 475.2 0.884984 1.72301 0
M  V30 END ATOM
M  V30 BEGIN BOND
M  V30 END BOND
M  V30 END CTAB
M  END
$$$$
