drugbank_target|P0A910 Outer membrane protein A (DB04233)
 OpenBabel12092120033D

  0  0  0     0  0            999 V3000
M  V30 BEGIN CTAB
M  V30 COUNTS 5186 5245 0 0 0
M  V30 BEGIN ATOM
M  V30 1 H -0.908 1.98254 -0.117106 0
M  V30 2 N 0 1.576 0 0
M  V30 3 C 0.933 2.03868 1.02534 0
M  V30 4 C 1.911 0.928543 1.3348 0
M  V30 5 O 3.095 1.19667 1.45644 0
M  V30 6 C 0.222 2.43627 2.35294 0
M  V30 7 C -0.732 3.65373 2.2001 0
M  V30 8 S 0.101 5.13292 1.52614 0
M  V30 9 C 1.257 5.56322 2.86805 0
M  V30 10 H 1.49 2.90518 0.631377 0
M  V30 11 H -0.977 1.52953 0.210867 0
M  V30 12 H 0.981 2.67203 3.11629 0
M  V30 13 H -0.358 1.57376 2.7183 0
M  V30 14 H -1.165 3.90944 3.18086 0
M  V30 15 H -1.563 3.418 1.51819 0
M  V30 16 H 0.729 5.58782 3.83104 0
M  V30 17 H 1.672 6.56266 2.65933 0
M  V30 18 H 2.08 4.83886 2.90714 0
M  V30 19 N 1.4781 -0.272755 1.55222 0
M  V30 20 C 2.4251 -1.33716 1.88119 0
M  V30 21 C 3.3951 -1.49066 0.73271 0
M  V30 22 O 4.5801 -1.63469 0.984002 0
M  V30 23 C 1.7201 -2.69238 2.15882 0
M  V30 24 C 0.8331 -2.62108 3.43399 0
M  V30 25 C -0.0319 -3.89811 3.60861 0
M  V30 26 C -0.9929 -3.77193 4.8207 0
M  V30 27 N -1.8559 -4.9673 4.96189 0
M  V30 28 H 2.9841 -1.04962 2.78903 0
M  V30 29 H 0.5211 -0.507088 1.38083 0
M  V30 30 H 2.4791 -3.48089 2.29978 0
M  V30 31 H 1.1091 -2.96194 1.28331 0
M  V30 32 H 0.1611 -1.74967 3.37773 0
M  V30 33 H 1.4731 -2.48685 4.32386 0
M  V30 34 H 0.6271 -4.77103 3.74777 0
M  V30 35 H -0.6339 -4.06102 2.7006 0
M  V30 36 H -1.6289 -2.88284 4.68159 0
M  V30 37 H -0.4039 -3.62421 5.74307 0
M  V30 38 H -2.4579 -5.13431 4.08319 0
M  V30 39 H -2.5409 -4.85839 5.79221 0
M  V30 40 H -1.2729 -5.85594 5.1449 0
M  V30 41 N 2.9562 -1.48159 -0.537278 0
M  V30 42 C 3.9032 -1.62138 -1.64256 0
M  V30 43 C 4.8732 -0.463668 -1.59497 0
M  V30 44 O 6.0582 -0.686241 -1.78032 0
M  V30 45 C 3.1982 -1.66028 -3.02537 0
M  V30 46 C 2.3112 -2.92855 -3.17585 0
M  V30 47 C 1.4462 -2.87952 -4.46382 0
M  V30 48 C 0.4852 -4.09516 -4.54932 0
M  V30 49 N -0.3778 -4.02733 -5.75109 0
M  V30 50 H 4.4622 -2.56529 -1.51647 0
M  V30 51 H 1.9992 -1.27224 -0.738414 0
M  V30 52 H 3.9572 -1.66265 -3.82638 0
M  V30 53 H 2.5872 -0.751331 -3.13934 0
M  V30 54 H 1.6392 -3.02395 -2.30784 0
M  V30 55 H 2.9512 -3.82822 -3.19764 0
M  V30 56 H 2.1052 -2.8655 -5.34765 0
M  V30 57 H 0.8442 -1.95702 -4.46712 0
M  V30 58 H -0.1508 -4.11201 -3.64957 0
M  V30 59 H 1.0742 -5.02917 -4.56346 0
M  V30 60 H -0.9798 -3.13299 -5.76351 0
M  V30 61 H -1.0628 -4.86397 -5.78752 0
M  V30 62 H 0.2052 -4.05379 -6.65799 0
M  V30 63 N 4.4343 0.785586 -1.36625 0
M  V30 64 C 5.6623 1.57448 -1.3423 0
M  V30 65 C 6.0773 1.88649 0.0755653 0
M  V30 66 O 5.4343 1.50414 1.03354 0
M  V30 67 C 5.4853 2.89316 -2.16745 0
M  V30 68 O 5.2063 2.59459 -3.53005 0
M  V30 69 C 6.7073 3.83606 -2.22174 0
M  V30 70 H 3.9273 0.488226 -0.4603 0
M  V30 71 H 6.4713 0.974733 -1.79775 0
M  V30 72 H 4.6263 3.4575 -1.74745 0
M  V30 73 H 5.0403 3.43804 -3.96105 0
M  V30 74 H 6.5143 4.73181 -2.8426 0
M  V30 75 H 6.9913 4.21734 -1.22627 0
M  V30 76 H 7.5973 3.33104 -2.64427 0
M  V30 77 N 5.9124 1.20967 1.01018 0
M  V30 78 C 6.8754 0.965918 2.07853 0
M  V30 79 C 7.8754 -0.0610545 1.60684 0
M  V30 80 O 9.0654 0.175681 1.73312 0
M  V30 81 C 6.1974 0.455513 3.37843 0
M  V30 82 H 7.3904 1.91365 2.3091 0
M  V30 83 H 4.9434 1.02594 1.17916 0
M  V30 84 H 5.6784 -0.497381 3.20463 0
M  V30 85 H 5.4634 1.19622 3.73407 0
M  V30 86 H 6.9534 0.304667 4.16487 0
M  V30 87 N 7.3905 -1.2043 1.01659 0
M  V30 88 C 8.6395 -1.89118 0.701237 0
M  V30 89 C 8.9525 -1.79705 -0.772358 0
M  V30 90 O 10.1585 -2.43528 -1.20026 0
M  V30 91 C 8.6145 -3.39168 1.20388 0
M  V30 92 C 8.2225 -3.57166 2.70438 0
M  V30 93 C 9.9665 -4.1341 0.963953 0
M  V30 94 C 7.8735 -5.01042 3.14183 0
M  V30 95 H 6.8035 -0.708267 0.2586 0
M  V30 96 H 9.4545 -1.36239 1.22927 0
M  V30 97 H 7.8365 -3.91369 0.603824 0
M  V30 98 H 9.0105 -3.15351 3.35992 0
M  V30 99 H 7.3255 -2.96294 2.92572 0
M  V30 100 H 9.9225 -5.19491 1.26621 0
M  V30 101 H 10.2655 -4.16181 -0.099578 0
M  V30 102 H 10.7985 -3.67309 1.52738 0
M  V30 103 H 7.5375 -5.03426 4.19812 0
M  V30 104 H 7.0575 -5.43668 2.53348 0
M  V30 105 H 8.7365 -5.69623 3.0682 0
M  V30 106 N 8.8686 -0.792821 -1.36206 0
M  V30 107 C 9.8316 -0.199459 -2.2833 0
M  V30 108 C 10.8316 0.605189 -1.48977 0
M  V30 109 O 12.0216 0.425685 -1.68919 0
M  V30 110 C 9.1536 0.723523 -3.33134 0
M  V30 111 H 10.3466 -1.01181 -2.82316 0
M  V30 112 H 7.8996 -0.562485 -1.45828 0
M  V30 113 H 8.6346 1.56008 -2.84309 0
M  V30 114 H 8.4196 0.148436 -3.91819 0
M  V30 115 H 9.9096 1.13344 -4.01924 0
M  V30 116 N 10.3467 1.47872 -0.545128 0
M  V30 117 C 11.5957 2.01695 -0.0145033 0
M  V30 118 C 11.9087 1.42609 1.33873 0
M  V30 119 O 13.1147 1.88021 1.95858 0
M  V30 120 C 11.5707 3.59892 0.0245068 0
M  V30 121 C 11.1787 4.27966 -1.32475 0
M  V30 122 C 12.9227 4.21507 0.50316 0
M  V30 123 C 10.8297 5.78136 -1.2455 0
M  V30 124 H 9.7597 0.753998 -0.00165172 0
M  V30 125 H 12.4107 1.69985 -0.691175 0
M  V30 126 H 10.7927 3.88509 0.766575 0
M  V30 127 H 11.9667 4.11003 -2.08357 0
M  V30 128 H 10.2817 3.78286 -1.74036 0
M  V30 129 H 12.8787 5.31538 0.580656 0
M  V30 130 H 13.2217 3.87855 1.51243 0
M  V30 131 H 13.7547 3.97376 -0.183681 0
M  V30 132 H 10.4937 6.16388 -2.23039 0
M  V30 133 H 10.0137 5.97469 -0.528282 0
M  V30 134 H 11.6927 6.40099 -0.942488 0
M  V30 135 N 11.8248 0.280983 1.55075 0
M  V30 136 C 12.7878 -0.590896 2.21452 0
M  V30 137 C 13.7878 -1.07682 1.19421 0
M  V30 138 O 14.9778 -0.97605 1.44288 0
M  V30 139 C 12.1098 -1.81587 2.88511 0
M  V30 140 H 13.3028 -0.0112554 2.99898 0
M  V30 141 H 10.8558 0.0316438 1.56268 0
M  V30 142 H 11.5908 -2.43587 2.14093 0
M  V30 143 H 11.3758 -1.4753 3.63287 0
M  V30 144 H 12.8658 -2.43575 3.39206 0
M  V30 145 N 13.3029 -1.57598 0.00835791 0
M  V30 146 C 14.5489 -1.91211 -0.675732 0
M  V30 147 C 14.8819 -0.883139 -1.72958 0
M  V30 148 O 14.1569 0.097016 -1.94258 0
M  V30 149 C 14.4399 -3.35379 -1.31123 0
M  V30 150 C 14.2929 -4.48999 -0.268356 0
M  V30 151 C 15.6119 -3.7912 -2.23508 0
M  V30 152 H 12.7309 -0.695374 -0.244179 0
M  V30 153 H 15.3729 -1.89901 0.0613655 0
M  V30 154 H 13.5229 -3.36626 -1.93946 0
M  V30 155 H 15.1949 -4.59887 0.360844 0
M  V30 156 H 13.4379 -4.31873 0.408482 0
M  V30 157 H 14.1089 -5.46851 -0.752218 0
M  V30 158 H 16.5849 -3.79477 -1.70693 0
M  V30 159 H 15.4609 -4.80729 -2.64936 0
M  V30 160 H 15.7219 -3.13455 -3.11766 0
M  V30 161 N 14.781 0.264519 -1.55364 0
M  V30 162 C 15.744 1.31046 -1.88042 0
M  V30 163 C 16.744 1.41943 -0.755569 0
M  V30 164 O 17.934 1.40947 -1.02369 0
M  V30 165 C 15.066 2.69067 -2.09323 0
M  V30 166 H 16.259 1.03297 -2.81549 0
M  V30 167 H 13.812 0.502989 -1.47986 0
M  V30 168 H 14.547 3.01982 -1.18226 0
M  V30 169 H 14.332 2.62542 -2.91229 0
M  V30 170 H 15.822 3.44623 -2.35848 0
M  V30 171 N 16.2591 1.48442 0.529413 0
M  V30 172 C 17.1891 1.65902 1.64313 0
M  V30 173 C 18.1701 0.507897 1.6234 0
M  V30 174 O 19.3551 0.740503 1.79528 0
M  V30 175 C 16.4851 1.69911 3.02898 0
M  V30 176 C 15.4391 2.8453 3.19729 0
M  V30 177 C 14.7651 2.73629 4.59381 0
M  V30 178 C 16.0651 4.25821 3.02447 0
M  V30 179 H 17.7591 2.5914 1.49955 0
M  V30 180 H 15.3051 1.24709 0.719982 0
M  V30 181 H 17.2581 1.80715 3.80684 0
M  V30 182 H 15.9821 0.732524 3.18279 0
M  V30 183 H 14.6411 2.73283 2.44361 0
M  V30 184 H 14.2891 1.74938 4.71599 0
M  V30 185 H 13.9891 3.50541 4.71588 0
M  V30 186 H 15.5131 2.86401 5.39265 0
M  V30 187 H 16.9271 4.37898 3.70024 0
M  V30 188 H 15.3241 5.03735 3.26146 0
M  V30 189 H 16.3941 4.42244 1.98867 0
M  V30 190 N 17.7372 -0.778329 1.37039 0
M  V30 191 C 18.7002 -1.87301 1.32102 0
M  V30 192 C 19.7002 -1.59198 0.226405 0
M  V30 193 O 20.8902 -1.67403 0.481861 0
M  V30 194 C 18.0222 -3.24309 1.05055 0
M  V30 195 H 19.2152 -1.93093 2.29467 0
M  V30 196 H 16.7682 -0.977358 1.21973 0
M  V30 197 H 17.5032 -3.24196 0.0819373 0
M  V30 198 H 17.2882 -3.46098 1.84279 0
M  V30 199 H 18.7782 -4.04382 1.04234 0
M  V30 200 N 19.2153 -1.21501 -1.00376 0
M  V30 201 C 20.4633 -1.03095 -1.73827 0
M  V30 202 C 20.7843 0.436341 -1.90055 0
M  V30 203 O 20.0543 1.31466 -1.45236 0
M  V30 204 H 18.6343 -0.378487 -0.644016 0
M  V30 205 H 21.2963 -1.52831 -1.20949 0
M  V30 206 H 20.3923 -1.49991 -2.73695 0
M  V30 207 N 20.6934 1.19889 -1.02296 0
M  V30 208 C 21.9404 1.8942 -0.715972 0
M  V30 209 C 22.2684 1.79251 0.754944 0
M  V30 210 O 21.5234 1.17526 1.56481 0
M  V30 211 C 21.8224 3.39883 -1.10518 0
M  V30 212 C 21.4884 3.70254 -2.57337 0
M  V30 213 C 20.1504 3.78254 -2.97452 0
M  V30 214 C 22.5024 3.84052 -3.52354 0
M  V30 215 C 19.8304 3.97514 -4.31509 0
M  V30 216 C 22.1824 4.04824 -4.86108 0
M  V30 217 C 20.8464 4.11054 -5.25919 0
M  V30 218 H 20.1164 0.693138 -0.261993 0
M  V30 219 H 22.7634 1.42012 -1.28472 0
M  V30 220 H 21.0684 3.8915 -0.454953 0
M  V30 221 H 22.7654 3.9199 -0.845261 0
M  V30 222 H 19.3554 3.64632 -2.25258 0
M  V30 223 H 23.5394 3.77221 -3.22518 0
M  V30 224 H 18.7954 4.00574 -4.61898 0
M  V30 225 H 22.9694 4.14442 -5.59653 0
M  V30 226 H 20.5964 4.2573 -6.29808 0
M  V30 227 N 22.1715 0.800033 1.35784 0
M  V30 228 C 23.1345 0.211565 2.28221 0
M  V30 229 C 24.1345 -0.59728 1.49296 0
M  V30 230 O 25.3245 -0.416721 1.69142 0
M  V30 231 C 22.4565 -0.705846 3.33513 0
M  V30 232 H 23.6495 1.02677 2.81776 0
M  V30 233 H 21.2025 0.570211 1.45528 0
M  V30 234 H 21.9375 -1.54498 2.85133 0
M  V30 235 H 21.7225 -0.127655 3.91892 0
M  V30 236 H 23.2125 -1.11211 4.02519 0
M  V30 237 N 23.6496 -1.47581 0.552962 0
M  V30 238 C 24.8776 -2.06875 0.0320556 0
M  V30 239 C 25.2926 -1.40625 -1.25976 0
M  V30 240 O 24.6496 -0.501349 -1.75479 0
M  V30 241 C 24.7006 -3.61092 -0.17167 0
M  V30 242 O 24.4216 -4.24858 1.06899 0
M  V30 243 C 25.9226 -4.37242 -0.730344 0
M  V30 244 H 23.1426 -0.669561 0.043915 0
M  V30 245 H 25.6866 -1.89646 0.765163 0
M  V30 246 H 23.8416 -3.7785 -0.854894 0
M  V30 247 H 24.2556 -5.17334 0.864059 0
M  V30 248 H 25.7296 -5.45842 -0.822203 0
M  V30 249 H 26.2066 -4.03235 -1.74064 0
M  V30 250 H 26.8126 -4.25219 -0.0829543 0
M  V30 251 N 25.1277 -0.289203 -1.54924 0
M  V30 252 C 26.3737 0.323998 -2.00195 0
M  V30 253 C 26.7067 1.54441 -1.17735 0
M  V30 254 O 25.9817 1.92875 -0.250878 0
M  V30 255 C 26.2647 0.692276 -3.53383 0
M  V30 256 C 26.1177 -0.536457 -4.46589 0
M  V30 257 C 27.4367 1.52335 -4.12895 0
M  V30 258 H 24.5557 0.116289 -0.727768 0
M  V30 259 H 27.1977 -0.398954 -1.85764 0
M  V30 260 H 25.3477 1.30822 -3.65811 0
M  V30 261 H 27.0197 -1.17499 -4.46085 0
M  V30 262 H 25.2627 -1.17192 -4.1767 0
M  V30 263 H 25.9337 -0.234806 -5.515 0
M  V30 264 H 28.4097 1.00302 -4.0383 0
M  V30 265 H 27.2857 1.74982 -5.20262 0
M  V30 266 H 27.5467 2.50886 -3.64018 0
M  V30 267 N 26.6058 1.57591 -0.0167156 0
M  V30 268 C 27.5688 2.08393 0.954204 0
M  V30 269 C 28.5688 0.996531 1.26198 0
M  V30 270 O 29.7588 1.25858 1.20438 0
M  V30 271 C 26.8908 2.5394 2.27436 0
M  V30 272 H 28.0838 2.95455 0.514451 0
M  V30 273 H 25.6368 1.54582 0.231089 0
M  V30 274 H 26.3718 1.70171 2.76066 0
M  V30 275 H 26.1568 3.33371 2.06412 0
M  V30 276 H 27.6468 2.93512 2.97053 0
M  V30 277 N 28.0839 -0.256276 1.55502 0
M  V30 278 C 29.0159 -1.33981 1.85962 0
M  V30 279 C 30.0289 -1.44743 0.745212 0
M  V30 280 O 31.2179 -1.4626 1.02324 0
M  V30 281 C 28.3179 -2.7194 2.02242 0
M  V30 282 C 27.4909 -2.83562 3.33033 0
M  V30 283 C 26.5499 -4.02304 3.39172 0
M  V30 284 O 25.5759 -3.92273 4.12444 0
M  V30 285 N 26.7779 -5.15045 2.67784 0
M  V30 286 H 29.5429 -1.08191 2.7949 0
M  V30 287 H 27.1039 -0.446388 1.55624 0
M  V30 288 H 29.0959 -3.49697 2.03701 0
M  V30 289 H 27.6659 -2.90479 1.15502 0
M  V30 290 H 26.8859 -1.92555 3.43971 0
M  V30 291 H 28.1739 -2.88271 4.19258 0
M  V30 292 H 27.5719 -5.26085 2.07968 0
M  V30 293 H 26.1289 -5.90972 2.74947 0
M  V30 294 N 29.562 -1.4872 -0.521534 0
M  V30 295 C 30.525 -1.63379 -1.60748 0
M  V30 296 C 31.525 -0.50661 -1.52611 0
M  V30 297 O 32.715 -0.772601 -1.5613 0
M  V30 298 C 29.847 -1.61192 -3.00383 0
M  V30 299 H 31.04 -2.60217 -1.49087 0
M  V30 300 H 28.593 -1.37444 -0.744235 0
M  V30 301 H 29.328 -0.65863 -3.17541 0
M  V30 302 H 29.113 -2.43032 -3.07698 0
M  V30 303 H 30.603 -1.7466 -3.7932 0
M  V30 304 N 31.0401 0.771051 -1.3745 0
M  V30 305 C 32.0031 1.86598 -1.33093 0
M  V30 306 C 33.0031 1.59076 -0.234845 0
M  V30 307 O 34.1931 1.67145 -0.490732 0
M  V30 308 C 31.3251 3.23747 -1.06773 0
M  V30 309 H 32.5181 1.91873 -2.30488 0
M  V30 310 H 30.0711 0.970876 -1.2249 0
M  V30 311 H 30.8061 3.24148 -0.099129 0
M  V30 312 H 30.5911 3.45115 -1.86112 0
M  V30 313 H 32.0811 4.03824 -1.06377 0
M  V30 314 N 32.5182 1.22032 0.997298 0
M  V30 315 C 33.9292 1.0397 1.55071 0
M  V30 316 C 34.2802 -0.398192 1.92117 0
M  V30 317 O 33.4052 -1.28254 1.74298 0
M  V30 318 C 34.0002 1.88109 2.81781 0
M  V30 319 C 32.5592 1.74357 3.33581 0
M  V30 320 C 31.7062 1.84846 2.06706 0
M  V30 321 H 34.6572 1.35941 0.818883 0
M  V30 322 H 34.6782 1.39589 3.53971 0
M  V30 323 H 34.1902 2.92754 2.54787 0
M  V30 324 H 32.2912 0.72427 3.65493 0
M  V30 325 H 32.4042 2.56772 4.04481 0
M  V30 326 H 30.7682 1.28238 2.20062 0
M  V30 327 H 31.5512 2.91014 1.82114 0
M  V30 328 N 33.9963 -1.19345 1.0293 0
M  V30 329 C 34.9433 -2.2258 0.610464 0
M  V30 330 C 35.9133 -1.6179 -0.375946 0
M  V30 331 O 37.0983 -1.88844 -0.272511 0
M  V30 332 C 34.2383 -3.45085 -0.0321473 0
M  V30 333 C 33.3513 -4.20258 1.00035 0
M  V30 334 C 32.4863 -5.3019 0.32746 0
M  V30 335 C 31.5253 -5.97121 1.34584 0
M  V30 336 N 30.6623 -6.98615 0.698726 0
M  V30 337 H 35.5023 -2.57764 1.49538 0
M  V30 338 H 33.0393 -1.26644 0.748311 0
M  V30 339 H 34.9973 -4.15061 -0.421966 0
M  V30 340 H 33.6273 -3.10555 -0.88064 0
M  V30 341 H 32.6793 -3.49223 1.50823 0
M  V30 342 H 33.9913 -4.66175 1.77433 0
M  V30 343 H 33.1453 -6.06587 -0.11718 0
M  V30 344 H 31.8843 -4.85345 -0.478713 0
M  V30 345 H 30.8893 -5.19474 1.80074 0
M  V30 346 H 32.1143 -6.4405 2.15352 0
M  V30 347 H 30.0603 -6.55942 -0.0873471 0
M  V30 348 H 29.9773 -7.42724 1.41058 0
M  V30 349 H 31.2453 -7.79004 0.278102 0
M  V30 350 N 35.4744 -0.807222 -1.35358 0
M  V30 351 C 36.7514 -0.311126 -1.9311 0
M  V30 352 C 37.1314 1.19937 -1.73719 0
M  V30 353 O 36.4794 1.99918 -1.10657 0
M  V30 354 C 36.6894 -0.723226 -3.41424 0
M  V30 355 C 38.0374 -0.713078 -4.18569 0
M  V30 356 O 39.0614 -0.664811 -3.49941 0
M  V30 357 O 37.9204 -0.772022 -5.41019 0
M  V30 358 H 35.0144 -0.081526 -0.822972 0
M  V30 359 H 37.5604 -0.890962 -1.4443 0
M  V30 360 H 36.3324 -1.76426 -3.4927 0
M  V30 361 H 35.9554 -0.118232 -3.97424 0
M  V30 362 N 36.9525 1.47285 -0.560781 0
M  V30 363 C 37.9005 2.31756 0.197942 0
M  V30 364 C 38.8945 1.43146 0.905854 0
M  V30 365 O 40.1005 1.59891 0.826733 0
M  V30 366 H 36.4755 0.747438 0.0827049 0
M  V30 367 H 38.4465 2.9359 -0.533629 0
M  V30 368 C 37.1955 3.25874 1.21249 0
M  V30 369 H 36.5185 3.94023 0.67719 0
M  V30 370 H 37.9585 3.87803 1.71419 0
M  V30 371 C 36.4175 2.49651 2.26221 0
M  V30 372 O 36.9475 2.24355 3.33208 0
M  V30 373 N 35.1535 2.10597 2.00243 0
M  V30 374 H 34.7005 2.31369 1.13252 0
M  V30 375 H 34.6585 1.59913 2.70694 0
M  V30 376 N 38.4306 0.297415 1.54768 0
M  V30 377 C 39.6586 -0.315623 2.04478 0
M  V30 378 C 40.0736 -1.47792 1.17486 0
M  V30 379 O 39.4306 -1.81404 0.19971 0
M  V30 380 C 39.4816 -0.7753 3.53088 0
M  V30 381 O 39.2026 0.340732 4.36773 0
M  V30 382 C 40.7036 -1.45386 4.18781 0
M  V30 383 H 37.9236 -0.0690887 0.667434 0
M  V30 384 H 40.4676 0.436003 1.99798 0
M  V30 385 H 38.6226 -1.47696 3.58141 0
M  V30 386 H 39.0366 -0.0165035 5.24497 0
M  V30 387 H 40.5106 -1.72669 5.24299 0
M  V30 388 H 40.9876 -2.39275 3.68299 0
M  V30 389 H 41.5936 -0.795475 4.17795 0
M  V30 390 N 39.9087 -1.5758 0.0250728 0
M  V30 391 C 41.1547 -1.92746 -0.649648 0
M  V30 392 C 41.5097 -0.901588 -1.69968 0
M  V30 393 O 40.8027 0.0829251 -1.9142 0
M  V30 394 C 40.9967 -3.32421 -1.31268 0
M  V30 395 C 40.8257 -4.48499 -0.328394 0
M  V30 396 C 39.5957 -5.05251 0.070284 0
M  V30 397 C 41.7937 -5.12618 0.415665 0
M  V30 398 N 39.7757 -6.04851 1.05016 0
M  V30 399 C 41.1467 -6.0728 1.24943 0
M  V30 400 C 43.2017 -4.95612 0.476803 0
M  V30 401 C 41.9047 -6.86766 2.1388 0
M  V30 402 C 43.9307 -5.75703 1.3535 0
M  V30 403 C 43.2927 -6.69978 2.17504 0
M  V30 404 H 39.3917 -0.753231 -0.210159 0
M  V30 405 H 41.9757 -1.94486 0.0912999 0
M  V30 406 H 40.1467 -3.31508 -2.02379 0
M  V30 407 H 41.8787 -3.54946 -1.94411 0
M  V30 408 H 38.6337 -4.72628 -0.303323 0
M  V30 409 H 39.0577 -6.5934 1.53622 0
M  V30 410 H 43.6997 -4.22554 -0.144105 0
M  V30 411 H 41.4177 -7.59132 2.77027 0
M  V30 412 H 45.0037 -5.64579 1.40504 0
M  V30 413 H 43.8837 -7.30873 2.84244 0
M  V30 414 N 41.3868 0.248026 -1.55636 0
M  V30 415 C 42.6168 0.992367 -1.81206 0
M  V30 416 C 43.0248 1.7949 -0.598324 0
M  V30 417 O 42.3678 1.78292 0.442434 0
M  V30 418 C 42.4298 1.97926 -3.00109 0
M  V30 419 C 42.0938 1.36377 -4.36177 0
M  V30 420 C 43.0908 0.76682 -5.14214 0
M  V30 421 C 40.7758 1.38347 -4.82872 0
M  V30 422 C 42.7698 0.197778 -6.37093 0
M  V30 423 C 40.4568 0.810574 -6.057 0
M  V30 424 C 41.4548 0.218754 -6.8265 0
M  V30 425 O 41.1428 -0.345298 -8.03158 0
M  V30 426 H 40.8748 0.297704 -0.606917 0
M  V30 427 H 43.4288 0.276517 -2.0353 0
M  V30 428 H 41.6588 2.73339 -2.73538 0
M  V30 429 H 43.3478 2.58694 -3.12781 0
M  V30 430 H 44.1138 0.744114 -4.79258 0
M  V30 431 H 39.9928 1.8335 -4.2297 0
M  V30 432 H 43.5368 -0.264788 -6.97097 0
M  V30 433 H 39.4338 0.830604 -6.40134 0
M  V30 434 H 40.2018 -0.237055 -8.18157 0
M  V30 435 N 42.8649 1.48995 0.513639 0
M  V30 436 C 44.0929 1.61531 1.29288 0
M  V30 437 C 44.5079 0.281801 1.86685 0
M  V30 438 O 43.8649 -0.731111 1.67215 0
M  V30 439 C 43.9159 2.67449 2.43215 0
M  V30 440 O 43.6369 3.95626 1.88179 0
M  V30 441 C 45.1379 2.90575 3.34785 0
M  V30 442 H 42.3579 0.544165 0.392588 0
M  V30 443 H 44.9019 1.9494 0.617956 0
M  V30 444 H 43.0569 2.36853 3.0656 0
M  V30 445 H 43.4709 4.53868 2.62876 0
M  V30 446 H 44.9449 3.68449 4.11035 0
M  V30 447 H 45.4219 2.00011 3.91015 0
M  V30 448 H 46.0279 3.22538 2.77218 0
M  V30 449 N 44.343 -0.763751 1.37857 0
M  V30 450 C 45.591 -1.51957 1.33243 0
M  V30 451 C 45.912 -1.94835 -0.0801709 0
M  V30 452 O 45.182 -1.66894 -1.02582 0
M  V30 453 H 43.762 -0.563626 0.49024 0
M  V30 454 H 46.424 -0.908504 1.7243 0
M  V30 455 H 45.52 -2.41523 1.97669 0
M  V30 456 N 45.8211 -1.22559 -0.990812 0
M  V30 457 C 46.7841 -0.998863 -2.0629 0
M  V30 458 C 47.7841 0.0354834 -1.60761 0
M  V30 459 O 48.9741 -0.203231 -1.7301 0
M  V30 460 C 46.1061 -0.509203 -3.37076 0
M  V30 461 H 47.2991 -1.95014 -2.27837 0
M  V30 462 H 44.8521 -1.04456 -1.16269 0
M  V30 463 H 45.5871 0.446335 -3.21214 0
M  V30 464 H 45.3721 -1.25547 -3.71457 0
M  V30 465 H 46.8621 -0.370888 -4.1595 0
M  V30 466 N 47.2992 1.18797 -1.03562 0
M  V30 467 C 48.2462 2.22253 -0.622259 0
M  V30 468 C 49.2162 1.61987 0.36736 0
M  V30 469 O 50.4012 1.88986 0.262492 0
M  V30 470 C 47.5412 3.45097 0.0138462 0
M  V30 471 C 46.6542 4.19722 -1.02263 0
M  V30 472 C 45.7892 5.30009 -0.355573 0
M  V30 473 C 44.8282 5.96399 -1.37749 0
M  V30 474 N 43.9652 6.98234 -0.735766 0
M  V30 475 H 48.8052 2.56968 -1.50903 0
M  V30 476 H 46.3422 1.26245 -0.755017 0
M  V30 477 H 48.3002 4.15279 0.399948 0
M  V30 478 H 46.9302 3.11018 0.864158 0
M  V30 479 H 45.9822 3.48418 -1.52673 0
M  V30 480 H 47.2942 4.65227 -1.79903 0
M  V30 481 H 46.4482 6.0664 0.0850095 0
M  V30 482 H 45.1872 4.85592 0.452967 0
M  V30 483 H 44.1922 5.18512 -1.82826 0
M  V30 484 H 45.4172 6.42899 -2.18764 0
M  V30 485 H 43.3632 6.55979 0.0525597 0
M  V30 486 H 43.2802 7.41965 -1.44995 0
M  V30 487 H 44.5482 7.78845 -0.31941 0
M  V30 488 N 48.7773 0.814389 1.34928 0
M  V30 489 C 49.7073 0.244827 2.32213 0
M  V30 490 C 50.6883 -0.634024 1.57842 0
M  V30 491 O 51.8733 -0.562676 1.8587 0
M  V30 492 C 49.0033 -0.601106 3.42058 0
M  V30 493 C 47.9573 0.179896 4.27622 0
M  V30 494 C 47.2833 -0.788237 5.28858 0
M  V30 495 C 48.5833 1.38329 5.03649 0
M  V30 496 H 50.2773 1.05763 2.80097 0
M  V30 497 H 47.8233 0.510029 1.34665 0
M  V30 498 H 49.7763 -1.00968 4.09125 0
M  V30 499 H 48.5003 -1.44688 2.92802 0
M  V30 500 H 47.1593 0.569739 3.62146 0
M  V30 501 H 46.8073 -1.62973 4.75866 0
M  V30 502 H 46.5073 -0.269942 5.8698 0
M  V30 503 H 48.0313 -1.19485 5.98795 0
M  V30 504 H 49.4453 1.04918 5.63618 0
M  V30 505 H 47.8423 1.83662 5.71304 0
M  V30 506 H 48.9123 2.16592 4.33839 0
M  V30 507 N 50.2554 -1.46986 0.568584 0
M  V30 508 C 51.5034 -2.02041 0.0487022 0
M  V30 509 C 51.8244 -1.44408 -1.31039 0
M  V30 510 O 51.0944 -0.623477 -1.85714 0
M  V30 511 H 49.6744 -0.746849 0.015014 0
M  V30 512 H 52.3364 -1.80257 0.741168 0
M  V30 513 H 51.4324 -3.12085 -0.0308961 0
M  V30 514 N 51.7335 -0.305618 -1.54608 0
M  V30 515 C 52.9795 0.295595 -2.01241 0
M  V30 516 C 53.3345 1.51171 -1.19018 0
M  V30 517 O 52.6275 1.89832 -0.259684 0
M  V30 518 C 52.8215 0.698983 -3.50498 0
M  V30 519 C 52.6505 -0.476491 -4.47168 0
M  V30 520 C 51.4205 -0.969963 -4.95903 0
M  V30 521 C 53.6185 -1.32294 -4.96994 0
M  V30 522 N 51.6005 -2.11172 -5.76437 0
M  V30 523 C 52.9715 -2.31212 -5.75275 0
M  V30 524 C 55.0265 -1.35278 -4.7917 0
M  V30 525 C 53.7295 -3.32896 -6.37631 0
M  V30 526 C 55.7555 -2.35823 -5.42348 0
M  V30 527 C 55.1175 -3.33469 -6.20466 0
M  V30 528 H 51.2165 0.0724992 -0.778632 0
M  V30 529 H 53.8005 -0.436583 -1.89742 0
M  V30 530 H 51.9715 1.40032 -3.62278 0
M  V30 531 H 53.7035 1.28013 -3.8392 0
M  V30 532 H 50.4585 -0.544178 -4.70463 0
M  V30 533 H 50.8825 -2.68714 -6.21387 0
M  V30 534 H 55.5245 -0.61157 -4.18354 0
M  V30 535 H 53.2425 -4.07933 -6.97579 0
M  V30 536 H 56.8285 -2.38911 -5.30484 0
M  V30 537 H 55.7085 -4.09996 -6.68485 0
M  V30 538 N 53.2116 1.57565 -0.0334293 0
M  V30 539 C 54.4366 1.96689 0.657895 0
M  V30 540 C 54.8616 0.910057 1.64619 0
M  V30 541 O 54.2196 -0.128598 1.80843 0
M  V30 542 C 54.2676 3.34905 1.33683 0
M  V30 543 O 53.3716 3.31574 2.45219 0
M  V30 544 H 52.7126 0.641205 0.172489 0
M  V30 545 H 55.2426 2.04372 -0.0965621 0
M  V30 546 H 55.2526 3.71234 1.69262 0
M  V30 547 H 53.9276 4.11366 0.612411 0
M  V30 548 H 52.5046 3.06968 2.11719 0
M  V30 549 N 54.6897 -0.239769 1.55765 0
M  V30 550 C 55.6217 -1.32001 1.87372 0
M  V30 551 C 56.6347 -1.43944 0.760522 0
M  V30 552 O 57.8237 -1.45167 1.0387 0
M  V30 553 C 54.9237 -2.69779 2.05115 0
M  V30 554 C 54.0967 -2.80014 3.36022 0
M  V30 555 C 53.1557 -3.98684 3.4342 0
M  V30 556 O 52.1817 -3.87877 4.16582 0
M  V30 557 N 53.3837 -5.12176 2.73232 0
M  V30 558 H 56.1487 -1.0522 2.80622 0
M  V30 559 H 53.7097 -0.429857 1.56089 0
M  V30 560 H 55.7017 -3.47517 2.07399 0
M  V30 561 H 54.2717 -2.89237 1.18577 0
M  V30 562 H 53.4917 -1.88896 3.45994 0
M  V30 563 H 54.7797 -2.83808 4.22292 0
M  V30 564 H 54.1777 -5.2385 2.13536 0
M  V30 565 H 52.7347 -5.88022 2.81199 0
M  V30 566 N 56.1678 -1.49265 -0.50573 0
M  V30 567 C 57.3978 -1.61979 -1.28243 0
M  V30 568 C 57.8058 -0.288576 -1.86986 0
M  V30 569 O 57.1488 0.735408 -1.68337 0
M  V30 570 C 57.2108 -2.62632 -2.45489 0
M  V30 571 C 56.8748 -4.071 -2.07651 0
M  V30 572 C 57.8718 -4.94049 -1.61901 0
M  V30 573 C 55.5568 -4.52801 -2.17431 0
M  V30 574 C 57.5508 -6.24736 -1.26428 0
M  V30 575 C 55.2378 -5.83503 -1.8157 0
M  V30 576 C 56.2358 -6.69294 -1.36142 0
M  V30 577 O 55.9238 -7.9756 -1.00764 0
M  V30 578 H 55.6558 -0.54834 -0.395347 0
M  V30 579 H 58.2098 -1.96002 -0.614204 0
M  V30 580 H 56.4398 -2.2378 -3.15372 0
M  V30 581 H 58.1288 -2.64925 -3.07522 0
M  V30 582 H 58.8948 -4.5997 -1.53795 0
M  V30 583 H 54.7738 -3.86196 -2.51742 0
M  V30 584 H 58.3178 -6.91652 -0.908992 0
M  V30 585 H 54.2148 -6.17112 -1.89324 0
M  V30 586 H 54.9828 -8.10529 -1.13952 0
M  V30 587 N 57.6459 0.756429 -1.3826 0
M  V30 588 C 58.5959 1.86069 -1.31766 0
M  V30 589 C 59.5799 1.59621 -0.202483 0
M  V30 590 O 60.7719 1.7149 -0.438211 0
M  V30 591 C 57.9009 3.23742 -1.1422 0
M  V30 592 C 56.9869 3.56091 -2.30348 0
M  V30 593 N 57.3779 3.59517 -3.55783 0
M  V30 594 C 55.6759 3.86341 -2.22838 0
M  V30 595 C 56.3769 3.89052 -4.32451 0
M  V30 596 N 55.3529 4.05736 -3.61772 0
M  V30 597 H 59.1549 1.86992 -2.26741 0
M  V30 598 H 56.6689 0.953643 -1.31451 0
M  V30 599 H 58.6659 4.02761 -1.07652 0
M  V30 600 H 57.3259 3.24073 -0.201763 0
M  V30 601 H 58.3369 3.41347 -3.89491 0
M  V30 602 H 55.0139 3.94404 -1.36937 0
M  V30 603 H 56.4039 3.98349 -5.4108 0
M  V30 604 N 59.124 1.23083 0.984299 0
M  V30 605 C 60.401 0.9689 1.69917 0
M  V30 606 C 60.781 -0.513604 2.04757 0
M  V30 607 O 60.129 -1.48383 1.73767 0
M  V30 608 C 60.339 1.87518 2.94343 0
M  V30 609 C 61.687 2.13636 3.6694 0
M  V30 610 O 62.711 1.85036 3.04368 0
M  V30 611 O 61.57 2.62119 4.79537 0
M  V30 612 H 58.664 0.365095 0.742048 0
M  V30 613 H 61.21 1.34107 1.03987 0
M  V30 614 H 59.982 2.87756 2.65164 0
M  V30 615 H 59.605 1.50514 3.6801 0
M  V30 616 N 60.6021 -1.18246 1.0419 0
M  V30 617 C 61.8301 -1.92195 0.766072 0
M  V30 618 C 62.2451 -1.76247 -0.676933 0
M  V30 619 O 61.6021 -1.09293 -1.46155 0
M  V30 620 C 61.6531 -3.43568 1.12442 0
M  V30 621 O 61.3741 -3.59015 2.51078 0
M  V30 622 C 62.8751 -4.34613 0.873275 0
M  V30 623 H 60.0951 -0.610114 0.279288 0
M  V30 624 H 62.6391 -1.50007 1.38989 0
M  V30 625 H 60.7941 -3.8354 0.545542 0
M  V30 626 H 61.2081 -4.5273 2.64831 0
M  V30 627 H 62.6821 -5.39374 1.17385 0
M  V30 628 H 63.1591 -4.38781 -0.191909 0
M  V30 629 H 63.7651 -4.00341 1.43551 0
M  V30 630 N 62.0802 -0.821533 -1.34494 0
M  V30 631 C 63.3282 -0.408139 -1.97936 0
M  V30 632 C 63.6492 1.03193 -1.65457 0
M  V30 633 O 62.9192 1.71622 -0.944595 0
M  V30 634 H 61.4992 -0.147928 -0.732206 0
M  V30 635 H 64.1612 -1.05067 -1.64155 0
M  V30 636 H 63.2572 -0.52601 -3.07635 0
M  V30 637 N 63.5583 1.46682 -0.576371 0
M  V30 638 C 64.8053 2.02412 -0.0595339 0
M  V30 639 C 65.1333 1.44859 1.29793 0
M  V30 640 O 64.3883 0.601099 1.8624 0
M  V30 641 C 64.6873 3.57345 0.062886 0
M  V30 642 C 64.3533 4.33908 -1.22616 0
M  V30 643 C 63.0153 4.54544 -1.57933 0
M  V30 644 C 65.3673 4.77919 -2.07948 0
M  V30 645 C 62.6953 5.16444 -2.78393 0
M  V30 646 C 65.0473 5.41149 -3.27629 0
M  V30 647 C 63.7113 5.60014 -3.63236 0
M  V30 648 H 62.9813 0.74068 -0.021785 0
M  V30 649 H 65.6283 1.76128 -0.751735 0
M  V30 650 H 63.9333 3.82729 0.838178 0
M  V30 651 H 65.6303 3.98136 0.478439 0
M  V30 652 H 62.2203 4.18138 -0.941202 0
M  V30 653 H 66.4043 4.61738 -1.81967 0
M  V30 654 H 61.6603 5.29242 -3.06126 0
M  V30 655 H 65.8343 5.74211 -3.94023 0
M  V30 656 H 63.4613 6.07748 -4.56669 0
M  V30 657 N 65.0364 0.313813 1.54444 0
M  V30 658 C 66.2854 -0.292519 1.99568 0
M  V30 659 C 66.5984 -1.54011 1.20582 0
M  V30 660 O 67.8044 -2.22183 1.56035 0
M  V30 661 C 66.2604 -0.571752 3.55329 0
M  V30 662 C 65.8684 0.658229 4.43138 0
M  V30 663 C 67.6124 -1.13857 4.08946 0
M  V30 664 C 65.5194 0.351439 5.90355 0
M  V30 665 H 64.4494 -0.113079 0.745472 0
M  V30 666 H 67.1004 0.424518 1.78522 0
M  V30 667 H 65.4824 -1.34872 3.72325 0
M  V30 668 H 66.6564 1.43403 4.37918 0
M  V30 669 H 64.9714 1.14458 4.0036 0
M  V30 670 H 67.5684 -1.38257 5.16516 0
M  V30 671 H 67.9114 -2.08489 3.6033 0
M  V30 672 H 68.4444 -0.423015 3.95544 0
M  V30 673 H 65.1834 1.26667 6.43145 0
M  V30 674 H 64.7034 -0.386842 5.98551 0
M  V30 675 H 66.3824 -0.0423134 6.46986 0
M  V30 676 N 66.5145 -1.57545 0.0417849 0
M  V30 677 C 67.4625 -2.12148 -0.953723 0
M  V30 678 C 68.4565 -1.05104 -1.32852 0
M  V30 679 O 69.6625 -1.23524 -1.30927 0
M  V30 680 H 66.0375 -0.677957 -0.325389 0
M  V30 681 H 68.0085 -2.94707 -0.467991 0
M  V30 682 C 66.7575 -2.6739 -2.22257 0
M  V30 683 H 66.0805 -3.49413 -1.94295 0
M  V30 684 H 67.5205 -3.09227 -2.90094 0
M  V30 685 C 65.9795 -1.60723 -2.96091 0
M  V30 686 O 66.5095 -1.01449 -3.88679 0
M  V30 687 N 64.7155 -1.32466 -2.58652 0
M  V30 688 H 64.2625 -1.80856 -1.83437 0
M  V30 689 H 64.2205 -0.61325 -3.08361 0
M  V30 690 N 67.9926 0.231505 -1.5589 0
M  V30 691 C 68.9406 1.30649 -1.92441 0
M  V30 692 C 69.9346 1.49037 -0.805254 0
M  V30 693 O 71.1406 1.50329 -0.990007 0
M  V30 694 H 67.5156 0.437812 -0.611412 0
M  V30 695 H 69.4866 0.970973 -2.82161 0
M  V30 696 C 68.2356 2.65179 -2.24889 0
M  V30 697 H 67.5586 2.51835 -3.10514 0
M  V30 698 H 68.9986 3.39234 -2.54355 0
M  V30 699 C 67.4576 3.19439 -1.07054 0
M  V30 700 O 67.9876 4.00371 -0.326499 0
M  V30 701 N 66.1936 2.77675 -0.85703 0
M  V30 702 H 65.7406 2.11969 -1.46379 0
M  V30 703 H 65.6986 3.14321 -0.0703223 0
M  V30 704 N 69.4707 1.49531 0.497807 0
M  V30 705 C 70.4187 1.66926 1.61983 0
M  V30 706 C 71.4127 0.535167 1.60724 0
M  V30 707 O 72.6187 0.714896 1.65195 0
M  V30 708 H 68.9937 0.526415 0.537021 0
M  V30 709 H 70.9647 2.61098 1.44465 0
M  V30 710 C 69.7137 1.75602 3.00099 0
M  V30 711 H 69.0367 2.62244 3.01775 0
M  V30 712 H 70.4767 1.91807 3.78135 0
M  V30 713 C 68.9357 0.501543 3.33146 0
M  V30 714 O 69.4657 -0.371342 3.9998 0
M  V30 715 N 67.6717 0.363531 2.88317 0
M  V30 716 H 67.2187 1.07485 2.34104 0
M  V30 717 H 67.1767 -0.474728 3.10795 0
M  V30 718 N 70.9488 -0.749086 1.3866 0
M  V30 719 C 72.1968 -1.50535 1.34847 0
M  V30 720 C 72.5178 -1.94909 -0.0595016 0
M  V30 721 O 71.7878 -1.67973 -1.00806 0
M  V30 722 H 70.3678 -0.558395 0.49619 0
M  V30 723 H 73.0298 -0.890165 1.73384 0
M  V30 724 H 72.1258 -2.39413 2.00219 0
M  V30 725 N 72.4269 -1.23603 -0.977757 0
M  V30 726 C 73.8379 -1.06424 -1.53398 0
M  V30 727 C 74.1889 0.367578 -1.92726 0
M  V30 728 O 73.3139 1.25465 -1.76316 0
M  V30 729 C 73.9089 -1.92568 -2.78753 0
M  V30 730 C 72.4679 -1.79642 -3.30765 0
M  V30 731 C 71.6149 -1.88111 -2.03739 0
M  V30 732 H 74.5659 -1.37227 -0.797152 0
M  V30 733 H 74.5869 -1.45203 -3.51705 0
M  V30 734 H 74.0989 -2.96771 -2.50098 0
M  V30 735 H 72.1999 -0.782325 -3.64294 0
M  V30 736 H 72.3129 -2.63174 -4.00345 0
M  V30 737 H 70.6769 -1.31723 -2.17994 0
M  V30 738 H 71.4599 -2.93875 -1.77461 0
M  V30 739 N 73.905 1.17692 -1.04816 0
M  V30 740 C 75.133 1.91786 -0.776254 0
M  V30 741 C 75.548 1.76604 0.667577 0
M  V30 742 O 74.905 1.10067 1.45573 0
M  V30 743 C 74.956 3.42967 -1.14263 0
M  V30 744 O 74.677 3.57678 -2.52978 0
M  V30 745 C 76.178 4.34144 -0.896311 0
M  V30 746 H 73.398 0.608624 -0.282519 0
M  V30 747 H 75.942 1.49268 -1.39783 0
M  V30 748 H 74.097 3.83245 -0.565874 0
M  V30 749 H 74.511 4.51319 -2.67229 0
M  V30 750 H 75.985 5.38744 -1.20244 0
M  V30 751 H 76.462 4.38876 0.168636 0
M  V30 752 H 77.068 3.99574 -1.45672 0
M  V30 753 N 75.3831 0.828654 1.34056 0
M  V30 754 C 76.3331 0.226828 2.26869 0
M  V30 755 C 77.3171 -0.612243 1.48796 0
M  V30 756 O 78.5091 -0.465884 1.70759 0
M  V30 757 C 75.6381 -0.605654 3.37915 0
M  V30 758 C 74.7241 0.244361 4.23395 0
M  V30 759 N 75.1151 1.31815 4.88322 0
M  V30 760 C 73.4131 0.0296616 4.4599 0
M  V30 761 C 74.1141 1.83895 5.51867 0
M  V30 762 N 73.0901 1.14196 5.3147 0
M  V30 763 H 76.8921 1.04811 2.74576 0
M  V30 764 H 74.4061 0.67205 1.47842 0
M  V30 765 H 76.4031 -1.05302 4.03382 0
M  V30 766 H 75.0631 -1.42504 2.91758 0
M  V30 767 H 76.0741 1.70099 4.8917 0
M  V30 768 H 72.7511 -0.757097 4.10578 0
M  V30 769 H 74.1411 2.7376 6.136 0
M  V30 770 N 76.8612 -1.46375 0.584142 0
M  V30 771 C 77.7712 -2.34115 -0.150728 0
M  V30 772 C 78.7872 -1.49838 -0.884567 0
M  V30 773 O 79.9632 -1.82704 -0.847429 0
M  V30 774 C 77.0282 -3.2705 -1.15062 0
M  V30 775 C 76.0892 -4.27228 -0.421293 0
M  V30 776 C 75.3222 -5.15722 -1.37355 0
M  V30 777 O 75.5452 -5.07176 -2.61014 0
M  V30 778 O 74.4792 -5.95383 -0.883355 0
M  V30 779 H 78.3052 -2.98309 0.569708 0
M  V30 780 H 75.8902 -1.45373 0.344535 0
M  V30 781 H 77.7722 -3.84381 -1.72712 0
M  V30 782 H 76.4472 -2.65451 -1.8525 0
M  V30 783 H 75.3542 -3.7358 0.197085 0
M  V30 784 H 76.6872 -4.91616 0.239641 0
M  V30 785 N 78.3393 -0.321999 -1.54275 0
M  V30 786 C 79.2873 0.560206 -2.25753 0
M  V30 787 C 80.2813 1.11984 -1.27106 0
M  V30 788 O 81.4873 1.06806 -1.44888 0
M  V30 789 H 77.8623 0.199304 -0.725108 0
M  V30 790 H 79.8333 -0.0649365 -2.98329 0
M  V30 791 C 78.5823 1.71023 -3.02731 0
M  V30 792 H 77.9053 1.28885 -3.78456 0
M  V30 793 H 79.3453 2.30314 -3.55993 0
M  V30 794 C 77.8043 2.62692 -2.10938 0
M  V30 795 O 78.3343 3.64364 -1.6912 0
M  V30 796 N 76.5403 2.30891 -1.76459 0
M  V30 797 H 76.0873 1.48253 -2.10663 0
M  V30 798 H 76.0453 2.92487 -1.1532 0
M  V30 799 N 79.8174 1.5752 -0.0501392 0
M  V30 800 C 80.7494 2.08413 0.95376 0
M  V30 801 C 81.7624 1.01175 1.27544 0
M  V30 802 O 82.9514 1.28744 1.23641 0
M  V30 803 C 80.0514 2.51138 2.27559 0
M  V30 804 C 79.2244 3.817 2.13598 0
M  V30 805 C 78.2834 4.10749 3.28895 0
M  V30 806 O 77.3094 4.80685 3.04845 0
M  V30 807 N 78.5114 3.62579 4.5334 0
M  V30 808 H 81.2764 2.95165 0.519383 0
M  V30 809 H 78.8374 1.61327 0.136127 0
M  V30 810 H 80.8294 2.67648 3.03557 0
M  V30 811 H 79.3994 1.6964 2.62567 0
M  V30 812 H 78.6194 3.74782 1.22197 0
M  V30 813 H 79.9074 4.67201 2.01496 0
M  V30 814 H 79.3054 3.06039 4.75769 0
M  V30 815 H 77.8624 3.84329 5.26436 0
M  V30 816 N 81.2955 -0.223234 1.56011 0
M  V30 817 C 82.2255 -1.27988 1.95298 0
M  V30 818 C 83.2065 -1.48976 0.820979 0
M  V30 819 O 84.3915 -1.61188 1.08315 0
M  V30 820 C 81.5215 -2.63 2.26822 0
M  V30 821 C 80.4755 -2.56671 3.42497 0
M  V30 822 C 79.8015 -3.95697 3.59622 0
M  V30 823 C 81.1015 -2.11601 4.77517 0
M  V30 824 H 82.7955 -0.953525 2.8381 0
M  V30 825 H 80.3415 -0.457244 1.36548 0
M  V30 826 H 82.2945 -3.37077 2.52898 0
M  V30 827 H 81.0185 -2.9732 1.35161 0
M  V30 828 H 79.6775 -1.85051 3.16467 0
M  V30 829 H 79.3255 -4.27322 2.6534 0
M  V30 830 H 79.0255 -3.92345 4.37424 0
M  V30 831 H 80.5495 -4.71438 3.88044 0
M  V30 832 H 81.9635 -2.7542 5.02809 0
M  V30 833 H 80.3605 -2.19311 5.5859 0
M  V30 834 H 81.4305 -1.06824 4.72987 0
M  V30 835 N 82.7736 -1.49793 -0.48987 0
M  V30 836 C 84.0216 -1.59525 -1.24081 0
M  V30 837 C 84.3426 -0.288953 -1.92847 0
M  V30 838 O 83.6126 0.692436 -1.83254 0
M  V30 839 H 82.1926 -0.587796 -0.460983 0
M  V30 840 H 84.8546 -1.86477 -0.566778 0
M  V30 841 H 83.9506 -2.39696 -1.99881 0
M  V30 842 N 84.2517 0.741722 -1.39055 0
M  V30 843 C 85.2147 1.83733 -1.37021 0
M  V30 844 C 86.2147 1.58542 -0.268534 0
M  V30 845 O 87.4047 1.66067 -0.526076 0
M  V30 846 C 84.5367 3.2141 -1.13617 0
M  V30 847 H 85.7297 1.86941 -2.34506 0
M  V30 848 H 83.2827 0.944676 -1.24521 0
M  V30 849 H 84.0177 3.23865 -0.167863 0
M  V30 850 H 83.8027 3.4109 -1.93391 0
M  V30 851 H 85.2927 4.01477 -1.14918 0
M  V30 852 N 85.7298 1.2412 0.971189 0
M  V30 853 C 86.9778 1.07668 1.71032 0
M  V30 854 C 87.2988 -0.385797 1.91146 0
M  V30 855 O 86.5688 -1.27569 1.4867 0
M  V30 856 H 85.1488 0.395429 0.633755 0
M  V30 857 H 87.8108 1.55984 1.16855 0
M  V30 858 H 86.9068 1.57195 2.69622 0
M  V30 859 N 87.2079 -1.17134 1.05439 0
M  V30 860 C 88.1709 -2.19439 0.661764 0
M  V30 861 C 89.1709 -1.58199 -0.288042 0
M  V30 862 O 90.3609 -1.74053 -0.0715803 0
M  V30 863 C 87.4929 -3.40889 -0.0276209 0
M  V30 864 H 88.6859 -2.55688 1.56728 0
M  V30 865 H 86.2389 -1.31259 0.848567 0
M  V30 866 H 86.9739 -3.10187 -0.94629 0
M  V30 867 H 86.7589 -3.86586 0.655238 0
M  V30 868 H 88.2489 -4.16603 -0.288342 0
M  V30 869 N 88.686 -0.835752 -1.33615 0
M  V30 870 C 89.933 -0.429959 -1.97883 0
M  V30 871 C 90.261 1.01006 -1.66217 0
M  V30 872 O 89.516 1.72047 -0.93265 0
M  V30 873 C 89.815 -0.593925 -3.52431 0
M  V30 874 C 89.481 -2.00158 -4.04039 0
M  V30 875 C 88.143 -2.38662 -4.17844 0
M  V30 876 C 90.495 -2.92117 -4.31644 0
M  V30 877 C 87.823 -3.68435 -4.56588 0
M  V30 878 C 90.175 -4.21368 -4.71838 0
M  V30 879 C 88.839 -4.59833 -4.83849 0
M  V30 880 H 88.109 -0.157333 -0.724104 0
M  V30 881 H 90.756 -1.06217 -1.59343 0
M  V30 882 H 89.061 0.121619 -3.91611 0
M  V30 883 H 90.758 -0.260282 -4.00154 0
M  V30 884 H 87.348 -1.69252 -3.93766 0
M  V30 885 H 91.532 -2.63608 -4.20505 0
M  V30 886 H 86.788 -3.98046 -4.64079 0
M  V30 887 H 90.962 -4.92703 -4.92155 0
M  V30 888 H 88.589 -5.60438 -5.13627 0
M  V30 889 N 90.1641 1.46063 -0.591896 0
M  V30 890 C 91.4121 2.01938 -0.0808391 0
M  V30 891 C 91.7331 1.46475 1.28725 0
M  V30 892 O 91.0031 0.652944 1.84698 0
M  V30 893 H 89.5831 0.746516 -0.0268938 0
M  V30 894 H 92.2451 1.79055 -0.769752 0
M  V30 895 H 91.3411 3.12094 -0.0187578 0
M  V30 896 N 91.6422 0.330177 1.54103 0
M  V30 897 C 92.8902 -0.269871 2.0029 0
M  V30 898 C 93.2112 -1.52133 1.21986 0
M  V30 899 O 92.4812 -1.93212 0.323438 0
M  V30 900 H 91.0612 -0.10271 0.739905 0
M  V30 901 H 93.7232 0.448249 1.89675 0
M  V30 902 H 92.8192 -0.52166 3.07709 0
M  V30 903 N 93.1203 -1.57491 0.0584922 0
M  V30 904 C 94.3503 -1.9701 -0.622134 0
M  V30 905 C 94.7583 -0.935034 -1.6448 0
M  V30 906 O 94.1013 0.0882904 -1.83488 0
M  V30 907 C 94.1633 -3.32794 -1.35972 0
M  V30 908 C 93.8273 -4.54343 -0.492043 0
M  V30 909 C 94.8243 -5.19323 0.244901 0
M  V30 910 C 92.5093 -5.00534 -0.420821 0
M  V30 911 C 94.5033 -6.28835 1.04143 0
M  V30 912 C 92.1903 -6.09921 0.379389 0
M  V30 913 C 93.1883 -6.73933 1.10919 0
M  V30 914 O 92.8763 -7.81216 1.89623 0
M  V30 915 H 92.6083 -0.653127 -0.174359 0
M  V30 916 H 95.1623 -2.05029 0.123418 0
M  V30 917 H 93.3923 -3.21351 -2.15105 0
M  V30 918 H 95.0813 -3.5701 -1.93129 0
M  V30 919 H 95.8473 -4.8459 0.19939 0
M  V30 920 H 91.7263 -4.50496 -0.978474 0
M  V30 921 H 95.2703 -6.7873 1.61157 0
M  V30 922 H 91.1673 -6.44089 0.426512 0
M  V30 923 H 91.9353 -7.98029 1.81913 0
M  V30 924 N 94.5984 0.214957 -1.56127 0
M  V30 925 C 95.5304 1.29004 -1.89448 0
M  V30 926 C 96.5434 1.42716 -0.783326 0
M  V30 927 O 97.7324 1.43496 -1.06166 0
M  V30 928 C 94.8324 2.66482 -2.09381 0
M  V30 929 C 94.0054 2.74633 -3.40434 0
M  V30 930 C 93.0644 3.9317 -3.49719 0
M  V30 931 O 92.0904 3.812 -4.227 0
M  V30 932 N 93.2924 5.07765 -2.81346 0
M  V30 933 H 96.0574 1.00743 -2.82261 0
M  V30 934 H 93.6184 0.40497 -1.56753 0
M  V30 935 H 95.6104 3.44173 -2.12901 0
M  V30 936 H 94.1804 2.87314 -1.23163 0
M  V30 937 H 93.4004 1.83368 -3.48955 0
M  V30 938 H 94.6884 2.77054 -4.26754 0
M  V30 939 H 94.0864 5.20386 -2.21843 0
M  V30 940 H 92.6434 5.83474 -2.90519 0
M  V30 941 N 96.0765 1.50051 0.48192 0
M  V30 942 C 97.3225 1.60736 1.2366 0
M  V30 943 C 97.6555 0.301786 1.91841 0
M  V30 944 O 96.9305 -0.696025 1.8162 0
M  V30 945 C 97.2135 2.78009 2.28874 0
M  V30 946 C 97.0665 4.18416 1.65069 0
M  V30 947 C 98.3855 2.90867 3.30279 0
M  V30 948 H 95.5045 0.585031 0.448228 0
M  V30 949 H 98.1465 1.82402 0.531946 0
M  V30 950 H 96.2965 2.59667 2.88973 0
M  V30 951 H 97.9685 4.48322 1.0865 0
M  V30 952 H 96.2115 4.23177 0.954148 0
M  V30 953 H 96.8825 4.96381 2.41474 0
M  V30 954 H 99.3585 3.07623 2.80191 0
M  V30 955 H 98.2345 3.74566 4.01238 0
M  V30 956 H 98.4955 2.01021 3.93755 0
M  V30 957 N 97.5546 -0.734337 1.39446 0
M  V30 958 C 98.5026 -1.86971 1.38364 0
M  V30 959 C 99.4966 -1.67288 0.266687 0
M  V30 960 O 100.703 -1.74621 0.436755 0
M  V30 961 H 97.0776 -0.615474 0.432082 0
M  V30 962 H 99.0486 -1.85 2.34132 0
M  V30 963 C 97.7976 -3.2466 1.24465 0
M  V30 964 H 97.1206 -3.40402 2.09682 0
M  V30 965 H 98.5606 -4.04292 1.27764 0
M  V30 966 C 97.0196 -3.36867 -0.0468674 0
M  V30 967 O 97.5496 -3.88618 -1.01681 0
M  V30 968 N 95.7556 -2.90391 -0.110145 0
M  V30 969 H 95.3026 -2.48466 0.679868 0
M  V30 970 H 95.2606 -2.98939 -0.973799 0
M  V30 971 N 99.0327 -1.24633 -0.964593 0
M  V30 972 C 100.444 -1.08045 -1.5226 0
M  V30 973 C 100.795 0.347116 -1.93105 0
M  V30 974 O 99.9197 1.23588 -1.77637 0
M  V30 975 C 100.515 -1.95514 -2.76695 0
M  V30 976 C 99.0737 -1.8314 -3.28841 0
M  V30 977 C 98.2207 -1.90262 -2.01732 0
M  V30 978 H 101.172 -1.38064 -0.782553 0
M  V30 979 H 101.193 -1.48925 -3.50145 0
M  V30 980 H 100.705 -2.99407 -2.46936 0
M  V30 981 H 98.8057 -0.82092 -3.63444 0
M  V30 982 H 98.9187 -2.67406 -3.97531 0
M  V30 983 H 97.2827 -1.34027 -2.16584 0
M  V30 984 H 98.0657 -2.9574 -1.74334 0
M  V30 985 N 100.511 1.16574 -1.06058 0
M  V30 986 C 101.741 1.90675 -0.795397 0
M  V30 987 C 102.149 1.77547 0.653735 0
M  V30 988 O 101.492 1.11611 1.45907 0
M  V30 989 C 101.554 3.42011 -1.10764 0
M  V30 990 C 101.218 3.78924 -2.55471 0
M  V30 991 C 102.215 3.81042 -3.53699 0
M  V30 992 C 99.8998 4.09626 -2.90708 0
M  V30 993 C 101.894 4.13346 -4.85205 0
M  V30 994 C 99.5808 4.41597 -4.22416 0
M  V30 995 C 100.579 4.43436 -5.19474 0
M  V30 996 O 100.267 4.74649 -6.48817 0
M  V30 997 H 99.9988 0.611554 -0.288058 0
M  V30 998 H 102.553 1.48711 -1.41683 0
M  V30 999 H 100.783 3.84312 -0.429128 0
M  V30 1000 H 102.472 3.97384 -0.827077 0
M  V30 1001 H 103.238 3.57437 -3.27817 0
M  V30 1002 H 99.1168 4.07361 -2.15819 0
M  V30 1003 H 102.661 4.14696 -5.60957 0
M  V30 1004 H 98.5578 4.64667 -4.48056 0
M  V30 1005 H 99.3258 4.9247 -6.5377 0
M  V30 1006 N 101.989 0.842826 1.3317 0
M  V30 1007 C 103.235 0.441099 1.97945 0
M  V30 1008 C 103.568 -0.998024 1.66593 0
M  V30 1009 O 102.843 -1.69839 0.947898 0
M  V30 1010 C 103.126 0.666841 3.53872 0
M  V30 1011 C 102.979 2.15352 3.94897 0
M  V30 1012 C 104.298 0.115544 4.39948 0
M  V30 1013 H 101.417 0.161739 0.719034 0
M  V30 1014 H 104.059 1.05907 1.57746 0
M  V30 1015 H 102.209 0.140828 3.88245 0
M  V30 1016 H 103.881 2.7447 3.70761 0
M  V30 1017 H 102.124 2.63653 3.44484 0
M  V30 1018 H 102.795 2.26221 5.03516 0
M  V30 1019 H 105.271 0.565213 4.12243 0
M  V30 1020 H 104.147 0.303152 5.48062 0
M  V30 1021 H 104.408 -0.980935 4.3108 0
M  V30 1022 N 103.467 -1.45747 0.599634 0
M  V30 1023 C 104.715 -2.01893 0.0915472 0
M  V30 1024 C 105.036 -1.47155 -1.27946 0
M  V30 1025 O 104.306 -0.66273 -1.84349 0
M  V30 1026 H 102.886 -0.746363 0.0308524 0
M  V30 1027 H 105.548 -1.78645 0.779237 0
M  V30 1028 H 104.644 -3.1208 0.0353086 0
M  V30 1029 N 104.945 -0.338344 -1.53925 0
M  V30 1030 C 106.192 0.259758 -2.00827 0
M  V30 1031 C 106.52 1.50973 -1.22628 0
M  V30 1032 O 105.775 1.93379 -0.300509 0
M  V30 1033 C 106.074 0.62448 -3.51902 0
M  V30 1034 C 105.74 -0.528006 -4.47798 0
M  V30 1035 C 104.402 -0.844298 -4.73735 0
M  V30 1036 C 106.754 -1.30143 -5.0469 0
M  V30 1037 C 104.082 -1.93648 -5.53821 0
M  V30 1038 C 106.434 -2.38382 -5.85967 0
M  V30 1039 C 105.098 -2.70576 -6.10201 0
M  V30 1040 H 104.368 0.0950523 -0.734878 0
M  V30 1041 H 107.015 -0.465182 -1.85764 0
M  V30 1042 H 105.32 1.43006 -3.64769 0
M  V30 1043 H 107.017 1.09905 -3.85645 0
M  V30 1044 H 103.607 -0.271421 -4.2774 0
M  V30 1045 H 107.791 -1.07033 -4.84621 0
M  V30 1046 H 103.047 -2.19021 -5.70824 0
M  V30 1047 H 107.221 -2.98746 -6.29066 0
M  V30 1048 H 104.848 -3.55333 -6.72044 0
M  V30 1049 N 106.423 1.57458 -0.0668435 0
M  V30 1050 C 107.333 2.15937 0.916975 0
M  V30 1051 C 108.349 1.12123 1.33058 0
M  V30 1052 O 109.525 1.44366 1.40429 0
M  V30 1053 C 106.59 2.70547 2.16807 0
M  V30 1054 C 105.651 3.89215 1.81135 0
M  V30 1055 C 104.884 4.41211 3.0028 0
M  V30 1056 O 105.107 3.92225 4.14144 0
M  V30 1057 O 104.041 5.32605 2.80384 0
M  V30 1058 H 107.867 3.00354 0.449561 0
M  V30 1059 H 105.452 1.48584 0.155949 0
M  V30 1060 H 107.334 3.0557 2.90181 0
M  V30 1061 H 106.009 1.89192 2.62656 0
M  V30 1062 H 104.916 3.59054 1.05028 0
M  V30 1063 H 106.249 4.71848 1.40073 0
M  V30 1064 N 107.901 -0.206675 1.56239 0
M  V30 1065 C 108.834 -1.28383 1.88661 0
M  V30 1066 C 109.812 -1.44504 0.745481 0
M  V30 1067 O 110.996 -1.60079 0.995336 0
M  V30 1068 C 108.123 -2.65211 2.10667 0
M  V30 1069 C 107.169 -2.66025 3.33366 0
M  V30 1070 S 108.002 -2.18609 4.88846 0
M  V30 1071 C 109.158 -3.57283 5.13906 0
M  V30 1072 H 109.391 -1.00691 2.7973 0
M  V30 1073 H 106.924 -0.409627 1.48867 0
M  V30 1074 H 108.882 -3.43979 2.24029 0
M  V30 1075 H 107.543 -2.90121 1.20369 0
M  V30 1076 H 106.736 -3.66607 3.45855 0
M  V30 1077 H 106.338 -1.95331 3.18938 0
M  V30 1078 H 108.63 -4.53074 5.03717 0
M  V30 1079 H 109.573 -3.49699 6.15724 0
M  V30 1080 H 109.981 -3.51659 4.41583 0
M  V30 1081 N 109.379 -1.50304 -0.473955 0
M  V30 1082 C 110.627 -1.60832 -1.22382 0
M  V30 1083 C 110.948 -0.30939 -1.9253 0
M  V30 1084 O 110.218 0.67296 -1.83978 0
M  V30 1085 H 108.798 -0.592652 -0.454723 0
M  V30 1086 H 111.46 -1.87068 -0.546968 0
M  V30 1087 H 110.556 -2.41803 -1.97327 0
M  V30 1088 N 110.857 0.726932 -1.39834 0
M  V30 1089 C 112.087 1.51393 -1.40583 0
M  V30 1090 C 112.495 1.892 -0.000740625 0
M  V30 1091 O 111.838 1.55189 0.982951 0
M  V30 1092 C 111.9 2.82588 -2.22226 0
M  V30 1093 C 111.564 2.67169 -3.70769 0
M  V30 1094 C 112.561 2.3518 -4.63666 0
M  V30 1095 C 110.246 2.83788 -4.14451 0
M  V30 1096 C 112.24 2.20002 -5.98229 0
M  V30 1097 C 109.927 2.68229 -5.49087 0
M  V30 1098 C 110.925 2.36382 -6.4079 0
M  V30 1099 O 110.613 2.2093 -7.72946 0
M  V30 1100 H 110.345 0.474168 -0.48181 0
M  V30 1101 H 112.899 0.905247 -1.84376 0
M  V30 1102 H 111.129 3.45746 -1.73195 0
M  V30 1103 H 112.818 3.44247 -2.15055 0
M  V30 1104 H 113.584 2.21984 -4.31217 0
M  V30 1105 H 109.463 3.07566 -3.43401 0
M  V30 1106 H 113.007 1.95067 -6.69772 0
M  V30 1107 H 108.904 2.81006 -5.81125 0
M  V30 1108 H 109.672 2.35937 -7.83757 0
M  V30 1109 N 112.336 1.25143 0.95797 0
M  V30 1110 C 113.613 1.00472 1.67823 0
M  V30 1111 C 113.993 -0.470056 2.058 0
M  V30 1112 O 113.341 -1.44663 1.76875 0
M  V30 1113 C 113.551 1.9372 2.90299 0
M  V30 1114 C 114.899 2.21371 3.62326 0
M  V30 1115 O 115.923 1.91451 3.00375 0
M  V30 1116 O 114.782 2.72231 4.7387 0
M  V30 1117 H 111.876 0.380752 0.734137 0
M  V30 1118 H 114.422 1.36283 1.01119 0
M  V30 1119 H 113.194 2.93316 2.59001 0
M  V30 1120 H 112.817 1.58286 3.64735 0
M  V30 1121 N 113.814 -1.1601 1.06675 0
M  V30 1122 C 115.06 -1.87145 0.796766 0
M  V30 1123 C 115.415 -1.8037 -0.669658 0
M  V30 1124 O 114.708 -1.21116 -1.48463 0
M  V30 1125 C 114.902 -3.35547 1.23057 0
M  V30 1126 C 114.731 -3.56769 2.73762 0
M  V30 1127 C 113.501 -3.72635 3.41279 0
M  V30 1128 C 115.699 -3.55166 3.7197 0
M  V30 1129 N 113.681 -3.81845 4.80695 0
M  V30 1130 C 115.052 -3.70406 4.97191 0
M  V30 1131 C 117.107 -3.384 3.65226 0
M  V30 1132 C 115.81 -3.70615 6.16471 0
M  V30 1133 C 117.836 -3.39904 4.83962 0
M  V30 1134 C 117.198 -3.55667 6.08013 0
M  V30 1135 H 113.297 -0.702267 0.344014 0
M  V30 1136 H 115.881 -1.39165 1.36166 0
M  V30 1137 H 114.052 -3.82159 0.693456 0
M  V30 1138 H 115.784 -3.94363 0.908844 0
M  V30 1139 H 112.539 -3.73121 2.91681 0
M  V30 1140 H 112.963 -3.90209 5.53232 0
M  V30 1141 H 117.605 -3.25138 2.70269 0
M  V30 1142 H 115.323 -3.82658 7.11757 0
M  V30 1143 H 118.909 -3.28169 4.80413 0
M  V30 1144 H 117.789 -3.56755 6.98352 0
M  V30 1145 N 115.292 -0.849877 -1.32721 0
M  V30 1146 C 116.222 -0.306308 -2.31482 0
M  V30 1147 C 117.203 0.591952 -1.59468 0
M  V30 1148 O 118.388 0.513199 -1.87296 0
M  V30 1149 C 115.518 0.510204 -3.43532 0
M  V30 1150 C 114.472 -0.293209 -4.26994 0
M  V30 1151 C 113.798 0.647743 -5.30762 0
M  V30 1152 C 115.098 -1.51634 -4.99804 0
M  V30 1153 H 116.792 -1.13153 -2.77195 0
M  V30 1154 H 114.338 -0.545553 -1.33266 0
M  V30 1155 H 116.291 0.900856 -4.11658 0
M  V30 1156 H 115.015 1.36874 -2.96535 0
M  V30 1157 H 113.674 -0.665555 -3.60508 0
M  V30 1158 H 113.322 1.50299 -4.8002 0
M  V30 1159 H 113.022 0.11422 -5.87489 0
M  V30 1160 H 114.546 1.03567 -6.01753 0
M  V30 1161 H 115.96 -1.19824 -5.60638 0
M  V30 1162 H 114.357 -1.98745 -5.66234 0
M  V30 1163 H 115.427 -2.28018 -4.27943 0
M  V30 1164 N 116.77 1.45427 -0.607355 0
M  V30 1165 C 118.018 2.01841 -0.102253 0
M  V30 1166 C 118.339 1.47832 1.27164 0
M  V30 1167 O 117.609 0.672497 1.83995 0
M  V30 1168 H 116.189 0.746188 -0.0348101 0
M  V30 1169 H 118.851 1.78229 -0.7887 0
M  V30 1170 H 117.947 3.12057 -0.0518585 0
M  V30 1171 N 118.248 0.346503 1.53744 0
M  V30 1172 C 119.664 -0.00530975 1.59599 0
M  V30 1173 C 119.864 -1.48465 1.36236 0
M  V30 1174 O 118.92 -2.24376 1.15808 0
M  V30 1175 C 120.233 0.433516 2.97559 0
M  V30 1176 C 121.781 0.386111 3.10609 0
M  V30 1177 C 122.256 0.800451 4.50951 0
M  V30 1178 N 123.747 0.754753 4.5701 0
M  V30 1179 C 124.482 1.04727 5.63755 0
M  V30 1180 N 123.978 1.4081 6.7834 0
M  V30 1181 N 125.771 0.971316 5.53644 0
M  V30 1182 H 117.922 1.31009 1.67184 0
M  V30 1183 H 120.185 0.534242 0.783128 0
M  V30 1184 H 119.891 1.46509 3.19731 0
M  V30 1185 H 119.765 -0.189753 3.76722 0
M  V30 1186 H 122.152 -0.636295 2.88158 0
M  V30 1187 H 122.233 1.04462 2.33498 0
M  V30 1188 H 121.877 1.82088 4.74137 0
M  V30 1189 H 121.807 0.119386 5.26465 0
M  V30 1190 H 124.298 0.488662 3.74727 0
M  V30 1191 H 124.611 1.61607 7.55714 0
M  V30 1192 H 122.956 1.44657 6.79779 0
M  V30 1193 H 126.147 0.688748 4.63005 0
M  V30 1194 H 126.32 1.20263 6.36742 0
M  V30 1195 N 119.726 -1.57421 0.075193 0
M  V30 1196 C 120.659 -2.08528 -0.926904 0
M  V30 1197 C 121.637 -0.991171 -1.28898 0
M  V30 1198 O 122.821 -1.26479 -1.39769 0
M  V30 1199 C 119.948 -2.54576 -2.23402 0
M  V30 1200 C 118.994 -3.75454 -2.02327 0
M  V30 1201 S 119.827 -5.19989 -1.27951 0
M  V30 1202 C 120.983 -5.69372 -2.59935 0
M  V30 1203 H 121.216 -2.932 -0.492048 0
M  V30 1204 H 118.749 -1.53785 -0.137651 0
M  V30 1205 H 120.707 -2.81767 -2.98526 0
M  V30 1206 H 119.368 -1.70166 -2.64012 0
M  V30 1207 H 118.561 -4.05675 -2.99071 0
M  V30 1208 H 118.163 -3.48654 -1.35339 0
M  V30 1209 H 120.455 -5.76424 -3.56008 0
M  V30 1210 H 121.398 -6.68207 -2.34319 0
M  V30 1211 H 121.806 -4.97205 -2.67296 0
M  V30 1212 N 121.204 0.198386 -1.56346 0
M  V30 1213 C 122.615 0.763358 -1.70381 0
M  V30 1214 C 122.966 1.83995 -0.681203 0
M  V30 1215 O 122.091 2.15785 0.16305 0
M  V30 1216 C 122.686 1.39143 -3.08909 0
M  V30 1217 C 121.245 1.90352 -3.2472 0
M  V30 1218 C 120.392 0.772233 -2.6633 0
M  V30 1219 H 123.343 -0.0266377 -1.58678 0
M  V30 1220 H 123.364 2.26076 -3.06055 0
M  V30 1221 H 122.876 0.607638 -3.83314 0
M  V30 1222 H 120.977 2.71461 -2.55225 0
M  V30 1223 H 121.09 2.06757 -4.3219 0
M  V30 1224 H 119.454 1.18566 -2.2542 0
M  V30 1225 H 120.237 0.00073556 -3.433 0
M  V30 1226 N 122.682 1.50554 0.465978 0
M  V30 1227 C 123.912 1.65323 1.23903 0
M  V30 1228 C 124.32 0.338051 1.86155 0
M  V30 1229 O 123.663 -0.690518 1.70228 0
M  V30 1230 C 123.725 2.69048 2.3844 0
M  V30 1231 C 123.389 4.12462 1.96784 0
M  V30 1232 C 124.386 4.98168 1.48745 0
M  V30 1233 C 122.071 4.58407 2.05349 0
M  V30 1234 C 124.065 6.27868 1.0982 0
M  V30 1235 C 121.752 5.88112 1.66035 0
M  V30 1236 C 122.75 6.72668 1.18349 0
M  V30 1237 O 122.438 7.99951 0.795825 0
M  V30 1238 H 122.17 0.558629 0.38067 0
M  V30 1239 H 124.724 1.97561 0.562022 0
M  V30 1240 H 122.954 2.32062 3.09328 0
M  V30 1241 H 124.643 2.72985 3.0039 0
M  V30 1242 H 125.409 4.63885 1.41546 0
M  V30 1243 H 121.288 3.92735 2.41414 0
M  V30 1244 H 124.832 6.93819 0.725293 0
M  V30 1245 H 120.729 6.21914 1.72895 0
M  V30 1246 H 121.497 8.13265 0.924222 0
M  V30 1247 N 124.16 -0.719506 1.40217 0
M  V30 1248 C 125.107 -1.83359 1.40172 0
M  V30 1249 C 126.077 -1.64065 0.259206 0
M  V30 1250 O 127.262 -1.85254 0.456677 0
M  V30 1251 C 124.402 -3.2103 1.26624 0
M  V30 1252 C 123.515 -3.51923 2.50548 0
M  V30 1253 C 122.65 -4.79079 2.29471 0
M  V30 1254 C 121.689 -5.02863 3.48992 0
M  V30 1255 N 120.826 -6.2123 3.27135 0
M  V30 1256 H 125.666 -1.82733 2.35399 0
M  V30 1257 H 123.203 -0.892688 1.16917 0
M  V30 1258 H 125.161 -4.00524 1.16776 0
M  V30 1259 H 123.791 -3.20895 0.350176 0
M  V30 1260 H 122.843 -2.67014 2.70939 0
M  V30 1261 H 124.155 -3.6541 3.39525 0
M  V30 1262 H 123.309 -5.66582 2.16955 0
M  V30 1263 H 122.048 -4.67794 1.37913 0
M  V30 1264 H 121.053 -4.13816 3.6199 0
M  V30 1265 H 122.278 -5.16023 4.41472 0
M  V30 1266 H 120.224 -6.11204 2.38256 0
M  V30 1267 H 120.141 -6.35375 4.09675 0
M  V30 1268 H 121.409 -7.11532 3.18344 0
M  V30 1269 N 125.638 -1.25649 -0.95132 0
M  V30 1270 C 126.886 -1.10375 -1.69298 0
M  V30 1271 C 127.207 0.355339 -1.91735 0
M  V30 1272 O 126.477 1.25188 -1.50681 0
M  V30 1273 H 125.057 -0.405461 -0.627384 0
M  V30 1274 H 127.719 -1.57823 -1.14358 0
M  V30 1275 H 126.815 -1.61465 -2.67087 0
M  V30 1276 N 127.117 1.15442 -1.07289 0
M  V30 1277 C 128.342 1.90638 -0.816828 0
M  V30 1278 C 128.767 1.77445 0.624083 0
M  V30 1279 O 128.125 1.10671 1.43602 0
M  V30 1280 C 128.173 3.39008 -1.22906 0
M  V30 1281 O 127.277 4.10701 -0.373975 0
M  V30 1282 H 126.618 0.593555 -0.297638 0
M  V30 1283 H 129.148 1.46198 -1.43134 0
M  V30 1284 H 129.158 3.89801 -1.20497 0
M  V30 1285 H 127.833 3.47929 -2.27856 0
M  V30 1286 H 126.41 3.70046 -0.460499 0
M  V30 1287 N 128.595 0.856903 1.32268 0
M  V30 1288 C 129.841 0.462069 1.97466 0
M  V30 1289 C 130.174 -0.980298 1.67642 0
M  V30 1290 O 129.449 -1.68824 0.965858 0
M  V30 1291 C 129.732 0.704336 3.53145 0
M  V30 1292 C 129.585 2.19529 3.9259 0
M  V30 1293 C 130.904 0.1622 4.39801 0
M  V30 1294 H 128.023 0.169357 0.717278 0
M  V30 1295 H 130.665 1.07574 1.56614 0
M  V30 1296 H 128.815 0.181999 3.88073 0
M  V30 1297 H 130.487 2.78387 3.67829 0
M  V30 1298 H 128.73 2.67292 3.41668 0
M  V30 1299 H 129.401 2.31549 5.01088 0
M  V30 1300 H 131.877 0.608905 4.11621 0
M  V30 1301 H 130.753 0.361265 5.4771 0
M  V30 1302 H 131.014 -0.935158 4.32096 0
M  V30 1303 N 130.073 -1.45103 0.615059 0
M  V30 1304 C 130.983 -2.34382 -0.101034 0
M  V30 1305 C 131.999 -1.51681 -0.852585 0
M  V30 1306 O 133.175 -1.8446 -0.808484 0
M  V30 1307 C 130.24 -3.29417 -1.08099 0
M  V30 1308 C 129.301 -4.28025 -0.330577 0
M  V30 1309 C 128.534 -5.1852 -1.26385 0
M  V30 1310 O 128.757 -5.12598 -2.50198 0
M  V30 1311 O 127.691 -5.97122 -0.756866 0
M  V30 1312 H 131.517 -2.97033 0.632855 0
M  V30 1313 H 129.102 -1.4461 0.375293 0
M  V30 1314 H 130.984 -3.87958 -1.6452 0
M  V30 1315 H 129.659 -2.69321 -1.79577 0
M  V30 1316 H 128.566 -3.73078 0.276283 0
M  V30 1317 H 129.899 -4.90997 0.343866 0
M  V30 1318 N 131.551 -0.354651 -1.53558 0
M  V30 1319 C 132.499 0.512195 -2.26891 0
M  V30 1320 C 133.493 1.09263 -1.29452 0
M  V30 1321 O 134.699 1.03709 -1.47121 0
M  V30 1322 H 131.074 0.183878 -0.729173 0
M  V30 1323 H 133.045 -0.128202 -2.98124 0
M  V30 1324 C 131.794 1.64563 -3.06291 0
M  V30 1325 H 131.117 1.20829 -3.81104 0
M  V30 1326 H 132.557 2.22711 -3.60799 0
M  V30 1327 C 131.016 2.58158 -2.16462 0
M  V30 1328 O 131.546 3.60695 -1.76811 0
M  V30 1329 N 129.752 2.27096 -1.81317 0
M  V30 1330 H 129.299 1.43751 -2.1376 0
M  V30 1331 H 129.257 2.89975 -1.21498 0
M  V30 1332 N 133.029 1.57378 -0.0835403 0
M  V30 1333 C 134.277 1.93547 0.581718 0
M  V30 1334 C 134.598 0.96524 1.69435 0
M  V30 1335 O 133.868 0.0153369 1.95894 0
M  V30 1336 H 132.448 0.714521 0.217874 0
M  V30 1337 H 135.11 1.94366 -0.144158 0
M  V30 1338 H 134.206 2.95665 0.999423 0
M  V30 1339 N 134.507 -0.190092 1.56449 0
M  V30 1340 C 135.47 -1.21925 1.9408 0
M  V30 1341 C 136.47 -1.38176 0.822431 0
M  V30 1342 O 137.66 -1.35903 1.08977 0
M  V30 1343 C 134.792 -2.58773 2.21922 0
M  V30 1344 H 135.985 -0.897464 2.86157 0
M  V30 1345 H 133.538 -0.43181 1.50217 0
M  V30 1346 H 134.273 -2.95998 1.32499 0
M  V30 1347 H 134.058 -2.48348 3.03424 0
M  V30 1348 H 135.548 -3.32978 2.52022 0
M  V30 1349 N 135.985 -1.50799 -0.457987 0
M  V30 1350 C 137.215 -1.65977 -1.23025 0
M  V30 1351 C 137.623 -0.347918 -1.85974 0
M  V30 1352 O 136.966 0.68148 -1.70592 0
M  V30 1353 C 137.028 -2.70309 -2.3701 0
M  V30 1354 C 136.692 -4.135 -1.94594 0
M  V30 1355 C 137.689 -4.98949 -1.46101 0
M  V30 1356 C 135.374 -4.5949 -2.02915 0
M  V30 1357 C 137.368 -6.28442 -1.06489 0
M  V30 1358 C 135.055 -5.88984 -1.62914 0
M  V30 1359 C 136.053 -6.73286 -1.1478 0
M  V30 1360 O 135.741 -8.00362 -0.75339 0
M  V30 1361 H 135.473 -0.56064 -0.377702 0
M  V30 1362 H 138.027 -1.97857 -0.551537 0
M  V30 1363 H 136.257 -2.337 -3.08093 0
M  V30 1364 H 137.946 -2.74574 -2.98938 0
M  V30 1365 H 138.712 -4.6463 -1.39084 0
M  V30 1366 H 134.591 -3.94009 -2.39328 0
M  V30 1367 H 138.135 -6.94194 -0.688488 0
M  V30 1368 H 134.032 -6.22822 -1.69595 0
M  V30 1369 H 134.8 -8.13744 -0.88108 0
M  V30 1370 N 137.463 0.71206 -1.40597 0
M  V30 1371 C 138.41 1.82613 -1.41142 0
M  V30 1372 C 139.38 1.63925 -0.267903 0
M  V30 1373 O 140.565 1.85009 -0.466495 0
M  V30 1374 C 137.705 3.20354 -1.28324 0
M  V30 1375 C 136.818 3.50589 -2.52411 0
M  V30 1376 C 135.953 4.77855 -2.32009 0
M  V30 1377 C 134.992 5.01005 -3.51654 0
M  V30 1378 N 134.129 6.19487 -3.30425 0
M  V30 1379 H 138.969 1.81482 -2.36365 0
M  V30 1380 H 136.506 0.886475 -1.17388 0
M  V30 1381 H 138.464 3.99899 -1.18899 0
M  V30 1382 H 137.094 3.20705 -0.367189 0
M  V30 1383 H 136.146 2.65573 -2.72351 0
M  V30 1384 H 137.458 3.63604 -3.41458 0
M  V30 1385 H 136.612 5.65424 -2.19956 0
M  V30 1386 H 135.351 4.67056 -1.40392 0
M  V30 1387 H 134.356 4.1189 -3.64179 0
M  V30 1388 H 135.581 5.13674 -4.44202 0
M  V30 1389 H 133.527 6.09932 -2.41494 0
M  V30 1390 H 133.444 6.33194 -4.13039 0
M  V30 1391 H 134.712 7.09834 -3.22113 0
M  V30 1392 N 138.941 1.26152 0.944643 0
M  V30 1393 C 139.904 1.07474 2.0244 0
M  V30 1394 C 140.904 0.0242064 1.60782 0
M  V30 1395 O 142.094 0.267302 1.72137 0
M  V30 1396 C 139.226 0.633956 3.34953 0
M  V30 1397 H 140.419 2.03336 2.20442 0
M  V30 1398 H 137.972 1.087 1.12312 0
M  V30 1399 H 138.707 -0.326811 3.22649 0
M  V30 1400 H 138.492 1.39247 3.66542 0
M  V30 1401 H 139.982 0.52501 4.14287 0
M  V30 1402 N 140.419 -1.14872 1.07899 0
M  V30 1403 C 141.351 -2.19425 0.662231 0
M  V30 1404 C 142.364 -1.60231 -0.288079 0
M  V30 1405 O 143.553 -1.78336 -0.076534 0
M  V30 1406 C 140.653 -3.38867 -0.0470695 0
M  V30 1407 C 139.826 -4.27597 0.920831 0
M  V30 1408 C 138.885 -5.25616 0.247805 0
M  V30 1409 O 137.911 -5.62189 0.890599 0
M  V30 1410 N 139.113 -5.71746 -1.00435 0
M  V30 1411 H 141.878 -2.55797 1.56166 0
M  V30 1412 H 139.439 -1.30042 0.964404 0
M  V30 1413 H 141.431 -4.01497 -0.50813 0
M  V30 1414 H 140.001 -3.00864 -0.848523 0
M  V30 1415 H 139.221 -3.61982 1.56087 0
M  V30 1416 H 140.509 -4.83748 1.57688 0
M  V30 1417 H 139.907 -5.44153 -1.54642 0
M  V30 1418 H 138.464 -6.36389 -1.40899 0
M  V30 1419 N 141.898 -0.863906 -1.31812 0
M  V30 1420 C 143.146 -0.470904 -1.96537 0
M  V30 1421 C 143.467 0.978771 -1.68657 0
M  V30 1422 O 142.737 1.6853 -0.998717 0
M  V30 1423 H 141.317 -0.171148 -0.72713 0
M  V30 1424 H 143.979 -1.10236 -1.60729 0
M  V30 1425 H 143.075 -0.623616 -3.05806 0
M  V30 1426 N 143.376 1.44774 -0.622745 0
M  V30 1427 C 144.622 2.0242 -0.124083 0
M  V30 1428 C 144.955 1.4881 1.24777 0
M  V30 1429 O 144.23 0.668799 1.8264 0
M  V30 1430 C 144.513 3.59957 -0.101619 0
M  V30 1431 C 144.366 4.23867 -1.50521 0
M  V30 1432 C 145.685 4.36284 0.578272 0
M  V30 1433 H 142.804 0.735528 -0.0465645 0
M  V30 1434 H 145.446 1.72447 -0.797617 0
M  V30 1435 H 143.596 3.85623 0.471934 0
M  V30 1436 H 145.268 4.09336 -2.12701 0
M  V30 1437 H 143.511 3.81684 -2.06154 0
M  V30 1438 H 144.182 5.32843 -1.4416 0
M  V30 1439 H 146.658 4.16001 0.0906057 0
M  V30 1440 H 145.534 5.46004 0.563149 0
M  V30 1441 H 145.795 4.10271 1.64713 0
M  V30 1442 N 144.854 0.36279 1.53368 0
M  V30 1443 C 145.786 -0.519668 2.23231 0
M  V30 1444 C 146.799 -1.04844 1.24546 0
M  V30 1445 O 147.988 -0.955296 1.50786 0
M  V30 1446 C 145.088 -1.72995 2.9142 0
M  V30 1447 C 144.261 -1.33316 4.16588 0
M  V30 1448 C 143.32 -2.40521 4.68013 0
M  V30 1449 O 142.346 -2.03027 5.3176 0
M  V30 1450 N 143.548 -3.72065 4.45587 0
M  V30 1451 H 146.313 0.078751 2.99597 0
M  V30 1452 H 143.874 0.187833 1.60807 0
M  V30 1453 H 145.866 -2.44184 3.22733 0
M  V30 1454 H 144.436 -2.2353 2.18525 0
M  V30 1455 H 143.656 -0.451236 3.91609 0
M  V30 1456 H 144.944 -1.04432 4.97967 0
M  V30 1457 H 144.342 -4.05304 3.94646 0
M  V30 1458 H 142.899 -4.39366 4.81457 0
M  V30 1459 N 146.332 -1.57332 0.0918853 0
M  V30 1460 C 147.262 -2.16872 -0.865371 0
M  V30 1461 C 148.243 -1.10118 -1.29646 0
M  V30 1462 O 149.428 -1.38242 -1.36392 0
M  V30 1463 C 146.558 -2.74649 -2.12569 0
M  V30 1464 C 145.512 -3.86747 -1.83333 0
M  V30 1465 C 144.838 -4.31212 -3.16166 0
M  V30 1466 C 146.138 -5.10089 -1.1228 0
M  V30 1467 H 147.832 -2.97114 -0.369307 0
M  V30 1468 H 145.378 -1.42918 -0.176194 0
M  V30 1469 H 147.331 -3.14952 -2.7997 0
M  V30 1470 H 146.055 -1.91657 -2.64452 0
M  V30 1471 H 144.714 -3.46978 -1.18331 0
M  V30 1472 H 144.362 -3.45115 -3.6593 0
M  V30 1473 H 144.062 -5.06788 -2.97388 0
M  V30 1474 H 145.586 -4.74146 -3.84731 0
M  V30 1475 H 147 -5.47582 -1.69785 0
M  V30 1476 H 145.397 -5.91073 -1.03693 0
M  V30 1477 H 146.467 -4.84786 -0.105041 0
M  V30 1478 N 147.81 0.181792 -1.56548 0
M  V30 1479 C 149.038 0.915947 -1.85521 0
M  V30 1480 C 149.453 1.76282 -0.676016 0
M  V30 1481 O 148.81 1.79012 0.355077 0
M  V30 1482 C 148.861 1.80126 -3.13427 0
M  V30 1483 O 148.582 0.988562 -4.26801 0
M  V30 1484 C 150.083 2.64597 -3.55673 0
M  V30 1485 H 147.303 0.26661 -0.61576 0
M  V30 1486 H 149.847 0.185039 -2.03661 0
M  V30 1487 H 148.002 2.48563 -2.97145 0
M  V30 1488 H 148.416 1.59308 -4.99721 0
M  V30 1489 H 149.89 3.2235 -4.48101 0
M  V30 1490 H 150.367 3.38958 -2.79292 0
M  V30 1491 H 150.973 2.0151 -3.74532 0
M  V30 1492 N 149.288 1.51039 0.449983 0
M  V30 1493 C 150.251 1.70863 1.5277 0
M  V30 1494 C 151.251 0.578846 1.5002 0
M  V30 1495 O 152.441 0.846213 1.52266 0
M  V30 1496 C 149.573 1.75341 2.9235 0
M  V30 1497 H 150.766 2.67034 1.36502 0
M  V30 1498 H 148.319 1.40838 0.677812 0
M  V30 1499 H 149.054 0.809383 3.14037 0
M  V30 1500 H 148.839 2.57436 2.95752 0
M  V30 1501 H 150.329 1.92559 3.70555 0
M  V30 1502 N 150.766 -0.704594 1.40972 0
M  V30 1503 C 151.713 -1.81862 1.42109 0
M  V30 1504 C 152.683 -1.63781 0.276593 0
M  V30 1505 O 153.868 -1.84759 0.4763 0
M  V30 1506 C 151.008 -3.19669 1.30022 0
M  V30 1507 C 150.121 -3.49246 2.54267 0
M  V30 1508 C 149.256 -4.76618 2.3454 0
M  V30 1509 C 148.295 -4.99133 3.54306 0
M  V30 1510 N 147.432 -6.17726 3.33706 0
M  V30 1511 H 152.272 -1.80226 2.37324 0
M  V30 1512 H 149.809 -0.880238 1.17857 0
M  V30 1513 H 151.767 -3.99263 1.21018 0
M  V30 1514 H 150.397 -3.20506 0.384192 0
M  V30 1515 H 149.449 -2.64125 2.73756 0
M  V30 1516 H 150.761 -3.61788 3.43381 0
M  V30 1517 H 149.915 -5.64249 2.22952 0
M  V30 1518 H 148.654 -4.66305 1.42867 0
M  V30 1519 H 147.659 -4.09953 3.66359 0
M  V30 1520 H 148.884 -5.11311 4.4692 0
M  V30 1521 H 146.83 -6.08642 2.44725 0
M  V30 1522 H 146.747 -6.30995 4.16391 0
M  V30 1523 H 148.015 -7.08115 3.25873 0
M  V30 1524 N 152.244 -1.26651 -0.937939 0
M  V30 1525 C 153.174 -1.10993 -2.05433 0
M  V30 1526 C 154.155 -0.0142161 -1.70094 0
M  V30 1527 O 155.34 -0.186837 -1.93299 0
M  V30 1528 C 152.47 -0.745561 -3.39203 0
M  V30 1529 C 151.424 -1.79337 -3.88616 0
M  V30 1530 C 150.75 -1.28324 -5.19073 0
M  V30 1531 C 152.05 -3.19553 -4.13138 0
M  V30 1532 H 153.744 -2.0438 -2.1879 0
M  V30 1533 H 151.29 -0.984041 -1.05131 0
M  V30 1534 H 153.243 -0.622888 -4.16771 0
M  V30 1535 H 151.967 0.22401 -3.25831 0
M  V30 1536 H 150.626 -1.90477 -3.13231 0
M  V30 1537 H 150.274 -0.303414 -5.02084 0
M  V30 1538 H 149.974 -1.98369 -5.53103 0
M  V30 1539 H 151.498 -1.1733 -5.99221 0
M  V30 1540 H 152.912 -3.11471 -4.81309 0
M  V30 1541 H 151.309 -3.87218 -4.58457 0
M  V30 1542 H 152.379 -3.65368 -3.18801 0
M  V30 1543 N 153.722 1.14298 -1.08507 0
M  V30 1544 C 154.97 1.84993 -0.813763 0
M  V30 1545 C 155.291 1.83405 0.662393 0
M  V30 1546 O 154.561 1.28319 1.48024 0
M  V30 1547 H 153.141 0.684966 -0.298045 0
M  V30 1548 H 155.803 1.385 -1.37126 0
M  V30 1549 H 154.899 2.89788 -1.15884 0
M  V30 1550 N 155.201 0.870884 1.31352 0
M  V30 1551 C 156.431 0.496049 2.00557 0
M  V30 1552 C 156.839 -0.916241 1.65534 0
M  V30 1553 O 156.182 -1.61188 0.881134 0
M  V30 1554 C 156.244 0.574418 3.54881 0
M  V30 1555 C 155.908 1.94849 4.1338 0
M  V30 1556 C 156.905 2.91611 4.30417 0
M  V30 1557 C 154.59 2.25005 4.49086 0
M  V30 1558 C 156.584 4.16672 4.82352 0
M  V30 1559 C 154.271 3.50315 5.00722 0
M  V30 1560 C 155.269 4.45964 5.17306 0
M  V30 1561 O 154.957 5.69052 5.67833 0
M  V30 1562 H 154.689 0.191664 0.64826 0
M  V30 1563 H 157.243 1.17409 1.68536 0
M  V30 1564 H 155.473 -0.160549 3.86367 0
M  V30 1565 H 157.162 0.212879 4.05341 0
M  V30 1566 H 157.928 2.69622 4.03149 0
M  V30 1567 H 153.807 1.51332 4.35453 0
M  V30 1568 H 157.351 4.91336 4.95211 0
M  V30 1569 H 153.248 3.72147 5.27424 0
M  V30 1570 H 154.016 5.71236 5.86201 0
M  V30 1571 N 156.679 -1.44442 0.630414 0
M  V30 1572 C 158.09 -1.85434 0.217063 0
M  V30 1573 C 158.441 -1.52748 -1.23136 0
M  V30 1574 O 157.566 -0.965205 -1.93682 0
M  V30 1575 C 158.161 -3.36581 0.387168 0
M  V30 1576 C 156.72 -3.76389 0.0283297 0
M  V30 1577 C 155.867 -2.68296 0.700889 0
M  V30 1578 H 158.818 -1.34919 0.83562 0
M  V30 1579 H 158.839 -3.78657 -0.374086 0
M  V30 1580 H 158.351 -3.60339 1.44144 0
M  V30 1581 H 156.452 -3.58246 -1.02423 0
M  V30 1582 H 156.565 -4.77095 0.437892 0
M  V30 1583 H 154.929 -2.54335 0.136267 0
M  V30 1584 H 155.712 -2.94887 1.75774 0
M  V30 1585 N 158.157 -0.370918 -1.53173 0
M  V30 1586 C 159.406 0.218249 -2.00516 0
M  V30 1587 C 159.719 1.49429 -1.26215 0
M  V30 1588 O 160.925 2.16239 -1.64174 0
M  V30 1589 C 159.381 0.43948 -3.57207 0
M  V30 1590 C 158.989 -0.822244 -4.4039 0
M  V30 1591 C 160.733 0.986012 -4.1289 0
M  V30 1592 C 158.64 -0.570304 -5.88644 0
M  V30 1593 H 157.57 0.0853333 -0.749156 0
M  V30 1594 H 160.221 -0.490483 -1.76823 0
M  V30 1595 H 158.603 1.20961 -3.77074 0
M  V30 1596 H 159.777 -1.59557 -4.32294 0
M  V30 1597 H 158.092 -1.29238 -3.95836 0
M  V30 1598 H 160.689 1.18991 -5.21292 0
M  V30 1599 H 161.032 1.94972 -3.6782 0
M  V30 1600 H 161.565 0.27592 -3.96842 0
M  V30 1601 H 158.304 -1.50449 -6.38001 0
M  V30 1602 H 157.824 0.164427 -5.99575 0
M  V30 1603 H 159.503 -0.19784 -6.46697 0
M  V30 1604 N 159.635 1.57281 -0.100228 0
M  V30 1605 C 160.863 1.98879 0.570509 0
M  V30 1606 C 161.278 0.979476 1.61405 0
M  V30 1607 O 160.635 -0.0302288 1.82475 0
M  V30 1608 C 160.686 3.4052 1.2136 0
M  V30 1609 O 160.407 4.37588 0.211786 0
M  V30 1610 C 161.908 3.97149 1.96945 0
M  V30 1611 H 159.128 0.653428 0.152555 0
M  V30 1612 H 161.672 2.03697 -0.18103 0
M  V30 1613 H 159.827 3.367 1.91603 0
M  V30 1614 H 160.241 5.20118 0.676607 0
M  V30 1615 H 161.715 4.98393 2.37294 0
M  V30 1616 H 162.192 3.3525 2.83733 0
M  V30 1617 H 162.798 4.04458 1.31506 0
M  V30 1618 N 161.113 -0.173488 1.56642 0
M  V30 1619 C 162.39 -0.917617 1.7274 0
M  V30 1620 C 162.77 -2.00484 0.661027 0
M  V30 1621 O 162.118 -2.26184 -0.32453 0
M  V30 1622 C 162.328 -1.48433 3.15862 0
M  V30 1623 C 163.676 -1.95809 3.76754 0
M  V30 1624 O 164.7 -1.58231 3.19126 0
M  V30 1625 O 163.559 -2.65024 4.77938 0
M  V30 1626 H 160.653 -0.431772 0.705338 0
M  V30 1627 H 163.199 -0.161487 1.6893 0
M  V30 1628 H 161.971 -0.701715 3.84957 0
M  V30 1629 H 161.594 -2.30471 3.23989 0
M  V30 1630 N 162.591 -1.51276 -0.441967 0
M  V30 1631 C 163.868 -1.54252 -1.20273 0
M  V30 1632 C 164.248 -0.30408 -2.08898 0
M  V30 1633 O 163.596 0.711084 -2.17154 0
M  V30 1634 C 163.806 -2.85406 -2.00859 0
M  V30 1635 C 165.154 -3.37181 -2.58059 0
M  V30 1636 O 166.178 -2.86925 -2.11074 0
M  V30 1637 O 165.037 -4.24858 -3.43741 0
M  V30 1638 H 162.131 -0.619969 -0.547328 0
M  V30 1639 H 164.677 -1.63586 -0.451413 0
M  V30 1640 H 163.449 -3.67003 -1.35736 0
M  V30 1641 H 163.072 -2.79213 -2.83065 0
M  V30 1642 N 164.069 0.697108 -1.41344 0
M  V30 1643 C 164.999 1.82353 -1.45841 0
M  V30 1644 C 165.98 1.67115 -0.317247 0
M  V30 1645 O 167.165 1.86871 -0.528474 0
M  V30 1646 C 164.295 3.20476 -1.33838 0
M  V30 1647 C 163.249 3.50415 -2.4575 0
M  V30 1648 C 162.575 4.87878 -2.18813 0
M  V30 1649 C 163.875 3.49546 -3.88091 0
M  V30 1650 H 165.569 1.78846 -2.40113 0
M  V30 1651 H 163.115 0.859028 -1.15571 0
M  V30 1652 H 165.068 3.98988 -1.35596 0
M  V30 1653 H 163.792 3.24604 -0.360498 0
M  V30 1654 H 162.451 2.74253 -2.43271 0
M  V30 1655 H 162.099 4.8863 -1.19371 0
M  V30 1656 H 161.799 5.08875 -2.93803 0
M  V30 1657 H 163.323 5.68702 -2.22284 0
M  V30 1658 H 164.737 4.18066 -3.92293 0
M  V30 1659 H 163.134 3.82075 -4.62751 0
M  V30 1660 H 164.204 2.48552 -4.16353 0
M  V30 1661 N 165.547 1.27147 0.931209 0
M  V30 1662 C 166.824 1.0401 1.65654 0
M  V30 1663 C 167.204 -0.426297 2.06751 0
M  V30 1664 O 166.552 -1.40879 1.79904 0
M  V30 1665 C 166.762 1.99834 2.86125 0
M  V30 1666 C 168.11 2.29007 3.57549 0
M  V30 1667 O 169.134 1.97779 2.96246 0
M  V30 1668 O 167.993 2.82222 4.67989 0
M  V30 1669 H 165.087 0.396239 0.725895 0
M  V30 1670 H 167.633 1.38397 0.982056 0
M  V30 1671 H 166.405 2.98744 2.52721 0
M  V30 1672 H 166.028 1.65987 3.61295 0
M  V30 1673 N 167.025 -1.13721 1.09112 0
M  V30 1674 C 168.274 -1.84275 0.82009 0
M  V30 1675 C 168.587 -1.84253 -0.656509 0
M  V30 1676 O 169.793 -2.50668 -1.04296 0
M  V30 1677 C 168.249 -3.30825 1.41714 0
M  V30 1678 C 167.857 -3.39244 2.92605 0
M  V30 1679 C 169.601 -4.06443 1.22492 0
M  V30 1680 C 167.508 -4.80047 3.45411 0
M  V30 1681 H 166.438 -0.690387 0.30312 0
M  V30 1682 H 169.089 -1.28146 1.31343 0
M  V30 1683 H 167.471 -3.86737 0.851498 0
M  V30 1684 H 168.645 -2.93344 3.55367 0
M  V30 1685 H 166.96 -2.77088 3.10823 0
M  V30 1686 H 169.557 -5.10387 1.59402 0
M  V30 1687 H 169.9 -4.15972 0.165299 0
M  V30 1688 H 170.433 -3.56852 1.75788 0
M  V30 1689 H 167.172 -4.75709 4.50978 0
M  V30 1690 H 166.692 -5.26455 2.87411 0
M  V30 1691 H 168.371 -5.48957 3.42425 0
M  V30 1692 N 168.503 -0.877838 -1.30888 0
M  V30 1693 C 169.733 -0.506678 -2.00291 0
M  V30 1694 C 170.141 0.907449 -1.66018 0
M  V30 1695 O 169.484 1.60719 -0.88967 0
M  V30 1696 C 169.546 -0.59323 -3.54572 0
M  V30 1697 C 169.21 -1.97038 -4.12341 0
M  V30 1698 C 170.207 -2.93889 -4.28865 0
M  V30 1699 C 167.892 -2.27383 -4.47886 0
M  V30 1700 C 169.886 -4.19224 -4.80136 0
M  V30 1701 C 167.573 -3.52965 -4.98857 0
M  V30 1702 C 168.571 -4.48701 -5.14934 0
M  V30 1703 O 168.259 -5.72056 -5.64808 0
M  V30 1704 H 167.991 -0.1951 -0.647234 0
M  V30 1705 H 170.545 -1.18301 -1.6791 0
M  V30 1706 H 168.775 0.140057 -3.86446 0
M  V30 1707 H 170.464 -0.234372 -4.05223 0
M  V30 1708 H 171.23 -2.71756 -4.01714 0
M  V30 1709 H 167.109 -1.53639 -4.34645 0
M  V30 1710 H 170.653 -4.93956 -4.92599 0
M  V30 1711 H 166.55 -3.74939 -5.25443 0
M  V30 1712 H 167.318 -5.74337 -5.83163 0
M  V30 1713 N 169.982 1.44106 -0.638065 0
M  V30 1714 C 171.21 2.06336 -0.152615 0
M  V30 1715 C 171.625 1.47731 1.17563 0
M  V30 1716 O 170.982 0.602806 1.72257 0
M  V30 1717 C 171.033 3.61479 -0.0391491 0
M  V30 1718 O 170.754 4.17903 -1.31487 0
M  V30 1719 C 172.255 4.40757 0.474176 0
M  V30 1720 H 169.475 0.665862 -0.0828776 0
M  V30 1721 H 172.019 1.84862 -0.87443 0
M  V30 1722 H 170.174 3.82191 0.633142 0
M  V30 1723 H 170.588 5.11416 -1.16421 0
M  V30 1724 H 172.062 5.49707 0.502562 0
M  V30 1725 H 172.539 4.12697 1.50258 0
M  V30 1726 H 173.145 4.24979 -0.165102 0
M  V30 1727 N 171.46 0.379036 1.52974 0
M  V30 1728 C 172.876 0.0285448 1.59574 0
M  V30 1729 C 173.076 -1.45542 1.39355 0
M  V30 1730 O 172.132 -2.2187 1.20541 0
M  V30 1731 C 173.445 0.496535 2.96572 0
M  V30 1732 C 174.993 0.451909 3.0972 0
M  V30 1733 C 175.468 0.895924 4.49152 0
M  V30 1734 N 176.959 0.851522 4.55306 0
M  V30 1735 C 177.694 1.16661 5.61407 0
M  V30 1736 N 177.19 1.55166 6.752 0
M  V30 1737 N 178.983 1.08853 5.51459 0
M  V30 1738 H 171.134 1.34525 1.64367 0
M  V30 1739 H 173.397 0.550733 0.771619 0
M  V30 1740 H 173.103 1.53258 3.16552 0
M  V30 1741 H 172.977 -0.109802 3.7704 0
M  V30 1742 H 175.364 -0.575029 2.89443 0
M  V30 1743 H 175.445 1.09392 2.3123 0
M  V30 1744 H 175.089 1.92104 4.70168 0
M  V30 1745 H 175.019 0.23103 5.26093 0
M  V30 1746 H 177.51 0.568038 3.73606 0
M  V30 1747 H 177.823 1.776 7.52116 0
M  V30 1748 H 176.168 1.59044 6.76557 0
M  V30 1749 H 179.359 0.786803 4.6144 0
M  V30 1750 H 179.532 1.33742 6.34048 0
M  V30 1751 N 172.938 -1.57226 0.108567 0
M  V30 1752 C 173.868 -2.17778 -0.84232 0
M  V30 1753 C 174.849 -1.11487 -1.2847 0
M  V30 1754 O 176.034 -1.39681 -1.34918 0
M  V30 1755 C 173.164 -2.76888 -2.09644 0
M  V30 1756 C 172.118 -3.88669 -1.79221 0
M  V30 1757 C 171.444 -4.34541 -3.11574 0
M  V30 1758 C 172.744 -5.11251 -1.06864 0
M  V30 1759 H 174.438 -2.97489 -0.337774 0
M  V30 1760 H 171.984 -1.43097 -0.161025 0
M  V30 1761 H 173.937 -3.17904 -2.76614 0
M  V30 1762 H 172.661 -1.94451 -2.62405 0
M  V30 1763 H 171.32 -3.48213 -1.14644 0
M  V30 1764 H 170.968 -3.48977 -3.62249 0
M  V30 1765 H 170.668 -5.09914 -2.91996 0
M  V30 1766 H 172.192 -4.782 -3.7968 0
M  V30 1767 H 173.606 -5.49352 -1.63968 0
M  V30 1768 H 172.003 -5.9214 -0.974178 0
M  V30 1769 H 173.073 -4.8487 -0.0536168 0
M  V30 1770 N 174.416 0.165178 -1.56732 0
M  V30 1771 C 175.664 0.879068 -1.8198 0
M  V30 1772 C 175.985 1.82514 -0.686561 0
M  V30 1773 O 175.255 1.93694 0.293146 0
M  V30 1774 H 173.835 0.327608 -0.671329 0
M  V30 1775 H 176.497 0.163526 -1.94213 0
M  V30 1776 H 175.593 1.45228 -2.76252 0
M  V30 1777 N 175.894 1.51508 0.433938 0
M  V30 1778 C 177.142 1.6402 1.18075 0
M  V30 1779 C 177.463 0.360328 1.91642 0
M  V30 1780 O 176.733 -0.623945 1.85698 0
M  V30 1781 H 175.313 0.6045 0.43885 0
M  V30 1782 H 177.975 1.88452 0.497178 0
M  V30 1783 H 177.071 2.46949 1.90847 0
M  V30 1784 N 177.372 -0.689602 1.41712 0
M  V30 1785 C 178.305 -1.81403 1.3845 0
M  V30 1786 C 179.283 -1.60653 0.250874 0
M  V30 1787 O 180.467 -1.83323 0.43874 0
M  V30 1788 C 177.594 -3.18176 1.1611 0
M  V30 1789 C 176.64 -3.57705 2.3227 0
M  V30 1790 S 177.473 -3.61827 3.94767 0
M  V30 1791 C 178.629 -5.01318 3.74742 0
M  V30 1792 H 178.862 -1.83893 2.33603 0
M  V30 1793 H 176.395 -0.858878 1.28307 0
M  V30 1794 H 178.353 -3.97132 1.03907 0
M  V30 1795 H 177.014 -3.13288 0.225668 0
M  V30 1796 H 176.207 -4.57082 2.12349 0
M  V30 1797 H 175.809 -2.86073 2.40911 0
M  V30 1798 H 178.101 -5.88986 3.34817 0
M  V30 1799 H 179.044 -5.26283 4.73743 0
M  V30 1800 H 179.452 -4.73138 3.07898 0
M  V30 1801 N 178.85 -1.27639 -0.924453 0
M  V30 1802 C 180.096 -1.14336 -1.67497 0
M  V30 1803 C 180.429 0.309465 -1.91718 0
M  V30 1804 O 179.704 1.22608 -1.50989 0
M  V30 1805 C 179.987 -1.93096 -3.0395 0
M  V30 1806 C 179.84 -3.46381 -2.8695 0
M  V30 1807 C 181.159 -1.73798 -4.0433 0
M  V30 1808 H 178.278 -0.416728 -0.607871 0
M  V30 1809 H 180.92 -1.56832 -1.07256 0
M  V30 1810 H 179.07 -1.56982 -3.55372 0
M  V30 1811 H 180.742 -3.92343 -2.42621 0
M  V30 1812 H 178.985 -3.72557 -2.22225 0
M  V30 1813 H 179.656 -3.96735 -3.83804 0
M  V30 1814 H 182.132 -2.05293 -3.61931 0
M  V30 1815 H 181.008 -2.31294 -4.97789 0
M  V30 1816 H 181.269 -0.686725 -4.36734 0
M  V30 1817 N 180.328 1.1314 -1.09713 0
M  V30 1818 C 181.574 1.84967 -0.846104 0
M  V30 1819 C 181.929 1.82082 0.621601 0
M  V30 1820 O 181.222 1.2501 1.452 0
M  V30 1821 C 181.416 3.32167 -1.3191 0
M  V30 1822 C 181.245 3.49386 -2.83125 0
M  V30 1823 C 180.015 3.63456 -3.51038 0
M  V30 1824 C 182.213 3.45179 -3.81256 0
M  V30 1825 N 180.195 3.68966 -4.9065 0
M  V30 1826 C 181.566 3.57094 -5.06837 0
M  V30 1827 C 183.621 3.28598 -3.74069 0
M  V30 1828 C 182.324 3.5414 -6.26081 0
M  V30 1829 C 184.35 3.26953 -4.92804 0
M  V30 1830 C 183.712 3.39422 -6.17229 0
M  V30 1831 H 179.811 0.692899 -0.362512 0
M  V30 1832 H 182.395 1.35506 -1.39808 0
M  V30 1833 H 180.566 3.80186 -0.794535 0
M  V30 1834 H 182.298 3.91815 -1.01308 0
M  V30 1835 H 179.053 3.65256 -3.01471 0
M  V30 1836 H 179.477 3.75404 -5.63383 0
M  V30 1837 H 184.119 3.17858 -2.78794 0
M  V30 1838 H 181.837 3.63653 -7.21653 0
M  V30 1839 H 185.423 3.15316 -4.88945 0
M  V30 1840 H 184.303 3.38114 -7.07565 0
M  V30 1841 N 181.806 0.884767 1.30421 0
M  V30 1842 C 183.222 0.57874 1.48737 0
M  V30 1843 C 183.422 -0.883567 1.81095 0
M  V30 1844 O 182.478 -1.6648 1.89844 0
M  V30 1845 C 183.791 1.49171 2.61091 0
M  V30 1846 C 185.339 1.49532 2.74971 0
M  V30 1847 C 185.814 2.39421 3.90438 0
M  V30 1848 N 187.305 2.37383 3.97748 0
M  V30 1849 C 188.04 3.03647 4.86401 0
M  V30 1850 N 187.536 3.79136 5.79852 0
M  V30 1851 N 189.329 2.9288 4.79768 0
M  V30 1852 H 181.48 1.83075 1.0769 0
M  V30 1853 H 183.743 0.783637 0.533495 0
M  V30 1854 H 183.449 2.53291 2.44001 0
M  V30 1855 H 183.323 1.20113 3.57565 0
M  V30 1856 H 185.71 0.46163 2.91467 0
M  V30 1857 H 185.791 1.8262 1.79119 0
M  V30 1858 H 185.435 3.42874 3.74699 0
M  V30 1859 H 185.365 2.03649 4.85628 0
M  V30 1860 H 187.856 1.82525 3.30897 0
M  V30 1861 H 188.169 4.26789 6.4426 0
M  V30 1862 H 186.514 3.83243 5.79784 0
M  V30 1863 H 189.705 2.33433 4.05742 0
M  V30 1864 H 189.878 3.448 5.4865 0
M  V30 1865 N 183.284 -1.43765 0.645699 0
M  V30 1866 C 184.247 -2.29163 -0.0409488 0
M  V30 1867 C 185.247 -1.41813 -0.757996 0
M  V30 1868 O 186.437 -1.63527 -0.600382 0
M  V30 1869 C 183.569 -3.23716 -1.06869 0
M  V30 1870 H 184.762 -2.91366 0.710345 0
M  V30 1871 H 182.315 -1.5092 0.406547 0
M  V30 1872 H 183.05 -2.66393 -1.84947 0
M  V30 1873 H 182.835 -3.88105 -0.558277 0
M  V30 1874 H 184.325 -3.87831 -1.54845 0
M  V30 1875 N 184.763 -0.387143 -1.52771 0
M  V30 1876 C 186.04 0.253197 -1.93954 0
M  V30 1877 C 186.42 1.64545 -1.32243 0
M  V30 1878 O 185.768 2.23191 -0.489699 0
M  V30 1879 C 185.978 0.281722 -3.47861 0
M  V30 1880 C 187.326 0.511715 -4.21505 0
M  V30 1881 O 188.35 0.362023 -3.54356 0
M  V30 1882 O 187.209 0.804847 -5.40541 0
M  V30 1883 H 184.303 0.156845 -0.811991 0
M  V30 1884 H 186.849 -0.441494 -1.63856 0
M  V30 1885 H 185.621 -0.693571 -3.85104 0
M  V30 1886 H 185.244 1.02142 -3.84256 0
M  V30 1887 N 186.241 1.57166 -0.116904 0
M  V30 1888 C 187.469 1.99473 0.549383 0
M  V30 1889 C 187.884 0.996541 1.60357 0
M  V30 1890 O 187.241 -0.0108731 1.82497 0
M  V30 1891 C 187.292 3.41788 1.17741 0
M  V30 1892 O 187.013 4.37788 0.165362 0
M  V30 1893 C 188.514 3.99216 1.92722 0
M  V30 1894 H 185.734 0.655009 0.145616 0
M  V30 1895 H 188.278 2.03494 -0.202625 0
M  V30 1896 H 186.433 3.38713 1.88021 0
M  V30 1897 H 186.847 5.20806 0.621403 0
M  V30 1898 H 188.321 5.00882 2.31995 0
M  V30 1899 H 188.798 3.3824 2.80161 0
M  V30 1900 H 189.404 4.0583 1.27209 0
M  V30 1901 N 187.719 -0.156864 1.56817 0
M  V30 1902 C 188.666 -1.19394 1.97519 0
M  V30 1903 C 189.636 -1.4322 0.841265 0
M  V30 1904 O 190.821 -1.55719 1.10255 0
M  V30 1905 C 187.961 -2.52483 2.35258 0
M  V30 1906 C 187.074 -2.35914 3.61896 0
M  V30 1907 C 186.209 -3.61969 3.88782 0
M  V30 1908 C 185.248 -3.40395 5.08722 0
M  V30 1909 N 184.385 -4.58556 5.31668 0
M  V30 1910 H 189.225 -0.839845 2.85921 0
M  V30 1911 H 186.762 -0.403264 1.41464 0
M  V30 1912 H 188.72 -3.30071 2.55165 0
M  V30 1913 H 187.35 -2.85859 1.49949 0
M  V30 1914 H 186.402 -1.49429 3.49821 0
M  V30 1915 H 187.714 -2.15926 4.49641 0
M  V30 1916 H 186.868 -4.47989 4.09135 0
M  V30 1917 H 185.607 -3.84951 2.9944 0
M  V30 1918 H 184.612 -2.52763 4.88253 0
M  V30 1919 H 185.837 -3.18822 5.99608 0
M  V30 1920 H 183.783 -4.81729 4.45279 0
M  V30 1921 H 183.7 -4.41535 6.13664 0
M  V30 1922 H 184.968 -5.45817 5.5651 0
M  V30 1923 N 189.197 -1.51736 -0.425897 0
M  V30 1924 C 190.422 -1.69082 -1.20108 0
M  V30 1925 C 190.847 -0.392398 -1.83962 0
M  V30 1926 O 190.205 0.64858 -1.69302 0
M  V30 1927 C 190.253 -2.81604 -2.25237 0
M  V30 1928 O 189.357 -2.46004 -3.30992 0
M  V30 1929 H 188.698 -0.563408 -0.35138 0
M  V30 1930 H 191.228 -1.98358 -0.501512 0
M  V30 1931 H 191.238 -3.06025 -2.69838 0
M  V30 1932 H 189.913 -3.75817 -1.78142 0
M  V30 1933 H 188.49 -2.32195 -2.91787 0
M  V30 1934 N 190.675 0.682077 -1.42076 0
M  V30 1935 C 191.623 1.81707 -1.45208 0
M  V30 1936 C 192.617 1.66183 -0.328591 0
M  V30 1937 O 193.823 1.7288 -0.501264 0
M  V30 1938 H 190.198 0.599014 -0.454628 0
M  V30 1939 H 192.169 1.76183 -2.40836 0
M  V30 1940 C 190.918 3.19816 -1.36428 0
M  V30 1941 H 190.241 3.32385 -2.22171 0
M  V30 1942 H 191.681 3.99272 -1.42681 0
M  V30 1943 C 190.14 3.36809 -0.078191 0
M  V30 1944 O 190.67 3.92124 0.87188 0
M  V30 1945 N 188.876 2.906 0.00229266 0
M  V30 1946 H 188.423 2.45772 -0.771616 0
M  V30 1947 H 188.381 3.02347 0.862179 0
M  V30 1948 N 192.153 1.28127 0.917671 0
M  V30 1949 C 193.399 1.15223 1.66888 0
M  V30 1950 C 193.732 -0.299293 1.9188 0
M  V30 1951 O 193.007 -1.21805 1.51637 0
M  V30 1952 C 193.29 1.94706 3.02922 0
M  V30 1953 C 193.143 3.47898 2.85109 0
M  V30 1954 C 194.462 1.75939 4.03402 0
M  V30 1955 H 191.581 0.419946 0.605652 0
M  V30 1956 H 194.223 1.57398 1.06423 0
M  V30 1957 H 192.373 1.58864 3.54534 0
M  V30 1958 H 194.045 3.93624 2.40537 0
M  V30 1959 H 192.288 3.7373 2.20246 0
M  V30 1960 H 192.959 3.98765 3.81694 0
M  V30 1961 H 195.435 2.07209 3.60837 0
M  V30 1962 H 194.311 2.33931 4.96556 0
M  V30 1963 H 194.572 0.709877 4.36364 0
M  V30 1964 N 193.631 -1.12557 1.10312 0
M  V30 1965 C 194.861 -1.87592 0.865617 0
M  V30 1966 C 195.269 -1.79851 -0.587389 0
M  V30 1967 O 194.612 -1.16949 -1.41664 0
M  V30 1968 C 194.674 -3.37665 1.23381 0
M  V30 1969 C 194.338 -3.69181 2.69359 0
M  V30 1970 C 195.335 -3.67652 3.67597 0
M  V30 1971 C 193.02 -3.98555 3.05711 0
M  V30 1972 C 195.014 -3.95053 5.00212 0
M  V30 1973 C 192.701 -4.25616 4.38514 0
M  V30 1974 C 193.699 -4.23851 5.35574 0
M  V30 1975 O 193.387 -4.50242 6.65986 0
M  V30 1976 H 193.119 -0.600442 0.310557 0
M  V30 1977 H 195.673 -1.4335 1.47105 0
M  V30 1978 H 193.903 -3.82454 0.571467 0
M  V30 1979 H 195.592 -3.94041 0.973994 0
M  V30 1980 H 196.358 -3.45024 3.40857 0
M  V30 1981 H 192.237 -3.99071 2.30789 0
M  V30 1982 H 195.781 -3.93591 5.75962 0
M  V30 1983 H 191.678 -4.47718 4.64994 0
M  V30 1984 H 192.446 -4.67867 6.71597 0
M  V30 1985 N 195.109 -0.891671 -1.2995 0
M  V30 1986 C 196.357 -0.512486 -1.95494 0
M  V30 1987 C 196.678 0.942776 -1.70695 0
M  V30 1988 O 195.948 1.66374 -1.03424 0
M  V30 1989 H 194.528 -0.186533 -0.723336 0
M  V30 1990 H 197.19 -1.13621 -1.58355 0
M  V30 1991 H 196.286 -0.688342 -3.04415 0
M  V30 1992 N 196.587 1.43421 -0.653314 0
M  V30 1993 C 197.534 2.30768 0.0382271 0
M  V30 1994 C 198.504 1.44755 0.814576 0
M  V30 1995 O 199.689 1.73624 0.791162 0
M  V30 1996 C 196.829 3.30336 0.998599 0
M  V30 1997 C 195.942 4.31448 0.218342 0
M  V30 1998 C 195.077 5.18098 1.17252 0
M  V30 1999 C 194.116 6.10902 0.382702 0
M  V30 2000 N 193.253 6.90176 1.28848 0
M  V30 2001 H 198.093 2.89357 -0.712511 0
M  V30 2002 H 195.63 1.42548 -0.363128 0
M  V30 2003 H 197.588 3.86572 1.56901 0
M  V30 2004 H 196.218 2.73397 1.71621 0
M  V30 2005 H 195.27 3.77506 -0.46836 0
M  V30 2006 H 196.582 4.97227 -0.395812 0
M  V30 2007 H 195.736 5.7896 1.81356 0
M  V30 2008 H 194.475 4.52444 1.82058 0
M  V30 2009 H 193.48 5.49128 -0.27169 0
M  V30 2010 H 194.705 6.78598 -0.260957 0
M  V30 2011 H 192.651 6.27171 1.92334 0
M  V30 2012 H 192.568 7.52478 0.728887 0
M  V30 2013 H 193.836 7.55543 1.91766 0
M  V30 2014 N 198.065 0.39524 1.52563 0
M  V30 2015 C 199.013 -0.451859 2.28169 0
M  V30 2016 C 200.007 -1.05792 1.32304 0
M  V30 2017 O 201.213 -0.997718 1.49818 0
M  V30 2018 H 197.588 -0.164481 0.733792 0
M  V30 2019 H 199.559 0.207199 2.9768 0
M  V30 2020 C 198.308 -1.56385 3.10546 0
M  V30 2021 H 197.631 -1.10682 3.84174 0
M  V30 2022 H 199.071 -2.13067 3.66577 0
M  V30 2023 C 197.53 -2.52328 2.23231 0
M  V30 2024 O 198.06 -3.5588 1.86312 0
M  V30 2025 N 196.266 -2.22209 1.87274 0
M  V30 2026 H 195.813 -1.38033 2.17496 0
M  V30 2027 H 195.771 -2.86652 1.29143 0
M  V30 2028 N 199.544 -1.57102 0.125237 0
M  V30 2029 C 200.494 -2.12202 -0.833936 0
M  V30 2030 C 201.478 -1.04433 -1.22403 0
M  V30 2031 O 202.67 -1.30655 -1.19408 0
M  V30 2032 C 199.799 -2.72994 -2.08157 0
M  V30 2033 C 198.885 -3.87852 -1.71556 0
M  V30 2034 N 199.276 -4.9464 -1.05662 0
M  V30 2035 C 197.574 -3.98153 -2.00973 0
M  V30 2036 C 198.275 -5.74953 -0.883376 0
M  V30 2037 N 197.251 -5.24985 -1.41036 0
M  V30 2038 H 201.053 -2.92141 -0.321035 0
M  V30 2039 H 198.567 -1.62217 -0.0770315 0
M  V30 2040 H 200.564 -3.10816 -2.77847 0
M  V30 2041 H 199.224 -1.9452 -2.59985 0
M  V30 2042 H 200.235 -5.12872 -0.719878 0
M  V30 2043 H 196.912 -3.30728 -2.54804 0
M  V30 2044 H 198.302 -6.70904 -0.365675 0
M  V30 2045 N 201.022 0.148545 -1.56898 0
M  V30 2046 C 202.299 0.890019 -1.74178 0
M  V30 2047 C 202.679 1.99407 -0.692839 0
M  V30 2048 O 202.027 2.26671 0.288505 0
M  V30 2049 C 202.237 1.43389 -3.18183 0
M  V30 2050 C 203.585 1.89791 -3.79822 0
M  V30 2051 O 204.609 1.53134 -3.21603 0
M  V30 2052 O 203.468 2.57387 -4.82093 0
M  V30 2053 H 200.562 0.420496 -0.712118 0
M  V30 2054 H 203.108 0.134591 -1.69165 0
M  V30 2055 H 201.88 0.640383 -3.86024 0
M  V30 2056 H 201.503 2.25287 -3.27615 0
M  V30 2057 N 202.5 1.5196 0.417844 0
M  V30 2058 C 203.728 1.69426 1.18753 0
M  V30 2059 C 204.143 0.399955 1.84515 0
M  V30 2060 O 203.5 -0.623288 1.71527 0
M  V30 2061 C 203.551 2.82375 2.25714 0
M  V30 2062 O 203.272 4.06793 1.62638 0
M  V30 2063 C 204.773 3.11277 3.15628 0
M  V30 2064 H 201.993 0.568031 0.357186 0
M  V30 2065 H 204.537 1.98475 0.49273 0
M  V30 2066 H 202.692 2.5587 2.90877 0
M  V30 2067 H 203.106 4.69667 2.3348 0
M  V30 2068 H 204.58 3.93843 3.86771 0
M  V30 2069 H 205.057 2.24473 3.77503 0
M  V30 2070 H 205.663 3.39515 2.56144 0
M  V30 2071 N 203.978 -0.674533 1.42435 0
M  V30 2072 C 205.226 -1.43175 1.42637 0
M  V30 2073 C 205.547 -1.94951 0.0438992 0
M  V30 2074 O 204.817 -1.7308 -0.917607 0
M  V30 2075 H 203.397 -0.531307 0.525092 0
M  V30 2076 H 206.059 -0.797006 1.77859 0
M  V30 2077 H 205.155 -2.28463 2.12629 0
M  V30 2078 N 205.456 -1.28612 -0.910864 0
M  V30 2079 C 206.702 -1.16106 -1.66274 0
M  V30 2080 C 207.035 0.289113 -1.92036 0
M  V30 2081 O 206.31 1.21 -1.52281 0
M  V30 2082 C 206.593 -1.96309 -3.01885 0
M  V30 2083 C 206.446 -3.49405 -2.8326 0
M  V30 2084 C 207.765 -1.78076 -4.02463 0
M  V30 2085 H 204.884 -0.423152 -0.603417 0
M  V30 2086 H 207.526 -1.57961 -1.05586 0
M  V30 2087 H 205.676 -1.60742 -3.53687 0
M  V30 2088 H 207.348 -3.94894 -2.38446 0
M  V30 2089 H 205.591 -3.74893 -2.18261 0
M  V30 2090 H 206.262 -4.00784 -3.79574 0
M  V30 2091 H 208.738 -2.0912 -3.59733 0
M  V30 2092 H 207.614 -2.36561 -4.95308 0
M  V30 2093 H 207.875 -0.733008 -4.35981 0
M  V30 2094 N 206.934 1.1197 -1.10907 0
M  V30 2095 C 208.159 1.87942 -0.877064 0
M  V30 2096 C 208.584 1.79341 0.567314 0
M  V30 2097 O 207.942 1.15184 1.40009 0
M  V30 2098 C 207.99 3.34926 -1.33629 0
M  V30 2099 O 207.094 4.09303 -0.504447 0
M  V30 2100 H 206.435 0.583785 -0.316371 0
M  V30 2101 H 208.965 1.4157 -1.47712 0
M  V30 2102 H 208.975 3.8577 -1.32837 0
M  V30 2103 H 207.65 3.40504 -2.3881 0
M  V30 2104 H 206.227 3.68393 -0.577993 0
M  V30 2105 N 208.412 0.89855 1.29475 0
M  V30 2106 C 209.823 0.572537 1.77705 0
M  V30 2107 C 210.174 -0.911778 1.73727 0
M  V30 2108 O 209.299 -1.71288 1.32247 0
M  V30 2109 C 209.894 1.03252 3.22683 0
M  V30 2110 C 208.453 0.757687 3.68695 0
M  V30 2111 C 207.6 1.20787 2.49612 0
M  V30 2112 H 210.551 1.08139 1.16153 0
M  V30 2113 H 210.572 0.367307 3.78723 0
M  V30 2114 H 210.084 2.11285 3.25546 0
M  V30 2115 H 208.185 -0.310079 3.71308 0
M  V30 2116 H 208.298 1.35476 4.59547 0
M  V30 2117 H 206.662 0.626888 2.46865 0
M  V30 2118 H 207.445 2.29622 2.55203 0
M  V30 2119 N 209.89 -1.43072 0.660911 0
M  V30 2120 C 211.136 -2.0202 0.177708 0
M  V30 2121 C 211.469 -1.52066 -1.20787 0
M  V30 2122 O 210.744 -0.716987 -1.80802 0
M  V30 2123 C 211.027 -3.59561 0.197019 0
M  V30 2124 C 210.88 -4.19727 1.61706 0
M  V30 2125 C 212.199 -4.37664 -0.462396 0
M  V30 2126 H 209.318 -0.734034 0.0660494 0
M  V30 2127 H 211.96 -1.70272 0.843058 0
M  V30 2128 H 210.11 -3.86739 -0.369527 0
M  V30 2129 H 211.782 -4.03553 2.23479 0
M  V30 2130 H 210.025 -3.76084 2.16201 0
M  V30 2131 H 210.696 -5.28834 1.58237 0
M  V30 2132 H 213.172 -4.16095 0.0197215 0
M  V30 2133 H 212.048 -5.47305 -0.418188 0
M  V30 2134 H 212.309 -4.14493 -1.53778 0
M  V30 2135 N 211.368 -0.403325 -1.52352 0
M  V30 2136 C 212.615 0.174347 -2.01748 0
M  V30 2137 C 212.943 1.45636 -1.2892 0
M  V30 2138 O 212.198 1.9193 -0.382258 0
M  V30 2139 C 212.497 0.474665 -3.54234 0
M  V30 2140 C 212.163 -0.717458 -4.45155 0
M  V30 2141 C 210.825 -1.04447 -4.69728 0
M  V30 2142 C 213.177 -1.51432 -4.98716 0
M  V30 2143 C 210.505 -2.16963 -5.45109 0
M  V30 2144 C 212.857 -2.6302 -5.75329 0
M  V30 2145 C 211.521 -2.96213 -5.98175 0
M  V30 2146 H 210.791 0.0637981 -0.738248 0
M  V30 2147 H 213.438 -0.543553 -1.83624 0
M  V30 2148 H 211.743 1.27406 -3.70506 0
M  V30 2149 H 213.44 0.934496 -3.89959 0
M  V30 2150 H 210.03 -0.452596 -4.26204 0
M  V30 2151 H 214.214 -1.27491 -4.79645 0
M  V30 2152 H 209.47 -2.43034 -5.61021 0
M  V30 2153 H 213.644 -3.25158 -6.15829 0
M  V30 2154 H 211.271 -3.83516 -6.56368 0
M  V30 2155 N 212.846 1.57033 -0.133567 0
M  V30 2156 C 213.809 2.14897 0.796995 0
M  V30 2157 C 214.809 1.0874 1.18458 0
M  V30 2158 O 215.999 1.34446 1.1077 0
M  V30 2159 C 213.131 2.70112 2.07973 0
M  V30 2160 H 214.324 2.98457 0.293873 0
M  V30 2161 H 211.877 1.55871 0.115787 0
M  V30 2162 H 212.612 1.9018 2.62682 0
M  V30 2163 H 212.397 3.47764 1.81115 0
M  V30 2164 H 213.887 3.14738 2.74462 0
M  V30 2165 N 214.325 -0.140222 1.56975 0
M  V30 2166 C 215.573 -0.850005 1.83356 0
M  V30 2167 C 215.894 -1.81399 0.71551 0
M  V30 2168 O 215.164 -1.94136 -0.262294 0
M  V30 2169 H 213.744 -0.316886 0.676456 0
M  V30 2170 H 216.406 -0.132608 1.94448 0
M  V30 2171 H 215.502 -1.40814 2.78528 0
M  V30 2172 N 215.803 -1.52179 -0.40978 0
M  V30 2173 C 217.051 -1.65878 -1.15451 0
M  V30 2174 C 217.372 -0.390771 -1.91044 0
M  V30 2175 O 216.642 0.594323 -1.86667 0
M  V30 2176 H 215.222 -0.611405 -0.429177 0
M  V30 2177 H 217.884 -1.89219 -0.467134 0
M  V30 2178 H 216.98 -2.49954 -1.86894 0
M  V30 2179 N 217.281 0.66697 -1.42791 0
M  V30 2180 C 218.527 1.4291 -1.43891 0
M  V30 2181 C 218.86 1.94114 -0.0578972 0
M  V30 2182 O 218.135 1.71414 0.91911 0
M  V30 2183 C 218.418 2.62049 -2.46987 0
M  V30 2184 C 218.271 2.16426 -3.94309 0
M  V30 2185 C 219.59 3.64266 -2.46978 0
M  V30 2186 H 216.709 0.518306 -0.523954 0
M  V30 2187 H 219.351 0.757321 -1.74255 0
M  V30 2188 H 217.501 3.19361 -2.21225 0
M  V30 2189 H 219.173 1.64221 -4.31079 0
M  V30 2190 H 217.416 1.47925 -4.078 0
M  V30 2191 H 218.087 3.02038 -4.62036 0
M  V30 2192 H 220.563 3.16686 -2.69906 0
M  V30 2193 H 219.439 4.45196 -3.21079 0
M  V30 2194 H 219.7 4.15927 -1.49857 0
M  V30 2195 N 218.759 1.29093 0.90403 0
M  V30 2196 C 219.669 1.15727 2.0407 0
M  V30 2197 C 220.685 0.0815308 1.73809 0
M  V30 2198 O 221.861 0.292749 1.99261 0
M  V30 2199 C 218.926 0.830424 3.36608 0
M  V30 2200 C 217.987 1.98955 3.80415 0
M  V30 2201 C 217.22 1.6782 5.06628 0
M  V30 2202 O 217.443 0.597105 5.67266 0
M  V30 2203 O 216.377 2.52486 5.46383 0
M  V30 2204 H 220.203 2.11171 2.18267 0
M  V30 2205 H 217.788 1.08504 1.027 0
M  V30 2206 H 219.67 0.662521 4.16159 0
M  V30 2207 H 218.345 -0.0942678 3.23563 0
M  V30 2208 H 217.252 2.21267 3.01648 0
M  V30 2209 H 218.585 2.89529 3.98037 0
M  V30 2210 N 220.237 -1.11381 1.11499 0
M  V30 2211 C 221.467 -1.86663 0.885464 0
M  V30 2212 C 221.875 -1.80464 -0.568281 0
M  V30 2213 O 221.218 -1.18445 -1.40415 0
M  V30 2214 C 221.28 -3.36337 1.26956 0
M  V30 2215 C 220.944 -3.66304 2.73259 0
M  V30 2216 C 221.941 -3.63733 3.71476 0
M  V30 2217 C 219.626 -3.9529 3.09921 0
M  V30 2218 C 221.62 -3.89725 5.04374 0
M  V30 2219 C 219.307 -4.20941 4.43004 0
M  V30 2220 C 220.305 -4.18147 5.40039 0
M  V30 2221 O 219.993 -4.43153 6.70724 0
M  V30 2222 H 219.725 -0.597114 0.316908 0
M  V30 2223 H 222.279 -1.41782 1.48617 0
M  V30 2224 H 220.509 -3.81826 0.611999 0
M  V30 2225 H 222.198 -3.92986 1.01573 0
M  V30 2226 H 222.964 -3.41389 3.44498 0
M  V30 2227 H 218.843 -3.966 2.35009 0
M  V30 2228 H 222.387 -3.8746 5.80104 0
M  V30 2229 H 218.284 -4.42761 4.69716 0
M  V30 2230 H 219.052 -4.60717 6.76522 0
M  V30 2231 N 221.715 -0.905404 -1.28997 0
M  V30 2232 C 222.678 -0.392253 -2.25819 0
M  V30 2233 C 223.678 0.476753 -1.5357 0
M  V30 2234 O 224.868 0.280994 -1.71919 0
M  V30 2235 C 222 0.438588 -3.38067 0
M  V30 2236 H 223.193 -1.24743 -2.72725 0
M  V30 2237 H 220.746 -0.684051 -1.40536 0
M  V30 2238 H 221.481 1.31352 -2.96508 0
M  V30 2239 H 221.266 -0.184167 -3.91667 0
M  V30 2240 H 222.756 0.78873 -4.10084 0
M  V30 2241 N 223.193 1.4272 -0.668489 0
M  V30 2242 C 224.442 2.00846 -0.185389 0
M  V30 2243 C 224.755 1.53442 1.21305 0
M  V30 2244 O 225.961 2.03944 1.79218 0
M  V30 2245 C 224.417 3.58805 -0.280591 0
M  V30 2246 C 224.025 4.15198 -1.68268 0
M  V30 2247 C 225.769 4.24255 0.14412 0
M  V30 2248 C 223.676 5.655 -1.73099 0
M  V30 2249 H 222.606 0.751145 -0.0655475 0
M  V30 2250 H 225.257 1.63516 -0.832752 0
M  V30 2251 H 223.639 3.93608 0.434553 0
M  V30 2252 H 224.813 3.91866 -2.42441 0
M  V30 2253 H 223.128 3.62176 -2.05469 0
M  V30 2254 H 225.725 5.34547 0.128086 0
M  V30 2255 H 226.068 3.99277 1.17827 0
M  V30 2256 H 226.601 3.94389 -0.519798 0
M  V30 2257 H 223.34 5.95268 -2.74475 0
M  V30 2258 H 222.86 5.90842 -1.03274 0
M  V30 2259 H 224.539 6.29808 -1.48158 0
M  V30 2260 N 224.671 0.411399 1.52136 0
M  V30 2261 C 225.899 -0.163076 2.06256 0
M  V30 2262 C 226.314 -1.3867 1.28125 0
M  V30 2263 O 225.671 -1.79423 0.333721 0
M  V30 2264 C 225.722 -0.511252 3.57867 0
M  V30 2265 O 225.443 0.66378 4.33042 0
M  V30 2266 C 226.944 -1.13921 4.28412 0
M  V30 2267 H 224.164 -0.0193897 0.67072 0
M  V30 2268 H 226.708 0.583007 1.96013 0
M  V30 2269 H 224.863 -1.20723 3.6811 0
M  V30 2270 H 225.277 0.372601 5.23175 0
M  V30 2271 H 226.751 -1.33302 5.35663 0
M  V30 2272 H 227.228 -2.11296 3.85033 0
M  V30 2273 H 227.834 -0.483373 4.22544 0
M  V30 2274 N 226.149 -1.5696 0.141893 0
M  V30 2275 C 227.56 -1.82797 -0.379776 0
M  V30 2276 C 227.911 -1.06033 -1.6508 0
M  V30 2277 O 227.036 -0.304011 -2.14254 0
M  V30 2278 C 227.631 -3.31578 -0.695802 0
M  V30 2279 C 226.19 -3.58014 -1.16201 0
M  V30 2280 C 225.337 -2.76699 -0.182455 0
M  V30 2281 H 228.288 -1.54406 0.366675 0
M  V30 2282 H 228.309 -3.47454 -1.55099 0
M  V30 2283 H 227.821 -3.87421 0.229449 0
M  V30 2284 H 225.922 -3.07553 -2.10338 0
M  V30 2285 H 226.035 -4.66501 -1.09151 0
M  V30 2286 H 224.399 -2.45618 -0.674072 0
M  V30 2287 H 225.182 -3.35311 0.736297 0
M  V30 2288 N 227.627 0.131896 -1.57047 0
M  V30 2289 C 228.537 1.1815 -2.02676 0
M  V30 2290 C 229.553 1.46113 -0.944824 0
M  V30 2291 O 230.729 1.57485 -1.25541 0
M  V30 2292 C 227.794 2.49139 -2.41103 0
M  V30 2293 C 226.855 2.28688 -3.63318 0
M  V30 2294 C 226.088 3.53431 -3.99903 0
M  V30 2295 O 226.311 4.60223 -3.36973 0
M  V30 2296 O 225.245 3.45198 -4.93074 0
M  V30 2297 H 229.071 0.824069 -2.92306 0
M  V30 2298 H 226.656 0.341745 -1.45439 0
M  V30 2299 H 228.538 3.26338 -2.66611 0
M  V30 2300 H 227.213 2.84382 -1.54624 0
M  V30 2301 H 226.12 1.4939 -3.42977 0
M  V30 2302 H 227.453 1.98355 -4.50462 0
M  V30 2303 N 229.106 1.52395 0.401703 0
M  V30 2304 C 230.355 1.66044 1.14509 0
M  V30 2305 C 230.668 0.400216 1.91462 0
M  V30 2306 O 231.874 0.416632 2.68284 0
M  V30 2307 C 230.33 2.93388 2.0845 0
M  V30 2308 C 229.938 4.26545 1.36978 0
M  V30 2309 C 231.682 3.16402 2.83001 0
M  V30 2310 C 229.589 5.45007 2.29611 0
M  V30 2311 H 228.519 0.618562 0.431158 0
M  V30 2312 H 231.17 1.78886 0.40892 0
M  V30 2313 H 229.552 2.74263 2.8565 0
M  V30 2314 H 230.726 4.56179 0.650916 0
M  V30 2315 H 229.041 4.09692 0.74438 0
M  V30 2316 H 231.638 4.02085 3.52465 0
M  V30 2317 H 231.981 2.30943 3.46368 0
M  V30 2318 H 232.514 3.36034 2.12898 0
M  V30 2319 H 229.253 6.32835 1.70879 0
M  V30 2320 H 228.773 5.19702 2.9945 0
M  V30 2321 H 230.452 5.7838 2.89974 0
M  V30 2322 N 230.584 -0.659388 1.43143 0
M  V30 2323 C 231.547 -1.75432 1.47501 0
M  V30 2324 C 232.547 -1.56707 0.360512 0
M  V30 2325 O 233.737 -1.62717 0.622002 0
M  V30 2326 C 230.869 -3.14239 1.32162 0
M  V30 2327 H 232.062 -1.7295 2.45006 0
M  V30 2328 H 229.615 -0.870469 1.29817 0
M  V30 2329 H 230.35 -3.22336 0.356401 0
M  V30 2330 H 230.135 -3.29235 2.12948 0
M  V30 2331 H 231.625 -3.94094 1.3813 0
M  V30 2332 N 232.062 -1.29571 -0.897171 0
M  V30 2333 C 233.29 -1.20583 -1.68129 0
M  V30 2334 C 233.705 0.233181 -1.87354 0
M  V30 2335 O 233.062 1.15579 -1.41236 0
M  V30 2336 C 233.113 -1.91772 -3.06441 0
M  V30 2337 O 232.834 -3.30053 -2.88091 0
M  V30 2338 C 234.335 -1.89291 -4.00854 0
M  V30 2339 H 231.555 -0.417826 -0.525036 0
M  V30 2340 H 234.099 -1.70987 -1.12177 0
M  V30 2341 H 232.254 -1.45196 -3.59161 0
M  V30 2342 H 232.668 -3.65942 -3.75748 0
M  V30 2343 H 234.142 -2.43662 -4.95311 0
M  V30 2344 H 234.619 -0.869014 -4.30517 0
M  V30 2345 H 235.225 -2.35622 -3.54066 0
M  V30 2346 N 233.54 1.10788 -1.12088 0
M  V30 2347 C 234.956 1.34691 -0.856186 0
M  V30 2348 C 235.156 1.94791 0.515615 0
M  V30 2349 O 234.212 2.18524 1.26505 0
M  V30 2350 C 235.525 2.27208 -1.9697 0
M  V30 2351 C 237.073 2.40755 -2.00016 0
M  V30 2352 C 237.548 3.36598 -3.1059 0
M  V30 2353 N 239.039 3.44164 -3.10008 0
M  V30 2354 C 239.774 4.18284 -3.92206 0
M  V30 2355 N 239.27 4.95322 -4.84384 0
M  V30 2356 N 241.063 4.13865 -3.80357 0
M  V30 2357 H 233.214 0.70144 -2.00483 0
M  V30 2358 H 235.477 0.371405 -0.872217 0
M  V30 2359 H 235.183 1.90251 -2.958 0
M  V30 2360 H 235.057 3.27485 -1.87172 0
M  V30 2361 H 237.444 2.76982 -1.01808 0
M  V30 2362 H 237.525 1.40305 -2.13888 0
M  V30 2363 H 237.169 3.01096 -4.09028 0
M  V30 2364 H 237.099 4.36918 -2.93956 0
M  V30 2365 H 239.59 2.8922 -2.43228 0
M  V30 2366 H 239.903 5.49267 -5.43623 0
M  V30 2367 H 238.248 4.94459 -4.884 0
M  V30 2368 H 241.439 3.52773 -3.07683 0
M  V30 2369 H 241.612 4.71372 -4.44649 0
M  V30 2370 N 235.018 0.912232 1.28515 0
M  V30 2371 C 235.948 0.416403 2.29757 0
M  V30 2372 C 236.929 -0.515194 1.6211 0
M  V30 2373 O 238.114 -0.423253 1.89532 0
M  V30 2374 C 235.244 -0.34572 3.45575 0
M  V30 2375 C 234.198 0.496599 4.25109 0
M  V30 2376 C 233.524 -0.393771 5.33248 0
M  V30 2377 C 234.824 1.75307 4.92001 0
M  V30 2378 H 236.518 1.26249 2.7148 0
M  V30 2379 H 234.064 0.608515 1.30511 0
M  V30 2380 H 236.017 -0.703422 4.15488 0
M  V30 2381 H 234.741 -1.2257 3.02728 0
M  V30 2382 H 233.4 0.8368 3.56922 0
M  V30 2383 H 233.048 -1.27225 4.86644 0
M  V30 2384 H 232.748 0.166209 5.87365 0
M  V30 2385 H 234.272 -0.747389 6.06009 0
M  V30 2386 H 235.686 1.46437 5.54283 0
M  V30 2387 H 234.083 2.25534 5.56106 0
M  V30 2388 H 235.153 2.48176 4.16577 0
M  V30 2389 N 236.496 -1.42363 0.676048 0
M  V30 2390 C 237.406 -2.346 -0.00153389 0
M  V30 2391 C 238.422 -1.5516 -0.787485 0
M  V30 2392 O 239.598 -1.87723 -0.729521 0
M  V30 2393 C 236.663 -3.33705 -0.940298 0
M  V30 2394 C 235.724 -4.29042 -0.148739 0
M  V30 2395 C 234.957 -5.23413 -1.04279 0
M  V30 2396 O 235.18 -5.22749 -2.28232 0
M  V30 2397 O 234.114 -5.99795 -0.502925 0
M  V30 2398 H 237.94 -2.94082 0.758268 0
M  V30 2399 H 235.525 -1.42888 0.436289 0
M  V30 2400 H 237.407 -3.94586 -1.47917 0
M  V30 2401 H 236.082 -2.76695 -1.67993 0
M  V30 2402 H 234.989 -3.71571 0.43427 0
M  V30 2403 H 236.322 -4.89097 0.551805 0
M  V30 2404 N 237.974 -0.419461 -1.51915 0
M  V30 2405 C 239.204 0.151915 -2.06041 0
M  V30 2406 C 239.612 1.38539 -1.28855 0
M  V30 2407 O 238.955 1.80592 -0.336463 0
M  V30 2408 C 239.017 0.557119 -3.55157 0
M  V30 2409 C 238.681 -0.567054 -4.53468 0
M  V30 2410 C 239.678 -1.43379 -4.99738 0
M  V30 2411 C 237.363 -0.742693 -4.96779 0
M  V30 2412 C 239.357 -2.46102 -5.87973 0
M  V30 2413 C 237.044 -1.77322 -5.84808 0
M  V30 2414 C 238.042 -2.63078 -6.30301 0
M  V30 2415 O 237.73 -3.64364 -7.16585 0
M  V30 2416 H 237.462 0.0193293 -0.675724 0
M  V30 2417 H 240.016 -0.592073 -1.96682 0
M  V30 2418 H 238.246 1.35355 -3.62238 0
M  V30 2419 H 239.935 1.05759 -3.9188 0
M  V30 2420 H 240.701 -1.30954 -4.66986 0
M  V30 2421 H 236.58 -0.0848307 -4.60922 0
M  V30 2422 H 240.124 -3.13071 -6.23404 0
M  V30 2423 H 236.021 -1.89773 -6.16974 0
M  V30 2424 H 236.789 -3.60731 -7.34721 0
M  V30 2425 N 239.452 1.56882 -0.150215 0
M  V30 2426 C 240.384 2.14057 0.819286 0
M  V30 2427 C 241.397 1.09082 1.20851 0
M  V30 2428 O 242.586 1.36347 1.15203 0
M  V30 2429 C 239.686 2.65102 2.11127 0
M  V30 2430 C 238.859 3.94511 1.88891 0
M  V30 2431 C 237.918 4.30834 3.02107 0
M  V30 2432 O 236.944 4.99099 2.73659 0
M  V30 2433 N 238.146 3.90676 4.29363 0
M  V30 2434 H 240.911 2.97871 0.330618 0
M  V30 2435 H 238.472 1.61866 0.0332538 0
M  V30 2436 H 240.464 2.86411 2.85921 0
M  V30 2437 H 239.034 1.85994 2.51247 0
M  V30 2438 H 238.254 3.81795 0.981152 0
M  V30 2439 H 239.542 4.7907 1.71376 0
M  V30 2440 H 238.94 3.35677 4.55343 0
M  V30 2441 H 237.497 4.1703 5.00928 0
M  V30 2442 N 240.93 -0.123565 1.57115 0
M  V30 2443 C 242.176 -0.828428 1.85765 0
M  V30 2444 C 242.531 -1.77709 0.737371 0
M  V30 2445 O 241.824 -1.89787 -0.262978 0
M  V30 2446 C 242.018 -1.62016 3.18568 0
M  V30 2447 C 241.847 -0.749663 4.43407 0
M  V30 2448 C 240.617 -0.406251 5.03664 0
M  V30 2449 C 242.815 -0.0693505 5.14253 0
M  V30 2450 N 240.797 0.475389 6.12057 0
M  V30 2451 C 242.168 0.671474 6.16353 0
M  V30 2452 C 244.223 0.00754393 4.97899 0
M  V30 2453 C 242.926 1.48197 7.03868 0
M  V30 2454 C 244.952 0.804845 5.85898 0
M  V30 2455 C 244.314 1.53388 6.87497 0
M  V30 2456 H 240.413 -0.280219 0.73007 0
M  V30 2457 H 242.997 -0.0924183 1.94481 0
M  V30 2458 H 241.168 -2.32724 3.10957 0
M  V30 2459 H 242.9 -2.27 3.35042 0
M  V30 2460 H 239.655 -0.747446 4.67665 0
M  V30 2461 H 240.079 0.907924 6.70884 0
M  V30 2462 H 244.721 -0.541741 4.19315 0
M  V30 2463 H 242.439 2.04242 7.81864 0
M  V30 2464 H 246.025 0.866642 5.75309 0
M  V30 2465 H 244.905 2.1409 7.5441 0
M  V30 2466 N 242.408 -1.52605 -0.393616 0
M  V30 2467 C 243.636 -1.71294 -1.16043 0
M  V30 2468 C 244.051 -0.429259 -1.83855 0
M  V30 2469 O 243.408 0.595921 -1.72496 0
M  V30 2470 C 243.459 -2.8593 -2.21193 0
M  V30 2471 O 243.18 -4.09329 -1.56146 0
M  V30 2472 C 244.681 -3.16259 -3.10636 0
M  V30 2473 H 241.901 -0.573641 -0.348104 0
M  V30 2474 H 244.445 -1.99234 -0.461092 0
M  V30 2475 H 242.6 -2.60465 -2.86769 0
M  V30 2476 H 243.014 -4.73323 -2.25978 0
M  V30 2477 H 244.488 -3.99946 -3.80456 0
M  V30 2478 H 244.965 -2.3045 -3.73884 0
M  V30 2479 H 245.571 -3.43547 -2.50711 0
M  V30 2480 N 243.887 0.651787 -1.4349 0
M  V30 2481 C 244.835 1.78586 -1.49029 0
M  V30 2482 C 245.829 1.65448 -0.363767 0
M  V30 2483 O 247.035 1.71777 -0.537821 0
M  V30 2484 H 243.41 0.589236 -0.467231 0
M  V30 2485 H 245.381 1.71035 -2.44519 0
M  V30 2486 C 244.13 3.16851 -1.43181 0
M  V30 2487 H 243.453 3.27598 -2.29171 0
M  V30 2488 H 244.893 3.96156 -1.51118 0
M  V30 2489 C 243.352 3.36568 -0.149616 0
M  V30 2490 O 243.882 3.93885 0.788509 0
M  V30 2491 N 242.088 2.90539 -0.0593484 0
M  V30 2492 H 241.635 2.4408 -0.823575 0
M  V30 2493 H 241.593 3.04108 0.797853 0
M  V30 2494 N 245.365 1.30045 0.890287 0
M  V30 2495 C 246.313 1.15873 2.01683 0
M  V30 2496 C 247.307 0.0719403 1.69247 0
M  V30 2497 O 248.513 0.232414 1.78493 0
M  V30 2498 H 244.888 0.358203 0.661207 0
M  V30 2499 H 246.859 2.11229 2.10772 0
M  V30 2500 C 245.608 0.861842 3.36849 0
M  V30 2501 H 244.931 1.69016 3.62317 0
M  V30 2502 H 246.371 0.802762 4.16331 0
M  V30 2503 C 244.83 -0.435132 3.34078 0
M  V30 2504 O 245.36 -1.4583 3.74295 0
M  V30 2505 N 243.566 -0.444377 2.87182 0
M  V30 2506 H 243.113 0.388723 2.5465 0
M  V30 2507 H 243.071 -1.31213 2.85711 0
M  V30 2508 N 246.843 -1.10192 1.12674 0
M  V30 2509 C 248.092 -1.81573 0.8783 0
M  V30 2510 C 248.405 -1.86249 -0.597557 0
M  V30 2511 O 249.611 -2.5386 -0.962681 0
M  V30 2512 C 248.067 -3.26149 1.52167 0
M  V30 2513 C 247.675 -3.29763 3.03249 0
M  V30 2514 C 249.419 -4.0234 1.3536 0
M  V30 2515 C 247.326 -4.68815 3.60508 0
M  V30 2516 H 246.256 -0.680394 0.324931 0
M  V30 2517 H 248.907 -1.23902 1.35353 0
M  V30 2518 H 247.289 -3.83832 0.974104 0
M  V30 2519 H 248.463 -2.8189 3.6452 0
M  V30 2520 H 246.778 -2.67059 3.19481 0
M  V30 2521 H 249.375 -5.05058 1.75559 0
M  V30 2522 H 249.718 -4.15235 0.297554 0
M  V30 2523 H 250.251 -3.51079 1.87052 0
M  V30 2524 H 246.99 -4.61121 4.65884 0
M  V30 2525 H 246.51 -5.17045 3.04014 0
M  V30 2526 H 248.189 -5.37785 3.59717 0
M  V30 2527 N 248.321 -0.919034 -1.28029 0
M  V30 2528 C 249.569 -0.553838 -1.94363 0
M  V30 2529 C 249.89 0.906357 -1.72656 0
M  V30 2530 O 249.16 1.64143 -1.0693 0
M  V30 2531 H 247.74 -0.201834 -0.719216 0
M  V30 2532 H 250.402 -1.16954 -1.55909 0
M  V30 2533 H 249.498 -0.752758 -3.02886 0
M  V30 2534 N 249.799 1.42003 -0.683588 0
M  V30 2535 C 251.076 1.95112 -0.138075 0
M  V30 2536 C 251.456 1.62359 1.34918 0
M  V30 2537 O 250.804 0.924311 2.08971 0
M  V30 2538 C 251.014 3.46505 -0.416581 0
M  V30 2539 C 252.362 4.23254 -0.337834 0
M  V30 2540 O 253.386 3.54468 -0.35082 0
M  V30 2541 O 252.245 5.45743 -0.287596 0
M  V30 2542 H 249.339 0.826961 -0.00797996 0
M  V30 2543 H 251.885 1.51784 -0.758924 0
M  V30 2544 H 250.657 3.63582 -1.4465 0
M  V30 2545 H 250.28 3.969 0.235839 0
M  V30 2546 N 251.277 0.427512 1.51691 0
M  V30 2547 C 252.24 -0.377132 2.26076 0
M  V30 2548 C 253.24 -0.958089 1.29141 0
M  V30 2549 O 254.43 -0.83408 1.52934 0
M  V30 2550 C 251.562 -1.53262 3.04506 0
M  V30 2551 H 252.755 0.27464 2.9864 0
M  V30 2552 H 250.308 0.180445 1.55255 0
M  V30 2553 H 251.043 -2.22072 2.36335 0
M  V30 2554 H 250.828 -1.12232 3.75694 0
M  V30 2555 H 252.318 -2.10135 3.60878 0
M  V30 2556 N 252.755 -1.56801 0.158532 0
M  V30 2557 C 253.705 -2.13923 -0.788738 0
M  V30 2558 C 254.689 -1.07006 -1.2016 0
M  V30 2559 O 255.881 -1.33159 -1.1661 0
M  V30 2560 C 253.01 -2.77348 -2.02319 0
M  V30 2561 C 252.096 -3.91404 -1.6329 0
M  V30 2562 N 252.487 -4.9677 -0.951463 0
M  V30 2563 C 250.785 -4.02326 -1.92482 0
M  V30 2564 C 251.486 -5.76698 -0.761221 0
M  V30 2565 N 250.462 -5.27859 -1.29869 0
M  V30 2566 H 254.264 -2.92757 -0.258995 0
M  V30 2567 H 251.778 -1.62344 -0.0426055 0
M  V30 2568 H 253.775 -3.16639 -2.71192 0
M  V30 2569 H 252.435 -1.99991 -2.558 0
M  V30 2570 H 253.446 -5.14284 -0.610928 0
M  V30 2571 H 250.123 -3.36059 -2.47732 0
M  V30 2572 H 251.513 -6.71529 -0.223284 0
M  V30 2573 N 254.233 0.115231 -1.57178 0
M  V30 2574 C 255.461 0.836437 -1.89239 0
M  V30 2575 C 255.876 1.73256 -0.750175 0
M  V30 2576 O 255.233 1.80357 0.278832 0
M  V30 2577 C 255.284 1.66671 -3.20785 0
M  V30 2578 O 255.005 0.806652 -4.3061 0
M  V30 2579 C 256.506 2.49274 -3.66575 0
M  V30 2580 H 253.726 0.240253 -0.626514 0
M  V30 2581 H 256.27 0.0984932 -2.04263 0
M  V30 2582 H 254.425 2.35737 -3.0742 0
M  V30 2583 H 254.839 1.37969 -5.06028 0
M  V30 2584 H 256.313 3.03055 -4.6137 0
M  V30 2585 H 256.79 3.26807 -2.93417 0
M  V30 2586 H 257.396 1.85443 -3.82741 0
M  V30 2587 N 255.711 1.52812 0.385517 0
M  V30 2588 C 256.96 1.67249 1.12741 0
M  V30 2589 C 257.273 0.4205 1.91027 0
M  V30 2590 O 258.479 0.445064 2.67827 0
M  V30 2591 C 256.935 2.95583 2.05326 0
M  V30 2592 C 256.543 4.27974 1.32447 0
M  V30 2593 C 258.287 3.19386 2.7963 0
M  V30 2594 C 256.194 5.47412 2.23818 0
M  V30 2595 H 255.124 0.6231 0.424573 0
M  V30 2596 H 257.775 1.79309 0.389924 0
M  V30 2597 H 256.157 2.77277 2.82725 0
M  V30 2598 H 257.331 4.56844 0.602495 0
M  V30 2599 H 255.646 4.10459 0.700885 0
M  V30 2600 H 258.243 4.05801 3.48181 0
M  V30 2601 H 258.586 2.34604 3.43899 0
M  V30 2602 H 259.119 3.38274 2.09322 0
M  V30 2603 H 255.858 6.34612 1.64157 0
M  V30 2604 H 255.378 5.22849 2.93921 0
M  V30 2605 H 257.057 5.81423 2.83824 0
M  V30 2606 N 257.189 -0.644168 1.43834 0
M  V30 2607 C 258.437 -1.40117 1.45642 0
M  V30 2608 C 258.758 -1.94814 0.0852413 0
M  V30 2609 O 258.028 -1.74988 -0.880688 0
M  V30 2610 H 256.608 -0.52005 0.536243 0
M  V30 2611 H 259.27 -0.7591 1.7951 0
M  V30 2612 H 258.366 -2.23902 2.17427 0
M  V30 2613 N 258.668 -1.30515 -0.883378 0
M  V30 2614 C 259.896 -1.22359 -1.66841 0
M  V30 2615 C 260.311 0.213296 -1.87591 0
M  V30 2616 O 259.668 1.14075 -1.42454 0
M  V30 2617 C 259.719 -1.95011 -3.04389 0
M  V30 2618 O 259.44 -3.3309 -2.84575 0
M  V30 2619 C 260.941 -1.93532 -3.98824 0
M  V30 2620 H 258.161 -0.423371 -0.520575 0
M  V30 2621 H 260.705 -1.72167 -1.10357 0
M  V30 2622 H 258.86 -1.48997 -3.57601 0
M  V30 2623 H 259.274 -3.69907 -3.71846 0
M  V30 2624 H 260.748 -2.48902 -4.92699 0
M  V30 2625 H 261.225 -0.914627 -4.29571 0
M  V30 2626 H 261.831 -2.39364 -3.51547 0
M  V30 2627 N 260.146 1.09593 -1.13257 0
M  V30 2628 C 261.562 1.33775 -0.870423 0
M  V30 2629 C 261.762 1.95327 0.494926 0
M  V30 2630 O 260.818 2.19853 1.2418 0
M  V30 2631 C 262.131 2.25106 -1.99369 0
M  V30 2632 C 263.679 2.3862 -2.02558 0
M  V30 2633 C 264.154 3.33285 -3.14142 0
M  V30 2634 N 265.645 3.40857 -3.13641 0
M  V30 2635 C 266.38 4.14101 -3.96621 0
M  V30 2636 N 265.876 4.90157 -4.8961 0
M  V30 2637 N 267.669 4.09808 -3.84726 0
M  V30 2638 H 259.82 0.680136 -2.01216 0
M  V30 2639 H 262.083 0.362133 -0.876107 0
M  V30 2640 H 261.789 1.87103 -2.97801 0
M  V30 2641 H 261.663 3.25481 -1.90635 0
M  V30 2642 H 264.05 2.75887 -1.0474 0
M  V30 2643 H 264.131 1.38028 -2.15364 0
M  V30 2644 H 263.775 2.96741 -4.12198 0
M  V30 2645 H 263.705 4.33776 -2.98574 0
M  V30 2646 H 266.196 2.86624 -2.46282 0
M  V30 2647 H 266.509 5.4347 -5.49418 0
M  V30 2648 H 264.854 4.89251 -4.93617 0
M  V30 2649 H 268.045 3.4949 -3.11408 0
M  V30 2650 H 268.218 4.66629 -4.49623 0
M  V30 2651 N 261.624 0.925811 1.2754 0
M  V30 2652 C 263.035 0.610102 1.7645 0
M  V30 2653 C 263.386 -0.874723 1.75622 0
M  V30 2654 O 262.511 -1.68444 1.35851 0
M  V30 2655 C 263.106 1.10073 3.20421 0
M  V30 2656 C 261.665 0.835723 3.67005 0
M  V30 2657 C 260.812 1.26054 2.46993 0
M  V30 2658 H 263.763 1.10579 1.13833 0
M  V30 2659 H 263.784 0.447557 3.77859 0
M  V30 2660 H 263.296 2.18143 3.20991 0
M  V30 2661 H 261.397 -0.231249 3.71882 0
M  V30 2662 H 261.51 1.45193 4.56569 0
M  V30 2663 H 259.874 0.679111 2.45479 0
M  V30 2664 H 260.657 2.34984 2.50275 0
M  V30 2665 N 263.102 -1.41638 0.69111 0
M  V30 2666 C 264.379 -1.95036 0.148421 0
M  V30 2667 C 264.759 -1.63072 -1.34055 0
M  V30 2668 O 264.107 -0.93538 -2.08478 0
M  V30 2669 C 264.317 -3.46279 0.434951 0
M  V30 2670 C 265.665 -4.23069 0.360275 0
M  V30 2671 O 266.689 -3.54277 0.369613 0
M  V30 2672 O 265.548 -5.45583 0.316534 0
M  V30 2673 H 262.642 -0.826908 0.0123654 0
M  V30 2674 H 265.188 -1.5138 0.766963 0
M  V30 2675 H 263.96 -3.6281 1.46576 0
M  V30 2676 H 263.583 -3.97019 -0.214787 0
M  V30 2677 N 264.58 -0.43555 -1.51462 0
M  V30 2678 C 265.528 0.391205 -2.29287 0
M  V30 2679 C 266.522 1.02247 -1.35062 0
M  V30 2680 O 267.728 0.957646 -1.52411 0
M  V30 2681 H 264.103 0.144968 -0.737895 0
M  V30 2682 H 266.074 -0.286051 -2.97026 0
M  V30 2683 C 264.823 1.48096 -3.14583 0
M  V30 2684 H 264.146 1.00457 -3.86973 0
M  V30 2685 H 265.586 2.03273 -3.72097 0
M  V30 2686 C 264.045 2.46321 -2.29843 0
M  V30 2687 O 264.575 3.50815 -1.95682 0
M  V30 2688 N 262.781 2.17166 -1.931 0
M  V30 2689 H 262.328 1.32218 -2.21079 0
M  V30 2690 H 262.286 2.83127 -1.36698 0
M  V30 2691 N 266.058 1.56714 -0.166846 0
M  V30 2692 C 267.306 1.96358 0.478305 0
M  V30 2693 C 267.627 1.0537 1.6408 0
M  V30 2694 O 266.897 0.119154 1.95537 0
M  V30 2695 H 265.477 0.725065 0.179692 0
M  V30 2696 H 268.139 1.93329 -0.246985 0
M  V30 2697 H 267.235 3.00547 0.841292 0
M  V30 2698 N 267.536 -0.106894 1.57237 0
M  V30 2699 C 268.469 -1.16125 1.96444 0
M  V30 2700 C 269.447 -1.3947 0.835871 0
M  V30 2701 O 270.631 -1.53425 1.09513 0
M  V30 2702 C 267.758 -2.51277 2.27107 0
M  V30 2703 C 266.804 -2.44285 3.4961 0
M  V30 2704 S 267.637 -1.87077 5.01759 0
M  V30 2705 C 268.793 -3.23877 5.35588 0
M  V30 2706 H 269.026 -0.826971 2.85567 0
M  V30 2707 H 266.559 -0.314124 1.51171 0
M  V30 2708 H 268.517 -3.29035 2.45451 0
M  V30 2709 H 267.178 -2.81879 1.38576 0
M  V30 2710 H 266.371 -3.4387 3.68469 0
M  V30 2711 H 265.973 -1.74652 3.30715 0
M  V30 2712 H 268.265 -4.20122 5.31511 0
M  V30 2713 H 269.208 -3.09833 6.36717 0
M  V30 2714 H 269.616 -3.22864 4.63054 0
M  V30 2715 N 269.014 -1.53014 -0.377408 0
M  V30 2716 C 269.944 -1.81589 -1.46791 0
M  V30 2717 C 270.925 -0.668622 -1.56408 0
M  V30 2718 O 272.11 -0.917337 -1.71168 0
M  V30 2719 C 269.24 -1.99519 -2.8427 0
M  V30 2720 C 268.194 -3.15249 -2.89486 0
M  V30 2721 C 267.52 -3.18451 -4.29527 0
M  V30 2722 C 268.82 -4.54084 -2.58079 0
M  V30 2723 H 270.514 -2.7291 -1.23127 0
M  V30 2724 H 268.06 -1.31319 -0.590883 0
M  V30 2725 H 270.013 -2.18092 -3.60575 0
M  V30 2726 H 268.737 -1.04897 -3.09296 0
M  V30 2727 H 267.396 -2.96477 -2.15631 0
M  V30 2728 H 267.044 -2.2149 -4.5161 0
M  V30 2729 H 266.744 -3.962 -4.33934 0
M  V30 2730 H 268.268 -3.39193 -5.07721 0
M  V30 2731 H 269.682 -4.72899 -3.24098 0
M  V30 2732 H 268.079 -5.33987 -2.7382 0
M  V30 2733 H 269.149 -4.60006 -1.53372 0
M  V30 2734 N 270.492 0.636531 -1.44174 0
M  V30 2735 C 271.717 1.42847 -1.50364 0
M  V30 2736 C 272.142 1.87665 -0.127867 0
M  V30 2737 O 271.5 1.58408 0.88185 0
M  V30 2738 C 271.548 2.62854 -2.4686 0
M  V30 2739 O 270.652 3.62501 -1.9664 0
M  V30 2740 H 269.993 0.427642 -0.507955 0
M  V30 2741 H 272.523 0.777422 -1.89255 0
M  V30 2742 H 272.533 3.10465 -2.64718 0
M  V30 2743 H 271.208 2.29578 -3.46795 0
M  V30 2744 H 269.785 3.21735 -1.88523 0
M  V30 2745 N 271.97 1.30982 0.876444 0
M  V30 2746 C 272.9 1.20668 1.99903 0
M  V30 2747 C 273.881 0.095354 1.69833 0
M  V30 2748 O 275.066 0.27885 1.92188 0
M  V30 2749 C 272.196 0.90655 3.3526 0
M  V30 2750 C 271.15 1.97675 3.79617 0
M  V30 2751 C 270.476 1.52943 5.1236 0
M  V30 2752 C 271.776 3.389 3.97422 0
M  V30 2753 H 273.47 2.14586 2.0879 0
M  V30 2754 H 271.016 1.03308 1.00317 0
M  V30 2755 H 272.969 0.821025 4.13324 0
M  V30 2756 H 271.693 -0.0682969 3.26529 0
M  V30 2757 H 270.352 2.05205 3.03787 0
M  V30 2758 H 270 0.54262 5.00065 0
M  V30 2759 H 269.7 2.24532 5.43009 0
M  V30 2760 H 271.224 1.45786 5.92941 0
M  V30 2761 H 272.638 3.34081 4.659 0
M  V30 2762 H 271.035 4.0865 4.3946 0
M  V30 2763 H 272.105 3.80163 3.01006 0
M  V30 2764 N 273.449 -1.08991 1.13837 0
M  V30 2765 C 274.697 -1.80899 0.901098 0
M  V30 2766 C 275.018 -1.86356 -0.574134 0
M  V30 2767 O 274.288 -1.35235 -1.41733 0
M  V30 2768 H 272.868 -0.669966 0.330386 0
M  V30 2769 H 275.53 -1.318 1.43578 0
M  V30 2770 H 274.626 -2.83929 1.29578 0
M  V30 2771 N 274.927 -0.932562 -1.27047 0
M  V30 2772 C 276.173 -0.576412 -1.94436 0
M  V30 2773 C 276.506 0.880891 -1.73072 0
M  V30 2774 O 275.781 1.62905 -1.06264 0
M  V30 2775 C 276.064 -0.909031 -3.48437 0
M  V30 2776 C 275.917 -2.42044 -3.79123 0
M  V30 2777 C 277.236 -0.418341 -4.38107 0
M  V30 2778 H 274.355 -0.210888 -0.706184 0
M  V30 2779 H 276.997 -1.16522 -1.50075 0
M  V30 2780 H 275.147 -0.407947 -3.86352 0
M  V30 2781 H 276.819 -2.99359 -3.50973 0
M  V30 2782 H 275.062 -2.86758 -3.25503 0
M  V30 2783 H 275.733 -2.6037 -4.86736 0
M  V30 2784 H 278.209 -0.847856 -4.0737 0
M  V30 2785 H 277.085 -0.679981 -5.44672 0
M  V30 2786 H 277.346 0.681642 -4.36814 0
M  V30 2787 N 276.405 1.4127 -0.698611 0
M  V30 2788 C 277.63 2.06024 -0.238512 0
M  V30 2789 C 278.055 1.5224 1.10475 0
M  V30 2790 O 277.413 0.650623 1.69223 0
M  V30 2791 C 277.461 3.59988 -0.209952 0
M  V30 2792 O 276.565 4.04282 0.814235 0
M  V30 2793 H 275.906 0.653829 -0.115775 0
M  V30 2794 H 278.436 1.8098 -0.954326 0
M  V30 2795 H 278.446 4.07979 -0.0418436 0
M  V30 2796 H 277.121 3.98503 -1.1903 0
M  V30 2797 H 275.698 3.6779 0.615234 0
M  V30 2798 N 277.883 0.443576 1.51229 0
M  V30 2799 C 279.113 -0.119117 2.06256 0
M  V30 2800 C 279.521 -1.36471 1.31043 0
M  V30 2801 O 278.864 -1.80034 0.365151 0
M  V30 2802 C 278.926 -0.500546 3.55998 0
M  V30 2803 C 278.59 0.639125 4.52509 0
M  V30 2804 C 279.587 1.51311 4.97394 0
M  V30 2805 C 277.272 0.821632 4.95535 0
M  V30 2806 C 279.266 2.55425 5.83984 0
M  V30 2807 C 276.953 1.86603 5.81913 0
M  V30 2808 C 277.951 2.73072 6.26036 0
M  V30 2809 O 277.639 3.75718 7.10698 0
M  V30 2810 H 277.371 -0.00857665 0.675946 0
M  V30 2811 H 279.925 0.623288 1.95715 0
M  V30 2812 H 278.155 -1.29575 3.64345 0
M  V30 2813 H 279.844 -0.995116 3.93513 0
M  V30 2814 H 280.61 1.38367 4.64844 0
M  V30 2815 H 276.489 0.158149 4.60729 0
M  V30 2816 H 280.033 3.22949 6.18344 0
M  V30 2817 H 275.93 1.99564 6.13876 0
M  V30 2818 H 276.698 3.72374 7.2889 0
M  V30 2819 N 279.361 -1.56624 0.175154 0
M  V30 2820 C 280.777 -1.58571 -0.180966 0
M  V30 2821 C 280.977 -1.19065 -1.6256 0
M  V30 2822 O 280.033 -0.904044 -2.35761 0
M  V30 2823 C 281.346 -3.00522 0.103326 0
M  V30 2824 C 282.894 -3.12972 0.0418426 0
M  V30 2825 C 283.369 -4.57022 0.299175 0
M  V30 2826 N 284.86 -4.62541 0.247086 0
M  V30 2827 C 285.595 -5.71857 0.420318 0
M  V30 2828 N 285.091 -6.89717 0.652816 0
M  V30 2829 N 286.884 -5.60972 0.355957 0
M  V30 2830 H 279.035 -1.80589 1.11809 0
M  V30 2831 H 281.298 -0.837178 0.444788 0
M  V30 2832 H 281.004 -3.33916 1.10422 0
M  V30 2833 H 280.878 -3.72344 -0.603299 0
M  V30 2834 H 283.265 -2.79403 -0.949636 0
M  V30 2835 H 283.346 -2.43578 0.781238 0
M  V30 2836 H 282.99 -4.913 1.28788 0
M  V30 2837 H 282.92 -5.24579 -0.460876 0
M  V30 2838 H 285.411 -3.77829 0.0731895 0
M  V30 2839 H 285.724 -7.68911 0.774347 0
M  V30 2840 H 284.069 -6.91572 0.689476 0
M  V30 2841 H 287.26 -4.67773 0.174882 0
M  V30 2842 H 287.433 -6.46111 0.494388 0
M  V30 2843 N 280.839 0.0985539 -1.57292 0
M  V30 2844 C 282.086 0.802678 -1.85912 0
M  V30 2845 C 282.414 1.78901 -0.763186 0
M  V30 2846 O 281.669 1.94178 0.243559 0
M  V30 2847 C 281.968 1.56927 -3.21105 0
M  V30 2848 C 281.634 0.725376 -4.45027 0
M  V30 2849 C 280.296 0.492726 -4.78671 0
M  V30 2850 C 282.648 0.138493 -5.21016 0
M  V30 2851 C 279.976 -0.336727 -5.85733 0
M  V30 2852 C 282.328 -0.678264 -6.28953 0
M  V30 2853 C 280.992 -0.921039 -6.61115 0
M  V30 2854 H 280.262 0.293721 -0.680301 0
M  V30 2855 H 282.909 0.0642841 -1.91392 0
M  V30 2856 H 281.214 2.37914 -3.11294 0
M  V30 2857 H 282.911 2.11841 -3.40477 0
M  V30 2858 H 279.501 0.916815 -4.18679 0
M  V30 2859 H 283.685 0.305404 -4.95359 0
M  V30 2860 H 278.941 -0.533836 -6.09065 0
M  V30 2861 H 283.115 -1.1399 -6.87007 0
M  V30 2862 H 280.742 -1.56556 -7.43905 0
M  V30 2863 N 282.317 1.53212 0.369288 0
M  V30 2864 C 283.565 1.68881 1.11012 0
M  V30 2865 C 283.886 0.441285 1.89941 0
M  V30 2866 O 283.156 -0.544623 1.88177 0
M  V30 2867 H 281.736 0.622569 0.412816 0
M  V30 2868 H 284.398 1.90391 0.416802 0
M  V30 2869 H 283.494 2.54822 1.80201 0
M  V30 2870 N 283.795 -0.628877 1.44509 0
M  V30 2871 C 284.727 -1.754 1.47538 0
M  V30 2872 C 285.74 -1.58575 0.368506 0
M  V30 2873 O 286.929 -1.66847 0.634376 0
M  V30 2874 C 284.029 -3.1315 1.29577 0
M  V30 2875 C 283.202 -3.56413 2.53551 0
M  V30 2876 C 282.261 -4.7305 2.30457 0
M  V30 2877 O 281.287 -4.81247 3.03957 0
M  V30 2878 N 282.489 -5.64903 1.3366 0
M  V30 2879 H 285.254 -1.73272 2.44534 0
M  V30 2880 H 282.815 -0.813512 1.39977 0
M  V30 2881 H 284.807 -3.88902 1.11971 0
M  V30 2882 H 283.377 -3.09908 0.409371 0
M  V30 2883 H 282.597 -2.70847 2.86419 0
M  V30 2884 H 283.885 -3.82071 3.36005 0
M  V30 2885 H 283.283 -5.60975 0.729604 0
M  V30 2886 H 281.84 -6.40275 1.22032 0
M  V30 2887 N 285.273 -1.31445 -0.869486 0
M  V30 2888 C 286.521 -1.20918 -1.61936 0
M  V30 2889 C 286.842 0.232683 -1.93607 0
M  V30 2890 O 286.112 1.15352 -1.58338 0
M  V30 2891 H 284.692 -0.44454 -0.600328 0
M  V30 2892 H 287.354 -1.64776 -1.0409 0
M  V30 2893 H 286.45 -1.78124 -2.56278 0
M  V30 2894 N 286.751 1.08385 -1.14413 0
M  V30 2895 C 287.661 2.18856 -0.844951 0
M  V30 2896 C 288.677 1.73121 0.174668 0
M  V30 2897 O 289.853 2.014 0.00312857 0
M  V30 2898 C 286.918 3.45155 -0.32696 0
M  V30 2899 C 285.979 4.05513 -1.40916 0
M  V30 2900 C 285.212 5.25784 -0.915793 0
M  V30 2901 O 285.435 5.69884 0.242651 0
M  V30 2902 O 284.369 5.77545 -1.69487 0
M  V30 2903 H 288.195 2.46919 -1.76818 0
M  V30 2904 H 285.78 1.17524 -0.922411 0
M  V30 2905 H 287.662 4.21377 -0.0440211 0
M  V30 2906 H 286.337 3.18668 0.568539 0
M  V30 2907 H 285.244 3.30879 -1.74556 0
M  V30 2908 H 286.577 4.3625 -2.27919 0
M  V30 2909 N 288.23 0.939286 1.26551 0
M  V30 2910 C 289.193 0.451987 2.24699 0
M  V30 2911 C 290.193 -0.435869 1.5478 0
M  V30 2912 O 291.383 -0.235314 1.72603 0
M  V30 2913 C 288.515 -0.348801 3.39111 0
M  V30 2914 H 289.708 1.3193 2.69322 0
M  V30 2915 H 287.261 0.721072 1.38673 0
M  V30 2916 H 287.996 -1.23444 2.99887 0
M  V30 2917 H 287.781 0.287945 3.91041 0
M  V30 2918 H 289.271 -0.679726 4.12031 0
M  V30 2919 N 289.708 -1.40897 0.706093 0
M  V30 2920 C 290.671 -2.29131 0.0562841 0
M  V30 2921 C 291.671 -1.44901 -0.697166 0
M  V30 2922 O 292.861 -1.65926 -0.530484 0
M  V30 2923 C 289.993 -3.27957 -0.93043 0
M  V30 2924 H 291.186 -2.88091 0.833284 0
M  V30 2925 H 288.739 -1.4906 0.470192 0
M  V30 2926 H 289.474 -2.73997 -1.73482 0
M  V30 2927 H 289.259 -3.90124 -0.393166 0
M  V30 2928 H 290.749 -3.94049 -1.38256 0
M  V30 2929 N 291.186 -0.45159 -1.50991 0
M  V30 2930 C 292.597 0.00818571 -1.86698 0
M  V30 2931 C 292.948 1.40661 -1.3678 0
M  V30 2932 O 292.073 2.0391 -0.724546 0
M  V30 2933 C 292.668 0.0216303 -3.38793 0
M  V30 2934 C 291.227 0.425865 -3.73983 0
M  V30 2935 C 290.374 -0.372163 -2.74791 0
M  V30 2936 H 293.325 -0.666785 -1.44013 0
M  V30 2937 H 293.346 0.828078 -3.7138 0
M  V30 2938 H 292.858 -0.996288 -3.75094 0
M  V30 2939 H 290.959 1.44886 -3.43277 0
M  V30 2940 H 291.072 0.140761 -4.78893 0
M  V30 2941 H 289.436 0.171498 -2.54122 0
M  V30 2942 H 290.219 -1.38922 -3.13935 0
M  V30 2943 N 292.664 1.56529 -0.183458 0
M  V30 2944 C 293.91 1.97537 0.459036 0
M  V30 2945 C 294.243 1.06989 1.62071 0
M  V30 2946 O 293.518 0.11948 1.94133 0
M  V30 2947 C 293.801 3.47874 0.930368 0
M  V30 2948 C 293.654 4.492 -0.232317 0
M  V30 2949 C 294.973 4.01612 1.79989 0
M  V30 2950 H 292.092 0.718204 0.165383 0
M  V30 2951 H 294.734 1.88042 -0.272038 0
M  V30 2952 H 292.884 3.56095 1.55333 0
M  V30 2953 H 294.556 4.53027 -0.86972 0
M  V30 2954 H 292.799 4.24657 -0.885928 0
M  V30 2955 H 293.47 5.51823 0.139796 0
M  V30 2956 H 295.946 3.96097 1.27461 0
M  V30 2957 H 294.822 5.07195 2.09867 0
M  V30 2958 H 295.083 3.46163 2.74998 0
M  V30 2959 N 294.142 -0.090211 1.57342 0
M  V30 2960 C 295.388 -0.793982 1.86611 0
M  V30 2961 C 295.721 -1.78142 0.773252 0
M  V30 2962 O 294.996 -1.93271 -0.218304 0
M  V30 2963 C 295.279 -1.51839 3.26523 0
M  V30 2964 C 295.132 -0.548609 4.46442 0
M  V30 2965 C 296.451 -2.46779 3.64401 0
M  V30 2966 H 293.57 -0.287186 0.678744 0
M  V30 2967 H 296.212 -0.0575076 1.89913 0
M  V30 2968 H 294.362 -2.14617 3.23839 0
M  V30 2969 H 296.034 0.0725513 4.61243 0
M  V30 2970 H 294.277 0.137614 4.33582 0
M  V30 2971 H 294.948 -1.09271 5.41076 0
M  V30 2972 H 297.424 -1.94089 3.68061 0
M  V30 2973 H 296.3 -2.94479 4.63221 0
M  V30 2974 H 296.561 -3.30758 2.93346 0
M  V30 2975 N 295.62 -1.53406 -0.361157 0
M  V30 2976 C 296.583 -1.79479 -1.42548 0
M  V30 2977 C 297.583 -0.665327 -1.4639 0
M  V30 2978 O 298.773 -0.933549 -1.47073 0
M  V30 2979 C 295.905 -1.92087 -2.8163 0
M  V30 2980 H 297.098 -2.74538 -1.20701 0
M  V30 2981 H 294.651 -1.4455 -0.594546 0
M  V30 2982 H 295.386 -0.991099 -3.08784 0
M  V30 2983 H 295.171 -2.74241 -2.80239 0
M  V30 2984 H 296.661 -2.13836 -3.58697 0
M  V30 2985 N 297.098 0.621204 -1.44841 0
M  V30 2986 C 298.509 1.20298 -1.42777 0
M  V30 2987 C 298.86 1.95639 -0.148259 0
M  V30 2988 O 297.985 2.02955 0.750892 0
M  V30 2989 C 298.58 2.1882 -2.58657 0
M  V30 2990 C 297.139 2.72403 -2.59756 0
M  V30 2991 C 296.286 1.4757 -2.34773 0
M  V30 2992 H 299.237 0.411297 -1.53278 0
M  V30 2993 H 299.258 3.01607 -2.31977 0
M  V30 2994 H 298.77 1.63957 -3.51766 0
M  V30 2995 H 296.871 3.31242 -1.70615 0
M  V30 2996 H 296.984 3.17765 -3.58556 0
M  V30 2997 H 295.348 1.76051 -1.8406 0
M  V30 2998 H 296.131 0.945954 -3.3001 0
M  V30 2999 N 298.576 1.31904 0.862503 0
M  V30 3000 C 299.539 1.20131 1.95195 0
M  V30 3001 C 300.539 0.126409 1.60302 0
M  V30 3002 O 301.729 0.376234 1.70089 0
M  V30 3003 C 298.861 0.845691 3.30244 0
M  V30 3004 H 300.054 2.16943 2.07064 0
M  V30 3005 H 297.607 1.15622 1.05172 0
M  V30 3006 H 298.342 -0.120957 3.24074 0
M  V30 3007 H 298.127 1.62276 3.56944 0
M  V30 3008 H 299.617 0.787418 4.10109 0
M  V30 3009 N 300.054 -1.07777 1.14986 0
M  V30 3010 C 301.465 -1.61766 0.932127 0
M  V30 3011 C 301.816 -1.88974 -0.527581 0
M  V30 3012 O 300.941 -1.65198 -1.39781 0
M  V30 3013 C 301.536 -2.93891 1.68563 0
M  V30 3014 C 300.095 -3.44639 1.5133 0
M  V30 3015 C 299.242 -2.18767 1.704 0
M  V30 3016 H 302.193 -0.909201 1.30074 0
M  V30 3017 H 302.214 -3.62623 1.15259 0
M  V30 3018 H 301.726 -2.74057 2.74799 0
M  V30 3019 H 299.827 -3.69564 0.474702 0
M  V30 3020 H 299.94 -4.20966 2.28746 0
M  V30 3021 H 298.304 -2.28253 1.13016 0
M  V30 3022 H 299.087 -2.01433 2.77992 0
M  V30 3023 N 301.532 -0.945985 -1.26051 0
M  V30 3024 C 302.495 -0.463897 -2.24456 0
M  V30 3025 C 303.495 0.427655 -1.55009 0
M  V30 3026 O 304.685 0.226157 -1.72726 0
M  V30 3027 C 301.817 0.330812 -3.39291 0
M  V30 3028 H 303.01 -1.33357 -2.68619 0
M  V30 3029 H 300.563 -0.728416 -1.38289 0
M  V30 3030 H 301.298 1.21852 -3.00537 0
M  V30 3031 H 301.083 -0.308679 -3.90883 0
M  V30 3032 H 302.573 0.657865 -4.12386 0
M  V30 3033 N 303.011 1.40521 -0.713556 0
M  V30 3034 C 304.422 1.83853 -0.324807 0
M  V30 3035 C 304.773 1.59667 1.14021 0
M  V30 3036 O 303.898 1.07649 1.87725 0
M  V30 3037 C 304.493 3.33751 -0.582746 0
M  V30 3038 C 303.052 3.75584 -0.247727 0
M  V30 3039 C 302.199 2.63753 -0.856121 0
M  V30 3040 H 305.15 1.29817 -0.91286 0
M  V30 3041 H 305.171 3.80194 0.152682 0
M  V30 3042 H 304.683 3.51322 -1.64908 0
M  V30 3043 H 302.784 3.63608 0.813624 0
M  V30 3044 H 302.897 4.7373 -0.715307 0
M  V30 3045 H 301.261 2.53108 -0.28432 0
M  V30 3046 H 302.044 2.84137 -1.92668 0
M  V30 3047 N 304.489 0.459591 1.5075 0
M  V30 3048 C 305.452 -0.329093 2.26825 0
M  V30 3049 C 306.452 -0.930481 1.31144 0
M  V30 3050 O 307.642 -0.801453 1.54669 0
M  V30 3051 C 304.774 -1.46768 3.07688 0
M  V30 3052 H 305.967 0.337924 2.9799 0
M  V30 3053 H 303.52 0.213336 1.54837 0
M  V30 3054 H 304.255 -2.17009 2.40993 0
M  V30 3055 H 304.04 -1.04238 3.77991 0
M  V30 3056 H 305.53 -2.02433 3.65254 0
M  V30 3057 N 305.967 -1.56429 0.191757 0
M  V30 3058 C 307.378 -1.83912 -0.321428 0
M  V30 3059 C 307.729 -1.11231 -1.61623 0
M  V30 3060 O 306.854 -0.37202 -2.13178 0
M  V30 3061 C 307.449 -3.33624 -0.589961 0
M  V30 3062 C 306.008 -3.6153 -1.04753 0
M  V30 3063 C 305.155 -2.7714 -0.0943327 0
M  V30 3064 H 308.106 -1.53161 0.415612 0
M  V30 3065 H 308.127 -3.52213 -1.43966 0
M  V30 3066 H 307.639 -3.86495 0.352588 0
M  V30 3067 H 305.74 -3.14089 -2.00447 0
M  V30 3068 H 305.853 -4.69737 -0.942549 0
M  V30 3069 H 304.217 -2.47638 -0.595589 0
M  V30 3070 H 305 -3.32799 0.842601 0
M  V30 3071 N 307.445 0.0818655 -1.57387 0
M  V30 3072 C 308.355 1.11642 -2.06333 0
M  V30 3073 C 309.371 1.43033 -0.99083 0
M  V30 3074 O 310.547 1.53411 -1.30488 0
M  V30 3075 C 307.612 2.41342 -2.48907 0
M  V30 3076 C 306.673 2.17014 -3.7041 0
M  V30 3077 C 305.906 3.4053 -4.10944 0
M  V30 3078 O 306.129 4.4927 -3.51444 0
M  V30 3079 O 305.063 3.29336 -5.03807 0
M  V30 3080 H 308.889 0.730657 -2.9478 0
M  V30 3081 H 306.474 0.295301 -1.46452 0
M  V30 3082 H 308.356 3.17691 -2.76858 0
M  V30 3083 H 307.031 2.79319 -1.63593 0
M  V30 3084 H 305.938 1.38403 -3.47556 0
M  V30 3085 H 307.271 1.83923 -4.56545 0
M  V30 3086 N 308.923 1.53595 0.353017 0
M  V30 3087 C 310.169 1.70638 1.09593 0
M  V30 3088 C 310.502 0.463286 1.88593 0
M  V30 3089 O 309.777 -0.539597 1.86865 0
M  V30 3090 C 310.06 2.96406 2.04489 0
M  V30 3091 C 309.913 4.30901 1.29014 0
M  V30 3092 C 311.232 3.17812 3.0444 0
M  V30 3093 H 308.351 0.620913 0.397034 0
M  V30 3094 H 310.993 1.86254 0.375446 0
M  V30 3095 H 309.143 2.83223 2.65927 0
M  V30 3096 H 310.815 4.55917 0.702638 0
M  V30 3097 H 309.058 4.29741 0.592071 0
M  V30 3098 H 309.729 5.1506 1.98537 0
M  V30 3099 H 312.205 3.30263 2.53112 0
M  V30 3100 H 311.081 4.07223 3.6805 0
M  V30 3101 H 311.342 2.33669 3.75301 0
M  V30 3102 N 310.401 -0.613514 1.45168 0
M  V30 3103 C 311.333 -1.73825 1.4939 0
M  V30 3104 C 312.346 -1.58175 0.385304 0
M  V30 3105 O 313.535 -1.66165 0.652036 0
M  V30 3106 C 310.635 -3.11758 1.32891 0
M  V30 3107 C 309.808 -3.53704 2.57317 0
M  V30 3108 C 308.867 -4.70579 2.35462 0
M  V30 3109 O 307.893 -4.77996 3.09044 0
M  V30 3110 N 309.095 -5.63454 1.39644 0
M  V30 3111 H 311.86 -1.70669 2.46358 0
M  V30 3112 H 309.421 -0.79862 1.40832 0
M  V30 3113 H 311.413 -3.87692 1.1609 0
M  V30 3114 H 309.983 -3.09456 0.442218 0
M  V30 3115 H 309.203 -2.67794 2.89275 0
M  V30 3116 H 310.491 -3.78486 3.40038 0
M  V30 3117 H 309.889 -5.6017 0.789062 0
M  V30 3118 H 308.446 -6.38944 1.28816 0
M  V30 3119 N 311.879 -1.3236 -0.855495 0
M  V30 3120 C 313.107 -1.2587 -1.64208 0
M  V30 3121 C 313.522 0.173457 -1.88002 0
M  V30 3122 O 312.879 1.11027 -1.44842 0
M  V30 3123 C 312.93 -2.01424 -3.00184 0
M  V30 3124 O 312.651 -3.39051 -2.77445 0
M  V30 3125 C 314.152 -2.01948 -3.94629 0
M  V30 3126 H 311.372 -0.434318 -0.511477 0
M  V30 3127 H 313.916 -1.74469 -1.0668 0
M  V30 3128 H 312.071 -1.56549 -3.5436 0
M  V30 3129 H 312.485 -3.77711 -3.63916 0
M  V30 3130 H 313.959 -2.59297 -4.87308 0
M  V30 3131 H 314.436 -1.00554 -4.27534 0
M  V30 3132 H 315.042 -2.46767 -3.4639 0
M  V30 3133 N 313.357 1.07166 -1.15556 0
M  V30 3134 C 314.304 2.14417 -0.854055 0
M  V30 3135 C 315.274 1.64965 0.193806 0
M  V30 3136 O 316.459 1.90703 0.0609443 0
M  V30 3137 C 313.599 3.43304 -0.351574 0
M  V30 3138 C 312.712 4.06537 -1.46123 0
M  V30 3139 C 311.847 5.23266 -0.914677 0
M  V30 3140 C 310.886 5.78464 -2.00114 0
M  V30 3141 N 310.023 6.86521 -1.47083 0
M  V30 3142 H 314.863 2.39548 -1.77259 0
M  V30 3143 H 312.4 1.17543 -0.884425 0
M  V30 3144 H 314.358 4.17179 -0.0419409 0
M  V30 3145 H 312.988 3.18419 0.530037 0
M  V30 3146 H 312.04 3.30297 -1.88701 0
M  V30 3147 H 313.352 4.43567 -2.28144 0
M  V30 3148 H 312.506 6.04131 -0.557698 0
M  V30 3149 H 311.245 4.87658 -0.0636583 0
M  V30 3150 H 310.25 4.96243 -2.36692 0
M  V30 3151 H 311.475 6.16126 -2.85597 0
M  V30 3152 H 309.421 6.52849 -0.642198 0
M  V30 3153 H 309.338 7.22446 -2.22729 0
M  V30 3154 H 310.606 7.71087 -1.14215 0
M  V30 3155 N 314.835 0.952656 1.25548 0
M  V30 3156 C 315.785 0.442033 2.23674 0
M  V30 3157 C 316.769 -0.467632 1.53955 0
M  V30 3158 O 317.961 -0.301006 1.74422 0
M  V30 3159 C 315.09 -0.280816 3.4215 0
M  V30 3160 C 314.176 0.646803 4.19139 0
M  V30 3161 N 314.567 1.77759 4.73535 0
M  V30 3162 C 312.865 0.454617 4.43677 0
M  V30 3163 C 313.566 2.35658 5.31827 0
M  V30 3164 N 312.542 1.64333 5.18166 0
M  V30 3165 H 316.344 1.30505 2.63336 0
M  V30 3166 H 313.858 0.809904 1.40763 0
M  V30 3167 H 315.855 -0.663747 4.11582 0
M  V30 3168 H 314.515 -1.14046 3.04012 0
M  V30 3169 H 315.526 2.15949 4.7073 0
M  V30 3170 H 312.203 -0.362312 4.15925 0
M  V30 3171 H 313.593 3.30998 5.84713 0
M  V30 3172 N 316.313 -1.40141 0.720998 0
M  V30 3173 C 317.56 -2.00787 0.262842 0
M  V30 3174 C 317.888 -1.5718 -1.14563 0
M  V30 3175 O 317.143 -0.785391 -1.79249 0
M  V30 3176 C 317.442 -3.56165 0.296892 0
M  V30 3177 C 317.108 -4.19373 1.65641 0
M  V30 3178 C 315.77 -4.36352 2.02855 0
M  V30 3179 C 318.122 -4.54578 2.54968 0
M  V30 3180 C 315.45 -4.8582 3.28931 0
M  V30 3181 C 317.802 -5.05447 3.80402 0
M  V30 3182 C 316.466 -5.20635 4.17726 0
M  V30 3183 H 315.736 -0.734731 0.0961807 0
M  V30 3184 H 318.383 -1.67673 0.925093 0
M  V30 3185 H 316.688 -3.8922 -0.448932 0
M  V30 3186 H 318.385 -4.00929 -0.0755208 0
M  V30 3187 H 314.975 -4.06549 1.35704 0
M  V30 3188 H 319.159 -4.41091 2.27491 0
M  V30 3189 H 314.415 -4.95764 3.57811 0
M  V30 3190 H 318.589 -5.31663 4.49786 0
M  V30 3191 H 316.216 -5.58728 5.15487 0
M  V30 3192 N 317.792 -0.46758 -1.50504 0
M  V30 3193 C 319.02 0.0864133 -2.06719 0
M  V30 3194 C 319.435 1.33819 -1.33184 0
M  V30 3195 O 318.792 1.78061 -0.400083 0
M  V30 3196 C 318.843 0.378079 -3.59517 0
M  V30 3197 O 318.564 -0.824044 -4.3028 0
M  V30 3198 C 320.065 0.979426 -4.32345 0
M  V30 3199 H 317.285 -0.00551697 -0.670977 0
M  V30 3200 H 319.829 -0.655354 -1.93715 0
M  V30 3201 H 317.984 1.06977 -3.72337 0
M  V30 3202 H 318.398 -0.566518 -5.21432 0
M  V30 3203 H 319.872 1.1333 -5.40241 0
M  V30 3204 H 320.349 1.9686 -3.9261 0
M  V30 3205 H 320.955 0.326216 -4.24047 0
M  V30 3206 N 319.27 1.56325 -0.20005 0
M  V30 3207 C 320.2 2.22318 0.713916 0
M  V30 3208 C 321.181 1.18788 1.21752 0
M  V30 3209 O 322.366 1.47309 1.26545 0
M  V30 3210 C 319.496 2.88639 1.93144 0
M  V30 3211 C 318.45 3.98457 1.56255 0
M  V30 3212 C 317.776 4.51967 2.85709 0
M  V30 3213 C 319.076 5.16612 0.768747 0
M  V30 3214 H 320.77 2.98952 0.163755 0
M  V30 3215 H 318.316 1.43792 0.0773219 0
M  V30 3216 H 320.269 3.33491 2.57608 0
M  V30 3217 H 318.993 2.09419 2.50621 0
M  V30 3218 H 317.652 3.54305 0.941471 0
M  V30 3219 H 317.3 3.69503 3.41287 0
M  V30 3220 H 317 5.26071 2.6177 0
M  V30 3221 H 318.524 4.99523 3.51154 0
M  V30 3222 H 319.938 5.57977 1.3166 0
M  V30 3223 H 318.335 5.96812 0.627286 0
M  V30 3224 H 319.405 4.84358 -0.229168 0
M  V30 3225 N 320.748 -0.0735177 1.57428 0
M  V30 3226 C 321.695 -1.08756 2.0357 0
M  V30 3227 C 322.665 -1.38559 0.916 0
M  V30 3228 O 323.85 -1.49656 1.18354 0
M  V30 3229 C 320.99 -2.39657 2.48311 0
M  V30 3230 C 320.103 -2.16399 3.73892 0
M  V30 3231 C 319.238 -3.40852 4.07423 0
M  V30 3232 C 318.277 -3.1295 5.2605 0
M  V30 3233 N 317.414 -4.29729 5.55228 0
M  V30 3234 H 322.254 -0.687104 2.8997 0
M  V30 3235 H 319.791 -0.327709 1.43403 0
M  V30 3236 H 321.749 -3.16081 2.72303 0
M  V30 3237 H 320.379 -2.77508 1.64891 0
M  V30 3238 H 319.431 -1.30676 3.57251 0
M  V30 3239 H 320.743 -1.91788 4.60455 0
M  V30 3240 H 319.897 -4.25671 4.32306 0
M  V30 3241 H 318.636 -3.68537 3.19425 0
M  V30 3242 H 317.641 -2.26526 5.00965 0
M  V30 3243 H 318.866 -2.86589 6.15665 0
M  V30 3244 H 316.812 -4.57448 4.70188 0
M  V30 3245 H 316.729 -4.08385 6.36206 0
M  V30 3246 H 317.997 -5.1555 5.84661 0
M  V30 3247 N 322.226 -1.5378 -0.344866 0
M  V30 3248 C 323.451 -1.75211 -1.10977 0
M  V30 3249 C 323.876 -0.48936 -1.81623 0
M  V30 3250 O 323.234 0.557925 -1.72502 0
M  V30 3251 C 323.282 -2.93147 -2.09993 0
M  V30 3252 O 322.386 -2.63203 -3.17487 0
M  V30 3253 H 321.727 -0.581241 -0.321021 0
M  V30 3254 H 324.257 -2.00738 -0.395661 0
M  V30 3255 H 324.267 -3.19898 -2.53237 0
M  V30 3256 H 322.942 -3.84731 -1.5797 0
M  V30 3257 H 321.519 -2.47336 -2.79069 0
M  V30 3258 N 323.704 0.605807 -1.45491 0
M  V30 3259 C 324.981 1.36522 -1.40075 0
M  V30 3260 C 325.361 2.10976 -0.0722744 0
M  V30 3261 O 324.709 2.08007 0.945808 0
M  V30 3262 C 324.919 2.31056 -2.61561 0
M  V30 3263 C 326.267 2.93608 -3.06724 0
M  V30 3264 O 327.291 2.41376 -2.61946 0
M  V30 3265 O 326.15 3.88421 -3.84437 0
M  V30 3266 H 323.244 0.612248 -0.555951 0
M  V30 3267 H 325.79 0.628747 -1.57623 0
M  V30 3268 H 324.562 1.75311 -3.49831 0
M  V30 3269 H 324.185 3.12081 -2.46356 0
M  V30 3270 N 325.182 1.32811 0.848464 0
M  V30 3271 C 326.428 1.23907 1.60546 0
M  V30 3272 C 326.761 -0.197161 1.93197 0
M  V30 3273 O 326.036 -1.13596 1.5788 0
M  V30 3274 C 326.319 2.10489 2.92175 0
M  V30 3275 C 326.172 3.62522 2.66266 0
M  V30 3276 C 327.491 1.97075 3.93509 0
M  V30 3277 H 324.61 0.451459 0.58254 0
M  V30 3278 H 327.252 1.62818 0.979296 0
M  V30 3279 H 325.402 1.77434 3.45614 0
M  V30 3280 H 327.074 4.05821 2.19334 0
M  V30 3281 H 325.317 3.84879 2.00126 0
M  V30 3282 H 325.988 4.18437 3.6002 0
M  V30 3283 H 328.464 2.26045 3.49346 0
M  V30 3284 H 327.34 2.59923 4.83457 0
M  V30 3285 H 327.601 0.940186 4.31987 0
M  V30 3286 N 326.66 -1.06551 1.16123 0
M  V30 3287 C 327.59 -2.15935 0.88851 0
M  V30 3288 C 328.571 -1.69306 -0.164135 0
M  V30 3289 O 329.756 -1.94193 -0.0167857 0
M  V30 3290 C 326.886 -3.45149 0.385942 0
M  V30 3291 C 325.84 -4.05271 1.3762 0
M  V30 3292 C 325.166 -5.29664 0.732137 0
M  V30 3293 C 326.466 -4.44355 2.74493 0
M  V30 3294 H 328.16 -2.39006 1.80323 0
M  V30 3295 H 325.706 -1.14866 0.868435 0
M  V30 3296 H 327.659 -4.21004 0.182647 0
M  V30 3297 H 326.383 -3.21689 -0.564274 0
M  V30 3298 H 325.042 -3.3147 1.56599 0
M  V30 3299 H 324.69 -5.02499 -0.224483 0
M  V30 3300 H 324.39 -5.70848 1.39307 0
M  V30 3301 H 325.914 -6.08218 0.538802 0
M  V30 3302 H 327.328 -5.11303 2.59311 0
M  V30 3303 H 325.725 -4.96515 3.37035 0
M  V30 3304 H 326.795 -3.55339 3.29943 0
M  V30 3305 N 328.138 -0.959301 -1.25041 0
M  V30 3306 C 329.385 -0.616611 -1.92884 0
M  V30 3307 C 329.713 0.847036 -1.75087 0
M  V30 3308 O 328.968 1.62374 -1.09239 0
M  V30 3309 C 329.267 -0.927136 -3.45165 0
M  V30 3310 C 328.933 -2.37757 -3.83122 0
M  V30 3311 C 327.595 -2.77402 -3.93194 0
M  V30 3312 C 329.947 -3.31929 -4.01836 0
M  V30 3313 C 327.275 -4.10277 -4.19392 0
M  V30 3314 C 329.627 -4.64423 -4.29528 0
M  V30 3315 C 328.291 -5.03857 -4.37818 0
M  V30 3316 H 327.561 -0.225634 -0.705812 0
M  V30 3317 H 330.208 -1.20921 -1.48493 0
M  V30 3318 H 328.513 -0.252195 -3.90987 0
M  V30 3319 H 330.21 -0.6405 -3.95852 0
M  V30 3320 H 326.8 -2.06013 -3.75841 0
M  V30 3321 H 330.984 -3.02488 -3.93465 0
M  V30 3322 H 326.24 -4.40467 -4.24027 0
M  V30 3323 H 330.414 -5.37369 -4.42953 0
M  V30 3324 H 328.041 -6.06843 -4.57871 0
M  V30 3325 N 329.616 1.39756 -0.72842 0
M  V30 3326 C 330.564 2.32485 -0.0731849 0
M  V30 3327 C 331.558 1.52717 0.733063 0
M  V30 3328 O 332.764 1.68428 0.634988 0
M  V30 3329 H 329.139 0.751984 -0.00486469 0
M  V30 3330 H 331.11 2.85382 -0.871761 0
M  V30 3331 C 329.859 3.37773 0.824908 0
M  V30 3332 H 329.182 3.99227 0.213915 0
M  V30 3333 H 330.622 4.05121 1.25111 0
M  V30 3334 C 329.081 2.74287 1.95622 0
M  V30 3335 O 329.611 2.61618 3.04826 0
M  V30 3336 N 327.817 2.32475 1.74367 0
M  V30 3337 H 327.364 2.4298 0.855494 0
M  V30 3338 H 327.322 1.90337 2.50238 0
M  V30 3339 N 331.094 0.475555 1.50254 0
M  V30 3340 C 332.341 -0.0778919 2.0235 0
M  V30 3341 C 332.669 -1.39319 1.35722 0
M  V30 3342 O 331.924 -1.89888 0.473395 0
M  V30 3343 C 332.223 -0.305114 3.56095 0
M  V30 3344 C 331.889 0.92903 4.41225 0
M  V30 3345 C 330.551 1.26739 4.6421 0
M  V30 3346 C 332.903 1.75054 4.90923 0
M  V30 3347 C 330.231 2.42724 5.34137 0
M  V30 3348 C 332.583 2.9017 5.62125 0
M  V30 3349 C 331.247 3.24416 5.83362 0
M  V30 3350 H 330.517 -0.0285027 0.740452 0
M  V30 3351 H 333.164 0.630543 1.80821 0
M  V30 3352 H 331.469 -1.09584 3.76163 0
M  V30 3353 H 333.166 -0.747377 3.93974 0
M  V30 3354 H 329.756 0.655428 4.23559 0
M  V30 3355 H 333.94 1.50231 4.73016 0
M  V30 3356 H 329.196 2.69525 5.48786 0
M  V30 3357 H 333.37 3.54169 5.99614 0
M  V30 3358 H 330.997 4.14396 6.37323 0
M  V30 3359 N 332.573 -1.56217 0.208337 0
M  V30 3360 C 333.521 -2.21053 -0.723769 0
M  V30 3361 C 334.515 -1.18578 -1.20978 0
M  V30 3362 O 335.721 -1.36691 -1.17114 0
M  V30 3363 H 332.096 -0.708595 -0.251788 0
M  V30 3364 H 334.067 -2.98006 -0.153365 0
M  V30 3365 C 332.816 -2.89417 -1.927 0
M  V30 3366 H 332.139 -3.68019 -1.56212 0
M  V30 3367 H 333.579 -3.38201 -2.55727 0
M  V30 3368 C 332.038 -1.91166 -2.77411 0
M  V30 3369 O 332.568 -1.42026 -3.75754 0
M  V30 3370 N 330.774 -1.59105 -2.43175 0
M  V30 3371 H 330.321 -1.99259 -1.63259 0
M  V30 3372 H 330.279 -0.936255 -3.00136 0
M  V30 3373 N 334.051 0.0651679 -1.57465 0
M  V30 3374 C 334.998 1.07675 -2.04144 0
M  V30 3375 C 335.968 1.38071 -0.923335 0
M  V30 3376 O 337.153 1.49026 -1.19146 0
M  V30 3377 C 334.293 2.38337 -2.49579 0
M  V30 3378 C 333.406 2.14413 -3.75035 0
M  V30 3379 C 332.541 3.38686 -4.09225 0
M  V30 3380 C 331.58 3.10156 -5.27702 0
M  V30 3381 N 330.717 4.26778 -5.57499 0
M  V30 3382 H 335.557 0.671716 -2.90331 0
M  V30 3383 H 333.094 0.3201 -1.43575 0
M  V30 3384 H 335.052 3.14632 -2.73975 0
M  V30 3385 H 333.682 2.7663 -1.6636 0
M  V30 3386 H 332.734 1.2878 -3.57939 0
M  V30 3387 H 334.046 1.89344 -4.61466 0
M  V30 3388 H 333.2 4.23373 -4.34558 0
M  V30 3389 H 331.939 3.66837 -3.21374 0
M  V30 3390 H 330.944 2.23866 -5.02159 0
M  V30 3391 H 332.169 2.8332 -6.17176 0
M  V30 3392 H 330.115 4.54948 -4.72608 0
M  V30 3393 H 330.032 4.05005 -6.38362 0
M  V30 3394 H 331.3 5.12443 -5.87386 0
M  V30 3395 N 335.529 1.53961 0.336706 0
M  V30 3396 C 336.492 1.81724 1.39675 0
M  V30 3397 C 337.492 0.688532 1.45313 0
M  V30 3398 O 338.682 0.956829 1.45569 0
M  V30 3399 C 335.814 1.96543 2.78538 0
M  V30 3400 H 337.007 2.76424 1.16318 0
M  V30 3401 H 334.56 1.45478 0.571474 0
M  V30 3402 H 335.295 1.0401 3.07168 0
M  V30 3403 H 335.08 2.78665 2.75841 0
M  V30 3404 H 336.57 2.19516 3.5525 0
M  V30 3405 N 337.007 -0.598083 1.45811 0
M  V30 3406 C 338.235 -1.38322 1.53866 0
M  V30 3407 C 338.65 -1.87992 0.174479 0
M  V30 3408 O 338.007 -1.62756 -0.825627 0
M  V30 3409 C 338.058 -2.58125 2.53089 0
M  V30 3410 O 337.779 -2.10516 3.84206 0
M  V30 3411 C 339.28 -3.50869 2.70935 0
M  V30 3412 H 336.5 -0.423093 0.520801 0
M  V30 3413 H 339.044 -0.728527 1.91083 0
M  V30 3414 H 337.199 -3.19615 2.18917 0
M  V30 3415 H 337.613 -2.88425 4.38077 0
M  V30 3416 H 339.087 -4.31451 3.44317 0
M  V30 3417 H 339.564 -4.01822 1.77301 0
M  V30 3418 H 340.17 -2.95225 3.06141 0
M  V30 3419 N 338.485 -1.33259 -0.841409 0
M  V30 3420 C 339.415 -1.25926 -1.96634 0
M  V30 3421 C 340.396 -0.140349 -1.6952 0
M  V30 3422 O 341.581 -0.329707 -1.91381 0
M  V30 3423 C 338.711 -0.99512 -3.32738 0
M  V30 3424 C 337.665 -2.0767 -3.74242 0
M  V30 3425 C 336.991 -1.66474 -5.08125 0
M  V30 3426 C 338.291 -3.49318 -3.88297 0
M  V30 3427 H 339.985 -2.20046 -2.03027 0
M  V30 3428 H 337.531 -1.05931 -0.975425 0
M  V30 3429 H 339.484 -0.930323 -4.11002 0
M  V30 3430 H 338.208 -0.0183004 -3.26595 0
M  V30 3431 H 336.867 -2.13187 -2.98239 0
M  V30 3432 H 336.515 -0.675012 -4.9845 0
M  V30 3433 H 336.215 -2.3885 -5.36865 0
M  V30 3434 H 337.739 -1.61455 -5.88867 0
M  V30 3435 H 339.153 -3.46316 -4.56879 0
M  V30 3436 H 337.55 -4.20158 -4.28471 0
M  V30 3437 H 338.62 -3.8801 -2.9082 0
M  V30 3438 N 339.963 1.05934 -1.16686 0
M  V30 3439 C 340.91 2.13499 -0.876748 0
M  V30 3440 C 341.88 1.65162 0.176299 0
M  V30 3441 O 343.065 1.90757 0.0407143 0
M  V30 3442 C 340.205 3.42912 -0.387967 0
M  V30 3443 C 339.318 4.04964 -1.50426 0
M  V30 3444 C 338.453 5.22266 -0.970125 0
M  V30 3445 C 337.492 5.76309 -2.06238 0
M  V30 3446 N 336.629 6.84922 -1.54356 0
M  V30 3447 H 341.469 2.37654 -1.7979 0
M  V30 3448 H 339.006 1.16598 -0.896843 0
M  V30 3449 H 340.964 4.17111 -0.086186 0
M  V30 3450 H 339.594 3.18963 0.496235 0
M  V30 3451 H 338.646 3.28277 -1.92193 0
M  V30 3452 H 339.958 4.41122 -2.32836 0
M  V30 3453 H 339.112 6.03506 -0.621743 0
M  V30 3454 H 337.851 4.87564 -0.115377 0
M  V30 3455 H 336.856 4.93704 -2.41942 0
M  V30 3456 H 338.081 6.13062 -2.92115 0
M  V30 3457 H 336.027 6.52131 -0.711406 0
M  V30 3458 H 335.944 7.20043 -2.30379 0
M  V30 3459 H 337.212 7.69832 -1.22387 0
M  V30 3460 N 341.441 0.965919 1.2453 0
M  V30 3461 C 342.852 0.665929 1.7442 0
M  V30 3462 C 343.203 -0.818407 1.78316 0
M  V30 3463 O 342.328 -1.64037 1.41141 0
M  V30 3464 C 342.923 1.20211 3.16757 0
M  V30 3465 C 341.482 0.952059 3.6416 0
M  V30 3466 C 340.629 1.33848 2.42858 0
M  V30 3467 H 343.58 1.14144 1.10258 0
M  V30 3468 H 343.601 0.567544 3.76244 0
M  V30 3469 H 343.113 2.28244 3.13889 0
M  V30 3470 H 341.214 -0.112821 3.72429 0
M  V30 3471 H 341.327 1.59645 4.51719 0
M  V30 3472 H 339.691 0.756864 2.43195 0
M  V30 3473 H 340.474 2.42827 2.42673 0
M  V30 3474 N 342.919 -1.39368 0.735821 0
M  V30 3475 C 343.829 -2.34395 0.0979693 0
M  V30 3476 C 344.845 -1.58361 -0.720968 0
M  V30 3477 O 346.021 -1.90648 -0.649245 0
M  V30 3478 C 343.086 -3.37393 -0.797916 0
M  V30 3479 C 342.147 -4.29287 0.0333662 0
M  V30 3480 C 341.38 -5.27365 -0.819854 0
M  V30 3481 O 341.603 -5.31959 -2.05855 0
M  V30 3482 O 340.537 -6.01389 -0.248079 0
M  V30 3483 H 344.363 -2.90601 0.882315 0
M  V30 3484 H 341.948 -1.40909 0.4965 0
M  V30 3485 H 343.83 -4.00505 -1.31048 0
M  V30 3486 H 342.505 -2.83571 -1.56106 0
M  V30 3487 H 341.412 -3.69395 0.591475 0
M  V30 3488 H 342.745 -4.86317 0.758752 0
M  V30 3489 N 344.397 -0.483516 -1.5 0
M  V30 3490 C 345.645 0.067027 -2.01989 0
M  V30 3491 C 345.966 1.3909 -1.36671 0
M  V30 3492 O 345.236 1.88978 -0.516152 0
M  V30 3493 H 343.816 0.0277606 -0.746484 0
M  V30 3494 H 346.478 -0.636773 -1.84204 0
M  V30 3495 H 345.574 0.209484 -3.11396 0
M  V30 3496 N 345.875 1.56104 -0.216619 0
M  V30 3497 C 346.807 2.17339 0.72776 0
M  V30 3498 C 347.82 1.14109 1.16116 0
M  V30 3499 O 349.009 1.4111 1.09317 0
M  V30 3500 C 346.109 2.73818 1.99693 0
M  V30 3501 C 345.282 4.02168 1.71988 0
M  V30 3502 C 344.341 4.43259 2.83562 0
M  V30 3503 O 343.367 5.10257 2.52244 0
M  V30 3504 N 344.569 4.08535 4.12407 0
M  V30 3505 H 347.334 2.99005 0.203983 0
M  V30 3506 H 344.895 1.61861 -0.0354289 0
M  V30 3507 H 346.887 2.9828 2.73516 0
M  V30 3508 H 345.457 1.96483 2.43132 0
M  V30 3509 H 344.677 3.85612 0.818337 0
M  V30 3510 H 345.965 4.85907 1.50903 0
M  V30 3511 H 345.363 3.54687 4.40696 0
M  V30 3512 H 343.92 4.37901 4.8279 0
M  V30 3513 N 347.353 -0.0568162 1.57498 0
M  V30 3514 C 348.316 -1.05038 2.03715 0
M  V30 3515 C 349.316 -1.30709 0.936577 0
M  V30 3516 O 350.506 -1.26178 1.20103 0
M  V30 3517 C 347.638 -2.39034 2.43055 0
M  V30 3518 H 348.831 -0.651715 2.92733 0
M  V30 3519 H 346.384 -0.302947 1.53336 0
M  V30 3520 H 347.119 -2.83703 1.57108 0
M  V30 3521 H 346.904 -2.21739 3.2338 0
M  V30 3522 H 348.394 -3.10421 2.79336 0
M  V30 3523 N 348.832 -1.54138 -0.328536 0
M  V30 3524 C 349.795 -1.82462 -1.38709 0
M  V30 3525 C 350.795 -0.696229 -1.44946 0
M  V30 3526 O 351.985 -0.964535 -1.4506 0
M  V30 3527 C 349.117 -1.98018 -2.77492 0
M  V30 3528 H 350.31 -2.77037 -1.14851 0
M  V30 3529 H 347.863 -1.45779 -0.563751 0
M  V30 3530 H 348.598 -1.05637 -3.06613 0
M  V30 3531 H 348.383 -2.80124 -2.74359 0
M  V30 3532 H 349.873 -2.21396 -3.54081 0
M  V30 3533 N 350.31 0.590341 -1.46126 0
M  V30 3534 C 351.24 1.71032 -1.58966 0
M  V30 3535 C 352.221 1.64302 -0.440335 0
M  V30 3536 O 353.406 1.82436 -0.665634 0
M  V30 3537 C 350.536 3.09665 -1.57241 0
M  V30 3538 C 349.49 3.31221 -2.71066 0
M  V30 3539 C 348.816 4.70303 -2.54399 0
M  V30 3540 C 350.116 3.19796 -4.1295 0
M  V30 3541 H 351.81 1.60543 -2.52718 0
M  V30 3542 H 349.356 0.770933 -1.21625 0
M  V30 3543 H 351.309 3.87831 -1.64819 0
M  V30 3544 H 350.033 3.21036 -0.600289 0
M  V30 3545 H 348.692 2.55452 -2.62944 0
M  V30 3546 H 348.34 4.78429 -1.55288 0
M  V30 3547 H 348.04 4.85679 -3.30741 0
M  V30 3548 H 349.564 5.50647 -2.63857 0
M  V30 3549 H 350.978 3.87815 -4.22223 0
M  V30 3550 H 349.375 3.46696 -4.89818 0
M  V30 3551 H 350.445 2.16983 -4.33643 0
M  V30 3552 N 351.788 1.33704 0.83433 0
M  V30 3553 C 353.065 1.16011 1.57483 0
M  V30 3554 C 353.445 -0.27176 2.09343 0
M  V30 3555 O 352.793 -1.27146 1.89858 0
M  V30 3556 C 353.003 2.20507 2.70514 0
M  V30 3557 C 354.351 2.54898 3.39577 0
M  V30 3558 O 355.375 2.19209 2.80759 0
M  V30 3559 O 354.234 3.16158 4.45765 0
M  V30 3560 H 351.328 0.448992 0.694503 0
M  V30 3561 H 353.874 1.453 0.876691 0
M  V30 3562 H 352.646 3.16667 2.29865 0
M  V30 3563 H 352.269 1.92329 3.47987 0
M  V30 3564 N 353.266 -1.05314 1.17247 0
M  V30 3565 C 354.198 -2.13023 0.845812 0
M  V30 3566 C 355.211 -1.62096 -0.151246 0
M  V30 3567 O 356.4 -1.78343 0.0748818 0
M  V30 3568 C 353.5 -3.38047 0.240292 0
M  V30 3569 C 352.673 -4.18255 1.27991 0
M  V30 3570 C 351.732 -5.21625 0.692375 0
M  V30 3571 O 350.758 -5.52619 1.36385 0
M  V30 3572 N 351.96 -5.78201 -0.516178 0
M  V30 3573 H 354.725 -2.41642 1.77283 0
M  V30 3574 H 352.286 -1.21401 1.07115 0
M  V30 3575 H 354.278 -4.04359 -0.16603 0
M  V30 3576 H 352.848 -3.06972 -0.590487 0
M  V30 3577 H 352.068 -3.47451 1.86203 0
M  V30 3578 H 353.356 -4.68643 1.98119 0
M  V30 3579 H 352.754 -5.55301 -1.07969 0
M  V30 3580 H 351.311 -6.4604 -0.86458 0
M  V30 3581 N 354.744 -0.972509 -1.24016 0
M  V30 3582 C 355.674 -0.525548 -2.27509 0
M  V30 3583 C 356.655 0.437262 -1.64384 0
M  V30 3584 O 357.84 0.332343 -1.91335 0
M  V30 3585 C 354.97 0.180448 -3.46831 0
M  V30 3586 C 353.924 -0.698859 -4.22256 0
M  V30 3587 C 353.25 0.138903 -5.3452 0
M  V30 3588 C 354.55 -1.98582 -4.83076 0
M  V30 3589 H 356.244 -1.39058 -2.65148 0
M  V30 3590 H 353.79 -0.67009 -1.27459 0
M  V30 3591 H 355.743 0.504387 -4.18371 0
M  V30 3592 H 354.467 1.07987 -3.08231 0
M  V30 3593 H 353.126 -1.00614 -3.52523 0
M  V30 3594 H 352.774 1.03862 -4.9216 0
M  V30 3595 H 352.474 -0.446259 -5.85903 0
M  V30 3596 H 353.998 0.457404 -6.08884 0
M  V30 3597 H 355.412 -1.72715 -5.46665 0
M  V30 3598 H 353.809 -2.5181 -5.44713 0
M  V30 3599 H 354.879 -2.67769 -4.04262 0
M  V30 3600 N 356.222 1.38976 -0.743202 0
M  V30 3601 C 357.452 2.04339 -0.304807 0
M  V30 3602 C 357.86 1.56162 1.06819 0
M  V30 3603 O 357.203 0.725284 1.68776 0
M  V30 3604 C 357.265 3.58716 -0.237369 0
M  V30 3605 C 356.929 4.29905 -1.55018 0
M  V30 3606 C 357.926 4.55987 -2.49744 0
M  V30 3607 C 355.611 4.68294 -1.81675 0
M  V30 3608 C 357.605 5.19478 -3.69353 0
M  V30 3609 C 355.292 5.31512 -3.0156 0
M  V30 3610 C 356.29 5.57037 -3.9522 0
M  V30 3611 O 355.978 6.18941 -5.12998 0
M  V30 3612 H 355.71 0.663439 -0.12971 0
M  V30 3613 H 358.264 1.78852 -1.01001 0
M  V30 3614 H 356.494 3.83133 0.524003 0
M  V30 3615 H 358.183 4.05543 0.170121 0
M  V30 3616 H 358.949 4.26767 -2.30423 0
M  V30 3617 H 354.828 4.47779 -1.09615 0
M  V30 3618 H 358.372 5.39318 -4.42473 0
M  V30 3619 H 354.269 5.60153 -3.20778 0
M  V30 3620 H 355.037 6.37433 -5.13441 0
M  V30 3621 N 357.7 0.491464 1.49741 0
M  V30 3622 C 358.925 -0.0557177 2.07325 0
M  V30 3623 C 359.35 -1.30925 1.35056 0
M  V30 3624 O 358.708 -1.76733 0.404365 0
M  V30 3625 C 358.756 -0.302074 3.59333 0
M  V30 3626 O 357.86 -1.37868 3.88672 0
M  V30 3627 H 357.201 0.0219956 0.663636 0
M  V30 3628 H 359.731 0.688352 1.92673 0
M  V30 3629 H 359.741 -0.536464 4.04458 0
M  V30 3630 H 358.416 0.61383 4.11345 0
M  V30 3631 H 356.993 -1.12999 3.55367 0
M  V30 3632 N 359.178 -1.55987 0.224894 0
M  V30 3633 C 360.11 -2.17722 -0.716224 0
M  V30 3634 C 361.123 -1.14723 -1.15509 0
M  V30 3635 O 362.312 -1.41688 -1.08567 0
M  V30 3636 C 359.412 -2.74873 -1.98238 0
M  V30 3637 C 358.585 -4.03074 -1.69853 0
M  V30 3638 C 357.644 -4.44757 -2.81208 0
M  V30 3639 O 356.67 -5.11587 -2.49534 0
M  V30 3640 N 357.872 -4.10716 -4.10235 0
M  V30 3641 H 360.637 -2.99109 -0.188123 0
M  V30 3642 H 358.198 -1.6184 0.0440123 0
M  V30 3643 H 360.19 -2.99727 -2.7193 0
M  V30 3644 H 358.76 -1.9777 -2.42086 0
M  V30 3645 H 357.98 -3.86041 -0.797875 0
M  V30 3646 H 359.268 -4.86701 -1.48324 0
M  V30 3647 H 358.666 -3.57019 -4.38809 0
M  V30 3648 H 357.223 -4.40455 -4.80461 0
M  V30 3649 N 360.656 0.0484629 -1.57525 0
M  V30 3650 C 361.586 1.0549 -2.08313 0
M  V30 3651 C 362.567 1.38929 -0.981463 0
M  V30 3652 O 363.752 1.48151 -1.25558 0
M  V30 3653 C 360.882 2.36162 -2.54646 0
M  V30 3654 C 359.836 2.17016 -3.68901 0
M  V30 3655 C 359.162 3.53278 -4.01371 0
M  V30 3656 C 360.462 1.57219 -4.98076 0
M  V30 3657 H 362.156 0.632195 -2.92649 0
M  V30 3658 H 359.702 0.302654 -1.40784 0
M  V30 3659 H 361.655 3.06882 -2.88793 0
M  V30 3660 H 360.379 2.80456 -1.67368 0
M  V30 3661 H 359.038 1.48733 -3.35073 0
M  V30 3662 H 358.686 3.95185 -3.11188 0
M  V30 3663 H 358.386 3.41299 -4.78318 0
M  V30 3664 H 359.91 4.25391 -4.38035 0
M  V30 3665 H 361.324 2.17832 -5.30304 0
M  V30 3666 H 359.721 1.55871 -5.79503 0
M  V30 3667 H 360.791 0.535956 -4.81929 0
M  V30 3668 N 362.134 1.5431 0.320358 0
M  V30 3669 C 363.359 1.76954 1.08175 0
M  V30 3670 C 363.784 0.518193 1.80821 0
M  V30 3671 O 363.142 -0.530411 1.73368 0
M  V30 3672 C 363.19 2.96451 2.05303 0
M  V30 3673 O 362.294 2.68221 3.13259 0
M  V30 3674 H 361.635 0.586275 0.311733 0
M  V30 3675 H 364.165 2.01342 0.363676 0
M  V30 3676 H 364.175 3.23887 2.48116 0
M  V30 3677 H 362.85 3.87196 1.51829 0
M  V30 3678 H 361.427 2.51744 2.75099 0
M  V30 3679 N 363.613 -0.582584 1.46437 0
M  V30 3680 C 364.561 -1.71272 1.5738 0
M  V30 3681 C 365.555 -1.63524 0.44229 0
M  V30 3682 O 366.761 -1.69016 0.619166 0
M  V30 3683 H 363.136 -0.566273 0.494813 0
M  V30 3684 H 365.107 -1.59174 2.52401 0
M  V30 3685 C 363.856 -3.09658 1.58136 0
M  V30 3686 H 363.179 -3.16291 2.44541 0
M  V30 3687 H 364.619 -3.88494 1.69847 0
M  V30 3688 C 363.078 -3.3547 0.310026 0
M  V30 3689 O 363.608 -3.97199 -0.599683 0
M  V30 3690 N 361.814 -2.89925 0.197901 0
M  V30 3691 H 361.361 -2.39873 0.93909 0
M  V30 3692 H 361.319 -3.07568 -0.65185 0
M  V30 3693 N 365.091 -1.34144 -0.827227 0
M  V30 3694 C 366.021 -1.28005 -1.95287 0
M  V30 3695 C 367.002 -0.158321 -1.69362 0
M  V30 3696 O 368.187 -0.349987 -1.9102 0
M  V30 3697 C 365.317 -1.03036 -3.31664 0
M  V30 3698 C 364.271 -2.11628 -3.72019 0
M  V30 3699 C 363.597 -1.71854 -5.0633 0
M  V30 3700 C 364.897 -3.53417 -3.8457 0
M  V30 3701 H 366.591 -2.22187 -2.00682 0
M  V30 3702 H 364.137 -1.0696 -0.964135 0
M  V30 3703 H 366.09 -0.973863 -4.09993 0
M  V30 3704 H 364.814 -0.0529391 -3.26557 0
M  V30 3705 H 363.473 -2.16339 -2.95961 0
M  V30 3706 H 363.121 -0.727841 -4.97706 0
M  V30 3707 H 362.821 -2.44531 -5.34302 0
M  V30 3708 H 364.345 -1.67692 -5.87122 0
M  V30 3709 H 365.759 -3.51142 -4.5318 0
M  V30 3710 H 364.156 -4.24679 -4.2399 0
M  V30 3711 H 365.226 -3.91072 -2.86689 0
M  V30 3712 N 366.569 1.04691 -1.17803 0
M  V30 3713 C 367.846 1.7472 -0.879328 0
M  V30 3714 C 368.226 2.01812 0.619271 0
M  V30 3715 O 367.574 1.65824 1.57209 0
M  V30 3716 C 367.784 3.03686 -1.71976 0
M  V30 3717 C 369.132 3.77542 -1.94286 0
M  V30 3718 O 370.156 3.13569 -1.68976 0
M  V30 3719 O 369.015 4.92506 -2.36855 0
M  V30 3720 H 366.109 0.760011 -0.326056 0
M  V30 3721 H 368.655 1.10813 -1.28525 0
M  V30 3722 H 367.427 2.79754 -2.73594 0
M  V30 3723 H 367.05 3.75332 -1.31194 0
M  V30 3724 N 368.047 0.979072 1.23499 0
M  V30 3725 C 369.458 0.684391 1.73704 0
M  V30 3726 C 369.809 -0.799448 1.79174 0
M  V30 3727 O 368.934 -1.62531 1.42873 0
M  V30 3728 C 369.529 1.23564 3.15464 0
M  V30 3729 C 368.088 0.99063 3.6313 0
M  V30 3730 C 367.235 1.36416 2.41425 0
M  V30 3731 H 370.186 1.15307 1.09041 0
M  V30 3732 H 370.207 0.607417 3.7562 0
M  V30 3733 H 369.719 2.31561 3.1145 0
M  V30 3734 H 367.82 -0.0733136 3.72528 0
M  V30 3735 H 367.933 1.64427 4.5 0
M  V30 3736 H 366.297 0.782616 2.42378 0
M  V30 3737 H 367.08 2.45387 2.40083 0
M  V30 3738 N 369.525 -1.3858 0.750561 0
M  V30 3739 C 370.472 -2.30483 0.120835 0
M  V30 3740 C 371.442 -1.50022 -0.712923 0
M  V30 3741 O 372.627 -1.78662 -0.669676 0
M  V30 3742 C 369.767 -3.36431 -0.768666 0
M  V30 3743 C 368.88 -4.31927 0.0793922 0
M  V30 3744 C 368.015 -5.24944 -0.81283 0
M  V30 3745 C 367.054 -6.12088 0.0390447 0
M  V30 3746 N 366.191 -6.97412 -0.809969 0
M  V30 3747 H 371.031 -2.83761 0.91015 0
M  V30 3748 H 368.568 -1.39707 0.460463 0
M  V30 3749 H 370.526 -3.96462 -1.29898 0
M  V30 3750 H 369.156 -2.8457 -1.5238 0
M  V30 3751 H 368.208 -3.73382 0.727303 0
M  V30 3752 H 369.52 -4.93319 0.737401 0
M  V30 3753 H 368.674 -5.90078 -1.41042 0
M  V30 3754 H 367.413 -4.63911 -1.50458 0
M  V30 3755 H 366.418 -5.45952 0.649328 0
M  V30 3756 H 367.643 -6.75189 0.727809 0
M  V30 3757 H 365.589 -6.38931 -1.48672 0
M  V30 3758 H 365.506 -7.55712 -0.208789 0
M  V30 3759 H 366.774 -7.66959 -1.39263 0
M  V30 3760 N 371.003 -0.499398 -1.49478 0
M  V30 3761 C 372.28 0.108629 -1.95298 0
M  V30 3762 C 372.66 1.54282 -1.44084 0
M  V30 3763 O 372.008 2.18944 -0.653908 0
M  V30 3764 C 372.218 0.0229111 -3.48992 0
M  V30 3765 C 373.566 0.197643 -4.2414 0
M  V30 3766 O 374.59 0.0981735 -3.56065 0
M  V30 3767 O 373.449 0.401669 -5.45022 0
M  V30 3768 H 370.543 0.096181 -0.821388 0
M  V30 3769 H 373.089 -0.561822 -1.6013 0
M  V30 3770 H 371.861 -0.977321 -3.78899 0
M  V30 3771 H 371.484 0.733579 -3.90774 0
M  V30 3772 N 372.481 1.55866 -0.233164 0
M  V30 3773 C 373.729 1.9821 0.394593 0
M  V30 3774 C 374.05 1.12234 1.59463 0
M  V30 3775 O 373.32 0.201981 1.94856 0
M  V30 3776 H 371.9 0.732034 0.148778 0
M  V30 3777 H 374.562 1.92107 -0.32876 0
M  V30 3778 H 373.658 3.03845 0.713063 0
M  V30 3779 N 373.959 -0.0401083 1.57549 0
M  V30 3780 C 375.184 -0.748931 1.93406 0
M  V30 3781 C 375.609 -1.68686 0.832274 0
M  V30 3782 O 374.967 -1.80047 -0.212818 0
M  V30 3783 C 375.015 -1.4916 3.28304 0
M  V30 3784 O 374.119 -2.6042 3.19774 0
M  V30 3785 H 373.46 -0.202212 0.63246 0
M  V30 3786 H 375.99 0.00112086 2.046 0
M  V30 3787 H 376 -1.86395 3.62934 0
M  V30 3788 H 374.675 -0.80364 4.08062 0
M  V30 3789 H 373.252 -2.25808 2.96758 0
M  V30 3790 N 375.437 -1.54477 -0.31217 0
M  V30 3791 C 376.683 -1.73483 -1.0503 0
M  V30 3792 C 377.016 -0.513125 -1.87298 0
M  V30 3793 O 376.291 0.489864 -1.8823 0
M  V30 3794 C 376.574 -3.01723 -1.96558 0
M  V30 3795 C 376.427 -4.3417 -1.17545 0
M  V30 3796 C 377.746 -3.25772 -2.95907 0
M  V30 3797 H 374.865 -0.631222 -0.380432 0
M  V30 3798 H 377.507 -1.87184 -0.325932 0
M  V30 3799 H 375.657 -2.90174 -2.58324 0
M  V30 3800 H 377.329 -4.5762 -0.581513 0
M  V30 3801 H 375.572 -4.31159 -0.477925 0
M  V30 3802 H 376.243 -5.20143 -1.84811 0
M  V30 3803 H 378.719 -3.36857 -2.44267 0
M  V30 3804 H 377.595 -4.16838 -3.57123 0
M  V30 3805 H 377.856 -2.43537 -3.68974 0
M  V30 3806 N 376.915 0.57481 -1.46744 0
M  V30 3807 C 378.161 1.3347 -1.52688 0
M  V30 3808 C 378.494 1.93353 -0.181229 0
M  V30 3809 O 377.769 1.76912 0.808237 0
M  V30 3810 C 378.052 2.45811 -2.63152 0
M  V30 3811 C 377.905 1.90912 -4.07275 0
M  V30 3812 C 379.224 3.47822 -2.69644 0
M  V30 3813 H 376.343 0.483935 -0.555856 0
M  V30 3814 H 378.985 0.644968 -1.78718 0
M  V30 3815 H 377.135 3.04646 -2.41088 0
M  V30 3816 H 378.807 1.36473 -4.4065 0
M  V30 3817 H 377.05 1.21691 -4.16382 0
M  V30 3818 H 377.721 2.72042 -4.80309 0
M  V30 3819 H 380.197 2.9888 -2.895 0
M  V30 3820 H 379.073 4.23876 -3.48742 0
M  V30 3821 H 379.334 4.05555 -1.76005 0
M  V30 3822 N 378.394 1.34581 0.820102 0
M  V30 3823 C 379.64 1.27285 1.57881 0
M  V30 3824 C 379.973 -0.156137 1.93571 0
M  V30 3825 O 379.248 -1.10222 1.60254 0
M  V30 3826 C 379.531 2.16639 2.87645 0
M  V30 3827 C 379.384 3.68088 2.58517 0
M  V30 3828 C 380.703 2.05378 3.8924 0
M  V30 3829 H 377.822 0.463714 0.572833 0
M  V30 3830 H 380.464 1.64859 0.944539 0
M  V30 3831 H 378.614 1.84725 3.41773 0
M  V30 3832 H 380.286 4.10382 2.10676 0
M  V30 3833 H 378.529 3.89038 1.91917 0
M  V30 3834 H 379.2 4.2598 3.51063 0
M  V30 3835 H 381.676 2.33404 3.44473 0
M  V30 3836 H 380.552 2.7012 4.77835 0
M  V30 3837 H 380.813 1.0316 4.29896 0
M  V30 3838 N 379.872 -1.04064 1.18357 0
M  V30 3839 C 380.802 -2.14001 0.934113 0
M  V30 3840 C 381.783 -1.69616 -0.128186 0
M  V30 3841 O 382.968 -1.94185 0.0244093 0
M  V30 3842 C 380.098 -3.44253 0.459066 0
M  V30 3843 C 379.052 -4.02261 1.46185 0
M  V30 3844 C 378.378 -5.27992 0.844322 0
M  V30 3845 C 379.678 -4.38432 2.83856 0
M  V30 3846 H 381.372 -2.35127 1.85352 0
M  V30 3847 H 378.918 -1.12998 0.892604 0
M  V30 3848 H 380.871 -4.20522 0.271907 0
M  V30 3849 H 379.595 -3.22813 -0.495912 0
M  V30 3850 H 378.254 -3.28074 1.63595 0
M  V30 3851 H 377.902 -5.02862 -0.117845 0
M  V30 3852 H 377.602 -5.67765 1.51384 0
M  V30 3853 H 379.126 -6.06938 0.667693 0
M  V30 3854 H 380.54 -5.05688 2.70098 0
M  V30 3855 H 378.937 -4.89254 3.47491 0
M  V30 3856 H 380.007 -3.4826 3.37406 0
M  V30 3857 N 381.35 -0.985608 -1.22978 0
M  V30 3858 C 382.598 -0.656087 -1.91154 0
M  V30 3859 C 382.919 0.813561 -1.77218 0
M  V30 3860 O 382.189 1.58244 -1.1548 0
M  V30 3861 H 380.769 -0.239674 -0.707506 0
M  V30 3862 H 383.431 -1.25054 -1.49491 0
M  V30 3863 H 382.527 -0.912253 -2.9847 0
M  V30 3864 N 382.828 1.3818 -0.7579 0
M  V30 3865 C 384.058 2.04004 -0.326463 0
M  V30 3866 C 384.466 1.57286 1.05156 0
M  V30 3867 O 383.809 0.743144 1.67997 0
M  V30 3868 C 383.871 3.58444 -0.275402 0
M  V30 3869 C 383.535 4.28237 -1.59569 0
M  V30 3870 C 384.532 4.53312 -2.54566 0
M  V30 3871 C 382.217 4.66341 -1.86631 0
M  V30 3872 C 384.211 5.15531 -3.74842 0
M  V30 3873 C 381.898 5.28283 -3.0718 0
M  V30 3874 C 382.896 5.52814 -4.01106 0
M  V30 3875 O 382.584 6.13465 -5.19534 0
M  V30 3876 H 382.316 0.662026 -0.136739 0
M  V30 3877 H 384.87 1.7777 -1.02893 0
M  V30 3878 H 383.1 3.83667 0.483337 0
M  V30 3879 H 384.789 4.05701 0.127099 0
M  V30 3880 H 385.555 4.24299 -2.34936 0
M  V30 3881 H 381.434 4.46591 -1.14358 0
M  V30 3882 H 384.978 5.34594 -4.48168 0
M  V30 3883 H 380.875 5.56719 -3.26702 0
M  V30 3884 H 381.643 6.31951 -5.20173 0
M  V30 3885 N 384.306 0.507319 1.49211 0
M  V30 3886 C 385.534 -0.0315749 2.06876 0
M  V30 3887 C 385.949 -1.30241 1.36685 0
M  V30 3888 O 385.306 -1.76937 0.447152 0
M  V30 3889 C 385.357 -0.282627 3.60393 0
M  V30 3890 O 385.078 0.937835 4.27944 0
M  V30 3891 C 386.579 -0.864453 4.3479 0
M  V30 3892 H 383.799 0.0233048 0.670595 0
M  V30 3893 H 386.343 0.706484 1.91909 0
M  V30 3894 H 384.498 -0.97068 3.75042 0
M  V30 3895 H 384.912 0.704567 5.19746 0
M  V30 3896 H 386.386 -0.989664 5.43056 0
M  V30 3897 H 386.863 -1.86382 3.97692 0
M  V30 3898 H 387.469 -0.213672 4.24763 0
M  V30 3899 N 385.784 -1.5574 0.241426 0
M  V30 3900 C 387.061 -1.90704 -0.434881 0
M  V30 3901 C 387.441 -1.16145 -1.76277 0
M  V30 3902 O 386.789 -0.277152 -2.26813 0
M  V30 3903 C 386.999 -3.43657 -0.608343 0
M  V30 3904 C 388.347 -4.14806 -0.906725 0
M  V30 3905 O 389.371 -3.49366 -0.694408 0
M  V30 3906 O 388.23 -5.30548 -1.31075 0
M  V30 3907 H 385.324 -0.793592 -0.23268 0
M  V30 3908 H 387.87 -1.67288 0.285086 0
M  V30 3909 H 386.642 -3.89927 0.327505 0
M  V30 3910 H 386.265 -3.72918 -1.37906 0
M  V30 3911 N 387.262 0.0317525 -1.57568 0
M  V30 3912 C 388.678 0.38735 -1.54828 0
M  V30 3913 C 388.878 1.7677 -0.967187 0
M  V30 3914 O 387.934 2.45581 -0.587063 0
M  V30 3915 C 389.247 0.291667 -2.99282 0
M  V30 3916 C 390.795 0.368946 -3.10818 0
M  V30 3917 C 391.27 0.302741 -4.56998 0
M  V30 3918 N 392.761 0.361617 -4.61786 0
M  V30 3919 C 393.496 0.333238 -5.72431 0
M  V30 3920 N 392.992 0.257308 -6.92322 0
M  V30 3921 N 394.785 0.382769 -5.60795 0
M  V30 3922 H 386.936 -0.871609 -1.93692 0
M  V30 3923 H 389.199 -0.331161 -0.888277 0
M  V30 3924 H 388.905 -0.656794 -3.45513 0
M  V30 3925 H 388.779 1.08638 -3.61217 0
M  V30 3926 H 391.166 1.30784 -2.64536 0
M  V30 3927 H 391.247 -0.455066 -2.5172 0
M  V30 3928 H 390.891 -0.632473 -5.03947 0
M  V30 3929 H 390.821 1.14482 -5.14005 0
M  V30 3930 H 393.312 0.422923 -3.75526 0
M  V30 3931 H 393.625 0.24068 -7.72425 0
M  V30 3932 H 391.97 0.223396 -6.94641 0
M  V30 3933 H 395.161 0.44006 -4.66027 0
M  V30 3934 H 395.334 0.357184 -6.47015 0
M  V30 3935 N 388.74 1.54641 0.303973 0
M  V30 3936 C 389.989 1.7299 1.03717 0
M  V30 3937 C 390.302 0.521168 1.88529 0
M  V30 3938 O 391.508 0.586408 2.65092 0
M  V30 3939 C 389.964 3.06051 1.89369 0
M  V30 3940 C 389.572 4.34393 1.09574 0
M  V30 3941 C 391.316 3.3376 2.62306 0
M  V30 3942 C 389.223 5.58506 1.94486 0
M  V30 3943 H 388.153 0.64473 0.390947 0
M  V30 3944 H 390.804 1.81124 0.294328 0
M  V30 3945 H 389.186 2.91874 2.67629 0
M  V30 3946 H 390.36 4.59396 0.359485 0
M  V30 3947 H 388.675 4.13597 0.482324 0
M  V30 3948 H 391.272 4.23687 3.26181 0
M  V30 3949 H 391.615 2.52503 3.3098 0
M  V30 3950 H 392.148 3.48894 1.91097 0
M  V30 3951 H 388.887 6.42422 1.30287 0
M  V30 3952 H 388.407 5.37694 2.65792 0
M  V30 3953 H 390.086 5.95651 2.52605 0
M  V30 3954 N 390.218 -0.567019 1.47046 0
M  V30 3955 C 391.466 -1.322 1.52864 0
M  V30 3956 C 391.787 -1.94088 0.188388 0
M  V30 3957 O 391.057 -1.7941 -0.786693 0
M  V30 3958 H 389.637 -0.490894 0.563056 0
M  V30 3959 H 392.299 -0.662879 1.83281 0
M  V30 3960 H 391.395 -2.12062 2.2899 0
M  V30 3961 N 391.696 -1.35014 -0.812953 0
M  V30 3962 C 392.921 -1.31187 -1.60639 0
M  V30 3963 C 393.346 0.109382 -1.87782 0
M  V30 3964 O 392.704 1.07424 -1.46047 0
M  V30 3965 C 392.752 -2.11809 -2.91838 0
M  V30 3966 O 391.856 -1.49444 -3.8437 0
M  V30 3967 H 391.197 -0.450084 -0.488181 0
M  V30 3968 H 393.727 -1.77963 -1.00947 0
M  V30 3969 H 393.737 -2.23531 -3.41318 0
M  V30 3970 H 392.412 -3.15137 -2.71407 0
M  V30 3971 H 390.989 -1.46524 -3.42907 0
M  V30 3972 N 393.175 1.03435 -1.18907 0
M  V30 3973 C 394.452 1.73778 -0.89781 0
M  V30 3974 C 394.832 2.02458 0.597832 0
M  V30 3975 O 394.18 1.67482 1.55441 0
M  V30 3976 C 394.39 3.01845 -1.75187 0
M  V30 3977 C 395.738 3.7546 -1.9828 0
M  V30 3978 O 396.762 3.11759 -1.72293 0
M  V30 3979 O 395.621 4.89966 -2.42065 0
M  V30 3980 H 392.715 0.75651 -0.334098 0
M  V30 3981 H 395.261 1.09444 -1.29693 0
M  V30 3982 H 394.033 2.76836 -2.76545 0
M  V30 3983 H 393.656 3.73919 -1.35167 0
M  V30 3984 N 394.653 0.992116 1.22453 0
M  V30 3985 C 395.616 0.546883 2.2258 0
M  V30 3986 C 396.616 -0.369829 1.56489 0
M  V30 3987 O 397.806 -0.161896 1.73446 0
M  V30 3988 C 394.938 -0.204659 3.40285 0
M  V30 3989 H 396.131 1.43234 2.63484 0
M  V30 3990 H 393.684 0.779239 1.3549 0
M  V30 3991 H 394.419 -1.10614 3.04853 0
M  V30 3992 H 394.204 0.45354 3.89468 0
M  V30 3993 H 395.694 -0.504358 4.14543 0
M  V30 3994 N 396.131 -1.37776 0.765217 0
M  V30 3995 C 397.361 -2.03828 0.337277 0
M  V30 3996 C 397.769 -1.57841 -1.04321 0
M  V30 3997 O 397.112 -0.752043 -1.67601 0
M  V30 3998 C 397.174 -3.58292 0.294407 0
M  V30 3999 C 396.838 -4.27384 1.61838 0
M  V30 4000 C 397.835 -4.51956 2.56967 0
M  V30 4001 C 395.52 -4.65345 1.89102 0
M  V30 4002 C 397.514 -5.13536 3.77571 0
M  V30 4003 C 395.201 -5.26647 3.09978 0
M  V30 4004 C 396.199 -5.50679 4.04032 0
M  V30 4005 O 395.887 -6.10702 5.2278 0
M  V30 4006 H 395.619 -0.661292 0.140248 0
M  V30 4007 H 398.173 -1.77222 1.03834 0
M  V30 4008 H 396.403 -3.83918 -0.462983 0
M  V30 4009 H 398.092 -4.05763 -0.105581 0
M  V30 4010 H 398.858 -4.23048 2.37183 0
M  V30 4011 H 394.737 -4.45978 1.16725 0
M  V30 4012 H 398.281 -5.3221 4.50997 0
M  V30 4013 H 394.178 -5.54979 3.29649 0
M  V30 4014 H 394.946 -6.29183 5.23517 0
M  V30 4015 N 397.609 -0.515225 -1.4894 0
M  V30 4016 C 398.557 0.269115 -2.31038 0
M  V30 4017 C 399.551 0.949443 -1.40292 0
M  V30 4018 O 400.757 0.87551 -1.57273 0
M  V30 4019 H 397.132 0.10565 -0.744542 0
M  V30 4020 H 399.103 -0.443096 -2.95092 0
M  V30 4021 C 397.852 1.31213 -3.21991 0
M  V30 4022 H 397.175 0.798034 -3.91754 0
M  V30 4023 H 398.615 1.83263 -3.82349 0
M  V30 4024 C 397.074 2.33791 -2.42576 0
M  V30 4025 O 397.604 3.3995 -2.14003 0
M  V30 4026 N 395.81 2.06625 -2.0434 0
M  V30 4027 H 395.357 1.20314 -2.27777 0
M  V30 4028 H 395.315 2.75483 -1.51514 0
M  V30 4029 N 399.087 1.5561 -0.249682 0
M  V30 4030 C 400.019 2.18834 0.681496 0
M  V30 4031 C 401.032 1.16546 1.1367 0
M  V30 4032 O 402.221 1.43397 1.06299 0
M  V30 4033 C 399.321 2.77992 1.9384 0
M  V30 4034 C 398.494 4.05725 1.63419 0
M  V30 4035 C 397.553 4.49174 2.74096 0
M  V30 4036 O 396.579 5.15492 2.41364 0
M  V30 4037 N 397.781 4.17191 4.03649 0
M  V30 4038 H 400.546 2.9937 0.140514 0
M  V30 4039 H 398.107 1.6175 -0.0697541 0
M  V30 4040 H 400.099 3.04015 2.67127 0
M  V30 4041 H 398.669 2.01596 2.38909 0
M  V30 4042 H 397.889 3.87261 0.736358 0
M  V30 4043 H 399.177 4.88999 1.40562 0
M  V30 4044 H 398.575 3.63955 4.33074 0
M  V30 4045 H 397.132 4.48043 4.73393 0
M  V30 4046 N 400.565 -0.0233959 1.57583 0
M  V30 4047 C 401.813 -0.711654 1.89156 0
M  V30 4048 C 402.134 -1.75591 0.848096 0
M  V30 4049 O 401.404 -1.95547 -0.117566 0
M  V30 4050 H 399.984 -0.265835 0.698098 0
M  V30 4051 H 402.646 0.0119948 1.94896 0
M  V30 4052 H 401.742 -1.19766 2.88206 0
M  V30 4053 N 402.043 -1.548 -0.295768 0
M  V30 4054 C 402.973 -1.89115 -1.36959 0
M  V30 4055 C 403.954 -0.75059 -1.52644 0
M  V30 4056 O 405.139 -1.00678 -1.66065 0
M  V30 4057 C 402.269 -2.14307 -2.73295 0
M  V30 4058 C 401.223 -3.30151 -2.72368 0
M  V30 4059 C 400.549 -3.40772 -4.12042 0
M  V30 4060 C 401.849 -4.67126 -2.33646 0
M  V30 4061 H 403.543 -2.79053 -1.08488 0
M  V30 4062 H 401.089 -1.34266 -0.520443 0
M  V30 4063 H 403.042 -2.36898 -3.48507 0
M  V30 4064 H 401.766 -1.21145 -3.03301 0
M  V30 4065 H 400.425 -3.0749 -1.99613 0
M  V30 4066 H 400.073 -2.45117 -4.39234 0
M  V30 4067 H 399.773 -4.18645 -4.12322 0
M  V30 4068 H 401.297 -3.6563 -4.89027 0
M  V30 4069 H 402.711 -4.89414 -2.98575 0
M  V30 4070 H 401.108 -5.47751 -2.45129 0
M  V30 4071 H 402.178 -4.67489 -1.28772 0
M  V30 4072 N 403.521 0.559213 -1.47345 0
M  V30 4073 C 404.746 1.34676 -1.57725 0
M  V30 4074 C 405.171 1.86723 -0.227164 0
M  V30 4075 O 404.529 1.6286 0.796642 0
M  V30 4076 C 404.577 2.49399 -2.60447 0
M  V30 4077 O 403.681 3.51567 -2.15578 0
M  V30 4078 H 403.022 0.400115 -0.52991 0
M  V30 4079 H 405.552 0.676009 -1.93109 0
M  V30 4080 H 405.562 2.95996 -2.80803 0
M  V30 4081 H 404.237 2.10873 -3.58477 0
M  V30 4082 H 402.814 3.11289 -2.05313 0
M  V30 4083 N 404.999 1.35443 0.805782 0
M  V30 4084 C 405.909 1.30546 1.94923 0
M  V30 4085 C 406.925 0.210233 1.72725 0
M  V30 4086 O 408.101 0.43975 1.9654 0
M  V30 4087 C 405.166 1.07782 3.29521 0
M  V30 4088 C 404.227 2.26625 3.64609 0
M  V30 4089 C 403.46 2.04938 4.92784 0
M  V30 4090 O 403.683 1.01624 5.61274 0
M  V30 4091 O 402.617 2.9232 5.26149 0
M  V30 4092 H 406.443 2.26779 2.02002 0
M  V30 4093 H 404.028 1.15823 0.943682 0
M  V30 4094 H 405.91 0.969392 4.10098 0
M  V30 4095 H 404.585 0.146003 3.23371 0
M  V30 4096 H 403.492 2.43033 2.84404 0
M  V30 4097 H 404.825 3.18257 3.75464 0
M  V30 4098 N 406.477 -1.02803 1.19454 0
M  V30 4099 C 407.893 -1.28473 0.946937 0
M  V30 4100 C 408.093 -1.97881 -0.380202 0
M  V30 4101 O 407.149 -2.26719 -1.11151 0
M  V30 4102 C 408.462 -2.13099 2.12154 0
M  V30 4103 C 410.01 -2.26404 2.16126 0
M  V30 4104 C 410.485 -3.14402 3.33039 0
M  V30 4105 N 411.976 -3.21991 3.32981 0
M  V30 4106 C 412.711 -3.90272 4.20089 0
M  V30 4107 N 412.207 -4.60777 5.17355 0
M  V30 4108 N 414 -3.8668 4.07964 0
M  V30 4109 H 406.151 -0.561665 2.04839 0
M  V30 4110 H 408.414 -0.310438 0.89573 0
M  V30 4111 H 408.12 -1.69422 3.08203 0
M  V30 4112 H 407.994 -3.13813 2.09287 0
M  V30 4113 H 410.381 -2.69311 1.20647 0
M  V30 4114 H 410.462 -1.25237 2.23045 0
M  V30 4115 H 410.106 -2.72204 4.28798 0
M  V30 4116 H 410.036 -4.1563 3.23356 0
M  V30 4117 H 412.527 -2.71778 2.62574 0
M  V30 4118 H 412.84 -5.10513 5.80169 0
M  V30 4119 H 411.185 -4.5964 5.21302 0
M  V30 4120 H 414.376 -3.30739 3.31254 0
M  V30 4121 H 414.549 -4.39621 4.76064 0
M  V30 4122 N 407.956 -0.998596 -1.21925 0
M  V30 4123 C 409.372 -0.710303 -1.42923 0
M  V30 4124 C 409.572 0.716933 -1.88314 0
M  V30 4125 O 408.628 1.48712 -2.04062 0
M  V30 4126 C 409.941 -1.72072 -2.466 0
M  V30 4127 C 411.489 -1.73681 -2.60392 0
M  V30 4128 C 411.964 -2.73601 -3.67296 0
M  V30 4129 N 413.455 -2.7223 -3.7476 0
M  V30 4130 C 414.19 -3.46206 -4.57087 0
M  V30 4131 N 413.686 -4.29802 -5.43362 0
M  V30 4132 N 415.479 -3.34886 -4.51451 0
M  V30 4133 H 407.63 -1.92028 -0.9077 0
M  V30 4134 H 409.893 -0.828487 -0.460775 0
M  V30 4135 H 409.599 -2.74231 -2.20206 0
M  V30 4136 H 409.473 -1.51818 -3.45299 0
M  V30 4137 H 411.86 -0.722173 -2.86127 0
M  V30 4138 H 411.941 -1.98005 -1.61949 0
M  V30 4139 H 411.585 -3.75217 -3.42307 0
M  V30 4140 H 411.515 -2.46545 -4.65321 0
M  V30 4141 H 414.006 -2.11576 -3.1312 0
M  V30 4142 H 414.319 -4.83061 -6.03218 0
M  V30 4143 H 412.664 -4.33887 -5.42925 0
M  V30 4144 H 415.855 -2.69015 -3.83078 0
M  V30 4145 H 416.028 -3.92796 -5.15379 0
M  V30 4146 N 409.434 1.37368 -0.772513 0
M  V30 4147 C 410.397 2.28601 -0.165541 0
M  V30 4148 C 411.397 1.48062 0.627238 0
M  V30 4149 O 412.587 1.68268 0.450715 0
M  V30 4150 C 409.719 3.32023 0.772897 0
M  V30 4151 H 410.912 2.83787 -0.969787 0
M  V30 4152 H 408.465 1.46647 -0.540775 0
M  V30 4153 H 409.2 2.81962 1.60212 0
M  V30 4154 H 408.985 3.91555 0.206585 0
M  V30 4155 H 410.475 4.00197 1.19298 0
M  V30 4156 N 410.912 0.523116 1.48665 0
M  V30 4157 C 411.844 -0.280421 2.27478 0
M  V30 4158 C 412.857 -0.910694 1.34945 0
M  V30 4159 O 414.046 -0.790295 1.60052 0
M  V30 4160 C 411.146 -1.41171 3.08097 0
M  V30 4161 C 410.319 -0.884642 4.28361 0
M  V30 4162 C 409.378 -1.89622 4.90846 0
M  V30 4163 O 408.404 -1.4559 5.50265 0
M  V30 4164 N 409.606 -3.22801 4.82472 0
M  V30 4165 H 412.371 0.395481 2.97079 0
M  V30 4166 H 409.932 0.357018 1.57915 0
M  V30 4167 H 411.924 -2.08645 3.4677 0
M  V30 4168 H 410.494 -1.99139 2.40961 0
M  V30 4169 H 409.714 -0.0341177 3.94185 0
M  V30 4170 H 411.002 -0.511268 5.06225 0
M  V30 4171 H 410.4 -3.61246 4.35336 0
M  V30 4172 H 408.957 -3.85927 5.25265 0
M  V30 4173 N 412.39 -1.55475 0.257931 0
M  V30 4174 C 413.615 -2.04064 -0.370488 0
M  V30 4175 C 414.04 -1.13565 -1.49948 0
M  V30 4176 O 413.398 -0.130781 -1.80828 0
M  V30 4177 C 413.446 -3.50554 -0.845237 0
M  V30 4178 O 412.55 -3.63173 -1.95394 0
M  V30 4179 H 411.891 -0.659257 -0.0792243 0
M  V30 4180 H 414.421 -2.00903 0.387212 0
M  V30 4181 H 414.431 -3.91588 -1.14555 0
M  V30 4182 H 413.106 -4.15896 -0.0191259 0
M  V30 4183 H 411.683 -3.34039 -1.65748 0
M  V30 4184 N 413.868 0.0150385 -1.57593 0
M  V30 4185 C 415.114 0.704043 -1.90187 0
M  V30 4186 C 415.447 1.74249 -0.857366 0
M  V30 4187 O 414.722 1.94092 0.125843 0
M  V30 4188 C 415.005 1.36087 -3.33395 0
M  V30 4189 C 414.858 0.334981 -4.48551 0
M  V30 4190 C 416.177 2.29112 -3.7576 0
M  V30 4191 H 413.296 0.254475 -0.691673 0
M  V30 4192 H 415.938 -0.0331678 -1.89971 0
M  V30 4193 H 414.088 1.98922 -3.3371 0
M  V30 4194 H 415.76 -0.292534 -4.60372 0
M  V30 4195 H 414.003 -0.344325 -4.32431 0
M  V30 4196 H 414.674 0.833316 -5.45674 0
M  V30 4197 H 417.15 1.76308 -3.76902 0
M  V30 4198 H 416.026 2.72043 -4.76743 0
M  V30 4199 H 416.287 3.16385 -3.08793 0
M  V30 4200 N 415.346 1.54954 0.287554 0
M  V30 4201 C 416.592 1.75132 1.02257 0
M  V30 4202 C 416.925 0.542858 1.86458 0
M  V30 4203 O 416.2 -0.459856 1.88986 0
M  V30 4204 C 416.483 3.04812 1.91733 0
M  V30 4205 C 416.336 4.35985 1.10622 0
M  V30 4206 C 417.655 3.30438 2.90687 0
M  V30 4207 H 414.774 0.637194 0.370341 0
M  V30 4208 H 417.416 1.87678 0.296111 0
M  V30 4209 H 415.566 2.94247 2.53675 0
M  V30 4210 H 417.238 4.58487 0.508636 0
M  V30 4211 H 415.481 4.31865 0.409271 0
M  V30 4212 H 416.152 5.23017 1.76513 0
M  V30 4213 H 418.628 3.40701 2.38877 0
M  V30 4214 H 417.504 4.22467 3.50447 0
M  V30 4215 H 417.765 2.49377 3.65053 0
M  V30 4216 N 416.824 -0.551391 1.4764 0
M  V30 4217 C 418.101 -1.31229 1.45046 0
M  V30 4218 C 418.481 -2.10563 0.150527 0
M  V30 4219 O 417.829 -2.11374 -0.867956 0
M  V30 4220 C 418.039 -2.21189 2.69956 0
M  V30 4221 C 419.387 -2.82021 3.1741 0
M  V30 4222 O 420.411 -2.31488 2.70724 0
M  V30 4223 O 419.27 -3.73885 3.98588 0
M  V30 4224 H 416.364 -0.591193 0.578291 0
M  V30 4225 H 418.91 -0.569813 1.59847 0
M  V30 4226 H 417.682 -1.62207 3.56096 0
M  V30 4227 H 417.305 -3.02722 2.57769 0
M  V30 4228 N 418.302 -1.35869 -0.798587 0
M  V30 4229 C 419.532 -1.32529 -1.58491 0
M  V30 4230 C 419.94 0.0975405 -1.88948 0
M  V30 4231 O 419.283 1.06224 -1.49874 0
M  V30 4232 C 419.345 -2.07247 -2.9375 0
M  V30 4233 C 419.009 -3.56391 -2.86068 0
M  V30 4234 C 420.006 -4.50824 -2.58947 0
M  V30 4235 C 417.691 -3.9915 -3.04933 0
M  V30 4236 C 419.685 -5.85993 -2.5078 0
M  V30 4237 C 417.372 -5.34413 -2.96389 0
M  V30 4238 C 418.37 -6.27646 -2.69349 0
M  V30 4239 O 418.058 -7.60426 -2.60782 0
M  V30 4240 H 417.79 -0.456529 -0.498556 0
M  V30 4241 H 420.344 -1.79425 -0.999799 0
M  V30 4242 H 418.574 -1.55001 -3.54276 0
M  V30 4243 H 420.263 -1.96883 -3.54954 0
M  V30 4244 H 421.029 -4.19104 -2.44084 0
M  V30 4245 H 416.908 -3.26961 -3.24989 0
M  V30 4246 H 420.452 -6.58735 -2.29595 0
M  V30 4247 H 416.349 -5.65743 -3.10813 0
M  V30 4248 H 417.117 -7.70444 -2.76331 0
M  V30 4249 N 419.78 1.02168 -1.19998 0
M  V30 4250 C 420.71 2.12488 -0.96804 0
M  V30 4251 C 421.691 1.69799 0.101185 0
M  V30 4252 O 422.876 1.94121 -0.0552993 0
M  V30 4253 C 420.006 3.43479 -0.513776 0
M  V30 4254 C 418.96 3.99884 -1.52566 0
M  V30 4255 C 418.286 5.26582 -0.928214 0
M  V30 4256 C 419.586 4.33861 -2.90795 0
M  V30 4257 H 421.28 2.32149 -1.89069 0
M  V30 4258 H 418.826 1.11564 -0.910468 0
M  V30 4259 H 420.779 4.20036 -0.338774 0
M  V30 4260 H 419.503 3.23561 0.444493 0
M  V30 4261 H 418.162 3.25429 -1.68794 0
M  V30 4262 H 417.81 5.02986 0.0378289 0
M  V30 4263 H 417.51 5.65284 -1.60397 0
M  V30 4264 H 419.034 6.05799 -0.764167 0
M  V30 4265 H 420.448 5.01327 -2.78109 0
M  V30 4266 H 418.845 4.83664 -3.55231 0
M  V30 4267 H 419.915 3.42848 -3.42904 0
M  V30 4268 N 421.258 1.00505 1.21394 0
M  V30 4269 C 422.507 0.683159 1.89778 0
M  V30 4270 C 422.82 -0.789471 1.7896 0
M  V30 4271 O 424.026 -1.22344 2.42372 0
M  V30 4272 C 422.482 1.17146 3.40301 0
M  V30 4273 C 422.09 2.67017 3.5973 0
M  V30 4274 C 423.834 0.924461 4.14311 0
M  V30 4275 C 421.741 3.09387 5.04017 0
M  V30 4276 H 420.671 0.25183 0.710702 0
M  V30 4277 H 423.322 1.21622 1.37406 0
M  V30 4278 H 421.704 0.566451 3.91928 0
M  V30 4279 H 422.878 3.32968 3.18542 0
M  V30 4280 H 421.193 2.89732 2.99073 0
M  V30 4281 H 423.79 1.21658 5.20676 0
M  V30 4282 H 424.133 -0.139286 4.16067 0
M  V30 4283 H 424.666 1.49226 3.6875 0
M  V30 4284 H 421.405 4.14989 5.07409 0
M  V30 4285 H 420.925 2.48149 5.46061 0
M  V30 4286 H 422.604 3.01371 5.72525 0
M  V30 4287 N 422.737 -1.36956 0.779787 0
M  V30 4288 C 423.962 -2.04283 0.358224 0
M  V30 4289 C 424.387 -1.58422 -1.01411 0
M  V30 4290 O 423.745 -0.748179 -1.65142 0
M  V30 4291 C 423.793 -3.58152 0.419479 0
M  V30 4292 O 422.897 -4.08342 -0.577142 0
M  V30 4293 H 422.238 -0.645967 0.153698 0
M  V30 4294 H 424.768 -1.75108 1.05822 0
M  V30 4295 H 424.778 -4.07041 0.279636 0
M  V30 4296 H 423.453 -3.90886 1.42061 0
M  V30 4297 H 422.03 -3.70751 -0.399755 0
M  V30 4298 N 424.215 -0.530993 -1.48385 0
M  V30 4299 C 425.162 0.231223 -2.29639 0
M  V30 4300 C 426.132 0.932864 -1.37429 0
M  V30 4301 O 427.317 0.933692 -1.66394 0
M  V30 4302 C 424.457 1.27155 -3.2082 0
M  V30 4303 C 423.57 0.578655 -4.28107 0
M  V30 4304 C 422.705 1.602 -5.06467 0
M  V30 4305 C 421.744 0.892625 -6.05556 0
M  V30 4306 N 420.881 1.86157 -6.76971 0
M  V30 4307 H 425.721 -0.467848 -2.94305 0
M  V30 4308 H 423.258 -0.242556 -1.45086 0
M  V30 4309 H 425.216 1.88703 -3.72085 0
M  V30 4310 H 423.846 1.939 -2.58075 0
M  V30 4311 H 422.898 -0.150782 -3.80101 0
M  V30 4312 H 424.21 0.0217065 -4.98795 0
M  V30 4313 H 423.364 2.29173 -5.61751 0
M  V30 4314 H 422.103 2.19285 -4.35621 0
M  V30 4315 H 421.108 0.188829 -5.49476 0
M  V30 4316 H 422.333 0.307878 -6.78402 0
M  V30 4317 H 420.279 2.44147 -6.08875 0
M  V30 4318 H 420.196 1.35608 -7.43738 0
M  V30 4319 H 421.464 2.54325 -7.36844 0
M  V30 4320 N 425.693 1.55336 -0.266172 0
M  V30 4321 C 426.941 1.99003 0.35246 0
M  V30 4322 C 427.262 1.15591 1.57047 0
M  V30 4323 O 426.532 0.243268 1.94384 0
M  V30 4324 H 425.112 0.735025 0.133217 0
M  V30 4325 H 427.774 1.91367 -0.369434 0
M  V30 4326 H 426.87 3.05289 0.648453 0
M  V30 4327 N 427.171 -0.0066808 1.57599 0
M  V30 4328 C 428.42 -0.692078 1.89455 0
M  V30 4329 C 428.733 -1.75306 0.867586 0
M  V30 4330 O 429.939 -2.49262 1.07614 0
M  V30 4331 C 428.395 -1.2821 3.36289 0
M  V30 4332 C 428.003 -0.256291 4.47266 0
M  V30 4333 C 429.747 -1.94608 3.77264 0
M  V30 4334 C 427.654 -0.855927 5.85173 0
M  V30 4335 H 426.584 -0.262252 0.706923 0
M  V30 4336 H 429.235 0.052769 1.83424 0
M  V30 4337 H 427.617 -2.0774 3.37135 0
M  V30 4338 H 428.791 0.513923 4.57925 0
M  V30 4339 H 427.106 0.306862 4.15268 0
M  V30 4340 H 429.703 -2.40364 4.77629 0
M  V30 4341 H 430.046 -2.77382 3.10427 0
M  V30 4342 H 430.579 -1.21822 3.78688 0
M  V30 4343 H 427.318 -0.0671161 6.55466 0
M  V30 4344 H 426.838 -1.59546 5.78191 0
M  V30 4345 H 428.517 -1.35658 6.32618 0
M  V30 4346 N 428.649 -1.55105 -0.279332 0
M  V30 4347 C 430.06 -1.66186 -0.850832 0
M  V30 4348 C 430.411 -0.584707 -1.87285 0
M  V30 4349 O 429.536 0.274919 -2.14647 0
M  V30 4350 C 430.131 -3.01264 -1.55001 0
M  V30 4351 C 428.69 -3.14394 -2.06963 0
M  V30 4352 C 427.837 -2.61959 -0.909536 0
M  V30 4353 H 430.788 -1.58602 -0.0558235 0
M  V30 4354 H 430.809 -2.93899 -2.41669 0
M  V30 4355 H 430.321 -3.7964 -0.805931 0
M  V30 4356 H 428.422 -2.4078 -2.84352 0
M  V30 4357 H 428.535 -4.20867 -2.28928 0
M  V30 4358 H 426.899 -2.18957 -1.30116 0
M  V30 4359 H 427.682 -3.42833 -0.179062 0
M  V30 4360 N 430.127 0.543554 -1.4793 0
M  V30 4361 C 431.09 1.63156 -1.60975 0
M  V30 4362 C 432.09 1.53346 -0.483899 0
M  V30 4363 O 433.28 1.5726 -0.749339 0
M  V30 4364 C 430.412 3.02743 -1.56716 0
M  V30 4365 H 431.605 1.52934 -2.57975 0
M  V30 4366 H 429.158 0.764557 -1.36324 0
M  V30 4367 H 429.893 3.18484 -0.611418 0
M  V30 4368 H 429.678 3.11272 -2.38438 0
M  V30 4369 H 431.168 3.81871 -1.6901 0
M  V30 4370 N 431.605 1.3629 0.791371 0
M  V30 4371 C 432.882 1.20962 1.53712 0
M  V30 4372 C 433.262 -0.205021 2.10102 0
M  V30 4373 O 432.61 -1.21042 1.93807 0
M  V30 4374 C 432.82 2.29002 2.63361 0
M  V30 4375 C 434.168 2.65572 3.31295 0
M  V30 4376 O 435.192 2.2803 2.73643 0
M  V30 4377 O 434.051 3.3018 4.35481 0
M  V30 4378 H 431.145 0.47086 0.679867 0
M  V30 4379 H 433.691 1.48016 0.830021 0
M  V30 4380 H 432.463 3.2382 2.19674 0
M  V30 4381 H 432.086 2.03303 3.41692 0
M  V30 4382 N 433.083 -1.0153 1.20538 0
M  V30 4383 C 434.03 -2.10098 0.955383 0
M  V30 4384 C 435 -1.65702 -0.114878 0
M  V30 4385 O 436.185 -1.90776 0.0301118 0
M  V30 4386 C 433.325 -3.41236 0.514969 0
M  V30 4387 C 432.438 -3.99102 1.65353 0
M  V30 4388 C 431.573 -5.18306 1.16329 0
M  V30 4389 C 430.612 -5.68258 2.27485 0
M  V30 4390 N 429.749 -6.78722 1.7967 0
M  V30 4391 H 434.589 -2.30818 1.88486 0
M  V30 4392 H 432.126 -1.13189 0.939499 0
M  V30 4393 H 434.084 -4.16504 0.240935 0
M  V30 4394 H 432.714 -3.20585 -0.377512 0
M  V30 4395 H 431.766 -3.20918 2.04245 0
M  V30 4396 H 433.078 -4.32177 2.49047 0
M  V30 4397 H 432.232 -6.00782 0.845302 0
M  V30 4398 H 430.971 -4.86799 0.296254 0
M  V30 4399 H 429.976 -4.84385 2.60099 0
M  V30 4400 H 431.201 -6.01798 3.14667 0
M  V30 4401 H 429.147 -6.49042 0.95295 0
M  V30 4402 H 429.064 -7.10996 2.56944 0
M  V30 4403 H 430.332 -7.64759 1.50875 0
M  V30 4404 N 434.561 -1.01147 -1.20859 0
M  V30 4405 C 435.81 -0.693214 -1.89413 0
M  V30 4406 C 436.123 0.779969 -1.79376 0
M  V30 4407 O 437.329 1.21057 -2.43017 0
M  V30 4408 C 435.785 -1.18949 -3.39675 0
M  V30 4409 C 435.393 -2.68921 -3.58309 0
M  V30 4410 C 437.137 -0.94642 -4.13815 0
M  V30 4411 C 435.044 -3.12056 -5.0237 0
M  V30 4412 H 433.974 -0.255595 -0.709357 0
M  V30 4413 H 436.625 -1.22349 -1.36759 0
M  V30 4414 H 435.007 -0.587228 -3.91622 0
M  V30 4415 H 436.181 -3.34652 -3.16772 0
M  V30 4416 H 434.496 -2.91314 -2.97532 0
M  V30 4417 H 437.093 -1.24417 -5.20023 0
M  V30 4418 H 437.436 0.117219 -4.16135 0
M  V30 4419 H 437.969 -1.5118 -3.67953 0
M  V30 4420 H 434.708 -4.17674 -5.05202 0
M  V30 4421 H 434.228 -2.51041 -5.44737 0
M  V30 4422 H 435.907 -3.04403 -5.70918 0
M  V30 4423 N 436.039 1.36541 -0.78704 0
M  V30 4424 C 437.264 2.0409 -0.369053 0
M  V30 4425 C 437.689 1.58957 1.00569 0
M  V30 4426 O 437.047 0.756926 1.64743 0
M  V30 4427 C 437.095 3.57924 -0.438466 0
M  V30 4428 O 436.199 4.08642 0.555479 0
M  V30 4429 H 435.54 0.645142 -0.157122 0
M  V30 4430 H 438.07 1.74545 -1.06749 0
M  V30 4431 H 438.08 4.06887 -0.301218 0
M  V30 4432 H 436.755 3.90127 -1.44132 0
M  V30 4433 H 435.332 3.70958 0.380088 0
M  V30 4434 N 437.518 0.538854 1.48102 0
M  V30 4435 C 438.481 -0.208395 2.28251 0
M  V30 4436 C 439.481 -0.859656 1.35892 0
M  V30 4437 O 440.671 -0.71834 1.58699 0
M  V30 4438 C 437.803 -1.30252 3.15035 0
M  V30 4439 H 438.996 0.495407 2.9578 0
M  V30 4440 H 436.549 0.295112 1.53489 0
M  V30 4441 H 437.284 -2.0393 2.52157 0
M  V30 4442 H 437.069 -0.840551 3.82985 0
M  V30 4443 H 438.559 -1.82787 3.75471 0
M  V30 4444 N 438.996 -1.55193 0.274407 0
M  V30 4445 C 440.412 -1.59401 -0.0797543 0
M  V30 4446 C 440.612 -1.29162 -1.54659 0
M  V30 4447 O 439.668 -1.05215 -2.29534 0
M  V30 4448 C 440.981 -2.99257 0.294238 0
M  V30 4449 C 442.529 -3.12072 0.240796 0
M  V30 4450 C 443.004 -4.54194 0.589218 0
M  V30 4451 N 444.495 -4.60033 0.540744 0
M  V30 4452 C 445.23 -5.68027 0.783147 0
M  V30 4453 N 444.726 -6.8417 1.09013 0
M  V30 4454 N 446.519 -5.57572 0.711993 0
M  V30 4455 H 438.67 -1.73113 1.23067 0
M  V30 4456 H 440.933 -0.807197 0.497129 0
M  V30 4457 H 440.639 -3.26217 1.31435 0
M  V30 4458 H 440.513 -3.75427 -0.365281 0
M  V30 4459 H 442.9 -2.84877 -0.770024 0
M  V30 4460 H 442.981 -2.38117 0.934563 0
M  V30 4461 H 442.625 -4.82115 1.59772 0
M  V30 4462 H 442.555 -5.26448 -0.126331 0
M  V30 4463 H 445.046 -3.76599 0.313327 0
M  V30 4464 H 445.359 -7.6243 1.26178 0
M  V30 4465 H 443.704 -6.85787 1.12789 0
M  V30 4466 H 446.895 -4.65714 0.472014 0
M  V30 4467 H 447.068 -6.41659 0.90429 0
M  V30 4468 N 440.474 -0.00167713 -1.576 0
M  V30 4469 C 441.722 0.681471 -1.90264 0
M  V30 4470 C 442.043 1.7422 -0.875924 0
M  V30 4471 O 441.313 1.95709 0.0864412 0
M  V30 4472 H 439.893 0.254696 -0.702239 0
M  V30 4473 H 442.555 -0.0429996 -1.94853 0
M  V30 4474 H 441.651 1.15166 -2.90075 0
M  V30 4475 N 441.952 1.55251 0.271103 0
M  V30 4476 C 442.885 1.83191 1.36075 0
M  V30 4477 C 443.863 0.685091 1.47463 0
M  V30 4478 O 445.047 0.928292 1.64058 0
M  V30 4479 C 442.174 1.99521 2.73696 0
M  V30 4480 C 441.22 3.22081 2.79582 0
M  V30 4481 S 442.053 4.79388 2.38636 0
M  V30 4482 C 443.209 4.98693 3.78228 0
M  V30 4483 H 443.442 2.75327 1.12171 0
M  V30 4484 H 440.975 1.47046 0.470833 0
M  V30 4485 H 442.933 2.09613 3.52948 0
M  V30 4486 H 441.594 1.0827 2.9485 0
M  V30 4487 H 440.787 3.304 3.80594 0
M  V30 4488 H 440.389 3.10589 2.08352 0
M  V30 4489 H 442.681 4.84551 4.73515 0
M  V30 4490 H 443.624 6.00738 3.7486 0
M  V30 4491 H 444.032 4.26665 3.69618 0
M  V30 4492 N 443.43 -0.535701 1.48216 0
M  V30 4493 C 444.678 -1.28928 1.55634 0
M  V30 4494 C 444.999 -1.93645 0.229514 0
M  V30 4495 O 444.269 -1.81038 -0.74846 0
M  V30 4496 H 442.849 -0.47884 0.573342 0
M  V30 4497 H 445.511 -0.623853 1.84646 0
M  V30 4498 H 444.607 -2.07157 2.33436 0
M  V30 4499 N 444.908 -1.36708 -0.784132 0
M  V30 4500 C 445.818 -1.3363 -1.92822 0
M  V30 4501 C 446.834 -0.237686 -1.72369 0
M  V30 4502 O 448.01 -0.470962 -1.95816 0
M  V30 4503 C 445.075 -1.13011 -3.27764 0
M  V30 4504 C 444.136 -2.32397 -3.60957 0
M  V30 4505 C 443.369 -2.12752 -4.89461 0
M  V30 4506 O 443.592 -1.10541 -5.59586 0
M  V30 4507 O 442.526 -3.00653 -5.21432 0
M  V30 4508 H 446.352 -2.29964 -1.98369 0
M  V30 4509 H 443.937 -1.1731 -0.925136 0
M  V30 4510 H 445.819 -1.03451 -4.08504 0
M  V30 4511 H 444.494 -0.19743 -3.23097 0
M  V30 4512 H 443.401 -2.47527 -2.80502 0
M  V30 4513 H 444.734 -3.2419 -3.70354 0
M  V30 4514 N 446.386 1.0089 -1.21074 0
M  V30 4515 C 447.611 1.78727 -1.05221 0
M  V30 4516 C 448.036 1.83932 0.393795 0
M  V30 4517 O 447.394 1.28004 1.28393 0
M  V30 4518 C 447.442 3.20665 -1.64944 0
M  V30 4519 O 446.546 4.02632 -0.892273 0
M  V30 4520 H 445.887 0.550973 -0.370574 0
M  V30 4521 H 448.417 1.26847 -1.60534 0
M  V30 4522 H 448.427 3.71352 -1.69002 0
M  V30 4523 H 447.102 3.16191 -2.70177 0
M  V30 4524 H 445.679 3.61207 -0.926492 0
M  V30 4525 N 447.864 1.01787 1.20321 0
M  V30 4526 C 448.812 0.58254 2.25187 0
M  V30 4527 C 449.806 -0.379359 1.65098 0
M  V30 4528 O 451.012 -0.249142 1.78267 0
M  V30 4529 H 447.387 0.170078 0.732514 0
M  V30 4530 H 449.358 1.47788 2.59232 0
M  V30 4531 C 448.107 -0.0620885 3.47645 0
M  V30 4532 H 447.43 0.669069 3.94162 0
M  V30 4533 H 448.87 -0.329784 4.22716 0
M  V30 4534 C 447.329 -1.3053 3.10586 0
M  V30 4535 O 447.859 -2.39848 3.22236 0
M  V30 4536 N 446.065 -1.18988 2.65123 0
M  V30 4537 H 445.612 -0.300341 2.55843 0
M  V30 4538 H 445.57 -2.02267 2.40698 0
M  V30 4539 N 449.342 -1.36122 0.79427 0
M  V30 4540 C 450.753 -1.81646 0.431446 0
M  V30 4541 C 451.104 -1.66043 -1.04518 0
M  V30 4542 O 450.229 -1.1841 -1.8113 0
M  V30 4543 C 450.824 -3.29785 0.776341 0
M  V30 4544 C 449.383 -3.73501 0.466282 0
M  V30 4545 C 448.53 -2.58313 1.00844 0
M  V30 4546 H 451.481 -1.24274 0.986995 0
M  V30 4547 H 451.502 -3.80437 0.0692413 0
M  V30 4548 H 451.014 -3.4111 1.8511 0
M  V30 4549 H 449.115 -3.67733 -0.600245 0
M  V30 4550 H 449.228 -4.68754 0.990288 0
M  V30 4551 H 447.592 -2.5102 0.431406 0
M  V30 4552 H 448.375 -2.72421 2.08906 0
M  V30 4553 N 450.82 -0.546701 -1.47814 0
M  V30 4554 C 452.066 -0.0187684 -2.02791 0
M  V30 4555 C 452.399 1.32338 -1.42128 0
M  V30 4556 O 451.674 1.85867 -0.573023 0
M  V30 4557 C 451.957 0.0854985 -3.59998 0
M  V30 4558 C 451.81 -1.283 -4.31114 0
M  V30 4559 C 453.129 0.80412 -4.32691 0
M  V30 4560 H 450.248 -0.0082946 -0.736953 0
M  V30 4561 H 452.89 -0.706962 -1.76358 0
M  V30 4562 H 451.04 0.671609 -3.82651 0
M  V30 4563 H 452.712 -1.91151 -4.19832 0
M  V30 4564 H 450.955 -1.86049 -3.91878 0
M  V30 4565 H 451.626 -1.16287 -5.39612 0
M  V30 4566 H 454.102 0.306576 -4.14969 0
M  V30 4567 H 452.978 0.846011 -5.42341 0
M  V30 4568 H 453.239 1.85802 -4.01161 0
M  V30 4569 N 452.299 1.55045 -0.282633 0
M  V30 4570 C 453.527 2.04168 0.33512 0
M  V30 4571 C 453.942 1.16071 1.48906 0
M  V30 4572 O 453.299 0.182391 1.81586 0
M  V30 4573 C 453.35 3.52332 0.808957 0
M  V30 4574 O 453.071 4.37078 -0.299038 0
M  V30 4575 C 454.572 4.17375 1.49375 0
M  V30 4576 H 451.792 0.666744 0.0754543 0
M  V30 4577 H 454.336 2.00205 -0.416918 0
M  V30 4578 H 452.491 3.56715 1.51106 0
M  V30 4579 H 452.905 5.24458 0.0665514 0
M  V30 4580 H 454.379 5.22627 1.77664 0
M  V30 4581 H 454.856 3.65999 2.42778 0
M  V30 4582 H 455.462 4.17016 0.835305 0
M  V30 4583 N 453.777 0.010035 1.57597 0
M  V30 4584 C 455.025 -0.671371 1.90623 0
M  V30 4585 C 455.346 -1.73753 0.885151 0
M  V30 4586 O 454.616 -1.95752 -0.0760611 0
M  V30 4587 H 453.196 -0.250968 0.703579 0
M  V30 4588 H 455.858 0.0533325 1.94827 0
M  V30 4589 H 454.954 -1.13626 2.90681 0
M  V30 4590 N 455.255 -1.55392 -0.262866 0
M  V30 4591 C 456.203 -1.8977 -1.345 0
M  V30 4592 C 457.197 -0.775063 -1.50629 0
M  V30 4593 O 458.403 -0.959519 -1.52293 0
M  V30 4594 H 454.778 -0.602467 -0.450041 0
M  V30 4595 H 456.749 -2.80147 -1.02762 0
M  V30 4596 C 455.498 -2.19501 -2.69657 0
M  V30 4597 H 454.821 -3.05378 -2.5804 0
M  V30 4598 H 456.261 -2.47469 -3.44289 0
M  V30 4599 C 454.72 -1.00597 -3.21531 0
M  V30 4600 O 455.25 -0.245768 -4.00947 0
M  V30 4601 N 453.456 -0.800911 -2.79345 0
M  V30 4602 H 453.003 -1.42079 -2.14875 0
M  V30 4603 H 452.961 -0.00697996 -3.14399 0
M  V30 4604 N 456.733 0.527833 -1.48498 0
M  V30 4605 C 457.961 1.30823 -1.6029 0
M  V30 4606 C 458.376 1.86945 -0.263974 0
M  V30 4607 O 457.733 1.6651 0.747034 0
M  V30 4608 C 457.784 2.45756 -2.65116 0
M  V30 4609 O 457.505 1.91946 -3.93813 0
M  V30 4610 C 459.006 3.37543 -2.87367 0
M  V30 4611 H 456.226 0.397763 -0.540394 0
M  V30 4612 H 458.77 0.636529 -1.94341 0
M  V30 4613 H 456.925 3.08806 -2.33917 0
M  V30 4614 H 457.339 2.67195 -4.51339 0
M  V30 4615 H 458.813 4.14532 -3.6451 0
M  V30 4616 H 459.29 3.92905 -1.9627 0
M  V30 4617 H 459.896 2.80283 -3.19878 0
M  V30 4618 N 458.211 1.37122 0.776871 0
M  V30 4619 C 459.451 1.33441 1.54831 0
M  V30 4620 C 459.815 -0.0818963 1.91825 0
M  V30 4621 O 461.016 -0.24338 2.67696 0
M  V30 4622 C 459.287 2.24267 2.78279 0
M  V30 4623 S 460.846 2.38389 3.68397 0
M  V30 4624 H 457.664 0.473791 0.530135 0
M  V30 4625 H 460.266 1.7282 0.913968 0
M  V30 4626 H 458.97 3.261 2.49173 0
M  V30 4627 H 458.501 1.85953 3.46677 0
M  V30 4628 H 460.516 1.59068 4.70013 0
M  V30 4629 N 459.689 -1.00246 1.21608 0
M  V30 4630 C 460.966 -1.71336 0.943568 0
M  V30 4631 C 461.346 -2.03972 -0.543943 0
M  V30 4632 O 460.694 -1.71545 -1.50946 0
M  V30 4633 C 460.904 -2.97094 1.83128 0
M  V30 4634 C 462.252 -3.70071 2.08165 0
M  V30 4635 O 463.276 -3.07081 1.80498 0
M  V30 4636 O 462.135 -4.83376 2.54971 0
M  V30 4637 H 459.229 -0.747386 0.354039 0
M  V30 4638 H 461.775 -1.05967 1.32549 0
M  V30 4639 H 460.547 -2.69407 2.83788 0
M  V30 4640 H 460.17 -3.70204 1.45034 0
M  V30 4641 N 461.167 -1.02423 -1.1978 0
M  V30 4642 C 462.115 -0.594474 -2.24875 0
M  V30 4643 C 463.109 0.370598 -1.65296 0
M  V30 4644 O 464.315 0.239684 -1.78397 0
M  V30 4645 H 460.69 -0.173961 -0.731602 0
M  V30 4646 H 462.661 -1.4916 -2.58445 0
M  V30 4647 C 461.41 0.0436512 -3.47673 0
M  V30 4648 H 460.733 -0.689963 -3.93801 0
M  V30 4649 H 462.173 0.307362 -4.22884 0
M  V30 4650 C 460.632 1.28881 -3.11274 0
M  V30 4651 O 461.162 2.38135 -3.23503 0
M  V30 4652 N 459.368 1.1758 -2.6575 0
M  V30 4653 H 458.915 0.286769 -2.55999 0
M  V30 4654 H 458.873 2.00988 -2.41767 0
M  V30 4655 N 462.645 1.35699 -0.801477 0
M  V30 4656 C 463.891 1.99208 -0.380022 0
M  V30 4657 C 464.224 1.63445 1.04878 0
M  V30 4658 O 463.499 0.895223 1.72673 0
M  V30 4659 C 463.782 3.55755 -0.557708 0
M  V30 4660 C 463.635 4.01332 -2.03107 0
M  V30 4661 C 464.954 4.40096 0.0197968 0
M  V30 4662 H 462.073 0.723667 -0.139552 0
M  V30 4663 H 464.715 1.60928 -1.01006 0
M  V30 4664 H 462.865 3.88494 -0.0213741 0
M  V30 4665 H 464.537 3.79026 -2.62939 0
M  V30 4666 H 462.78 3.52429 -2.52936 0
M  V30 4667 H 463.451 5.10234 -2.1063 0
M  V30 4668 H 465.927 4.13786 -0.438179 0
M  V30 4669 H 464.803 5.48735 -0.134477 0
M  V30 4670 H 465.064 4.2786 1.11303 0
M  V30 4671 N 464.123 0.554532 1.47522 0
M  V30 4672 C 465.07 -0.19466 2.29978 0
M  V30 4673 C 466.04 -0.910882 1.38896 0
M  V30 4674 O 467.225 -0.907102 1.67858 0
M  V30 4675 C 464.365 -1.22035 3.22802 0
M  V30 4676 C 463.478 -0.510474 4.28973 0
M  V30 4677 C 462.613 -1.52123 5.08952 0
M  V30 4678 C 461.652 -0.796173 6.069 0
M  V30 4679 N 460.789 -1.75363 6.79847 0
M  V30 4680 H 465.629 0.51461 2.93523 0
M  V30 4681 H 463.166 0.265607 1.44682 0
M  V30 4682 H 465.124 -1.8276 3.7504 0
M  V30 4683 H 463.754 -1.89769 2.61127 0
M  V30 4684 H 462.806 0.211234 3.79813 0
M  V30 4685 H 464.118 0.0576503 4.98767 0
M  V30 4686 H 463.272 -2.20207 5.65326 0
M  V30 4687 H 462.011 -2.12327 4.39054 0
M  V30 4688 H 461.016 -0.101388 5.49707 0
M  V30 4689 H 462.241 -0.199911 6.78806 0
M  V30 4690 H 460.187 -2.3443 6.12682 0
M  V30 4691 H 460.104 -1.23759 7.45801 0
M  V30 4692 H 461.372 -2.4257 7.40797 0
M  V30 4693 N 465.601 -1.54893 0.290851 0
M  V30 4694 C 466.533 -2.20564 -0.623236 0
M  V30 4695 C 467.546 -1.19519 -1.1054 0
M  V30 4696 O 468.735 -1.46165 -1.02459 0
M  V30 4697 C 465.835 -2.83033 -1.86401 0
M  V30 4698 C 465.008 -4.09916 -1.52604 0
M  V30 4699 C 464.067 -4.56284 -2.62091 0
M  V30 4700 O 463.093 -5.2171 -2.27612 0
M  V30 4701 N 464.295 -4.27746 -3.92446 0
M  V30 4702 H 467.06 -2.99638 -0.0610915 0
M  V30 4703 H 464.621 -1.61508 0.112615 0
M  V30 4704 H 466.613 -3.1099 -2.58973 0
M  V30 4705 H 465.183 -2.0786 -2.33481 0
M  V30 4706 H 464.403 -3.89078 -0.633424 0
M  V30 4707 H 465.691 -4.92554 -1.27547 0
M  V30 4708 H 465.089 -3.7531 -4.23272 0
M  V30 4709 H 463.646 -4.60437 -4.61347 0
M  V30 4710 N 467.08 -0.0183926 -1.57589 0
M  V30 4711 C 468.496 0.337897 -1.55982 0
M  V30 4712 C 468.696 1.73604 -1.02294 0
M  V30 4713 O 467.752 2.43589 -0.664895 0
M  V30 4714 C 469.065 0.196305 -3.00059 0
M  V30 4715 C 470.613 0.269875 -3.11834 0
M  V30 4716 C 471.088 0.157197 -4.5773 0
M  V30 4717 N 472.579 0.214521 -4.62703 0
M  V30 4718 C 473.314 0.150955 -5.73201 0
M  V30 4719 N 472.81 0.0369212 -6.9279 0
M  V30 4720 N 474.603 0.204162 -5.61729 0
M  V30 4721 H 466.754 -0.93279 -1.90821 0
M  V30 4722 H 469.017 -0.359253 -0.877292 0
M  V30 4723 H 468.723 -0.766383 -3.43248 0
M  V30 4724 H 468.597 0.970908 -3.6449 0
M  V30 4725 H 470.984 1.22302 -2.68563 0
M  V30 4726 H 471.065 -0.534918 -2.50144 0
M  V30 4727 H 470.709 -0.792479 -5.01679 0
M  V30 4728 H 470.639 0.980717 -5.17387 0
M  V30 4729 H 473.13 0.303238 -3.76681 0
M  V30 4730 H 473.443 -0.00518321 -7.728 0
M  V30 4731 H 471.788 0.0022886 -6.95 0
M  V30 4732 H 474.979 0.291575 -4.67191 0
M  V30 4733 H 475.152 0.15116 -6.47824 0
M  V30 4734 N 468.558 1.5553 0.254621 0
M  V30 4735 C 469.521 1.88872 1.29846 0
M  V30 4736 C 470.521 0.764591 1.41459 0
M  V30 4737 O 471.711 1.03265 1.40293 0
M  V30 4738 C 468.843 2.11032 2.67728 0
M  V30 4739 H 470.036 2.82201 1.01502 0
M  V30 4740 H 467.589 1.48303 0.493556 0
M  V30 4741 H 468.324 1.20146 3.01223 0
M  V30 4742 H 468.109 2.92895 2.60682 0
M  V30 4743 H 469.599 2.38038 3.43115 0
M  V30 4744 N 470.036 -0.519951 1.48776 0
M  V30 4745 C 470.999 -1.60574 1.6355 0
M  V30 4746 C 471.999 -1.52557 0.508234 0
M  V30 4747 O 473.189 -1.56047 0.774262 0
M  V30 4748 C 470.321 -3.00211 1.61512 0
M  V30 4749 H 471.514 -1.4881 2.60376 0
M  V30 4750 H 469.067 -0.742772 1.37523 0
M  V30 4751 H 469.802 -3.17471 0.662009 0
M  V30 4752 H 469.587 -3.07439 2.43359 0
M  V30 4753 H 471.077 -3.79134 1.75064 0
M  V30 4754 N 471.514 -1.37532 -0.769588 0
M  V30 4755 C 472.444 -1.36172 -1.89682 0
M  V30 4756 C 473.425 -0.23001 -1.68538 0
M  V30 4757 O 474.61 -0.43069 -1.89364 0
M  V30 4758 C 471.74 -1.1701 -3.26995 0
M  V30 4759 C 470.694 -2.27216 -3.62708 0
M  V30 4760 C 470.02 -1.93174 -4.98586 0
M  V30 4761 C 471.32 -3.6941 -3.69234 0
M  V30 4762 H 473.014 -2.30499 -1.91078 0
M  V30 4763 H 470.56 -1.10953 -0.917902 0
M  V30 4764 H 472.513 -1.14688 -4.05493 0
M  V30 4765 H 471.237 -0.191395 -3.26039 0
M  V30 4766 H 469.896 -2.28697 -2.86519 0
M  V30 4767 H 469.544 -0.938281 -4.94171 0
M  V30 4768 H 469.244 -2.66973 -5.23449 0
M  V30 4769 H 470.768 -1.92443 -5.79481 0
M  V30 4770 H 472.182 -3.70047 -4.37879 0
M  V30 4771 H 470.579 -4.4228 -4.05597 0
M  V30 4772 H 471.649 -4.0288 -2.69844 0
M  V30 4773 N 472.992 0.995999 -1.22138 0
M  V30 4774 C 474.241 1.72928 -1.03821 0
M  V30 4775 C 474.554 1.90872 0.427444 0
M  V30 4776 O 475.76 2.61496 0.730212 0
M  V30 4777 C 474.216 3.11124 -1.80913 0
M  V30 4778 C 473.824 3.01122 -3.31707 0
M  V30 4779 C 475.568 3.8852 -1.71035 0
M  V30 4780 C 473.475 4.34453 -4.01253 0
M  V30 4781 H 472.405 0.648376 -0.384869 0
M  V30 4782 H 475.056 1.11213 -1.45959 0
M  V30 4783 H 473.438 3.73503 -1.31573 0
M  V30 4784 H 474.612 2.47926 -3.88419 0
M  V30 4785 H 472.927 2.3721 -3.42228 0
M  V30 4786 H 475.524 4.872 -2.20318 0
M  V30 4787 H 475.867 4.1087 -0.670196 0
M  V30 4788 H 476.4 3.32812 -2.17902 0
M  V30 4789 H 473.139 4.17303 -5.05508 0
M  V30 4790 H 472.659 4.87574 -3.49331 0
M  V30 4791 H 474.338 5.03215 -4.06674 0
M  V30 4792 N 474.47 1.03057 1.19235 0
M  V30 4793 C 475.747 0.642608 1.84743 0
M  V30 4794 C 476.127 -0.878577 1.91948 0
M  V30 4795 O 475.475 -1.77597 1.43776 0
M  V30 4796 C 475.685 1.30665 3.23616 0
M  V30 4797 C 477.033 1.43098 3.9976 0
M  V30 4798 O 478.057 1.26396 3.3302 0
M  V30 4799 O 476.916 1.70223 5.19313 0
M  V30 4800 H 474.01 0.223573 0.796206 0
M  V30 4801 H 476.556 1.12883 1.26711 0
M  V30 4802 H 475.328 2.34544 3.13217 0
M  V30 4803 H 474.951 0.808405 3.89295 0
M  V30 4804 N 475.948 -1.35272 0.808662 0
M  V30 4805 C 477.188 -2.00534 0.395668 0
M  V30 4806 C 477.552 -1.62755 -1.01857 0
M  V30 4807 O 478.753 -2.20752 -1.53368 0
M  V30 4808 C 477.024 -3.52732 0.575771 0
M  V30 4809 S 478.583 -4.38067 0.253507 0
M  V30 4810 H 475.401 -0.694962 0.150165 0
M  V30 4811 H 478.003 -1.64823 1.05137 0
M  V30 4812 H 476.707 -3.77714 1.60499 0
M  V30 4813 H 476.238 -3.93285 -0.0951739 0
M  V30 4814 H 478.253 -4.87252 -0.938068 0
M  V30 4815 N 477.426 -0.562348 -1.47226 0
M  V30 4816 C 478.356 0.170627 -2.32876 0
M  V30 4817 C 479.337 0.903748 -1.44106 0
M  V30 4818 O 480.522 0.883206 -1.72954 0
M  V30 4819 C 477.652 1.19786 -3.25989 0
M  V30 4820 C 476.606 0.580875 -4.2404 0
M  V30 4821 C 475.932 1.71311 -5.06514 0
M  V30 4822 C 477.232 -0.468714 -5.20193 0
M  V30 4823 H 478.926 -0.544441 -2.94408 0
M  V30 4824 H 476.472 -0.263271 -1.41573 0
M  V30 4825 H 478.425 1.71884 -3.84752 0
M  V30 4826 H 477.149 1.94294 -2.62521 0
M  V30 4827 H 475.808 0.0811538 -3.6651 0
M  V30 4828 H 475.456 2.44736 -4.39447 0
M  V30 4829 H 475.156 1.30604 -5.72902 0
M  V30 4830 H 476.68 2.23725 -5.68137 0
M  V30 4831 H 478.094 -0.0336028 -5.7329 0
M  V30 4832 H 476.491 -0.794957 -5.94811 0
M  V30 4833 H 477.561 -1.36269 -4.65359 0
M  V30 4834 N 478.904 1.54736 -0.299062 0
M  V30 4835 C 479.867 2.22127 0.565012 0
M  V30 4836 C 480.867 1.20669 1.06281 0
M  V30 4837 O 482.057 1.45417 0.959145 0
M  V30 4838 C 479.189 2.90611 1.78208 0
M  V30 4839 H 480.382 2.99891 -0.0237448 0
M  V30 4840 H 477.935 1.5622 -0.0498788 0
M  V30 4841 H 478.67 2.16921 2.41072 0
M  V30 4842 H 478.455 3.64984 1.43281 0
M  V30 4843 H 479.945 3.42026 2.396 0
M  V30 4844 N 480.382 0.0267497 1.57577 0
M  V30 4845 C 481.793 -0.512413 1.79531 0
M  V30 4846 C 482.144 -1.72391 0.936791 0
M  V30 4847 O 481.269 -2.15903 0.146543 0
M  V30 4848 C 481.864 -0.936378 3.25603 0
M  V30 4849 C 480.423 -1.42067 3.4856 0
M  V30 4850 C 479.57 -0.384278 2.74624 0
M  V30 4851 H 482.521 0.252797 1.56674 0
M  V30 4852 H 482.542 -1.80088 3.35184 0
M  V30 4853 H 482.054 -0.0544332 3.88062 0
M  V30 4854 H 480.155 -2.32262 2.9135 0
M  V30 4855 H 480.268 -1.42968 4.57271 0
M  V30 4856 H 478.632 -0.851855 2.40032 0
M  V30 4857 H 479.415 0.489159 3.39797 0
M  V30 4858 N 481.861 -1.55662 -0.24637 0
M  V30 4859 C 483.138 -1.68272 -0.997198 0
M  V30 4860 C 483.518 -0.566785 -2.03349 0
M  V30 4861 O 482.866 0.429688 -2.24424 0
M  V30 4862 C 483.076 -3.08594 -1.63006 0
M  V30 4863 C 484.424 -3.6721 -2.13171 0
M  V30 4864 O 485.448 -3.11397 -1.72946 0
M  V30 4865 O 484.307 -4.65054 -2.87031 0
M  V30 4866 H 481.401 -0.684429 -0.464205 0
M  V30 4867 H 483.947 -1.67993 -0.240114 0
M  V30 4868 H 482.719 -3.81264 -0.880527 0
M  V30 4869 H 482.342 -3.12886 -2.45333 0
M  V30 4870 N 483.339 0.512053 -1.4905 0
M  V30 4871 C 484.755 0.84224 -1.35567 0
M  V30 4872 C 484.955 1.97878 -0.380319 0
M  V30 4873 O 484.011 2.51769 0.19201 0
M  V30 4874 C 485.324 1.19286 -2.76028 0
M  V30 4875 C 486.872 1.30171 -2.84648 0
M  V30 4876 C 487.347 1.68568 -4.25851 0
M  V30 4877 N 488.838 1.75638 -4.28609 0
M  V30 4878 C 489.573 2.06769 -5.34821 0
M  V30 4879 N 489.069 2.36201 -6.51292 0
M  V30 4880 N 490.862 2.07927 -5.22229 0
M  V30 4881 H 483.013 -0.237574 -2.11067 0
M  V30 4882 H 485.276 -0.0436747 -0.946993 0
M  V30 4883 H 484.982 0.431199 -3.49047 0
M  V30 4884 H 484.856 2.13889 -3.10695 0
M  V30 4885 H 487.243 2.05411 -2.11873 0
M  V30 4886 H 487.324 0.336457 -2.53578 0
M  V30 4887 H 486.968 0.938824 -4.99148 0
M  V30 4888 H 486.898 2.66174 -4.54377 0
M  V30 4889 H 489.389 1.55097 -3.44606 0
M  V30 4890 H 489.702 2.59112 -7.28066 0
M  V30 4891 H 488.047 2.33681 -6.54536 0
M  V30 4892 H 491.238 1.84403 -4.30248 0
M  V30 4893 H 491.411 2.31856 -6.05101 0
M  V30 4894 N 484.817 1.37938 0.762283 0
M  V30 4895 C 486.233 1.18945 1.06415 0
M  V30 4896 C 486.433 0.0321163 2.01474 0
M  V30 4897 O 485.489 -0.624844 2.44647 0
M  V30 4898 C 486.802 2.51218 1.65258 0
M  V30 4899 C 488.35 2.57824 1.7747 0
M  V30 4900 C 488.825 3.90251 2.39725 0
M  V30 4901 N 490.316 3.91744 2.47166 0
M  V30 4902 C 491.051 4.90966 2.96209 0
M  V30 4903 N 490.547 6.00585 3.45354 0
M  V30 4904 N 492.34 4.78363 2.9517 0
M  V30 4905 H 484.491 2.11994 0.131301 0
M  V30 4906 H 486.754 0.940262 0.120879 0
M  V30 4907 H 486.46 3.36317 1.02878 0
M  V30 4908 H 486.334 2.68989 2.64433 0
M  V30 4909 H 488.721 1.73126 2.3898 0
M  V30 4910 H 488.802 2.43928 0.770241 0
M  V30 4911 H 488.446 4.75368 1.78852 0
M  V30 4912 H 488.376 4.01454 3.40796 0
M  V30 4913 H 490.867 3.12563 2.12397 0
M  V30 4914 H 491.18 6.72236 3.81207 0
M  V30 4915 H 489.525 6.04217 3.43434 0
M  V30 4916 H 492.716 3.91841 2.56082 0
M  V30 4917 H 492.889 5.55843 3.33081 0
M  V30 4918 N 486.295 -0.989507 1.22664 0
M  V30 4919 C 487.541 -1.7321 1.05481 0
M  V30 4920 C 487.874 -1.89852 -0.408635 0
M  V30 4921 O 487.149 -1.44416 -1.30285 0
M  V30 4922 C 487.432 -3.1357 1.77047 0
M  V30 4923 C 487.285 -3.04555 3.31008 0
M  V30 4924 C 488.604 -4.12812 1.5256 0
M  V30 4925 H 485.723 -0.628697 0.384589 0
M  V30 4926 H 488.365 -1.15258 1.51049 0
M  V30 4927 H 486.515 -3.63046 1.3831 0
M  V30 4928 H 488.187 -2.62674 3.7921 0
M  V30 4929 H 486.43 -2.41278 3.6051 0
M  V30 4930 H 487.101 -4.03894 3.76263 0
M  V30 4931 H 489.577 -3.72106 1.86215 0
M  V30 4932 H 488.453 -5.09132 2.05124 0
M  V30 4933 H 488.714 -4.39711 0.458936 0
M  V30 4934 N 487.773 -1.03688 -1.18687 0
M  V30 4935 C 488.683 -0.634908 -2.25845 0
M  V30 4936 C 489.699 0.337065 -1.70704 0
M  V30 4937 O 490.875 0.192943 -2.00474 0
M  V30 4938 C 487.94 -0.000180054 -3.467 0
M  V30 4939 C 487.001 -1.02067 -4.1699 0
M  V30 4940 C 486.234 -0.41614 -5.32075 0
M  V30 4941 O 486.457 0.778712 -5.65059 0
M  V30 4942 O 485.391 -1.14296 -5.90948 0
M  V30 4943 H 489.217 -1.52757 -2.62486 0
M  V30 4944 H 486.802 -0.807533 -1.25695 0
M  V30 4945 H 488.684 0.353342 -4.19916 0
M  V30 4946 H 487.359 0.866367 -3.11891 0
M  V30 4947 H 486.266 -1.42592 -3.45859 0
M  V30 4948 H 487.599 -1.85786 -4.5579 0
M  V30 4949 N 489.251 1.34841 -0.815825 0
M  V30 4950 C 490.5 1.97755 -0.396976 0
M  V30 4951 C 490.813 1.65422 1.04379 0
M  V30 4952 O 492.019 2.21771 1.5662 0
M  V30 4953 C 490.475 3.53818 -0.658869 0
M  V30 4954 C 490.083 3.95051 -2.11278 0
M  V30 4955 C 491.827 4.23397 -0.305834 0
M  V30 4956 C 489.734 5.43997 -2.31994 0
M  V30 4957 H 488.664 0.739985 -0.1447 0
M  V30 4958 H 491.315 1.53781 -1.00118 0
M  V30 4959 H 489.697 3.95997 0.0154112 0
M  V30 4960 H 490.871 3.63998 -2.82564 0
M  V30 4961 H 489.186 3.38388 -2.42657 0
M  V30 4962 H 491.783 5.32899 -0.43854 0
M  V30 4963 H 492.126 4.09508 0.748952 0
M  V30 4964 H 492.659 3.8667 -0.934403 0
M  V30 4965 H 489.398 5.62865 -3.35952 0
M  V30 4966 H 488.918 5.76589 -1.65244 0
M  V30 4967 H 490.597 6.10584 -2.14001 0
M  V30 4968 N 490.729 0.570148 1.46925 0
M  V30 4969 C 491.639 -0.173061 2.33961 0
M  V30 4970 C 492.655 -0.898825 1.48987 0
M  V30 4971 O 493.831 -0.864825 1.81887 0
M  V30 4972 C 490.896 -1.18177 3.25937 0
M  V30 4973 C 489.957 -0.462041 4.26806 0
M  V30 4974 C 489.19 -1.4227 5.14388 0
M  V30 4975 O 489.413 -2.65842 5.04662 0
M  V30 4976 O 488.347 -0.940127 5.94513 0
M  V30 4977 H 492.173 0.541216 2.98839 0
M  V30 4978 H 489.758 0.330647 1.45695 0
M  V30 4979 H 491.64 -1.76372 3.82715 0
M  V30 4980 H 490.315 -1.87774 2.63671 0
M  V30 4981 H 489.222 0.161429 3.73752 0
M  V30 4982 H 490.555 0.192719 4.91823 0
M  V30 4983 N 492.207 -1.54576 0.307264 0
M  V30 4984 C 493.453 -2.0056 -0.300612 0
M  V30 4985 C 493.786 -1.1953 -1.53057 0
M  V30 4986 O 493.061 -0.27337 -1.92569 0
M  V30 4987 C 493.344 -3.54167 -0.650987 0
M  V30 4988 C 493.197 -4.45933 0.588539 0
M  V30 4989 C 494.516 -4.14645 -1.47506 0
M  V30 4990 H 491.635 -0.729075 -0.107788 0
M  V30 4991 H 494.277 -1.85286 0.420606 0
M  V30 4992 H 492.427 -3.67313 -1.26544 0
M  V30 4993 H 494.099 -4.44683 1.22697 0
M  V30 4994 H 492.342 -4.16274 1.22058 0
M  V30 4995 H 493.013 -5.51189 0.299153 0
M  V30 4996 H 495.489 -4.04973 -0.955821 0
M  V30 4997 H 494.365 -5.22269 -1.68899 0
M  V30 4998 H 494.626 -3.66921 -2.4662 0
M  V30 4999 N 493.685 -0.035106 -1.57561 0
M  V30 5000 C 494.632 0.94474 -2.10578 0
M  V30 5001 C 495.602 1.3192 -1.00927 0
M  V30 5002 O 496.787 1.41147 -1.28382 0
M  V30 5003 C 493.927 2.21982 -2.64231 0
M  V30 5004 C 493.04 1.90128 -3.87911 0
M  V30 5005 C 492.175 3.11975 -4.29936 0
M  V30 5006 C 491.214 2.75968 -5.46359 0
M  V30 5007 N 490.351 3.90459 -5.83512 0
M  V30 5008 H 495.191 0.485717 -2.94015 0
M  V30 5009 H 492.728 0.228143 -1.4532 0
M  V30 5010 H 494.686 2.96572 -2.9343 0
M  V30 5011 H 493.316 2.6549 -1.83616 0
M  V30 5012 H 492.368 1.05755 -3.65404 0
M  V30 5013 H 493.68 1.59613 -4.72573 0
M  V30 5014 H 492.834 3.9488 -4.60603 0
M  V30 5015 H 491.573 3.45657 -3.44053 0
M  V30 5016 H 490.578 1.91478 -5.1538 0
M  V30 5017 H 491.803 2.43497 -6.33945 0
M  V30 5018 H 489.749 4.23971 -5.00584 0
M  V30 5019 H 489.666 3.63588 -6.62827 0
M  V30 5020 H 490.934 4.7405 -6.18787 0
M  V30 5021 N 495.163 1.55791 0.238111 0
M  V30 5022 C 496.411 1.77681 0.963001 0
M  V30 5023 C 496.732 0.600674 1.85518 0
M  V30 5024 O 496.002 -0.383182 1.92116 0
M  V30 5025 H 494.582 0.655315 0.358568 0
M  V30 5026 H 497.244 1.93239 0.253945 0
M  V30 5027 H 496.34 2.69177 1.57956 0
M  V30 5028 N 496.642 -0.504142 1.49319 0
M  V30 5029 C 497.891 -1.25507 1.57895 0
M  V30 5030 C 498.204 -1.93735 0.269433 0
M  V30 5031 O 499.41 -2.70492 0.233706 0
M  V30 5032 C 497.866 -2.27869 2.78574 0
M  V30 5033 C 497.474 -1.65594 4.16272 0
M  V30 5034 C 499.218 -3.0381 2.96479 0
M  V30 5035 C 497.125 -2.66048 5.28178 0
M  V30 5036 H 496.055 -0.47212 0.587894 0
M  V30 5037 H 498.706 -0.52931 1.757 0
M  V30 5038 H 497.088 -3.03594 2.54257 0
M  V30 5039 H 498.262 -0.958826 4.50714 0
M  V30 5040 H 496.577 -1.02055 4.037 0
M  V30 5041 H 499.174 -3.78925 3.77253 0
M  V30 5042 H 499.517 -3.61235 2.06918 0
M  V30 5043 H 500.05 -2.352 3.20821 0
M  V30 5044 H 496.789 -2.13408 6.19788 0
M  V30 5045 H 496.309 -3.34009 4.98195 0
M  V30 5046 H 497.988 -3.28536 5.57381 0
M  V30 5047 N 498.12 -1.38341 -0.754957 0
M  V30 5048 C 499.067 -1.3546 -1.86867 0
M  V30 5049 C 500.037 -0.217369 -1.64672 0
M  V30 5050 O 501.222 -0.409383 -1.86356 0
M  V30 5051 C 498.362 -1.18413 -3.24149 0
M  V30 5052 C 497.475 -2.41511 -3.58185 0
M  V30 5053 C 496.61 -2.17205 -4.84763 0
M  V30 5054 C 495.649 -3.36081 -5.11582 0
M  V30 5055 N 494.786 -3.11219 -6.29354 0
M  V30 5056 H 499.626 -2.30672 -1.88664 0
M  V30 5057 H 497.163 -1.14607 -0.922154 0
M  V30 5058 H 499.121 -1.06545 -4.03366 0
M  V30 5059 H 497.751 -0.268397 -3.21682 0
M  V30 5060 H 496.803 -2.64056 -2.73822 0
M  V30 5061 H 498.115 -3.30115 -3.73932 0
M  V30 5062 H 497.269 -2.02465 -5.7192 0
M  V30 5063 H 496.008 -1.25964 -4.71152 0
M  V30 5064 H 495.013 -3.51341 -4.22894 0
M  V30 5065 H 496.238 -4.28196 -5.27091 0
M  V30 5066 H 494.184 -2.22624 -6.17069 0
M  V30 5067 H 494.101 -3.93373 -6.45596 0
M  V30 5068 H 495.369 -3.00132 -7.19403 0
M  V30 5069 N 499.598 0.982988 -1.23187 0
M  V30 5070 C 500.875 1.69814 -0.970707 0
M  V30 5071 C 501.255 2.04811 0.511424 0
M  V30 5072 O 500.603 1.73924 1.48198 0
M  V30 5073 C 500.813 2.94143 -1.87831 0
M  V30 5074 C 502.161 3.66712 -2.14026 0
M  V30 5075 O 503.185 3.04171 -1.8536 0
M  V30 5076 O 502.044 4.79258 -2.62629 0
M  V30 5077 H 499.138 0.741659 -0.365884 0
M  V30 5078 H 501.684 1.03844 -1.34218 0
M  V30 5079 H 500.456 2.64858 -2.88038 0
M  V30 5080 H 500.079 3.6785 -1.50905 0
M  V30 5081 N 501.076 1.04316 1.18135 0
M  V30 5082 C 502.322 0.749128 1.88457 0
M  V30 5083 C 502.655 -0.72149 1.803 0
M  V30 5084 O 501.93 -1.52676 1.205 0
M  V30 5085 C 502.213 1.21905 3.38838 0
M  V30 5086 C 502.066 2.75195 3.55792 0
M  V30 5087 C 503.385 0.811085 4.32561 0
M  V30 5088 H 500.504 0.273611 0.684329 0
M  V30 5089 H 503.146 1.29561 1.38975 0
M  V30 5090 H 501.296 0.754137 3.8111 0
M  V30 5091 H 502.968 3.29743 3.22595 0
M  V30 5092 H 501.211 3.14899 2.98364 0
M  V30 5093 H 501.882 3.03135 4.61317 0
M  V30 5094 H 504.358 1.21118 3.98082 0
M  V30 5095 H 503.234 1.16761 5.36338 0
M  V30 5096 H 503.495 -0.285596 4.41177 0
M  V30 5097 N 502.554 -1.34406 0.822964 0
M  V30 5098 C 503.8 -1.98578 0.411666 0
M  V30 5099 C 504.133 -1.65093 -1.02264 0
M  V30 5100 O 503.408 -0.92258 -1.71227 0
M  V30 5101 C 503.691 -3.54823 0.614235 0
M  V30 5102 C 503.544 -3.9805 2.09466 0
M  V30 5103 C 504.863 -4.40071 0.050221 0
M  V30 5104 H 501.982 -0.721355 0.151047 0
M  V30 5105 H 504.624 -1.59301 1.03554 0
M  V30 5106 H 502.774 -3.88411 0.0831774 0
M  V30 5107 H 504.446 -3.74795 2.68936 0
M  V30 5108 H 502.689 -3.4836 2.5851 0
M  V30 5109 H 503.36 -5.06819 2.18721 0
M  V30 5110 H 505.836 -4.13037 0.503953 0
M  V30 5111 H 504.712 -5.48452 0.221759 0
M  V30 5112 H 504.973 -4.29576 -1.04482 0
M  V30 5113 N 504.032 -0.577932 -1.46621 0
M  V30 5114 C 505.26 -0.0671642 -2.06791 0
M  V30 5115 C 505.675 1.23571 -1.42743 0
M  V30 5116 O 505.032 1.74602 -0.531062 0
M  V30 5117 C 505.083 0.110357 -3.61332 0
M  V30 5118 O 504.804 -1.14095 -4.22982 0
M  V30 5119 C 506.305 0.656025 -4.38419 0
M  V30 5120 H 503.525 -0.0552732 -0.66872 0
M  V30 5121 H 506.069 -0.797242 -1.8832 0
M  V30 5122 H 504.224 0.790637 -3.79246 0
M  V30 5123 H 504.638 -0.951742 -5.15793 0
M  V30 5124 H 506.112 0.729438 -5.47159 0
M  V30 5125 H 506.589 1.67195 -4.06131 0
M  V30 5126 H 507.195 0.0107692 -4.25299 0
M  V30 5127 N 505.51 1.54411 -0.315457 0
M  V30 5128 C 506.442 2.21527 0.588067 0
M  V30 5129 C 507.455 1.21263 1.08624 0
M  V30 5130 O 508.644 1.47777 1.00121 0
M  V30 5131 C 505.744 2.85963 1.81875 0
M  V30 5132 C 504.917 4.12291 1.46063 0
M  V30 5133 C 503.976 4.60396 2.54799 0
M  V30 5134 O 503.002 5.25265 2.19283 0
M  V30 5135 N 504.204 4.33935 3.85591 0
M  V30 5136 H 506.969 2.99697 0.013414 0
M  V30 5137 H 504.53 1.61308 -0.138295 0
M  V30 5138 H 506.522 3.15071 2.53993 0
M  V30 5139 H 505.092 2.11548 2.30144 0
M  V30 5140 H 504.312 3.90036 0.571445 0
M  V30 5141 H 505.6 4.9452 1.19695 0
M  V30 5142 H 504.998 3.81996 4.17248 0
M  V30 5143 H 503.555 4.67718 4.53964 0
M  V30 5144 N 506.988 0.0434614 1.5754 0
M  V30 5145 C 508.399 -0.493343 1.80064 0
M  V30 5146 C 508.75 -1.71388 0.955023 0
M  V30 5147 O 507.875 -2.15736 0.169434 0
M  V30 5148 C 508.47 -0.90179 3.26578 0
M  V30 5149 C 507.029 -1.38362 3.50047 0
M  V30 5150 C 506.176 -0.355129 2.75017 0
M  V30 5151 H 509.127 0.2694 1.56397 0
M  V30 5152 H 509.148 -1.76523 3.37075 0
M  V30 5153 H 508.66 -0.013271 3.88098 0
M  V30 5154 H 506.761 -2.29159 2.93798 0
M  V30 5155 H 506.874 -1.3811 4.58762 0
M  V30 5156 H 505.238 -0.826348 2.40922 0
M  V30 5157 H 506.021 0.525172 3.39259 0
M  V30 5158 N 508.466 -1.55915 -0.229846 0
M  V30 5159 C 509.398 -1.88209 -1.30805 0
M  V30 5160 C 510.411 -0.769672 -1.43457 0
M  V30 5161 O 511.6 -1.04792 -1.44502 0
M  V30 5162 C 508.7 -2.06829 -2.68468 0
M  V30 5163 C 507.873 -3.37798 -2.77869 0
M  V30 5164 C 506.932 -3.45952 -3.96489 0
M  V30 5165 O 505.958 -4.19043 -3.85216 0
M  V30 5166 N 507.16 -2.76488 -5.10426 0
M  V30 5167 H 509.925 -2.81286 -1.03431 0
M  V30 5168 H 507.486 -1.5636 -0.41991 0
M  V30 5169 H 509.478 -2.09608 -3.46189 0
M  V30 5170 H 508.048 -1.20416 -2.88477 0
M  V30 5171 H 507.268 -3.4719 -1.86689 0
M  V30 5172 H 508.556 -4.24091 -2.81113 0
M  V30 5173 H 507.954 -2.16868 -5.2248 0
M  V30 5174 H 506.511 -2.84938 -5.8622 0
M  V30 5175 N 509.944 0.496216 -1.49584 0
M  V30 5176 C 510.907 1.57952 -1.66084 0
M  V30 5177 C 511.907 1.51729 -0.53244 0
M  V30 5178 O 513.097 1.54796 -0.79899 0
M  V30 5179 C 510.229 2.97604 -1.66268 0
M  V30 5180 H 511.422 1.44649 -2.6271 0
M  V30 5181 H 508.975 0.7208 -1.38687 0
M  V30 5182 H 509.71 3.16378 -0.712432 0
M  V30 5183 H 509.495 3.03528 -2.4822 0
M  V30 5184 H 510.985 3.76301 -1.81073 0
M  V30 5185 O 511.461 1.48211 0.641547 0
M  V30 5186 H 512.152 1.44016 1.29535 0
M  V30 END ATOM
M  V30 BEGIN BOND
M  V30 END BOND
M  V30 END CTAB
M  END
$$$$
