drugbank_target|P0AA43 Ribosomal small subunit pseudouridine synthase A (DB03419; DB03685)
 OpenBabel12092120033D

  0  0  0     0  0            999 V3000
M  V30 BEGIN CTAB
M  V30 COUNTS 3623 3663 0 0 0
M  V30 BEGIN ATOM
M  V30 1 H -0.908 1.98254 -0.117106 0
M  V30 2 N 0 1.576 0 0
M  V30 3 C 0.933 2.03868 1.02534 0
M  V30 4 C 1.911 0.928543 1.3348 0
M  V30 5 O 3.095 1.19667 1.45644 0
M  V30 6 C 0.222 2.43627 2.35294 0
M  V30 7 C -0.732 3.65373 2.2001 0
M  V30 8 S 0.101 5.13292 1.52614 0
M  V30 9 C 1.257 5.56322 2.86805 0
M  V30 10 H 1.49 2.90518 0.631377 0
M  V30 11 H -0.977 1.52953 0.210867 0
M  V30 12 H 0.981 2.67203 3.11629 0
M  V30 13 H -0.358 1.57376 2.7183 0
M  V30 14 H -1.165 3.90944 3.18086 0
M  V30 15 H -1.563 3.418 1.51819 0
M  V30 16 H 0.729 5.58782 3.83104 0
M  V30 17 H 1.672 6.56266 2.65933 0
M  V30 18 H 2.08 4.83886 2.90714 0
M  V30 19 N 1.4781 -0.272755 1.55222 0
M  V30 20 C 2.8941 -0.619959 1.47067 0
M  V30 21 C 3.0941 -1.895 0.684978 0
M  V30 22 O 2.1501 -2.51675 0.203931 0
M  V30 23 C 3.4631 -0.746693 2.91282 0
M  V30 24 C 5.0111 -0.840731 3.01497 0
M  V30 25 C 5.4861 -0.99924 4.46967 0
M  V30 26 N 6.9771 -1.06476 4.50796 0
M  V30 27 C 7.7121 -1.20621 5.6057 0
M  V30 28 N 7.2081 -1.31483 6.80209 0
M  V30 29 N 9.0011 -1.23733 5.48312 0
M  V30 30 H 1.1521 0.564606 2.04758 0
M  V30 31 H 3.4151 0.191177 0.928523 0
M  V30 32 H 3.1211 0.119753 3.51496 0
M  V30 33 H 2.9951 -1.6269 3.40311 0
M  V30 34 H 5.3821 -1.69764 2.41379 0
M  V30 35 H 5.4631 0.0640874 2.5572 0
M  V30 36 H 5.1071 -0.146984 5.07687 0
M  V30 37 H 5.0371 -1.91871 4.90401 0
M  V30 38 H 7.5281 -0.993196 3.64615 0
M  V30 39 H 7.8411 -1.42111 7.59621 0
M  V30 40 H 6.1861 -1.28487 6.8302 0
M  V30 41 H 9.3771 -1.14877 4.53785 0
M  V30 42 H 9.5501 -1.34412 6.33906 0
M  V30 43 N 2.9562 -1.48159 -0.537278 0
M  V30 44 C 3.8862 -1.65029 -1.6519 0
M  V30 45 C 4.8672 -0.499281 -1.62607 0
M  V30 46 O 6.0522 -0.730972 -1.79918 0
M  V30 47 C 3.1822 -1.68303 -3.03795 0
M  V30 48 C 2.1362 -2.8283 -3.21234 0
M  V30 49 C 1.4622 -2.71189 -4.60826 0
M  V30 50 C 2.7622 -4.24211 -3.04701 0
M  V30 51 H 4.4562 -2.58341 -1.51328 0
M  V30 52 H 2.0022 -1.24325 -0.726585 0
M  V30 53 H 3.9552 -1.78693 -3.81637 0
M  V30 54 H 2.6792 -0.715635 -3.18663 0
M  V30 55 H 1.3382 -2.71983 -2.45807 0
M  V30 56 H 0.9862 -1.72435 -4.7252 0
M  V30 57 H 0.6862 -3.48035 -4.7344 0
M  V30 58 H 2.2102 -2.83537 -5.40777 0
M  V30 59 H 3.6242 -4.3593 -3.72341 0
M  V30 60 H 2.0212 -5.01998 -3.28813 0
M  V30 61 H 3.0912 -4.41184 -2.01209 0
M  V30 62 N 4.4343 0.785586 -1.36625 0
M  V30 63 C 5.7113 1.53198 -1.21613 0
M  V30 64 C 6.0913 2.10187 0.196113 0
M  V30 65 O 5.4393 1.94318 1.20219 0
M  V30 66 C 5.6493 2.62388 -2.30116 0
M  V30 67 C 6.9973 3.30167 -2.66974 0
M  V30 68 O 8.0213 2.72674 -2.29188 0
M  V30 69 O 6.8803 4.34077 -3.32023 0
M  V30 70 H 3.9743 0.677865 -0.473738 0
M  V30 71 H 6.5203 0.823739 -1.48367 0
M  V30 72 H 5.2923 2.18299 -3.24748 0
M  V30 73 H 4.9153 3.40827 -2.0475 0
M  V30 74 N 5.9124 1.20967 1.01018 0
M  V30 75 C 6.8594 0.964281 2.09691 0
M  V30 76 C 7.8294 -0.107853 1.65749 0
M  V30 77 O 9.0144 0.0381987 1.90762 0
M  V30 78 C 6.1544 0.52943 3.41015 0
M  V30 79 C 5.2674 1.67043 3.98398 0
M  V30 80 C 4.4024 1.18525 5.17808 0
M  V30 81 C 3.4414 2.29892 5.67288 0
M  V30 82 N 2.5784 1.82546 6.77954 0
M  V30 83 H 7.4184 1.89463 2.30017 0
M  V30 84 H 4.9554 0.944289 1.1279 0
M  V30 85 H 6.9134 0.258588 4.16398 0
M  V30 86 H 5.5434 -0.363919 3.20742 0
M  V30 87 H 4.5954 2.05603 3.20049 0
M  V30 88 H 5.9074 2.50877 4.31117 0
M  V30 89 H 5.0614 0.870762 6.00419 0
M  V30 90 H 3.8004 0.316887 4.86669 0
M  V30 91 H 2.8054 2.6215 4.83278 0
M  V30 92 H 4.0304 3.17216 6.00459 0
M  V30 93 H 1.9764 0.980454 6.48632 0
M  V30 94 H 1.8934 2.59956 7.09901 0
M  V30 95 H 3.1614 1.54115 7.64113 0
M  V30 96 N 7.3905 -1.2043 1.01659 0
M  V30 97 C 8.6375 -1.89797 0.705917 0
M  V30 98 C 8.9655 -1.78848 -0.764439 0
M  V30 99 O 8.2205 -1.16694 -1.57102 0
M  V30 100 C 8.5195 -3.40464 1.08714 0
M  V30 101 C 8.1855 -3.71614 2.5537 0
M  V30 102 C 6.8475 -3.79826 2.95441 0
M  V30 103 C 9.1995 -3.85915 3.50313 0
M  V30 104 C 6.5275 -3.99797 4.29394 0
M  V30 105 C 8.8795 -4.07396 4.83954 0
M  V30 106 C 7.5435 -4.13837 5.23732 0
M  V30 107 H 6.8135 -0.694518 0.258313 0
M  V30 108 H 9.4605 -1.42691 1.27717 0
M  V30 109 H 7.7655 -3.89385 0.434309 0
M  V30 110 H 9.4625 -3.92433 0.824461 0
M  V30 111 H 6.0525 -3.65822 2.23321 0
M  V30 112 H 10.2365 -3.78926 3.20513 0
M  V30 113 H 5.4925 -4.03018 4.59768 0
M  V30 114 H 9.6665 -4.17404 5.57447 0
M  V30 115 H 7.2935 -4.29064 6.27541 0
M  V30 116 N 8.8686 -0.792821 -1.36206 0
M  V30 117 C 10.1176 -0.363353 -1.984 0
M  V30 118 C 10.4306 1.07172 -1.63626 0
M  V30 119 O 11.6366 1.60362 -2.19081 0
M  V30 120 C 10.0926 -0.59872 -3.54885 0
M  V30 121 C 9.7006 -2.04543 -3.9858 0
M  V30 122 C 11.4446 -0.233926 -4.23855 0
M  V30 123 C 9.3516 -2.22727 -5.47856 0
M  V30 124 H 8.2816 -0.13212 -0.742334 0
M  V30 125 H 10.9326 -0.974935 -1.55458 0
M  V30 126 H 9.3146 0.0826222 -3.95914 0
M  V30 127 H 10.4886 -2.76345 -3.68741 0
M  V30 128 H 8.8036 -2.36879 -3.42458 0
M  V30 129 H 11.4006 -0.348027 -5.33566 0
M  V30 130 H 11.7436 0.818351 -4.08177 0
M  V30 131 H 12.2766 -0.868639 -3.882 0
M  V30 132 H 9.0156 -3.2635 -5.68486 0
M  V30 133 H 8.5356 -1.55434 -5.7931 0
M  V30 134 H 10.2146 -2.03607 -6.14128 0
M  V30 135 N 10.3467 1.47872 -0.545128 0
M  V30 136 C 11.3097 2.28337 0.198717 0
M  V30 137 C 12.3097 1.36255 0.853888 0
M  V30 138 O 13.4997 1.59003 0.711606 0
M  V30 139 C 10.6317 3.15585 1.28915 0
M  V30 140 H 11.8247 2.95567 -0.507941 0
M  V30 141 H 9.3777 1.53362 -0.301616 0
M  V30 142 H 10.1127 2.53019 2.02859 0
M  V30 143 H 9.8977 3.83337 0.824309 0
M  V30 144 H 11.3877 3.76243 1.81194 0
M  V30 145 N 11.8248 0.280983 1.55075 0
M  V30 146 C 12.7568 -0.637268 2.20163 0
M  V30 147 C 13.7698 -1.11298 1.18813 0
M  V30 148 O 14.9588 -1.03388 1.4551 0
M  V30 149 C 12.0588 -1.88199 2.81841 0
M  V30 150 C 11.2318 -1.55211 4.08936 0
M  V30 151 C 10.2908 -2.64991 4.54606 0
M  V30 152 O 9.3168 -2.30929 5.2025 0
M  V30 153 N 10.5188 -3.95161 4.25238 0
M  V30 154 H 13.2838 -0.0801694 2.99593 0
M  V30 155 H 10.8448 0.102329 1.61576 0
M  V30 156 H 12.8368 -2.60948 3.09335 0
M  V30 157 H 11.4068 -2.34799 2.06369 0
M  V30 158 H 10.6268 -0.658185 3.88666 0
M  V30 159 H 11.9148 -1.30681 4.91732 0
M  V30 160 H 11.3128 -4.25653 3.72607 0
M  V30 161 H 9.8698 -4.6427 4.5749 0
M  V30 162 N 13.3029 -1.57598 0.00835791 0
M  V30 163 C 14.2349 -2.05811 -1.00868 0
M  V30 164 C 15.2479 -0.977579 -1.30182 0
M  V30 165 O 16.4369 -1.25421 -1.27011 0
M  V30 166 C 13.5369 -2.45016 -2.34137 0
M  V30 167 C 12.7099 -3.75903 -2.23643 0
M  V30 168 C 11.7689 -4.01884 -3.3967 0
M  V30 169 O 10.7949 -4.72433 -3.17483 0
M  V30 170 N 11.9969 -3.50432 -4.62793 0
M  V30 171 H 14.7619 -2.93684 -0.597458 0
M  V30 172 H 12.3229 -1.60909 -0.178852 0
M  V30 173 H 14.3149 -2.59506 -3.10546 0
M  V30 174 H 12.8849 -1.62618 -2.66972 0
M  V30 175 H 12.1049 -3.7141 -1.32091 0
M  V30 176 H 13.3929 -4.61695 -2.13812 0
M  V30 177 H 12.7909 -2.93317 -4.83716 0
M  V30 178 H 11.3479 -3.70236 -5.3644 0
M  V30 179 N 14.781 0.264519 -1.55364 0
M  V30 180 C 15.711 1.33121 -1.91836 0
M  V30 181 C 16.692 1.51101 -0.781192 0
M  V30 182 O 17.877 1.64003 -1.04003 0
M  V30 183 C 15.007 2.68921 -2.19769 0
M  V30 184 C 13.961 2.65661 -3.35571 0
M  V30 185 C 13.287 4.05093 -3.49004 0
M  V30 186 C 14.587 2.24187 -4.71739 0
M  V30 187 H 16.281 1.02844 -2.81182 0
M  V30 188 H 13.827 0.493286 -1.35287 0
M  V30 189 H 15.78 3.43663 -2.43872 0
M  V30 190 H 14.504 3.00799 -1.27231 0
M  V30 191 H 13.163 1.93377 -3.1145 0
M  V30 192 H 12.811 4.34206 -2.53917 0
M  V30 193 H 12.511 4.03804 -4.26868 0
M  V30 194 H 14.035 4.81561 -3.75408 0
M  V30 195 H 15.449 2.88654 -4.9533 0
M  V30 196 H 13.846 2.34044 -5.52579 0
M  V30 197 H 14.916 1.19327 -4.69988 0
M  V30 198 N 16.2591 1.48442 0.529413 0
M  V30 199 C 17.5071 1.56179 1.28267 0
M  V30 200 C 17.8281 0.237721 1.93546 0
M  V30 201 O 17.0981 -0.740779 1.81354 0
M  V30 202 H 15.6781 0.575367 0.476405 0
M  V30 203 H 18.3401 1.84909 0.61602 0
M  V30 204 H 17.4361 2.34312 2.06165 0
M  V30 205 N 17.7372 -0.778329 1.37039 0
M  V30 206 C 18.9832 -1.53892 1.32079 0
M  V30 207 C 19.3162 -1.9396 -0.0965386 0
M  V30 208 O 18.5912 -1.63568 -1.05242 0
M  V30 209 C 18.8742 -2.80847 2.25382 0
M  V30 210 C 18.7272 -2.47076 3.75864 0
M  V30 211 C 20.0462 -3.82741 2.1725 0
M  V30 212 H 17.1652 -0.558303 0.48111 0
M  V30 213 H 19.8072 -0.893397 1.67685 0
M  V30 214 H 17.9572 -3.35931 1.95148 0
M  V30 215 H 19.6292 -1.97957 4.16666 0
M  V30 216 H 17.8722 -1.79863 3.94755 0
M  V30 217 H 18.5432 -3.37798 4.36574 0
M  V30 218 H 21.0192 -3.37133 2.43887 0
M  V30 219 H 19.8952 -4.69303 2.84686 0
M  V30 220 H 20.1562 -4.2652 1.16331 0
M  V30 221 N 19.2153 -1.21501 -1.00376 0
M  V30 222 C 20.4403 -1.05977 -1.78279 0
M  V30 223 C 20.8653 0.385994 -1.84097 0
M  V30 224 O 20.2233 1.27849 -1.28547 0
M  V30 225 C 20.2713 -1.66302 -3.19963 0
M  V30 226 O 19.3753 -0.909333 -4.0225 0
M  V30 227 H 18.7163 -0.372906 -0.549397 0
M  V30 228 H 21.2463 -1.6107 -1.26165 0
M  V30 229 H 21.2563 -1.70574 -3.70632 0
M  V30 230 H 19.9313 -2.71515 -3.15043 0
M  V30 231 H 18.5083 -0.941795 -3.60811 0
M  V30 232 N 20.6934 1.19889 -1.02296 0
M  V30 233 C 22.1094 1.41462 -0.738954 0
M  V30 234 C 22.3094 1.89721 0.678846 0
M  V30 235 O 21.3654 2.07016 1.4457 0
M  V30 236 C 22.6784 2.43083 -1.77005 0
M  V30 237 C 24.2264 2.5684 -1.78892 0
M  V30 238 C 24.7014 3.61709 -2.80945 0
M  V30 239 N 26.1924 3.69199 -2.79725 0
M  V30 240 C 26.9274 4.50019 -3.55345 0
M  V30 241 N 26.4234 5.34592 -4.40662 0
M  V30 242 N 28.2164 4.44612 -3.43914 0
M  V30 243 H 20.3674 0.868827 -1.93817 0
M  V30 244 H 22.6304 0.44399 -0.837602 0
M  V30 245 H 22.3364 2.14636 -2.78612 0
M  V30 246 H 22.2104 3.4217 -1.58744 0
M  V30 247 H 24.5974 2.84614 -0.779674 0
M  V30 248 H 24.6784 1.57927 -2.01228 0
M  V30 249 H 24.3224 3.34678 -3.82038 0
M  V30 250 H 24.2524 4.60259 -2.5587 0
M  V30 251 H 26.7434 3.08794 -2.17842 0
M  V30 252 H 27.0564 5.93363 -4.95116 0
M  V30 253 H 25.4014 5.34073 -4.44737 0
M  V30 254 H 28.5924 3.7758 -2.76679 0
M  V30 255 H 28.7654 5.0736 -4.031 0
M  V30 256 N 22.1715 0.800033 1.35784 0
M  V30 257 C 23.1345 0.211565 2.28221 0
M  V30 258 C 24.1345 -0.59728 1.49296 0
M  V30 259 O 25.3245 -0.416721 1.69142 0
M  V30 260 C 22.4565 -0.705846 3.33513 0
M  V30 261 H 23.6495 1.02677 2.81776 0
M  V30 262 H 21.2025 0.570211 1.45528 0
M  V30 263 H 21.9375 -1.54498 2.85133 0
M  V30 264 H 21.7225 -0.127655 3.91892 0
M  V30 265 H 23.2125 -1.11211 4.02519 0
M  V30 266 N 23.6496 -1.47581 0.552962 0
M  V30 267 C 24.8986 -2.01684 0.0251995 0
M  V30 268 C 25.2116 -1.43317 -1.33115 0
M  V30 269 O 26.4176 -1.89057 -1.94858 0
M  V30 270 C 24.8736 -3.599 -0.00542052 0
M  V30 271 C 24.4816 -4.27257 1.34742 0
M  V30 272 C 26.2256 -4.21768 -0.4808 0
M  V30 273 C 24.1326 -5.77467 1.27614 0
M  V30 274 H 23.0626 -0.753979 0.00565033 0
M  V30 275 H 25.7136 -1.69616 0.70018 0
M  V30 276 H 24.0956 -3.88911 -0.745961 0
M  V30 277 H 25.2696 -4.09893 2.10534 0
M  V30 278 H 23.5846 -3.77358 1.76039 0
M  V30 279 H 26.1816 -5.31838 -0.55246 0
M  V30 280 H 26.5246 -3.88651 -1.49184 0
M  V30 281 H 27.0576 -3.97273 0.204752 0
M  V30 282 H 23.7966 -6.15196 2.26304 0
M  V30 283 H 23.3166 -5.9718 0.55996 0
M  V30 284 H 24.9956 -6.3959 0.976421 0
M  V30 285 N 25.1277 -0.289203 -1.54924 0
M  V30 286 C 26.0907 0.579144 -2.21762 0
M  V30 287 C 27.0907 1.07047 -1.1999 0
M  V30 288 O 28.2807 0.968384 -1.44803 0
M  V30 289 C 25.4127 1.80055 -2.8947 0
M  V30 290 H 26.6057 -0.00464908 -2.999 0
M  V30 291 H 24.1587 -0.0399306 -1.56249 0
M  V30 292 H 24.8937 2.42449 -2.15381 0
M  V30 293 H 24.6787 1.45602 -3.64064 0
M  V30 294 H 26.1687 2.41773 -3.40493 0
M  V30 295 N 26.6058 1.57591 -0.0167156 0
M  V30 296 C 27.8538 1.90906 0.663285 0
M  V30 297 C 28.1748 0.892509 1.73376 0
M  V30 298 O 27.4448 -0.0677623 1.95783 0
M  V30 299 H 26.0248 0.704637 0.247983 0
M  V30 300 H 28.6868 1.94803 -0.0615909 0
M  V30 301 H 27.7828 2.9116 1.12393 0
M  V30 302 N 28.0839 -0.256276 1.55502 0
M  V30 303 C 29.4999 -0.604325 1.47716 0
M  V30 304 C 29.6999 -1.88763 0.705039 0
M  V30 305 O 28.7559 -2.51445 0.230613 0
M  V30 306 C 30.0689 -0.715756 2.92057 0
M  V30 307 C 31.6169 -0.808706 3.02372 0
M  V30 308 C 32.0919 -0.951777 4.48001 0
M  V30 309 N 33.5829 -1.01688 4.519 0
M  V30 310 C 34.3179 -1.14668 5.61817 0
M  V30 311 N 33.8139 -1.24261 6.81565 0
M  V30 312 N 35.6069 -1.1791 5.49594 0
M  V30 313 H 27.7579 0.586291 2.04148 0
M  V30 314 H 30.0209 0.201015 0.926443 0
M  V30 315 H 29.7269 0.157027 3.51349 0
M  V30 316 H 29.6009 -1.59071 3.42018 0
M  V30 317 H 31.9879 -1.67195 2.43166 0
M  V30 318 H 32.0689 0.0912063 2.55637 0
M  V30 319 H 31.7129 -0.0931291 5.07815 0
M  V30 320 H 31.6429 -1.86659 4.92408 0
M  V30 321 H 34.1339 -0.954468 3.65648 0
M  V30 322 H 34.4469 -1.34046 7.61086 0
M  V30 323 H 32.7919 -1.21236 6.84344 0
M  V30 324 H 35.9829 -1.10057 4.54978 0
M  V30 325 H 36.1559 -1.27681 6.35296 0
M  V30 326 N 29.562 -1.4872 -0.521534 0
M  V30 327 C 30.472 -1.66569 -1.65203 0
M  V30 328 C 31.488 -0.548197 -1.65139 0
M  V30 329 O 32.664 -0.820339 -1.83936 0
M  V30 330 C 29.729 -1.70917 -3.01642 0
M  V30 331 C 28.79 -2.94356 -3.12495 0
M  V30 332 C 28.023 -2.98487 -4.42426 0
M  V30 333 O 28.246 -2.10786 -5.30024 0
M  V30 334 O 27.18 -3.90746 -4.57822 0
M  V30 335 H 31.006 -2.62298 -1.5308 0
M  V30 336 H 28.591 -1.3222 -0.695565 0
M  V30 337 H 30.473 -1.7625 -3.82771 0
M  V30 338 H 29.148 -0.783633 -3.14071 0
M  V30 339 H 28.055 -2.94552 -2.3063 0
M  V30 340 H 29.388 -3.86322 -3.04986 0
M  V30 341 N 31.0401 0.771051 -1.3745 0
M  V30 342 C 32.2891 1.52491 -1.3202 0
M  V30 343 C 32.6021 1.9538 0.0927347 0
M  V30 344 O 33.8081 2.70159 0.269503 0
M  V30 345 C 32.2641 2.75366 -2.31736 0
M  V30 346 C 31.8721 2.39573 -3.78562 0
M  V30 347 C 33.6161 3.53307 -2.35318 0
M  V30 348 C 31.5231 3.58954 -4.70007 0
M  V30 349 H 30.4531 0.572506 -0.490666 0
M  V30 350 H 33.1041 0.844474 -1.62914 0
M  V30 351 H 31.4861 3.45303 -1.93861 0
M  V30 352 H 32.6601 1.77415 -4.25277 0
M  V30 353 H 30.9751 1.74805 -3.77932 0
M  V30 354 H 33.5721 4.42039 -3.00842 0
M  V30 355 H 33.9151 3.93217 -1.36698 0
M  V30 356 H 34.4481 2.90367 -2.71904 0
M  V30 357 H 31.1871 3.24125 -5.69757 0
M  V30 358 H 30.7071 4.20214 -4.27996 0
M  V30 359 H 32.3861 4.25758 -4.87175 0
M  V30 360 N 32.5182 1.22032 0.997298 0
M  V30 361 C 33.9342 0.979326 1.26021 0
M  V30 362 C 34.1342 -0.32972 1.98784 0
M  V30 363 O 33.1902 -1.05345 2.29475 0
M  V30 364 C 34.5032 2.17509 2.07631 0
M  V30 365 C 36.0512 2.21817 2.2083 0
M  V30 366 C 36.5262 3.40933 3.05825 0
M  V30 367 N 38.0172 3.41067 3.13412 0
M  V30 368 C 38.7522 4.29885 3.79455 0
M  V30 369 N 38.2482 5.28914 4.47462 0
M  V30 370 N 40.0412 4.17673 3.76173 0
M  V30 371 H 32.1922 2.06202 0.509352 0
M  V30 372 H 34.4552 0.90334 0.287541 0
M  V30 373 H 34.1612 3.12415 1.61524 0
M  V30 374 H 34.0352 2.17206 3.08385 0
M  V30 375 H 36.4222 1.27462 2.66153 0
M  V30 376 H 36.5032 2.2616 1.1952 0
M  V30 377 H 36.1472 4.35586 2.61203 0
M  V30 378 H 36.0772 3.33829 4.07266 0
M  V30 379 H 38.5682 2.69406 2.65007 0
M  V30 380 H 38.8812 5.92973 4.95583 0
M  V30 381 H 37.2262 5.32831 4.46224 0
M  V30 382 H 40.4172 3.39564 3.22202 0
M  V30 383 H 40.5902 4.87098 4.27363 0
M  V30 384 N 33.9963 -1.19345 1.0293 0
M  V30 385 C 35.2443 -1.88665 0.724574 0
M  V30 386 C 35.5653 -1.80036 -0.749144 0
M  V30 387 O 34.8353 -1.2111 -1.53978 0
M  V30 388 H 33.4153 -0.698406 0.265025 0
M  V30 389 H 36.0773 -1.44885 1.30362 0
M  V30 390 H 35.1733 -2.94987 1.01926 0
M  V30 391 N 35.4744 -0.807222 -1.35358 0
M  V30 392 C 36.4224 -0.20614 -2.31685 0
M  V30 393 C 37.4164 0.644445 -1.56663 0
M  V30 394 O 38.6224 0.537538 -1.71786 0
M  V30 395 H 34.9974 -0.0479006 -0.750473 0
M  V30 396 H 36.9684 -1.03369 -2.79924 0
M  V30 397 C 35.7174 0.630212 -3.41941 0
M  V30 398 H 35.0404 -0.0149558 -3.99797 0
M  V30 399 H 36.4804 1.01716 -4.11619 0
M  V30 400 C 34.9394 1.79601 -2.85035 0
M  V30 401 O 35.4694 2.89351 -2.78637 0
M  V30 402 N 33.6754 1.60774 -2.42074 0
M  V30 403 H 33.2224 0.715009 -2.47478 0
M  V30 404 H 33.1804 2.38933 -2.04349 0
M  V30 405 N 36.9525 1.47285 -0.560781 0
M  V30 406 C 38.3685 1.58065 -0.22081 0
M  V30 407 C 38.5685 1.55892 1.27671 0
M  V30 408 O 37.6245 1.46422 2.0571 0
M  V30 409 C 38.9375 2.88418 -0.850625 0
M  V30 410 C 40.4855 3.02009 -0.822184 0
M  V30 411 C 40.9605 4.35066 -1.43113 0
M  V30 412 N 42.4515 4.41711 -1.39448 0
M  V30 413 C 43.1865 5.43237 -1.83525 0
M  V30 414 N 42.6825 6.51555 -2.35474 0
M  V30 415 N 44.4755 5.34304 -1.74574 0
M  V30 416 H 36.6265 1.46941 -1.53369 0
M  V30 417 H 38.8895 0.699558 -0.639783 0
M  V30 418 H 38.5955 2.95755 -1.9032 0
M  V30 419 H 38.4695 3.75612 -0.345773 0
M  V30 420 H 40.8565 2.94266 0.221714 0
M  V30 421 H 40.9375 2.16347 -1.36483 0
M  V30 422 H 40.5815 4.43565 -2.47412 0
M  V30 423 H 40.5115 5.19465 -0.863899 0
M  V30 424 H 43.0025 3.64027 -1.01452 0
M  V30 425 H 43.3155 7.25203 -2.67021 0
M  V30 426 H 41.6605 6.52435 -2.39487 0
M  V30 427 H 44.8515 4.48581 -1.33763 0
M  V30 428 H 45.0245 6.13288 -2.09242 0
M  V30 429 N 38.4306 0.297415 1.54768 0
M  V30 430 C 39.6766 -0.313376 2.00364 0
M  V30 431 C 40.0096 -1.53815 1.18553 0
M  V30 432 O 39.2846 -1.92739 0.261103 0
M  V30 433 C 39.5676 -0.673525 3.53745 0
M  V30 434 C 39.4206 0.560133 4.46299 0
M  V30 435 C 40.7396 -1.50143 4.13697 0
M  V30 436 H 37.8586 -0.112428 0.728374 0
M  V30 437 H 40.5006 0.4088 1.8555 0
M  V30 438 H 38.6506 -1.28881 3.665 0
M  V30 439 H 40.3226 1.19863 4.45455 0
M  V30 440 H 38.5656 1.19405 4.17043 0
M  V30 441 H 39.2366 0.26405 5.51368 0
M  V30 442 H 41.7126 -0.981588 4.04356 0
M  V30 443 H 40.5886 -1.72221 5.21182 0
M  V30 444 H 40.8496 -2.48952 3.65343 0
M  V30 445 N 39.9087 -1.5758 0.0250728 0
M  V30 446 C 41.1367 -1.9593 -0.664747 0
M  V30 447 C 41.5517 -0.901352 -1.65895 0
M  V30 448 O 40.9087 0.117255 -1.82123 0
M  V30 449 C 40.9597 -3.34342 -1.37468 0
M  V30 450 O 40.6807 -4.36079 -0.420324 0
M  V30 451 C 42.1817 -3.873 -2.1567 0
M  V30 452 H 39.4017 -0.645405 -0.183557 0
M  V30 453 H 41.9457 -2.04329 0.0836372 0
M  V30 454 H 40.1007 -3.27175 -2.0745 0
M  V30 455 H 40.5147 -5.16297 -0.923991 0
M  V30 456 H 41.9887 -4.86504 -2.60803 0
M  V30 457 H 42.4657 -3.21331 -2.99405 0
M  V30 458 H 43.0717 -3.97723 -1.50654 0
M  V30 459 N 41.3868 0.248026 -1.55636 0
M  V30 460 C 42.6328 0.97767 -1.77678 0
M  V30 461 C 42.9658 1.85016 -0.590135 0
M  V30 462 O 42.2408 1.90095 0.411611 0
M  V30 463 C 42.5238 1.83914 -3.09593 0
M  V30 464 C 42.3768 0.99491 -4.38659 0
M  V30 465 C 43.6958 2.82183 -3.37729 0
M  V30 466 H 40.8148 0.354005 -0.646413 0
M  V30 467 H 43.4568 0.248253 -1.88371 0
M  V30 468 H 41.6068 2.46104 -3.00608 0
M  V30 469 H 43.2788 0.391789 -4.59633 0
M  V30 470 H 41.5218 0.299231 -4.32767 0
M  V30 471 H 42.1928 1.63145 -5.2734 0
M  V30 472 H 44.6688 2.30129 -3.4667 0
M  V30 473 H 43.5448 3.39582 -4.31249 0
M  V30 474 H 43.8058 3.58588 -2.58586 0
M  V30 475 N 42.8649 1.48995 0.513639 0
M  V30 476 C 44.1419 1.48338 1.27495 0
M  V30 477 C 44.5219 0.204065 2.10111 0
M  V30 478 O 43.8699 -0.813881 2.13514 0
M  V30 479 C 44.0799 2.75498 2.14247 0
M  V30 480 C 45.4279 3.24484 2.73852 0
M  V30 481 O 46.4519 2.76528 2.24523 0
M  V30 482 O 45.3109 4.07974 3.6362 0
M  V30 483 H 42.4049 0.593149 0.576284 0
M  V30 484 H 44.9509 1.61246 0.528948 0
M  V30 485 H 43.7229 3.60109 1.53092 0
M  V30 486 H 43.3459 2.6539 2.96064 0
M  V30 487 N 44.343 -0.763751 1.37857 0
M  V30 488 C 45.591 -1.51957 1.33243 0
M  V30 489 C 45.912 -1.94835 -0.0801709 0
M  V30 490 O 45.182 -1.66894 -1.02582 0
M  V30 491 H 43.762 -0.563626 0.49024 0
M  V30 492 H 46.424 -0.908504 1.7243 0
M  V30 493 H 45.52 -2.41523 1.97669 0
M  V30 494 N 45.8211 -1.22559 -0.990812 0
M  V30 495 C 46.7311 -1.01394 -2.11557 0
M  V30 496 C 47.7471 0.0383962 -1.73958 0
M  V30 497 O 48.9231 -0.154787 -2.00804 0
M  V30 498 C 45.9881 -0.596569 -3.41529 0
M  V30 499 C 45.0491 -1.72276 -3.93217 0
M  V30 500 C 44.2821 -1.32521 -5.16985 0
M  V30 501 O 44.5051 -0.204909 -5.70032 0
M  V30 502 O 43.4391 -2.14247 -5.62478 0
M  V30 503 H 47.2651 -1.95633 -2.32296 0
M  V30 504 H 44.8501 -1.01172 -1.0993 0
M  V30 505 H 46.7321 -0.374263 -4.19735 0
M  V30 506 H 45.4071 0.316939 -3.22145 0
M  V30 507 H 44.3141 -1.99961 -3.16174 0
M  V30 508 H 45.6471 -2.61421 -4.17037 0
M  V30 509 N 47.2992 1.18797 -1.03562 0
M  V30 510 C 48.5482 1.87978 -0.731235 0
M  V30 511 C 48.8612 1.80911 0.743671 0
M  V30 512 O 50.0672 2.45407 1.16137 0
M  V30 513 C 48.5232 3.3721 -1.25768 0
M  V30 514 C 48.1312 3.52818 -2.76085 0
M  V30 515 C 49.8752 4.11825 -1.0296 0
M  V30 516 C 47.7822 4.9598 -3.22114 0
M  V30 517 H 46.7122 0.704063 -0.269835 0
M  V30 518 H 49.3632 1.34266 -1.25079 0
M  V30 519 H 47.7452 3.90359 -0.666011 0
M  V30 520 H 48.9192 3.09965 -3.40966 0
M  V30 521 H 47.2342 2.91602 -2.97249 0
M  V30 522 H 49.8312 5.17411 -1.34869 0
M  V30 523 H 50.1742 4.16287 0.0333546 0
M  V30 524 H 50.7072 3.64833 -1.58562 0
M  V30 525 H 47.4462 4.96684 -4.27768 0
M  V30 526 H 46.9662 5.39569 -2.61965 0
M  V30 527 H 48.6452 5.6467 -3.15844 0
M  V30 528 N 48.7773 0.814389 1.34928 0
M  V30 529 C 50.0233 0.399013 1.98836 0
M  V30 530 C 50.3563 -1.03314 1.64438 0
M  V30 531 O 49.6313 -1.71811 0.911659 0
M  V30 532 C 49.9143 0.591629 3.55207 0
M  V30 533 C 49.7673 2.06928 3.99376 0
M  V30 534 C 51.0863 0.022199 4.40094 0
M  V30 535 H 48.2053 0.146451 0.722303 0
M  V30 536 H 50.8473 1.02537 1.59957 0
M  V30 537 H 48.9973 0.0584441 3.88456 0
M  V30 538 H 50.6693 2.66544 3.76499 0
M  V30 539 H 48.9123 2.56287 3.49999 0
M  V30 540 H 49.5833 2.1549 5.08201 0
M  V30 541 H 52.0593 0.477643 4.13349 0
M  V30 542 H 50.9353 0.186832 5.48582 0
M  V30 543 H 51.1963 -1.07215 4.28902 0
M  V30 544 N 50.2554 -1.46986 0.568584 0
M  V30 545 C 51.6714 -1.57946 0.229189 0
M  V30 546 C 51.8714 -1.56567 -1.26843 0
M  V30 547 O 50.9274 -1.47511 -2.04931 0
M  V30 548 C 52.2404 -2.87963 0.865909 0
M  V30 549 C 53.7884 -3.01568 0.838188 0
M  V30 550 C 54.2634 -4.34301 1.45419 0
M  V30 551 N 55.7544 -4.40965 1.41788 0
M  V30 552 C 56.4894 -5.42256 1.86403 0
M  V30 553 N 55.9854 -6.50297 2.38926 0
M  V30 554 N 57.7784 -5.3337 1.77405 0
M  V30 555 H 49.9294 -1.46126 1.54146 0
M  V30 556 H 52.1924 -0.696156 0.643484 0
M  V30 557 H 51.8984 -2.94742 1.91886 0
M  V30 558 H 51.7724 -3.75423 0.365687 0
M  V30 559 H 54.1594 -2.94379 -0.206106 0
M  V30 560 H 54.2404 -2.1562 1.37629 0
M  V30 561 H 53.8844 -4.42247 2.49761 0
M  V30 562 H 53.8144 -5.19 0.891435 0
M  V30 563 H 56.3054 -3.63484 1.03381 0
M  V30 564 H 56.6184 -7.23777 2.70863 0
M  V30 565 H 54.9634 -6.51155 2.42944 0
M  V30 566 H 58.1544 -4.47865 1.3614 0
M  V30 567 H 58.3274 -6.12169 2.12492 0
M  V30 568 N 51.7335 -0.305618 -1.54608 0
M  V30 569 C 52.6815 0.584119 -2.25146 0
M  V30 570 C 53.6755 1.13326 -1.25911 0
M  V30 571 O 54.8815 1.08337 -1.43747 0
M  V30 572 H 51.2565 0.206983 -0.722954 0
M  V30 573 H 53.2275 -0.033291 -2.98381 0
M  V30 574 C 51.9765 1.74225 -3.009 0
M  V30 575 H 51.2995 1.32892 -3.77067 0
M  V30 576 H 52.7395 2.34077 -3.53531 0
M  V30 577 C 51.1985 2.64914 -2.0814 0
M  V30 578 O 51.7285 3.66137 -1.65246 0
M  V30 579 N 49.9345 2.3275 -1.74 0
M  V30 580 H 49.4815 1.50479 -2.09078 0
M  V30 581 H 49.4395 2.93694 -1.12211 0
M  V30 582 N 53.2116 1.57565 -0.0334293 0
M  V30 583 C 54.1746 2.09393 0.932048 0
M  V30 584 C 55.1746 1.00986 1.25134 0
M  V30 585 O 56.3646 1.27129 1.19096 0
M  V30 586 C 53.4966 2.56338 2.2473 0
M  V30 587 H 54.6896 2.95984 0.483085 0
M  V30 588 H 52.2426 1.54819 0.21468 0
M  V30 589 H 52.9776 1.7309 2.74245 0
M  V30 590 H 52.7626 3.35542 2.02865 0
M  V30 591 H 54.2526 2.96646 2.93923 0
M  V30 592 N 54.6897 -0.239769 1.55765 0
M  V30 593 C 55.6527 -1.28038 1.90103 0
M  V30 594 C 56.6527 -1.40723 0.778055 0
M  V30 595 O 57.8427 -1.39301 1.04599 0
M  V30 596 C 54.9747 -2.65702 2.13577 0
M  V30 597 H 56.1677 -0.988048 2.83157 0
M  V30 598 H 53.7207 -0.479382 1.48767 0
M  V30 599 H 54.4557 -3.00063 1.23015 0
M  V30 600 H 54.2407 -2.57875 2.95369 0
M  V30 601 H 55.7307 -3.40828 2.41301 0
M  V30 602 N 56.1678 -1.49265 -0.50573 0
M  V30 603 C 57.4148 -1.58513 -1.26015 0
M  V30 604 C 57.7428 -0.26972 -1.92621 0
M  V30 605 O 56.9978 0.741997 -1.81088 0
M  V30 606 C 57.2968 -2.69008 -2.35308 0
M  V30 607 C 56.9628 -4.10662 -1.86192 0
M  V30 608 C 55.6248 -4.49212 -1.72516 0
M  V30 609 C 57.9768 -4.99336 -1.49375 0
M  V30 610 C 55.3048 -5.74214 -1.20394 0
M  V30 611 C 57.6568 -6.24852 -0.987072 0
M  V30 612 C 56.3208 -6.62236 -0.836669 0
M  V30 613 H 55.5908 -0.580041 -0.461122 0
M  V30 614 H 58.2378 -1.83078 -0.561665 0
M  V30 615 H 56.5428 -2.38396 -3.10926 0
M  V30 616 H 58.2398 -2.73373 -2.93374 0
M  V30 617 H 54.8298 -3.8023 -1.97795 0
M  V30 618 H 59.0138 -4.70212 -1.5879 0
M  V30 619 H 54.2698 -6.01883 -1.07458 0
M  V30 620 H 58.4438 -6.92944 -0.692983 0
M  V30 621 H 56.0708 -7.58979 -0.430607 0
M  V30 622 N 57.6459 0.756429 -1.3826 0
M  V30 623 C 58.5929 1.87011 -1.35261 0
M  V30 624 C 59.5629 1.64695 -0.215616 0
M  V30 625 O 60.7479 1.864 -0.407399 0
M  V30 626 C 57.8879 3.24275 -1.18068 0
M  V30 627 C 57.0009 3.58442 -2.41129 0
M  V30 628 C 56.1359 4.84994 -2.16689 0
M  V30 629 C 55.1749 5.11939 -3.35537 0
M  V30 630 N 54.3119 6.29685 -3.10549 0
M  V30 631 H 59.1519 1.8891 -2.30472 0
M  V30 632 H 56.6889 0.923373 -1.14509 0
M  V30 633 H 58.6469 4.03479 -1.06116 0
M  V30 634 H 57.2769 3.21711 -0.264973 0
M  V30 635 H 56.3289 2.74103 -2.63764 0
M  V30 636 H 57.6409 3.74283 -3.29717 0
M  V30 637 H 56.7949 5.72135 -2.01857 0
M  V30 638 H 55.5339 4.71286 -1.25462 0
M  V30 639 H 54.5389 4.23268 -3.50891 0
M  V30 640 H 55.7639 5.27546 -4.27635 0
M  V30 641 H 53.7099 6.17306 -2.21967 0
M  V30 642 H 53.6269 6.46014 -3.92686 0
M  V30 643 H 54.8949 7.19722 -2.99367 0
M  V30 644 N 59.124 1.23083 0.984299 0
M  V30 645 C 60.054 1.03292 2.09411 0
M  V30 646 C 61.035 -0.048923 1.7003 0
M  V30 647 O 62.22 0.114967 1.93859 0
M  V30 648 C 59.35 0.619155 3.41736 0
M  V30 649 C 58.304 1.64791 3.95004 0
M  V30 650 C 57.63 1.0897 5.23478 0
M  V30 651 C 58.93 3.03999 4.24714 0
M  V30 652 H 60.624 1.96119 2.26225 0
M  V30 653 H 58.17 0.944344 1.08711 0
M  V30 654 H 60.123 0.467777 4.18796 0
M  V30 655 H 58.847 -0.344786 3.24775 0
M  V30 656 H 57.506 1.78721 3.20085 0
M  V30 657 H 57.154 0.11686 5.02864 0
M  V30 658 H 56.854 1.77704 5.60085 0
M  V30 659 H 58.378 0.950093 6.03163 0
M  V30 660 H 59.792 2.93393 4.92538 0
M  V30 661 H 58.189 3.69936 4.72512 0
M  V30 662 H 59.259 3.53285 3.32142 0
M  V30 663 N 60.6021 -1.18246 1.0419 0
M  V30 664 C 61.5321 -2.24127 0.654914 0
M  V30 665 C 62.5131 -1.66617 -0.342451 0
M  V30 666 O 63.6981 -1.92924 -0.222277 0
M  V30 667 C 60.8281 -3.47295 0.0183757 0
M  V30 668 C 59.7821 -4.17563 0.939414 0
M  V30 669 C 59.1081 -5.34438 0.167286 0
M  V30 670 C 60.4081 -4.70917 2.25908 0
M  V30 671 H 62.1021 -2.56753 1.54007 0
M  V30 672 H 59.6481 -1.23414 0.74195 0
M  V30 673 H 61.6011 -4.20572 -0.264082 0
M  V30 674 H 60.3251 -3.13907 -0.901664 0
M  V30 675 H 58.9841 -3.46186 1.20628 0
M  V30 676 H 58.6321 -4.97298 -0.7552 0
M  V30 677 H 58.3321 -5.82388 0.780901 0
M  V30 678 H 59.8561 -6.10504 -0.108125 0
M  V30 679 H 61.2701 -5.35882 2.03724 0
M  V30 680 H 59.6671 -5.29406 2.82577 0
M  V30 681 H 60.7371 -3.88272 2.9047 0
M  V30 682 N 62.0802 -0.821533 -1.34494 0
M  V30 683 C 63.4912 -0.467956 -1.8074 0
M  V30 684 C 63.8422 1.01151 -1.68116 0
M  V30 685 O 62.9672 1.78707 -1.22036 0
M  V30 686 C 63.5622 -0.842627 -3.28154 0
M  V30 687 C 62.1212 -0.541439 -3.72485 0
M  V30 688 C 61.2682 -1.06028 -2.56229 0
M  V30 689 H 64.2192 -1.01183 -1.22261 0
M  V30 690 H 64.2402 -0.145876 -3.8022 0
M  V30 691 H 63.7522 -1.91945 -3.37311 0
M  V30 692 H 61.8532 0.526034 -3.68868 0
M  V30 693 H 61.9662 -1.08453 -4.66663 0
M  V30 694 H 60.3302 -0.481892 -2.501 0
M  V30 695 H 61.1132 -2.14352 -2.68157 0
M  V30 696 N 63.5583 1.46682 -0.576371 0
M  V30 697 C 64.4683 2.34032 0.163141 0
M  V30 698 C 65.4843 1.49367 0.892501 0
M  V30 699 O 66.6603 1.82252 0.857106 0
M  V30 700 C 63.7253 3.26435 1.16795 0
M  V30 701 C 62.7863 4.26998 0.443944 0
M  V30 702 C 62.0193 5.14986 1.40088 0
M  V30 703 O 62.2423 5.05785 2.637 0
M  V30 704 O 61.1763 5.94906 0.914917 0
M  V30 705 H 65.0023 2.98607 -0.55388 0
M  V30 706 H 62.5873 1.45554 -0.336821 0
M  V30 707 H 64.4693 3.83459 1.74748 0
M  V30 708 H 63.1443 2.64465 1.86655 0
M  V30 709 H 62.0513 3.7368 -0.177271 0
M  V30 710 H 63.3843 4.91736 -0.213566 0
M  V30 711 N 65.0364 0.313813 1.54444 0
M  V30 712 C 65.9864 -0.571898 2.20711 0
M  V30 713 C 66.9704 -1.08913 1.18435 0
M  V30 714 O 68.1624 -1.02777 1.44104 0
M  V30 715 C 65.2914 -1.7371 2.96108 0
M  V30 716 C 64.3774 -1.23522 4.05713 0
M  V30 717 N 64.7684 -0.452288 5.03774 0
M  V30 718 C 63.0664 -1.51482 4.19487 0
M  V30 719 C 63.7674 -0.183438 5.81411 0
M  V30 720 N 62.7434 -0.766845 5.38164 0
M  V30 721 H 66.5454 0.0336802 2.93881 0
M  V30 722 H 64.0594 0.119192 1.61962 0
M  V30 723 H 66.0564 -2.38329 3.4206 0
M  V30 724 H 64.7164 -2.34625 2.24458 0
M  V30 725 H 65.7274 -0.0960131 5.17811 0
M  V30 726 H 62.4044 -2.13053 3.59047 0
M  V30 727 H 63.7944 0.446216 6.70417 0
M  V30 728 N 66.5145 -1.57545 0.0417849 0
M  V30 729 C 67.7915 -1.83642 -0.673433 0
M  V30 730 C 68.1715 -0.928298 -1.89594 0
M  V30 731 O 67.5195 0.0129955 -2.28496 0
M  V30 732 C 67.7295 -3.33155 -1.03964 0
M  V30 733 C 69.0775 -3.99941 -1.42592 0
M  V30 734 O 70.1015 -3.37725 -1.13226 0
M  V30 735 O 68.9605 -5.09619 -1.9736 0
M  V30 736 H 66.0545 -0.757638 -0.331533 0
M  V30 737 H 68.6005 -1.69554 0.070433 0
M  V30 738 H 67.3725 -3.9093 -0.170098 0
M  V30 739 H 66.9955 -3.52396 -1.84126 0
M  V30 740 N 67.9926 0.231505 -1.5589 0
M  V30 741 C 69.2386 0.95877 -1.78705 0
M  V30 742 C 69.5716 1.8438 -0.609725 0
M  V30 743 O 68.8466 1.90521 0.391426 0
M  V30 744 C 69.1296 1.8062 -3.11526 0
M  V30 745 C 68.9826 0.948328 -4.39689 0
M  V30 746 C 70.3016 2.78585 -3.40703 0
M  V30 747 H 67.4206 0.347129 -0.650131 0
M  V30 748 H 70.0626 0.228259 -1.88624 0
M  V30 749 H 68.2126 2.42902 -3.03201 0
M  V30 750 H 69.8846 0.343016 -4.60023 0
M  V30 751 H 68.1276 0.253314 -4.3306 0
M  V30 752 H 68.7986 1.57543 -5.29041 0
M  V30 753 H 71.2746 2.26439 -3.49091 0
M  V30 754 H 70.1506 3.34988 -4.34826 0
M  V30 755 H 70.4116 3.55825 -2.62375 0
M  V30 756 N 69.4707 1.49531 0.497807 0
M  V30 757 C 70.4337 1.65916 1.58128 0
M  V30 758 C 71.4337 0.530825 1.51786 0
M  V30 759 O 72.6237 0.797342 1.54881 0
M  V30 760 C 69.7557 1.65951 2.9778 0
M  V30 761 H 70.9487 2.62556 1.44929 0
M  V30 762 H 68.5017 1.38611 0.722275 0
M  V30 763 H 69.2367 0.709065 3.16453 0
M  V30 764 H 69.0217 2.47897 3.03792 0
M  V30 765 H 70.5117 1.80673 3.76493 0
M  V30 766 N 70.9488 -0.749086 1.3866 0
M  V30 767 C 72.1788 -1.53611 1.38157 0
M  V30 768 C 72.5868 -1.89177 -0.0293595 0
M  V30 769 O 71.9298 -1.53606 -1.00752 0
M  V30 770 C 71.9918 -2.86087 2.17702 0
M  V30 771 C 71.6558 -2.73034 3.66472 0
M  V30 772 C 72.6528 -2.42526 4.59866 0
M  V30 773 C 70.3378 -2.90345 4.09884 0
M  V30 774 C 72.3318 -2.29492 5.94653 0
M  V30 775 C 70.0188 -2.7693 5.4475 0
M  V30 776 C 71.0168 -2.46547 6.36949 0
M  V30 777 O 70.7048 -2.33199 7.69333 0
M  V30 778 H 70.4368 -0.481773 0.474205 0
M  V30 779 H 72.9908 -0.934465 1.82912 0
M  V30 780 H 71.2208 -3.48458 1.67672 0
M  V30 781 H 72.9098 -3.47625 2.09551 0
M  V30 782 H 73.6758 -2.28816 4.27631 0
M  V30 783 H 69.5548 -3.1299 3.38464 0
M  V30 784 H 73.0988 -2.05698 6.66584 0
M  V30 785 H 68.9958 -2.90215 5.76581 0
M  V30 786 H 69.7638 -2.48376 7.79905 0
M  V30 787 N 72.4269 -1.23603 -0.977757 0
M  V30 788 C 73.7039 -0.977897 -1.69401 0
M  V30 789 C 74.0839 0.502738 -2.05026 0
M  V30 790 O 73.4319 1.47459 -1.74551 0
M  V30 791 C 73.6419 -1.89077 -2.93345 0
M  V30 792 C 74.9899 -2.15579 -3.65802 0
M  V30 793 O 76.0139 -1.86648 -3.03383 0
M  V30 794 O 74.8729 -2.64658 -4.78141 0
M  V30 795 H 71.9669 -0.369025 -0.740101 0
M  V30 796 H 74.5129 -1.34657 -1.03274 0
M  V30 797 H 73.2849 -2.89158 -2.63634 0
M  V30 798 H 72.9079 -1.52463 -3.67207 0
M  V30 799 N 73.905 1.17692 -1.04816 0
M  V30 800 C 75.153 1.87488 -0.754497 0
M  V30 801 C 75.474 1.81205 0.720407 0
M  V30 802 O 74.744 1.23544 1.52032 0
M  V30 803 H 73.324 0.694101 -0.276102 0
M  V30 804 H 75.986 1.42793 -1.32651 0
M  V30 805 H 75.082 2.93328 -1.06606 0
M  V30 806 N 75.3831 0.828654 1.34056 0
M  V30 807 C 76.3311 0.242973 2.31327 0
M  V30 808 C 77.3251 -0.61944 1.57668 0
M  V30 809 O 78.5311 -0.51014 1.7262 0
M  V30 810 H 74.9061 0.059834 0.749616 0
M  V30 811 H 76.8771 1.07809 2.78244 0
M  V30 812 C 75.6261 -0.575733 3.429 0
M  V30 813 H 74.9491 0.0785582 3.99723 0
M  V30 814 H 76.3891 -0.951547 4.13185 0
M  V30 815 C 74.8481 -1.75044 2.87856 0
M  V30 816 O 75.3781 -2.84882 2.83205 0
M  V30 817 N 73.5841 -1.56903 2.44602 0
M  V30 818 H 73.1311 -0.675547 2.48584 0
M  V30 819 H 73.0891 -2.35652 2.08124 0
M  V30 820 N 76.8612 -1.46375 0.584142 0
M  V30 821 C 78.2722 -1.86031 0.157959 0
M  V30 822 C 78.6232 -1.48753 -1.27933 0
M  V30 823 O 77.7482 -0.903098 -1.96655 0
M  V30 824 C 78.3432 -3.37642 0.279892 0
M  V30 825 C 76.9022 -3.76289 -0.09143 0
M  V30 826 C 76.0492 -2.7039 0.615178 0
M  V30 827 H 79.0002 -1.37509 0.792274 0
M  V30 828 H 79.0212 -3.77275 -0.494364 0
M  V30 829 H 78.5332 -3.64742 1.32607 0
M  V30 830 H 76.6342 -3.54806 -1.13769 0
M  V30 831 H 76.7472 -4.78246 0.285886 0
M  V30 832 H 75.1112 -2.5464 0.0552833 0
M  V30 833 H 75.8942 -3.0033 1.66303 0
M  V30 834 N 78.3393 -0.321999 -1.54275 0
M  V30 835 C 79.2693 0.537411 -2.27231 0
M  V30 836 C 80.2503 1.12064 -1.27968 0
M  V30 837 O 81.4353 1.14606 -1.56777 0
M  V30 838 C 78.5653 1.69919 -3.02894 0
M  V30 839 C 77.5193 1.24534 -4.09482 0
M  V30 840 C 76.8453 2.49394 -4.72977 0
M  V30 841 C 78.1453 0.361335 -5.21049 0
M  V30 842 H 79.8393 -0.0711406 -2.99315 0
M  V30 843 H 77.3853 -0.0356555 -1.43956 0
M  V30 844 H 79.3383 2.30668 -3.52662 0
M  V30 845 H 78.0623 2.33431 -2.28424 0
M  V30 846 H 76.7213 0.660782 -3.60596 0
M  V30 847 H 76.3693 3.11265 -3.95124 0
M  V30 848 H 76.0693 2.19718 -5.44975 0
M  V30 849 H 77.5933 3.10908 -5.25517 0
M  V30 850 H 79.0073 0.875072 -5.66582 0
M  V30 851 H 77.4043 0.157428 -5.99893 0
M  V30 852 H 78.4743 -0.60822 -4.8107 0
M  V30 853 N 79.8174 1.5752 -0.0501392 0
M  V30 854 C 80.7804 2.1037 0.909786 0
M  V30 855 C 81.7804 1.02308 1.24056 0
M  V30 856 O 82.9704 1.28385 1.17741 0
M  V30 857 C 80.1024 2.58708 2.21998 0
M  V30 858 H 81.2954 2.96479 0.451665 0
M  V30 859 H 78.8484 1.55038 0.198248 0
M  V30 860 H 79.5834 1.75989 2.72394 0
M  V30 861 H 79.3684 3.37675 1.99295 0
M  V30 862 H 80.8584 2.99747 2.9076 0
M  V30 863 N 81.2955 -0.223234 1.56011 0
M  V30 864 C 82.2275 -1.30006 1.88762 0
M  V30 865 C 83.2405 -1.43129 0.775746 0
M  V30 866 O 84.4295 -1.44057 1.05403 0
M  V30 867 C 81.5295 -2.67589 2.07965 0
M  V30 868 C 80.7025 -2.76434 3.38973 0
M  V30 869 C 79.7615 -3.95019 3.47629 0
M  V30 870 O 78.7875 -3.83436 4.20672 0
M  V30 871 N 79.9895 -5.09249 2.78649 0
M  V30 872 H 82.7545 -1.02238 2.81722 0
M  V30 873 H 80.3155 -0.413278 1.56536 0
M  V30 874 H 82.3075 -3.45297 2.11073 0
M  V30 875 H 80.8775 -2.87964 1.21638 0
M  V30 876 H 80.0975 -1.85216 3.47978 0
M  V30 877 H 81.3855 -2.79313 4.25278 0
M  V30 878 H 80.7835 -5.21556 2.19081 0
M  V30 879 H 79.3405 -5.85007 2.8742 0
M  V30 880 N 82.7736 -1.49793 -0.48987 0
M  V30 881 C 83.7056 -1.63413 -1.60713 0
M  V30 882 C 84.7186 -0.516329 -1.54395 0
M  V30 883 O 85.9076 -0.788812 -1.60125 0
M  V30 884 C 83.0076 -1.58516 -2.99543 0
M  V30 885 C 82.1806 -2.86016 -3.30928 0
M  V30 886 C 81.2396 -2.74018 -4.49222 0
M  V30 887 O 80.2656 -3.47964 -4.50455 0
M  V30 888 N 81.4676 -1.86309 -5.4979 0
M  V30 889 H 84.2326 -2.59777 -1.49452 0
M  V30 890 H 81.7936 -1.47022 -0.677955 0
M  V30 891 H 83.7856 -1.48128 -3.76617 0
M  V30 892 H 82.3556 -0.69965 -3.0467 0
M  V30 893 H 81.5756 -3.10672 -2.42645 0
M  V30 894 H 82.8636 -3.70521 -3.487 0
M  V30 895 H 82.2616 -1.2551 -5.51601 0
M  V30 896 H 80.8186 -1.81837 -6.25922 0
M  V30 897 N 84.2517 0.741722 -1.39055 0
M  V30 898 C 85.2017 1.84661 -1.33732 0
M  V30 899 C 86.1857 1.59397 -0.219401 0
M  V30 900 O 87.3777 1.71015 -0.456375 0
M  V30 901 C 84.5067 3.22512 -1.17647 0
M  V30 902 C 83.5927 3.53628 -2.34112 0
M  V30 903 N 83.9837 3.55723 -3.59576 0
M  V30 904 C 82.2817 3.83956 -2.26923 0
M  V30 905 C 82.9827 3.84443 -4.36553 0
M  V30 906 N 81.9587 4.01877 -3.66055 0
M  V30 907 H 85.7607 1.84576 -2.28711 0
M  V30 908 H 83.2747 0.939647 -1.32455 0
M  V30 909 H 85.2717 4.01597 -1.11917 0
M  V30 910 H 83.9317 3.2384 -0.236124 0
M  V30 911 H 84.9427 3.37196 -3.93089 0
M  V30 912 H 81.6197 3.92929 -1.41113 0
M  V30 913 H 83.0097 3.92588 -5.45274 0
M  V30 914 N 85.7298 1.2412 0.971189 0
M  V30 915 C 86.9778 1.07668 1.71032 0
M  V30 916 C 87.2988 -0.385797 1.91146 0
M  V30 917 O 86.5688 -1.27569 1.4867 0
M  V30 918 H 85.1488 0.395429 0.633755 0
M  V30 919 H 87.8108 1.55984 1.16855 0
M  V30 920 H 86.9068 1.57195 2.69622 0
M  V30 921 N 87.2079 -1.17134 1.05439 0
M  V30 922 C 88.6189 -1.69084 0.791676 0
M  V30 923 C 88.9699 -1.83822 -0.685839 0
M  V30 924 O 88.0949 -1.52757 -1.53278 0
M  V30 925 C 88.6899 -3.07119 1.4305 0
M  V30 926 C 87.2489 -3.56225 1.21577 0
M  V30 927 C 86.3959 -2.32421 1.51247 0
M  V30 928 H 89.3469 -1.01617 1.219 0
M  V30 929 H 89.3679 -3.71087 0.84112 0
M  V30 930 H 88.8799 -2.9636 2.50584 0
M  V30 931 H 86.9809 -3.72257 0.159787 0
M  V30 932 H 87.0939 -4.38837 1.92246 0
M  V30 933 H 85.4579 -2.3701 0.932653 0
M  V30 934 H 86.2409 -2.24268 2.5992 0
M  V30 935 N 88.686 -0.835752 -1.33615 0
M  V30 936 C 90.102 -0.523139 -1.50783 0
M  V30 937 C 90.302 0.950171 -1.77691 0
M  V30 938 O 89.358 1.73411 -1.83534 0
M  V30 939 C 90.671 -1.39378 -2.66448 0
M  V30 940 C 92.219 -1.39223 -2.80332 0
M  V30 941 C 92.694 -2.24765 -3.99055 0
M  V30 942 N 94.185 -2.22458 -4.06284 0
M  V30 943 C 94.92 -2.85386 -4.97336 0
M  V30 944 N 94.416 -3.57354 -5.93523 0
M  V30 945 N 96.209 -2.74872 -4.90308 0
M  V30 946 H 88.36 -1.78952 -1.14411 0
M  V30 947 H 90.623 -0.763297 -0.562212 0
M  V30 948 H 90.329 -2.44061 -2.53234 0
M  V30 949 H 90.203 -1.0676 -3.61776 0
M  V30 950 H 92.59 -0.353136 -2.92979 0
M  V30 951 H 92.671 -1.75846 -1.85773 0
M  V30 952 H 92.315 -3.28732 -3.87167 0
M  V30 953 H 92.245 -1.85485 -4.92852 0
M  V30 954 H 94.736 -1.70119 -3.37443 0
M  V30 955 H 95.049 -4.02584 -6.59656 0
M  V30 956 H 93.394 -3.61461 -5.93608 0
M  V30 957 H 96.585 -2.18213 -4.14126 0
M  V30 958 H 96.758 -3.24199 -5.61069 0
M  V30 959 N 90.1641 1.46063 -0.591896 0
M  V30 960 C 91.3941 2.06418 -0.0867676 0
M  V30 961 C 91.8021 1.43975 1.22751 0
M  V30 962 O 91.1451 0.542531 1.75506 0
M  V30 963 C 91.2071 3.59213 0.143725 0
M  V30 964 C 90.8711 4.439 -1.08635 0
M  V30 965 C 91.8681 4.79864 -2.00067 0
M  V30 966 C 89.5531 4.84896 -1.31077 0
M  V30 967 C 91.5471 5.55661 -3.12282 0
M  V30 968 C 89.2341 5.6045 -2.43596 0
M  V30 969 C 90.2321 5.95747 -3.34027 0
M  V30 970 O 89.9201 6.69772 -4.4459 0
M  V30 971 H 89.6521 0.673443 -0.0587447 0
M  V30 972 H 92.2061 1.88539 -0.814994 0
M  V30 973 H 90.4361 3.75433 0.926668 0
M  V30 974 H 92.1251 4.01463 0.5985 0
M  V30 975 H 92.8911 4.48763 -1.83947 0
M  V30 976 H 88.7701 4.56867 -0.61594 0
M  V30 977 H 92.3141 5.8313 -3.82891 0
M  V30 978 H 88.2111 5.90965 -2.59674 0
M  V30 979 H 88.9791 6.88207 -4.43073 0
M  V30 980 N 91.6422 0.330177 1.54103 0
M  V30 981 C 92.8892 -0.270405 2.00686 0
M  V30 982 C 93.2172 -1.51621 1.21825 0
M  V30 983 O 92.4722 -1.93536 0.29025 0
M  V30 984 C 92.7712 -0.643134 3.51566 0
M  V30 985 C 92.4372 0.504251 4.48072 0
M  V30 986 C 91.0992 0.819163 4.74176 0
M  V30 987 C 93.4512 1.27465 5.05373 0
M  V30 988 C 90.7792 1.90708 5.5484 0
M  V30 989 C 93.1312 2.35271 5.87223 0
M  V30 990 C 91.7952 2.67336 6.11627 0
M  V30 991 H 91.0652 -0.0989482 0.734364 0
M  V30 992 H 93.7122 0.455324 1.86008 0
M  V30 993 H 92.0172 -1.44938 3.64006 0
M  V30 994 H 93.7142 -1.11949 3.85056 0
M  V30 995 H 90.3042 0.248733 4.27878 0
M  V30 996 H 94.4882 1.04462 4.85182 0
M  V30 997 H 89.7442 2.15991 5.71977 0
M  V30 998 H 93.9182 2.95405 6.30641 0
M  V30 999 H 91.5452 3.51763 6.73919 0
M  V30 1000 N 93.1203 -1.57491 0.0584922 0
M  V30 1001 C 94.0533 -2.07533 -0.948969 0
M  V30 1002 C 95.0313 -0.977444 -1.29942 0
M  V30 1003 O 96.2153 -1.2499 -1.41102 0
M  V30 1004 C 93.3423 -2.52192 -2.2609 0
M  V30 1005 C 92.3883 -3.73287 -2.06298 0
M  V30 1006 S 93.2213 -5.18603 -1.33459 0
M  V30 1007 C 94.3773 -5.66583 -2.65959 0
M  V30 1008 H 94.6103 -2.92662 -0.523118 0
M  V30 1009 H 92.1433 -1.53631 -0.153954 0
M  V30 1010 H 94.1013 -2.78585 -3.01498 0
M  V30 1011 H 92.7623 -1.67356 -2.65802 0
M  V30 1012 H 91.9553 -4.0248 -3.03357 0
M  V30 1013 H 91.5573 -3.47199 -1.39029 0
M  V30 1014 H 93.8493 -5.72616 -3.62101 0
M  V30 1015 H 94.7923 -6.65684 -2.41393 0
M  V30 1016 H 95.2003 -4.94342 -2.72554 0
M  V30 1017 N 94.5984 0.214957 -1.56127 0
M  V30 1018 C 95.5284 1.2695 -1.95974 0
M  V30 1019 C 96.5094 1.48539 -0.828868 0
M  V30 1020 O 97.6944 1.60611 -1.09168 0
M  V30 1021 C 94.8244 2.61794 -2.28214 0
M  V30 1022 C 93.7784 2.54851 -3.43853 0
M  V30 1023 C 93.1044 3.93785 -3.61715 0
M  V30 1024 C 94.4044 2.09065 -4.78632 0
M  V30 1025 H 96.0984 0.93846 -2.84312 0
M  V30 1026 H 93.6444 0.449996 -1.36788 0
M  V30 1027 H 95.5974 3.35731 -2.54682 0
M  V30 1028 H 94.3214 2.96599 -1.36736 0
M  V30 1029 H 92.9804 1.8337 -3.17444 0
M  V30 1030 H 92.6284 4.25908 -2.67602 0
M  V30 1031 H 92.3284 3.90019 -4.39498 0
M  V30 1032 H 93.8524 4.69374 -3.90539 0
M  V30 1033 H 95.2664 2.7275 -5.04262 0
M  V30 1034 H 93.6634 2.16346 -5.59745 0
M  V30 1035 H 94.7334 1.04315 -4.73547 0
M  V30 1036 N 96.0765 1.50051 0.48192 0
M  V30 1037 C 97.0245 1.68635 1.60203 0
M  V30 1038 C 98.0185 0.552184 1.60148 0
M  V30 1039 O 99.2245 0.732377 1.64427 0
M  V30 1040 H 95.5995 0.532081 0.531407 0
M  V30 1041 H 97.5705 2.62616 1.41688 0
M  V30 1042 C 96.3195 1.78775 2.9822 0
M  V30 1043 H 95.6425 2.6543 2.98976 0
M  V30 1044 H 97.0825 1.95806 3.7608 0
M  V30 1045 C 95.5415 0.536849 3.32595 0
M  V30 1046 O 96.0715 -0.328897 4.00351 0
M  V30 1047 N 94.2775 0.394091 2.87915 0
M  V30 1048 H 93.8245 1.09962 2.32951 0
M  V30 1049 H 93.7825 -0.441737 3.11281 0
M  V30 1050 N 97.5546 -0.734337 1.39446 0
M  V30 1051 C 98.5016 -1.84835 1.38219 0
M  V30 1052 C 99.4716 -1.64331 0.24179 0
M  V30 1053 O 100.657 -1.85728 0.437002 0
M  V30 1054 C 97.7966 -3.22355 1.23212 0
M  V30 1055 C 96.9096 -3.5456 2.46801 0
M  V30 1056 C 96.0446 -4.81485 2.24377 0
M  V30 1057 C 95.0836 -5.06536 3.43639 0
M  V30 1058 N 94.2206 -6.24665 3.20528 0
M  V30 1059 H 99.0606 -1.85219 2.33448 0
M  V30 1060 H 96.5976 -0.905039 1.15963 0
M  V30 1061 H 98.5556 -4.0174 1.12522 0
M  V30 1062 H 97.1856 -3.21248 0.316121 0
M  V30 1063 H 96.2376 -2.69872 2.68092 0
M  V30 1064 H 97.5496 -3.6899 3.3563 0
M  V30 1065 H 96.7036 -5.68852 2.10933 0
M  V30 1066 H 95.4426 -4.6923 1.32944 0
M  V30 1067 H 94.4476 -4.17632 3.5758 0
M  V30 1068 H 95.6726 -5.20676 4.35974 0
M  V30 1069 H 93.6186 -6.13696 2.3176 0
M  V30 1070 H 93.5356 -6.39685 4.02913 0
M  V30 1071 H 94.8036 -7.14868 3.10779 0
M  V30 1072 N 99.0327 -1.24633 -0.964593 0
M  V30 1073 C 100.444 -1.08045 -1.5226 0
M  V30 1074 C 100.795 0.347116 -1.93105 0
M  V30 1075 O 99.9197 1.23588 -1.77637 0
M  V30 1076 C 100.515 -1.95514 -2.76695 0
M  V30 1077 C 99.0737 -1.8314 -3.28841 0
M  V30 1078 C 98.2207 -1.90262 -2.01732 0
M  V30 1079 H 101.172 -1.38064 -0.782553 0
M  V30 1080 H 101.193 -1.48925 -3.50145 0
M  V30 1081 H 100.705 -2.99407 -2.46936 0
M  V30 1082 H 98.8057 -0.82092 -3.63444 0
M  V30 1083 H 98.9187 -2.67406 -3.97531 0
M  V30 1084 H 97.2827 -1.34027 -2.16584 0
M  V30 1085 H 98.0657 -2.9574 -1.74334 0
M  V30 1086 N 100.511 1.16574 -1.06058 0
M  V30 1087 C 101.443 2.2045 -0.627239 0
M  V30 1088 C 102.456 1.59752 0.313534 0
M  V30 1089 O 103.645 1.78192 0.104896 0
M  V30 1090 C 100.745 3.3875 0.100974 0
M  V30 1091 C 99.9178 4.29008 -0.852687 0
M  V30 1092 C 98.9768 5.25944 -0.164152 0
M  V30 1093 O 98.0028 5.63535 -0.801047 0
M  V30 1094 N 99.2048 5.70075 1.09518 0
M  V30 1095 H 101.97 2.58249 -1.52077 0
M  V30 1096 H 99.5308 1.3156 -0.943594 0
M  V30 1097 H 101.523 4.00638 0.57194 0
M  V30 1098 H 100.093 2.99476 0.89628 0
M  V30 1099 H 99.3128 3.64419 -1.50308 0
M  V30 1100 H 100.601 4.86195 -1.49972 0
M  V30 1101 H 99.9988 5.41624 1.6328 0
M  V30 1102 H 98.5558 6.34067 1.51006 0
M  V30 1103 N 101.989 0.842826 1.3317 0
M  V30 1104 C 103.237 0.439577 1.97262 0
M  V30 1105 C 103.558 -1.00548 1.67078 0
M  V30 1106 O 102.828 -1.70098 0.971779 0
M  V30 1107 H 101.408 0.159558 0.72976 0
M  V30 1108 H 104.07 1.07665 1.62463 0
M  V30 1109 H 103.166 0.574886 3.0676 0
M  V30 1110 N 103.467 -1.45747 0.599634 0
M  V30 1111 C 104.697 -2.06369 0.0977132 0
M  V30 1112 C 105.105 -1.44624 -1.21985 0
M  V30 1113 O 104.448 -0.551831 -1.75216 0
M  V30 1114 C 104.51 -3.59284 -0.124673 0
M  V30 1115 C 104.174 -4.43318 1.10987 0
M  V30 1116 C 105.171 -4.78796 2.02609 0
M  V30 1117 C 102.856 -4.84194 1.33647 0
M  V30 1118 C 104.85 -5.53997 3.15224 0
M  V30 1119 C 102.537 -5.5915 2.46565 0
M  V30 1120 C 103.535 -5.93968 3.37182 0
M  V30 1121 O 103.223 -6.67405 4.48136 0
M  V30 1122 H 102.955 -0.673122 0.0623153 0
M  V30 1123 H 105.509 -1.88104 0.824981 0
M  V30 1124 H 103.739 -3.75919 -0.906745 0
M  V30 1125 H 105.428 -4.01775 -0.577201 0
M  V30 1126 H 106.194 -4.47781 1.86325 0
M  V30 1127 H 102.073 -4.56534 0.64016 0
M  V30 1128 H 105.617 -5.81091 3.85978 0
M  V30 1129 H 101.514 -5.89579 2.62805 0
M  V30 1130 H 102.282 -6.85847 4.46717 0
M  V30 1131 N 104.945 -0.338344 -1.53925 0
M  V30 1132 C 106.191 0.260143 -2.01125 0
M  V30 1133 C 106.524 1.50617 -1.22589 0
M  V30 1134 O 105.799 1.91979 -0.312113 0
M  V30 1135 C 106.082 0.579499 -3.55407 0
M  V30 1136 C 105.935 -0.678264 -4.44657 0
M  V30 1137 C 107.254 1.39122 -4.17532 0
M  V30 1138 H 104.373 0.0930772 -0.731099 0
M  V30 1139 H 107.015 -0.457852 -1.84401 0
M  V30 1140 H 105.165 1.19118 -3.69788 0
M  V30 1141 H 106.837 -1.31631 -4.42121 0
M  V30 1142 H 105.08 -1.3042 -4.13731 0
M  V30 1143 H 105.751 -0.410143 -5.50474 0
M  V30 1144 H 108.227 0.874035 -4.06817 0
M  V30 1145 H 107.103 1.58342 -5.25565 0
M  V30 1146 H 107.364 2.39178 -3.71815 0
M  V30 1147 N 106.423 1.57458 -0.0668435 0
M  V30 1148 C 107.663 1.95175 0.607116 0
M  V30 1149 C 108.027 0.946039 1.67075 0
M  V30 1150 O 109.228 1.2107 2.39991 0
M  V30 1151 C 107.499 3.37582 1.17358 0
M  V30 1152 S 109.058 3.97271 1.86336 0
M  V30 1153 H 105.876 0.682604 0.19893 0
M  V30 1154 H 108.478 1.95002 -0.139519 0
M  V30 1155 H 107.182 4.08566 0.387553 0
M  V30 1156 H 106.713 3.41288 1.95669 0
M  V30 1157 H 108.728 3.83772 3.14537 0
M  V30 1158 N 107.901 -0.206675 1.56239 0
M  V30 1159 C 109.126 -0.949474 1.8439 0
M  V30 1160 C 109.551 -1.76549 0.649016 0
M  V30 1161 O 108.909 -1.76782 -0.402231 0
M  V30 1162 C 108.957 -1.83078 3.10668 0
M  V30 1163 O 108.061 -2.9281 2.90407 0
M  V30 1164 H 107.402 -0.268033 0.607499 0
M  V30 1165 H 109.932 -0.215488 2.03462 0
M  V30 1166 H 109.942 -2.2377 3.41161 0
M  V30 1167 H 108.617 -1.23112 3.97261 0
M  V30 1168 H 107.194 -2.55956 2.71184 0
M  V30 1169 N 109.379 -1.50304 -0.473955 0
M  V30 1170 C 110.607 -1.64902 -1.24959 0
M  V30 1171 C 111.022 -0.331198 -1.85872 0
M  V30 1172 O 110.379 0.68652 -1.69095 0
M  V30 1173 C 110.43 -2.73803 -2.36038 0
M  V30 1174 O 110.151 -4.00477 -1.77624 0
M  V30 1175 C 111.652 -2.99349 -3.26964 0
M  V30 1176 H 108.872 -0.554383 -0.378022 0
M  V30 1177 H 111.416 -1.9651 -0.566054 0
M  V30 1178 H 109.571 -2.44898 -3.00173 0
M  V30 1179 H 109.985 -4.60678 -2.5075 0
M  V30 1180 H 111.459 -3.79217 -4.01121 0
M  V30 1181 H 111.936 -2.10307 -3.85574 0
M  V30 1182 H 112.542 -3.29774 -2.68569 0
M  V30 1183 N 110.857 0.726932 -1.39834 0
M  V30 1184 C 112.134 1.47902 -1.28001 0
M  V30 1185 C 112.514 2.1083 0.106789 0
M  V30 1186 O 111.862 1.99242 1.11869 0
M  V30 1187 C 112.072 2.52392 -2.41038 0
M  V30 1188 C 113.42 3.18546 -2.80737 0
M  V30 1189 O 114.444 2.62708 -2.40547 0
M  V30 1190 O 113.303 4.19604 -3.50135 0
M  V30 1191 H 110.397 0.657163 -0.502062 0
M  V30 1192 H 112.943 0.760071 -1.51727 0
M  V30 1193 H 111.715 2.04329 -3.33715 0
M  V30 1194 H 111.338 3.31837 -2.19021 0
M  V30 1195 N 112.336 1.25143 0.95797 0
M  V30 1196 C 113.613 1.00472 1.67823 0
M  V30 1197 C 113.993 -0.470056 2.058 0
M  V30 1198 O 113.341 -1.44663 1.76875 0
M  V30 1199 C 113.551 1.9372 2.90299 0
M  V30 1200 C 114.899 2.21371 3.62326 0
M  V30 1201 O 115.923 1.91451 3.00375 0
M  V30 1202 O 114.782 2.72231 4.7387 0
M  V30 1203 H 111.876 0.380752 0.734137 0
M  V30 1204 H 114.422 1.36283 1.01119 0
M  V30 1205 H 113.194 2.93316 2.59001 0
M  V30 1206 H 112.817 1.58286 3.64735 0
M  V30 1207 N 113.814 -1.1601 1.06675 0
M  V30 1208 C 115.225 -1.68235 0.809565 0
M  V30 1209 C 115.576 -1.8454 -0.666303 0
M  V30 1210 O 114.701 -1.54374 -1.5165 0
M  V30 1211 C 115.296 -3.05585 1.46299 0
M  V30 1212 C 113.855 -3.54915 1.25349 0
M  V30 1213 C 113.002 -2.30804 1.53703 0
M  V30 1214 H 115.953 -1.00318 1.22971 0
M  V30 1215 H 115.974 -3.70174 0.880431 0
M  V30 1216 H 115.486 -2.93686 2.53713 0
M  V30 1217 H 113.587 -3.72067 0.199261 0
M  V30 1218 H 113.7 -4.36774 1.9689 0
M  V30 1219 H 112.064 -2.36007 0.957739 0
M  V30 1220 H 112.847 -2.21499 2.62284 0
M  V30 1221 N 115.292 -0.849877 -1.32721 0
M  V30 1222 C 116.569 -0.372405 -1.92022 0
M  V30 1223 C 116.949 1.1435 -1.77447 0
M  V30 1224 O 116.297 1.96296 -1.16962 0
M  V30 1225 C 116.507 -0.831482 -3.3895 0
M  V30 1226 C 117.855 -0.845882 -4.16089 0
M  V30 1227 O 118.879 -0.775806 -3.47649 0
M  V30 1228 O 117.738 -0.943753 -5.38289 0
M  V30 1229 H 114.832 -0.107667 -0.819961 0
M  V30 1230 H 117.378 -0.93646 -1.41522 0
M  V30 1231 H 116.15 -1.87448 -3.4348 0
M  V30 1232 H 115.773 -0.24461 -3.96847 0
M  V30 1233 N 116.77 1.45427 -0.607355 0
M  V30 1234 C 117.72 2.27612 0.133038 0
M  V30 1235 C 118.704 1.37307 0.838785 0
M  V30 1236 O 119.896 1.61299 0.728813 0
M  V30 1237 C 117.025 3.24173 1.12991 0
M  V30 1238 C 116.111 4.21965 0.425011 0
M  V30 1239 N 116.502 5.02982 -0.533217 0
M  V30 1240 C 114.8 4.40899 0.672593 0
M  V30 1241 C 115.501 5.73931 -0.947518 0
M  V30 1242 N 114.477 5.42819 -0.291321 0
M  V30 1243 H 118.279 2.87649 -0.602935 0
M  V30 1244 H 115.793 1.56576 -0.431006 0
M  V30 1245 H 117.79 3.81783 1.67473 0
M  V30 1246 H 116.45 2.65696 1.86644 0
M  V30 1247 H 117.461 5.09843 -0.90995 0
M  V30 1248 H 114.138 3.93547 1.39382 0
M  V30 1249 H 115.528 6.49037 -1.73782 0
M  V30 1250 N 118.248 0.346503 1.53744 0
M  V30 1251 C 119.659 -0.136779 1.86198 0
M  V30 1252 C 120.01 -1.49749 1.26766 0
M  V30 1253 O 119.135 -2.08417 0.582355 0
M  V30 1254 C 119.73 -0.254966 3.37839 0
M  V30 1255 C 118.289 -0.682482 3.70161 0
M  V30 1256 C 117.436 0.181981 2.76702 0
M  V30 1257 H 120.387 0.565994 1.48264 0
M  V30 1258 H 120.408 -1.08195 3.64793 0
M  V30 1259 H 119.92 0.735526 3.81066 0
M  V30 1260 H 118.021 -1.68189 3.3248 0
M  V30 1261 H 118.134 -0.470326 4.76786 0
M  V30 1262 H 116.498 -0.34615 2.52337 0
M  V30 1263 H 117.281 1.16966 3.2276 0
M  V30 1264 N 119.726 -1.57421 0.075193 0
M  V30 1265 C 120.954 -1.97946 -0.602076 0
M  V30 1266 C 121.369 -0.953674 -1.62943 0
M  V30 1267 O 120.726 0.0592551 -1.82404 0
M  V30 1268 C 120.777 -3.38546 -1.26762 0
M  V30 1269 O 120.498 -4.37195 -0.281376 0
M  V30 1270 C 121.999 -3.93966 -2.03239 0
M  V30 1271 H 119.219 -0.650918 -0.162931 0
M  V30 1272 H 121.763 -2.03959 0.148601 0
M  V30 1273 H 119.918 -3.33609 -1.96936 0
M  V30 1274 H 120.332 -5.18975 -0.759267 0
M  V30 1275 H 121.806 -4.94555 -2.45193 0
M  V30 1276 H 122.283 -3.30693 -2.8903 0
M  V30 1277 H 122.889 -4.02315 -1.37924 0
M  V30 1278 N 121.204 0.198386 -1.56346 0
M  V30 1279 C 122.45 0.920648 -1.80698 0
M  V30 1280 C 122.783 1.83045 -0.648697 0
M  V30 1281 O 122.058 1.91308 0.350925 0
M  V30 1282 C 122.341 1.73971 -3.15287 0
M  V30 1283 C 122.194 0.85485 -4.41602 0
M  V30 1284 C 123.513 2.71296 -3.46535 0
M  V30 1285 H 120.632 0.333261 -0.657348 0
M  V30 1286 H 123.274 0.188198 -1.89066 0
M  V30 1287 H 121.424 2.36416 -3.08285 0
M  V30 1288 H 123.096 0.245362 -4.60647 0
M  V30 1289 H 121.339 0.161398 -4.335 0
M  V30 1290 H 122.01 1.46286 -5.32264 0
M  V30 1291 H 124.486 2.18983 -3.53816 0
M  V30 1292 H 123.362 3.2569 -4.41834 0
M  V30 1293 H 123.623 3.5018 -2.69864 0
M  V30 1294 N 122.682 1.50554 0.465978 0
M  V30 1295 C 123.612 1.72722 1.57128 0
M  V30 1296 C 124.593 0.576294 1.6004 0
M  V30 1297 O 125.778 0.81598 1.76225 0
M  V30 1298 C 122.908 1.82605 2.95419 0
M  V30 1299 C 121.862 2.97835 3.07373 0
M  V30 1300 C 121.188 2.92867 4.47363 0
M  V30 1301 C 122.488 4.38265 2.84114 0
M  V30 1302 H 124.182 2.65267 1.38829 0
M  V30 1303 H 121.728 1.2765 0.666441 0
M  V30 1304 H 123.681 1.96698 3.72677 0
M  V30 1305 H 122.405 0.866858 3.14886 0
M  V30 1306 H 121.064 2.83401 2.3255 0
M  V30 1307 H 120.712 1.94783 4.63755 0
M  V30 1308 H 120.412 3.70227 4.56296 0
M  V30 1309 H 121.936 3.09015 5.26633 0
M  V30 1310 H 123.35 4.53198 3.51118 0
M  V30 1311 H 121.747 5.17115 3.04487 0
M  V30 1312 H 122.817 4.50281 1.7993 0
M  V30 1313 N 124.16 -0.719506 1.40217 0
M  V30 1314 C 125.39 -1.50646 1.41384 0
M  V30 1315 C 125.798 -1.89197 0.0107743 0
M  V30 1316 O 125.141 -1.55709 -0.974708 0
M  V30 1317 C 125.203 -2.81405 2.23722 0
M  V30 1318 C 124.867 -2.65199 3.72181 0
M  V30 1319 C 125.864 -2.32717 4.64907 0
M  V30 1320 C 123.549 -2.81586 4.1595 0
M  V30 1321 C 125.543 -2.16827 5.99387 0
M  V30 1322 C 123.23 -2.65313 5.50502 0
M  V30 1323 C 124.228 -2.32981 6.42035 0
M  V30 1324 O 123.916 -2.16827 7.74107 0
M  V30 1325 H 123.648 -0.471606 0.484318 0
M  V30 1326 H 126.202 -0.895456 1.84853 0
M  V30 1327 H 124.432 -3.44823 1.75026 0
M  V30 1328 H 126.121 -3.43102 2.16878 0
M  V30 1329 H 126.887 -2.19694 4.32388 0
M  V30 1330 H 122.766 -3.0574 3.45027 0
M  V30 1331 H 126.31 -1.91513 6.70797 0
M  V30 1332 H 122.207 -2.7792 5.82607 0
M  V30 1333 H 122.975 -2.31778 7.84998 0
M  V30 1334 N 125.638 -1.25649 -0.95132 0
M  V30 1335 C 126.885 -1.10594 -1.69633 0
M  V30 1336 C 127.213 0.352515 -1.91279 0
M  V30 1337 O 126.468 1.27601 -1.4838 0
M  V30 1338 C 126.767 -1.80909 -3.08231 0
M  V30 1339 C 126.433 -3.30825 -3.06375 0
M  V30 1340 C 125.095 -3.71722 -3.05576 0
M  V30 1341 C 127.447 -4.26589 -2.99452 0
M  V30 1342 C 124.775 -5.06788 -2.95606 0
M  V30 1343 C 127.127 -5.61683 -2.91024 0
M  V30 1344 C 125.791 -6.01904 -2.88562 0
M  V30 1345 H 125.061 -0.404691 -0.620731 0
M  V30 1346 H 127.708 -1.55964 -1.11119 0
M  V30 1347 H 126.013 -1.27979 -3.70309 0
M  V30 1348 H 127.71 -1.6671 -3.64704 0
M  V30 1349 H 124.3 -2.98287 -3.07771 0
M  V30 1350 H 128.484 -3.95982 -2.99185 0
M  V30 1351 H 123.74 -5.37126 -2.92071 0
M  V30 1352 H 127.914 -6.35578 -2.84629 0
M  V30 1353 H 125.541 -7.06521 -2.80593 0
M  V30 1354 N 127.117 1.15442 -1.07289 0
M  V30 1355 C 128.047 2.22312 -0.714107 0
M  V30 1356 C 129.028 1.67467 0.298155 0
M  V30 1357 O 130.213 1.93445 0.171048 0
M  V30 1358 C 127.343 3.47124 -0.110448 0
M  V30 1359 C 126.297 4.14926 -1.04979 0
M  V30 1360 C 125.623 5.33807 -0.308924 0
M  V30 1361 C 126.923 4.64762 -2.38314 0
M  V30 1362 H 128.617 2.5258 -1.6076 0
M  V30 1363 H 126.163 1.21404 -0.77441 0
M  V30 1364 H 128.116 4.21124 0.152482 0
M  V30 1365 H 126.84 3.16187 0.81812 0
M  V30 1366 H 125.499 3.42866 -1.29764 0
M  V30 1367 H 125.147 4.99126 0.623084 0
M  V30 1368 H 124.847 5.80113 -0.935036 0
M  V30 1369 H 126.371 6.10576 -0.0537771 0
M  V30 1370 H 127.785 5.30292 -2.1786 0
M  V30 1371 H 126.182 5.21728 -2.96514 0
M  V30 1372 H 127.252 3.80434 -3.00663 0
M  V30 1373 N 128.595 0.856903 1.32268 0
M  V30 1374 C 129.872 0.382583 1.91822 0
M  V30 1375 C 130.252 -1.13407 1.78051 0
M  V30 1376 O 129.6 -1.95673 1.18001 0
M  V30 1377 C 129.81 0.849446 3.38505 0
M  V30 1378 C 131.158 0.867936 4.15634 0
M  V30 1379 O 132.182 0.794232 3.47232 0
M  V30 1380 O 131.041 0.972286 5.37781 0
M  V30 1381 H 128.135 0.112014 0.819379 0
M  V30 1382 H 130.681 0.943952 1.41024 0
M  V30 1383 H 129.453 1.89267 3.42482 0
M  V30 1384 H 129.076 0.265652 3.96712 0
M  V30 1385 N 130.073 -1.45103 0.615059 0
M  V30 1386 C 130.983 -2.34382 -0.101034 0
M  V30 1387 C 131.999 -1.51681 -0.852585 0
M  V30 1388 O 133.175 -1.8446 -0.808484 0
M  V30 1389 C 130.24 -3.29417 -1.08099 0
M  V30 1390 C 129.301 -4.28025 -0.330577 0
M  V30 1391 C 128.534 -5.1852 -1.26385 0
M  V30 1392 O 128.757 -5.12598 -2.50198 0
M  V30 1393 O 127.691 -5.97122 -0.756866 0
M  V30 1394 H 131.517 -2.97033 0.632855 0
M  V30 1395 H 129.102 -1.4461 0.375293 0
M  V30 1396 H 130.984 -3.87958 -1.6452 0
M  V30 1397 H 129.659 -2.69321 -1.79577 0
M  V30 1398 H 128.566 -3.73078 0.276283 0
M  V30 1399 H 129.899 -4.90997 0.343866 0
M  V30 1400 N 131.551 -0.354651 -1.53558 0
M  V30 1401 C 132.962 0.126902 -1.86268 0
M  V30 1402 C 133.313 1.49075 -1.27558 0
M  V30 1403 O 132.438 2.08105 -0.5934 0
M  V30 1404 C 133.033 0.237046 -3.3797 0
M  V30 1405 C 131.592 0.662842 -3.70518 0
M  V30 1406 C 130.739 -0.196652 -2.76602 0
M  V30 1407 H 133.69 -0.573849 -1.47962 0
M  V30 1408 H 133.711 1.06259 -3.65362 0
M  V30 1409 H 133.223 -0.755725 -3.80671 0
M  V30 1410 H 131.324 1.66424 -3.33367 0
M  V30 1411 H 131.437 0.445034 -4.77029 0
M  V30 1412 H 129.801 0.332763 -2.52517 0
M  V30 1413 H 130.584 -1.18676 -3.22135 0
M  V30 1414 N 133.029 1.57378 -0.0835403 0
M  V30 1415 C 134.275 1.94217 0.583733 0
M  V30 1416 C 134.608 0.964653 1.68547 0
M  V30 1417 O 133.883 -0.00422258 1.945 0
M  V30 1418 C 134.166 3.41253 1.14972 0
M  V30 1419 C 134.019 4.49768 0.0538277 0
M  V30 1420 C 135.338 3.89352 2.05166 0
M  V30 1421 H 132.457 0.706233 0.210724 0
M  V30 1422 H 135.099 1.89392 -0.1519 0
M  V30 1423 H 133.249 3.45496 1.77665 0
M  V30 1424 H 134.921 4.57641 -0.579851 0
M  V30 1425 H 133.164 4.29432 -0.614068 0
M  V30 1426 H 133.835 5.49817 0.490452 0
M  V30 1427 H 136.311 3.87189 1.52393 0
M  V30 1428 H 135.187 4.92822 2.41698 0
M  V30 1429 H 135.448 3.27973 2.96456 0
M  V30 1430 N 134.507 -0.190092 1.56449 0
M  V30 1431 C 135.47 -1.21925 1.9408 0
M  V30 1432 C 136.47 -1.38176 0.822431 0
M  V30 1433 O 137.66 -1.35903 1.08977 0
M  V30 1434 C 134.792 -2.58773 2.21922 0
M  V30 1435 H 135.985 -0.897464 2.86157 0
M  V30 1436 H 133.538 -0.43181 1.50217 0
M  V30 1437 H 134.273 -2.95998 1.32499 0
M  V30 1438 H 134.058 -2.48348 3.03424 0
M  V30 1439 H 135.548 -3.32978 2.52022 0
M  V30 1440 N 135.985 -1.50799 -0.457987 0
M  V30 1441 C 137.231 -1.63648 -1.20792 0
M  V30 1442 C 137.586 -0.338662 -1.89396 0
M  V30 1443 O 136.879 0.664291 -1.79716 0
M  V30 1444 C 137.073 -2.76358 -2.2663 0
M  V30 1445 C 136.902 -4.16974 -1.68411 0
M  V30 1446 C 135.672 -4.83199 -1.47807 0
M  V30 1447 C 137.87 -5.00774 -1.17176 0
M  V30 1448 N 135.852 -6.07991 -0.849692 0
M  V30 1449 C 137.223 -6.16397 -0.667403 0
M  V30 1450 C 139.278 -4.86452 -1.06155 0
M  V30 1451 C 137.981 -7.19272 -0.0636908 0
M  V30 1452 C 140.007 -5.89515 -0.471759 0
M  V30 1453 C 139.369 -7.04397 0.0221557 0
M  V30 1454 H 135.468 -0.652888 -0.43042 0
M  V30 1455 H 138.052 -1.87962 -0.507785 0
M  V30 1456 H 136.223 -2.53744 -2.94056 0
M  V30 1457 H 137.955 -2.78496 -2.93636 0
M  V30 1458 H 134.71 -4.40714 -1.73403 0
M  V30 1459 H 135.134 -6.74733 -0.553537 0
M  V30 1460 H 139.776 -3.97907 -1.42932 0
M  V30 1461 H 137.494 -8.07481 0.316253 0
M  V30 1462 H 141.08 -5.805 -0.388671 0
M  V30 1463 H 139.96 -7.82782 0.471375 0
M  V30 1464 N 137.463 0.71206 -1.40597 0
M  V30 1465 C 138.41 1.82613 -1.41142 0
M  V30 1466 C 139.38 1.63925 -0.267903 0
M  V30 1467 O 140.565 1.85009 -0.466495 0
M  V30 1468 C 137.705 3.20354 -1.28324 0
M  V30 1469 C 136.818 3.50589 -2.52411 0
M  V30 1470 C 135.953 4.77855 -2.32009 0
M  V30 1471 C 134.992 5.01005 -3.51654 0
M  V30 1472 N 134.129 6.19487 -3.30425 0
M  V30 1473 H 138.969 1.81482 -2.36365 0
M  V30 1474 H 136.506 0.886475 -1.17388 0
M  V30 1475 H 138.464 3.99899 -1.18899 0
M  V30 1476 H 137.094 3.20705 -0.367189 0
M  V30 1477 H 136.146 2.65573 -2.72351 0
M  V30 1478 H 137.458 3.63604 -3.41458 0
M  V30 1479 H 136.612 5.65424 -2.19956 0
M  V30 1480 H 135.351 4.67056 -1.40392 0
M  V30 1481 H 134.356 4.1189 -3.64179 0
M  V30 1482 H 135.581 5.13674 -4.44202 0
M  V30 1483 H 133.527 6.09932 -2.41494 0
M  V30 1484 H 133.444 6.33194 -4.13039 0
M  V30 1485 H 134.712 7.09834 -3.22113 0
M  V30 1486 N 138.941 1.26152 0.944643 0
M  V30 1487 C 139.871 1.09902 2.06019 0
M  V30 1488 C 140.852 0.00519538 1.70099 0
M  V30 1489 O 142.037 0.176583 1.93396 0
M  V30 1490 C 139.167 0.727562 3.39594 0
M  V30 1491 C 138.121 1.77274 3.89561 0
M  V30 1492 C 137.447 1.25569 5.19747 0
M  V30 1493 C 138.747 3.17357 4.14827 0
M  V30 1494 H 140.441 2.03217 2.19871 0
M  V30 1495 H 137.987 0.978452 1.05652 0
M  V30 1496 H 139.94 0.600777 4.17095 0
M  V30 1497 H 138.664 -0.241287 3.25707 0
M  V30 1498 H 137.323 1.88814 3.14237 0
M  V30 1499 H 136.971 0.276783 5.02238 0
M  V30 1500 H 136.671 1.95433 5.54148 0
M  V30 1501 H 138.195 1.1415 5.99835 0
M  V30 1502 H 139.609 3.08914 4.82954 0
M  V30 1503 H 138.006 3.84781 4.60504 0
M  V30 1504 H 139.076 3.63673 3.20734 0
M  V30 1505 N 140.419 -1.14872 1.07899 0
M  V30 1506 C 141.369 -2.17809 0.674027 0
M  V30 1507 C 142.353 -1.58008 -0.303699 0
M  V30 1508 O 143.545 -1.76616 -0.11654 0
M  V30 1509 C 140.674 -3.43208 0.0793318 0
M  V30 1510 C 139.76 -4.10051 1.08253 0
M  V30 1511 N 140.151 -4.52296 2.2641 0
M  V30 1512 C 138.449 -4.36469 0.917124 0
M  V30 1513 C 139.15 -5.04199 2.901 0
M  V30 1514 N 138.126 -4.98088 2.17736 0
M  V30 1515 H 141.928 -2.48207 1.57386 0
M  V30 1516 H 139.442 -1.315 0.952976 0
M  V30 1517 H 141.439 -4.16272 -0.228719 0
M  V30 1518 H 140.099 -3.14291 -0.815551 0
M  V30 1519 H 141.11 -4.45504 2.64096 0
M  V30 1520 H 137.787 -4.17432 0.0756078 0
M  V30 1521 H 139.177 -5.46802 3.90458 0
M  V30 1522 N 141.898 -0.863906 -1.31812 0
M  V30 1523 C 142.861 -0.320212 -2.26952 0
M  V30 1524 C 143.861 0.525369 -1.51975 0
M  V30 1525 O 145.051 0.335547 -1.70938 0
M  V30 1526 C 142.183 0.545919 -3.365 0
M  V30 1527 H 143.376 -1.16004 -2.76556 0
M  V30 1528 H 140.929 -0.638995 -1.42641 0
M  V30 1529 H 141.664 1.40718 -2.92179 0
M  V30 1530 H 141.449 -0.0594674 -3.92055 0
M  V30 1531 H 142.939 0.918796 -4.07367 0
M  V30 1532 N 143.376 1.44774 -0.622745 0
M  V30 1533 C 144.339 2.29069 0.0774015 0
M  V30 1534 C 145.339 1.4059 0.780461 0
M  V30 1535 O 146.529 1.62551 0.626322 0
M  V30 1536 C 143.661 3.21974 1.12006 0
M  V30 1537 H 144.854 2.92459 -0.663901 0
M  V30 1538 H 142.407 1.51548 -0.382486 0
M  V30 1539 H 143.142 2.63417 1.89162 0
M  V30 1540 H 142.927 3.87168 0.619951 0
M  V30 1541 H 144.417 3.85318 1.60995 0
M  V30 1542 N 144.854 0.36279 1.53368 0
M  V30 1543 C 146.102 -0.227326 2.00817 0
M  V30 1544 C 146.423 -1.49511 1.25186 0
M  V30 1545 O 145.693 -1.92482 0.364348 0
M  V30 1546 H 144.273 -0.0869923 0.741917 0
M  V30 1547 H 146.935 0.488381 1.88682 0
M  V30 1548 H 146.031 -0.456273 3.08747 0
M  V30 1549 N 146.332 -1.57332 0.0918853 0
M  V30 1550 C 147.748 -1.57389 -0.264766 0
M  V30 1551 C 147.948 -1.10281 -1.68643 0
M  V30 1552 O 147.004 -0.777801 -2.40222 0
M  V30 1553 C 148.317 -3.00648 -0.0561195 0
M  V30 1554 C 149.865 -3.12754 -0.124116 0
M  V30 1555 C 150.34 -4.57965 0.0564972 0
M  V30 1556 N 151.831 -4.632 0.00155611 0
M  V30 1557 C 152.566 -5.73281 0.116598 0
M  V30 1558 N 152.062 -6.92208 0.286294 0
M  V30 1559 N 153.855 -5.6207 0.0580973 0
M  V30 1560 H 146.006 -1.86262 1.02079 0
M  V30 1561 H 148.269 -0.859579 0.399786 0
M  V30 1562 H 147.975 -3.393 0.925669 0
M  V30 1563 H 147.849 -3.68623 -0.799823 0
M  V30 1564 H 150.236 -2.73976 -1.09641 0
M  V30 1565 H 150.317 -2.47377 0.651024 0
M  V30 1566 H 149.961 -4.97436 1.02564 0
M  V30 1567 H 149.891 -5.21399 -0.738297 0
M  V30 1568 H 152.382 -3.77686 -0.127192 0
M  V30 1569 H 152.695 -7.71934 0.365676 0
M  V30 1570 H 151.04 -6.94254 0.32192 0
M  V30 1571 H 154.231 -4.68043 -0.0733204 0
M  V30 1572 H 154.404 -6.47824 0.151203 0
M  V30 1573 N 147.81 0.181792 -1.56548 0
M  V30 1574 C 148.74 1.22765 -1.98623 0
M  V30 1575 C 149.721 1.46747 -0.860189 0
M  V30 1576 O 150.906 1.58259 -1.12551 0
M  V30 1577 C 148.036 2.56894 -2.33715 0
M  V30 1578 C 146.99 2.475 -3.49182 0
M  V30 1579 C 146.316 3.86023 -3.69986 0
M  V30 1580 C 147.616 1.98866 -4.82959 0
M  V30 1581 H 149.31 0.877942 -2.86239 0
M  V30 1582 H 146.856 0.42088 -1.37712 0
M  V30 1583 H 148.809 3.30253 -2.61746 0
M  V30 1584 H 147.533 2.93632 -1.42997 0
M  V30 1585 H 146.192 1.76596 -3.21262 0
M  V30 1586 H 145.84 4.20136 -2.76576 0
M  V30 1587 H 145.54 3.80609 -4.47672 0
M  V30 1588 H 147.064 4.60984 -4.00407 0
M  V30 1589 H 148.478 2.61992 -5.09934 0
M  V30 1590 H 146.875 2.04424 -5.64208 0
M  V30 1591 H 147.945 0.942465 -4.75653 0
M  V30 1592 N 149.288 1.51039 0.449983 0
M  V30 1593 C 150.565 1.53612 1.21089 0
M  V30 1594 C 150.945 0.292997 2.09057 0
M  V30 1595 O 150.293 -0.72259 2.16774 0
M  V30 1596 C 150.503 2.84337 2.0237 0
M  V30 1597 C 151.851 3.35807 2.59843 0
M  V30 1598 O 152.875 2.85802 2.12593 0
M  V30 1599 O 151.734 4.23029 3.45989 0
M  V30 1600 H 148.828 0.617057 0.550608 0
M  V30 1601 H 151.374 1.63344 0.460082 0
M  V30 1602 H 150.146 3.66278 1.37681 0
M  V30 1603 H 149.769 2.77708 2.84542 0
M  V30 1604 N 150.766 -0.704594 1.40972 0
M  V30 1605 C 152.015 -1.46018 1.39146 0
M  V30 1606 C 152.328 -1.956 0.000589254 0
M  V30 1607 O 153.534 -2.71137 -0.1403 0
M  V30 1608 C 151.99 -2.63996 2.4461 0
M  V30 1609 C 151.598 -2.21238 3.89561 0
M  V30 1610 C 153.342 -3.41677 2.51907 0
M  V30 1611 C 151.249 -3.3612 4.86598 0
M  V30 1612 H 150.179 -0.548444 0.517422 0
M  V30 1613 H 152.83 -0.765784 1.66757 0
M  V30 1614 H 151.212 -3.3566 2.10115 0
M  V30 1615 H 152.386 -1.56923 4.33257 0
M  V30 1616 H 150.701 -1.56574 3.85841 0
M  V30 1617 H 153.298 -4.27182 3.2159 0
M  V30 1618 H 153.641 -3.86247 1.55303 0
M  V30 1619 H 154.174 -2.77064 2.85448 0
M  V30 1620 H 150.913 -2.96572 5.84573 0
M  V30 1621 H 150.433 -3.99315 4.47557 0
M  V30 1622 H 152.112 -4.02029 5.06934 0
M  V30 1623 N 152.244 -1.26651 -0.937939 0
M  V30 1624 C 153.521 -1.0313 -1.66204 0
M  V30 1625 C 153.901 0.437256 -2.06522 0
M  V30 1626 O 153.249 1.41831 -1.79154 0
M  V30 1627 C 153.459 -1.98314 -2.87181 0
M  V30 1628 C 154.807 -2.27107 -3.58758 0
M  V30 1629 O 155.831 -1.96205 -2.97291 0
M  V30 1630 O 154.69 -2.79736 -4.69479 0
M  V30 1631 H 151.784 -0.392384 -0.727986 0
M  V30 1632 H 154.33 -1.37874 -0.989382 0
M  V30 1633 H 153.102 -2.97399 -2.54302 0
M  V30 1634 H 152.725 -1.64068 -3.6217 0
M  V30 1635 N 153.722 1.14298 -1.08507 0
M  V30 1636 C 154.95 1.89219 -0.836876 0
M  V30 1637 C 155.365 1.78638 0.611054 0
M  V30 1638 O 154.722 1.14643 1.41998 0
M  V30 1639 C 154.773 3.39158 -1.25116 0
M  V30 1640 O 154.494 3.49449 -2.64229 0
M  V30 1641 C 155.995 4.31073 -1.03398 0
M  V30 1642 H 153.215 0.599328 -0.301739 0
M  V30 1643 H 155.759 1.44746 -1.44461 0
M  V30 1644 H 153.914 3.81251 -0.687514 0
M  V30 1645 H 154.328 4.42589 -2.81452 0
M  V30 1646 H 155.802 5.34646 -1.37323 0
M  V30 1647 H 156.279 4.3919 0.0289259 0
M  V30 1648 H 156.885 3.94738 -1.58311 0
M  V30 1649 N 155.201 0.870884 1.31352 0
M  V30 1650 C 156.429 0.49677 2.00848 0
M  V30 1651 C 156.844 -0.910998 1.65367 0
M  V30 1652 O 156.201 -1.59696 0.883374 0
M  V30 1653 C 156.252 0.645308 3.55694 0
M  V30 1654 O 155.973 1.99764 3.89905 0
M  V30 1655 C 157.474 0.272326 4.42463 0
M  V30 1656 H 154.694 0.193462 0.642506 0
M  V30 1657 H 157.238 1.1723 1.67563 0
M  V30 1658 H 155.393 0.0173176 3.87396 0
M  V30 1659 H 155.807 2.00607 4.84621 0
M  V30 1660 H 157.281 0.427208 5.50344 0
M  V30 1661 H 157.758 -0.788587 4.32062 0
M  V30 1662 H 158.364 0.876054 4.1618 0
M  V30 1663 N 156.679 -1.44442 0.630414 0
M  V30 1664 C 157.927 -2.01653 0.134351 0
M  V30 1665 C 158.248 -1.49836 -1.24796 0
M  V30 1666 O 157.518 -0.701684 -1.82902 0
M  V30 1667 H 156.098 -0.74554 0.0466769 0
M  V30 1668 H 158.76 -1.76952 0.816955 0
M  V30 1669 H 157.856 -3.11935 0.101498 0
M  V30 1670 N 158.157 -0.370918 -1.53173 0
M  V30 1671 C 159.087 0.464847 -2.28826 0
M  V30 1672 C 160.068 1.07936 -1.31468 0
M  V30 1673 O 161.253 1.0956 -1.60344 0
M  V30 1674 C 158.383 1.60196 -3.08147 0
M  V30 1675 C 157.337 1.11443 -4.13237 0
M  V30 1676 C 156.663 2.3422 -4.80672 0
M  V30 1677 C 157.963 0.195384 -5.21934 0
M  V30 1678 H 159.657 -0.166329 -2.98938 0
M  V30 1679 H 157.203 -0.0814359 -1.4377 0
M  V30 1680 H 159.156 2.19332 -3.59822 0
M  V30 1681 H 157.88 2.26045 -2.35735 0
M  V30 1682 H 156.539 0.545727 -3.62515 0
M  V30 1683 H 156.187 2.98537 -4.04827 0
M  V30 1684 H 155.887 2.02269 -5.51689 0
M  V30 1685 H 157.411 2.94032 -5.35143 0
M  V30 1686 H 158.825 0.694375 -5.69079 0
M  V30 1687 H 157.222 -0.0335027 -6.00091 0
M  V30 1688 H 158.292 -0.760961 -4.78892 0
M  V30 1689 N 159.635 1.57281 -0.100228 0
M  V30 1690 C 160.881 1.94826 0.563101 0
M  V30 1691 C 161.214 0.982475 1.67514 0
M  V30 1692 O 160.489 0.0164069 1.94493 0
M  V30 1693 C 160.772 3.42453 1.11346 0
M  V30 1694 C 160.625 4.498 0.00612081 0
M  V30 1695 C 161.944 3.91506 2.01024 0
M  V30 1696 H 159.063 0.708428 0.203221 0
M  V30 1697 H 161.705 1.8922 -0.171979 0
M  V30 1698 H 159.855 3.47361 1.7399 0
M  V30 1699 H 161.527 4.57 -0.628357 0
M  V30 1700 H 159.77 4.28756 -0.659581 0
M  V30 1701 H 160.441 5.50306 0.432109 0
M  V30 1702 H 162.917 3.88784 1.48278 0
M  V30 1703 H 161.793 4.95358 2.36457 0
M  V30 1704 H 162.054 3.31099 2.92961 0
M  V30 1705 N 161.113 -0.173488 1.56642 0
M  V30 1706 C 162.043 -1.2171 1.99271 0
M  V30 1707 C 163.024 -1.46289 0.867959 0
M  V30 1708 O 164.209 -1.5766 1.13388 0
M  V30 1709 C 161.339 -2.55651 2.35074 0
M  V30 1710 C 160.293 -2.45645 3.50489 0
M  V30 1711 C 159.619 -3.84056 3.72028 0
M  V30 1712 C 160.919 -1.96302 4.84007 0
M  V30 1713 H 162.613 -0.86275 2.867 0
M  V30 1714 H 160.159 -0.413571 1.37933 0
M  V30 1715 H 162.112 -3.2886 2.63494 0
M  V30 1716 H 160.836 -2.92869 1.44552 0
M  V30 1717 H 159.495 -1.7489 3.22194 0
M  V30 1718 H 159.143 -4.18664 2.788 0
M  V30 1719 H 158.843 -3.7823 4.49684 0
M  V30 1720 H 160.367 -4.58854 4.02846 0
M  V30 1721 H 161.781 -2.59284 5.11317 0
M  V30 1722 H 160.178 -2.01429 5.65284 0
M  V30 1723 H 161.248 -0.917226 4.76146 0
M  V30 1724 N 162.591 -1.51276 -0.441967 0
M  V30 1725 C 163.524 -1.66933 -1.55591 0
M  V30 1726 C 164.502 -0.516958 -1.54163 0
M  V30 1727 O 165.686 -0.740209 -1.73358 0
M  V30 1728 C 162.813 -1.67866 -2.94174 0
M  V30 1729 C 161.859 -2.89013 -3.13646 0
M  V30 1730 S 162.692 -4.49897 -2.90436 0
M  V30 1731 C 163.848 -4.53568 -4.31308 0
M  V30 1732 H 164.081 -2.61155 -1.42076 0
M  V30 1733 H 161.614 -1.40902 -0.631341 0
M  V30 1734 H 163.572 -1.69089 -3.74058 0
M  V30 1735 H 162.233 -0.748296 -3.05056 0
M  V30 1736 H 161.426 -2.86054 -4.14957 0
M  V30 1737 H 161.028 -2.85509 -2.4158 0
M  V30 1738 H 163.32 -4.28924 -5.24434 0
M  V30 1739 H 164.263 -5.55355 -4.39303 0
M  V30 1740 H 164.671 -3.82943 -4.14747 0
M  V30 1741 N 164.069 0.697108 -1.41344 0
M  V30 1742 C 165.297 1.48593 -1.43972 0
M  V30 1743 C 165.712 1.88747 -0.0445612 0
M  V30 1744 O 165.069 1.56682 0.935785 0
M  V30 1745 C 165.12 2.74946 -2.34706 0
M  V30 1746 O 164.841 2.36484 -3.68791 0
M  V30 1747 C 166.342 3.687 -2.46121 0
M  V30 1748 H 163.562 0.457964 -0.490418 0
M  V30 1749 H 166.106 0.858429 -1.8561 0
M  V30 1750 H 164.261 3.33937 -1.9638 0
M  V30 1751 H 164.675 3.17918 -4.17167 0
M  V30 1752 H 166.149 4.54145 -3.13777 0
M  V30 1753 H 166.626 4.13081 -1.49199 0
M  V30 1754 H 167.232 3.15613 -2.85076 0
M  V30 1755 N 165.547 1.27147 0.931209 0
M  V30 1756 C 166.824 1.0401 1.65654 0
M  V30 1757 C 167.204 -0.426297 2.06751 0
M  V30 1758 O 166.552 -1.40879 1.79904 0
M  V30 1759 C 166.762 1.99834 2.86125 0
M  V30 1760 C 168.11 2.29007 3.57549 0
M  V30 1761 O 169.134 1.97779 2.96246 0
M  V30 1762 O 167.993 2.82222 4.67989 0
M  V30 1763 H 165.087 0.396239 0.725895 0
M  V30 1764 H 167.633 1.38397 0.982056 0
M  V30 1765 H 166.405 2.98744 2.52721 0
M  V30 1766 H 166.028 1.65987 3.61295 0
M  V30 1767 N 167.025 -1.13721 1.09112 0
M  V30 1768 C 168.302 -1.81155 0.737706 0
M  V30 1769 C 168.682 -1.96253 -0.777683 0
M  V30 1770 O 168.03 -1.52807 -1.69889 0
M  V30 1771 C 168.24 -3.16392 1.47299 0
M  V30 1772 C 169.588 -3.91787 1.63671 0
M  V30 1773 O 170.612 -3.26005 1.43524 0
M  V30 1774 O 169.471 -5.0977 1.96969 0
M  V30 1775 H 166.565 -0.783518 0.26463 0
M  V30 1776 H 169.111 -1.20676 1.19312 0
M  V30 1777 H 167.883 -3.0061 2.50498 0
M  V30 1778 H 167.506 -3.8457 1.00953 0
M  V30 1779 N 168.503 -0.877838 -1.30888 0
M  V30 1780 C 169.751 -0.491723 -1.96027 0
M  V30 1781 C 170.072 0.960827 -1.69685 0
M  V30 1782 O 169.342 1.67462 -1.01654 0
M  V30 1783 H 167.922 -0.17885 -0.725273 0
M  V30 1784 H 170.584 -1.11935 -1.59551 0
M  V30 1785 H 169.68 -0.656016 -3.05128 0
M  V30 1786 N 169.982 1.44106 -0.638065 0
M  V30 1787 C 170.914 2.28976 0.101205 0
M  V30 1788 C 171.927 1.4167 0.802088 0
M  V30 1789 O 173.116 1.65755 0.662375 0
M  V30 1790 C 170.216 3.18217 1.16581 0
M  V30 1791 C 169.389 4.33978 0.546066 0
M  V30 1792 C 168.448 5.04202 1.50554 0
M  V30 1793 O 167.474 5.59986 1.01999 0
M  V30 1794 N 168.676 5.06296 2.8398 0
M  V30 1795 H 171.441 2.93064 -0.627186 0
M  V30 1796 H 169.002 1.54629 -0.479731 0
M  V30 1797 H 170.994 3.62061 1.80815 0
M  V30 1798 H 169.564 2.55833 1.79634 0
M  V30 1799 H 168.784 3.93239 -0.275046 0
M  V30 1800 H 170.072 5.08675 0.112793 0
M  V30 1801 H 169.47 4.62319 3.26002 0
M  V30 1802 H 168.027 5.53907 3.43556 0
M  V30 1803 N 171.46 0.379036 1.52974 0
M  V30 1804 C 172.706 -0.199244 2.02422 0
M  V30 1805 C 173.061 -1.4532 1.26095 0
M  V30 1806 O 172.354 -1.88377 0.34996 0
M  V30 1807 C 172.548 -0.53096 3.53434 0
M  V30 1808 C 172.377 0.689298 4.44386 0
M  V30 1809 C 171.147 1.20546 4.9071 0
M  V30 1810 C 173.345 1.55856 4.90116 0
M  V30 1811 N 171.327 2.38434 5.65705 0
M  V30 1812 C 172.698 2.58396 5.63588 0
M  V30 1813 C 174.753 1.57986 4.7217 0
M  V30 1814 C 173.456 3.62939 6.21022 0
M  V30 1815 C 175.482 2.6143 5.30479 0
M  V30 1816 C 174.844 3.62693 6.03849 0
M  V30 1817 H 170.943 -0.0352671 0.781204 0
M  V30 1818 H 173.527 0.526614 1.87443 0
M  V30 1819 H 171.698 -1.22588 3.68547 0
M  V30 1820 H 173.43 -1.0955 3.89591 0
M  V30 1821 H 170.185 0.768022 4.67331 0
M  V30 1822 H 170.609 2.98055 6.07859 0
M  V30 1823 H 175.251 0.810475 4.14959 0
M  V30 1824 H 172.969 4.40751 6.77321 0
M  V30 1825 H 176.555 2.63949 5.18481 0
M  V30 1826 H 175.435 4.41424 6.48163 0
M  V30 1827 N 172.938 -1.57226 0.108567 0
M  V30 1828 C 174.163 -1.99604 -0.563303 0
M  V30 1829 C 174.588 -0.987563 -1.6009 0
M  V30 1830 O 173.946 0.0421687 -1.81251 0
M  V30 1831 C 173.994 -3.40902 -1.17552 0
M  V30 1832 O 173.098 -3.42896 -2.2912 0
M  V30 1833 H 172.439 -0.648704 -0.1417 0
M  V30 1834 H 174.969 -2.03679 0.193961 0
M  V30 1835 H 174.979 -3.78886 -1.51357 0
M  V30 1836 H 173.654 -4.1382 -0.415445 0
M  V30 1837 H 172.231 -3.1672 -1.96832 0
M  V30 1838 N 174.416 0.165178 -1.56732 0
M  V30 1839 C 175.366 1.20917 -1.93295 0
M  V30 1840 C 176.35 1.39488 -0.801985 0
M  V30 1841 O 177.542 1.41356 -1.06525 0
M  V30 1842 C 174.671 2.54718 -2.3016 0
M  V30 1843 C 173.757 2.39815 -3.49785 0
M  V30 1844 N 174.148 1.94637 -4.66851 0
M  V30 1845 C 172.446 2.70623 -3.54513 0
M  V30 1846 C 173.147 1.92344 -5.4898 0
M  V30 1847 N 172.123 2.34978 -4.9019 0
M  V30 1848 H 175.925 0.851675 -2.81289 0
M  V30 1849 H 173.439 0.373399 -1.58049 0
M  V30 1850 H 175.436 3.30165 -2.54552 0
M  V30 1851 H 174.096 2.91265 -1.43508 0
M  V30 1852 H 175.107 1.6488 -4.90953 0
M  V30 1853 H 171.784 3.11167 -2.78354 0
M  V30 1854 H 173.174 1.5906 -6.52801 0
M  V30 1855 N 175.894 1.51508 0.433938 0
M  V30 1856 C 177.31 1.39759 0.770682 0
M  V30 1857 C 177.51 0.482594 1.95636 0
M  V30 1858 O 176.566 -0.0609691 2.52426 0
M  V30 1859 C 177.879 2.81851 1.04787 0
M  V30 1860 C 179.427 2.91025 1.1521 0
M  V30 1861 C 179.902 4.34032 1.46219 0
M  V30 1862 N 181.393 4.37154 1.53136 0
M  V30 1863 C 182.128 5.4484 1.78709 0
M  V30 1864 N 181.624 6.62682 2.02051 0
M  V30 1865 N 183.417 5.32324 1.80519 0
M  V30 1866 H 175.568 2.09548 -0.346892 0
M  V30 1867 H 177.831 0.943446 -0.0928074 0
M  V30 1868 H 177.537 3.50815 0.249304 0
M  V30 1869 H 177.411 3.21386 1.97461 0
M  V30 1870 H 179.798 2.22257 1.94128 0
M  V30 1871 H 179.879 2.54983 0.204281 0
M  V30 1872 H 179.523 5.03351 0.678274 0
M  V30 1873 H 179.453 4.6759 2.42212 0
M  V30 1874 H 181.944 3.52197 1.36987 0
M  V30 1875 H 182.257 7.40543 2.20943 0
M  V30 1876 H 180.602 6.65791 1.99366 0
M  V30 1877 H 183.793 4.39246 1.61805 0
M  V30 1878 H 183.966 6.16328 2.00111 0
M  V30 1879 N 177.372 -0.689602 1.41712 0
M  V30 1880 C 178.621 -1.44534 1.40686 0
M  V30 1881 C 178.934 -1.95588 0.0213352 0
M  V30 1882 O 180.14 -2.71271 -0.111534 0
M  V30 1883 C 178.596 -2.61387 2.47396 0
M  V30 1884 C 178.204 -2.17094 3.91885 0
M  V30 1885 C 179.948 -3.38986 2.55517 0
M  V30 1886 C 177.855 -3.3094 4.90135 0
M  V30 1887 H 176.785 -0.542925 0.52321 0
M  V30 1888 H 179.436 -0.748054 1.6756 0
M  V30 1889 H 177.818 -3.33412 2.13664 0
M  V30 1890 H 178.992 -1.52318 4.34897 0
M  V30 1891 H 177.307 -1.52473 3.8748 0
M  V30 1892 H 179.904 -4.23747 3.26102 0
M  V30 1893 H 180.247 -3.84578 1.59391 0
M  V30 1894 H 180.78 -2.74021 2.8837 0
M  V30 1895 H 177.519 -2.90355 5.87685 0
M  V30 1896 H 177.039 -3.94546 4.51767 0
M  V30 1897 H 178.718 -3.9663 5.11169 0
M  V30 1898 N 178.85 -1.27639 -0.924453 0
M  V30 1899 C 180.078 -1.16989 -1.70649 0
M  V30 1900 C 180.493 0.272869 -1.86818 0
M  V30 1901 O 179.85 1.18549 -1.38753 0
M  V30 1902 C 179.901 -1.85229 -3.10439 0
M  V30 1903 O 179.622 -3.23868 -2.95028 0
M  V30 1904 C 181.123 -1.80746 -4.04779 0
M  V30 1905 H 178.343 -0.406595 -0.53378 0
M  V30 1906 H 180.887 -1.68569 -1.15778 0
M  V30 1907 H 179.042 -1.37545 -3.6216 0
M  V30 1908 H 179.456 -3.57889 -3.83426 0
M  V30 1909 H 180.93 -2.33101 -5.00368 0
M  V30 1910 H 181.407 -0.777499 -4.32263 0
M  V30 1911 H 182.013 -2.28059 -3.58984 0
M  V30 1912 N 180.328 1.1314 -1.09713 0
M  V30 1913 C 181.553 1.88862 -0.857081 0
M  V30 1914 C 181.978 1.78729 0.586304 0
M  V30 1915 O 181.336 1.13692 1.41222 0
M  V30 1916 C 181.384 3.36325 -1.30069 0
M  V30 1917 O 180.488 4.09815 -0.461007 0
M  V30 1918 H 179.829 0.587108 -0.310162 0
M  V30 1919 H 182.359 1.43129 -1.46203 0
M  V30 1920 H 182.369 3.87157 -1.28738 0
M  V30 1921 H 181.044 3.43017 -2.35185 0
M  V30 1922 H 179.621 3.68986 -0.538888 0
M  V30 1923 N 181.806 0.884767 1.30421 0
M  V30 1924 C 183.217 0.553656 1.78302 0
M  V30 1925 C 183.568 -0.930153 1.7275 0
M  V30 1926 O 182.693 -1.72681 1.30423 0
M  V30 1927 C 183.288 0.998234 3.2376 0
M  V30 1928 C 181.847 0.71854 3.69478 0
M  V30 1929 C 180.994 1.18132 2.50879 0
M  V30 1930 H 183.945 1.06901 1.17294 0
M  V30 1931 H 183.966 0.327118 3.79091 0
M  V30 1932 H 183.478 2.0782 3.27769 0
M  V30 1933 H 181.579 -0.349444 3.70958 0
M  V30 1934 H 181.692 1.30595 4.60958 0
M  V30 1935 H 180.056 0.600669 2.47516 0
M  V30 1936 H 180.839 2.26902 2.57624 0
M  V30 1937 N 183.284 -1.43765 0.645699 0
M  V30 1938 C 184.7 -1.56509 0.312591 0
M  V30 1939 C 184.9 -1.6307 -1.18365 0
M  V30 1940 O 183.956 -1.58167 -1.96824 0
M  V30 1941 C 185.269 -2.82968 1.01733 0
M  V30 1942 C 186.817 -2.96701 0.996865 0
M  V30 1943 C 187.292 -4.25982 1.68236 0
M  V30 1944 N 188.783 -4.32829 1.64964 0
M  V30 1945 C 189.518 -5.31613 2.14885 0
M  V30 1946 N 189.014 -6.36718 2.73061 0
M  V30 1947 N 190.807 -5.23217 2.05428 0
M  V30 1948 H 182.958 -1.3775 1.61675 0
M  V30 1949 H 185.221 -0.661067 0.679481 0
M  V30 1950 H 184.927 -2.84156 2.0724 0
M  V30 1951 H 184.801 -3.72957 0.564177 0
M  V30 1952 H 187.188 -2.95058 -0.0497719 0
M  V30 1953 H 187.269 -2.08022 1.48865 0
M  V30 1954 H 186.913 -4.28386 2.72852 0
M  V30 1955 H 186.843 -5.13545 1.16529 0
M  V30 1956 H 189.334 -3.57493 1.22503 0
M  V30 1957 H 189.647 -7.08401 3.08848 0
M  V30 1958 H 187.992 -6.37362 2.77118 0
M  V30 1959 H 191.183 -4.40019 1.59689 0
M  V30 1960 H 191.356 -6.00045 2.44643 0
M  V30 1961 N 184.763 -0.387143 -1.52771 0
M  V30 1962 C 185.713 0.465942 -2.23188 0
M  V30 1963 C 186.697 1.03138 -1.23496 0
M  V30 1964 O 187.889 0.957845 -1.48843 0
M  V30 1965 C 185.018 1.59384 -3.04059 0
M  V30 1966 C 184.104 1.04024 -4.11144 0
M  V30 1967 N 184.495 0.211416 -5.05358 0
M  V30 1968 C 182.793 1.31295 -4.26237 0
M  V30 1969 C 183.494 -0.0941698 -5.81624 0
M  V30 1970 N 182.47 0.509207 -5.4121 0
M  V30 1971 H 186.272 -0.173856 -2.93385 0
M  V30 1972 H 183.786 -0.19633 -1.61209 0
M  V30 1973 H 185.783 2.21738 -3.53041 0
M  V30 1974 H 184.443 2.23648 -2.35397 0
M  V30 1975 H 185.454 -0.151151 -5.17679 0
M  V30 1976 H 182.131 1.95679 -3.68803 0
M  V30 1977 H 183.521 -0.765572 -6.67524 0
M  V30 1978 N 186.241 1.57166 -0.116904 0
M  V30 1979 C 187.191 2.11756 0.845178 0
M  V30 1980 C 188.175 1.03783 1.22955 0
M  V30 1981 O 189.367 1.3002 1.20099 0
M  V30 1982 C 186.496 2.71886 2.09602 0
M  V30 1983 C 185.582 3.86937 1.7361 0
M  V30 1984 N 185.973 4.94073 1.08284 0
M  V30 1985 C 184.271 3.97082 2.03082 0
M  V30 1986 C 184.972 5.74477 0.913855 0
M  V30 1987 N 183.948 5.2423 1.43818 0
M  V30 1988 H 187.75 2.91967 0.336523 0
M  V30 1989 H 185.264 1.62174 0.0856332 0
M  V30 1990 H 187.261 3.09338 2.79492 0
M  V30 1991 H 185.921 1.93138 2.61013 0
M  V30 1992 H 186.932 5.12483 0.747067 0
M  V30 1993 H 183.609 3.29372 2.56554 0
M  V30 1994 H 184.999 6.70701 0.40125 0
M  V30 1995 N 187.719 -0.156864 1.56817 0
M  V30 1996 C 188.959 -0.877453 1.84608 0
M  V30 1997 C 189.323 -1.78791 0.699845 0
M  V30 1998 O 190.524 -2.5472 0.858553 0
M  V30 1999 C 188.795 -1.63992 3.17555 0
M  V30 2000 S 190.354 -2.40729 3.66872 0
M  V30 2001 H 187.172 -0.293612 0.647544 0
M  V30 2002 H 189.774 -0.138099 1.95012 0
M  V30 2003 H 188.478 -0.962363 3.98957 0
M  V30 2004 H 188.009 -2.42038 3.10131 0
M  V30 2005 H 190.024 -3.65725 3.3535 0
M  V30 2006 N 189.197 -1.51736 -0.425897 0
M  V30 2007 C 190.107 -1.76738 -1.54275 0
M  V30 2008 C 191.123 -0.65211 -1.61318 0
M  V30 2009 O 192.299 -0.935654 -1.78346 0
M  V30 2010 C 189.364 -1.89755 -2.90162 0
M  V30 2011 C 188.425 -3.13633 -2.93143 0
M  V30 2012 C 187.658 -3.2602 -4.22548 0
M  V30 2013 O 187.881 -2.44067 -5.15546 0
M  V30 2014 O 186.815 -4.19071 -4.32046 0
M  V30 2015 H 190.641 -2.71502 -1.36089 0
M  V30 2016 H 188.226 -1.36376 -0.610069 0
M  V30 2017 H 190.108 -2.00236 -3.70788 0
M  V30 2018 H 188.783 -0.981785 -3.08452 0
M  V30 2019 H 187.69 -3.08622 -2.11431 0
M  V30 2020 H 189.023 -4.04936 -2.798 0
M  V30 2021 N 190.675 0.682077 -1.42076 0
M  V30 2022 C 191.622 1.79578 -1.44984 0
M  V30 2023 C 192.592 1.6332 -0.302614 0
M  V30 2024 O 193.777 1.83978 -0.505633 0
M  V30 2025 C 190.917 3.1756 -1.35091 0
M  V30 2026 C 190.03 3.45156 -2.59791 0
M  V30 2027 C 189.165 4.72826 -2.42093 0
M  V30 2028 C 188.204 4.93433 -3.62202 0
M  V30 2029 N 187.341 6.12338 -3.43491 0
M  V30 2030 H 192.181 1.76427 -2.40161 0
M  V30 2031 H 189.718 0.861376 -1.19242 0
M  V30 2032 H 191.676 3.97287 -1.27354 0
M  V30 2033 H 190.306 3.19854 -0.435133 0
M  V30 2034 H 189.358 2.59736 -2.77923 0
M  V30 2035 H 190.67 3.5628 -3.49094 0
M  V30 2036 H 189.824 5.60631 -2.319 0
M  V30 2037 H 188.563 4.63973 -1.50268 0
M  V30 2038 H 187.568 4.04073 -3.72834 0
M  V30 2039 H 188.793 5.04136 -4.54998 0
M  V30 2040 H 186.739 6.04672 -2.54377 0
M  V30 2041 H 186.656 6.2429 -4.26377 0
M  V30 2042 H 187.924 7.02841 -3.37097 0
M  V30 2043 N 192.153 1.28127 0.917671 0
M  V30 2044 C 193.381 1.17892 1.70026 0
M  V30 2045 C 193.796 -0.262958 1.8696 0
M  V30 2046 O 193.153 -1.17811 1.3938 0
M  V30 2047 C 193.204 1.86872 3.09453 0
M  V30 2048 O 192.925 3.25428 2.93306 0
M  V30 2049 C 194.426 1.8289 4.03815 0
M  V30 2050 H 191.646 0.40942 0.531617 0
M  V30 2051 H 194.19 1.69181 1.14883 0
M  V30 2052 H 192.345 1.39464 3.61426 0
M  V30 2053 H 192.759 3.59918 3.81523 0
M  V30 2054 H 194.233 2.35751 4.99125 0
M  V30 2055 H 194.71 0.800412 4.31845 0
M  V30 2056 H 195.316 2.29959 3.57769 0
M  V30 2057 N 193.631 -1.12557 1.10312 0
M  V30 2058 C 194.861 -1.87592 0.865617 0
M  V30 2059 C 195.269 -1.79851 -0.587389 0
M  V30 2060 O 194.612 -1.16949 -1.41664 0
M  V30 2061 C 194.674 -3.37665 1.23381 0
M  V30 2062 C 194.338 -3.69181 2.69359 0
M  V30 2063 C 195.335 -3.67652 3.67597 0
M  V30 2064 C 193.02 -3.98555 3.05711 0
M  V30 2065 C 195.014 -3.95053 5.00212 0
M  V30 2066 C 192.701 -4.25616 4.38514 0
M  V30 2067 C 193.699 -4.23851 5.35574 0
M  V30 2068 O 193.387 -4.50242 6.65986 0
M  V30 2069 H 193.119 -0.600442 0.310557 0
M  V30 2070 H 195.673 -1.4335 1.47105 0
M  V30 2071 H 193.903 -3.82454 0.571467 0
M  V30 2072 H 195.592 -3.94041 0.973994 0
M  V30 2073 H 196.358 -3.45024 3.40857 0
M  V30 2074 H 192.237 -3.99071 2.30789 0
M  V30 2075 H 195.781 -3.93591 5.75962 0
M  V30 2076 H 191.678 -4.47718 4.64994 0
M  V30 2077 H 192.446 -4.67867 6.71597 0
M  V30 2078 N 195.109 -0.891671 -1.2995 0
M  V30 2079 C 196.039 -0.379797 -2.30391 0
M  V30 2080 C 197.02 0.540919 -1.6127 0
M  V30 2081 O 198.205 0.453352 -1.88834 0
M  V30 2082 C 195.335 0.400654 -3.44981 0
M  V30 2083 C 194.289 -0.428905 -4.25846 0
M  V30 2084 C 193.615 0.478557 -5.32554 0
M  V30 2085 C 194.915 -1.67458 -4.94727 0
M  V30 2086 H 196.609 -1.21914 -2.73454 0
M  V30 2087 H 194.155 -0.587675 -1.31462 0
M  V30 2088 H 196.108 0.769434 -4.14316 0
M  V30 2089 H 194.832 1.27371 -3.0074 0
M  V30 2090 H 193.491 -0.779911 -3.58208 0
M  V30 2091 H 193.139 1.34951 -4.84559 0
M  V30 2092 H 192.839 -0.0727433 -5.87555 0
M  V30 2093 H 194.363 0.843705 -6.04743 0
M  V30 2094 H 195.777 -1.376 -5.56542 0
M  V30 2095 H 194.174 -2.16659 -5.59624 0
M  V30 2096 H 195.244 -2.41518 -4.20473 0
M  V30 2097 N 196.587 1.43421 -0.653314 0
M  V30 2098 C 197.833 2.02111 -0.166992 0
M  V30 2099 C 198.166 1.51423 1.21592 0
M  V30 2100 O 197.441 0.707389 1.8118 0
M  V30 2101 C 197.724 3.5966 -0.177948 0
M  V30 2102 C 197.577 4.20579 -1.59478 0
M  V30 2103 C 198.896 4.37413 0.4856 0
M  V30 2104 H 196.015 0.734374 -0.0621557 0
M  V30 2105 H 198.657 1.70717 -0.834016 0
M  V30 2106 H 196.807 3.86537 0.390032 0
M  V30 2107 H 198.479 4.04732 -2.21336 0
M  V30 2108 H 196.722 3.77226 -2.14204 0
M  V30 2109 H 197.393 5.29665 -1.5543 0
M  V30 2110 H 199.869 4.161 0.00234528 0
M  V30 2111 H 198.745 5.47075 0.447207 0
M  V30 2112 H 199.006 4.13672 1.55974 0
M  V30 2113 N 198.065 0.39524 1.52563 0
M  V30 2114 C 199.293 -0.184943 2.06072 0
M  V30 2115 C 199.708 -1.40021 1.26647 0
M  V30 2116 O 199.065 -1.79767 0.314672 0
M  V30 2117 C 199.116 -0.549179 3.57304 0
M  V30 2118 O 198.837 0.617813 4.33722 0
M  V30 2119 C 200.338 -1.18459 4.2718 0
M  V30 2120 H 197.558 -0.0265025 0.670476 0
M  V30 2121 H 200.102 0.562184 1.96621 0
M  V30 2122 H 198.257 -1.2462 3.66809 0
M  V30 2123 H 198.671 0.317091 5.23541 0
M  V30 2124 H 200.145 -1.38976 5.34219 0
M  V30 2125 H 200.622 -2.15368 3.82771 0
M  V30 2126 H 201.228 -0.528163 4.22008 0
M  V30 2127 N 199.544 -1.57102 0.125237 0
M  V30 2128 C 200.474 -2.18659 -0.819174 0
M  V30 2129 C 201.455 -1.12843 -1.27281 0
M  V30 2130 O 202.64 -1.41104 -1.33429 0
M  V30 2131 C 199.77 -2.79096 -2.06695 0
M  V30 2132 C 198.724 -3.90548 -1.75088 0
M  V30 2133 C 198.05 -4.37821 -3.06948 0
M  V30 2134 C 199.35 -5.12356 -1.01435 0
M  V30 2135 H 201.044 -2.9783 -0.306202 0
M  V30 2136 H 198.59 -1.4326 -0.145839 0
M  V30 2137 H 200.543 -3.2082 -2.73226 0
M  V30 2138 H 199.267 -1.97223 -2.60328 0
M  V30 2139 H 197.926 -3.49409 -1.10944 0
M  V30 2140 H 197.574 -3.52799 -3.58527 0
M  V30 2141 H 197.274 -5.12982 -2.86571 0
M  V30 2142 H 198.798 -4.822 -3.74587 0
M  V30 2143 H 200.212 -5.5106 -1.58132 0
M  V30 2144 H 198.609 -5.9314 -0.911319 0
M  V30 2145 H 199.679 -4.849 -0.00218681 0
M  V30 2146 N 201.022 0.148545 -1.56898 0
M  V30 2147 C 201.932 1.20293 -2.01412 0
M  V30 2148 C 202.948 1.47107 -0.929273 0
M  V30 2149 O 204.124 1.58807 -1.23863 0
M  V30 2150 C 201.189 2.51682 -2.38447 0
M  V30 2151 C 200.25 2.32529 -3.60872 0
M  V30 2152 C 199.483 3.57653 -3.96132 0
M  V30 2153 O 199.706 4.63771 -3.32073 0
M  V30 2154 O 198.64 3.50408 -4.89385 0
M  V30 2155 H 202.466 0.855025 -2.91416 0
M  V30 2156 H 200.051 0.357151 -1.45068 0
M  V30 2157 H 201.933 3.29147 -2.63135 0
M  V30 2158 H 200.608 2.86006 -1.51599 0
M  V30 2159 H 199.515 1.53019 -3.41373 0
M  V30 2160 H 200.848 2.03121 -4.48333 0
M  V30 2161 N 202.5 1.5196 0.417844 0
M  V30 2162 C 203.725 1.69717 1.1921 0
M  V30 2163 C 204.15 0.402148 1.83751 0
M  V30 2164 O 203.508 -0.639593 1.69643 0
M  V30 2165 C 203.556 2.82794 2.2374 0
M  V30 2166 O 202.66 2.47756 3.29683 0
M  V30 2167 H 202.001 0.565263 0.348387 0
M  V30 2168 H 204.531 1.98621 0.490985 0
M  V30 2169 H 204.541 3.07452 2.68212 0
M  V30 2170 H 203.216 3.76756 1.76146 0
M  V30 2171 H 201.793 2.33739 2.90552 0
M  V30 2172 N 203.978 -0.674533 1.42435 0
M  V30 2173 C 205.389 -1.25514 1.38214 0
M  V30 2174 C 205.74 -1.96055 0.0755464 0
M  V30 2175 O 204.865 -2.00028 -0.8257 0
M  V30 2176 C 205.46 -2.28269 2.50357 0
M  V30 2177 C 204.019 -2.81856 2.49467 0
M  V30 2178 C 203.166 -1.56182 2.29134 0
M  V30 2179 H 206.117 -0.467902 1.51646 0
M  V30 2180 H 206.138 -3.10009 2.20624 0
M  V30 2181 H 205.65 -1.769 3.45439 0
M  V30 2182 H 203.751 -3.37346 1.58204 0
M  V30 2183 H 203.864 -3.30854 3.46515 0
M  V30 2184 H 202.228 -1.82761 1.774 0
M  V30 2185 H 203.011 -1.06778 3.26272 0
M  V30 2186 N 205.456 -1.28612 -0.910864 0
M  V30 2187 C 206.702 -1.16106 -1.66274 0
M  V30 2188 C 207.035 0.289113 -1.92036 0
M  V30 2189 O 206.31 1.21 -1.52281 0
M  V30 2190 C 206.593 -1.96309 -3.01885 0
M  V30 2191 C 206.446 -3.49405 -2.8326 0
M  V30 2192 C 207.765 -1.78076 -4.02463 0
M  V30 2193 H 204.884 -0.423152 -0.603417 0
M  V30 2194 H 207.526 -1.57961 -1.05586 0
M  V30 2195 H 205.676 -1.60742 -3.53687 0
M  V30 2196 H 207.348 -3.94894 -2.38446 0
M  V30 2197 H 205.591 -3.74893 -2.18261 0
M  V30 2198 H 206.262 -4.00784 -3.79574 0
M  V30 2199 H 208.738 -2.0912 -3.59733 0
M  V30 2200 H 207.614 -2.36561 -4.95308 0
M  V30 2201 H 207.875 -0.733008 -4.35981 0
M  V30 2202 N 206.934 1.1197 -1.10907 0
M  V30 2203 C 207.897 2.16031 -0.765707 0
M  V30 2204 C 208.897 1.59393 0.212235 0
M  V30 2205 O 210.087 1.74196 -0.0115441 0
M  V30 2206 C 207.219 3.40632 -0.135053 0
M  V30 2207 H 208.412 2.47919 -1.68748 0
M  V30 2208 H 205.965 1.27061 -0.910226 0
M  V30 2209 H 206.7 3.14348 0.797218 0
M  V30 2210 H 206.485 3.8302 -0.838937 0
M  V30 2211 H 207.975 4.17505 0.0892469 0
M  V30 2212 N 208.412 0.89855 1.29475 0
M  V30 2213 C 209.689 0.443416 1.90508 0
M  V30 2214 C 210.069 -1.07685 1.81569 0
M  V30 2215 O 209.417 -1.9182 1.24166 0
M  V30 2216 C 209.627 0.956708 3.35631 0
M  V30 2217 C 210.975 0.999728 4.12663 0
M  V30 2218 O 211.999 0.904299 3.4453 0
M  V30 2219 O 210.858 1.14289 5.34416 0
M  V30 2220 H 207.952 0.138025 0.815401 0
M  V30 2221 H 210.498 0.98834 1.37949 0
M  V30 2222 H 209.27 2.00067 3.36287 0
M  V30 2223 H 208.893 0.391728 3.95666 0
M  V30 2224 N 209.89 -1.43072 0.660911 0
M  V30 2225 C 211.167 -1.95307 0.107017 0
M  V30 2226 C 211.547 -1.60192 -1.37484 0
M  V30 2227 O 210.895 -0.890949 -2.10415 0
M  V30 2228 C 211.105 -3.47124 0.361402 0
M  V30 2229 C 212.453 -4.23738 0.270455 0
M  V30 2230 O 213.477 -3.54981 0.294382 0
M  V30 2231 O 212.336 -5.46131 0.200737 0
M  V30 2232 H 209.43 -0.826984 -0.00517729 0
M  V30 2233 H 211.976 -1.52972 0.734681 0
M  V30 2234 H 210.748 -3.65837 1.38848 0
M  V30 2235 H 210.371 -3.96475 -0.298953 0
M  V30 2236 N 211.368 -0.403325 -1.52352 0
M  V30 2237 C 212.596 0.174012 -2.06167 0
M  V30 2238 C 213.011 1.39347 -1.27388 0
M  V30 2239 O 212.368 1.79597 -0.324201 0
M  V30 2240 C 212.419 0.530223 -3.5759 0
M  V30 2241 O 212.14 -0.640806 -4.33388 0
M  V30 2242 C 213.641 1.16192 -4.27802 0
M  V30 2243 H 210.861 0.0229464 -0.670608 0
M  V30 2244 H 213.405 -0.572604 -1.9632 0
M  V30 2245 H 211.56 1.22673 -3.67464 0
M  V30 2246 H 211.974 -0.344851 -5.23365 0
M  V30 2247 H 213.448 1.36141 -5.34948 0
M  V30 2248 H 213.925 2.13335 -3.83907 0
M  V30 2249 H 214.531 0.505775 -4.22282 0
M  V30 2250 N 212.846 1.57033 -0.133567 0
M  V30 2251 C 213.809 2.14897 0.796995 0
M  V30 2252 C 214.809 1.0874 1.18458 0
M  V30 2253 O 215.999 1.34446 1.1077 0
M  V30 2254 C 213.131 2.70112 2.07973 0
M  V30 2255 H 214.324 2.98457 0.293873 0
M  V30 2256 H 211.877 1.55871 0.115787 0
M  V30 2257 H 212.612 1.9018 2.62682 0
M  V30 2258 H 212.397 3.47764 1.81115 0
M  V30 2259 H 213.887 3.14738 2.74462 0
M  V30 2260 N 214.325 -0.140222 1.56975 0
M  V30 2261 C 215.235 -1.19223 2.02047 0
M  V30 2262 C 216.251 -1.46612 0.937062 0
M  V30 2263 O 217.427 -1.58148 1.24704 0
M  V30 2264 C 214.492 -2.50414 2.39778 0
M  V30 2265 C 213.553 -2.30612 3.621 0
M  V30 2266 C 212.786 -3.55547 3.98023 0
M  V30 2267 O 213.009 -4.62004 3.34528 0
M  V30 2268 O 211.943 -3.47808 4.91237 0
M  V30 2269 H 215.769 -0.839559 2.91865 0
M  V30 2270 H 213.354 -0.349453 1.45256 0
M  V30 2271 H 215.236 -3.27747 2.64877 0
M  V30 2272 H 213.911 -2.85198 1.53114 0
M  V30 2273 H 212.818 -1.51207 3.4218 0
M  V30 2274 H 214.151 -2.00741 4.49404 0
M  V30 2275 N 215.803 -1.52179 -0.40978 0
M  V30 2276 C 216.735 -1.71703 -1.51825 0
M  V30 2277 C 217.748 -0.597445 -1.51441 0
M  V30 2278 O 218.937 -0.872582 -1.55719 0
M  V30 2279 C 216.037 -1.74171 -2.90719 0
M  V30 2280 C 215.21 -3.03156 -3.15302 0
M  V30 2281 C 214.269 -2.97445 -4.34065 0
M  V30 2282 O 213.295 -3.71352 -4.31377 0
M  V30 2283 N 214.497 -2.15191 -5.39141 0
M  V30 2284 H 217.262 -2.67334 -1.35472 0
M  V30 2285 H 214.823 -1.50409 -0.599069 0
M  V30 2286 H 216.815 -1.67884 -3.68235 0
M  V30 2287 H 215.385 -0.860166 -3.00533 0
M  V30 2288 H 214.605 -3.23097 -2.25836 0
M  V30 2289 H 215.893 -3.88484 -3.28569 0
M  V30 2290 H 215.291 -1.54573 -5.44173 0
M  V30 2291 H 213.848 -2.1476 -6.15403 0
M  V30 2292 N 217.281 0.66697 -1.42791 0
M  V30 2293 C 218.528 1.42699 -1.43678 0
M  V30 2294 C 218.856 1.94419 -0.0560425 0
M  V30 2295 O 218.111 1.7182 0.936831 0
M  V30 2296 C 218.41 2.6349 -2.4147 0
M  V30 2297 C 218.076 2.30267 -3.8767 0
M  V30 2298 C 216.738 2.20918 -4.27491 0
M  V30 2299 C 219.09 2.03435 -4.79858 0
M  V30 2300 C 216.418 1.82873 -5.57471 0
M  V30 2301 C 218.77 1.66892 -6.10188 0
M  V30 2302 C 217.434 1.56058 -6.49001 0
M  V30 2303 H 216.704 0.522171 -0.525755 0
M  V30 2304 H 219.351 0.759785 -1.75783 0
M  V30 2305 H 217.656 3.35279 -2.0272 0
M  V30 2306 H 219.353 3.21684 -2.39417 0
M  V30 2307 H 215.943 2.38449 -3.56146 0
M  V30 2308 H 220.127 2.09586 -4.49875 0
M  V30 2309 H 215.383 1.7306 -5.86396 0
M  V30 2310 H 219.557 1.45157 -6.81104 0
M  V30 2311 H 217.184 1.26348 -7.49627 0
M  V30 2312 N 218.759 1.29093 0.90403 0
M  V30 2313 C 219.722 1.1386 1.98919 0
M  V30 2314 C 220.722 0.0753457 1.60623 0
M  V30 2315 O 221.912 0.321931 1.71199 0
M  V30 2316 C 219.044 0.740198 3.32767 0
M  V30 2317 H 220.237 2.10246 2.13861 0
M  V30 2318 H 217.79 1.12218 1.08797 0
M  V30 2319 H 218.525 -0.223997 3.23525 0
M  V30 2320 H 218.31 1.50838 3.61926 0
M  V30 2321 H 219.8 0.656546 4.12407 0
M  V30 2322 N 220.237 -1.11381 1.11499 0
M  V30 2323 C 221.184 -2.17439 0.773887 0
M  V30 2324 C 222.154 -1.64132 -0.254899 0
M  V30 2325 O 223.339 -1.90345 -0.13168 0
M  V30 2326 C 220.479 -3.44373 0.223917 0
M  V30 2327 C 219.592 -4.1168 1.30934 0
M  V30 2328 C 218.727 -5.263 0.71984 0
M  V30 2329 C 217.766 -5.85493 1.78507 0
M  V30 2330 N 216.903 -6.91507 1.21502 0
M  V30 2331 H 221.743 -2.45962 1.68246 0
M  V30 2332 H 219.28 -1.20744 0.840191 0
M  V30 2333 H 221.238 -4.17047 -0.112921 0
M  V30 2334 H 219.868 -3.16232 -0.647851 0
M  V30 2335 H 218.92 -3.37073 1.76312 0
M  V30 2336 H 220.232 -4.51729 2.11524 0
M  V30 2337 H 219.386 -6.05785 0.333094 0
M  V30 2338 H 218.125 -4.87559 -0.117377 0
M  V30 2339 H 217.13 -5.04686 2.18111 0
M  V30 2340 H 218.355 -6.26301 2.62533 0
M  V30 2341 H 216.301 -6.54783 0.399455 0
M  V30 2342 H 216.218 -7.30214 1.95763 0
M  V30 2343 H 217.486 -7.74795 0.855181 0
M  V30 2344 N 221.715 -0.905404 -1.28997 0
M  V30 2345 C 222.963 -0.533192 -1.9494 0
M  V30 2346 C 223.284 0.924618 -1.71685 0
M  V30 2347 O 222.554 1.65268 -1.05183 0
M  V30 2348 H 221.134 -0.194194 -0.721317 0
M  V30 2349 H 223.796 -1.15294 -1.57141 0
M  V30 2350 H 222.892 -0.72059 -3.03667 0
M  V30 2351 N 223.193 1.4272 -0.668489 0
M  V30 2352 C 224.439 2.01923 -0.188419 0
M  V30 2353 C 224.772 1.52704 1.19979 0
M  V30 2354 O 224.047 0.726566 1.8042 0
M  V30 2355 C 224.33 3.59451 -0.216085 0
M  V30 2356 C 224.183 4.18864 -1.6393 0
M  V30 2357 C 225.502 4.37903 0.439179 0
M  V30 2358 H 222.621 0.733674 -0.0699412 0
M  V30 2359 H 225.263 1.69822 -0.852076 0
M  V30 2360 H 223.413 3.86929 0.349012 0
M  V30 2361 H 225.085 4.02362 -2.25616 0
M  V30 2362 H 223.328 3.74933 -2.18193 0
M  V30 2363 H 223.999 5.27987 -1.61039 0
M  V30 2364 H 226.475 4.16079 -0.0417878 0
M  V30 2365 H 225.351 5.47519 0.389157 0
M  V30 2366 H 225.612 4.15303 1.51577 0
M  V30 2367 N 224.671 0.411399 1.52136 0
M  V30 2368 C 225.603 -0.448386 2.24771 0
M  V30 2369 C 226.616 -1.00828 1.27818 0
M  V30 2370 O 227.805 -0.906841 1.53749 0
M  V30 2371 C 224.905 -1.63636 2.96777 0
M  V30 2372 C 224.078 -1.19995 4.20618 0
M  V30 2373 C 223.137 -2.25509 4.75428 0
M  V30 2374 O 222.163 -1.86007 5.3795 0
M  V30 2375 N 223.365 -3.577 4.57199 0
M  V30 2376 H 226.13 0.174025 2.99194 0
M  V30 2377 H 223.691 0.238897 1.60128 0
M  V30 2378 H 225.683 -2.33793 3.30338 0
M  V30 2379 H 224.253 -2.16465 2.25526 0
M  V30 2380 H 223.473 -0.326421 3.92846 0
M  V30 2381 H 224.761 -0.885365 5.01038 0
M  V30 2382 H 224.159 -3.92543 4.07341 0
M  V30 2383 H 222.716 -4.23827 4.95191 0
M  V30 2384 N 226.149 -1.5696 0.141893 0
M  V30 2385 C 227.079 -2.19516 -0.795936 0
M  V30 2386 C 228.06 -1.14187 -1.26077 0
M  V30 2387 O 229.245 -1.42511 -1.31925 0
M  V30 2388 C 226.375 -2.81272 -2.03723 0
M  V30 2389 C 225.329 -3.92384 -1.70936 0
M  V30 2390 C 224.655 -4.41052 -3.02287 0
M  V30 2391 C 225.955 -5.13403 -0.959954 0
M  V30 2392 H 227.649 -2.98138 -0.274596 0
M  V30 2393 H 225.195 -1.43406 -0.130636 0
M  V30 2394 H 227.148 -3.237 -2.69808 0
M  V30 2395 H 225.872 -1.99973 -2.58221 0
M  V30 2396 H 224.531 -3.50566 -1.07232 0
M  V30 2397 H 224.179 -3.56582 -3.54765 0
M  V30 2398 H 223.879 -5.15993 -2.81114 0
M  V30 2399 H 225.403 -4.86146 -3.69451 0
M  V30 2400 H 226.817 -5.52706 -1.52279 0
M  V30 2401 H 225.214 -5.94073 -0.848357 0
M  V30 2402 H 226.284 -4.84875 0.0492434 0
M  V30 2403 N 227.627 0.131896 -1.57047 0
M  V30 2404 C 228.577 1.1679 -1.95816 0
M  V30 2405 C 229.561 1.37756 -0.831393 0
M  V30 2406 O 230.753 1.39065 -1.09499 0
M  V30 2407 C 227.882 2.49778 -2.35512 0
M  V30 2408 C 226.968 2.32342 -3.54793 0
M  V30 2409 N 227.359 1.8469 -4.70875 0
M  V30 2410 C 225.657 2.63043 -3.60173 0
M  V30 2411 C 226.358 1.80656 -5.52936 0
M  V30 2412 N 225.334 2.24528 -4.95064 0
M  V30 2413 H 229.136 0.791818 -2.83033 0
M  V30 2414 H 226.65 0.339791 -1.58805 0
M  V30 2415 H 228.647 3.24692 -2.61498 0
M  V30 2416 H 227.307 2.88156 -1.49654 0
M  V30 2417 H 228.318 1.54429 -4.9434 0
M  V30 2418 H 224.995 3.05193 -2.84892 0
M  V30 2419 H 226.385 1.45178 -6.56028 0
M  V30 2420 N 229.106 1.52395 0.401703 0
M  V30 2421 C 230.054 1.7689 1.51039 0
M  V30 2422 C 231.048 0.636298 1.56996 0
M  V30 2423 O 232.254 0.818507 1.60314 0
M  V30 2424 H 228.629 0.559502 0.502456 0
M  V30 2425 H 230.6 2.69757 1.27568 0
M  V30 2426 C 229.349 1.94331 2.88324 0
M  V30 2427 H 228.672 2.80905 2.84486 0
M  V30 2428 H 230.112 2.15466 3.65172 0
M  V30 2429 C 228.571 0.712396 3.29282 0
M  V30 2430 O 229.101 -0.116218 4.01532 0
M  V30 2431 N 227.307 0.546154 2.85422 0
M  V30 2432 H 226.854 1.22156 2.26794 0
M  V30 2433 H 226.812 -0.276113 3.13185 0
M  V30 2434 N 230.584 -0.659388 1.43143 0
M  V30 2435 C 231.494 -1.80167 1.50256 0
M  V30 2436 C 232.51 -1.69571 0.390106 0
M  V30 2437 O 233.686 -1.90849 0.643319 0
M  V30 2438 C 230.751 -3.16409 1.41725 0
M  V30 2439 C 229.812 -3.38848 2.63591 0
M  V30 2440 C 229.045 -4.68591 2.55458 0
M  V30 2441 O 229.268 -5.47532 1.59891 0
M  V30 2442 O 228.202 -4.92614 3.45854 0
M  V30 2443 H 232.028 -1.77121 2.46702 0
M  V30 2444 H 229.613 -0.817092 1.25076 0
M  V30 2445 H 231.495 -3.9768 1.39387 0
M  V30 2446 H 230.17 -3.20059 0.484118 0
M  V30 2447 H 229.077 -2.57366 2.71502 0
M  V30 2448 H 230.41 -3.4004 3.55856 0
M  V30 2449 N 232.062 -1.29571 -0.897171 0
M  V30 2450 C 233.009 -1.14916 -2.00158 0
M  V30 2451 C 233.979 -0.0418149 -1.66047 0
M  V30 2452 O 235.164 -0.209793 -1.89643 0
M  V30 2453 C 232.304 -0.834307 -3.34863 0
M  V30 2454 C 231.417 -2.02234 -3.8174 0
M  V30 2455 C 230.552 -1.64664 -5.05034 0
M  V30 2456 C 229.591 -2.80033 -5.44286 0
M  V30 2457 N 228.728 -2.42843 -6.58765 0
M  V30 2458 H 233.568 -2.09403 -2.12025 0
M  V30 2459 H 231.105 -1.042 -1.0383 0
M  V30 2460 H 233.063 -0.632436 -4.12379 0
M  V30 2461 H 231.693 0.0736656 -3.22716 0
M  V30 2462 H 230.745 -2.33583 -3.00238 0
M  V30 2463 H 232.057 -2.88673 -4.06779 0
M  V30 2464 H 231.211 -1.4078 -5.9014 0
M  V30 2465 H 229.95 -0.753766 -4.8184 0
M  V30 2466 H 228.955 -3.04596 -4.57713 0
M  V30 2467 H 230.18 -3.69989 -5.6946 0
M  V30 2468 H 228.126 -1.56046 -6.3717 0
M  V30 2469 H 228.043 -3.22815 -6.83613 0
M  V30 2470 H 229.311 -2.22285 -7.47134 0
M  V30 2471 N 233.54 1.10788 -1.12088 0
M  V30 2472 C 234.817 1.79136 -0.785476 0
M  V30 2473 C 235.197 1.98246 0.725377 0
M  V30 2474 O 234.545 1.57258 1.65778 0
M  V30 2475 C 234.755 3.12375 -1.55636 0
M  V30 2476 C 236.103 3.8731 -1.74001 0
M  V30 2477 O 237.127 3.22085 -1.52117 0
M  V30 2478 O 235.986 5.04369 -2.10415 0
M  V30 2479 H 233.08 0.776226 -0.285311 0
M  V30 2480 H 235.626 1.1747 -1.2247 0
M  V30 2481 H 234.398 2.93863 -2.5838 0
M  V30 2482 H 234.021 3.81758 -1.11114 0
M  V30 2483 N 235.018 0.912232 1.28515 0
M  V30 2484 C 235.948 0.416403 2.29757 0
M  V30 2485 C 236.929 -0.515194 1.6211 0
M  V30 2486 O 238.114 -0.423253 1.89532 0
M  V30 2487 C 235.244 -0.34572 3.45575 0
M  V30 2488 C 234.198 0.496599 4.25109 0
M  V30 2489 C 233.524 -0.393771 5.33248 0
M  V30 2490 C 234.824 1.75307 4.92001 0
M  V30 2491 H 236.518 1.26249 2.7148 0
M  V30 2492 H 234.064 0.608515 1.30511 0
M  V30 2493 H 236.017 -0.703422 4.15488 0
M  V30 2494 H 234.741 -1.2257 3.02728 0
M  V30 2495 H 233.4 0.8368 3.56922 0
M  V30 2496 H 233.048 -1.27225 4.86644 0
M  V30 2497 H 232.748 0.166209 5.87365 0
M  V30 2498 H 234.272 -0.747389 6.06009 0
M  V30 2499 H 235.686 1.46437 5.54283 0
M  V30 2500 H 234.083 2.25534 5.56106 0
M  V30 2501 H 235.153 2.48176 4.16577 0
M  V30 2502 N 236.496 -1.42363 0.676048 0
M  V30 2503 C 237.724 -2.05859 0.207268 0
M  V30 2504 C 238.139 -1.50796 -1.13605 0
M  V30 2505 O 237.496 -0.648265 -1.70598 0
M  V30 2506 C 237.547 -3.61248 0.134975 0
M  V30 2507 O 237.268 -4.1427 1.42521 0
M  V30 2508 C 238.769 -4.41859 -0.357151 0
M  V30 2509 H 235.989 -0.663431 0.100503 0
M  V30 2510 H 238.533 -1.82479 0.923136 0
M  V30 2511 H 236.688 -3.83735 -0.531588 0
M  V30 2512 H 237.102 -5.0815 1.29939 0
M  V30 2513 H 238.576 -5.50847 -0.356641 0
M  V30 2514 H 239.053 -4.16536 -1.39264 0
M  V30 2515 H 239.659 -4.24392 0.27772 0
M  V30 2516 N 237.974 -0.419461 -1.51915 0
M  V30 2517 C 238.921 0.400927 -2.27291 0
M  V30 2518 C 239.891 1.03224 -1.30131 0
M  V30 2519 O 241.076 1.05455 -1.59009 0
M  V30 2520 C 238.216 1.50603 -3.10504 0
M  V30 2521 C 237.329 0.89462 -4.22635 0
M  V30 2522 C 236.464 1.97328 -4.93189 0
M  V30 2523 C 235.503 1.33935 -5.97267 0
M  V30 2524 N 234.64 2.3586 -6.61298 0
M  V30 2525 H 239.48 -0.248251 -2.96964 0
M  V30 2526 H 237.017 -0.134266 -1.46486 0
M  V30 2527 H 238.975 2.15783 -3.57062 0
M  V30 2528 H 237.605 2.12509 -2.42981 0
M  V30 2529 H 236.657 0.131583 -3.80172 0
M  V30 2530 H 237.969 0.391641 -4.9726 0
M  V30 2531 H 237.123 2.70211 -5.43204 0
M  V30 2532 H 235.862 2.50994 -4.18155 0
M  V30 2533 H 234.867 0.595896 -5.46561 0
M  V30 2534 H 236.092 0.810252 -6.74249 0
M  V30 2535 H 234.038 2.88639 -5.89087 0
M  V30 2536 H 233.955 1.90403 -7.3163 0
M  V30 2537 H 235.223 3.08282 -7.15949 0
M  V30 2538 N 239.452 1.56882 -0.150215 0
M  V30 2539 C 240.863 1.82995 0.370076 0
M  V30 2540 C 241.214 1.06907 1.64515 0
M  V30 2541 O 240.339 0.315369 2.1409 0
M  V30 2542 C 240.934 3.31942 0.678208 0
M  V30 2543 C 239.493 3.58625 1.14301 0
M  V30 2544 C 238.64 2.76792 0.167778 0
M  V30 2545 H 241.591 1.54209 -0.374858 0
M  V30 2546 H 241.612 3.48272 1.53254 0
M  V30 2547 H 241.124 3.87294 -0.249991 0
M  V30 2548 H 239.225 3.08664 2.08704 0
M  V30 2549 H 239.338 4.67073 1.06676 0
M  V30 2550 H 237.702 2.45972 0.661037 0
M  V30 2551 H 238.485 3.34916 -0.754069 0
M  V30 2552 N 240.93 -0.123565 1.57115 0
M  V30 2553 C 241.893 -1.13583 1.99076 0
M  V30 2554 C 242.893 -1.34564 0.880296 0
M  V30 2555 O 244.083 -1.31158 1.14644 0
M  V30 2556 C 241.215 -2.49128 2.32698 0
M  V30 2557 H 242.408 -0.775287 2.89706 0
M  V30 2558 H 239.961 -0.36771 1.51913 0
M  V30 2559 H 240.696 -2.90111 1.44934 0
M  V30 2560 H 240.481 -2.35255 3.13684 0
M  V30 2561 H 241.971 -3.2199 2.65918 0
M  V30 2562 N 242.408 -1.52605 -0.393616 0
M  V30 2563 C 243.654 -1.67672 -1.14079 0
M  V30 2564 C 243.987 -0.413121 -1.89755 0
M  V30 2565 O 243.262 0.588952 -1.85369 0
M  V30 2566 C 243.545 -2.9088 -2.12276 0
M  V30 2567 C 243.398 -4.27329 -1.40394 0
M  V30 2568 C 244.717 -3.09628 -3.12759 0
M  V30 2569 H 241.836 -0.610168 -0.413356 0
M  V30 2570 H 244.478 -1.85193 -0.424696 0
M  V30 2571 H 242.628 -2.76073 -2.73342 0
M  V30 2572 H 244.3 -4.53894 -0.82327 0
M  V30 2573 H 242.543 -4.2802 -0.705801 0
M  V30 2574 H 243.214 -5.09615 -2.12123 0
M  V30 2575 H 245.69 -3.23436 -2.61779 0
M  V30 2576 H 244.566 -3.97322 -3.78717 0
M  V30 2577 H 244.827 -2.23637 -3.81365 0
M  V30 2578 N 243.887 0.651787 -1.4349 0
M  V30 2579 C 244.817 1.77621 -1.51569 0
M  V30 2580 C 245.798 1.66022 -0.370253 0
M  V30 2581 O 246.983 1.85095 -0.587658 0
M  V30 2582 C 244.113 3.16056 -1.43966 0
M  V30 2583 C 243.067 3.4242 -2.56774 0
M  V30 2584 C 242.393 4.8067 -2.34223 0
M  V30 2585 C 243.693 3.37023 -3.99015 0
M  V30 2586 H 245.387 1.71117 -2.45681 0
M  V30 2587 H 242.933 0.821825 -1.18246 0
M  V30 2588 H 244.886 3.94472 -1.48221 0
M  V30 2589 H 243.61 3.23293 -0.463586 0
M  V30 2590 H 242.269 2.66375 -2.51873 0
M  V30 2591 H 241.917 4.84585 -1.34856 0
M  V30 2592 H 241.617 4.9927 -3.09844 0
M  V30 2593 H 243.141 5.61342 -2.40265 0
M  V30 2594 H 244.555 4.05374 -4.05395 0
M  V30 2595 H 242.952 3.67159 -4.74673 0
M  V30 2596 H 244.022 2.3518 -4.2405 0
M  V30 2597 N 245.365 1.30045 0.890287 0
M  V30 2598 C 246.275 1.17885 2.02831 0
M  V30 2599 C 247.291 0.0999609 1.73713 0
M  V30 2600 O 248.467 0.313867 1.98939 0
M  V30 2601 C 245.532 0.866079 3.35708 0
M  V30 2602 C 244.593 2.02979 3.78283 0
M  V30 2603 C 243.826 1.73184 5.0482 0
M  V30 2604 O 244.049 0.657237 5.66601 0
M  V30 2605 O 242.983 2.58267 5.43674 0
M  V30 2606 H 246.809 2.13474 2.16015 0
M  V30 2607 H 244.394 1.09587 1.01543 0
M  V30 2608 H 246.276 0.706623 4.15433 0
M  V30 2609 H 244.951 -0.0599443 3.23644 0
M  V30 2610 H 243.858 2.24454 2.99285 0
M  V30 2611 H 245.191 2.93734 3.94944 0
M  V30 2612 N 246.843 -1.10192 1.12674 0
M  V30 2613 C 248.089 -1.82475 0.884915 0
M  V30 2614 C 248.422 -1.85093 -0.58773 0
M  V30 2615 O 247.697 -1.3134 -1.43457 0
M  V30 2616 C 247.98 -3.29018 1.46353 0
M  V30 2617 C 247.833 -3.34718 3.00473 0
M  V30 2618 C 249.152 -4.25473 1.12519 0
M  V30 2619 H 246.271 -0.662492 0.322915 0
M  V30 2620 H 248.913 -1.2913 1.39375 0
M  V30 2621 H 247.063 -3.74576 1.03077 0
M  V30 2622 H 248.735 -2.97622 3.52447 0
M  V30 2623 H 246.978 -2.74541 3.35872 0
M  V30 2624 H 247.649 -4.37918 3.36053 0
M  V30 2625 H 250.125 -3.88161 1.499 0
M  V30 2626 H 249.001 -5.26365 1.55663 0
M  V30 2627 H 249.262 -4.42084 0.0377407 0
M  V30 2628 N 248.321 -0.919034 -1.28029 0
M  V30 2629 C 249.57 -0.550802 -1.94034 0
M  V30 2630 C 249.883 0.910877 -1.73096 0
M  V30 2631 O 251.089 1.3875 -2.33368 0
M  V30 2632 C 249.545 -0.934249 -3.47563 0
M  V30 2633 C 249.153 -2.41602 -3.7727 0
M  V30 2634 C 250.897 -0.636854 -4.19696 0
M  V30 2635 C 248.804 -2.73932 -5.24133 0
M  V30 2636 H 247.734 -0.202273 -0.726362 0
M  V30 2637 H 250.385 -1.11867 -1.45458 0
M  V30 2638 H 248.767 -0.295115 -3.94899 0
M  V30 2639 H 249.941 -3.10233 -3.40723 0
M  V30 2640 H 248.256 -2.68441 -3.18321 0
M  V30 2641 H 250.853 -0.855005 -5.2782 0
M  V30 2642 H 251.196 0.425575 -4.14119 0
M  V30 2643 H 251.729 -1.23469 -3.78154 0
M  V30 2644 H 248.468 -3.79049 -5.34792 0
M  V30 2645 H 247.988 -2.09942 -5.61858 0
M  V30 2646 H 249.667 -2.61215 -5.91925 0
M  V30 2647 N 249.799 1.42003 -0.683588 0
M  V30 2648 C 251.027 2.05746 -0.218182 0
M  V30 2649 C 251.442 1.51396 1.12804 0
M  V30 2650 O 250.799 0.657303 1.70252 0
M  V30 2651 C 250.85 3.61171 -0.154131 0
M  V30 2652 O 250.571 4.13508 -1.44716 0
M  V30 2653 C 252.072 4.42042 0.333713 0
M  V30 2654 H 249.292 0.662888 -0.10402 0
M  V30 2655 H 251.836 1.81987 -0.9328 0
M  V30 2656 H 249.991 3.84012 0.511231 0
M  V30 2657 H 250.405 5.07453 -1.32632 0
M  V30 2658 H 251.879 5.51028 0.327423 0
M  V30 2659 H 252.356 4.17269 1.37053 0
M  V30 2660 H 252.962 4.24239 -0.300222 0
M  V30 2661 N 251.277 0.427512 1.51691 0
M  V30 2662 C 252.688 -0.0378867 1.86662 0
M  V30 2663 C 253.039 -1.42819 1.34525 0
M  V30 2664 O 252.164 -2.05037 0.692014 0
M  V30 2665 C 252.759 -0.0755266 3.38716 0
M  V30 2666 C 251.318 -0.485309 3.73258 0
M  V30 2667 C 250.465 0.328399 2.75349 0
M  V30 2668 H 253.416 0.64379 1.45055 0
M  V30 2669 H 253.437 -0.887056 3.70016 0
M  V30 2670 H 252.949 0.936487 3.76632 0
M  V30 2671 H 251.05 -1.50329 3.40928 0
M  V30 2672 H 251.163 -0.21693 4.78609 0
M  V30 2673 H 249.527 -0.211905 2.53817 0
M  V30 2674 H 250.31 1.3391 3.16106 0
M  V30 2675 N 252.755 -1.56801 0.158532 0
M  V30 2676 C 253.983 -2.00859 -0.496303 0
M  V30 2677 C 254.398 -1.03871 -1.57659 0
M  V30 2678 O 253.755 -0.0375165 -1.82461 0
M  V30 2679 C 253.806 -3.4479 -1.08638 0
M  V30 2680 O 253.527 -4.38072 -0.0492322 0
M  V30 2681 C 255.028 -4.04185 -1.8207 0
M  V30 2682 H 252.248 -0.65864 -0.128199 0
M  V30 2683 H 254.792 -2.02885 0.256506 0
M  V30 2684 H 252.947 -3.43579 -1.78975 0
M  V30 2685 H 253.361 -5.2227 -0.483102 0
M  V30 2686 H 254.835 -5.06857 -2.18633 0
M  V30 2687 H 255.312 -3.45549 -2.71095 0
M  V30 2688 H 255.918 -4.0906 -1.16405 0
M  V30 2689 N 254.233 0.115231 -1.57178 0
M  V30 2690 C 255.165 1.16694 -1.97269 0
M  V30 2691 C 256.178 1.37445 -0.872502 0
M  V30 2692 O 257.367 1.36454 -1.15077 0
M  V30 2693 C 254.467 2.52627 -2.25905 0
M  V30 2694 C 253.64 2.52427 -3.57211 0
M  V30 2695 C 252.699 3.70134 -3.74016 0
M  V30 2696 O 251.725 3.53546 -4.46087 0
M  V30 2697 N 252.927 4.88844 -3.13068 0
M  V30 2698 H 255.692 0.82588 -2.88096 0
M  V30 2699 H 253.253 0.304461 -1.59011 0
M  V30 2700 H 255.245 3.29937 -2.34359 0
M  V30 2701 H 253.815 2.789 -1.41186 0
M  V30 2702 H 253.035 1.60805 -3.5991 0
M  V30 2703 H 254.323 2.49353 -4.43509 0
M  V30 2704 H 253.721 5.05225 -2.54489 0
M  V30 2705 H 252.278 5.63817 -3.27037 0
M  V30 2706 N 255.711 1.52812 0.385517 0
M  V30 2707 C 256.957 1.68275 1.13188 0
M  V30 2708 C 257.29 0.423179 1.89533 0
M  V30 2709 O 256.565 -0.579113 1.85679 0
M  V30 2710 C 256.848 2.92001 2.1073 0
M  V30 2711 C 256.701 4.28067 1.38125 0
M  V30 2712 C 258.02 3.11283 3.11113 0
M  V30 2713 H 255.139 0.612352 0.410115 0
M  V30 2714 H 257.781 1.85415 0.414869 0
M  V30 2715 H 255.931 2.77519 2.71874 0
M  V30 2716 H 257.603 4.54324 0.799187 0
M  V30 2717 H 255.846 4.28388 0.683092 0
M  V30 2718 H 256.517 5.10733 2.09417 0
M  V30 2719 H 258.993 3.2482 2.6006 0
M  V30 2720 H 257.869 3.99325 3.76605 0
M  V30 2721 H 258.13 2.25656 3.80173 0
M  V30 2722 N 257.189 -0.644168 1.43834 0
M  V30 2723 C 258.605 -0.960875 1.27434 0
M  V30 2724 C 258.805 -2.00499 0.200618 0
M  V30 2725 O 257.861 -2.49018 -0.417906 0
M  V30 2726 C 259.174 -1.43653 2.64167 0
M  V30 2727 C 260.722 -1.55271 2.71772 0
M  V30 2728 C 261.197 -2.06224 4.08944 0
M  V30 2729 N 262.688 -2.13513 4.11055 0
M  V30 2730 C 263.423 -2.54081 5.14033 0
M  V30 2731 N 262.919 -2.9388 6.27381 0
M  V30 2732 N 264.712 -2.54101 5.01387 0
M  V30 2733 H 256.863 0.0465779 2.12349 0
M  V30 2734 H 259.126 -0.0417638 0.94708 0
M  V30 2735 H 258.832 -0.743706 3.43747 0
M  V30 2736 H 258.706 -2.40993 2.90176 0
M  V30 2737 H 261.093 -2.23653 1.92519 0
M  V30 2738 H 261.174 -0.563395 2.49519 0
M  V30 2739 H 260.818 -1.38441 4.88668 0
M  V30 2740 H 260.748 -3.06003 4.28567 0
M  V30 2741 H 263.239 -1.85493 3.29242 0
M  V30 2742 H 263.552 -3.2361 7.01781 0
M  V30 2743 H 261.897 -2.91663 6.30839 0
M  V30 2744 H 265.088 -2.22391 4.11898 0
M  V30 2745 H 265.261 -2.85394 5.81768 0
M  V30 2746 N 258.668 -1.30515 -0.883378 0
M  V30 2747 C 259.598 -1.19607 -2.00541 0
M  V30 2748 C 260.579 -0.086346 -1.69881 0
M  V30 2749 O 261.764 -0.268654 -1.92333 0
M  V30 2750 C 258.894 -0.888758 -3.35736 0
M  V30 2751 C 257.848 -1.95659 -3.8066 0
M  V30 2752 C 257.174 -1.50224 -5.13164 0
M  V30 2753 C 258.474 -3.36788 -3.99213 0
M  V30 2754 H 260.168 -2.13476 -2.09925 0
M  V30 2755 H 257.714 -1.02775 -1.00863 0
M  V30 2756 H 259.667 -0.799094 -4.13754 0
M  V30 2757 H 258.391 0.0856125 -3.26488 0
M  V30 2758 H 257.05 -2.03591 -3.04871 0
M  V30 2759 H 256.698 -0.516092 -5.00345 0
M  V30 2760 H 256.398 -2.2165 -5.44192 0
M  V30 2761 H 257.922 -1.42639 -5.93706 0
M  V30 2762 H 259.336 -3.31605 -4.67665 0
M  V30 2763 H 257.733 -4.06314 -4.41621 0
M  V30 2764 H 258.803 -3.78561 -3.03017 0
M  V30 2765 N 260.146 1.09593 -1.13257 0
M  V30 2766 C 261.374 1.855 -0.916378 0
M  V30 2767 C 261.789 1.81069 0.534738 0
M  V30 2768 O 261.146 1.20562 1.37007 0
M  V30 2769 C 261.197 3.33546 -1.39388 0
M  V30 2770 O 260.918 3.37927 -2.78813 0
M  V30 2771 C 262.419 4.26299 -1.21588 0
M  V30 2772 H 259.639 0.585991 -0.326887 0
M  V30 2773 H 262.183 1.38488 -1.5047 0
M  V30 2774 H 260.338 3.77992 -0.848597 0
M  V30 2775 H 260.752 4.30254 -2.9997 0
M  V30 2776 H 262.226 5.28341 -1.59876 0
M  V30 2777 H 262.703 4.38918 -0.157376 0
M  V30 2778 H 263.309 3.87668 -1.7491 0
M  V30 2779 N 261.624 0.925811 1.2754 0
M  V30 2780 C 262.873 0.561084 1.93739 0
M  V30 2781 C 263.186 -0.901685 1.73577 0
M  V30 2782 O 264.392 -1.37511 2.34101 0
M  V30 2783 C 262.848 0.952668 3.47062 0
M  V30 2784 C 262.456 2.43599 3.75983 0
M  V30 2785 C 264.2 0.659103 4.19352 0
M  V30 2786 C 262.107 2.76707 5.22673 0
M  V30 2787 H 261.037 0.206122 0.725279 0
M  V30 2788 H 263.688 1.12637 1.44863 0
M  V30 2789 H 262.07 0.316053 3.94737 0
M  V30 2790 H 263.244 3.12035 3.39073 0
M  V30 2791 H 261.559 2.70125 3.16893 0
M  V30 2792 H 264.156 0.882985 5.27359 0
M  V30 2793 H 264.499 -0.403607 4.14339 0
M  V30 2794 H 265.032 1.25473 3.77494 0
M  V30 2795 H 261.771 3.8188 5.32774 0
M  V30 2796 H 261.291 2.12919 5.60737 0
M  V30 2797 H 262.97 2.6435 5.90532 0
M  V30 2798 N 263.102 -1.41638 0.69111 0
M  V30 2799 C 264.327 -2.06148 0.227583 0
M  V30 2800 C 264.752 -1.51652 -1.11281 0
M  V30 2801 O 264.11 -0.64164 -1.69566 0
M  V30 2802 C 264.158 -3.60095 0.190858 0
M  V30 2803 O 263.262 -4.03845 -0.835664 0
M  V30 2804 H 262.603 -0.654434 0.112306 0
M  V30 2805 H 265.133 -1.81484 0.944714 0
M  V30 2806 H 265.143 -4.07995 0.020207 0
M  V30 2807 H 263.818 -3.99129 1.16915 0
M  V30 2808 H 262.395 -3.67458 -0.63473 0
M  V30 2809 N 264.58 -0.43555 -1.51462 0
M  V30 2810 C 265.49 0.383001 -2.31453 0
M  V30 2811 C 266.506 1.02931 -1.4029 0
M  V30 2812 O 267.682 1.02507 -1.73362 0
M  V30 2813 C 264.747 1.47043 -3.13973 0
M  V30 2814 C 263.808 0.844433 -4.20913 0
M  V30 2815 C 263.041 1.88004 -4.9949 0
M  V30 2816 O 263.264 3.10199 -4.78678 0
M  V30 2817 O 262.198 1.47157 -5.83634 0
M  V30 2818 H 266.024 -0.269964 -3.02498 0
M  V30 2819 H 263.609 -0.19813 -1.4808 0
M  V30 2820 H 265.491 2.10113 -3.65281 0
M  V30 2821 H 264.166 2.10751 -2.45695 0
M  V30 2822 H 263.073 0.175729 -3.73687 0
M  V30 2823 H 264.406 0.250869 -4.9156 0
M  V30 2824 N 266.058 1.56714 -0.166846 0
M  V30 2825 C 267.306 1.96358 0.478305 0
M  V30 2826 C 267.627 1.0537 1.6408 0
M  V30 2827 O 266.897 0.119154 1.95537 0
M  V30 2828 H 265.477 0.725065 0.179692 0
M  V30 2829 H 268.139 1.93329 -0.246985 0
M  V30 2830 H 267.235 3.00547 0.841292 0
M  V30 2831 N 267.536 -0.106894 1.57237 0
M  V30 2832 C 268.952 -0.46078 1.52804 0
M  V30 2833 C 269.152 -1.81184 0.881746 0
M  V30 2834 O 268.208 -2.48102 0.469224 0
M  V30 2835 C 269.521 -0.434127 2.9755 0
M  V30 2836 C 271.069 -0.516821 3.08704 0
M  V30 2837 C 271.544 -0.520436 4.55033 0
M  V30 2838 N 273.035 -0.58153 4.59535 0
M  V30 2839 C 273.77 -0.605973 5.70189 0
M  V30 2840 N 273.266 -0.587331 6.90306 0
M  V30 2841 N 275.059 -0.649895 5.5833 0
M  V30 2842 H 267.21 0.778203 1.9763 0
M  V30 2843 H 269.473 0.288403 0.903066 0
M  V30 2844 H 269.179 0.491197 3.48253 0
M  V30 2845 H 269.053 -1.25748 3.55622 0
M  V30 2846 H 271.44 -1.43256 2.57995 0
M  V30 2847 H 271.521 0.334449 2.53604 0
M  V30 2848 H 271.165 0.391313 5.0639 0
M  V30 2849 H 271.095 -1.38876 5.07958 0
M  V30 2850 H 273.586 -0.60161 3.73081 0
M  V30 2851 H 273.899 -0.60894 7.70397 0
M  V30 2852 H 272.244 -0.554564 6.92784 0
M  V30 2853 H 275.435 -0.661907 4.63397 0
M  V30 2854 H 275.608 -0.665476 6.44574 0
M  V30 2855 N 269.014 -1.53014 -0.377408 0
M  V30 2856 C 270.244 -1.72265 -1.14054 0
M  V30 2857 C 270.652 -0.44601 -1.83868 0
M  V30 2858 O 269.995 0.590095 -1.73964 0
M  V30 2859 C 270.057 -2.82492 -2.22348 0
M  V30 2860 C 269.721 -4.23233 -1.72402 0
M  V30 2861 C 270.718 -5.05992 -1.19448 0
M  V30 2862 C 268.403 -4.696 -1.78273 0
M  V30 2863 C 270.397 -6.33203 -0.730268 0
M  V30 2864 C 268.084 -5.96792 -1.31464 0
M  V30 2865 C 269.082 -6.78424 -0.789297 0
M  V30 2866 O 268.77 -8.0323 -0.328077 0
M  V30 2867 H 268.502 -0.579873 -0.347453 0
M  V30 2868 H 271.056 -2.00502 -0.445882 0
M  V30 2869 H 269.286 -2.49702 -2.95272 0
M  V30 2870 H 270.975 -2.90034 -2.83963 0
M  V30 2871 H 271.741 -4.71349 -1.14259 0
M  V30 2872 H 267.62 -4.06142 -2.18106 0
M  V30 2873 H 271.164 -6.96868 -0.319542 0
M  V30 2874 H 267.061 -6.30937 -1.36342 0
M  V30 2875 H 267.829 -8.1727 -0.448493 0
M  V30 2876 N 270.492 0.636531 -1.44174 0
M  V30 2877 C 271.442 1.74233 -1.47061 0
M  V30 2878 C 272.426 1.57331 -0.337034 0
M  V30 2879 O 273.618 1.67159 -0.581973 0
M  V30 2880 C 270.747 3.12897 -1.41246 0
M  V30 2881 C 269.833 3.35288 -2.59698 0
M  V30 2882 N 270.224 3.2807 -3.84972 0
M  V30 2883 C 268.522 3.66065 -2.54778 0
M  V30 2884 C 269.223 3.51001 -4.63867 0
M  V30 2885 N 268.199 3.73616 -3.94857 0
M  V30 2886 H 272.001 1.67103 -2.41773 0
M  V30 2887 H 269.515 0.838806 -1.3906 0
M  V30 2888 H 271.512 3.92189 -1.41398 0
M  V30 2889 H 270.172 3.21197 -0.47569 0
M  V30 2890 H 271.183 3.07109 -4.17019 0
M  V30 2891 H 267.86 3.81379 -1.6987 0
M  V30 2892 H 269.25 3.51059 -5.72894 0
M  V30 2893 N 271.97 1.30982 0.876444 0
M  V30 2894 C 272.902 1.13902 1.98894 0
M  V30 2895 C 273.915 0.0798815 1.62604 0
M  V30 2896 O 275.104 0.326743 1.75484 0
M  V30 2897 C 272.204 0.716699 3.31235 0
M  V30 2898 C 271.377 1.85945 3.95908 0
M  V30 2899 C 270.436 1.42426 5.06558 0
M  V30 2900 O 269.462 2.13287 5.27729 0
M  V30 2901 N 270.664 0.308025 5.79682 0
M  V30 2902 H 273.429 2.09724 2.14094 0
M  V30 2903 H 270.99 1.2323 1.05004 0
M  V30 2904 H 272.982 0.408403 4.02634 0
M  V30 2905 H 271.552 -0.149719 3.12241 0
M  V30 2906 H 270.772 2.33541 3.17573 0
M  V30 2907 H 272.06 2.62503 4.35855 0
M  V30 2908 H 271.458 -0.282241 5.64995 0
M  V30 2909 H 270.015 0.0592282 6.51773 0
M  V30 2910 N 273.449 -1.08991 1.13837 0
M  V30 2911 C 274.695 -1.81526 0.90422 0
M  V30 2912 C 275.028 -1.85706 -0.568066 0
M  V30 2913 O 274.303 -1.32855 -1.42056 0
M  V30 2914 C 274.586 -3.27447 1.49835 0
M  V30 2915 C 274.439 -3.31512 3.04006 0
M  V30 2916 C 275.758 -4.24256 1.17025 0
M  V30 2917 H 272.877 -0.659029 0.329923 0
M  V30 2918 H 275.519 -1.27644 1.40737 0
M  V30 2919 H 273.669 -3.73462 1.07044 0
M  V30 2920 H 275.341 -2.93867 3.55584 0
M  V30 2921 H 273.584 -2.70963 3.38765 0
M  V30 2922 H 274.255 -4.34329 3.40679 0
M  V30 2923 H 276.731 -3.86549 1.54009 0
M  V30 2924 H 275.607 -5.24684 1.61237 0
M  V30 2925 H 275.868 -4.42019 0.0846274 0
M  V30 2926 N 274.927 -0.932562 -1.27047 0
M  V30 2927 C 275.874 -0.434072 -2.26681 0
M  V30 2928 C 276.844 0.501639 -1.58344 0
M  V30 2929 O 278.029 0.419734 -1.86126 0
M  V30 2930 C 275.169 0.30261 -3.43771 0
M  V30 2931 C 274.282 -0.667774 -4.26808 0
M  V30 2932 C 273.417 0.0892393 -5.31125 0
M  V30 2933 C 272.456 -0.873532 -6.05835 0
M  V30 2934 N 271.593 -0.148832 -7.01942 0
M  V30 2935 H 276.433 -1.28868 -2.68695 0
M  V30 2936 H 273.97 -0.646713 -1.32121 0
M  V30 2937 H 275.928 0.746092 -4.10474 0
M  V30 2938 H 274.558 1.12142 -3.02695 0
M  V30 2939 H 273.61 -1.22978 -3.59973 0
M  V30 2940 H 274.922 -1.40337 -4.78651 0
M  V30 2941 H 274.076 0.592409 -6.03801 0
M  V30 2942 H 272.815 0.85777 -4.80097 0
M  V30 2943 H 271.82 -1.38791 -5.31994 0
M  V30 2944 H 273.045 -1.64193 -6.58952 0
M  V30 2945 H 270.991 0.601365 -6.53238 0
M  V30 2946 H 270.908 -0.82391 -7.51497 0
M  V30 2947 H 272.176 0.333527 -7.78786 0
M  V30 2948 N 276.405 1.4127 -0.698611 0
M  V30 2949 C 277.821 1.55241 -0.370462 0
M  V30 2950 C 278.021 1.67351 1.12231 0
M  V30 2951 O 277.077 1.65363 1.90818 0
M  V30 2952 C 278.39 2.78997 -1.12165 0
M  V30 2953 C 279.938 2.92797 -1.1063 0
M  V30 2954 C 280.413 4.19445 -1.8393 0
M  V30 2955 N 281.904 4.26409 -1.80914 0
M  V30 2956 C 282.639 5.23271 -2.34467 0
M  V30 2957 N 282.135 6.26145 -2.96504 0
M  V30 2958 N 283.928 5.15232 -2.24706 0
M  V30 2959 H 276.079 1.31654 -1.66676 0
M  V30 2960 H 278.342 0.635393 -0.703548 0
M  V30 2961 H 278.048 2.76268 -2.17644 0
M  V30 2962 H 277.922 3.70606 -0.702209 0
M  V30 2963 H 280.309 2.95039 -0.0597713 0
M  V30 2964 H 280.39 2.02353 -1.56483 0
M  V30 2965 H 280.034 4.17964 -2.88563 0
M  V30 2966 H 279.964 5.08866 -1.35509 0
M  V30 2967 H 282.455 3.527 -1.35687 0
M  V30 2968 H 282.768 6.96451 -3.34927 0
M  V30 2969 H 281.113 6.26638 -3.00583 0
M  V30 2970 H 284.304 4.33789 -1.7591 0
M  V30 2971 H 284.477 5.90552 -2.66745 0
M  V30 2972 N 277.883 0.443576 1.51229 0
M  V30 2973 C 278.816 -0.410089 2.24485 0
M  V30 2974 C 279.794 -1.01949 1.26669 0
M  V30 2975 O 280.978 -1.06075 1.55821 0
M  V30 2976 C 278.105 -1.57211 3.00004 0
M  V30 2977 C 277.151 -1.08279 4.12526 0
M  V30 2978 S 277.984 -0.0197476 5.35496 0
M  V30 2979 C 279.14 -1.18629 6.14555 0
M  V30 2980 H 279.373 0.211832 2.96544 0
M  V30 2981 H 276.906 0.228156 1.52705 0
M  V30 2982 H 278.864 -2.23825 3.44111 0
M  V30 2983 H 277.525 -2.16547 2.27522 0
M  V30 2984 H 276.718 -1.95193 4.64667 0
M  V30 2985 H 276.32 -0.494797 3.70713 0
M  V30 2986 H 278.612 -2.10344 6.4402 0
M  V30 2987 H 279.555 -0.70472 7.04584 0
M  V30 2988 H 279.963 -1.42768 5.46148 0
M  V30 2989 N 279.361 -1.56624 0.175154 0
M  V30 2990 C 280.608 -1.96999 -0.468811 0
M  V30 2991 C 280.936 -1.06129 -1.62994 0
M  V30 2992 O 280.191 -0.0961771 -1.95464 0
M  V30 2993 C 280.49 -3.43419 -0.989864 0
M  V30 2994 C 280.156 -4.50866 0.0557687 0
M  V30 2995 C 278.818 -4.79975 0.343134 0
M  V30 2996 C 281.17 -5.15551 0.765308 0
M  V30 2997 C 278.498 -5.71066 1.34536 0
M  V30 2998 C 280.85 -6.07724 1.75654 0
M  V30 2999 C 279.514 -6.35199 2.05132 0
M  V30 3000 H 278.784 -0.720869 -0.17155 0
M  V30 3001 H 281.431 -1.89616 0.267924 0
M  V30 3002 H 279.736 -3.47772 -1.80449 0
M  V30 3003 H 281.433 -3.72002 -1.49719 0
M  V30 3004 H 278.023 -4.28229 -0.178381 0
M  V30 3005 H 282.207 -4.9317 0.556513 0
M  V30 3006 H 277.463 -5.90635 1.57988 0
M  V30 3007 H 281.637 -6.56912 2.31169 0
M  V30 3008 H 279.264 -7.05584 2.8294 0
M  V30 3009 N 280.839 0.0985539 -1.57292 0
M  V30 3010 C 281.802 1.10402 -2.00858 0
M  V30 3011 C 282.802 1.33146 -0.901593 0
M  V30 3012 O 283.992 1.29318 -1.16716 0
M  V30 3013 C 281.124 2.45394 -2.36632 0
M  V30 3014 H 282.317 0.729099 -2.90902 0
M  V30 3015 H 279.87 0.343495 -1.52479 0
M  V30 3016 H 280.605 2.87769 -1.49531 0
M  V30 3017 H 280.39 2.30235 -3.17387 0
M  V30 3018 H 281.88 3.17718 -2.71007 0
M  V30 3019 N 282.317 1.53212 0.369288 0
M  V30 3020 C 283.28 1.7872 1.43498 0
M  V30 3021 C 284.28 0.657554 1.46741 0
M  V30 3022 O 285.47 0.925736 1.47566 0
M  V30 3023 C 282.602 1.90591 2.82645 0
M  V30 3024 H 283.795 2.73894 1.22156 0
M  V30 3025 H 281.348 1.44233 0.602203 0
M  V30 3026 H 282.083 0.974709 3.09306 0
M  V30 3027 H 281.868 2.72751 2.8169 0
M  V30 3028 H 283.358 2.11931 3.59826 0
M  V30 3029 N 283.795 -0.628877 1.44509 0
M  V30 3030 C 285.041 -1.39045 1.47629 0
M  V30 3031 C 285.374 -1.93892 0.109343 0
M  V30 3032 O 284.649 -1.7379 -0.87334 0
M  V30 3033 C 284.932 -2.55408 2.53848 0
M  V30 3034 C 284.785 -2.05896 3.99909 0
M  V30 3035 C 286.104 -3.5759 2.56549 0
M  V30 3036 H 283.223 -0.504232 0.537512 0
M  V30 3037 H 285.865 -0.710854 1.76201 0
M  V30 3038 H 284.015 -3.13384 2.29615 0
M  V30 3039 H 285.687 -1.52734 4.35282 0
M  V30 3040 H 283.93 -1.37061 4.11578 0
M  V30 3041 H 284.601 -2.89681 4.69882 0
M  V30 3042 H 287.077 -3.09419 2.78207 0
M  V30 3043 H 285.953 -4.36527 3.32769 0
M  V30 3044 H 286.214 -4.11808 1.60832 0
M  V30 3045 N 285.273 -1.31445 -0.869486 0
M  V30 3046 C 286.521 -1.20918 -1.61936 0
M  V30 3047 C 286.842 0.232683 -1.93607 0
M  V30 3048 O 286.112 1.15352 -1.58338 0
M  V30 3049 H 284.692 -0.44454 -0.600328 0
M  V30 3050 H 287.354 -1.64776 -1.0409 0
M  V30 3051 H 286.45 -1.78124 -2.56278 0
M  V30 3052 N 286.751 1.08385 -1.14413 0
M  V30 3053 C 287.699 2.17406 -0.826888 0
M  V30 3054 C 288.693 1.6827 0.195312 0
M  V30 3055 O 289.899 1.79927 0.0513892 0
M  V30 3056 H 286.274 0.70934 -0.249681 0
M  V30 3057 H 288.245 2.41388 -1.75426 0
M  V30 3058 C 286.994 3.46215 -0.320979 0
M  V30 3059 H 286.317 3.84401 -1.0989 0
M  V30 3060 H 287.757 4.23777 -0.137549 0
M  V30 3061 C 286.216 3.23067 0.955472 0
M  V30 3062 O 286.746 3.4668 2.02918 0
M  V30 3063 N 284.952 2.7661 0.890798 0
M  V30 3064 H 284.499 2.57594 0.0168815 0
M  V30 3065 H 284.457 2.61501 1.74542 0
M  V30 3066 N 288.23 0.939286 1.26551 0
M  V30 3067 C 289.18 0.418284 2.2413 0
M  V30 3068 C 290.164 -0.483935 1.5345 0
M  V30 3069 O 291.356 -0.319489 1.74093 0
M  V30 3070 C 288.485 -0.31709 3.41832 0
M  V30 3071 C 287.571 0.602311 4.19801 0
M  V30 3072 N 287.962 1.72726 4.75394 0
M  V30 3073 C 286.26 0.407534 4.44134 0
M  V30 3074 C 286.961 2.30004 5.34297 0
M  V30 3075 N 285.937 1.58828 5.1988 0
M  V30 3076 H 289.739 1.27705 2.64705 0
M  V30 3077 H 287.253 0.794929 1.41614 0
M  V30 3078 H 289.25 -0.707364 4.10855 0
M  V30 3079 H 287.91 -1.17264 3.02786 0
M  V30 3080 H 288.921 2.10944 4.72994 0
M  V30 3081 H 285.598 -0.406406 4.15517 0
M  V30 3082 H 286.988 3.24778 5.88191 0
M  V30 3083 N 289.708 -1.40897 0.706093 0
M  V30 3084 C 290.954 -2.01352 0.241889 0
M  V30 3085 C 291.287 -1.55832 -1.15888 0
M  V30 3086 O 290.562 -0.774145 -1.7843 0
M  V30 3087 C 290.845 -3.58752 0.311311 0
M  V30 3088 C 290.698 -4.1437 1.74978 0
M  V30 3089 C 292.017 -4.38914 -0.322922 0
M  V30 3090 H 289.136 -0.731562 0.0893687 0
M  V30 3091 H 291.778 -1.67504 0.896802 0
M  V30 3092 H 289.928 -3.87718 -0.246302 0
M  V30 3093 H 291.6 -3.96239 2.36205 0
M  V30 3094 H 289.843 -3.69016 2.28057 0
M  V30 3095 H 290.514 -5.23532 1.74981 0
M  V30 3096 H 292.99 -4.15822 0.152089 0
M  V30 3097 H 291.866 -5.48358 -0.243855 0
M  V30 3098 H 292.127 -4.19176 -1.40513 0
M  V30 3099 N 291.186 -0.45159 -1.50991 0
M  V30 3100 C 292.432 0.110237 -2.025 0
M  V30 3101 C 292.765 1.41109 -1.33424 0
M  V30 3102 O 292.04 1.89135 -0.453659 0
M  V30 3103 C 292.323 0.314271 -3.58726 0
M  V30 3104 C 292.176 -1.00623 -4.38401 0
M  V30 3105 C 293.495 1.07767 -4.26702 0
M  V30 3106 H 290.614 0.0385897 -0.735989 0
M  V30 3107 H 293.256 -0.593374 -1.80497 0
M  V30 3108 H 291.406 0.913601 -3.77605 0
M  V30 3109 H 293.078 -1.64064 -4.31139 0
M  V30 3110 H 291.321 -1.6075 -4.02917 0
M  V30 3111 H 291.992 -0.817341 -5.45915 0
M  V30 3112 H 294.468 0.56986 -4.12179 0
M  V30 3113 H 293.344 1.18921 -5.35863 0
M  V30 3114 H 293.605 2.10939 -3.88532 0
M  V30 3115 N 292.664 1.56529 -0.183458 0
M  V30 3116 C 293.574 2.22144 0.754272 0
M  V30 3117 C 294.59 1.21684 1.24374 0
M  V30 3118 O 295.766 1.54385 1.29333 0
M  V30 3119 C 292.831 2.85884 1.96141 0
M  V30 3120 C 291.892 4.01579 1.51765 0
M  V30 3121 C 291.125 4.6227 2.66725 0
M  V30 3122 O 291.348 4.21865 3.83909 0
M  V30 3123 O 290.282 5.51936 2.40104 0
M  V30 3124 H 294.108 3.02861 0.225527 0
M  V30 3125 H 291.693 1.49331 0.0453032 0
M  V30 3126 H 293.575 3.26253 2.66715 0
M  V30 3127 H 292.25 2.08154 2.47899 0
M  V30 3128 H 291.157 3.65856 0.781049 0
M  V30 3129 H 292.49 4.80938 1.04686 0
M  V30 3130 N 294.142 -0.090211 1.57342 0
M  V30 3131 C 295.072 -1.10976 2.05443 0
M  V30 3132 C 296.053 -1.41482 0.944284 0
M  V30 3133 O 297.238 -1.51428 1.21586 0
M  V30 3134 C 294.368 -2.42831 2.48295 0
M  V30 3135 C 293.322 -2.26721 3.63018 0
M  V30 3136 C 292.648 -3.63796 3.91863 0
M  V30 3137 C 293.948 -1.7037 4.93732 0
M  V30 3138 H 295.642 -0.709564 2.9087 0
M  V30 3139 H 293.188 -0.339874 1.39932 0
M  V30 3140 H 295.141 -3.14431 2.80555 0
M  V30 3141 H 293.865 -2.84795 1.59873 0
M  V30 3142 H 292.524 -1.57565 3.31012 0
M  V30 3143 H 292.172 -4.03297 3.00601 0
M  V30 3144 H 291.872 -3.53861 4.69101 0
M  V30 3145 H 293.396 -4.36855 4.26603 0
M  V30 3146 H 294.81 -2.31816 5.24342 0
M  V30 3147 H 293.207 -1.71181 5.75167 0
M  V30 3148 H 294.277 -0.663542 4.80339 0
M  V30 3149 N 295.62 -1.53406 -0.361157 0
M  V30 3150 C 296.57 -1.76536 -1.44287 0
M  V30 3151 C 297.554 -0.620019 -1.48474 0
M  V30 3152 O 298.746 -0.878834 -1.53641 0
M  V30 3153 C 295.875 -1.96266 -2.81664 0
M  V30 3154 C 294.961 -3.16815 -2.81938 0
M  V30 3155 N 295.352 -4.38637 -2.51855 0
M  V30 3156 C 293.65 -3.17627 -3.13096 0
M  V30 3157 C 294.351 -5.20401 -2.59919 0
M  V30 3158 N 293.327 -4.56712 -2.94814 0
M  V30 3159 H 297.129 -2.68331 -1.19899 0
M  V30 3160 H 294.643 -1.52091 -0.56938 0
M  V30 3161 H 296.64 -2.10966 -3.59582 0
M  V30 3162 H 295.3 -1.05702 -3.07013 0
M  V30 3163 H 296.311 -4.66293 -2.25369 0
M  V30 3164 H 292.988 -2.36971 -3.43731 0
M  V30 3165 H 294.378 -6.27586 -2.39969 0
M  V30 3166 N 297.098 0.621204 -1.44841 0
M  V30 3167 C 298.514 0.94048 -1.28946 0
M  V30 3168 C 298.714 2.00154 -0.23249 0
M  V30 3169 O 297.77 2.49651 0.378237 0
M  V30 3170 C 299.083 1.39433 -2.66419 0
M  V30 3171 C 300.631 1.50927 -2.74208 0
M  V30 3172 C 301.106 1.99692 -4.12174 0
M  V30 3173 N 302.597 2.06947 -4.144 0
M  V30 3174 C 303.332 2.45871 -5.1801 0
M  V30 3175 N 302.828 2.83862 -6.31977 0
M  V30 3176 N 304.621 2.46092 -5.05366 0
M  V30 3177 H 296.772 -0.0803548 -2.12248 0
M  V30 3178 H 299.035 0.0266913 -0.947624 0
M  V30 3179 H 298.741 0.688925 -3.44887 0
M  V30 3180 H 298.615 2.36347 -2.93973 0
M  V30 3181 H 301.002 2.20561 -1.96053 0
M  V30 3182 H 301.083 0.523627 -2.50383 0
M  V30 3183 H 300.727 1.30649 -4.90809 0
M  V30 3184 H 300.657 2.99146 -4.33381 0
M  V30 3185 H 303.148 1.80232 -3.32152 0
M  V30 3186 H 303.461 3.12405 -7.0684 0
M  V30 3187 H 301.806 2.8159 -6.35399 0
M  V30 3188 H 304.997 2.1581 -4.15384 0
M  V30 3189 H 305.17 2.76102 -5.86235 0
M  V30 3190 N 298.576 1.31904 0.862503 0
M  V30 3191 C 299.486 1.22161 2.00285 0
M  V30 3192 C 300.502 0.136785 1.73462 0
M  V30 3193 O 301.678 0.355994 1.98229 0
M  V30 3194 C 298.743 0.937093 3.33796 0
M  V30 3195 C 297.804 2.10957 3.73893 0
M  V30 3196 C 297.037 1.83853 5.01033 0
M  V30 3197 O 297.26 0.777274 5.65079 0
M  V30 3198 O 296.194 2.69741 5.38074 0
M  V30 3199 H 300.02 2.18008 2.11439 0
M  V30 3200 H 297.605 1.11716 0.991957 0
M  V30 3201 H 299.487 0.794583 4.13841 0
M  V30 3202 H 298.162 0.00871894 3.23699 0
M  V30 3203 H 297.069 2.30752 2.94456 0
M  V30 3204 H 298.402 3.02046 3.88625 0
M  V30 3205 N 300.054 -1.07777 1.14986 0
M  V30 3206 C 301.47 -1.32373 0.891596 0
M  V30 3207 C 301.67 -1.9609 -0.463788 0
M  V30 3208 O 300.726 -2.21801 -1.20667 0
M  V30 3209 C 302.039 -2.21905 2.02925 0
M  V30 3210 C 303.587 -2.35367 2.06329 0
M  V30 3211 C 304.062 -3.28245 3.19405 0
M  V30 3212 N 305.553 -3.35824 3.19024 0
M  V30 3213 C 306.288 -4.07739 4.03158 0
M  V30 3214 N 305.784 -4.82306 4.97346 0
M  V30 3215 N 307.577 -4.03635 3.91197 0
M  V30 3216 H 299.728 -0.648039 2.02273 0
M  V30 3217 H 301.991 -0.348149 0.881757 0
M  V30 3218 H 301.697 -1.82342 3.0074 0
M  V30 3219 H 301.571 -3.22407 1.95789 0
M  V30 3220 H 303.958 -2.74186 1.09116 0
M  V30 3221 H 304.039 -1.34585 2.17533 0
M  V30 3222 H 303.683 -2.90146 4.16867 0
M  V30 3223 H 303.613 -4.28971 3.05437 0
M  V30 3224 H 306.104 -2.8267 2.50811 0
M  V30 3225 H 306.417 -5.34661 5.57994 0
M  V30 3226 H 304.762 -4.81337 5.01338 0
M  V30 3227 H 307.953 -3.44491 3.16928 0
M  V30 3228 H 308.126 -4.59417 4.5699 0
M  V30 3229 N 301.532 -0.945985 -1.26051 0
M  V30 3230 C 302.781 -0.591836 -1.92822 0
M  V30 3231 C 303.094 0.873956 -1.7499 0
M  V30 3232 O 304.3 1.33769 -2.36259 0
M  V30 3233 C 302.756 -1.00776 -3.45503 0
M  V30 3234 C 302.364 -2.4955 -3.7206 0
M  V30 3235 C 304.108 -0.725735 -4.1825 0
M  V30 3236 C 302.015 -2.84988 -5.18205 0
M  V30 3237 H 300.945 -0.217635 -0.721908 0
M  V30 3238 H 303.596 -1.14927 -1.43052 0
M  V30 3239 H 301.978 -0.378812 -3.94184 0
M  V30 3240 H 303.152 -3.1739 -3.34066 0
M  V30 3241 H 301.467 -2.75133 -3.12555 0
M  V30 3242 H 304.064 -0.966771 -5.25887 0
M  V30 3243 H 304.407 0.337639 -4.14929 0
M  V30 3244 H 304.94 -1.31463 -3.7545 0
M  V30 3245 H 301.679 -3.90307 -5.26631 0
M  V30 3246 H 301.199 -2.21813 -5.57278 0
M  V30 3247 H 302.878 -2.73712 -5.86252 0
M  V30 3248 N 303.011 1.40521 -0.713556 0
M  V30 3249 C 304.259 2.00527 -0.251692 0
M  V30 3250 C 304.58 1.56857 1.15848 0
M  V30 3251 O 303.85 0.807127 1.785 0
M  V30 3252 H 302.43 0.741551 -0.0900646 0
M  V30 3253 H 305.092 1.71887 -0.918733 0
M  V30 3254 H 304.188 3.10813 -0.283192 0
M  V30 3255 N 304.489 0.459591 1.5075 0
M  V30 3256 C 305.737 -0.0991532 2.01857 0
M  V30 3257 C 306.058 -1.41247 1.34441 0
M  V30 3258 O 305.328 -1.89775 0.486022 0
M  V30 3259 H 303.908 -0.039633 0.745948 0
M  V30 3260 H 306.57 0.607387 1.85194 0
M  V30 3261 H 305.666 -0.258998 3.11023 0
M  V30 3262 N 305.967 -1.56429 0.191757 0
M  V30 3263 C 307.216 -1.9666 -0.448088 0
M  V30 3264 C 307.529 -1.08136 -1.62991 0
M  V30 3265 O 308.735 -1.38135 -2.33733 0
M  V30 3266 C 307.191 -3.49753 -0.848585 0
M  V30 3267 C 306.799 -4.46935 0.308764 0
M  V30 3268 C 308.543 -3.9876 -1.4557 0
M  V30 3269 C 306.45 -5.91293 -0.112506 0
M  V30 3270 H 305.38 -0.734312 -0.171179 0
M  V30 3271 H 308.031 -1.81301 0.283242 0
M  V30 3272 H 306.413 -3.60604 -1.63649 0
M  V30 3273 H 307.587 -4.47813 1.08627 0
M  V30 3274 H 305.902 -4.08102 0.827158 0
M  V30 3275 H 308.499 -5.04086 -1.78328 0
M  V30 3276 H 308.842 -3.42875 -2.36099 0
M  V30 3277 H 309.375 -3.9101 -0.731836 0
M  V30 3278 H 306.114 -6.51097 0.758514 0
M  V30 3279 H 305.634 -5.93676 -0.854941 0
M  V30 3280 H 307.313 -6.44663 -0.549448 0
M  V30 3281 N 307.445 0.0818655 -1.57387 0
M  V30 3282 C 308.673 0.796108 -1.9097 0
M  V30 3283 C 309.088 1.71626 -0.786757 0
M  V30 3284 O 308.445 1.80908 0.240513 0
M  V30 3285 C 308.496 1.59829 -3.24248 0
M  V30 3286 O 308.217 0.715131 -4.32224 0
M  V30 3287 C 309.718 2.41442 -3.7178 0
M  V30 3288 H 306.938 0.22691 -0.631469 0
M  V30 3289 H 309.482 0.0551439 -2.04426 0
M  V30 3290 H 307.637 2.29163 -3.12351 0
M  V30 3291 H 308.051 1.27205 -5.08841 0
M  V30 3292 H 309.525 2.932 -4.67694 0
M  V30 3293 H 310.002 3.2051 -3.00283 0
M  V30 3294 H 310.608 1.77283 -3.86589 0
M  V30 3295 N 308.923 1.53595 0.353017 0
M  V30 3296 C 309.853 1.83902 1.43883 0
M  V30 3297 C 310.834 0.693421 1.55324 0
M  V30 3298 O 312.019 0.944452 1.69687 0
M  V30 3299 C 309.149 2.04016 2.8106 0
M  V30 3300 C 308.103 3.19814 2.84434 0
M  V30 3301 C 307.429 3.25244 4.24406 0
M  V30 3302 C 308.729 4.58133 2.50822 0
M  V30 3303 H 310.423 2.74835 1.1877 0
M  V30 3304 H 307.969 1.32242 0.569917 0
M  V30 3305 H 309.922 2.238 3.57059 0
M  V30 3306 H 308.646 1.09804 3.07588 0
M  V30 3307 H 307.305 2.9987 2.10887 0
M  V30 3308 H 306.953 2.28646 4.48029 0
M  V30 3309 H 306.653 4.03054 4.27576 0
M  V30 3310 H 308.177 3.47228 5.0226 0
M  V30 3311 H 309.591 4.77995 3.16534 0
M  V30 3312 H 307.988 5.38276 2.6529 0
M  V30 3313 H 309.058 4.62387 1.46034 0
M  V30 3314 N 310.401 -0.613514 1.45168 0
M  V30 3315 C 311.678 -1.37263 1.39349 0
M  V30 3316 C 312.058 -2.11012 0.0610848 0
M  V30 3317 O 311.406 -2.07502 -0.956825 0
M  V30 3318 C 311.616 -2.3244 2.60332 0
M  V30 3319 C 312.964 -2.9523 3.05163 0
M  V30 3320 O 313.988 -2.42762 2.60663 0
M  V30 3321 O 312.847 -3.90454 3.82372 0
M  V30 3322 H 309.941 -0.615188 0.552696 0
M  V30 3323 H 312.487 -0.637097 1.57287 0
M  V30 3324 H 311.259 -1.77164 3.48896 0
M  V30 3325 H 310.882 -3.13383 2.44698 0
M  V30 3326 N 311.879 -1.3236 -0.855495 0
M  V30 3327 C 312.842 -1.21164 -1.94556 0
M  V30 3328 C 313.842 -0.134908 -1.60233 0
M  V30 3329 O 315.032 -0.385249 -1.69887 0
M  V30 3330 C 312.164 -0.863192 -3.29791 0
M  V30 3331 H 313.357 -2.18038 -2.05911 0
M  V30 3332 H 310.91 -1.16179 -1.04557 0
M  V30 3333 H 311.645 0.103769 -3.24134 0
M  V30 3334 H 311.43 -1.64166 -3.56078 0
M  V30 3335 H 312.92 -0.809156 -4.09686 0
M  V30 3336 N 313.357 1.07166 -1.15556 0
M  V30 3337 C 314.634 1.76546 -0.842069 0
M  V30 3338 C 315.014 2.00453 0.661939 0
M  V30 3339 O 314.362 1.62452 1.60691 0
M  V30 3340 C 314.572 3.07266 -1.65495 0
M  V30 3341 C 315.92 3.81578 -1.86234 0
M  V30 3342 O 316.944 3.17083 -1.62287 0
M  V30 3343 O 315.803 4.97419 -2.26355 0
M  V30 3344 H 312.897 0.766756 -0.309862 0
M  V30 3345 H 315.443 1.13514 -1.26145 0
M  V30 3346 H 314.215 2.85494 -2.67598 0
M  V30 3347 H 313.838 3.7803 -1.23203 0
M  V30 3348 N 314.835 0.952656 1.25548 0
M  V30 3349 C 315.765 0.489287 2.28316 0
M  V30 3350 C 316.746 -0.463359 1.63667 0
M  V30 3351 O 317.931 -0.36274 1.90782 0
M  V30 3352 C 315.061 -0.235603 3.465 0
M  V30 3353 C 314.015 0.631593 4.23314 0
M  V30 3354 C 313.341 -0.223923 5.34231 0
M  V30 3355 C 314.641 1.90871 4.86174 0
M  V30 3356 H 316.335 1.34822 2.67326 0
M  V30 3357 H 313.881 0.649728 1.28509 0
M  V30 3358 H 315.834 -0.570882 4.17515 0
M  V30 3359 H 314.558 -1.12877 3.06474 0
M  V30 3360 H 313.217 0.949929 3.54079 0
M  V30 3361 H 312.865 -1.11678 4.90446 0
M  V30 3362 H 312.565 0.35299 5.86539 0
M  V30 3363 H 314.089 -0.554214 6.0808 0
M  V30 3364 H 315.503 1.63997 5.49343 0
M  V30 3365 H 313.9 2.43112 5.4865 0
M  V30 3366 H 314.97 2.61304 4.08471 0
M  V30 3367 N 316.313 -1.40141 0.720998 0
M  V30 3368 C 317.276 -2.29058 0.0805834 0
M  V30 3369 C 318.276 -1.45632 -0.681758 0
M  V30 3370 O 319.466 -1.6648 -0.512856 0
M  V30 3371 C 316.598 -3.28925 -0.895593 0
M  V30 3372 H 317.791 -2.87191 0.863793 0
M  V30 3373 H 315.344 -1.48553 0.485975 0
M  V30 3374 H 316.079 -2.75822 -1.70566 0
M  V30 3375 H 315.864 -3.90519 -0.351766 0
M  V30 3376 H 317.354 -3.95494 -1.34069 0
M  V30 3377 N 317.792 -0.46758 -1.50504 0
M  V30 3378 C 319.203 -0.0116166 -1.86696 0
M  V30 3379 C 319.554 1.39202 -1.38265 0
M  V30 3380 O 318.679 2.0313 -0.746132 0
M  V30 3381 C 319.274 -0.0143044 -3.38797 0
M  V30 3382 C 317.833 0.386175 -3.74414 0
M  V30 3383 C 316.98 -0.401287 -2.74381 0
M  V30 3384 H 319.931 -0.682022 -1.43297 0
M  V30 3385 H 319.952 0.788641 -3.72237 0
M  V30 3386 H 319.464 -1.03602 -3.74016 0
M  V30 3387 H 317.565 1.41237 -3.44794 0
M  V30 3388 H 317.678 0.0899596 -4.79016 0
M  V30 3389 H 316.042 0.144536 -2.5429 0
M  V30 3390 H 316.825 -1.42244 -3.12444 0
M  V30 3391 N 319.27 1.56325 -0.20005 0
M  V30 3392 C 320.518 1.97329 0.436547 0
M  V30 3393 C 320.839 1.08826 1.61808 0
M  V30 3394 O 320.109 0.160604 1.95241 0
M  V30 3395 H 318.689 0.728714 0.164272 0
M  V30 3396 H 321.351 1.92761 -0.287937 0
M  V30 3397 H 320.447 3.02264 0.777353 0
M  V30 3398 N 320.748 -0.0735177 1.57428 0
M  V30 3399 C 321.658 -1.10547 2.06922 0
M  V30 3400 C 322.674 -1.42506 0.998402 0
M  V30 3401 O 323.85 -1.52717 1.31299 0
M  V30 3402 C 320.915 -2.40019 2.50184 0
M  V30 3403 C 319.976 -2.15046 3.71556 0
M  V30 3404 C 319.209 -3.38345 4.12745 0
M  V30 3405 O 319.432 -4.47399 3.53822 0
M  V30 3406 O 318.366 -3.2666 5.05546 0
M  V30 3407 H 322.192 -0.715013 2.95163 0
M  V30 3408 H 319.777 -0.287531 1.46607 0
M  V30 3409 H 321.659 -3.16218 2.78539 0
M  V30 3410 H 320.334 -2.78447 1.65072 0
M  V30 3411 H 319.241 -1.36558 3.48285 0
M  V30 3412 H 320.574 -1.81499 4.57514 0
M  V30 3413 N 322.226 -1.5378 -0.344866 0
M  V30 3414 C 323.456 -1.74646 -1.10374 0
M  V30 3415 C 323.864 -0.48491 -1.8288 0
M  V30 3416 O 323.207 0.553062 -1.75177 0
M  V30 3417 C 323.269 -2.87145 -2.16306 0
M  V30 3418 C 322.933 -4.26795 -1.63386 0
M  V30 3419 C 323.93 -5.08412 -1.08688 0
M  V30 3420 C 321.615 -4.73276 -1.68272 0
M  V30 3421 C 323.609 -6.34609 -0.595792 0
M  V30 3422 C 321.296 -5.99446 -1.18776 0
M  V30 3423 C 322.294 -6.79946 -0.645215 0
M  V30 3424 O 321.982 -8.03745 -0.157626 0
M  V30 3425 H 321.714 -0.587112 -0.335075 0
M  V30 3426 H 324.268 -2.01403 -0.403252 0
M  V30 3427 H 322.498 -2.55909 -2.89909 0
M  V30 3428 H 324.187 -2.95992 -2.77747 0
M  V30 3429 H 324.953 -4.73666 -1.04236 0
M  V30 3430 H 320.832 -4.10677 -2.09442 0
M  V30 3431 H 324.376 -6.97389 -0.171654 0
M  V30 3432 H 320.273 -6.33687 -1.22928 0
M  V30 3433 H 321.041 -8.18038 -0.275037 0
M  V30 3434 N 323.704 0.605807 -1.45491 0
M  V30 3435 C 325.12 0.926751 -1.29936 0
M  V30 3436 C 325.32 1.99896 -0.253706 0
M  V30 3437 O 324.376 2.50038 0.351737 0
M  V30 3438 C 325.689 1.36599 -2.67883 0
M  V30 3439 C 327.237 1.4801 -2.75793 0
M  V30 3440 C 327.712 1.95309 -4.14268 0
M  V30 3441 N 329.203 2.0254 -4.16571 0
M  V30 3442 C 329.938 2.40363 -5.20589 0
M  V30 3443 N 329.434 2.77143 -6.34952 0
M  V30 3444 N 331.227 2.40718 -5.07948 0
M  V30 3445 H 323.378 -0.102862 -2.12151 0
M  V30 3446 H 325.641 0.016639 -0.947854 0
M  V30 3447 H 325.347 0.652306 -3.45598 0
M  V30 3448 H 325.221 2.33215 -2.96463 0
M  V30 3449 H 327.608 2.1847 -1.98381 0
M  V30 3450 H 327.689 0.497041 -2.50925 0
M  V30 3451 H 327.333 1.25436 -4.92167 0
M  V30 3452 H 327.263 2.94532 -4.3653 0
M  V30 3453 H 329.754 1.76699 -3.34045 0
M  V30 3454 H 330.067 3.0489 -7.10114 0
M  V30 3455 H 328.412 2.74834 -6.3835 0
M  V30 3456 H 331.603 2.11392 -4.1765 0
M  V30 3457 H 331.776 2.69869 -5.89131 0
M  V30 3458 N 325.182 1.32811 0.848464 0
M  V30 3459 C 326.593 1.21315 1.41914 0
M  V30 3460 C 326.944 -0.171847 1.95446 0
M  V30 3461 O 326.069 -1.07093 1.88043 0
M  V30 3462 C 326.664 2.19631 2.57968 0
M  V30 3463 C 325.223 2.12003 3.11017 0
M  V30 3464 C 324.37 2.07651 1.83783 0
M  V30 3465 H 327.321 1.44549 0.655071 0
M  V30 3466 H 327.342 1.79845 3.35315 0
M  V30 3467 H 326.854 3.20423 2.18976 0
M  V30 3468 H 324.955 1.14481 3.54577 0
M  V30 3469 H 325.068 3.02111 3.71841 0
M  V30 3470 H 323.432 1.52983 2.03638 0
M  V30 3471 H 324.215 3.10235 1.47 0
M  V30 3472 N 326.66 -1.06551 1.16123 0
M  V30 3473 C 327.59 -2.15935 0.88851 0
M  V30 3474 C 328.571 -1.69306 -0.164135 0
M  V30 3475 O 329.756 -1.94193 -0.0167857 0
M  V30 3476 C 326.886 -3.45149 0.385942 0
M  V30 3477 C 325.84 -4.05271 1.3762 0
M  V30 3478 C 325.166 -5.29664 0.732137 0
M  V30 3479 C 326.466 -4.44355 2.74493 0
M  V30 3480 H 328.16 -2.39006 1.80323 0
M  V30 3481 H 325.706 -1.14866 0.868435 0
M  V30 3482 H 327.659 -4.21004 0.182647 0
M  V30 3483 H 326.383 -3.21689 -0.564274 0
M  V30 3484 H 325.042 -3.3147 1.56599 0
M  V30 3485 H 324.69 -5.02499 -0.224483 0
M  V30 3486 H 324.39 -5.70848 1.39307 0
M  V30 3487 H 325.914 -6.08218 0.538802 0
M  V30 3488 H 327.328 -5.11303 2.59311 0
M  V30 3489 H 325.725 -4.96515 3.37035 0
M  V30 3490 H 326.795 -3.55339 3.29943 0
M  V30 3491 N 328.138 -0.959301 -1.25041 0
M  V30 3492 C 329.366 -0.633949 -1.96948 0
M  V30 3493 C 329.781 0.794916 -1.7125 0
M  V30 3494 O 329.138 1.53231 -0.991287 0
M  V30 3495 C 329.189 -0.888805 -3.50403 0
M  V30 3496 O 328.91 -2.26149 -3.75218 0
M  V30 3497 C 330.411 -0.576482 -4.39536 0
M  V30 3498 H 327.631 -0.237263 -0.627652 0
M  V30 3499 H 330.175 -1.28495 -1.59089 0
M  V30 3500 H 328.33 -0.284145 -3.86357 0
M  V30 3501 H 328.744 -2.33514 -4.6965 0
M  V30 3502 H 330.218 -0.805314 -5.46094 0
M  V30 3503 H 330.695 0.489075 -4.36468 0
M  V30 3504 H 331.301 -1.16067 -4.09156 0
M  V30 3505 N 329.616 1.39756 -0.72842 0
M  V30 3506 C 330.526 2.34444 -0.0855374 0
M  V30 3507 C 331.542 1.57976 0.729356 0
M  V30 3508 O 332.718 1.90301 0.659346 0
M  V30 3509 C 329.783 3.36965 0.815798 0
M  V30 3510 C 328.844 4.29299 -0.0105996 0
M  V30 3511 C 328.077 5.26923 0.84781 0
M  V30 3512 O 328.3 5.30859 2.08673 0
M  V30 3513 O 327.234 6.01249 0.279969 0
M  V30 3514 H 331.06 2.91065 -0.866892 0
M  V30 3515 H 328.645 1.4117 -0.48902 0
M  V30 3516 H 330.527 3.99804 1.33171 0
M  V30 3517 H 329.202 2.82739 1.57608 0
M  V30 3518 H 328.109 3.69703 -0.571877 0
M  V30 3519 H 329.442 4.86712 -0.73295 0
M  V30 3520 N 331.094 0.475555 1.50254 0
M  V30 3521 C 332.004 -0.321501 2.32387 0
M  V30 3522 C 333.02 -0.991755 1.42969 0
M  V30 3523 O 334.196 -0.978747 1.76018 0
M  V30 3524 C 331.261 -1.38667 3.17762 0
M  V30 3525 C 330.322 -0.732538 4.23004 0
M  V30 3526 C 329.555 -1.74695 5.04299 0
M  V30 3527 O 329.778 -2.97399 4.86734 0
M  V30 3528 O 328.712 -1.31631 5.8733 0
M  V30 3529 H 332.538 0.350071 3.01676 0
M  V30 3530 H 330.123 0.237321 1.47503 0
M  V30 3531 H 332.005 -2.00354 3.70724 0
M  V30 3532 H 330.68 -2.04163 2.51196 0
M  V30 3533 H 329.587 -0.0765902 3.74022 0
M  V30 3534 H 330.92 -0.120452 4.92053 0
M  V30 3535 N 332.573 -1.56217 0.208337 0
M  V30 3536 C 333.483 -2.23316 -0.718836 0
M  V30 3537 C 334.499 -1.23648 -1.22422 0
M  V30 3538 O 335.675 -1.56423 -1.26861 0
M  V30 3539 C 332.74 -2.88968 -1.91568 0
M  V30 3540 C 331.801 -4.03943 -1.45357 0
M  V30 3541 C 331.034 -4.66455 -2.59337 0
M  V30 3542 O 331.257 -4.27919 -3.77149 0
M  V30 3543 O 330.191 -5.55686 -2.31293 0
M  V30 3544 H 334.017 -3.03182 -0.177315 0
M  V30 3545 H 331.602 -1.49384 -0.0215402 0
M  V30 3546 H 333.484 -3.30455 -2.61491 0
M  V30 3547 H 332.159 -2.12071 -2.44556 0
M  V30 3548 H 331.066 -3.67052 -0.722746 0
M  V30 3549 H 332.399 -4.82543 -0.970219 0
M  V30 3550 N 334.051 0.0651679 -1.57465 0
M  V30 3551 C 335.3 0.761916 -1.86756 0
M  V30 3552 C 335.613 1.78406 -0.801925 0
M  V30 3553 O 336.819 2.53084 -0.982885 0
M  V30 3554 C 335.275 1.40603 -3.31299 0
M  V30 3555 C 334.883 0.422115 -4.46007 0
M  V30 3556 C 336.627 2.08476 -3.69781 0
M  V30 3557 C 334.534 1.07252 -5.81593 0
M  V30 3558 H 333.464 0.288308 -0.696702 0
M  V30 3559 H 336.115 0.015344 -1.83494 0
M  V30 3560 H 334.497 2.20109 -3.29193 0
M  V30 3561 H 335.671 -0.343613 -4.59517 0
M  V30 3562 H 333.986 -0.152527 -4.16121 0
M  V30 3563 H 336.583 2.57925 -4.68379 0
M  V30 3564 H 336.926 2.88712 -2.99919 0
M  V30 3565 H 337.459 1.35792 -3.73905 0
M  V30 3566 H 334.198 0.310342 -6.54765 0
M  V30 3567 H 333.718 1.80895 -5.71872 0
M  V30 3568 H 335.397 1.59043 -6.27148 0
M  V30 3569 N 335.529 1.53961 0.336706 0
M  V30 3570 C 336.492 1.81724 1.39675 0
M  V30 3571 C 337.492 0.688532 1.45313 0
M  V30 3572 O 338.682 0.956829 1.45569 0
M  V30 3573 C 335.814 1.96543 2.78538 0
M  V30 3574 H 337.007 2.76424 1.16318 0
M  V30 3575 H 334.56 1.45478 0.571474 0
M  V30 3576 H 335.295 1.0401 3.07168 0
M  V30 3577 H 335.08 2.78665 2.75841 0
M  V30 3578 H 336.57 2.19516 3.5525 0
M  V30 3579 N 337.007 -0.598083 1.45811 0
M  V30 3580 C 338.232 -1.3881 1.54099 0
M  V30 3581 C 338.657 -1.8726 0.177578 0
M  V30 3582 O 338.015 -1.6069 -0.839541 0
M  V30 3583 C 338.063 -2.56217 2.53743 0
M  V30 3584 O 337.167 -3.5716 2.06182 0
M  V30 3585 H 336.508 -0.414024 0.519115 0
M  V30 3586 H 339.038 -0.726971 1.91249 0
M  V30 3587 H 339.048 -3.03337 2.72856 0
M  V30 3588 H 337.723 -2.20303 3.5276 0
M  V30 3589 H 336.3 -3.16624 1.96987 0
M  V30 3590 N 338.485 -1.33259 -0.841409 0
M  V30 3591 C 339.731 -1.24757 -1.59886 0
M  V30 3592 C 340.064 0.186913 -1.93298 0
M  V30 3593 O 339.339 1.12757 -1.5848 0
M  V30 3594 C 339.622 -2.12036 -2.91055 0
M  V30 3595 C 339.475 -3.63929 -2.6434 0
M  V30 3596 C 340.794 -1.9916 -3.92458 0
M  V30 3597 H 337.913 -0.454542 -0.580138 0
M  V30 3598 H 340.555 -1.63335 -0.970647 0
M  V30 3599 H 338.705 -1.79265 -3.44669 0
M  V30 3600 H 340.377 -4.06978 -2.17178 0
M  V30 3601 H 338.62 -3.85935 -1.98082 0
M  V30 3602 H 339.291 -4.20341 -3.57796 0
M  V30 3603 H 341.767 -2.27895 -3.48143 0
M  V30 3604 H 340.643 -2.62484 -4.82072 0
M  V30 3605 H 340.904 -0.963082 -4.31482 0
M  V30 3606 N 339.963 1.05934 -1.16686 0
M  V30 3607 C 341.209 1.79065 -0.95203 0
M  V30 3608 C 341.542 1.87147 0.518629 0
M  V30 3609 O 340.817 1.36574 1.38484 0
M  V30 3610 C 341.1 3.23359 -1.58464 0
M  V30 3611 C 340.953 3.23336 -3.12689 0
M  V30 3612 C 342.272 4.21004 -1.28232 0
M  V30 3613 H 339.391 0.65005 -0.34728 0
M  V30 3614 H 342.033 1.23868 -1.44072 0
M  V30 3615 H 340.183 3.70493 -1.16908 0
M  V30 3616 H 341.855 2.84336 -3.6325 0
M  V30 3617 H 340.098 2.61886 -3.4583 0
M  V30 3618 H 340.769 4.25144 -3.52075 0
M  V30 3619 H 343.245 3.8233 -1.64203 0
M  V30 3620 H 342.121 5.20225 -1.75092 0
M  V30 3621 H 342.382 4.41639 -0.201791 0
M  V30 3622 O 341.48 1.09547 1.18667 0
M  V30 3623 H 342.171 0.792406 1.7675 0
M  V30 END ATOM
M  V30 BEGIN BOND
M  V30 END BOND
M  V30 END CTAB
M  END
$$$$
