drugbank_target|P0AAJ3 Formate dehydrogenase, nitrate-inducible, iron-sulfur subunit (DB07918)
 OpenBabel12092120473D

  0  0  0     0  0            999 V3000
M  V30 BEGIN CTAB
M  V30 COUNTS 4445 4495 0 0 0
M  V30 BEGIN ATOM
M  V30 1 H -0.908 1.98254 -0.117106 0
M  V30 2 N 0 1.576 0 0
M  V30 3 C 0.933 2.03868 1.02534 0
M  V30 4 C 1.911 0.928543 1.3348 0
M  V30 5 O 3.095 1.19667 1.45644 0
M  V30 6 C 0.222 2.43627 2.35294 0
M  V30 7 C -0.732 3.65373 2.2001 0
M  V30 8 S 0.101 5.13292 1.52614 0
M  V30 9 C 1.257 5.56322 2.86805 0
M  V30 10 H 1.49 2.90518 0.631377 0
M  V30 11 H -0.977 1.52953 0.210867 0
M  V30 12 H 0.981 2.67203 3.11629 0
M  V30 13 H -0.358 1.57376 2.7183 0
M  V30 14 H -1.165 3.90944 3.18086 0
M  V30 15 H -1.563 3.418 1.51819 0
M  V30 16 H 0.729 5.58782 3.83104 0
M  V30 17 H 1.672 6.56266 2.65933 0
M  V30 18 H 2.08 4.83886 2.90714 0
M  V30 19 N 1.4781 -0.272755 1.55222 0
M  V30 20 C 2.4411 -1.32041 1.87344 0
M  V30 21 C 3.4411 -1.42342 0.74803 0
M  V30 22 O 4.6311 -1.41488 1.0162 0
M  V30 23 C 1.7631 -2.70173 2.07893 0
M  V30 24 H 2.9561 -1.04789 2.80997 0
M  V30 25 H 0.5091 -0.51083 1.47717 0
M  V30 26 H 1.2441 -3.02605 1.16622 0
M  V30 27 H 1.0291 -2.64082 2.89833 0
M  V30 28 H 2.5191 -3.45869 2.34017 0
M  V30 29 N 2.9562 -1.48159 -0.537278 0
M  V30 30 C 3.8892 -1.567 -1.65893 0
M  V30 31 C 4.8672 -0.41787 -1.57139 0
M  V30 32 O 6.0512 -0.628461 -1.77715 0
M  V30 33 C 3.1782 -1.48818 -3.04255 0
M  V30 34 C 2.2242 -2.68482 -3.31391 0
M  V30 35 S 3.0572 -4.30516 -3.1846 0
M  V30 36 C 4.2132 -4.2522 -4.59281 0
M  V30 37 H 4.4462 -2.5159 -1.58397 0
M  V30 38 H 1.9792 -1.36602 -0.719672 0
M  V30 39 H 3.9372 -1.44958 -3.84054 0
M  V30 40 H 2.5982 -0.552777 -3.09198 0
M  V30 41 H 1.7912 -2.59085 -4.32309 0
M  V30 42 H 1.3932 -2.69567 -2.59248 0
M  V30 43 H 3.6852 -3.94703 -5.5065 0
M  V30 44 H 4.6282 -5.26292 -4.73732 0
M  V30 45 H 5.0362 -3.55791 -4.38261 0
M  V30 46 N 4.4343 0.785586 -1.36625 0
M  V30 47 C 5.3443 1.92964 -1.33425 0
M  V30 48 C 6.3603 1.72394 -0.235851 0
M  V30 49 O 7.5363 1.95866 -0.468878 0
M  V30 50 C 4.6013 3.27884 -1.12662 0
M  V30 51 C 3.6623 3.61204 -2.32013 0
M  V30 52 C 2.8953 4.89687 -2.12231 0
M  V30 53 O 3.1183 5.59704 -1.09945 0
M  V30 54 O 2.0523 5.21752 -3.00098 0
M  V30 55 H 5.8783 1.98613 -2.29753 0
M  V30 56 H 3.4633 0.926384 -1.17211 0
M  V30 57 H 5.3453 4.08614 -1.03016 0
M  V30 58 H 4.0203 3.23118 -0.193991 0
M  V30 59 H 2.9273 2.80765 -2.47228 0
M  V30 60 H 4.2603 3.70698 -3.23796 0
M  V30 61 N 5.9124 1.20967 1.01018 0
M  V30 62 C 7.1404 1.04956 1.78303 0
M  V30 63 C 7.5554 -0.400915 1.84494 0
M  V30 64 O 6.9124 -1.27826 1.30257 0
M  V30 65 C 6.9634 1.63403 3.22462 0
M  V30 66 O 6.6844 3.02775 3.16637 0
M  V30 67 C 8.1854 1.52432 4.16268 0
M  V30 68 H 5.4054 0.368858 0.560522 0
M  V30 69 H 7.9494 1.60193 1.27116 0
M  V30 70 H 6.1044 1.1227 3.70775 0
M  V30 71 H 6.5184 3.30626 4.07169 0
M  V30 72 H 7.9924 1.98078 5.15237 0
M  V30 73 H 8.4694 0.477875 4.36592 0
M  V30 74 H 9.0754 2.02787 3.73841 0
M  V30 75 N 7.3905 -1.2043 1.01659 0
M  V30 76 C 8.3225 -2.22626 0.544988 0
M  V30 77 C 9.3355 -1.58479 -0.372609 0
M  V30 78 O 10.5245 -1.77679 -0.170958 0
M  V30 79 C 7.6245 -3.38141 -0.22663 0
M  V30 80 C 6.7975 -4.31877 0.692876 0
M  V30 81 C 5.8565 -5.26191 -0.0311616 0
M  V30 82 O 4.8825 -5.6612 0.591343 0
M  V30 83 N 6.0845 -5.65618 -1.30601 0
M  V30 84 H 8.8495 -2.63716 1.42388 0
M  V30 85 H 6.4105 -1.34971 0.894116 0
M  V30 86 H 8.4025 -3.98239 -0.72024 0
M  V30 87 H 6.9725 -2.95943 -1.00681 0
M  V30 88 H 6.1925 -3.69746 1.36679 0
M  V30 89 H 7.4805 -4.91426 1.31824 0
M  V30 90 H 6.8785 -5.3519 -1.83269 0
M  V30 91 H 5.4355 -6.28025 -1.74435 0
M  V30 92 N 8.8686 -0.792821 -1.36206 0
M  V30 93 C 10.1456 -0.290627 -1.93429 0
M  V30 94 C 10.5256 1.21773 -1.72437 0
M  V30 95 O 9.8736 2.0108 -1.08531 0
M  V30 96 C 10.0836 -0.686973 -3.42172 0
M  V30 97 C 11.4316 -0.668643 -4.19302 0
M  V30 98 O 12.4556 -0.627658 -3.50626 0
M  V30 99 O 11.3146 -0.714597 -5.41808 0
M  V30 100 H 8.4086 -0.0727927 -0.82379 0
M  V30 101 H 10.9546 -0.875593 -1.45367 0
M  V30 102 H 9.7266 -1.72711 -3.51122 0
M  V30 103 H 9.3496 -0.0760733 -3.97527 0
M  V30 104 N 10.3467 1.47872 -0.545128 0
M  V30 105 C 11.5957 2.01695 -0.0145033 0
M  V30 106 C 11.9087 1.42609 1.33873 0
M  V30 107 O 13.1147 1.88021 1.95858 0
M  V30 108 C 11.5707 3.59892 0.0245068 0
M  V30 109 C 11.1787 4.27966 -1.32475 0
M  V30 110 C 12.9227 4.21507 0.50316 0
M  V30 111 C 10.8297 5.78136 -1.2455 0
M  V30 112 H 9.7597 0.753998 -0.00165172 0
M  V30 113 H 12.4107 1.69985 -0.691175 0
M  V30 114 H 10.7927 3.88509 0.766575 0
M  V30 115 H 11.9667 4.11003 -2.08357 0
M  V30 116 H 10.2817 3.78286 -1.74036 0
M  V30 117 H 12.8787 5.31538 0.580656 0
M  V30 118 H 13.2217 3.87855 1.51243 0
M  V30 119 H 13.7547 3.97376 -0.183681 0
M  V30 120 H 10.4937 6.16388 -2.23039 0
M  V30 121 H 10.0137 5.97469 -0.528282 0
M  V30 122 H 11.6927 6.40099 -0.942488 0
M  V30 123 N 11.8248 0.280983 1.55075 0
M  V30 124 C 13.0738 -0.334784 1.98902 0
M  V30 125 C 13.3868 -1.56534 1.17288 0
M  V30 126 O 14.5928 -2.25443 1.51287 0
M  V30 127 C 13.0488 -0.646994 3.54037 0
M  V30 128 C 12.6568 0.564085 4.44435 0
M  V30 129 C 14.4008 -1.22506 4.06439 0
M  V30 130 C 12.3078 0.226137 5.90967 0
M  V30 131 H 11.2378 -0.128866 0.742906 0
M  V30 132 H 13.8888 0.386556 1.79382 0
M  V30 133 H 12.2708 -1.42739 3.6938 0
M  V30 134 H 13.4448 1.34082 4.40861 0
M  V30 135 H 11.7598 1.0594 4.02698 0
M  V30 136 H 14.3568 -1.49182 5.13468 0
M  V30 137 H 14.6998 -2.16085 3.55827 0
M  V30 138 H 15.2328 -0.50682 3.94558 0
M  V30 139 H 11.9718 1.12996 6.45687 0
M  V30 140 H 11.4918 -0.513717 5.97596 0
M  V30 141 H 13.1708 -0.179539 6.46751 0
M  V30 142 N 13.3029 -1.57598 0.00835791 0
M  V30 143 C 14.2499 -2.08945 -0.980346 0
M  V30 144 C 15.2199 -0.986738 -1.33614 0
M  V30 145 O 16.4049 -1.25968 -1.43306 0
M  V30 146 C 13.5449 -2.60425 -2.26435 0
M  V30 147 C 12.6579 -3.84628 -1.96685 0
M  V30 148 C 11.7929 -4.24579 -3.19228 0
M  V30 149 C 10.8319 -5.41596 -2.85202 0
M  V30 150 N 9.9689 -5.768 -4.00307 0
M  V30 151 H 14.8089 -2.93148 -0.535551 0
M  V30 152 H 12.3459 -1.44912 -0.252776 0
M  V30 153 H 14.3039 -2.88354 -3.01509 0
M  V30 154 H 12.9339 -1.79083 -2.68568 0
M  V30 155 H 11.9859 -3.63556 -1.11942 0
M  V30 156 H 13.2979 -4.69796 -1.67611 0
M  V30 157 H 12.4519 -4.53834 -4.02641 0
M  V30 158 H 11.1909 -3.38137 -3.51447 0
M  V30 159 H 10.1959 -5.12056 -2.00198 0
M  V30 160 H 11.4209 -6.29721 -2.54222 0
M  V30 161 H 9.3669 -4.93316 -4.32407 0
M  V30 162 H 9.2839 -6.5656 -3.74786 0
M  V30 163 H 10.5519 -6.10652 -4.84484 0
M  V30 164 N 14.781 0.264519 -1.55364 0
M  V30 165 C 16.197 0.61215 -1.47394 0
M  V30 166 C 16.397 1.89134 -0.695018 0
M  V30 167 O 15.453 2.51563 -0.217275 0
M  V30 168 C 16.766 0.731235 -2.91674 0
M  V30 169 C 18.314 0.82473 -3.01939 0
M  V30 170 C 18.789 0.975522 -4.4749 0
M  V30 171 N 20.28 1.04083 -4.51354 0
M  V30 172 C 21.015 1.17646 -5.61201 0
M  V30 173 N 20.511 1.27874 -6.80896 0
M  V30 174 N 22.304 1.20823 -5.48961 0
M  V30 175 H 14.455 -0.575456 -2.04456 0
M  V30 176 H 16.718 -0.196099 -0.927496 0
M  V30 177 H 16.424 -0.138392 -3.51428 0
M  V30 178 H 16.298 1.60883 -3.41169 0
M  V30 179 H 18.685 1.68482 -2.42276 0
M  V30 180 H 18.766 -0.0776479 -2.55682 0
M  V30 181 H 18.41 0.120058 -5.07758 0
M  V30 182 H 18.34 1.89268 -4.91412 0
M  V30 183 H 20.831 0.973846 -3.65136 0
M  V30 184 H 21.144 1.38081 -7.60364 0
M  V30 185 H 19.489 1.24863 -6.83692 0
M  V30 186 H 22.68 1.12469 -4.54388 0
M  V30 187 H 22.853 1.31049 -6.3461 0
M  V30 188 N 16.2591 1.48442 0.529413 0
M  V30 189 C 17.4841 1.60406 1.31471 0
M  V30 190 C 17.9091 0.264738 1.86228 0
M  V30 191 O 17.2671 -0.763668 1.64432 0
M  V30 192 C 17.3151 2.65419 2.44101 0
M  V30 193 O 16.4191 2.22618 3.47153 0
M  V30 194 H 15.7601 0.537863 0.389357 0
M  V30 195 H 18.2901 1.94432 0.636965 0
M  V30 196 H 18.3001 2.86709 2.90279 0
M  V30 197 H 16.9751 3.62652 2.03608 0
M  V30 198 H 15.5521 2.11543 3.0709 0
M  V30 199 N 17.7372 -0.778329 1.37039 0
M  V30 200 C 18.7002 -1.87301 1.32102 0
M  V30 201 C 19.7002 -1.59198 0.226405 0
M  V30 202 O 20.8902 -1.67403 0.481861 0
M  V30 203 C 18.0222 -3.24309 1.05055 0
M  V30 204 H 19.2152 -1.93093 2.29467 0
M  V30 205 H 16.7682 -0.977358 1.21973 0
M  V30 206 H 17.5032 -3.24196 0.0819373 0
M  V30 207 H 17.2882 -3.46098 1.84279 0
M  V30 208 H 18.7782 -4.04382 1.04234 0
M  V30 209 N 19.2153 -1.21501 -1.00376 0
M  V30 210 C 20.4433 -1.059 -1.77744 0
M  V30 211 C 20.8583 0.391125 -1.84704 0
M  V30 212 O 20.2153 1.27133 -1.30933 0
M  V30 213 C 20.2663 -1.65111 -3.21591 0
M  V30 214 O 19.9873 -3.0445 -3.15027 0
M  V30 215 C 21.4883 -1.54637 -4.15454 0
M  V30 216 H 18.7083 -0.371825 -0.558558 0
M  V30 217 H 21.2523 -1.60865 -1.26264 0
M  V30 218 H 19.4073 -1.14235 -3.70175 0
M  V30 219 H 19.8213 -3.3278 -4.0541 0
M  V30 220 H 21.2953 -2.00808 -5.14179 0
M  V30 221 H 21.7723 -0.501022 -4.36333 0
M  V30 222 H 22.3783 -2.04767 -3.72761 0
M  V30 223 N 20.6934 1.19889 -1.02296 0
M  V30 224 C 21.6414 2.24938 -0.592081 0
M  V30 225 C 22.6354 1.65257 0.372357 0
M  V30 226 O 23.8414 1.78371 0.241583 0
M  V30 227 H 20.2164 0.731787 -0.173182 0
M  V30 228 H 22.1874 2.58603 -1.48885 0
M  V30 229 C 20.9364 3.47668 0.047351 0
M  V30 230 H 20.2594 3.93875 -0.685772 0
M  V30 231 H 21.6994 4.22852 0.311862 0
M  V30 232 C 20.1584 3.11136 1.29212 0
M  V30 233 O 20.6884 3.2325 2.38479 0
M  V30 234 N 18.8944 2.65625 1.17863 0
M  V30 235 H 18.4414 2.55968 0.289493 0
M  V30 236 H 18.3994 2.41553 2.01245 0
M  V30 237 N 22.1715 0.800033 1.35784 0
M  V30 238 C 23.3965 0.388511 2.03729 0
M  V30 239 C 23.8215 -0.990481 1.5991 0
M  V30 240 O 23.1795 -1.64013 0.772612 0
M  V30 241 C 23.2275 0.4726 3.5749 0
M  V30 242 O 22.3315 -0.51646 4.09153 0
M  V30 243 H 21.6725 0.163271 0.643614 0
M  V30 244 H 24.2025 1.0841 1.73518 0
M  V30 245 H 24.2125 0.34003 4.06581 0
M  V30 246 H 22.8875 1.47848 3.88734 0
M  V30 247 H 21.4645 -0.344673 3.71304 0
M  V30 248 N 23.6496 -1.47581 0.552962 0
M  V30 249 C 24.8986 -2.01684 0.0251995 0
M  V30 250 C 25.2116 -1.43317 -1.33115 0
M  V30 251 O 26.4176 -1.89057 -1.94858 0
M  V30 252 C 24.8736 -3.599 -0.00542052 0
M  V30 253 C 24.4816 -4.27257 1.34742 0
M  V30 254 C 26.2256 -4.21768 -0.4808 0
M  V30 255 C 24.1326 -5.77467 1.27614 0
M  V30 256 H 23.0626 -0.753979 0.00565033 0
M  V30 257 H 25.7136 -1.69616 0.70018 0
M  V30 258 H 24.0956 -3.88911 -0.745961 0
M  V30 259 H 25.2696 -4.09893 2.10534 0
M  V30 260 H 23.5846 -3.77358 1.76039 0
M  V30 261 H 26.1816 -5.31838 -0.55246 0
M  V30 262 H 26.5246 -3.88651 -1.49184 0
M  V30 263 H 27.0576 -3.97273 0.204752 0
M  V30 264 H 23.7966 -6.15196 2.26304 0
M  V30 265 H 23.3166 -5.9718 0.55996 0
M  V30 266 H 24.9956 -6.3959 0.976421 0
M  V30 267 N 25.1277 -0.289203 -1.54924 0
M  V30 268 C 26.3557 0.326463 -2.04308 0
M  V30 269 C 26.7707 1.48413 -1.16701 0
M  V30 270 O 26.1277 1.81507 -0.190087 0
M  V30 271 C 26.1787 0.794014 -3.52672 0
M  V30 272 O 25.8997 -0.317564 -4.36948 0
M  V30 273 C 27.4007 1.47605 -4.18004 0
M  V30 274 H 24.6207 0.0726272 -0.667058 0
M  V30 275 H 27.1647 -0.425401 -2.00026 0
M  V30 276 H 25.3197 1.49593 -3.57352 0
M  V30 277 H 25.7337 0.0443186 -5.24481 0
M  V30 278 H 27.2077 1.75447 -5.23376 0
M  V30 279 H 27.6847 2.41224 -3.67025 0
M  V30 280 H 28.2907 0.81762 -4.17367 0
M  V30 281 N 26.6058 1.57591 -0.0167156 0
M  V30 282 C 28.0168 1.79201 0.523834 0
M  V30 283 C 28.3678 0.925796 1.72984 0
M  V30 284 O 27.4928 0.132792 2.15992 0
M  V30 285 C 28.0878 3.25 0.957091 0
M  V30 286 C 26.6468 3.47648 1.44283 0
M  V30 287 C 25.7938 2.74374 0.401757 0
M  V30 288 H 28.7448 1.56831 -0.242816 0
M  V30 289 H 28.7658 3.34031 1.82219 0
M  V30 290 H 28.2778 3.88019 0.0791415 0
M  V30 291 H 26.3788 2.89866 2.34113 0
M  V30 292 H 26.4918 4.56352 1.45877 0
M  V30 293 H 24.8558 2.39485 0.867121 0
M  V30 294 H 25.6388 3.40102 -0.467513 0
M  V30 295 N 28.0839 -0.256276 1.55502 0
M  V30 296 C 29.4949 -0.826068 1.67431 0
M  V30 297 C 29.8459 -1.86396 0.612446 0
M  V30 298 O 28.9709 -2.15031 -0.243025 0
M  V30 299 C 29.5659 -1.50512 3.03532 0
M  V30 300 C 28.1249 -2.02273 3.17431 0
M  V30 301 C 27.2719 -0.870548 2.63281 0
M  V30 302 H 30.2229 -0.0322728 1.58667 0
M  V30 303 H 30.2439 -2.37279 2.97454 0
M  V30 304 H 29.7559 -0.749484 3.80794 0
M  V30 305 H 27.8569 -2.80746 2.44974 0
M  V30 306 H 27.9699 -2.22655 4.24219 0
M  V30 307 H 26.3339 -1.26851 2.20864 0
M  V30 308 H 27.1169 -0.128149 3.43061 0
M  V30 309 N 29.562 -1.4872 -0.521534 0
M  V30 310 C 30.787 -1.61101 -1.30618 0
M  V30 311 C 31.212 -0.274611 -1.86085 0
M  V30 312 O 30.57 0.754937 -1.64834 0
M  V30 313 C 30.618 -2.66709 -2.4269 0
M  V30 314 O 29.722 -2.24456 -3.45967 0
M  V30 315 H 29.063 -0.539921 -0.386499 0
M  V30 316 H 31.593 -1.94767 -0.626645 0
M  V30 317 H 31.603 -2.88245 -2.88754 0
M  V30 318 H 30.278 -3.63727 -2.01682 0
M  V30 319 H 28.855 -2.13168 -3.05964 0
M  V30 320 N 31.0401 0.771051 -1.3745 0
M  V30 321 C 31.9721 1.89352 -1.29146 0
M  V30 322 C 32.9851 1.61477 -0.207124 0
M  V30 323 O 34.1741 1.72382 -0.463324 0
M  V30 324 C 31.2741 3.24596 -0.974195 0
M  V30 325 C 30.4471 3.80111 -2.16413 0
M  V30 326 C 29.5061 4.93832 -1.81703 0
M  V30 327 O 28.5321 5.09382 -2.54006 0
M  V30 328 N 29.7341 5.75483 -0.761573 0
M  V30 329 H 32.4991 1.96991 -2.25864 0
M  V30 330 H 30.0601 0.950191 -1.31084 0
M  V30 331 H 32.0521 3.98193 -0.722828 0
M  V30 332 H 30.6221 3.12454 -0.0955527 0
M  V30 333 H 29.8421 2.98284 -2.57721 0
M  V30 334 H 31.1301 4.13932 -2.95867 0
M  V30 335 H 30.5281 5.65469 -0.161609 0
M  V30 336 H 29.0851 6.49302 -0.570064 0
M  V30 337 N 32.5182 1.22032 0.997298 0
M  V30 338 C 33.7642 1.04376 1.73878 0
M  V30 339 C 34.0972 -0.420716 1.89588 0
M  V30 340 O 33.3722 -1.31202 1.43583 0
M  V30 341 C 33.6552 1.75047 3.14691 0
M  V30 342 C 33.5082 3.29062 3.06656 0
M  V30 343 C 34.8272 1.49928 4.13775 0
M  V30 344 H 31.9462 0.380578 0.631133 0
M  V30 345 H 34.5882 1.50312 1.16217 0
M  V30 346 H 32.7382 1.35996 3.63919 0
M  V30 347 H 34.4102 3.7753 2.65083 0
M  V30 348 H 32.6532 3.58967 2.43568 0
M  V30 349 H 33.3242 3.73683 4.06282 0
M  V30 350 H 35.8002 1.83842 3.73285 0
M  V30 351 H 34.6762 2.01878 5.10428 0
M  V30 352 H 34.9372 0.430929 4.39995 0
M  V30 353 N 33.9963 -1.19345 1.0293 0
M  V30 354 C 35.4123 -1.41069 0.746446 0
M  V30 355 C 35.6123 -1.90078 -0.668776 0
M  V30 356 O 34.6683 -2.0778 -1.4347 0
M  V30 357 C 35.9813 -2.42141 1.78292 0
M  V30 358 C 37.5293 -2.55887 1.80252 0
M  V30 359 C 38.0043 -3.60214 2.8286 0
M  V30 360 N 39.4953 -3.67711 2.81679 0
M  V30 361 C 40.2303 -4.48128 3.57727 0
M  V30 362 N 39.7263 -5.32248 4.43491 0
M  V30 363 N 41.5193 -4.42782 3.46267 0
M  V30 364 H 33.6703 -0.858536 1.94275 0
M  V30 365 H 35.9333 -0.439541 0.839945 0
M  V30 366 H 35.6393 -2.13155 2.79746 0
M  V30 367 H 35.5133 -3.41323 1.60557 0
M  V30 368 H 37.9003 -2.84196 0.794757 0
M  V30 369 H 37.9813 -1.56858 2.02062 0
M  V30 370 H 37.6253 -3.32647 3.83807 0
M  V30 371 H 37.5553 -4.58895 2.58307 0
M  V30 372 H 40.0463 -3.07634 2.19476 0
M  V30 373 H 40.3593 -5.90729 4.98256 0
M  V30 374 H 38.7043 -5.31707 4.47564 0
M  V30 375 H 41.8953 -3.76107 2.78677 0
M  V30 376 H 42.0683 -5.05215 4.05785 0
M  V30 377 N 35.4744 -0.807222 -1.35358 0
M  V30 378 C 36.7514 -0.311126 -1.9311 0
M  V30 379 C 37.1314 1.19937 -1.73719 0
M  V30 380 O 36.4794 1.99918 -1.10657 0
M  V30 381 C 36.6894 -0.723226 -3.41424 0
M  V30 382 C 38.0374 -0.713078 -4.18569 0
M  V30 383 O 39.0614 -0.664811 -3.49941 0
M  V30 384 O 37.9204 -0.772022 -5.41019 0
M  V30 385 H 35.0144 -0.081526 -0.822972 0
M  V30 386 H 37.5604 -0.890962 -1.4443 0
M  V30 387 H 36.3324 -1.76426 -3.4927 0
M  V30 388 H 35.9554 -0.118232 -3.97424 0
M  V30 389 N 36.9525 1.47285 -0.560781 0
M  V30 390 C 38.1825 2.06555 -0.0429638 0
M  V30 391 C 38.5905 1.41339 1.25777 0
M  V30 392 O 37.9335 0.505182 1.76617 0
M  V30 393 C 37.9955 3.58827 0.219887 0
M  V30 394 C 37.6595 4.46105 -0.991944 0
M  V30 395 C 38.6565 4.84 -1.89843 0
M  V30 396 C 36.3415 4.87567 -1.20762 0
M  V30 397 C 38.3355 5.6216 -3.00425 0
M  V30 398 C 36.0225 5.65491 -2.31653 0
M  V30 399 C 37.0205 6.02699 -3.21315 0
M  V30 400 O 36.7085 6.79052 -4.30283 0
M  V30 401 H 36.4405 0.674537 -0.0444468 0
M  V30 402 H 38.9945 1.90225 -0.774818 0
M  V30 403 H 37.2245 3.73383 1.00609 0
M  V30 404 H 38.9135 4.00103 0.683522 0
M  V30 405 H 39.6795 4.52564 -1.74387 0
M  V30 406 H 35.5585 4.5807 -0.518893 0
M  V30 407 H 39.1025 5.9112 -3.70436 0
M  V30 408 H 34.9995 5.9634 -2.47081 0
M  V30 409 H 35.7675 6.9745 -4.28376 0
M  V30 410 N 38.4306 0.297415 1.54768 0
M  V30 411 C 39.3776 -0.580276 2.23386 0
M  V30 412 C 40.3476 -1.13238 1.21517 0
M  V30 413 O 41.5326 -1.17757 1.50126 0
M  V30 414 C 38.6726 -1.74801 2.97555 0
M  V30 415 C 37.7856 -1.22764 4.1419 0
M  V30 416 C 36.9206 -2.35895 4.75949 0
M  V30 417 C 35.9596 -1.80974 5.84735 0
M  V30 418 N 35.0966 -2.87664 6.40464 0
M  V30 419 H 39.9366 0.0114833 2.97998 0
M  V30 420 H 37.4736 0.0174361 1.4709 0
M  V30 421 H 39.4316 -2.43475 3.38786 0
M  V30 422 H 38.0616 -2.31145 2.25326 0
M  V30 423 H 37.1136 -0.433271 3.77924 0
M  V30 424 H 38.4256 -0.785551 4.92575 0
M  V30 425 H 37.5796 -3.12523 5.20014 0
M  V30 426 H 36.3186 -2.83429 3.96887 0
M  V30 427 H 35.3236 -1.02834 5.40097 0
M  V30 428 H 36.5486 -1.34348 6.65678 0
M  V30 429 H 34.4946 -3.34538 5.64287 0
M  V30 430 H 34.4116 -2.4794 7.14186 0
M  V30 431 H 35.6796 -3.642 6.89187 0
M  V30 432 N 39.9087 -1.5758 0.0250728 0
M  V30 433 C 40.8717 -2.08896 -0.943139 0
M  V30 434 C 41.8717 -1.00321 -1.25668 0
M  V30 435 O 43.0617 -1.26495 -1.19769 0
M  V30 436 C 40.1937 -2.55143 -2.26086 0
M  V30 437 H 41.3867 -2.95723 -0.498775 0
M  V30 438 H 38.9397 -1.54703 -0.222888 0
M  V30 439 H 39.6747 -1.71633 -2.75159 0
M  V30 440 H 39.4597 -3.34461 -2.04641 0
M  V30 441 H 40.9497 -2.95083 -2.95492 0
M  V30 442 N 41.3868 0.248026 -1.55636 0
M  V30 443 C 42.2968 1.32859 -1.93354 0
M  V30 444 C 43.3128 1.52719 -0.833838 0
M  V30 445 O 44.4888 1.66363 -1.13513 0
M  V30 446 C 41.5538 2.66337 -2.21958 0
M  V30 447 C 40.6148 2.55008 -3.45354 0
M  V30 448 C 39.8478 3.82121 -3.72584 0
M  V30 449 O 40.0708 4.83951 -3.01907 0
M  V30 450 O 39.0048 3.80822 -4.6611 0
M  V30 451 H 42.8308 1.03862 -2.85388 0
M  V30 452 H 40.4158 0.448686 -1.42503 0
M  V30 453 H 42.2978 3.45216 -2.4167 0
M  V30 454 H 40.9728 2.95068 -1.33103 0
M  V30 455 H 39.8798 1.7442 -3.30951 0
M  V30 456 H 41.2128 2.31222 -4.34508 0
M  V30 457 N 42.8649 1.48995 0.513639 0
M  V30 458 C 44.1109 1.58076 1.27042 0
M  V30 459 C 44.4439 0.261026 1.92438 0
M  V30 460 O 43.7189 -0.734393 1.80103 0
M  V30 461 C 44.0019 2.73091 2.34719 0
M  V30 462 C 43.8549 4.14821 1.73907 0
M  V30 463 C 45.1739 2.83796 3.36375 0
M  V30 464 H 42.2929 0.575391 0.460536 0
M  V30 465 H 44.9349 1.81232 0.570516 0
M  V30 466 H 43.0849 2.53479 2.94416 0
M  V30 467 H 44.7569 4.45917 1.18135 0
M  V30 468 H 42.9999 4.21058 1.0437 0
M  V30 469 H 43.6709 4.91147 2.51949 0
M  V30 470 H 46.1469 3.01611 2.86653 0
M  V30 471 H 45.0229 3.65971 4.09093 0
M  V30 472 H 45.2839 1.92624 3.9793 0
M  V30 473 N 44.343 -0.763751 1.37857 0
M  V30 474 C 45.306 -1.85889 1.34081 0
M  V30 475 C 46.306 -1.58949 0.243277 0
M  V30 476 O 47.496 -1.66882 0.499589 0
M  V30 477 C 44.628 -3.23176 1.08489 0
M  V30 478 H 45.821 -1.90648 2.31502 0
M  V30 479 H 43.374 -0.964367 1.23003 0
M  V30 480 H 44.109 -3.24091 0.116318 0
M  V30 481 H 43.894 -3.44124 1.8794 0
M  V30 482 H 45.384 -4.03254 1.08517 0
M  V30 483 N 45.8211 -1.22559 -0.990812 0
M  V30 484 C 46.7681 -0.997519 -2.0813 0
M  V30 485 C 47.7381 0.0814702 -1.659 0
M  V30 486 O 48.9231 -0.0685424 -1.90677 0
M  V30 487 C 46.0631 -0.583615 -3.40129 0
M  V30 488 C 45.1761 -1.7336 -3.9569 0
M  V30 489 C 44.3111 -1.26748 -5.15857 0
M  V30 490 C 43.3501 -2.38888 -5.63559 0
M  V30 491 N 42.4871 -1.93308 -6.74964 0
M  V30 492 H 47.3271 -1.93099 -2.26973 0
M  V30 493 H 44.8641 -0.962114 -1.11273 0
M  V30 494 H 46.8221 -0.324801 -4.15934 0
M  V30 495 H 45.4521 0.312845 -3.2128 0
M  V30 496 H 44.5041 -2.10669 -3.16738 0
M  V30 497 H 45.8161 -2.57704 -4.27071 0
M  V30 498 H 44.9701 -0.966173 -5.98957 0
M  V30 499 H 43.7091 -0.394272 -4.86104 0
M  V30 500 H 42.7141 -2.69805 -4.79046 0
M  V30 501 H 43.9391 -3.26728 -5.95336 0
M  V30 502 H 41.8851 -1.08352 -6.4699 0
M  V30 503 H 41.8021 -2.71217 -7.05675 0
M  V30 504 H 43.0701 -1.66252 -7.61564 0
M  V30 505 N 47.2992 1.18797 -1.03562 0
M  V30 506 C 48.2292 2.24472 -0.643019 0
M  V30 507 C 49.2102 1.66433 0.351283 0
M  V30 508 O 50.3952 1.92803 0.232505 0
M  V30 509 C 47.5252 3.473 4.24935e-05 0
M  V30 510 C 46.4792 4.18055 -0.917257 0
M  V30 511 C 45.8052 5.34519 -0.138941 0
M  V30 512 C 47.1052 4.72109 -2.23407 0
M  V30 513 H 48.7992 2.57566 -1.52643 0
M  V30 514 H 46.3452 1.23806 -0.735394 0
M  V30 515 H 48.2982 4.20426 0.286383 0
M  V30 516 H 47.0222 3.13424 0.918299 0
M  V30 517 H 45.6812 3.46821 -1.1879 0
M  V30 518 H 45.3292 4.96891 0.781562 0
M  V30 519 H 45.0292 5.82794 -0.750005 0
M  V30 520 H 46.5532 6.10438 0.1405 0
M  V30 521 H 47.9672 5.36955 -2.00879 0
M  V30 522 H 46.3642 5.30897 -2.79765 0
M  V30 523 H 47.4342 3.89807 -2.88407 0
M  V30 524 N 48.7773 0.814389 1.34928 0
M  V30 525 C 50.0263 0.394871 1.97797 0
M  V30 526 C 50.3393 -1.04555 1.65311 0
M  V30 527 O 51.5453 -1.56856 2.21604 0
M  V30 528 C 50.0013 0.655103 3.53888 0
M  V30 529 C 49.6093 2.10858 3.95276 0
M  V30 530 C 51.3533 0.301329 4.23429 0
M  V30 531 C 49.2603 2.31415 5.44244 0
M  V30 532 H 48.1903 0.143913 0.740139 0
M  V30 533 H 50.8413 0.999544 1.53888 0
M  V30 534 H 49.2233 -0.0196253 3.95995 0
M  V30 535 H 50.3973 2.82176 3.64298 0
M  V30 536 H 48.7123 2.42297 3.38646 0
M  V30 537 H 51.3093 0.432869 5.32945 0
M  V30 538 H 51.6523 -0.75331 4.09428 0
M  V30 539 H 52.1853 0.930288 3.86769 0
M  V30 540 H 48.9243 3.35353 5.63222 0
M  V30 541 H 48.4443 1.6463 5.76764 0
M  V30 542 H 50.1233 2.13352 6.10811 0
M  V30 543 N 50.2554 -1.46986 0.568584 0
M  V30 544 C 51.5324 -1.95592 -0.0174074 0
M  V30 545 C 51.9124 -1.51124 -1.47393 0
M  V30 546 O 51.2604 -0.755329 -2.15655 0
M  V30 547 C 51.4704 -3.48719 0.139913 0
M  V30 548 C 52.8184 -4.246 0.000426376 0
M  V30 549 O 53.8424 -3.56135 0.0680316 0
M  V30 550 O 52.7014 -5.46302 -0.146988 0
M  V30 551 H 49.7954 -0.82498 -0.0577599 0
M  V30 552 H 52.3414 -1.57335 0.635909 0
M  V30 553 H 51.1134 -3.73927 1.15301 0
M  V30 554 H 50.7364 -3.93771 -0.550491 0
M  V30 555 N 51.7335 -0.305618 -1.54608 0
M  V30 556 C 52.9795 0.302746 -2.00528 0
M  V30 557 C 53.3125 1.53184 -1.19367 0
M  V30 558 O 52.5875 1.92598 -0.271321 0
M  V30 559 C 52.8705 0.654756 -3.54097 0
M  V30 560 C 52.7235 -0.583793 -4.45995 0
M  V30 561 C 54.0425 1.47947 -4.14487 0
M  V30 562 H 51.1615 0.108564 -0.72896 0
M  V30 563 H 53.8035 -0.418634 -1.85331 0
M  V30 564 H 51.9535 1.26935 -3.67178 0
M  V30 565 H 53.6255 -1.22224 -4.44814 0
M  V30 566 H 51.8685 -1.21615 -4.16404 0
M  V30 567 H 52.5395 -0.293287 -5.5122 0
M  V30 568 H 55.0155 0.96013 -4.04871 0
M  V30 569 H 53.8915 1.69454 -5.22088 0
M  V30 570 H 54.1525 2.47011 -3.66658 0
M  V30 571 N 53.2116 1.57565 -0.0334293 0
M  V30 572 C 54.4366 1.96689 0.657895 0
M  V30 573 C 54.8616 0.910057 1.64619 0
M  V30 574 O 54.2196 -0.128598 1.80843 0
M  V30 575 C 54.2676 3.34905 1.33683 0
M  V30 576 O 53.3716 3.31574 2.45219 0
M  V30 577 H 52.7126 0.641205 0.172489 0
M  V30 578 H 55.2426 2.04372 -0.0965621 0
M  V30 579 H 55.2526 3.71234 1.69262 0
M  V30 580 H 53.9276 4.11366 0.612411 0
M  V30 581 H 52.5046 3.06968 2.11719 0
M  V30 582 N 54.6897 -0.239769 1.55765 0
M  V30 583 C 55.9177 -0.98417 1.81994 0
M  V30 584 C 56.3327 -1.7867 0.610124 0
M  V30 585 O 55.6897 -1.77571 -0.421271 0
M  V30 586 C 55.7407 -1.91635 3.06526 0
M  V30 587 O 55.4617 -1.14629 4.22838 0
M  V30 588 C 56.9627 -2.77616 3.45607 0
M  V30 589 H 54.1827 -0.28928 0.605441 0
M  V30 590 H 56.7267 -0.260499 2.02834 0
M  V30 591 H 54.8817 -2.5942 2.87715 0
M  V30 592 H 55.2957 -1.77745 4.93464 0
M  V30 593 H 56.7697 -3.38759 4.35828 0
M  V30 594 H 57.2467 -3.4909 2.6652 0
M  V30 595 H 57.8527 -2.15271 3.66795 0
M  V30 596 N 56.1678 -1.49265 -0.50573 0
M  V30 597 C 57.4078 -1.60128 -1.27038 0
M  V30 598 C 57.7718 -0.279557 -1.89954 0
M  V30 599 O 58.9728 -0.263329 -2.67507 0
M  V30 600 C 57.2438 -2.72507 -2.31246 0
M  V30 601 S 58.8028 -3.0329 -3.17113 0
M  V30 602 H 55.6208 -0.564863 -0.4318 0
M  V30 603 H 58.2228 -1.86902 -0.573397 0
M  V30 604 H 56.9268 -3.67068 -1.83546 0
M  V30 605 H 56.4578 -2.4771 -3.05619 0
M  V30 606 H 58.4728 -2.44448 -4.31809 0
M  V30 607 N 57.6459 0.756429 -1.3826 0
M  V30 608 C 58.8949 1.51082 -1.3363 0
M  V30 609 C 59.2079 1.95467 0.0720068 0
M  V30 610 O 60.4139 2.7043 0.240834 0
M  V30 611 C 58.8699 2.72893 -2.34644 0
M  V30 612 C 58.4779 2.35544 -3.81081 0
M  V30 613 C 60.2219 3.50791 -2.39052 0
M  V30 614 C 58.1289 3.53948 -4.73787 0
M  V30 615 H 57.0589 0.56727 -0.49671 0
M  V30 616 H 59.7099 0.827147 -1.638 0
M  V30 617 H 58.0919 3.43227 -1.97513 0
M  V30 618 H 59.2659 1.72894 -4.27135 0
M  V30 619 H 57.5809 1.70786 -3.79764 0
M  V30 620 H 60.1779 4.38823 -3.05513 0
M  V30 621 H 60.5209 3.91745 -1.40861 0
M  V30 622 H 61.0539 2.87467 -2.74968 0
M  V30 623 H 57.7929 3.18064 -5.73163 0
M  V30 624 H 57.3129 4.15651 -4.32428 0
M  V30 625 H 58.9919 4.20566 -4.91663 0
M  V30 626 N 59.124 1.23083 0.984299 0
M  V30 627 C 60.372 1.05848 1.72165 0
M  V30 628 C 60.693 -0.406049 1.90726 0
M  V30 629 O 59.963 -1.29139 1.47309 0
M  V30 630 H 58.543 0.388685 0.637913 0
M  V30 631 H 61.205 1.54736 1.18503 0
M  V30 632 H 60.301 1.54327 2.71274 0
M  V30 633 N 60.6021 -1.18246 1.0419 0
M  V30 634 C 61.8421 -1.89948 0.754916 0
M  V30 635 C 62.2061 -1.78608 -0.70451 0
M  V30 636 O 63.4071 -2.4503 -1.10516 0
M  V30 637 C 61.6781 -3.36305 1.20969 0
M  V30 638 S 63.2371 -4.26088 1.04854 0
M  V30 639 H 60.0551 -0.655897 0.274446 0
M  V30 640 H 62.6571 -1.42873 1.33445 0
M  V30 641 H 61.3611 -3.42089 2.26722 0
M  V30 642 H 60.8921 -3.8842 0.624004 0
M  V30 643 H 62.9071 -4.96189 -0.0332896 0
M  V30 644 N 62.0802 -0.821533 -1.34494 0
M  V30 645 C 63.0272 -0.240397 -2.29545 0
M  V30 646 C 63.9972 0.634031 -1.53523 0
M  V30 647 O 65.1822 0.575966 -1.81899 0
M  V30 648 C 62.3222 0.592869 -3.39969 0
M  V30 649 C 61.4352 -0.30365 -4.30932 0
M  V30 650 C 60.5702 0.539049 -5.28458 0
M  V30 651 C 59.6092 -0.356942 -6.11058 0
M  V30 652 N 58.7462 0.446603 -7.00678 0
M  V30 653 H 63.5862 -1.05632 -2.7865 0
M  V30 654 H 61.1232 -0.532413 -1.37127 0
M  V30 655 H 63.0812 1.09129 -4.02675 0
M  V30 656 H 61.7112 1.37392 -2.92102 0
M  V30 657 H 60.7632 -0.920276 -3.691 0
M  V30 658 H 62.0752 -0.992661 -4.88823 0
M  V30 659 H 61.2292 1.102 -5.96608 0
M  V30 660 H 59.9682 1.26157 -4.71101 0
M  V30 661 H 58.9732 -0.932047 -5.41842 0
M  V30 662 H 60.1982 -1.07755 -6.70497 0
M  V30 663 H 58.1442 1.15282 -6.45791 0
M  V30 664 H 58.0612 -0.184048 -7.55776 0
M  V30 665 H 59.3292 0.992352 -7.73158 0
M  V30 666 N 63.5583 1.46682 -0.576371 0
M  V30 667 C 64.5213 2.28707 0.150239 0
M  V30 668 C 65.5213 1.38035 0.824794 0
M  V30 669 O 66.7113 1.60476 0.677719 0
M  V30 670 C 63.8433 3.18248 1.22192 0
M  V30 671 H 65.0363 2.94423 -0.570521 0
M  V30 672 H 62.5893 1.52688 -0.334078 0
M  V30 673 H 63.3243 2.57265 1.97447 0
M  V30 674 H 63.1093 3.85 0.742812 0
M  V30 675 H 64.5993 3.80001 1.73172 0
M  V30 676 N 65.0364 0.313813 1.54444 0
M  V30 677 C 66.2764 -0.292389 2.02298 0
M  V30 678 C 66.6404 -1.50105 1.19719 0
M  V30 679 O 67.8414 -2.17947 1.5733 0
M  V30 680 C 66.1124 -0.627682 3.51845 0
M  V30 681 S 67.6714 -1.21493 4.21646 0
M  V30 682 H 64.4894 -0.0890247 0.705405 0
M  V30 683 H 67.0914 0.444668 1.90376 0
M  V30 684 H 65.7954 0.260265 4.09574 0
M  V30 685 H 65.3264 -1.39519 3.67829 0
M  V30 686 H 67.3414 -2.5022 4.28491 0
M  V30 687 N 66.5145 -1.57545 0.0417849 0
M  V30 688 C 67.4465 -2.07904 -0.964799 0
M  V30 689 C 68.4595 -1.00497 -1.28079 0
M  V30 690 O 69.6485 -1.28087 -1.24322 0
M  V30 691 C 66.7485 -2.49928 -2.28887 0
M  V30 692 C 65.9215 -3.80562 -2.15619 0
M  V30 693 C 64.9805 -4.08999 -3.31069 0
M  V30 694 O 64.0065 -4.79061 -3.0739 0
M  V30 695 N 65.2085 -3.6017 -4.55256 0
M  V30 696 H 67.9735 -2.94886 -0.535029 0
M  V30 697 H 65.5345 -1.61252 -0.144681 0
M  V30 698 H 67.5265 -2.66034 -3.04972 0
M  V30 699 H 66.0965 -1.68245 -2.63463 0
M  V30 700 H 65.3165 -3.74129 -1.24183 0
M  V30 701 H 66.6045 -4.66126 -2.03971 0
M  V30 702 H 66.0025 -3.03512 -4.77386 0
M  V30 703 H 64.5595 -3.81532 -5.28466 0
M  V30 704 N 67.9926 0.231505 -1.5589 0
M  V30 705 C 69.2386 0.95877 -1.78705 0
M  V30 706 C 69.5716 1.8438 -0.609725 0
M  V30 707 O 68.8466 1.90521 0.391426 0
M  V30 708 C 69.1296 1.8062 -3.11526 0
M  V30 709 C 68.9826 0.948328 -4.39689 0
M  V30 710 C 70.3016 2.78585 -3.40703 0
M  V30 711 H 67.4206 0.347129 -0.650131 0
M  V30 712 H 70.0626 0.228259 -1.88624 0
M  V30 713 H 68.2126 2.42902 -3.03201 0
M  V30 714 H 69.8846 0.343016 -4.60023 0
M  V30 715 H 68.1276 0.253314 -4.3306 0
M  V30 716 H 68.7986 1.57543 -5.29041 0
M  V30 717 H 71.2746 2.26439 -3.49091 0
M  V30 718 H 70.1506 3.34988 -4.34826 0
M  V30 719 H 70.4116 3.55825 -2.62375 0
M  V30 720 N 69.4707 1.49531 0.497807 0
M  V30 721 C 70.4337 1.65916 1.58128 0
M  V30 722 C 71.4337 0.530825 1.51786 0
M  V30 723 O 72.6237 0.797342 1.54881 0
M  V30 724 C 69.7557 1.65951 2.9778 0
M  V30 725 H 70.9487 2.62556 1.44929 0
M  V30 726 H 68.5017 1.38611 0.722275 0
M  V30 727 H 69.2367 0.709065 3.16453 0
M  V30 728 H 69.0217 2.47897 3.03792 0
M  V30 729 H 70.5117 1.80673 3.76493 0
M  V30 730 N 70.9488 -0.749086 1.3866 0
M  V30 731 C 72.1888 -1.52112 1.36534 0
M  V30 732 C 72.5528 -1.91951 -0.0432316 0
M  V30 733 O 73.7538 -2.68132 -0.189396 0
M  V30 734 C 72.0248 -2.73704 2.29828 0
M  V30 735 S 73.5838 -3.63519 2.45763 0
M  V30 736 H 70.4018 -0.520482 0.484375 0
M  V30 737 H 73.0038 -0.878963 1.74627 0
M  V30 738 H 71.7078 -2.42552 3.31054 0
M  V30 739 H 71.2388 -3.4286 1.929 0
M  V30 740 H 73.2538 -4.66712 1.68505 0
M  V30 741 N 72.4269 -1.23603 -0.977757 0
M  V30 742 C 73.6519 -1.09735 -1.75991 0
M  V30 743 C 74.0769 0.346858 -1.84874 0
M  V30 744 O 73.4349 1.25093 -1.3123 0
M  V30 745 C 73.4829 -1.73051 -3.16363 0
M  V30 746 O 72.5869 -0.994452 -4.0023 0
M  V30 747 H 71.9279 -0.384476 -0.541364 0
M  V30 748 H 74.4579 -1.6371 -1.2272 0
M  V30 749 H 74.4679 -1.78398 -3.66931 0
M  V30 750 H 73.1429 -2.78137 -3.09213 0
M  V30 751 H 71.7199 -1.01812 -3.58732 0
M  V30 752 N 73.905 1.17692 -1.04816 0
M  V30 753 C 74.815 2.25229 -0.65643 0
M  V30 754 C 75.831 1.71018 0.320761 0
M  V30 755 O 77.007 2.00649 0.173805 0
M  V30 756 C 74.072 3.46684 -0.0332629 0
M  V30 757 C 73.133 4.15997 -1.06042 0
M  V30 758 C 72.366 5.31654 -0.466893 0
M  V30 759 O 72.589 5.65777 0.724758 0
M  V30 760 O 71.523 5.89831 -1.1993 0
M  V30 761 H 75.349 2.61016 -1.55255 0
M  V30 762 H 72.934 1.24919 -0.81949 0
M  V30 763 H 74.816 4.20234 0.313256 0
M  V30 764 H 73.491 3.12703 0.836566 0
M  V30 765 H 72.398 3.44482 -1.45886 0
M  V30 766 H 73.731 4.53996 -1.90127 0
M  V30 767 N 75.3831 0.828654 1.34056 0
M  V30 768 C 76.6291 0.429279 1.98818 0
M  V30 769 C 76.9841 -0.998011 1.64492 0
M  V30 770 O 76.2771 -1.68652 0.909228 0
M  V30 771 C 76.4711 0.575226 3.52741 0
M  V30 772 C 76.3001 2.01515 4.02022 0
M  V30 773 C 75.0701 2.64825 4.30344 0
M  V30 774 C 77.2681 2.98261 4.18981 0
M  V30 775 N 75.2501 3.99998 4.65698 0
M  V30 776 C 76.6211 4.18356 4.57578 0
M  V30 777 C 78.6761 2.94802 4.01243 0
M  V30 778 C 77.3791 5.35454 4.80293 0
M  V30 779 C 79.4051 4.11121 4.25128 0
M  V30 780 C 78.7671 5.29969 4.64018 0
M  V30 781 H 74.8661 0.205304 0.754569 0
M  V30 782 H 77.4501 1.07457 1.62361 0
M  V30 783 H 75.6211 -0.0401962 3.88379 0
M  V30 784 H 77.3531 0.148292 4.04428 0
M  V30 785 H 74.1081 2.16027 4.21461 0
M  V30 786 H 74.5321 4.69653 4.87601 0
M  V30 787 H 79.1741 2.04054 3.70299 0
M  V30 788 H 76.8921 6.26755 5.10102 0
M  V30 789 H 80.4781 4.0985 4.12934 0
M  V30 790 H 79.3581 6.18479 4.82134 0
M  V30 791 N 76.8612 -1.46375 0.584142 0
M  V30 792 C 77.8092 -2.32042 -0.161047 0
M  V30 793 C 78.8032 -1.44569 -0.882966 0
M  V30 794 O 80.0092 -1.61186 -0.801191 0
M  V30 795 H 76.3842 -0.748659 -0.0708033 0
M  V30 796 H 78.3552 -2.92704 0.580269 0
M  V30 797 C 77.1042 -3.27762 -1.1605 0
M  V30 798 H 76.4272 -3.95051 -0.614419 0
M  V30 799 H 77.8672 -3.90481 -1.65228 0
M  V30 800 C 76.3262 -2.53218 -2.22221 0
M  V30 801 O 76.8562 -2.29628 -3.29597 0
M  V30 802 N 75.0622 -2.13756 -1.96868 0
M  V30 803 H 74.6092 -2.33142 -1.09557 0
M  V30 804 H 74.5672 -1.642 -2.68115 0
M  V30 805 N 78.3393 -0.321999 -1.54275 0
M  V30 806 C 79.6163 0.335232 -1.92706 0
M  V30 807 C 79.9963 1.70006 -1.25145 0
M  V30 808 O 79.3443 2.25067 -0.394596 0
M  V30 809 C 79.5543 0.429008 -3.46353 0
M  V30 810 C 80.9023 0.690029 -4.18956 0
M  V30 811 O 81.9263 0.511992 -3.52501 0
M  V30 812 O 80.7853 1.03338 -5.36641 0
M  V30 813 H 77.8793 0.191143 -0.804608 0
M  V30 814 H 80.4253 -0.3716 -1.65581 0
M  V30 815 H 79.1973 -0.529611 -3.87699 0
M  V30 816 H 78.8203 1.18348 -3.79578 0
M  V30 817 N 79.8174 1.5752 -0.0501392 0
M  V30 818 C 81.0664 1.91827 0.623328 0
M  V30 819 C 81.3794 0.930222 1.72065 0
M  V30 820 O 82.5854 1.1653 2.4522 0
M  V30 821 C 81.0414 3.40692 1.16003 0
M  V30 822 C 80.6494 4.479 0.0948811 0
M  V30 823 C 82.3934 3.84034 1.80881 0
M  V30 824 C 80.3004 5.87879 0.644411 0
M  V30 825 H 79.2304 0.715918 0.236596 0
M  V30 826 H 81.8814 1.83115 -0.118861 0
M  V30 827 H 80.2634 3.44405 1.9545 0
M  V30 828 H 81.4374 4.55775 -0.678675 0
M  V30 829 H 79.7524 4.13892 -0.45637 0
M  V30 830 H 82.3494 4.85984 2.22988 0
M  V30 831 H 82.6924 3.20225 2.6601 0
M  V30 832 H 83.2254 3.82833 1.0809 0
M  V30 833 H 79.9644 6.55282 -0.169229 0
M  V30 834 H 79.4844 5.83567 1.38598 0
M  V30 835 H 81.1634 6.37098 1.12763 0
M  V30 836 N 81.2955 -0.223234 1.56011 0
M  V30 837 C 82.7115 -0.572856 1.48965 0
M  V30 838 C 82.9115 -1.87225 0.74492 0
M  V30 839 O 81.9675 -2.50899 0.283896 0
M  V30 840 C 83.2805 -0.653646 2.9351 0
M  V30 841 C 84.8285 -0.744386 3.0402 0
M  V30 842 C 85.3035 -0.856535 4.49919 0
M  V30 843 N 86.7945 -0.9208 4.53955 0
M  V30 844 C 87.5295 -1.02726 5.64123 0
M  V30 845 N 87.0255 -1.09777 6.84047 0
M  V30 846 N 88.8185 -1.06226 5.51971 0
M  V30 847 H 80.9695 0.629462 2.02858 0
M  V30 848 H 83.2325 0.220621 0.921971 0
M  V30 849 H 82.9385 0.231518 3.50937 0
M  V30 850 H 82.8125 -1.51781 3.45315 0
M  V30 851 H 85.1995 -1.61999 2.46658 0
M  V30 852 H 85.2805 0.14541 2.55386 0
M  V30 853 H 84.9245 0.0146069 5.07898 0
M  V30 854 H 84.8545 -1.76172 4.96257 0
M  V30 855 H 87.3455 -0.876694 3.6759 0
M  V30 856 H 87.6585 -1.17872 7.63758 0
M  V30 857 H 86.0035 -1.06693 6.86762 0
M  V30 858 H 89.1945 -1.00382 4.5721 0
M  V30 859 H 89.3675 -1.14177 6.37862 0
M  V30 860 N 82.7736 -1.49793 -0.48987 0
M  V30 861 C 84.0506 -1.50348 -1.25119 0
M  V30 862 C 84.4306 -0.237466 -2.0976 0
M  V30 863 O 83.7786 0.77981 -2.14782 0
M  V30 864 C 83.9886 -2.78872 -2.09837 0
M  V30 865 C 85.3366 -3.288 -2.68655 0
M  V30 866 O 86.3606 -2.80065 -2.20096 0
M  V30 867 O 85.2196 -4.13707 -3.57083 0
M  V30 868 H 82.3136 -0.602242 -0.566775 0
M  V30 869 H 84.8596 -1.62067 -0.503229 0
M  V30 870 H 83.6316 -3.62499 -1.47343 0
M  V30 871 H 83.2546 -2.70066 -2.91805 0
M  V30 872 N 84.2517 0.741722 -1.39055 0
M  V30 873 C 85.1617 1.88621 -1.39496 0
M  V30 874 C 86.1777 1.71557 -0.290578 0
M  V30 875 O 87.3537 1.94275 -0.530954 0
M  V30 876 C 84.4187 3.24134 -1.23037 0
M  V30 877 C 83.4797 3.5364 -2.43387 0
M  V30 878 C 82.7127 4.82687 -2.27703 0
M  V30 879 O 82.9357 5.55922 -1.27696 0
M  V30 880 O 81.8697 5.1194 -3.16545 0
M  V30 881 H 85.6957 1.91203 -2.35956 0
M  V30 882 H 83.2807 0.888625 -1.20099 0
M  V30 883 H 85.1627 4.0513 -1.15964 0
M  V30 884 H 83.8377 3.22337 -0.296691 0
M  V30 885 H 82.7447 2.72758 -2.56035 0
M  V30 886 H 84.0777 3.60209 -3.35425 0
M  V30 887 N 85.7298 1.2412 0.971189 0
M  V30 888 C 86.9758 1.08041 1.71625 0
M  V30 889 C 87.3088 -0.380407 1.90438 0
M  V30 890 O 86.5838 -1.28127 1.46334 0
M  V30 891 C 86.8668 1.81682 3.10908 0
M  V30 892 C 86.7198 3.35493 2.99608 0
M  V30 893 C 88.0388 1.58671 4.10501 0
M  V30 894 H 85.1578 0.39388 0.622919 0
M  V30 895 H 87.7998 1.52743 1.13003 0
M  V30 896 H 85.9498 1.43684 3.60953 0
M  V30 897 H 87.6218 3.83068 2.57015 0
M  V30 898 H 85.8648 3.64052 2.35899 0
M  V30 899 H 86.5358 3.82217 3.98264 0
M  V30 900 H 89.0118 1.91719 3.69301 0
M  V30 901 H 87.8878 2.1266 5.06031 0
M  V30 902 H 88.1488 0.524161 4.38982 0
M  V30 903 N 87.2079 -1.17134 1.05439 0
M  V30 904 C 88.4559 -1.87085 0.764429 0
M  V30 905 C 88.7769 -1.81584 -0.710787 0
M  V30 906 O 88.0469 -1.24349 -1.51374 0
M  V30 907 H 86.6269 -0.692627 0.279779 0
M  V30 908 H 89.2889 -1.42087 1.33406 0
M  V30 909 H 88.3849 -2.92759 1.0816 0
M  V30 910 N 88.686 -0.835752 -1.33615 0
M  V30 911 C 89.636 -0.238856 -2.26745 0
M  V30 912 C 90.62 0.604343 -1.49119 0
M  V30 913 O 91.812 0.456822 -1.71003 0
M  V30 914 C 88.941 0.587725 -3.38232 0
M  V30 915 C 88.027 -0.266811 -4.2326 0
M  V30 916 N 88.418 -1.34403 -4.87616 0
M  V30 917 C 86.716 -0.0533131 -4.45968 0
M  V30 918 C 87.417 -1.86819 -5.50884 0
M  V30 919 N 86.393 -1.17013 -5.30857 0
M  V30 920 H 90.195 -1.06266 -2.74016 0
M  V30 921 H 87.709 -0.679881 -1.47483 0
M  V30 922 H 89.706 1.03161 -4.03935 0
M  V30 923 H 88.366 1.40954 -2.9251 0
M  V30 924 H 89.377 -1.7269 -4.88261 0
M  V30 925 H 86.054 0.735312 -4.10974 0
M  V30 926 H 87.444 -2.7701 -6.1214 0
M  V30 927 N 90.1641 1.46063 -0.591896 0
M  V30 928 C 91.4041 2.04228 -0.0838014 0
M  V30 929 C 91.7681 1.45231 1.25587 0
M  V30 930 O 92.9691 1.94653 1.85375 0
M  V30 931 C 91.2401 3.57389 -0.0286282 0
M  V30 932 S 92.7991 4.3678 0.420557 0
M  V30 933 H 89.6171 0.709762 -0.0419319 0
M  V30 934 H 92.2191 1.78983 -0.786465 0
M  V30 935 H 90.9231 3.97843 -1.00743 0
M  V30 936 H 90.4541 3.87185 0.69652 0
M  V30 937 H 92.4691 4.67131 1.67341 0
M  V30 938 N 91.6422 0.330177 1.54103 0
M  V30 939 C 92.8882 -0.270806 2.00984 0
M  V30 940 C 93.2212 -1.51265 1.21789 0
M  V30 941 O 92.4962 -1.92142 0.301927 0
M  V30 942 C 92.7792 -0.598339 3.55094 0
M  V30 943 C 92.6322 0.654674 4.4501 0
M  V30 944 C 93.9512 -1.41334 4.16789 0
M  V30 945 H 91.0702 -0.0969531 0.730595 0
M  V30 946 H 93.7122 0.448066 1.84641 0
M  V30 947 H 91.8622 -1.21078 3.69151 0
M  V30 948 H 93.5342 1.29285 4.42813 0
M  V30 949 H 91.7772 1.28224 4.14416 0
M  V30 950 H 92.4482 0.380944 5.50684 0
M  V30 951 H 94.9242 -0.895597 4.06347 0
M  V30 952 H 93.8002 -1.61127 5.24718 0
M  V30 953 H 94.0612 -2.41146 3.70541 0
M  V30 954 N 93.1203 -1.57491 0.0584922 0
M  V30 955 C 94.3683 -1.92597 -0.612436 0
M  V30 956 C 94.6893 -0.938162 -1.70949 0
M  V30 957 O 93.9593 0.0158301 -1.95894 0
M  V30 958 H 92.5393 -0.710964 -0.229214 0
M  V30 959 H 95.2013 -1.94571 0.113218 0
M  V30 960 H 94.2973 -2.94038 -1.04633 0
M  V30 961 N 94.5984 0.214957 -1.56127 0
M  V30 962 C 95.8444 0.939762 -1.79712 0
M  V30 963 C 96.1774 1.83723 -0.629247 0
M  V30 964 O 95.4524 1.90925 0.371197 0
M  V30 965 C 95.7354 1.77306 -3.13424 0
M  V30 966 C 95.5884 0.90164 -4.40671 0
M  V30 967 C 96.9074 2.74956 -3.43638 0
M  V30 968 H 94.0264 0.340214 -0.653776 0
M  V30 969 H 96.6684 0.20824 -1.88855 0
M  V30 970 H 94.8184 2.39673 -3.0576 0
M  V30 971 H 96.4904 0.294206 -4.60361 0
M  V30 972 H 94.7334 0.207368 -4.33304 0
M  V30 973 H 95.4044 1.51923 -5.30682 0
M  V30 974 H 97.8804 2.22724 -3.51473 0
M  V30 975 H 96.7564 3.30358 -4.38355 0
M  V30 976 H 97.0174 3.53023 -2.66134 0
M  V30 977 N 96.0765 1.50051 0.48192 0
M  V30 978 C 97.3065 1.63999 1.2565 0
M  V30 979 C 97.7145 0.318288 1.86504 0
M  V30 980 O 97.0575 -0.708534 1.69486 0
M  V30 981 C 97.1195 2.66504 2.4128 0
M  V30 982 C 96.7835 4.10352 2.01148 0
M  V30 983 C 97.7805 4.96562 1.54021 0
M  V30 984 C 95.4655 4.56203 2.10199 0
M  V30 985 C 97.4595 6.26668 1.16473 0
M  V30 986 C 95.1465 5.86318 1.72264 0
M  V30 987 C 96.1445 6.71375 1.25477 0
M  V30 988 O 95.8325 7.99062 0.880626 0
M  V30 989 H 95.5645 0.55456 0.386574 0
M  V30 990 H 98.1185 1.96954 0.582944 0
M  V30 991 H 96.3485 2.28769 3.11772 0
M  V30 992 H 98.0375 2.69783 3.03268 0
M  V30 993 H 98.8035 4.62358 1.46458 0
M  V30 994 H 94.6825 3.90152 2.45566 0
M  V30 995 H 98.2265 6.93011 0.798841 0
M  V30 996 H 94.1235 6.20046 1.79482 0
M  V30 997 H 94.8915 8.12239 1.01043 0
M  V30 998 N 97.5546 -0.734337 1.39446 0
M  V30 999 C 98.8316 -1.48579 1.27215 0
M  V30 1000 C 99.2116 -2.1077 -0.117968 0
M  V30 1001 O 98.5596 -1.98646 -1.12924 0
M  V30 1002 C 98.7696 -2.53667 2.39696 0
M  V30 1003 C 100.118 -3.20031 2.79044 0
M  V30 1004 O 101.142 -2.6398 2.39151 0
M  V30 1005 O 100.001 -4.21455 3.47905 0
M  V30 1006 H 97.0946 -0.659816 0.49857 0
M  V30 1007 H 99.6406 -0.768106 1.51322 0
M  V30 1008 H 98.4126 -2.06096 3.32626 0
M  V30 1009 H 98.0356 -3.32994 2.17258 0
M  V30 1010 N 99.0327 -1.24633 -0.964593 0
M  V30 1011 C 99.9807 -1.03917 -2.08096 0
M  V30 1012 C 100.975 0.0268581 -1.69379 0
M  V30 1013 O 102.181 -0.127952 -1.79545 0
M  V30 1014 H 98.5557 -0.319044 -0.680966 0
M  V30 1015 H 100.527 -1.98581 -2.22729 0
M  V30 1016 C 99.2757 -0.663983 -3.41301 0
M  V30 1017 H 98.5987 -1.47605 -3.71555 0
M  V30 1018 H 100.039 -0.558663 -4.20303 0
M  V30 1019 C 98.4977 0.629169 -3.30973 0
M  V30 1020 O 99.0277 1.67404 -3.65156 0
M  V30 1021 N 97.2337 0.611057 -2.84103 0
M  V30 1022 H 96.7807 -0.239593 -2.56483 0
M  V30 1023 H 96.7387 1.47647 -2.77575 0
M  V30 1024 N 100.511 1.16574 -1.06058 0
M  V30 1025 C 101.922 1.68662 -0.800632 0
M  V30 1026 C 102.273 1.84184 0.67608 0
M  V30 1027 O 101.398 1.53568 1.52466 0
M  V30 1028 C 101.993 3.06356 -1.44676 0
M  V30 1029 C 100.552 3.55575 -1.23465 0
M  V30 1030 C 99.6988 2.31616 -1.52477 0
M  V30 1031 H 102.65 1.00969 -1.22438 0
M  V30 1032 H 102.671 3.70636 -0.860788 0
M  V30 1033 H 102.183 2.95027 -2.52152 0
M  V30 1034 H 100.284 3.72167 -0.179527 0
M  V30 1035 H 100.397 4.37812 -1.94571 0
M  V30 1036 H 98.7608 2.36512 -0.945209 0
M  V30 1037 H 99.5438 2.22887 -2.61106 0
M  V30 1038 N 101.989 0.842826 1.3317 0
M  V30 1039 C 102.952 0.284065 2.27433 0
M  V30 1040 C 103.952 -0.54948 1.5112 0
M  V30 1041 O 105.142 -0.362699 1.70382 0
M  V30 1042 C 102.274 -0.599384 3.35589 0
M  V30 1043 H 103.467 1.11589 2.78366 0
M  V30 1044 H 101.02 0.616221 1.4364 0
M  V30 1045 H 101.755 -1.45349 2.89904 0
M  V30 1046 H 101.54 -0.00291266 3.921 0
M  V30 1047 H 103.03 -0.983488 4.05854 0
M  V30 1048 N 103.467 -1.45747 0.599634 0
M  V30 1049 C 104.744 -1.95585 0.0240846 0
M  V30 1050 C 105.124 -1.54217 -1.44154 0
M  V30 1051 O 104.472 -0.800903 -2.14004 0
M  V30 1052 C 104.682 -3.48344 0.21385 0
M  V30 1053 C 106.03 -4.24504 0.0904902 0
M  V30 1054 O 107.054 -3.55911 0.143558 0
M  V30 1055 O 105.913 -5.46491 -0.0310766 0
M  V30 1056 H 103.007 -0.82602 -0.0402478 0
M  V30 1057 H 105.553 -1.55951 0.669139 0
M  V30 1058 H 104.325 -3.71397 1.23206 0
M  V30 1059 H 103.948 -3.9485 -0.466842 0
M  V30 1060 N 104.945 -0.338344 -1.53925 0
M  V30 1061 C 105.875 0.51328 -2.27789 0
M  V30 1062 C 106.856 1.107 -1.29149 0
M  V30 1063 O 108.041 1.12937 -1.57984 0
M  V30 1064 C 105.171 1.66697 -3.04679 0
M  V30 1065 C 104.125 1.20183 -4.1078 0
M  V30 1066 C 103.451 2.44363 -4.75595 0
M  V30 1067 C 104.751 0.30605 -5.21403 0
M  V30 1068 H 106.445 -0.102883 -2.99223 0
M  V30 1069 H 103.991 -0.0509219 -1.4391 0
M  V30 1070 H 105.944 2.26915 -3.55088 0
M  V30 1071 H 104.668 2.30995 -2.30887 0
M  V30 1072 H 103.327 0.622499 -3.61276 0
M  V30 1073 H 102.975 3.07057 -3.98403 0
M  V30 1074 H 102.675 2.13925 -5.47275 0
M  V30 1075 H 104.199 3.05317 -5.28786 0
M  V30 1076 H 105.613 0.814929 -5.67478 0
M  V30 1077 H 104.01 0.0937929 -6.00027 0
M  V30 1078 H 105.08 -0.65921 -4.80398 0
M  V30 1079 N 106.423 1.57458 -0.0668435 0
M  V30 1080 C 107.648 1.9804 0.616027 0
M  V30 1081 C 108.073 0.944771 1.62652 0
M  V30 1082 O 107.431 -0.0902094 1.81075 0
M  V30 1083 C 107.479 3.37665 1.26549 0
M  V30 1084 O 106.583 3.36701 2.38131 0
M  V30 1085 H 105.924 0.644719 0.158849 0
M  V30 1086 H 108.454 2.04121 -0.139891 0
M  V30 1087 H 108.464 3.7474 1.6135 0
M  V30 1088 H 107.139 4.12573 0.525016 0
M  V30 1089 H 105.716 3.1139 2.0516 0
M  V30 1090 N 107.901 -0.206675 1.56239 0
M  V30 1091 C 108.864 -1.23976 1.92776 0
M  V30 1092 C 109.864 -1.39041 0.807729 0
M  V30 1093 O 111.054 -1.37051 1.0753 0
M  V30 1094 C 108.186 -2.61112 2.19165 0
M  V30 1095 H 109.379 -0.927764 2.85189 0
M  V30 1096 H 106.932 -0.447718 1.4975 0
M  V30 1097 H 107.667 -2.97386 1.29352 0
M  V30 1098 H 107.452 -2.51552 3.00772 0
M  V30 1099 H 108.942 -3.35633 2.48476 0
M  V30 1100 N 109.379 -1.50304 -0.473955 0
M  V30 1101 C 110.326 -1.68959 -1.57231 0
M  V30 1102 C 111.296 -0.530899 -1.57387 0
M  V30 1103 O 112.481 -0.761133 -1.74961 0
M  V30 1104 C 109.621 -1.7871 -2.95223 0
M  V30 1105 C 108.734 -3.06061 -3.04878 0
M  V30 1106 C 107.869 -3.06626 -4.33767 0
M  V30 1107 C 106.908 -4.28443 -4.37154 0
M  V30 1108 N 106.045 -4.26763 -5.5751 0
M  V30 1109 H 110.885 -2.6273 -1.40631 0
M  V30 1110 H 108.422 -1.30241 -0.683789 0
M  V30 1111 H 110.38 -1.82344 -3.75242 0
M  V30 1112 H 109.01 -0.883806 -3.10465 0
M  V30 1113 H 108.062 -3.11911 -2.17751 0
M  V30 1114 H 109.374 -3.96039 -3.0324 0
M  V30 1115 H 108.528 -3.08973 -5.22131 0
M  V30 1116 H 107.267 -2.14473 -4.3801 0
M  V30 1117 H 106.272 -4.2631 -3.47188 0
M  V30 1118 H 107.497 -5.2182 -4.34605 0
M  V30 1119 H 105.443 -3.37462 -5.62544 0
M  V30 1120 H 105.36 -5.10507 -5.57601 0
M  V30 1121 H 106.628 -4.33253 -6.48006 0
M  V30 1122 N 110.857 0.726932 -1.39834 0
M  V30 1123 C 112.082 1.52121 -1.40976 0
M  V30 1124 C 112.507 1.88098 -0.00826029 0
M  V30 1125 O 111.865 1.52479 0.980807 0
M  V30 1126 C 111.913 2.78021 -2.29644 0
M  V30 1127 O 111.017 3.74272 -1.73188 0
M  V30 1128 H 110.358 0.45908 -0.479731 0
M  V30 1129 H 112.888 0.896207 -1.83927 0
M  V30 1130 H 112.898 3.26671 -2.44438 0
M  V30 1131 H 111.573 2.51169 -3.31492 0
M  V30 1132 H 110.15 3.33073 -1.6768 0
M  V30 1133 N 112.336 1.25143 0.95797 0
M  V30 1134 C 113.582 1.10863 1.70531 0
M  V30 1135 C 113.937 -0.347391 1.89238 0
M  V30 1136 O 113.23 -1.25262 1.44983 0
M  V30 1137 C 113.424 1.79272 3.09187 0
M  V30 1138 C 113.253 3.31376 3.04006 0
M  V30 1139 C 112.023 4.0062 3.07948 0
M  V30 1140 C 114.221 4.27825 2.8543 0
M  V30 1141 N 112.203 5.39526 2.9289 0
M  V30 1142 C 113.574 5.53794 2.78769 0
M  V30 1143 C 115.629 4.1828 2.70085 0
M  V30 1144 C 114.332 6.7131 2.58331 0
M  V30 1145 C 116.358 5.35485 2.51017 0
M  V30 1146 C 115.72 6.60393 2.45073 0
M  V30 1147 H 111.819 0.460362 0.632132 0
M  V30 1148 H 114.403 1.58196 1.13499 0
M  V30 1149 H 112.574 1.34439 3.64391 0
M  V30 1150 H 114.306 1.57764 3.72683 0
M  V30 1151 H 111.061 3.51855 3.17009 0
M  V30 1152 H 111.485 6.12416 2.88574 0
M  V30 1153 H 116.127 3.22461 2.73457 0
M  V30 1154 H 113.845 7.67243 2.53701 0
M  V30 1155 H 117.431 5.29959 2.40073 0
M  V30 1156 H 116.311 7.49557 2.30509 0
M  V30 1157 N 113.814 -1.1601 1.06675 0
M  V30 1158 C 115.042 -1.90527 0.806667 0
M  V30 1159 C 115.457 -1.77643 -0.639396 0
M  V30 1160 O 114.814 -1.12369 -1.43803 0
M  V30 1161 C 114.865 -3.41106 1.19705 0
M  V30 1162 O 114.586 -3.53608 2.58636 0
M  V30 1163 C 116.087 -4.32663 0.965266 0
M  V30 1164 H 113.307 -0.604053 0.292166 0
M  V30 1165 H 115.851 -1.47026 1.4214 0
M  V30 1166 H 114.006 -3.82296 0.626774 0
M  V30 1167 H 114.42 -4.47011 2.74375 0
M  V30 1168 H 115.894 -5.36763 1.288 0
M  V30 1169 H 116.371 -4.39089 -0.0987936 0
M  V30 1170 H 116.977 -3.97206 1.52011 0
M  V30 1171 N 115.292 -0.849877 -1.32721 0
M  V30 1172 C 116.538 -0.451591 -1.97708 0
M  V30 1173 C 116.871 0.989175 -1.6712 0
M  V30 1174 O 116.146 1.69334 -0.956891 0
M  V30 1175 C 116.429 -0.685598 -3.53513 0
M  V30 1176 C 116.282 -2.17444 -3.93749 0
M  V30 1177 C 117.601 -0.138874 -4.39881 0
M  V30 1178 H 114.72 -0.16555 -0.718166 0
M  V30 1179 H 117.362 -1.06742 -1.57182 0
M  V30 1180 H 115.512 -0.161416 -3.88165 0
M  V30 1181 H 117.184 -2.76433 -3.693 0
M  V30 1182 H 115.427 -2.65476 -3.43081 0
M  V30 1183 H 116.098 -2.28888 -5.02309 0
M  V30 1184 H 118.574 -0.587068 -4.11938 0
M  V30 1185 H 117.45 -0.332213 -5.47894 0
M  V30 1186 H 117.711 0.95806 -4.31594 0
M  V30 1187 N 116.77 1.45427 -0.607355 0
M  V30 1188 C 117.703 2.27635 0.160482 0
M  V30 1189 C 118.681 1.37122 0.873857 0
M  V30 1190 O 119.865 1.66551 0.882775 0
M  V30 1191 C 116.992 3.15486 1.23231 0
M  V30 1192 C 116.038 4.21939 0.622097 0
M  V30 1193 S 116.871 5.32459 -0.569852 0
M  V30 1194 C 118.027 6.23879 0.502577 0
M  V30 1195 H 118.26 2.9241 -0.536983 0
M  V30 1196 H 115.793 1.49265 -0.394868 0
M  V30 1197 H 117.751 3.66659 1.84585 0
M  V30 1198 H 116.412 2.49977 1.90185 0
M  V30 1199 H 115.605 4.8333 1.42856 0
M  V30 1200 H 115.207 3.73906 0.0837063 0
M  V30 1201 H 117.499 6.63261 1.38171 0
M  V30 1202 H 118.442 7.0806 -0.0751759 0
M  V30 1203 H 118.85 5.58545 0.8178 0
M  V30 1204 N 118.248 0.346503 1.53744 0
M  V30 1205 C 119.664 -0.00530975 1.59599 0
M  V30 1206 C 119.864 -1.48465 1.36236 0
M  V30 1207 O 118.92 -2.24376 1.15808 0
M  V30 1208 C 120.233 0.433516 2.97559 0
M  V30 1209 C 121.781 0.386111 3.10609 0
M  V30 1210 C 122.256 0.800451 4.50951 0
M  V30 1211 N 123.747 0.754753 4.5701 0
M  V30 1212 C 124.482 1.04727 5.63755 0
M  V30 1213 N 123.978 1.4081 6.7834 0
M  V30 1214 N 125.771 0.971316 5.53644 0
M  V30 1215 H 117.922 1.31009 1.67184 0
M  V30 1216 H 120.185 0.534242 0.783128 0
M  V30 1217 H 119.891 1.46509 3.19731 0
M  V30 1218 H 119.765 -0.189753 3.76722 0
M  V30 1219 H 122.152 -0.636295 2.88158 0
M  V30 1220 H 122.233 1.04462 2.33498 0
M  V30 1221 H 121.877 1.82088 4.74137 0
M  V30 1222 H 121.807 0.119386 5.26465 0
M  V30 1223 H 124.298 0.488662 3.74727 0
M  V30 1224 H 124.611 1.61607 7.55714 0
M  V30 1225 H 122.956 1.44657 6.79779 0
M  V30 1226 H 126.147 0.688748 4.63005 0
M  V30 1227 H 126.32 1.20263 6.36742 0
M  V30 1228 N 119.726 -1.57421 0.075193 0
M  V30 1229 C 120.973 -1.93618 -0.593146 0
M  V30 1230 C 121.301 -0.955484 -1.69413 0
M  V30 1231 O 120.556 0.0283251 -1.9568 0
M  V30 1232 C 120.855 -3.36428 -1.20626 0
M  V30 1233 C 120.521 -4.50307 -0.231078 0
M  V30 1234 C 119.183 -4.81186 0.0371936 0
M  V30 1235 C 121.535 -5.19374 0.435888 0
M  V30 1236 C 118.863 -5.78466 0.979461 0
M  V30 1237 C 121.215 -6.17665 1.3665 0
M  V30 1238 C 119.879 -6.46958 1.6432 0
M  V30 1239 H 119.149 -0.708499 -0.217047 0
M  V30 1240 H 121.796 -1.90937 0.146793 0
M  V30 1241 H 120.101 -3.35592 -2.02201 0
M  V30 1242 H 121.798 -3.61727 -1.73073 0
M  V30 1243 H 118.388 -4.26227 -0.450357 0
M  V30 1244 H 122.572 -4.95711 0.241748 0
M  V30 1245 H 117.828 -5.99487 1.20106 0
M  V30 1246 H 122.002 -6.70284 1.88924 0
M  V30 1247 H 119.629 -7.2215 2.37494 0
M  V30 1248 N 121.204 0.198386 -1.56346 0
M  V30 1249 C 122.429 0.939682 -1.84891 0
M  V30 1250 C 122.854 1.76202 -0.658369 0
M  V30 1251 O 122.212 1.76993 0.392851 0
M  V30 1252 C 122.26 1.81428 -3.11635 0
M  V30 1253 O 121.364 2.91265 -2.91956 0
M  V30 1254 H 120.705 0.264807 -0.608912 0
M  V30 1255 H 123.235 0.204695 -2.03573 0
M  V30 1256 H 123.245 2.21958 -3.42343 0
M  V30 1257 H 121.92 1.21004 -3.97908 0
M  V30 1258 H 120.497 2.54514 -2.72538 0
M  V30 1259 N 122.682 1.50554 0.465978 0
M  V30 1260 C 123.592 1.72585 1.58907 0
M  V30 1261 C 124.608 0.60911 1.6299 0
M  V30 1262 O 125.784 0.88804 1.80765 0
M  V30 1263 C 122.849 1.81995 2.95091 0
M  V30 1264 C 121.91 3.05751 3.01355 0
M  V30 1265 C 121.143 3.14702 4.31043 0
M  V30 1266 O 121.366 2.30313 5.21835 0
M  V30 1267 O 120.3 4.07468 4.43005 0
M  V30 1268 H 124.126 2.67799 1.43239 0
M  V30 1269 H 121.711 1.34711 0.646013 0
M  V30 1270 H 123.593 1.90335 3.75966 0
M  V30 1271 H 122.268 0.899659 3.10947 0
M  V30 1272 H 121.175 3.02908 2.19539 0
M  V30 1273 H 122.508 3.97375 2.90437 0
M  V30 1274 N 124.16 -0.719506 1.40217 0
M  V30 1275 C 125.388 -1.50864 1.41589 0
M  V30 1276 C 125.803 -1.88794 0.0145275 0
M  V30 1277 O 125.16 -1.55174 -0.960594 0
M  V30 1278 C 125.211 -2.78646 2.30302 0
M  V30 1279 O 124.932 -2.42321 3.64983 0
M  V30 1280 C 126.433 -3.72569 2.40224 0
M  V30 1281 H 123.653 -0.465709 0.48307 0
M  V30 1282 H 126.197 -0.88785 1.84221 0
M  V30 1283 H 124.352 -3.37019 1.91042 0
M  V30 1284 H 124.766 -3.24514 4.12057 0
M  V30 1285 H 126.24 -4.5908 3.06512 0
M  V30 1286 H 126.717 -4.15403 1.42608 0
M  V30 1287 H 127.323 -3.20109 2.80019 0
M  V30 1288 N 125.638 -1.25649 -0.95132 0
M  V30 1289 C 126.548 -1.08073 -2.08224 0
M  V30 1290 C 127.564 -0.0169666 -1.73992 0
M  V30 1291 O 128.74 -0.218593 -2.0021 0
M  V30 1292 C 125.805 -0.704922 -3.39458 0
M  V30 1293 C 124.866 -1.84699 -3.87537 0
M  V30 1294 C 124.099 -1.48902 -5.12508 0
M  V30 1295 O 124.322 -0.386156 -5.69091 0
M  V30 1296 O 123.256 -2.32033 -5.55378 0
M  V30 1297 H 127.082 -2.02924 -2.25954 0
M  V30 1298 H 124.667 -1.04618 -1.06656 0
M  V30 1299 H 126.549 -0.507609 -4.18332 0
M  V30 1300 H 125.224 0.214291 -3.2299 0
M  V30 1301 H 124.131 -2.09919 -3.09653 0
M  V30 1302 H 125.464 -2.74557 -4.08509 0
M  V30 1303 N 127.117 1.15442 -1.07289 0
M  V30 1304 C 128.049 2.19773 -0.650585 0
M  V30 1305 C 129.062 1.60076 0.296572 0
M  V30 1306 O 130.251 1.78293 0.0859905 0
M  V30 1307 C 127.351 3.38838 0.0650398 0
M  V30 1308 C 126.524 4.2808 -0.898141 0
M  V30 1309 C 125.583 5.2574 -0.219926 0
M  V30 1310 O 124.609 5.62654 -0.860773 0
M  V30 1311 N 125.811 5.71205 1.03466 0
M  V30 1312 H 128.576 2.56622 -1.54808 0
M  V30 1313 H 126.137 1.30551 -0.957494 0
M  V30 1314 H 128.129 4.01222 0.529415 0
M  V30 1315 H 126.699 3.00409 0.864466 0
M  V30 1316 H 125.919 3.62804 -1.54165 0
M  V30 1317 H 127.207 4.84577 -1.5512 0
M  V30 1318 H 126.605 5.43325 1.57526 0
M  V30 1319 H 125.162 6.35633 1.44272 0
M  V30 1320 N 128.595 0.856903 1.32268 0
M  V30 1321 C 129.543 0.291987 2.3076 0
M  V30 1322 C 130.537 -0.585857 1.58947 0
M  V30 1323 O 131.743 -0.47341 1.73663 0
M  V30 1324 H 128.118 0.075721 0.748178 0
M  V30 1325 H 130.089 1.13687 2.75895 0
M  V30 1326 C 128.838 -0.502869 3.44044 0
M  V30 1327 H 128.161 0.163328 3.99466 0
M  V30 1328 H 129.601 -0.863691 4.1511 0
M  V30 1329 C 128.06 -1.68898 2.91505 0
M  V30 1330 O 128.59 -2.78811 2.89184 0
M  V30 1331 N 126.796 -1.51679 2.47875 0
M  V30 1332 H 126.343 -0.622666 2.49961 0
M  V30 1333 H 126.301 -2.31184 2.13076 0
M  V30 1334 N 130.073 -1.45103 0.615059 0
M  V30 1335 C 131.321 -2.01784 0.112955 0
M  V30 1336 C 131.642 -1.48504 -1.26378 0
M  V30 1337 O 130.912 -0.682245 -1.83636 0
M  V30 1338 H 129.492 -0.745993 0.0387668 0
M  V30 1339 H 132.154 -1.77808 0.798141 0
M  V30 1340 H 131.25 -3.12025 0.0684069 0
M  V30 1341 N 131.551 -0.354651 -1.53558 0
M  V30 1342 C 132.498 0.496968 -2.25386 0
M  V30 1343 C 133.468 1.0865 -1.25636 0
M  V30 1344 O 134.653 1.12104 -1.54394 0
M  V30 1345 C 131.793 1.63637 -3.03837 0
M  V30 1346 C 130.906 1.07307 -4.18461 0
M  V30 1347 C 130.041 2.18068 -4.84376 0
M  V30 1348 C 129.08 1.59147 -5.91049 0
M  V30 1349 N 128.217 2.63695 -6.50699 0
M  V30 1350 H 133.057 -0.122075 -2.9775 0
M  V30 1351 H 130.594 -0.0720154 -1.46924 0
M  V30 1352 H 132.552 2.30734 -3.47589 0
M  V30 1353 H 131.182 2.22623 -2.33749 0
M  V30 1354 H 130.234 0.292708 -3.79272 0
M  V30 1355 H 131.546 0.602193 -4.95152 0
M  V30 1356 H 130.7 2.93007 -5.31255 0
M  V30 1357 H 129.439 2.68504 -4.07133 0
M  V30 1358 H 128.444 0.827175 -5.43542 0
M  V30 1359 H 129.669 1.09549 -6.70206 0
M  V30 1360 H 127.615 3.13365 -5.76315 0
M  V30 1361 H 127.532 2.21263 -7.22896 0
M  V30 1362 H 128.8 3.3837 -7.02229 0
M  V30 1363 N 133.029 1.57378 -0.0835403 0
M  V30 1364 C 133.959 2.1641 0.87686 0
M  V30 1365 C 134.94 1.09429 1.30228 0
M  V30 1366 O 136.125 1.37516 1.37124 0
M  V30 1367 C 133.255 2.73517 2.14022 0
M  V30 1368 C 132.209 3.85769 1.85381 0
M  V30 1369 C 131.535 4.29529 3.18448 0
M  V30 1370 C 132.835 5.09486 1.14984 0
M  V30 1371 H 134.529 2.96914 0.385059 0
M  V30 1372 H 132.075 1.42823 0.18377 0
M  V30 1373 H 134.028 3.13463 2.81636 0
M  V30 1374 H 132.752 1.90252 2.65465 0
M  V30 1375 H 131.411 3.46345 1.20169 0
M  V30 1376 H 131.059 3.43169 3.67755 0
M  V30 1377 H 130.759 5.05204 3.00071 0
M  V30 1378 H 132.283 4.72099 3.8724 0
M  V30 1379 H 133.697 5.46674 1.72687 0
M  V30 1380 H 132.094 5.90515 1.06826 0
M  V30 1381 H 133.164 4.84724 0.130749 0
M  V30 1382 N 134.507 -0.190092 1.56449 0
M  V30 1383 C 135.417 -1.25591 1.98152 0
M  V30 1384 C 136.433 -1.49519 0.889944 0
M  V30 1385 O 137.609 -1.62036 1.19609 0
M  V30 1386 C 134.674 -2.57916 2.3169 0
M  V30 1387 C 133.735 -2.42015 3.5458 0
M  V30 1388 C 132.968 -3.6803 3.8651 0
M  V30 1389 O 133.191 -4.72413 3.1966 0
M  V30 1390 O 132.125 -3.6326 4.79923 0
M  V30 1391 H 135.951 -0.931988 2.89046 0
M  V30 1392 H 133.536 -0.395488 1.4407 0
M  V30 1393 H 135.418 -3.36008 2.54316 0
M  V30 1394 H 134.093 -2.89925 1.43963 0
M  V30 1395 H 133 -1.62017 3.37196 0
M  V30 1396 H 134.333 -2.14937 4.4279 0
M  V30 1397 N 135.985 -1.50799 -0.457987 0
M  V30 1398 C 137.231 -1.63648 -1.20792 0
M  V30 1399 C 137.586 -0.338662 -1.89396 0
M  V30 1400 O 136.879 0.664291 -1.79716 0
M  V30 1401 C 137.073 -2.76358 -2.2663 0
M  V30 1402 C 136.902 -4.16974 -1.68411 0
M  V30 1403 C 135.672 -4.83199 -1.47807 0
M  V30 1404 C 137.87 -5.00774 -1.17176 0
M  V30 1405 N 135.852 -6.07991 -0.849692 0
M  V30 1406 C 137.223 -6.16397 -0.667403 0
M  V30 1407 C 139.278 -4.86452 -1.06155 0
M  V30 1408 C 137.981 -7.19272 -0.0636908 0
M  V30 1409 C 140.007 -5.89515 -0.471759 0
M  V30 1410 C 139.369 -7.04397 0.0221557 0
M  V30 1411 H 135.468 -0.652888 -0.43042 0
M  V30 1412 H 138.052 -1.87962 -0.507785 0
M  V30 1413 H 136.223 -2.53744 -2.94056 0
M  V30 1414 H 137.955 -2.78496 -2.93636 0
M  V30 1415 H 134.71 -4.40714 -1.73403 0
M  V30 1416 H 135.134 -6.74733 -0.553537 0
M  V30 1417 H 139.776 -3.97907 -1.42932 0
M  V30 1418 H 137.494 -8.07481 0.316253 0
M  V30 1419 H 141.08 -5.805 -0.388671 0
M  V30 1420 H 139.96 -7.82782 0.471375 0
M  V30 1421 N 137.463 0.71206 -1.40597 0
M  V30 1422 C 138.393 1.83889 -1.43899 0
M  V30 1423 C 139.374 1.67442 -0.299504 0
M  V30 1424 O 140.559 1.87421 -0.508624 0
M  V30 1425 C 137.689 3.21877 -1.30431 0
M  V30 1426 C 136.643 3.53002 -2.42019 0
M  V30 1427 C 135.969 4.90172 -2.13626 0
M  V30 1428 C 137.269 3.53643 -3.84362 0
M  V30 1429 H 138.963 1.81383 -2.38203 0
M  V30 1430 H 136.509 0.871237 -1.14654 0
M  V30 1431 H 138.462 4.00404 -1.31357 0
M  V30 1432 H 137.186 3.24968 -0.326049 0
M  V30 1433 H 135.845 2.76818 -2.40349 0
M  V30 1434 H 135.493 4.89869 -1.14182 0
M  V30 1435 H 135.193 5.11962 -2.88389 0
M  V30 1436 H 136.717 5.71028 -2.1624 0
M  V30 1437 H 138.131 4.22203 -3.87837 0
M  V30 1438 H 136.528 3.86961 -4.58673 0
M  V30 1439 H 137.598 2.52954 -4.13693 0
M  V30 1440 N 138.941 1.26152 0.944643 0
M  V30 1441 C 140.19 1.10883 1.68487 0
M  V30 1442 C 140.503 -0.348153 1.92477 0
M  V30 1443 O 141.709 -0.621459 2.64292 0
M  V30 1444 C 140.165 1.93624 3.03377 0
M  V30 1445 C 139.773 3.43875 2.87148 0
M  V30 1446 C 141.517 1.86954 3.81115 0
M  V30 1447 C 139.424 4.18875 4.1749 0
M  V30 1448 H 138.354 0.41135 0.631907 0
M  V30 1449 H 141.005 1.50433 1.05082 0
M  V30 1450 H 139.387 1.46904 3.67743 0
M  V30 1451 H 140.561 3.98338 2.31653 0
M  V30 1452 H 138.876 3.51744 2.22856 0
M  V30 1453 H 141.473 2.40275 4.77673 0
M  V30 1454 H 141.816 0.839518 4.07747 0
M  V30 1455 H 142.349 2.31477 3.23517 0
M  V30 1456 H 139.088 5.22332 3.96043 0
M  V30 1457 H 138.608 3.69193 4.72712 0
M  V30 1458 H 140.287 4.27134 4.85968 0
M  V30 1459 N 140.419 -1.14872 1.07899 0
M  V30 1460 C 141.835 -1.37776 0.805606 0
M  V30 1461 C 142.035 -1.92743 -0.587555 0
M  V30 1462 O 141.091 -2.13678 -1.34528 0
M  V30 1463 C 142.404 -2.34361 1.88402 0
M  V30 1464 C 143.952 -2.48012 1.90942 0
M  V30 1465 C 144.427 -3.47893 2.97883 0
M  V30 1466 N 145.918 -3.55433 2.97021 0
M  V30 1467 C 146.653 -4.32553 3.76412 0
M  V30 1468 N 146.149 -5.12959 4.65666 0
M  V30 1469 N 147.942 -4.27697 3.64735 0
M  V30 1470 H 140.093 -0.775365 1.97742 0
M  V30 1471 H 142.356 -0.403521 0.857831 0
M  V30 1472 H 142.062 -2.01098 2.88535 0
M  V30 1473 H 141.936 -3.34206 1.74889 0
M  V30 1474 H 144.323 -2.8057 0.914579 0
M  V30 1475 H 144.404 -1.48147 2.08534 0
M  V30 1476 H 144.048 -3.16069 3.97571 0
M  V30 1477 H 143.978 -4.47527 2.77538 0
M  V30 1478 H 146.469 -2.98048 2.32326 0
M  V30 1479 H 146.782 -5.69065 5.22862 0
M  V30 1480 H 145.127 -5.12245 4.69712 0
M  V30 1481 H 148.318 -3.63949 2.94378 0
M  V30 1482 H 148.491 -4.8755 4.26848 0
M  V30 1483 N 141.898 -0.863906 -1.31812 0
M  V30 1484 C 142.845 -0.313303 -2.28664 0
M  V30 1485 C 143.815 0.584868 -1.55462 0
M  V30 1486 O 145 0.517805 -1.83639 0
M  V30 1487 C 142.14 0.48441 -3.41683 0
M  V30 1488 C 141.253 -0.440594 -4.29747 0
M  V30 1489 C 140.388 0.370652 -5.29905 0
M  V30 1490 C 139.427 -0.551164 -6.09613 0
M  V30 1491 N 138.564 0.223462 -7.01744 0
M  V30 1492 H 143.404 -1.14444 -2.75148 0
M  V30 1493 H 140.941 -0.575769 -1.35364 0
M  V30 1494 H 142.899 0.962627 -4.05943 0
M  V30 1495 H 141.529 1.28029 -2.96325 0
M  V30 1496 H 140.581 -1.03724 -3.65986 0
M  V30 1497 H 141.893 -1.14767 -4.85417 0
M  V30 1498 H 141.047 0.911638 -5.99812 0
M  V30 1499 H 139.786 1.11105 -4.74876 0
M  V30 1500 H 138.791 -1.10396 -5.38603 0
M  V30 1501 H 140.016 -1.29032 -6.66729 0
M  V30 1502 H 137.962 0.946787 -6.49132 0
M  V30 1503 H 137.879 -0.424399 -7.54808 0
M  V30 1504 H 139.147 0.745876 -7.75923 0
M  V30 1505 N 143.376 1.44774 -0.622745 0
M  V30 1506 C 144.653 1.95522 -0.0551974 0
M  V30 1507 C 145.033 1.5649 1.41683 0
M  V30 1508 O 144.381 0.834848 2.12703 0
M  V30 1509 C 144.591 3.4796 -0.269242 0
M  V30 1510 C 145.939 4.24306 -0.158014 0
M  V30 1511 O 146.963 3.55637 -0.200162 0
M  V30 1512 O 145.822 5.46471 -0.0558693 0
M  V30 1513 H 142.916 0.826556 0.0271015 0
M  V30 1514 H 145.462 1.54866 -0.693864 0
M  V30 1515 H 144.234 3.6939 -1.29099 0
M  V30 1516 H 143.857 3.95543 0.403966 0
M  V30 1517 N 144.854 0.36279 1.53368 0
M  V30 1518 C 146.102 -0.227326 2.00817 0
M  V30 1519 C 146.423 -1.49511 1.25186 0
M  V30 1520 O 145.693 -1.92482 0.364348 0
M  V30 1521 H 144.273 -0.0869923 0.741917 0
M  V30 1522 H 146.935 0.488381 1.88682 0
M  V30 1523 H 146.031 -0.456273 3.08747 0
M  V30 1524 N 146.332 -1.57332 0.0918853 0
M  V30 1525 C 147.572 -1.96117 -0.575988 0
M  V30 1526 C 147.936 -0.972499 -1.65549 0
M  V30 1527 O 149.137 -1.24872 -2.38034 0
M  V30 1528 C 147.408 -3.39407 -1.11973 0
M  V30 1529 S 148.967 -4.00185 -1.79992 0
M  V30 1530 H 145.785 -0.685682 -0.188045 0
M  V30 1531 H 148.387 -1.94755 0.170525 0
M  V30 1532 H 147.091 -4.09131 -0.322504 0
M  V30 1533 H 146.622 -3.44358 -1.90214 0
M  V30 1534 H 148.637 -3.88728 -3.08391 0
M  V30 1535 N 147.81 0.181792 -1.56548 0
M  V30 1536 C 148.743 1.25366 -1.90679 0
M  V30 1537 C 149.721 1.43299 -0.768376 0
M  V30 1538 O 150.905 1.58475 -1.02068 0
M  V30 1539 C 148.032 2.61826 -2.1486 0
M  V30 1540 C 147.078 2.60688 -3.37556 0
M  V30 1541 S 147.911 2.10804 -4.92262 0
M  V30 1542 C 149.067 3.49062 -5.19525 0
M  V30 1543 H 149.3 0.962277 -2.81296 0
M  V30 1544 H 146.833 0.385892 -1.495 0
M  V30 1545 H 148.791 3.40371 -2.29473 0
M  V30 1546 H 147.452 2.88169 -1.24969 0
M  V30 1547 H 146.645 3.61058 -3.51643 0
M  V30 1548 H 146.247 1.90232 -3.22006 0
M  V30 1549 H 148.539 4.45003 -5.10861 0
M  V30 1550 H 149.482 3.39859 -6.2121 0
M  V30 1551 H 149.89 3.4459 -4.47122 0
M  V30 1552 N 149.288 1.51039 0.449983 0
M  V30 1553 C 150.238 1.67824 1.54335 0
M  V30 1554 C 151.222 0.5324 1.51836 0
M  V30 1555 O 152.414 0.787762 1.58503 0
M  V30 1556 C 149.543 1.7951 2.92628 0
M  V30 1557 C 148.629 2.99838 2.9993 0
M  V30 1558 N 149.02 4.23207 2.77001 0
M  V30 1559 C 147.318 2.98832 3.31082 0
M  V30 1560 C 148.019 5.04361 2.89818 0
M  V30 1561 N 146.995 4.38746 3.2094 0
M  V30 1562 H 150.797 2.60884 1.35339 0
M  V30 1563 H 148.311 1.48513 0.657085 0
M  V30 1564 H 150.308 1.89642 3.7127 0
M  V30 1565 H 148.968 0.876227 3.12654 0
M  V30 1566 H 149.979 4.5236 2.52172 0
M  V30 1567 H 146.656 2.16527 3.56963 0
M  V30 1568 H 148.046 6.12528 2.76151 0
M  V30 1569 N 150.766 -0.704594 1.40972 0
M  V30 1570 C 152.006 -1.47691 1.41304 0
M  V30 1571 C 152.37 -1.91992 0.0178582 0
M  V30 1572 O 153.571 -2.68599 -0.103996 0
M  V30 1573 C 151.842 -2.66254 2.38419 0
M  V30 1574 S 153.401 -3.55516 2.57204 0
M  V30 1575 H 150.219 -0.504808 0.500689 0
M  V30 1576 H 152.821 -0.822962 1.77335 0
M  V30 1577 H 151.525 -2.31897 3.38603 0
M  V30 1578 H 151.056 -3.3655 2.03711 0
M  V30 1579 H 153.071 -4.61115 1.83268 0
M  V30 1580 N 152.244 -1.26651 -0.937939 0
M  V30 1581 C 153.154 -1.10276 -2.07066 0
M  V30 1582 C 154.17 -0.0354197 -1.73964 0
M  V30 1583 O 155.346 -0.239816 -1.99967 0
M  V30 1584 C 152.411 -0.740887 -3.38691 0
M  V30 1585 C 151.472 -1.88799 -3.85556 0
M  V30 1586 C 150.705 -1.54329 -5.10899 0
M  V30 1587 O 150.928 -0.446494 -5.6865 0
M  V30 1588 O 149.862 -2.37911 -5.52885 0
M  V30 1589 H 153.688 -2.05309 -2.23789 0
M  V30 1590 H 151.273 -1.05743 -1.0554 0
M  V30 1591 H 153.155 -0.55195 -4.1777 0
M  V30 1592 H 151.83 0.180022 -3.23199 0
M  V30 1593 H 150.737 -2.13191 -3.07409 0
M  V30 1594 H 152.07 -2.78874 -4.05574 0
M  V30 1595 N 153.722 1.14298 -1.08507 0
M  V30 1596 C 154.999 1.81544 -0.728088 0
M  V30 1597 C 155.379 1.95838 0.78808 0
M  V30 1598 O 154.727 1.51904 1.70697 0
M  V30 1599 C 154.937 3.17169 -1.45619 0
M  V30 1600 C 156.285 3.9265 -1.61591 0
M  V30 1601 O 157.309 3.26762 -1.41793 0
M  V30 1602 O 156.168 5.10807 -1.94263 0
M  V30 1603 H 153.262 0.78491 -0.260471 0
M  V30 1604 H 155.808 1.21307 -1.18671 0
M  V30 1605 H 154.58 3.01934 -2.489 0
M  V30 1606 H 154.203 3.851 -0.989124 0
M  V30 1607 N 155.201 0.870884 1.31352 0
M  V30 1608 C 156.612 0.534714 1.78879 0
M  V30 1609 C 156.963 -0.948423 1.71754 0
M  V30 1610 O 156.088 -1.74055 1.28584 0
M  V30 1611 C 156.683 0.963839 3.24801 0
M  V30 1612 C 155.242 0.679311 3.70219 0
M  V30 1613 C 154.389 1.15465 2.52117 0
M  V30 1614 H 157.34 1.05651 1.18421 0
M  V30 1615 H 157.361 0.286892 3.79417 0
M  V30 1616 H 156.873 2.04332 3.29955 0
M  V30 1617 H 154.974 -0.388769 3.70566 0
M  V30 1618 H 155.087 1.25698 4.62317 0
M  V30 1619 H 153.451 0.574383 2.48139 0
M  V30 1620 H 154.234 2.24157 2.60016 0
M  V30 1621 N 156.679 -1.44442 0.630414 0
M  V30 1622 C 157.927 -2.01653 0.134351 0
M  V30 1623 C 158.248 -1.49836 -1.24796 0
M  V30 1624 O 157.518 -0.701684 -1.82902 0
M  V30 1625 H 156.098 -0.74554 0.0466769 0
M  V30 1626 H 158.76 -1.76952 0.816955 0
M  V30 1627 H 157.856 -3.11935 0.101498 0
M  V30 1628 N 158.157 -0.370918 -1.53173 0
M  V30 1629 C 159.397 0.217106 -2.03244 0
M  V30 1630 C 159.761 1.45558 -1.25207 0
M  V30 1631 O 160.962 2.11957 -1.65311 0
M  V30 1632 C 159.233 0.496664 -3.53932 0
M  V30 1633 S 160.792 1.0576 -4.25864 0
M  V30 1634 H 157.61 0.0627827 -0.708223 0
M  V30 1635 H 160.212 -0.515019 -1.88594 0
M  V30 1636 H 158.916 -0.412096 -4.08326 0
M  V30 1637 H 158.447 1.25772 -3.72753 0
M  V30 1638 H 160.462 2.34145 -4.37482 0
M  V30 1639 N 159.635 1.57281 -0.100228 0
M  V30 1640 C 160.565 2.17328 0.853857 0
M  V30 1641 C 161.546 1.10804 1.2906 0
M  V30 1642 O 162.731 1.38963 1.35657 0
M  V30 1643 C 159.861 2.75772 2.11109 0
M  V30 1644 C 158.815 3.87713 1.81279 0
M  V30 1645 C 158.141 4.32882 3.13874 0
M  V30 1646 C 159.441 5.10677 1.09574 0
M  V30 1647 H 161.135 2.97305 0.353545 0
M  V30 1648 H 158.681 1.43009 0.168612 0
M  V30 1649 H 160.634 3.16433 2.78296 0
M  V30 1650 H 159.358 1.93057 2.63432 0
M  V30 1651 H 158.017 3.476 1.16489 0
M  V30 1652 H 157.665 3.47051 3.64095 0
M  V30 1653 H 157.365 5.08358 2.94696 0
M  V30 1654 H 158.889 4.7618 3.82211 0
M  V30 1655 H 160.303 5.48474 1.66879 0
M  V30 1656 H 158.7 5.91615 1.00557 0
M  V30 1657 H 159.77 4.84835 0.0793299 0
M  V30 1658 N 161.113 -0.173488 1.56642 0
M  V30 1659 C 162.06 -1.21482 1.96242 0
M  V30 1660 C 163.03 -1.44104 0.826027 0
M  V30 1661 O 164.215 -1.5688 1.08597 0
M  V30 1662 C 161.355 -2.54964 2.32567 0
M  V30 1663 C 160.468 -2.39739 3.59373 0
M  V30 1664 C 159.603 -3.66072 3.84921 0
M  V30 1665 C 158.642 -3.45771 5.05083 0
M  V30 1666 N 157.779 -4.64169 5.26775 0
M  V30 1667 H 162.619 -0.870123 2.85014 0
M  V30 1668 H 160.156 -0.418245 1.41029 0
M  V30 1669 H 162.114 -3.32758 2.5165 0
M  V30 1670 H 160.744 -2.87433 1.46908 0
M  V30 1671 H 159.796 -1.53131 3.48217 0
M  V30 1672 H 161.108 -2.20683 4.47326 0
M  V30 1673 H 160.262 -4.52303 4.0436 0
M  V30 1674 H 159.001 -3.88105 2.9534 0
M  V30 1675 H 158.006 -2.57927 4.85545 0
M  V30 1676 H 159.231 -3.25163 5.96193 0
M  V30 1677 H 157.177 -4.86425 4.40144 0
M  V30 1678 H 157.094 -4.48019 6.08946 0
M  V30 1679 H 158.362 -5.51689 5.5069 0
M  V30 1680 N 162.591 -1.51276 -0.441967 0
M  V30 1681 C 163.554 -1.7167 -1.51862 0
M  V30 1682 C 164.554 -0.586793 -1.49711 0
M  V30 1683 O 165.744 -0.854276 -1.51815 0
M  V30 1684 C 162.876 -1.76889 -2.91416 0
M  V30 1685 H 164.069 -2.67754 -1.35084 0
M  V30 1686 H 161.622 -1.41196 -0.670333 0
M  V30 1687 H 162.357 -0.826026 -3.13604 0
M  V30 1688 H 162.142 -2.59001 -2.94382 0
M  V30 1689 H 163.632 -1.94522 -3.69528 0
M  V30 1690 N 164.069 0.697108 -1.41344 0
M  V30 1691 C 165.309 1.46939 -1.42085 0
M  V30 1692 C 165.673 1.9198 -0.0280397 0
M  V30 1693 O 166.874 2.6865 0.0897504 0
M  V30 1694 C 165.145 2.64985 -2.39828 0
M  V30 1695 S 166.704 3.54147 -2.59085 0
M  V30 1696 H 163.522 0.502146 -0.503359 0
M  V30 1697 H 166.124 0.813546 -1.77769 0
M  V30 1698 H 164.828 2.30098 -3.39828 0
M  V30 1699 H 164.359 3.35464 -2.05493 0
M  V30 1700 H 166.374 4.60137 -1.85711 0
M  V30 1701 N 165.547 1.27147 0.931209 0
M  V30 1702 C 166.958 1.12044 1.49342 0
M  V30 1703 C 167.309 -0.295795 1.93957 0
M  V30 1704 O 166.434 -1.18835 1.80852 0
M  V30 1705 C 167.029 2.02781 2.71414 0
M  V30 1706 C 165.588 1.91794 3.2387 0
M  V30 1707 C 164.735 1.95543 1.96617 0
M  V30 1708 H 167.686 1.40091 0.745672 0
M  V30 1709 H 167.707 1.58156 3.46074 0
M  V30 1710 H 167.219 3.05848 2.38911 0
M  V30 1711 H 165.32 0.916992 3.6114 0
M  V30 1712 H 165.433 2.77852 3.90302 0
M  V30 1713 H 163.797 1.39722 2.12955 0
M  V30 1714 H 164.58 3.00259 1.66432 0
M  V30 1715 N 167.025 -1.13721 1.09112 0
M  V30 1716 C 168.25 -1.89314 0.847053 0
M  V30 1717 C 168.675 -1.78416 -0.595774 0
M  V30 1718 O 168.033 -1.12942 -1.41823 0
M  V30 1719 C 168.081 -3.3701 1.28284 0
M  V30 1720 O 167.185 -4.10054 0.439267 0
M  V30 1721 H 166.526 -0.588745 0.307044 0
M  V30 1722 H 169.056 -1.43902 1.45442 0
M  V30 1723 H 169.066 -3.87834 1.26683 0
M  V30 1724 H 167.741 -3.4426 2.33363 0
M  V30 1725 H 166.318 -3.69266 0.519312 0
M  V30 1726 N 168.503 -0.877838 -1.30888 0
M  V30 1727 C 169.466 -0.344265 -2.266 0
M  V30 1728 C 170.466 0.50922 -1.52524 0
M  V30 1729 O 171.656 0.317398 -1.71284 0
M  V30 1730 C 168.788 0.510198 -3.37061 0
M  V30 1731 H 169.981 -1.1893 -2.7531 0
M  V30 1732 H 167.534 -0.654088 -1.41956 0
M  V30 1733 H 168.269 1.37612 -2.93655 0
M  V30 1734 H 168.054 -0.101047 -3.9197 0
M  V30 1735 H 169.544 0.875537 -4.08319 0
M  V30 1736 N 169.982 1.44106 -0.638065 0
M  V30 1737 C 171.23 2.01579 -0.145043 0
M  V30 1738 C 171.551 1.50496 1.24 0
M  V30 1739 O 170.821 0.711374 1.82527 0
M  V30 1740 H 169.401 0.745282 -0.05063 0
M  V30 1741 H 172.063 1.76516 -0.826327 0
M  V30 1742 H 171.159 3.11877 -0.118039 0
M  V30 1743 N 171.46 0.379036 1.52974 0
M  V30 1744 C 172.423 -0.448865 2.24762 0
M  V30 1745 C 173.423 -0.998689 1.26027 0
M  V30 1746 O 174.613 -0.882313 1.50203 0
M  V30 1747 C 171.745 -1.62872 2.99476 0
M  V30 1748 H 172.938 0.179491 2.99362 0
M  V30 1749 H 170.491 0.13096 1.5575 0
M  V30 1750 H 171.226 -2.29479 2.29151 0
M  V30 1751 H 171.011 -1.24128 3.71934 0
M  V30 1752 H 172.501 -2.2151 3.5401 0
M  V30 1753 N 172.938 -1.57226 0.108567 0
M  V30 1754 C 174.187 -1.94008 -0.551703 0
M  V30 1755 C 174.5 -0.993442 -1.68494 0
M  V30 1756 O 175.706 -1.25551 -2.40726 0
M  V30 1757 C 174.162 -3.44763 -1.03279 0
M  V30 1758 C 173.77 -4.47943 0.0714193 0
M  V30 1759 C 175.514 -3.90483 -1.66503 0
M  V30 1760 C 173.421 -5.89865 -0.425779 0
M  V30 1761 H 172.351 -0.724206 -0.209863 0
M  V30 1762 H 175.002 -1.82547 0.186741 0
M  V30 1763 H 173.384 -3.51422 -1.82533 0
M  V30 1764 H 174.558 -4.52942 0.847365 0
M  V30 1765 H 172.873 -4.11913 0.609669 0
M  V30 1766 H 175.47 -4.93925 -2.04798 0
M  V30 1767 H 175.813 -3.29877 -2.53942 0
M  V30 1768 H 176.346 -3.86581 -0.938074 0
M  V30 1769 H 173.085 -6.54202 0.412316 0
M  V30 1770 H 172.605 -5.88309 -1.16843 0
M  V30 1771 H 174.284 -6.40844 -0.890397 0
M  V30 1772 N 174.416 0.165178 -1.56732 0
M  V30 1773 C 175.665 0.879143 -1.81532 0
M  V30 1774 C 175.978 1.83144 -0.686842 0
M  V30 1775 O 177.184 2.58823 -0.819944 0
M  V30 1776 C 175.64 1.61388 -3.21686 0
M  V30 1777 C 175.248 0.704904 -4.4242 0
M  V30 1778 C 176.992 2.3157 -3.55774 0
M  V30 1779 C 174.899 1.44022 -5.73595 0
M  V30 1780 H 173.829 0.332033 -0.676957 0
M  V30 1781 H 176.48 0.132008 -1.83025 0
M  V30 1782 H 174.862 2.40599 -3.14529 0
M  V30 1783 H 176.036 -0.0506815 -4.60772 0
M  V30 1784 H 174.351 0.112419 -4.16248 0
M  V30 1785 H 176.948 2.8719 -4.51028 0
M  V30 1786 H 177.291 3.07201 -2.8095 0
M  V30 1787 H 177.824 1.59297 -3.64513 0
M  V30 1788 H 174.563 0.72612 -6.51466 0
M  V30 1789 H 174.083 2.16898 -5.5921 0
M  V30 1790 H 175.762 1.98606 -6.15764 0
M  V30 1791 N 175.894 1.51508 0.433938 0
M  V30 1792 C 176.826 1.69266 1.54537 0
M  V30 1793 C 177.839 0.573276 1.52373 0
M  V30 1794 O 179.028 0.847698 1.57087 0
M  V30 1795 C 176.128 1.69524 2.93453 0
M  V30 1796 C 175.301 2.98101 3.20085 0
M  V30 1797 C 174.36 2.90502 4.38742 0
M  V30 1798 O 173.386 3.64442 4.3723 0
M  V30 1799 N 174.588 2.06586 5.42496 0
M  V30 1800 H 177.353 2.65145 1.39708 0
M  V30 1801 H 174.914 1.49437 0.622922 0
M  V30 1802 H 176.906 1.62004 3.70859 0
M  V30 1803 H 175.476 0.812245 3.01863 0
M  V30 1804 H 174.696 3.19464 2.30947 0
M  V30 1805 H 175.984 3.83207 3.34708 0
M  V30 1806 H 175.382 1.45896 5.46563 0
M  V30 1807 H 173.939 2.04943 6.18742 0
M  V30 1808 N 177.372 -0.689602 1.41712 0
M  V30 1809 C 178.602 -1.47613 1.44548 0
M  V30 1810 C 179.01 -1.89132 0.0509034 0
M  V30 1811 O 178.353 -1.57741 -0.94146 0
M  V30 1812 C 178.415 -2.76596 2.2964 0
M  V30 1813 C 178.079 -2.57245 3.77722 0
M  V30 1814 C 179.076 -2.22804 4.69739 0
M  V30 1815 C 176.761 -2.727 4.2183 0
M  V30 1816 C 178.755 -2.04064 6.03851 0
M  V30 1817 C 176.442 -2.53576 5.56006 0
M  V30 1818 C 177.44 -2.1931 6.46832 0
M  V30 1819 O 177.128 -2.00359 7.78532 0
M  V30 1820 H 176.86 -0.461227 0.494212 0
M  V30 1821 H 179.414 -0.856045 1.86711 0
M  V30 1822 H 177.644 -3.41033 1.82301 0
M  V30 1823 H 179.333 -3.38424 2.24107 0
M  V30 1824 H 180.099 -2.10473 4.36951 0
M  V30 1825 H 175.978 -2.98353 3.51435 0
M  V30 1826 H 179.522 -1.77241 6.74708 0
M  V30 1827 H 175.419 -2.65499 5.88371 0
M  V30 1828 H 176.187 -2.15075 7.89737 0
M  V30 1829 N 178.85 -1.27639 -0.924453 0
M  V30 1830 C 179.813 -1.10681 -2.00705 0
M  V30 1831 C 180.813 -0.0497823 -1.60723 0
M  V30 1832 O 182.003 -0.294654 -1.7169 0
M  V30 1833 C 179.135 -0.687164 -3.33902 0
M  V30 1834 H 180.328 -2.06817 -2.17179 0
M  V30 1835 H 177.881 -1.10473 -1.10569 0
M  V30 1836 H 178.616 0.275439 -3.23128 0
M  V30 1837 H 178.401 -1.45061 -3.6428 0
M  V30 1838 H 179.891 -0.590853 -4.13399 0
M  V30 1839 N 180.328 1.1314 -1.09713 0
M  V30 1840 C 181.276 2.20717 -0.733934 0
M  V30 1841 C 182.27 1.6729 0.266506 0
M  V30 1842 O 183.476 1.79547 0.127656 0
M  V30 1843 H 179.851 0.719292 -0.21937 0
M  V30 1844 H 181.822 2.48611 -1.6503 0
M  V30 1845 C 180.571 3.47265 -0.173849 0
M  V30 1846 H 179.894 3.88716 -0.934873 0
M  V30 1847 H 181.334 4.23979 0.0423126 0
M  V30 1848 C 179.793 3.18724 1.09164 0
M  V30 1849 O 180.323 3.37762 2.17439 0
M  V30 1850 N 178.529 2.72583 1.00732 0
M  V30 1851 H 178.076 2.57291 0.126121 0
M  V30 1852 H 178.034 2.53862 1.85476 0
M  V30 1853 N 181.806 0.884767 1.30421 0
M  V30 1854 C 183.054 0.502112 1.95763 0
M  V30 1855 C 183.375 -0.951815 1.70192 0
M  V30 1856 O 182.645 -1.6692 1.0254 0
M  V30 1857 H 181.225 0.182694 0.724315 0
M  V30 1858 H 183.887 1.1278 1.58955 0
M  V30 1859 H 182.983 0.672188 3.04775 0
M  V30 1860 N 183.284 -1.43765 0.645699 0
M  V30 1861 C 184.533 -2.01116 0.153412 0
M  V30 1862 C 184.846 -1.51493 -1.23731 0
M  V30 1863 O 186.052 -2.01067 -1.8244 0
M  V30 1864 C 184.508 -3.59206 0.223473 0
M  V30 1865 C 184.116 -4.17823 1.61642 0
M  V30 1866 C 185.86 -4.23972 -0.211597 0
M  V30 1867 C 183.767 -5.68183 1.64081 0
M  V30 1868 H 182.697 -0.752093 0.0535891 0
M  V30 1869 H 185.348 -1.6482 0.806633 0
M  V30 1870 H 183.73 -3.92867 -0.497118 0
M  V30 1871 H 184.904 -3.95674 2.36176 0
M  V30 1872 H 183.219 -3.65399 1.99681 0
M  V30 1873 H 185.816 -5.34275 -0.213112 0
M  V30 1874 H 186.159 -3.97352 -1.24165 0
M  V30 1875 H 186.692 -3.95166 0.456988 0
M  V30 1876 H 183.431 -5.99559 2.64971 0
M  V30 1877 H 182.951 -5.9241 0.938611 0
M  V30 1878 H 184.63 -6.32085 1.3812 0
M  V30 1879 N 184.763 -0.387143 -1.52771 0
M  V30 1880 C 186.009 0.196025 -2.0185 0
M  V30 1881 C 186.342 1.46641 -1.27319 0
M  V30 1882 O 185.617 1.90889 -0.373032 0
M  V30 1883 C 185.9 0.466136 -3.5707 0
M  V30 1884 C 185.753 -0.819385 -4.42274 0
M  V30 1885 C 187.072 1.25768 -4.21747 0
M  V30 1886 H 184.191 0.0697708 -0.73369 0
M  V30 1887 H 186.833 -0.516286 -1.82851 0
M  V30 1888 H 184.983 1.07293 -3.7339 0
M  V30 1889 H 186.655 -1.4563 -4.37709 0
M  V30 1890 H 184.898 -1.43517 -4.09372 0
M  V30 1891 H 185.569 -0.585065 -5.48891 0
M  V30 1892 H 188.045 0.744167 -4.09391 0
M  V30 1893 H 186.921 1.41541 -5.30337 0
M  V30 1894 H 187.182 2.27228 -3.79236 0
M  V30 1895 N 186.241 1.57166 -0.116904 0
M  V30 1896 C 187.518 1.86645 0.585049 0
M  V30 1897 C 187.898 1.0177 1.84949 0
M  V30 1898 O 187.246 0.0960379 2.28298 0
M  V30 1899 C 187.456 3.37736 0.879507 0
M  V30 1900 C 188.804 4.06289 1.23348 0
M  V30 1901 O 189.828 3.42743 0.969836 0
M  V30 1902 O 188.687 5.18455 1.7282 0
M  V30 1903 H 185.781 0.772593 0.295007 0
M  V30 1904 H 188.327 1.69025 -0.151249 0
M  V30 1905 H 187.099 3.91296 -0.0166136 0
M  V30 1906 H 186.722 3.6078 1.67103 0
M  V30 1907 N 187.719 -0.156864 1.56817 0
M  V30 1908 C 188.966 -0.871125 1.82805 0
M  V30 1909 C 189.294 -1.81611 0.696262 0
M  V30 1910 O 188.549 -1.93141 -0.315459 0
M  V30 1911 C 188.848 -1.68737 3.1506 0
M  V30 1912 C 188.514 -0.890045 4.42028 0
M  V30 1913 C 187.176 -0.670042 4.76512 0
M  V30 1914 C 189.528 -0.331769 5.20143 0
M  V30 1915 C 186.856 0.119104 5.86579 0
M  V30 1916 C 189.208 0.444365 6.31037 0
M  V30 1917 C 187.872 0.675035 6.64078 0
M  V30 1918 H 187.142 -0.318767 0.668931 0
M  V30 1919 H 189.789 -0.135274 1.91022 0
M  V30 1920 H 188.094 -2.49304 3.0225 0
M  V30 1921 H 189.791 -2.24331 3.3238 0
M  V30 1922 H 186.381 -1.07157 4.14988 0
M  V30 1923 H 190.565 -0.489043 4.93885 0
M  V30 1924 H 185.821 0.307417 6.10627 0
M  V30 1925 H 189.995 0.884139 6.90765 0
M  V30 1926 H 187.622 1.28839 7.49203 0
M  V30 1927 N 189.197 -1.51736 -0.425897 0
M  V30 1928 C 190.129 -1.70083 -1.53638 0
M  V30 1929 C 191.142 -0.581349 -1.52066 0
M  V30 1930 O 192.331 -0.856017 -1.56635 0
M  V30 1931 C 189.431 -1.71078 -2.9255 0
M  V30 1932 C 188.604 -2.99795 -3.185 0
M  V30 1933 C 187.663 -2.92825 -4.37196 0
M  V30 1934 O 186.689 -3.66756 -4.35291 0
M  V30 1935 N 187.891 -2.0946 -5.41393 0
M  V30 1936 H 190.656 -2.65882 -1.383 0
M  V30 1937 H 188.217 -1.49765 -0.614988 0
M  V30 1938 H 190.209 -1.63969 -3.69995 0
M  V30 1939 H 188.779 -0.828242 -3.01428 0
M  V30 1940 H 187.999 -3.20684 -2.2925 0
M  V30 1941 H 189.287 -3.84977 -3.32671 0
M  V30 1942 H 188.685 -1.48792 -5.45781 0
M  V30 1943 H 187.242 -2.08221 -6.17647 0
M  V30 1944 N 190.675 0.682077 -1.42076 0
M  V30 1945 C 191.9 1.47558 -1.45744 0
M  V30 1946 C 192.325 1.87977 -0.0680981 0
M  V30 1947 O 191.683 1.55522 0.9318 0
M  V30 1948 C 191.731 2.70575 -2.38373 0
M  V30 1949 O 190.835 3.68573 -1.85007 0
M  V30 1950 H 190.176 0.443585 -0.494093 0
M  V30 1951 H 192.706 0.837238 -1.86686 0
M  V30 1952 H 192.716 3.18729 -2.54707 0
M  V30 1953 H 191.391 2.40495 -3.39315 0
M  V30 1954 H 189.968 3.2757 -1.78192 0
M  V30 1955 N 192.153 1.28127 0.917671 0
M  V30 1956 C 193.063 1.13556 2.05286 0
M  V30 1957 C 194.079 0.0630914 1.73886 0
M  V30 1958 O 195.255 0.271598 1.9956 0
M  V30 1959 C 192.32 0.794676 3.3747 0
M  V30 1960 C 191.381 1.94909 3.82504 0
M  V30 1961 C 190.614 1.62437 5.0838 0
M  V30 1962 O 190.837 0.536905 5.67867 0
M  V30 1963 O 189.771 2.46677 5.4903 0
M  V30 1964 H 193.597 2.08844 2.20495 0
M  V30 1965 H 191.182 1.07409 1.03845 0
M  V30 1966 H 193.064 0.618344 4.16839 0
M  V30 1967 H 191.739 -0.128581 3.23445 0
M  V30 1968 H 190.646 2.18055 3.03978 0
M  V30 1969 H 191.979 2.85291 4.01086 0
M  V30 1970 N 193.631 -1.12557 1.10312 0
M  V30 1971 C 194.579 -2.20325 0.745629 0
M  V30 1972 C 195.573 -1.67429 -0.25763 0
M  V30 1973 O 196.779 -1.79612 -0.118132 0
M  V30 1974 H 193.154 -0.718118 0.223182 0
M  V30 1975 H 195.125 -2.47733 1.66346 0
M  V30 1976 C 193.874 -3.47168 0.192262 0
M  V30 1977 H 193.197 -3.88215 0.955475 0
M  V30 1978 H 194.637 -4.23995 -0.0198274 0
M  V30 1979 C 193.096 -3.19298 -1.07472 0
M  V30 1980 O 193.626 -3.3891 -2.15645 0
M  V30 1981 N 191.832 -2.73113 -0.992847 0
M  V30 1982 H 191.379 -2.57354 -0.112474 0
M  V30 1983 H 191.337 -2.54842 -1.84127 0
M  V30 1984 N 195.109 -0.891671 -1.2995 0
M  V30 1985 C 196.349 -0.520296 -1.97667 0
M  V30 1986 C 196.713 0.914797 -1.68806 0
M  V30 1987 O 197.914 1.39263 -2.29911 0
M  V30 1988 C 196.185 -0.795222 -3.48441 0
M  V30 1989 S 197.744 -0.526953 -4.35624 0
M  V30 1990 H 194.562 -0.19333 -0.684211 0
M  V30 1991 H 197.164 -1.15238 -1.57926 0
M  V30 1992 H 195.868 -1.83805 -3.66938 0
M  V30 1993 H 195.399 -0.15095 -3.9311 0
M  V30 1994 H 197.414 0.631533 -4.92165 0
M  V30 1995 N 196.587 1.43421 -0.653314 0
M  V30 1996 C 197.836 2.01032 -0.164076 0
M  V30 1997 C 198.149 1.52147 1.22926 0
M  V30 1998 O 199.355 2.02031 1.81371 0
M  V30 1999 C 197.811 3.59082 -0.24252 0
M  V30 2000 C 197.419 4.1696 -1.63855 0
M  V30 2001 C 199.163 4.24079 0.18911 0
M  V30 2002 C 197.07 5.67304 -1.67092 0
M  V30 2003 H 196 0.751798 -0.0575769 0
M  V30 2004 H 198.651 1.6439 -0.815362 0
M  V30 2005 H 197.033 3.93125 0.476276 0
M  V30 2006 H 198.207 3.94416 -2.38271 0
M  V30 2007 H 196.522 3.64335 -2.01616 0
M  V30 2008 H 199.119 5.34381 0.184775 0
M  V30 2009 H 199.462 3.98005 1.22056 0
M  V30 2010 H 199.995 3.94918 -0.477938 0
M  V30 2011 H 196.734 5.98145 -2.68146 0
M  V30 2012 H 196.254 5.91904 -0.970014 0
M  V30 2013 H 197.933 6.31344 -1.4147 0
M  V30 2014 N 198.065 0.39524 1.52563 0
M  V30 2015 C 199.313 -0.184678 2.01254 0
M  V30 2016 C 199.634 -1.46822 1.28329 0
M  V30 2017 O 198.904 -1.91666 0.405094 0
M  V30 2018 H 197.484 -0.0712355 0.743596 0
M  V30 2019 H 200.146 0.528293 1.87603 0
M  V30 2020 H 199.242 -0.390681 3.09645 0
M  V30 2021 N 199.544 -1.57102 0.125237 0
M  V30 2022 C 200.784 -1.97294 -0.534259 0
M  V30 2023 C 201.148 -1.0074 -1.63449 0
M  V30 2024 O 202.349 -1.29893 -2.35332 0
M  V30 2025 C 200.62 -3.41705 -1.04748 0
M  V30 2026 S 202.179 -4.03913 -1.71463 0
M  V30 2027 H 198.997 -0.689517 -0.173458 0
M  V30 2028 H 201.599 -1.94349 0.211797 0
M  V30 2029 H 200.303 -4.09723 -0.235649 0
M  V30 2030 H 199.834 -3.48315 -1.82867 0
M  V30 2031 H 201.849 -3.95182 -3.00077 0
M  V30 2032 N 201.022 0.148545 -1.56898 0
M  V30 2033 C 202.27 0.859717 -1.82902 0
M  V30 2034 C 202.591 1.81775 -0.70588 0
M  V30 2035 O 201.861 1.93994 0.272586 0
M  V30 2036 H 200.441 0.320469 -0.674766 0
M  V30 2037 H 203.103 0.142918 -1.94375 0
M  V30 2038 H 202.199 1.4229 -2.77777 0
M  V30 2039 N 202.5 1.5196 0.417844 0
M  V30 2040 C 203.73 1.69181 1.18581 0
M  V30 2041 C 204.138 0.397104 1.84986 0
M  V30 2042 O 203.481 -0.636011 1.72339 0
M  V30 2043 C 203.543 2.76497 2.29759 0
M  V30 2044 C 203.207 4.18514 1.83563 0
M  V30 2045 C 204.204 5.02648 1.32821 0
M  V30 2046 C 201.889 4.64708 1.90661 0
M  V30 2047 C 203.883 6.31044 0.897894 0
M  V30 2048 C 201.57 5.93096 1.47241 0
M  V30 2049 C 202.568 6.76093 0.968891 0
M  V30 2050 O 202.256 8.02078 0.540924 0
M  V30 2051 H 201.988 0.570457 0.362705 0
M  V30 2052 H 204.542 1.99249 0.498885 0
M  V30 2053 H 202.772 2.41786 3.01789 0
M  V30 2054 H 204.461 2.82403 2.91553 0
M  V30 2055 H 205.227 4.68154 1.26716 0
M  V30 2056 H 201.106 4.00216 2.28797 0
M  V30 2057 H 204.65 6.95776 0.504192 0
M  V30 2058 H 200.547 6.271 1.53022 0
M  V30 2059 H 201.315 8.15794 0.66502 0
M  V30 2060 N 203.978 -0.674533 1.42435 0
M  V30 2061 C 205.218 -1.4466 1.44405 0
M  V30 2062 C 205.582 -1.91911 0.0585784 0
M  V30 2063 O 206.783 -2.68759 -0.0469991 0
M  V30 2064 C 205.054 -2.61136 2.44013 0
M  V30 2065 S 206.613 -3.49981 2.64687 0
M  V30 2066 H 203.431 -0.494074 0.511284 0
M  V30 2067 H 206.033 -0.785162 1.7904 0
M  V30 2068 H 204.737 -2.24662 3.43446 0
M  V30 2069 H 204.268 -3.32153 2.10803 0
M  V30 2070 H 206.283 -4.57124 1.93007 0
M  V30 2071 N 205.456 -1.28612 -0.910864 0
M  V30 2072 C 206.705 -1.15311 -1.65488 0
M  V30 2073 C 207.018 0.296999 -1.93332 0
M  V30 2074 O 208.224 0.551168 -2.65847 0
M  V30 2075 C 206.68 -2.01599 -2.98137 0
M  V30 2076 C 206.288 -3.51367 -2.7793 0
M  V30 2077 C 208.032 -1.96993 -3.76024 0
M  V30 2078 C 205.939 -4.29797 -4.06237 0
M  V30 2079 H 204.869 -0.42796 -0.620779 0
M  V30 2080 H 207.52 -1.53166 -1.01057 0
M  V30 2081 H 205.902 -1.56603 -3.63719 0
M  V30 2082 H 207.076 -4.0434 -2.21011 0
M  V30 2083 H 205.391 -3.57529 -2.13452 0
M  V30 2084 H 207.988 -2.52856 -4.71135 0
M  V30 2085 H 208.331 -0.94733 -4.05378 0
M  V30 2086 H 208.864 -2.39973 -3.17266 0
M  V30 2087 H 205.603 -5.32648 -3.82055 0
M  V30 2088 H 205.123 -3.81596 -4.62757 0
M  V30 2089 H 206.802 -4.39869 -4.74473 0
M  V30 2090 N 206.934 1.1197 -1.10907 0
M  V30 2091 C 207.897 2.16031 -0.765707 0
M  V30 2092 C 208.897 1.59393 0.212235 0
M  V30 2093 O 210.087 1.74196 -0.0115441 0
M  V30 2094 C 207.219 3.40632 -0.135053 0
M  V30 2095 H 208.412 2.47919 -1.68748 0
M  V30 2096 H 205.965 1.27061 -0.910226 0
M  V30 2097 H 206.7 3.14348 0.797218 0
M  V30 2098 H 206.485 3.8302 -0.838937 0
M  V30 2099 H 207.975 4.17505 0.0892469 0
M  V30 2100 N 208.412 0.89855 1.29475 0
M  V30 2101 C 209.66 0.522847 1.9522 0
M  V30 2102 C 209.981 -0.93371 1.71192 0
M  V30 2103 O 209.251 -1.65823 1.04305 0
M  V30 2104 H 207.831 0.190366 0.722336 0
M  V30 2105 H 210.493 1.14459 1.5775 0
M  V30 2106 H 209.589 0.704476 3.04045 0
M  V30 2107 N 209.89 -1.43072 0.660911 0
M  V30 2108 C 211.13 -2.03596 0.181146 0
M  V30 2109 C 211.494 -1.51057 -1.18515 0
M  V30 2110 O 212.695 -2.03275 -1.75877 0
M  V30 2111 C 210.966 -3.56845 0.19911 0
M  V30 2112 S 212.525 -4.38289 -0.211684 0
M  V30 2113 H 209.343 -0.706954 0.0757479 0
M  V30 2114 H 211.945 -1.75027 0.870965 0
M  V30 2115 H 210.649 -3.92583 1.1961 0
M  V30 2116 H 210.18 -3.90067 -0.510996 0
M  V30 2117 H 212.195 -4.74583 -1.44863 0
M  V30 2118 N 211.368 -0.403325 -1.52352 0
M  V30 2119 C 212.779 0.0675782 -1.86578 0
M  V30 2120 C 213.13 1.44941 -1.32236 0
M  V30 2121 O 212.255 2.06112 -0.659307 0
M  V30 2122 C 212.85 0.129404 -3.38553 0
M  V30 2123 C 211.409 0.544629 -3.72439 0
M  V30 2124 C 210.556 -0.284551 -2.75836 0
M  V30 2125 H 213.507 -0.620631 -1.46061 0
M  V30 2126 H 213.528 0.94581 -3.68558 0
M  V30 2127 H 213.04 -0.87645 -3.78074 0
M  V30 2128 H 211.141 1.55734 -3.38493 0
M  V30 2129 H 211.254 0.293046 -4.78203 0
M  V30 2130 H 209.618 0.252258 -2.53448 0
M  V30 2131 H 210.401 -1.28865 -3.18196 0
M  V30 2132 N 212.846 1.57033 -0.133567 0
M  V30 2133 C 214.093 1.95686 0.520877 0
M  V30 2134 C 214.421 1.0177 1.6575 0
M  V30 2135 O 213.676 0.0443195 1.9565 0
M  V30 2136 C 213.975 3.40674 1.08057 0
M  V30 2137 C 213.641 4.50855 0.0637899 0
M  V30 2138 C 212.303 4.80716 -0.215757 0
M  V30 2139 C 214.655 5.17398 -0.62835 0
M  V30 2140 C 211.983 5.74433 -1.19348 0
M  V30 2141 C 214.335 6.12167 -1.5948 0
M  V30 2142 C 212.999 6.40414 -1.88218 0
M  V30 2143 H 212.269 0.716067 0.190602 0
M  V30 2144 H 214.916 1.9026 -0.217556 0
M  V30 2145 H 213.221 3.42865 1.89606 0
M  V30 2146 H 214.918 3.67902 1.59529 0
M  V30 2147 H 211.508 4.27605 0.291855 0
M  V30 2148 H 215.692 4.94472 -0.425562 0
M  V30 2149 H 210.948 5.94616 -1.42272 0
M  V30 2150 H 215.122 6.6281 -2.13671 0
M  V30 2151 H 212.749 7.12838 -2.64133 0
M  V30 2152 N 214.325 -0.140222 1.56975 0
M  V30 2153 C 215.273 -1.19207 1.99731 0
M  V30 2154 C 216.267 -1.44089 0.890777 0
M  V30 2155 O 217.473 -1.44301 1.07597 0
M  V30 2156 H 213.848 -0.40142 0.635898 0
M  V30 2157 H 215.819 -0.804813 2.87342 0
M  V30 2158 C 214.568 -2.51617 2.39967 0
M  V30 2159 H 213.891 -2.33303 3.24669 0
M  V30 2160 H 215.331 -3.23827 2.73701 0
M  V30 2161 C 213.79 -3.12654 1.25496 0
M  V30 2162 O 214.32 -3.97786 0.559371 0
M  V30 2163 N 212.526 -2.72206 1.01746 0
M  V30 2164 H 212.073 -2.03074 1.58489 0
M  V30 2165 H 212.031 -3.13377 0.253461 0
M  V30 2166 N 215.803 -1.52179 -0.40978 0
M  V30 2167 C 217.052 -1.65434 -1.15388 0
M  V30 2168 C 217.365 -0.390056 -1.91671 0
M  V30 2169 O 218.571 -0.402399 -2.68501 0
M  V30 2170 C 217.027 -2.92279 -2.10003 0
M  V30 2171 C 216.635 -4.25813 -1.39239 0
M  V30 2172 C 218.379 -3.14897 -2.84675 0
M  V30 2173 C 216.286 -5.43782 -2.32498 0
M  V30 2174 H 215.216 -0.616267 -0.434432 0
M  V30 2175 H 217.867 -1.78666 -0.418401 0
M  V30 2176 H 216.249 -2.72744 -2.871 0
M  V30 2177 H 217.423 -4.55828 -0.675099 0
M  V30 2178 H 215.738 -4.09292 -0.766097 0
M  V30 2179 H 218.335 -4.0021 -3.54593 0
M  V30 2180 H 218.678 -2.29103 -3.47588 0
M  V30 2181 H 219.211 -3.34901 -2.14677 0
M  V30 2182 H 215.95 -6.3192 -1.74233 0
M  V30 2183 H 215.47 -5.18106 -3.02201 0
M  V30 2184 H 217.149 -5.76834 -2.93038 0
M  V30 2185 N 217.281 0.66697 -1.42791 0
M  V30 2186 C 218.692 1.2478 -1.38877 0
M  V30 2187 C 219.043 1.96012 -0.0859426 0
M  V30 2188 O 218.168 2.00463 0.815081 0
M  V30 2189 C 218.763 2.26938 -2.51564 0
M  V30 2190 C 217.322 2.80529 -2.50959 0
M  V30 2191 C 216.469 1.54965 -2.29959 0
M  V30 2192 H 219.42 0.459853 -1.51892 0
M  V30 2193 H 219.441 3.08834 -2.22265 0
M  V30 2194 H 218.953 1.75065 -3.46372 0
M  V30 2195 H 217.054 3.36502 -1.59991 0
M  V30 2196 H 217.167 3.29012 -3.48265 0
M  V30 2197 H 215.531 1.81817 -1.78366 0
M  V30 2198 H 216.314 1.05047 -3.26833 0
M  V30 2199 N 218.759 1.29093 0.90403 0
M  V30 2200 C 220.175 1.07011 1.1841 0
M  V30 2201 C 220.375 -0.181358 2.00682 0
M  V30 2202 O 219.431 -0.880331 2.36657 0
M  V30 2203 C 220.744 2.32311 1.90924 0
M  V30 2204 C 222.292 2.37587 2.03768 0
M  V30 2205 C 222.767 3.62679 2.79693 0
M  V30 2206 N 224.258 3.63376 2.87249 0
M  V30 2207 C 224.993 4.56848 3.46522 0
M  V30 2208 N 224.489 5.60648 4.06996 0
M  V30 2209 N 226.282 4.44426 3.44154 0
M  V30 2210 H 218.433 2.09412 0.354993 0
M  V30 2211 H 220.696 0.922181 0.219742 0
M  V30 2212 H 220.402 3.23536 1.37905 0
M  V30 2213 H 220.276 2.39483 2.91424 0
M  V30 2214 H 222.663 1.46853 2.55965 0
M  V30 2215 H 222.744 2.34403 1.02415 0
M  V30 2216 H 222.388 4.53762 2.28173 0
M  V30 2217 H 222.318 3.63119 3.81381 0
M  V30 2218 H 224.809 2.88321 2.44293 0
M  V30 2219 H 225.122 6.28101 4.50232 0
M  V30 2220 H 223.467 5.64463 4.05471 0
M  V30 2221 H 226.658 3.62529 2.96126 0
M  V30 2222 H 226.831 5.17457 3.90054 0
M  V30 2223 N 220.237 -1.11381 1.11499 0
M  V30 2224 C 221.167 -2.19509 0.796125 0
M  V30 2225 C 222.148 -1.68458 -0.235796 0
M  V30 2226 O 223.333 -1.93947 -0.0991344 0
M  V30 2227 C 220.463 -3.46475 0.239205 0
M  V30 2228 C 219.417 -4.10744 1.20307 0
M  V30 2229 C 218.743 -5.32293 0.50683 0
M  V30 2230 C 220.043 -4.55597 2.55399 0
M  V30 2231 H 221.737 -2.46439 1.70024 0
M  V30 2232 H 219.283 -1.18446 0.818935 0
M  V30 2233 H 221.236 -4.214 0.00392006 0
M  V30 2234 H 219.96 -3.19006 -0.700206 0
M  V30 2235 H 218.619 -3.37813 1.42399 0
M  V30 2236 H 218.267 -5.01095 -0.437408 0
M  V30 2237 H 217.967 -5.76243 1.1497 0
M  V30 2238 H 219.491 -6.09956 0.280351 0
M  V30 2239 H 220.905 -5.21841 2.37391 0
M  V30 2240 H 219.302 -5.10363 3.15673 0
M  V30 2241 H 220.372 -3.69013 3.14575 0
M  V30 2242 N 221.715 -0.905404 -1.28997 0
M  V30 2243 C 222.663 -0.377431 -2.29517 0
M  V30 2244 C 223.657 0.526461 -1.61012 0
M  V30 2245 O 224.863 0.40863 -1.753 0
M  V30 2246 H 221.238 -0.103437 -0.744852 0
M  V30 2247 H 223.209 -1.23848 -2.71485 0
M  V30 2248 C 221.958 0.374833 -3.45674 0
M  V30 2249 H 221.281 -0.311474 -3.98585 0
M  V30 2250 H 222.721 0.70903 -4.1803 0
M  V30 2251 C 221.18 1.57963 -2.97572 0
M  V30 2252 O 221.71 2.67886 -2.99333 0
M  V30 2253 N 219.916 1.42375 -2.53333 0
M  V30 2254 H 219.463 0.529466 -2.521 0
M  V30 2255 H 219.421 2.23117 -2.21509 0
M  V30 2256 N 223.193 1.4272 -0.668489 0
M  V30 2257 C 224.14 2.30796 0.0137489 0
M  V30 2258 C 225.11 1.4561 0.799177 0
M  V30 2259 O 226.295 1.74453 0.772702 0
M  V30 2260 C 223.435 3.31377 0.963507 0
M  V30 2261 C 222.548 4.31655 0.172569 0
M  V30 2262 C 221.683 5.19312 1.1175 0
M  V30 2263 C 220.722 6.11274 0.317886 0
M  V30 2264 N 219.859 6.91504 1.2152 0
M  V30 2265 H 224.699 2.88585 -0.743161 0
M  V30 2266 H 222.236 1.42154 -0.378226 0
M  V30 2267 H 224.194 3.88214 1.52792 0
M  V30 2268 H 222.824 2.75202 1.68712 0
M  V30 2269 H 221.876 3.76988 -0.508374 0
M  V30 2270 H 223.188 4.96779 -0.448527 0
M  V30 2271 H 222.342 5.80851 1.75206 0
M  V30 2272 H 221.081 4.5435 1.77249 0
M  V30 2273 H 220.086 5.48809 -0.329918 0
M  V30 2274 H 221.311 6.78283 -0.332917 0
M  V30 2275 H 219.257 6.29176 1.85671 0
M  V30 2276 H 219.174 7.53209 0.649036 0
M  V30 2277 H 220.442 7.57535 1.83742 0
M  V30 2278 N 224.671 0.411399 1.52136 0
M  V30 2279 C 225.581 -0.419774 2.30814 0
M  V30 2280 C 226.597 -1.0515 1.38634 0
M  V30 2281 O 227.773 -1.05252 1.71709 0
M  V30 2282 C 224.838 -1.52019 3.11594 0
M  V30 2283 C 223.899 -0.91129 4.19516 0
M  V30 2284 C 223.132 -1.95927 4.96436 0
M  V30 2285 O 223.355 -3.17775 4.73683 0
M  V30 2286 O 222.289 -1.56423 5.81219 0
M  V30 2287 H 226.115 0.221805 3.02889 0
M  V30 2288 H 223.7 0.174547 1.48377 0
M  V30 2289 H 225.582 -2.15898 3.61892 0
M  V30 2290 H 224.257 -2.14633 2.42311 0
M  V30 2291 H 223.164 -0.235157 3.7336 0
M  V30 2292 H 224.497 -0.32904 4.91099 0
M  V30 2293 N 226.149 -1.5696 0.141893 0
M  V30 2294 C 227.426 -1.87553 -0.555281 0
M  V30 2295 C 227.806 -1.04699 -1.83306 0
M  V30 2296 O 227.154 -0.132346 -2.28116 0
M  V30 2297 C 227.364 -3.39093 -0.825664 0
M  V30 2298 C 228.712 -4.08199 -1.16869 0
M  V30 2299 O 229.736 -3.44242 -0.915185 0
M  V30 2300 O 228.595 -5.21139 -1.6455 0
M  V30 2301 H 225.689 -0.777188 -0.282679 0
M  V30 2302 H 228.235 -1.68763 0.17812 0
M  V30 2303 H 227.007 -3.91221 0.0788633 0
M  V30 2304 H 226.63 -3.63393 -1.61343 0
M  V30 2305 N 227.627 0.131896 -1.57047 0
M  V30 2306 C 228.575 1.18146 -2.0036 0
M  V30 2307 C 229.569 1.43614 -0.898406 0
M  V30 2308 O 230.775 1.43729 -1.08361 0
M  V30 2309 H 227.15 0.398042 -0.638018 0
M  V30 2310 H 229.121 0.789564 -2.87765 0
M  V30 2311 C 227.87 2.50341 -2.41298 0
M  V30 2312 H 227.193 2.31578 -3.25902 0
M  V30 2313 H 228.633 3.22371 -2.75414 0
M  V30 2314 C 227.092 3.11984 -1.27153 0
M  V30 2315 O 227.622 3.97484 -0.580459 0
M  V30 2316 N 225.828 2.71662 -1.03189 0
M  V30 2317 H 225.375 2.02231 -1.59564 0
M  V30 2318 H 225.333 3.13238 -0.270077 0
M  V30 2319 N 229.106 1.52395 0.401703 0
M  V30 2320 C 230.522 1.41363 0.740864 0
M  V30 2321 C 230.722 0.523982 1.94568 0
M  V30 2322 O 229.778 -0.00741204 2.52499 0
M  V30 2323 C 231.091 2.84011 0.987847 0
M  V30 2324 C 232.639 2.93404 1.09011 0
M  V30 2325 C 233.114 4.37036 1.3698 0
M  V30 2326 N 234.605 4.40304 1.43829 0
M  V30 2327 C 235.34 5.48508 1.67112 0
M  V30 2328 N 234.836 6.66819 1.87949 0
M  V30 2329 N 236.629 5.36034 1.69187 0
M  V30 2330 H 228.78 2.08765 -0.391262 0
M  V30 2331 H 231.043 0.941265 -0.112798 0
M  V30 2332 H 230.749 3.51265 0.174835 0
M  V30 2333 H 230.623 3.25502 1.906 0
M  V30 2334 H 233.01 2.26325 1.8937 0
M  V30 2335 H 233.091 2.55359 0.15015 0
M  V30 2336 H 232.735 5.04676 0.571353 0
M  V30 2337 H 232.665 4.72623 2.3224 0
M  V30 2338 H 235.156 3.55024 1.29486 0
M  V30 2339 H 235.469 7.45063 2.05185 0
M  V30 2340 H 233.814 6.6987 1.85199 0
M  V30 2341 H 237.005 4.42579 1.52451 0
M  V30 2342 H 237.178 6.20434 1.86993 0
M  V30 2343 N 230.584 -0.659388 1.43143 0
M  V30 2344 C 231.83 -1.42145 1.44647 0
M  V30 2345 C 232.163 -1.9408 0.0681907 0
M  V30 2346 O 231.438 -1.71899 -0.910007 0
M  V30 2347 C 231.721 -2.60735 2.48373 0
M  V30 2348 C 231.574 -2.14332 3.95451 0
M  V30 2349 C 232.893 -3.62951 2.48906 0
M  V30 2350 H 230.012 -0.51552 0.526696 0
M  V30 2351 H 232.654 -0.748069 1.74654 0
M  V30 2352 H 230.804 -3.18184 2.22916 0
M  V30 2353 H 232.476 -1.61932 4.31944 0
M  V30 2354 H 230.719 -1.4576 4.08578 0
M  V30 2355 H 231.39 -2.99583 4.63631 0
M  V30 2356 H 233.866 -3.1525 2.71582 0
M  V30 2357 H 232.742 -4.43487 3.23435 0
M  V30 2358 H 233.003 -4.15126 1.52061 0
M  V30 2359 N 232.062 -1.29571 -0.897171 0
M  V30 2360 C 233.292 -1.20408 -1.67886 0
M  V30 2361 C 233.7 0.237429 -1.87704 0
M  V30 2362 O 233.043 1.17048 -1.41582 0
M  V30 2363 C 233.105 -1.84887 -3.08314 0
M  V30 2364 C 232.769 -3.34189 -3.11716 0
M  V30 2365 C 233.766 -4.30374 -2.91675 0
M  V30 2366 C 231.451 -3.75431 -3.33701 0
M  V30 2367 C 233.445 -5.65776 -2.93557 0
M  V30 2368 C 231.132 -5.10955 -3.35214 0
M  V30 2369 C 232.13 -6.05938 -3.15164 0
M  V30 2370 O 231.818 -7.38987 -3.1647 0
M  V30 2371 H 231.55 -0.418289 -0.531046 0
M  V30 2372 H 234.104 -1.71514 -1.13014 0
M  V30 2373 H 232.334 -1.28295 -3.64798 0
M  V30 2374 H 234.023 -1.70011 -3.6858 0
M  V30 2375 H 234.789 -3.99844 -2.74499 0
M  V30 2376 H 230.668 -3.01953 -3.48347 0
M  V30 2377 H 234.212 -6.39889 -2.77826 0
M  V30 2378 H 230.109 -5.4113 -3.51922 0
M  V30 2379 H 230.877 -7.47823 -3.3272 0
M  V30 2380 N 233.54 1.10788 -1.12088 0
M  V30 2381 C 234.487 2.17025 -0.785407 0
M  V30 2382 C 235.457 1.64265 0.246191 0
M  V30 2383 O 236.642 1.90412 0.121584 0
M  V30 2384 C 233.782 3.44249 -0.242177 0
M  V30 2385 C 232.895 4.1098 -1.33115 0
M  V30 2386 C 232.03 5.25911 -0.747741 0
M  V30 2387 C 231.069 5.84538 -1.81609 0
M  V30 2388 N 230.206 6.90853 -1.25167 0
M  V30 2389 H 235.046 2.45066 -1.69548 0
M  V30 2390 H 232.583 1.20297 -0.846582 0
M  V30 2391 H 234.541 4.17101 0.0908026 0
M  V30 2392 H 233.171 3.16571 0.631072 0
M  V30 2393 H 232.223 3.36133 -1.78097 0
M  V30 2394 H 233.535 4.50601 -2.13917 0
M  V30 2395 H 232.689 6.056 -0.365216 0
M  V30 2396 H 231.428 4.87614 0.0915188 0
M  V30 2397 H 230.433 5.03522 -2.20785 0
M  V30 2398 H 231.658 6.249 -2.6585 0
M  V30 2399 H 229.604 6.54562 -0.434174 0
M  V30 2400 H 229.521 7.29166 -1.99633 0
M  V30 2401 H 230.789 7.7433 -0.896259 0
M  V30 2402 N 235.018 0.912232 1.28515 0
M  V30 2403 C 236.258 0.551677 1.96814 0
M  V30 2404 C 236.622 -0.887825 1.7024 0
M  V30 2405 O 237.823 -1.35588 2.32098 0
M  V30 2406 C 236.094 0.850555 3.47132 0
M  V30 2407 S 237.653 0.59619 4.34731 0
M  V30 2408 H 234.471 0.204191 0.681049 0
M  V30 2409 H 237.073 1.17736 1.56072 0
M  V30 2410 H 235.777 1.8962 3.63968 0
M  V30 2411 H 235.308 0.213471 3.9282 0
M  V30 2412 H 237.323 -0.553154 4.93107 0
M  V30 2413 N 236.496 -1.42363 0.676048 0
M  V30 2414 C 237.724 -2.05859 0.207268 0
M  V30 2415 C 238.139 -1.50796 -1.13605 0
M  V30 2416 O 237.496 -0.648265 -1.70598 0
M  V30 2417 C 237.547 -3.61248 0.134975 0
M  V30 2418 O 237.268 -4.1427 1.42521 0
M  V30 2419 C 238.769 -4.41859 -0.357151 0
M  V30 2420 H 235.989 -0.663431 0.100503 0
M  V30 2421 H 238.533 -1.82479 0.923136 0
M  V30 2422 H 236.688 -3.83735 -0.531588 0
M  V30 2423 H 237.102 -5.0815 1.29939 0
M  V30 2424 H 238.576 -5.50847 -0.356641 0
M  V30 2425 H 239.053 -4.16536 -1.39264 0
M  V30 2426 H 239.659 -4.24392 0.27772 0
M  V30 2427 N 237.974 -0.419461 -1.51915 0
M  V30 2428 C 238.904 0.391813 -2.30189 0
M  V30 2429 C 239.885 1.03699 -1.34836 0
M  V30 2430 O 241.07 1.04403 -1.63748 0
M  V30 2431 C 238.2 1.50312 -3.13087 0
M  V30 2432 C 237.154 0.9824 -4.16573 0
M  V30 2433 C 236.48 2.18809 -4.8788 0
M  V30 2434 C 237.78 0.0292356 -5.22292 0
M  V30 2435 H 239.474 -0.26135 -2.98257 0
M  V30 2436 H 237.02 -0.127134 -1.43438 0
M  V30 2437 H 238.973 2.07773 -3.66617 0
M  V30 2438 H 237.697 2.18431 -2.42807 0
M  V30 2439 H 236.356 0.430119 -3.64068 0
M  V30 2440 H 236.004 2.85507 -4.14119 0
M  V30 2441 H 235.704 1.84615 -5.57845 0
M  V30 2442 H 237.228 2.76858 -5.44226 0
M  V30 2443 H 238.642 0.512976 -5.71 0
M  V30 2444 H 237.039 -0.2244 -5.9968 0
M  V30 2445 H 238.109 -0.912931 -4.76228 0
M  V30 2446 N 239.452 1.56882 -0.150215 0
M  V30 2447 C 240.692 1.98119 0.502804 0
M  V30 2448 C 241.056 1.03327 1.61826 0
M  V30 2449 O 242.257 1.33621 2.33236 0
M  V30 2450 C 240.528 3.43329 0.992988 0
M  V30 2451 S 242.087 4.0659 1.65015 0
M  V30 2452 H 238.905 0.692189 0.162467 0
M  V30 2453 H 241.507 1.93988 -0.242689 0
M  V30 2454 H 240.211 4.10046 0.170436 0
M  V30 2455 H 239.742 3.5118 1.77303 0
M  V30 2456 H 241.757 3.99906 2.93752 0
M  V30 2457 N 240.93 -0.123565 1.57115 0
M  V30 2458 C 242.176 -0.833386 1.84885 0
M  V30 2459 C 242.509 -1.79742 0.735292 0
M  V30 2460 O 241.784 -1.92764 -0.25925 0
M  V30 2461 C 242.067 -1.5873 3.23228 0
M  V30 2462 C 241.92 -0.643183 4.45178 0
M  V30 2463 C 243.239 -2.54453 3.59085 0
M  V30 2464 H 240.358 -0.301518 0.6725 0
M  V30 2465 H 243 -0.097778 1.89748 0
M  V30 2466 H 241.15 -2.21438 3.19214 0
M  V30 2467 H 242.822 -0.0253015 4.61293 0
M  V30 2468 H 241.065 0.0456139 4.33776 0
M  V30 2469 H 241.736 -1.20724 5.38637 0
M  V30 2470 H 244.212 -2.01853 3.63861 0
M  V30 2471 H 243.088 -3.04238 4.5687 0
M  V30 2472 H 243.349 -3.36906 2.86264 0
M  V30 2473 N 242.408 -1.52605 -0.393616 0
M  V30 2474 C 243.685 -1.58001 -1.15304 0
M  V30 2475 C 244.065 -0.370385 -2.07825 0
M  V30 2476 O 243.413 0.641638 -2.19306 0
M  V30 2477 C 243.623 -2.91652 -1.91677 0
M  V30 2478 C 244.971 -3.4522 -2.47201 0
M  V30 2479 O 245.995 -2.93495 -2.01839 0
M  V30 2480 O 244.854 -4.35579 -3.3005 0
M  V30 2481 H 241.948 -0.637068 -0.527327 0
M  V30 2482 H 244.494 -1.64939 -0.399141 0
M  V30 2483 H 243.266 -3.71136 -1.23992 0
M  V30 2484 H 242.889 -2.88077 -2.74039 0
M  V30 2485 N 243.887 0.651787 -1.4349 0
M  V30 2486 C 245.303 0.96762 -1.26922 0
M  V30 2487 C 245.503 2.00602 -0.189982 0
M  V30 2488 O 244.559 2.48793 0.431107 0
M  V30 2489 C 245.872 1.45052 -2.63401 0
M  V30 2490 C 247.42 1.5671 -2.70945 0
M  V30 2491 C 247.895 2.0839 -4.07845 0
M  V30 2492 N 249.386 2.1569 -4.09917 0
M  V30 2493 C 250.121 2.56804 -5.12679 0
M  V30 2494 N 249.617 2.97203 -6.25813 0
M  V30 2495 N 251.41 2.56756 -5.00033 0
M  V30 2496 H 243.561 -0.0353158 -2.12371 0
M  V30 2497 H 245.824 0.0467858 -0.946845 0
M  V30 2498 H 245.53 0.761926 -3.43348 0
M  V30 2499 H 245.404 2.42529 -2.88894 0
M  V30 2500 H 247.791 2.2467 -1.9133 0
M  V30 2501 H 247.872 0.57662 -2.49216 0
M  V30 2502 H 247.516 1.41031 -4.87927 0
M  V30 2503 H 247.446 3.08271 -4.26938 0
M  V30 2504 H 249.937 1.87237 -3.28254 0
M  V30 2505 H 250.25 3.27328 -7.00055 0
M  V30 2506 H 248.595 2.95004 -6.29283 0
M  V30 2507 H 251.786 2.24572 -4.10713 0
M  V30 2508 H 251.959 2.88475 -5.80247 0
M  V30 2509 N 245.365 1.30045 0.890287 0
M  V30 2510 C 246.611 1.18737 1.64406 0
M  V30 2511 C 246.944 -0.258525 1.92472 0
M  V30 2512 O 246.219 -1.18562 1.54186 0
M  V30 2513 C 246.502 2.01087 2.98724 0
M  V30 2514 C 246.355 3.53867 2.77665 0
M  V30 2515 C 247.674 1.84457 3.9958 0
M  V30 2516 H 244.793 0.432698 0.596608 0
M  V30 2517 H 247.435 1.5962 1.0306 0
M  V30 2518 H 245.585 1.66349 3.51084 0
M  V30 2519 H 247.257 3.98637 2.32133 0
M  V30 2520 H 245.5 3.78318 2.12269 0
M  V30 2521 H 246.171 4.06772 3.7315 0
M  V30 2522 H 248.647 2.14817 3.56361 0
M  V30 2523 H 247.523 2.44411 4.91482 0
M  V30 2524 H 247.784 0.802276 4.3476 0
M  V30 2525 N 246.843 -1.10192 1.12674 0
M  V30 2526 C 248.068 -1.86523 0.906853 0
M  V30 2527 C 248.493 -1.80221 -0.538711 0
M  V30 2528 O 247.851 -1.17396 -1.38158 0
M  V30 2529 C 247.899 -3.32758 1.3894 0
M  V30 2530 O 247.003 -4.08449 0.5695 0
M  V30 2531 H 246.344 -0.578678 0.325619 0
M  V30 2532 H 248.874 -1.39203 1.49946 0
M  V30 2533 H 248.884 -3.83608 1.38958 0
M  V30 2534 H 247.559 -3.36661 2.44197 0
M  V30 2535 H 246.136 -3.67427 0.636528 0
M  V30 2536 N 248.321 -0.919034 -1.28029 0
M  V30 2537 C 249.567 -0.555757 -1.95036 0
M  V30 2538 C 249.9 0.899198 -1.72128 0
M  V30 2539 O 249.175 1.64023 -1.04531 0
M  V30 2540 C 249.458 -0.872024 -3.49382 0
M  V30 2541 C 249.311 -2.3801 -3.81669 0
M  V30 2542 C 250.63 -0.37185 -4.38526 0
M  V30 2543 H 247.749 -0.203386 -0.708381 0
M  V30 2544 H 250.391 -1.14924 -1.51303 0
M  V30 2545 H 248.541 -0.366946 -3.86763 0
M  V30 2546 H 250.213 -2.9562 -3.54128 0
M  V30 2547 H 248.456 -2.83289 -3.28526 0
M  V30 2548 H 249.127 -2.55192 -4.8947 0
M  V30 2549 H 251.603 -0.804602 -4.08247 0
M  V30 2550 H 250.479 -0.622173 -5.45362 0
M  V30 2551 H 250.74 0.727934 -4.36066 0
M  V30 2552 N 249.799 1.42003 -0.683588 0
M  V30 2553 C 251.047 2.01015 -0.209101 0
M  V30 2554 C 251.368 1.54365 1.19149 0
M  V30 2555 O 250.638 0.769083 1.80172 0
M  V30 2556 H 249.218 0.743294 -0.074315 0
M  V30 2557 H 251.88 1.73798 -0.882066 0
M  V30 2558 H 250.976 3.11343 -0.2172 0
M  V30 2559 N 251.277 0.427512 1.51691 0
M  V30 2560 C 252.209 -0.424521 2.25234 0
M  V30 2561 C 253.222 -0.994671 1.2888 0
M  V30 2562 O 254.411 -0.890483 1.54702 0
M  V30 2563 C 251.511 -1.60479 2.98496 0
M  V30 2564 C 250.684 -1.15527 4.21868 0
M  V30 2565 C 249.743 -2.20454 4.77793 0
M  V30 2566 O 248.769 -1.8029 5.39893 0
M  V30 2567 N 249.971 -3.52831 4.60967 0
M  V30 2568 H 252.736 0.205749 2.98993 0
M  V30 2569 H 250.297 0.255867 1.59865 0
M  V30 2570 H 252.289 -2.30276 3.32799 0
M  V30 2571 H 250.859 -2.14061 2.27809 0
M  V30 2572 H 250.079 -0.284736 3.9317 0
M  V30 2573 H 251.367 -0.832173 5.01949 0
M  V30 2574 H 250.765 -3.88201 4.11481 0
M  V30 2575 H 249.322 -4.18551 4.99658 0
M  V30 2576 N 252.755 -1.56801 0.158532 0
M  V30 2577 C 253.665 -2.20916 -0.789518 0
M  V30 2578 C 254.681 -1.1969 -1.26294 0
M  V30 2579 O 255.857 -1.52308 -1.31773 0
M  V30 2580 C 252.922 -2.82727 -2.00665 0
M  V30 2581 C 251.983 -3.99114 -1.58134 0
M  V30 2582 C 251.216 -4.57968 -2.74045 0
M  V30 2583 O 251.439 -4.15704 -3.90572 0
M  V30 2584 O 250.373 -5.48047 -2.48855 0
M  V30 2585 H 254.199 -3.02464 -0.273681 0
M  V30 2586 H 251.784 -1.4924 -0.0690548 0
M  V30 2587 H 253.666 -3.21968 -2.71872 0
M  V30 2588 H 252.341 -2.04184 -2.51179 0
M  V30 2589 H 251.248 -3.64567 -0.839155 0
M  V30 2590 H 252.581 -4.79212 -1.12325 0
M  V30 2591 N 254.233 0.115231 -1.57178 0
M  V30 2592 C 255.644 0.67197 -1.74188 0
M  V30 2593 C 255.995 1.80125 -0.777777 0
M  V30 2594 O 255.12 2.16346 0.0484376 0
M  V30 2595 C 255.715 1.22573 -3.1585 0
M  V30 2596 C 254.274 1.72872 -3.34353 0
M  V30 2597 C 253.421 0.629972 -2.70049 0
M  V30 2598 H 256.372 -0.110712 -1.58313 0
M  V30 2599 H 256.393 2.09535 -3.17609 0
M  V30 2600 H 255.905 0.403598 -3.85996 0
M  V30 2601 H 254.006 2.5755 -2.69256 0
M  V30 2602 H 254.119 1.83557 -4.42542 0
M  V30 2603 H 252.483 1.0645 -2.31388 0
M  V30 2604 H 253.266 -0.181241 -3.42821 0
M  V30 2605 N 255.711 1.52812 0.385517 0
M  V30 2606 C 256.674 1.77188 1.45386 0
M  V30 2607 C 257.674 0.641953 1.4743 0
M  V30 2608 O 258.864 0.910033 1.4854 0
M  V30 2609 C 255.996 1.87582 2.8465 0
M  V30 2610 H 257.189 2.72583 1.25054 0
M  V30 2611 H 254.742 1.43586 0.617467 0
M  V30 2612 H 255.477 0.941849 3.10322 0
M  V30 2613 H 255.262 2.69748 2.84567 0
M  V30 2614 H 256.752 2.08102 3.62054 0
M  V30 2615 N 257.189 -0.644168 1.43834 0
M  V30 2616 C 258.429 -1.41565 1.47441 0
M  V30 2617 C 258.793 -1.91743 0.0992723 0
M  V30 2618 O 259.994 -2.68798 0.0100192 0
M  V30 2619 C 258.265 -2.55902 2.49498 0
M  V30 2620 S 259.824 -3.44287 2.72051 0
M  V30 2621 H 256.642 -0.483118 0.521649 0
M  V30 2622 H 259.244 -0.747008 1.80666 0
M  V30 2623 H 257.948 -2.17327 3.48134 0
M  V30 2624 H 257.479 -3.27607 2.17801 0
M  V30 2625 H 259.494 -4.52927 2.0266 0
M  V30 2626 N 258.668 -1.30515 -0.883378 0
M  V30 2627 C 259.914 -1.19607 -1.63774 0
M  V30 2628 C 260.247 0.248314 -1.92606 0
M  V30 2629 O 259.522 1.17742 -1.54813 0
M  V30 2630 C 259.805 -2.02669 -2.97653 0
M  V30 2631 C 259.658 -3.55335 -2.75784 0
M  V30 2632 C 260.977 -1.86573 -3.98596 0
M  V30 2633 H 258.096 -0.435856 -0.594305 0
M  V30 2634 H 260.738 -1.60165 -1.02212 0
M  V30 2635 H 258.888 -1.68208 -3.50197 0
M  V30 2636 H 260.56 -3.99863 -2.30016 0
M  V30 2637 H 258.803 -3.79438 -2.1026 0
M  V30 2638 H 259.474 -4.08745 -3.70988 0
M  V30 2639 H 261.95 -2.16703 -3.55217 0
M  V30 2640 H 260.826 -2.47014 -4.90179 0
M  V30 2641 H 261.087 -0.825321 -4.34328 0
M  V30 2642 N 260.146 1.09593 -1.13257 0
M  V30 2643 C 261.093 2.1618 -0.808381 0
M  V30 2644 C 262.063 1.64517 0.228754 0
M  V30 2645 O 263.248 1.9053 0.101381 0
M  V30 2646 C 260.388 3.43973 -0.278675 0
M  V30 2647 C 259.501 4.09545 -1.37466 0
M  V30 2648 C 258.636 5.25088 -0.803479 0
M  V30 2649 C 257.675 5.82579 -1.87799 0
M  V30 2650 N 256.812 6.89486 -1.32488 0
M  V30 2651 H 261.652 2.43254 -1.72138 0
M  V30 2652 H 259.189 1.19392 -0.859294 0
M  V30 2653 H 261.147 4.17174 0.0465583 0
M  V30 2654 H 259.777 3.17223 0.597459 0
M  V30 2655 H 258.829 3.34226 -1.81652 0
M  V30 2656 H 260.141 4.48307 -2.18684 0
M  V30 2657 H 259.295 6.05178 -0.429427 0
M  V30 2658 H 258.034 4.87684 0.0397956 0
M  V30 2659 H 257.039 5.01152 -2.26113 0
M  V30 2660 H 258.264 6.22045 -2.72463 0
M  V30 2661 H 256.21 6.54064 -0.503575 0
M  V30 2662 H 256.127 7.27007 -2.07355 0
M  V30 2663 H 257.395 7.73336 -0.978336 0
M  V30 2664 N 261.624 0.925811 1.2754 0
M  V30 2665 C 262.852 0.581509 1.9856 0
M  V30 2666 C 263.267 -0.840041 1.69082 0
M  V30 2667 O 262.624 -1.55805 0.950312 0
M  V30 2668 C 262.675 0.795589 3.52637 0
M  V30 2669 O 262.396 2.16121 3.81082 0
M  V30 2670 C 263.897 0.459744 4.4091 0
M  V30 2671 H 261.117 0.220538 0.633722 0
M  V30 2672 H 263.661 1.24232 1.6244 0
M  V30 2673 H 261.816 0.18161 3.86974 0
M  V30 2674 H 262.23 2.2098 4.75676 0
M  V30 2675 H 263.704 0.660244 5.48037 0
M  V30 2676 H 264.181 -0.604625 4.35018 0
M  V30 2677 H 264.787 1.05178 4.12089 0
M  V30 2678 N 263.102 -1.41638 0.69111 0
M  V30 2679 C 264.342 -2.03166 0.224291 0
M  V30 2680 C 264.706 -1.53537 -1.15284 0
M  V30 2681 O 265.907 -2.0696 -1.71525 0
M  V30 2682 C 264.178 -3.56342 0.274758 0
M  V30 2683 S 265.737 -4.3864 -0.118669 0
M  V30 2684 H 262.555 -0.705188 0.0907263 0
M  V30 2685 H 265.157 -1.7314 0.907895 0
M  V30 2686 H 263.861 -3.89958 1.2791 0
M  V30 2687 H 263.392 -3.91063 -0.428142 0
M  V30 2688 H 265.407 -4.77549 -1.34764 0
M  V30 2689 N 264.58 -0.43555 -1.51462 0
M  V30 2690 C 265.991 0.0279871 -1.86679 0
M  V30 2691 C 266.342 1.42104 -1.35281 0
M  V30 2692 O 265.467 2.04667 -0.702878 0
M  V30 2693 C 266.062 0.0575626 -3.38751 0
M  V30 2694 C 264.621 0.465507 -3.7351 0
M  V30 2695 C 263.768 -0.342996 -2.75171 0
M  V30 2696 H 266.719 -0.651473 -1.44712 0
M  V30 2697 H 266.74 0.867421 -3.70481 0
M  V30 2698 H 266.252 -0.956448 -3.7613 0
M  V30 2699 H 264.353 1.48519 -3.41721 0
M  V30 2700 H 264.466 0.191546 -4.78717 0
M  V30 2701 H 262.83 0.198442 -2.53926 0
M  V30 2702 H 263.613 -1.35585 -3.15391 0
M  V30 2703 N 266.058 1.56714 -0.166846 0
M  V30 2704 C 267.286 2.0112 0.485644 0
M  V30 2705 C 267.701 1.04705 1.57106 0
M  V30 2706 O 267.058 0.0471923 1.82439 0
M  V30 2707 C 267.109 3.45361 1.06808 0
M  V30 2708 O 266.83 4.38092 0.0259995 0
M  V30 2709 C 268.331 4.05145 1.79924 0
M  V30 2710 H 265.551 0.65931 0.124704 0
M  V30 2711 H 268.095 2.02746 -0.267262 0
M  V30 2712 H 266.25 3.44524 1.7715 0
M  V30 2713 H 266.664 5.22519 0.455398 0
M  V30 2714 H 268.138 5.08009 2.15942 0
M  V30 2715 H 268.615 3.46982 2.69258 0
M  V30 2716 H 269.221 4.09672 1.14234 0
M  V30 2717 N 267.536 -0.106894 1.57237 0
M  V30 2718 C 268.784 -0.810921 1.85117 0
M  V30 2719 C 269.105 -1.7984 0.753827 0
M  V30 2720 O 268.375 -1.94649 -0.221056 0
M  V30 2721 H 266.955 -0.302466 0.683025 0
M  V30 2722 H 269.617 -0.0913324 1.94686 0
M  V30 2723 H 268.713 -1.34875 2.81452 0
M  V30 2724 N 269.014 -1.53014 -0.377408 0
M  V30 2725 C 269.977 -1.77957 -1.44444 0
M  V30 2726 C 270.977 -0.649763 -1.47087 0
M  V30 2727 O 272.167 -0.917897 -1.48055 0
M  V30 2728 C 269.299 -1.89089 -2.83651 0
M  V30 2729 H 270.492 -2.73243 -1.23606 0
M  V30 2730 H 268.045 -1.43912 -0.609844 0
M  V30 2731 H 268.78 -0.958293 -3.09818 0
M  V30 2732 H 268.565 -2.71254 -2.83132 0
M  V30 2733 H 270.055 -2.1002 -3.60945 0
M  V30 2734 N 270.492 0.636531 -1.44174 0
M  V30 2735 C 271.741 1.39213 -1.45954 0
M  V30 2736 C 272.054 1.95374 -0.0939119 0
M  V30 2737 O 273.26 2.71498 0.0107767 0
M  V30 2738 C 271.716 2.52025 -2.56927 0
M  V30 2739 C 271.324 2.024 -3.99673 0
M  V30 2740 C 273.068 3.29269 -2.67922 0
M  V30 2741 C 270.975 3.12521 -5.0208 0
M  V30 2742 H 269.905 0.523132 -0.542999 0
M  V30 2743 H 272.556 0.685349 -1.70221 0
M  V30 2744 H 270.938 3.25253 -2.25891 0
M  V30 2745 H 272.112 1.36073 -4.40251 0
M  V30 2746 H 270.427 1.37987 -3.92872 0
M  V30 2747 H 273.024 4.11352 -3.41605 0
M  V30 2748 H 273.367 3.78397 -1.73555 0
M  V30 2749 H 273.9 2.63129 -2.98342 0
M  V30 2750 H 270.639 2.68343 -5.98057 0
M  V30 2751 H 270.159 3.77507 -4.66099 0
M  V30 2752 H 271.838 3.77385 -5.25538 0
M  V30 2753 N 271.97 1.30982 0.876444 0
M  V30 2754 C 272.92 1.14688 1.97055 0
M  V30 2755 C 273.904 0.0596593 1.60789 0
M  V30 2756 O 275.096 0.283892 1.74708 0
M  V30 2757 C 272.225 0.849627 3.3262 0
M  V30 2758 C 271.311 1.97752 3.75173 0
M  V30 2759 N 271.702 3.22384 3.89746 0
M  V30 2760 C 270 1.8758 4.04635 0
M  V30 2761 C 270.701 3.96121 4.25985 0
M  V30 2762 N 269.677 3.24237 4.36315 0
M  V30 2763 H 273.479 2.09204 2.06424 0
M  V30 2764 H 270.993 1.22445 1.06682 0
M  V30 2765 H 272.99 0.713895 4.10742 0
M  V30 2766 H 271.65 -0.087376 3.24582 0
M  V30 2767 H 272.661 3.57575 3.74647 0
M  V30 2768 H 269.338 1.01303 4.05024 0
M  V30 2769 H 270.728 5.03491 4.44911 0
M  V30 2770 N 273.449 -1.08991 1.13837 0
M  V30 2771 C 274.696 -1.81258 0.902882 0
M  V30 2772 C 275.024 -1.85936 -0.570803 0
M  V30 2773 O 274.279 -1.3267 -1.43865 0
M  V30 2774 C 274.578 -3.27042 1.44147 0
M  V30 2775 C 274.244 -3.4249 2.93276 0
M  V30 2776 C 272.906 -3.46414 3.33992 0
M  V30 2777 C 275.258 -3.4666 3.892 0
M  V30 2778 C 272.586 -3.52091 4.69307 0
M  V30 2779 C 274.938 -3.53872 5.24364 0
M  V30 2780 C 273.602 -3.56066 5.646 0
M  V30 2781 H 272.872 -0.663268 0.330388 0
M  V30 2782 H 275.519 -1.28368 1.42105 0
M  V30 2783 H 273.824 -3.82599 0.844097 0
M  V30 2784 H 275.521 -3.81499 1.23528 0
M  V30 2785 H 272.111 -3.40124 2.60794 0
M  V30 2786 H 276.295 -3.42865 3.58828 0
M  V30 2787 H 271.551 -3.52079 4.9985 0
M  V30 2788 H 275.725 -3.56043 5.98503 0
M  V30 2789 H 273.352 -3.60218 6.69438 0
M  V30 2790 N 274.927 -0.932562 -1.27047 0
M  V30 2791 C 276.175 -0.574422 -1.93765 0
M  V30 2792 C 276.496 0.887993 -1.73608 0
M  V30 2793 O 275.766 1.62999 -1.08665 0
M  V30 2794 H 274.346 -0.209451 -0.717035 0
M  V30 2795 H 277.008 -1.18601 -1.5466 0
M  V30 2796 H 276.104 -0.784841 -3.02071 0
M  V30 2797 N 276.405 1.4127 -0.698611 0
M  V30 2798 C 277.633 2.05503 -0.239992 0
M  V30 2799 C 278.048 1.52584 1.11191 0
M  V30 2800 O 277.405 0.675323 1.69545 0
M  V30 2801 C 277.456 3.60987 -0.192429 0
M  V30 2802 O 277.177 4.1195 -1.49094 0
M  V30 2803 C 278.678 4.42371 0.28681 0
M  V30 2804 H 275.898 0.661748 -0.111045 0
M  V30 2805 H 278.442 1.80987 -0.95205 0
M  V30 2806 H 276.597 3.84533 0.470472 0
M  V30 2807 H 277.011 5.06018 -1.38007 0
M  V30 2808 H 278.485 5.51344 0.26896 0
M  V30 2809 H 278.962 4.18699 1.32619 0
M  V30 2810 H 279.568 4.23897 -0.345201 0
M  V30 2811 N 277.883 0.443576 1.51229 0
M  V30 2812 C 278.83 -0.364716 2.279 0
M  V30 2813 C 279.8 -1.0114 1.31757 0
M  V30 2814 O 280.985 -1.02912 1.60667 0
M  V30 2815 C 278.125 -1.45644 3.12861 0
M  V30 2816 C 277.238 -0.827269 4.24005 0
M  V30 2817 C 276.373 -1.89456 4.96266 0
M  V30 2818 C 275.412 -1.24416 5.99322 0
M  V30 2819 N 274.549 -2.25309 6.64966 0
M  V30 2820 H 279.389 0.295464 2.96532 0
M  V30 2821 H 276.926 0.157554 1.46254 0
M  V30 2822 H 278.884 -2.10076 3.6045 0
M  V30 2823 H 277.514 -2.08616 2.46331 0
M  V30 2824 H 276.566 -0.0710839 3.80334 0
M  V30 2825 H 277.878 -0.312481 4.9782 0
M  V30 2826 H 277.032 -2.61535 5.47434 0
M  V30 2827 H 275.771 -2.4431 4.22095 0
M  V30 2828 H 274.776 -0.508868 5.4744 0
M  V30 2829 H 276.001 -0.702882 6.75453 0
M  V30 2830 H 273.947 -2.79231 5.93604 0
M  V30 2831 H 273.864 -1.78739 7.34567 0
M  V30 2832 H 275.132 -2.96853 7.20763 0
M  V30 2833 N 279.361 -1.56624 0.175154 0
M  V30 2834 C 280.308 -2.18149 -0.753634 0
M  V30 2835 C 281.278 -1.12265 -1.22417 0
M  V30 2836 O 282.463 -1.40432 -1.29165 0
M  V30 2837 C 279.603 -2.82933 -1.97592 0
M  V30 2838 C 278.716 -4.03289 -1.5486 0
M  V30 2839 C 277.851 -4.55988 -2.72485 0
M  V30 2840 C 276.89 -5.68746 -2.26262 0
M  V30 2841 N 276.027 -6.15938 -3.36994 0
M  V30 2842 H 280.867 -2.9717 -0.222195 0
M  V30 2843 H 278.404 -1.46774 -0.0979422 0
M  V30 2844 H 280.362 -3.18653 -2.69288 0
M  V30 2845 H 278.992 -2.06509 -2.481 0
M  V30 2846 H 278.044 -3.73364 -0.728246 0
M  V30 2847 H 279.356 -4.849 -1.16933 0
M  V30 2848 H 278.51 -4.9391 -3.52332 0
M  V30 2849 H 277.249 -3.73443 -3.13674 0
M  V30 2850 H 276.254 -5.30372 -1.44863 0
M  V30 2851 H 277.479 -6.53095 -1.86127 0
M  V30 2852 H 275.425 -5.36321 -3.77751 0
M  V30 2853 H 275.342 -6.92548 -3.03172 0
M  V30 2854 H 276.61 -6.58511 -4.17114 0
M  V30 2855 N 280.839 0.0985539 -1.57292 0
M  V30 2856 C 281.749 1.13824 -2.05137 0
M  V30 2857 C 282.765 1.44076 -0.975604 0
M  V30 2858 O 283.941 1.54786 -1.28853 0
M  V30 2859 C 281.006 2.43969 -2.46333 0
M  V30 2860 C 280.067 2.2093 -3.68087 0
M  V30 2861 C 279.3 3.44869 -4.0731 0
M  V30 2862 O 279.523 4.52972 -3.46659 0
M  V30 2863 O 278.457 3.34661 -5.00285 0
M  V30 2864 H 282.283 0.761881 -2.93988 0
M  V30 2865 H 279.868 0.310818 -1.46131 0
M  V30 2866 H 281.75 3.20609 -2.73473 0
M  V30 2867 H 280.425 2.81038 -1.60621 0
M  V30 2868 H 279.332 1.42081 -3.46069 0
M  V30 2869 H 280.665 1.88755 -4.54568 0
M  V30 2870 N 282.317 1.53212 0.369288 0
M  V30 2871 C 283.25 1.74166 1.4745 0
M  V30 2872 C 284.228 0.589923 1.51521 0
M  V30 2873 O 285.412 0.822078 1.69629 0
M  V30 2874 C 282.539 1.81711 2.8583 0
M  V30 2875 C 281.585 3.03649 2.99499 0
M  V30 2876 S 282.418 4.63242 2.6864 0
M  V30 2877 C 283.574 4.7363 4.09177 0
M  V30 2878 H 283.807 2.67636 1.29454 0
M  V30 2879 H 281.34 1.43754 0.563396 0
M  V30 2880 H 283.298 1.86743 3.65564 0
M  V30 2881 H 281.959 0.89299 3.01139 0
M  V30 2882 H 281.152 3.05526 4.00836 0
M  V30 2883 H 280.754 2.9671 2.27683 0
M  V30 2884 H 283.046 4.53456 5.03372 0
M  V30 2885 H 283.989 5.75682 4.12306 0
M  V30 2886 H 284.397 4.02295 3.96004 0
M  V30 2887 N 283.795 -0.628877 1.44509 0
M  V30 2888 C 284.725 -1.75187 1.54376 0
M  V30 2889 C 285.706 -1.65411 0.396618 0
M  V30 2890 O 286.891 -1.84137 0.617031 0
M  V30 2891 C 284.021 -3.13725 1.48976 0
M  V30 2892 C 282.975 -3.38291 2.62189 0
M  V30 2893 C 282.301 -4.76883 2.41841 0
M  V30 2894 C 283.601 -3.30632 4.04326 0
M  V30 2895 H 285.295 -1.67187 2.48373 0
M  V30 2896 H 282.841 -0.802909 1.19538 0
M  V30 2897 H 284.794 -3.92064 1.54478 0
M  V30 2898 H 283.518 -3.22515 0.514961 0
M  V30 2899 H 282.177 -2.62334 2.56079 0
M  V30 2900 H 281.825 -4.82378 1.42548 0
M  V30 2901 H 281.525 -4.94278 3.17747 0
M  V30 2902 H 283.049 -5.57449 2.49165 0
M  V30 2903 H 284.463 -3.98873 4.11793 0
M  V30 2904 H 282.86 -3.59561 4.80454 0
M  V30 2905 H 283.93 -2.28404 4.27738 0
M  V30 2906 N 285.273 -1.31445 -0.869486 0
M  V30 2907 C 286.183 -1.21097 -2.0093 0
M  V30 2908 C 287.199 -0.127584 -1.73532 0
M  V30 2909 O 288.375 -0.345477 -1.98415 0
M  V30 2910 C 285.44 -0.919378 -3.34288 0
M  V30 2911 C 284.501 -2.08971 -3.75006 0
M  V30 2912 C 283.734 -1.81194 -5.02001 0
M  V30 2913 O 283.957 -0.747296 -5.65484 0
M  V30 2914 O 282.891 -2.66883 -5.39497 0
M  V30 2915 H 286.717 -2.16883 -2.12592 0
M  V30 2916 H 284.302 -1.11189 -0.997868 0
M  V30 2917 H 286.184 -0.772625 -4.14257 0
M  V30 2918 H 284.859 0.00844772 -3.23699 0
M  V30 2919 H 283.766 -2.29187 -2.95676 0
M  V30 2920 H 285.099 -2.9998 -3.90221 0
M  V30 2921 N 286.751 1.08385 -1.14413 0
M  V30 2922 C 287.681 2.17321 -0.854044 0
M  V30 2923 C 288.662 1.69024 0.191049 0
M  V30 2924 O 289.847 1.94141 0.0476779 0
M  V30 2925 C 286.977 3.45719 -0.330983 0
M  V30 2926 C 285.931 4.07409 -1.31155 0
M  V30 2927 C 285.257 5.30762 -0.64778 0
M  V30 2928 C 286.557 4.48665 -2.67388 0
M  V30 2929 H 288.251 2.41845 -1.76498 0
M  V30 2930 H 285.797 1.16233 -0.850051 0
M  V30 2931 H 287.75 4.21241 -0.115645 0
M  V30 2932 H 286.474 3.2075 0.615381 0
M  V30 2933 H 285.133 3.33919 -1.51306 0
M  V30 2934 H 284.781 5.02078 0.304398 0
M  V30 2935 H 284.481 5.72992 -1.30207 0
M  V30 2936 H 286.005 6.08998 -0.441972 0
M  V30 2937 H 287.419 5.15364 -2.51143 0
M  V30 2938 H 285.816 5.01814 -3.29093 0
M  V30 2939 H 286.886 3.60543 -3.24248 0
M  V30 2940 N 288.23 0.939286 1.26551 0
M  V30 2941 C 289.193 0.451987 2.24699 0
M  V30 2942 C 290.193 -0.435869 1.5478 0
M  V30 2943 O 291.383 -0.235314 1.72603 0
M  V30 2944 C 288.515 -0.348801 3.39111 0
M  V30 2945 H 289.708 1.3193 2.69322 0
M  V30 2946 H 287.261 0.721072 1.38673 0
M  V30 2947 H 287.996 -1.23444 2.99887 0
M  V30 2948 H 287.781 0.287945 3.91041 0
M  V30 2949 H 289.271 -0.679726 4.12031 0
M  V30 2950 N 289.708 -1.40897 0.706093 0
M  V30 2951 C 290.618 -2.3455 0.0482286 0
M  V30 2952 C 291.634 -1.56796 -0.754396 0
M  V30 2953 O 292.81 -1.89228 -0.689538 0
M  V30 2954 C 289.875 -3.35625 -0.869303 0
M  V30 2955 C 288.936 -4.29261 -0.0576994 0
M  V30 2956 C 288.169 -5.25508 -0.931531 0
M  V30 2957 O 288.392 -5.27472 -2.17092 0
M  V30 2958 O 287.326 -6.00727 -0.375587 0
M  V30 2959 H 291.152 -2.92407 0.820476 0
M  V30 2960 H 288.737 -1.4193 0.4665 0
M  V30 2961 H 290.619 -3.97635 -1.39514 0
M  V30 2962 H 289.294 -2.80196 -1.62086 0
M  V30 2963 H 288.201 -3.70566 0.512988 0
M  V30 2964 H 289.534 -4.87817 0.655426 0
M  V30 2965 N 291.186 -0.45159 -1.50991 0
M  V30 2966 C 292.118 0.388634 -2.25881 0
M  V30 2967 C 293.131 0.974041 -1.30446 0
M  V30 2968 O 294.32 0.865758 -1.56099 0
M  V30 2969 C 291.42 1.5571 -3.01011 0
M  V30 2970 C 290.593 1.08801 -4.23652 0
M  V30 2971 C 289.652 2.12825 -4.8124 0
M  V30 2972 O 288.678 1.71678 -5.42693 0
M  V30 2973 N 289.88 3.45453 -4.66522 0
M  V30 2974 H 292.645 -0.25329 -2.98628 0
M  V30 2975 H 290.206 -0.281268 -1.59438 0
M  V30 2976 H 292.198 2.24952 -3.3642 0
M  V30 2977 H 290.768 2.10409 -2.31186 0
M  V30 2978 H 289.988 0.22215 -3.93574 0
M  V30 2979 H 291.276 0.752213 -5.03209 0
M  V30 2980 H 290.674 3.81605 -4.17605 0
M  V30 2981 H 289.231 4.10549 -5.06254 0
M  V30 2982 N 292.664 1.56529 -0.183458 0
M  V30 2983 C 294.08 1.58664 0.172554 0
M  V30 2984 C 294.28 1.19925 1.61926 0
M  V30 2985 O 293.336 0.916534 2.35278 0
M  V30 2986 C 294.649 3.00463 -0.119262 0
M  V30 2987 C 296.197 3.12945 -0.0584396 0
M  V30 2988 C 296.672 4.56857 -0.323408 0
M  V30 2989 N 298.163 4.62403 -0.271612 0
M  V30 2990 C 298.898 5.71626 -0.450639 0
M  V30 2991 N 298.394 6.89362 -0.689384 0
M  V30 2992 N 300.187 5.60775 -0.385701 0
M  V30 2993 H 292.338 1.79994 -1.12765 0
M  V30 2994 H 294.601 0.834808 -0.449222 0
M  V30 2995 H 294.307 3.33326 -1.12192 0
M  V30 2996 H 294.181 3.72659 0.583544 0
M  V30 2997 H 296.568 2.79902 0.934805 0
M  V30 2998 H 296.649 2.4316 -0.794144 0
M  V30 2999 H 296.293 4.9061 -1.31392 0
M  V30 3000 H 296.223 5.24816 0.43305 0
M  V30 3001 H 298.714 3.77785 -0.0932256 0
M  V30 3002 H 299.027 7.68489 -0.815113 0
M  V30 3003 H 297.372 6.91196 -0.726142 0
M  V30 3004 H 300.563 4.67674 -0.199687 0
M  V30 3005 H 300.736 6.4584 -0.528646 0
M  V30 3006 N 294.142 -0.090211 1.57342 0
M  V30 3007 C 295.388 -0.793982 1.86611 0
M  V30 3008 C 295.721 -1.78142 0.773252 0
M  V30 3009 O 294.996 -1.93271 -0.218304 0
M  V30 3010 C 295.279 -1.51839 3.26523 0
M  V30 3011 C 295.132 -0.548609 4.46442 0
M  V30 3012 C 296.451 -2.46779 3.64401 0
M  V30 3013 H 293.57 -0.287186 0.678744 0
M  V30 3014 H 296.212 -0.0575076 1.89913 0
M  V30 3015 H 294.362 -2.14617 3.23839 0
M  V30 3016 H 296.034 0.0725513 4.61243 0
M  V30 3017 H 294.277 0.137614 4.33582 0
M  V30 3018 H 294.948 -1.09271 5.41076 0
M  V30 3019 H 297.424 -1.94089 3.68061 0
M  V30 3020 H 296.3 -2.94479 4.63221 0
M  V30 3021 H 296.561 -3.30758 2.93346 0
M  V30 3022 N 295.62 -1.53406 -0.361157 0
M  V30 3023 C 296.583 -1.79479 -1.42548 0
M  V30 3024 C 297.583 -0.665327 -1.4639 0
M  V30 3025 O 298.773 -0.933549 -1.47073 0
M  V30 3026 C 295.905 -1.92087 -2.8163 0
M  V30 3027 H 297.098 -2.74538 -1.20701 0
M  V30 3028 H 294.651 -1.4455 -0.594546 0
M  V30 3029 H 295.386 -0.991099 -3.08784 0
M  V30 3030 H 295.171 -2.74241 -2.80239 0
M  V30 3031 H 296.661 -2.13836 -3.58697 0
M  V30 3032 N 297.098 0.621204 -1.44841 0
M  V30 3033 C 298.045 1.73267 -1.5247 0
M  V30 3034 C 299.015 1.6189 -0.371611 0
M  V30 3035 O 300.2 1.81668 -0.58321 0
M  V30 3036 C 297.34 3.11545 -1.48438 0
M  V30 3037 C 296.453 3.33827 -2.74196 0
M  V30 3038 C 295.588 4.62133 -2.61929 0
M  V30 3039 C 294.627 4.77627 -3.82804 0
M  V30 3040 N 293.764 5.97219 -3.69153 0
M  V30 3041 H 298.604 1.66082 -2.47428 0
M  V30 3042 H 296.141 0.810026 -1.22788 0
M  V30 3043 H 298.099 3.91528 -1.4409 0
M  V30 3044 H 296.729 3.1772 -0.570402 0
M  V30 3045 H 295.781 2.47715 -2.88689 0
M  V30 3046 H 297.093 3.41153 -3.6389 0
M  V30 3047 H 296.247 5.50291 -2.5547 0
M  V30 3048 H 294.986 4.57182 -1.69811 0
M  V30 3049 H 293.991 3.87896 -3.89637 0
M  V30 3050 H 295.216 4.84385 -4.75971 0
M  V30 3051 H 293.162 5.93339 -2.79794 0
M  V30 3052 H 293.079 6.05644 -4.52472 0
M  V30 3053 H 294.347 6.87912 -3.66603 0
M  V30 3054 N 298.576 1.31904 0.862503 0
M  V30 3055 C 299.506 1.22782 1.98612 0
M  V30 3056 C 300.487 0.113362 1.69722 0
M  V30 3057 O 301.672 0.299218 1.91881 0
M  V30 3058 C 298.802 0.942058 3.34279 0
M  V30 3059 C 297.756 2.0169 3.77499 0
M  V30 3060 C 297.082 1.58369 5.10709 0
M  V30 3061 C 298.382 3.43096 3.93805 0
M  V30 3062 H 300.076 2.16788 2.06502 0
M  V30 3063 H 297.622 1.04366 0.992154 0
M  V30 3064 H 299.575 0.864818 4.1243 0
M  V30 3065 H 298.299 -0.0336603 3.26583 0
M  V30 3066 H 296.958 2.08416 3.01593 0
M  V30 3067 H 296.606 0.595628 4.99461 0
M  V30 3068 H 296.306 2.30279 5.40597 0
M  V30 3069 H 297.83 1.52067 5.91361 0
M  V30 3070 H 299.244 3.39003 4.62331 0
M  V30 3071 H 297.641 4.13288 4.35101 0
M  V30 3072 H 298.711 3.83334 2.96957 0
M  V30 3073 N 300.054 -1.07777 1.14986 0
M  V30 3074 C 301.001 -2.14867 0.842672 0
M  V30 3075 C 301.971 -1.6486 -0.202552 0
M  V30 3076 O 303.156 -1.90668 -0.0710568 0
M  V30 3077 C 300.296 -3.43486 0.333363 0
M  V30 3078 C 299.409 -4.07306 1.43965 0
M  V30 3079 C 298.544 -5.23744 0.886914 0
M  V30 3080 C 297.583 -5.79517 1.97043 0
M  V30 3081 N 296.72 -6.87291 1.4344 0
M  V30 3082 H 301.56 -2.40485 1.75986 0
M  V30 3083 H 299.097 -1.1801 0.878179 0
M  V30 3084 H 301.055 -4.17195 0.0198163 0
M  V30 3085 H 299.685 -3.18133 -0.546916 0
M  V30 3086 H 298.737 -3.31293 1.86946 0
M  V30 3087 H 300.049 -4.44771 2.25788 0
M  V30 3088 H 299.203 -6.04419 0.525651 0
M  V30 3089 H 297.942 -4.87685 0.0377957 0
M  V30 3090 H 296.947 -4.97491 2.34057 0
M  V30 3091 H 298.172 -6.17632 2.82325 0
M  V30 3092 H 296.118 -6.5318 0.607567 0
M  V30 3093 H 296.035 -7.23617 2.18895 0
M  V30 3094 H 297.303 -7.71682 1.10124 0
M  V30 3095 N 301.532 -0.945985 -1.26051 0
M  V30 3096 C 302.495 -0.463897 -2.24456 0
M  V30 3097 C 303.495 0.427655 -1.55009 0
M  V30 3098 O 304.685 0.226157 -1.72726 0
M  V30 3099 C 301.817 0.330812 -3.39291 0
M  V30 3100 H 303.01 -1.33357 -2.68619 0
M  V30 3101 H 300.563 -0.728416 -1.38289 0
M  V30 3102 H 301.298 1.21852 -3.00537 0
M  V30 3103 H 301.083 -0.308679 -3.90883 0
M  V30 3104 H 302.573 0.657865 -4.12386 0
M  V30 3105 N 303.011 1.40521 -0.713556 0
M  V30 3106 C 304.427 1.54839 -0.386907 0
M  V30 3107 C 304.627 1.68532 1.1045 0
M  V30 3108 O 303.683 1.67377 1.89053 0
M  V30 3109 C 304.996 2.77792 -1.15118 0
M  V30 3110 C 306.544 2.91607 -1.13729 0
M  V30 3111 C 307.019 4.1747 -1.88368 0
M  V30 3112 N 308.51 4.24466 -1.85427 0
M  V30 3113 C 309.245 5.20755 -2.40004 0
M  V30 3114 N 308.741 6.22965 -3.03129 0
M  V30 3115 N 310.534 5.1282 -2.30158 0
M  V30 3116 H 302.685 1.29879 -1.68063 0
M  V30 3117 H 304.948 0.627896 -0.710247 0
M  V30 3118 H 304.654 2.73944 -2.20561 0
M  V30 3119 H 304.528 3.6984 -0.741477 0
M  V30 3120 H 306.915 2.94959 -0.0910608 0
M  V30 3121 H 306.996 2.00682 -1.5862 0
M  V30 3122 H 306.64 4.1488 -2.9298 0
M  V30 3123 H 306.57 5.074 -1.40898 0
M  V30 3124 H 309.061 3.51241 -1.3942 0
M  V30 3125 H 309.374 6.92859 -3.42295 0
M  V30 3126 H 307.719 6.23415 -3.07212 0
M  V30 3127 H 310.91 4.31899 -1.80501 0
M  V30 3128 H 311.083 5.87689 -2.72993 0
M  V30 3129 N 304.489 0.459591 1.5075 0
M  V30 3130 C 305.737 -0.0991532 2.01857 0
M  V30 3131 C 306.058 -1.41247 1.34441 0
M  V30 3132 O 305.328 -1.89775 0.486022 0
M  V30 3133 H 303.908 -0.039633 0.745948 0
M  V30 3134 H 306.57 0.607387 1.85194 0
M  V30 3135 H 305.666 -0.258998 3.11023 0
M  V30 3136 N 305.967 -1.56429 0.191757 0
M  V30 3137 C 307.197 -2.01574 -0.452928 0
M  V30 3138 C 307.605 -1.07107 -1.55964 0
M  V30 3139 O 306.948 -0.067534 -1.83576 0
M  V30 3140 C 307.01 -3.43121 -1.07278 0
M  V30 3141 C 306.674 -4.56879 -0.105214 0
M  V30 3142 C 307.671 -5.15379 0.684149 0
M  V30 3143 C 305.356 -5.023 0.00489824 0
M  V30 3144 C 307.35 -6.17746 1.57062 0
M  V30 3145 C 305.037 -6.04511 0.894935 0
M  V30 3146 C 306.035 -6.62108 1.67637 0
M  V30 3147 O 305.723 -7.62335 2.55149 0
M  V30 3148 H 305.455 -0.665554 -0.118379 0
M  V30 3149 H 308.009 -2.03245 0.296737 0
M  V30 3150 H 306.239 -3.38425 -1.87097 0
M  V30 3151 H 307.928 -3.72093 -1.62177 0
M  V30 3152 H 308.694 -4.81157 0.609365 0
M  V30 3153 H 304.573 -4.57168 -0.593156 0
M  V30 3154 H 308.117 -6.6263 2.181 0
M  V30 3155 H 304.014 -6.38157 0.970847 0
M  V30 3156 H 304.782 -7.79741 2.48892 0
M  V30 3157 N 307.445 0.0818655 -1.57387 0
M  V30 3158 C 308.355 1.11642 -2.06333 0
M  V30 3159 C 309.371 1.43033 -0.99083 0
M  V30 3160 O 310.547 1.53411 -1.30488 0
M  V30 3161 C 307.612 2.41342 -2.48907 0
M  V30 3162 C 306.673 2.17014 -3.7041 0
M  V30 3163 C 305.906 3.4053 -4.10944 0
M  V30 3164 O 306.129 4.4927 -3.51444 0
M  V30 3165 O 305.063 3.29336 -5.03807 0
M  V30 3166 H 308.889 0.730657 -2.9478 0
M  V30 3167 H 306.474 0.295301 -1.46452 0
M  V30 3168 H 308.356 3.17691 -2.76858 0
M  V30 3169 H 307.031 2.79319 -1.63593 0
M  V30 3170 H 305.938 1.38403 -3.47556 0
M  V30 3171 H 307.271 1.83923 -4.56545 0
M  V30 3172 N 308.923 1.53595 0.353017 0
M  V30 3173 C 309.873 1.77299 1.43349 0
M  V30 3174 C 310.857 0.627884 1.48143 0
M  V30 3175 O 312.049 0.88697 1.53173 0
M  V30 3176 C 309.178 1.97757 2.80619 0
M  V30 3177 C 308.264 3.18305 2.80254 0
M  V30 3178 N 308.655 4.39967 2.49526 0
M  V30 3179 C 306.953 3.19283 3.11407 0
M  V30 3180 C 307.654 5.21772 2.57156 0
M  V30 3181 N 306.63 4.58269 2.92388 0
M  V30 3182 H 310.432 2.68963 1.18474 0
M  V30 3183 H 307.946 1.52391 0.561306 0
M  V30 3184 H 309.943 2.1287 3.58458 0
M  V30 3185 H 308.603 1.07329 3.06448 0
M  V30 3186 H 309.614 4.67482 2.22893 0
M  V30 3187 H 306.291 2.3879 3.4247 0
M  V30 3188 H 307.681 6.2885 2.36638 0
M  V30 3189 N 310.401 -0.613514 1.45168 0
M  V30 3190 C 311.364 -1.7065 1.53007 0
M  V30 3191 C 312.364 -1.5548 0.410184 0
M  V30 3192 O 313.554 -1.60656 0.673455 0
M  V30 3193 C 310.686 -3.09875 1.42093 0
M  V30 3194 H 311.879 -1.65068 2.50385 0
M  V30 3195 H 309.432 -0.828728 1.32521 0
M  V30 3196 H 310.167 -3.21039 0.458769 0
M  V30 3197 H 309.952 -3.22293 2.23315 0
M  V30 3198 H 311.442 -3.895 1.50598 0
M  V30 3199 N 311.879 -1.3236 -0.855495 0
M  V30 3200 C 313.127 -1.22629 -1.60644 0
M  V30 3201 C 313.448 0.212136 -1.93843 0
M  V30 3202 O 312.718 1.13666 -1.59552 0
M  V30 3203 H 311.298 -0.450882 -0.595579 0
M  V30 3204 H 313.96 -1.65871 -1.02337 0
M  V30 3205 H 313.056 -1.80832 -2.54374 0
M  V30 3206 N 313.357 1.07166 -1.15556 0
M  V30 3207 C 314.603 1.80065 -0.932984 0
M  V30 3208 C 314.936 1.86586 0.53845 0
M  V30 3209 O 314.211 1.35098 1.39924 0
M  V30 3210 C 314.494 3.25022 -1.55025 0
M  V30 3211 C 314.347 3.26634 -3.09242 0
M  V30 3212 C 315.666 4.22341 -1.2376 0
M  V30 3213 H 312.785 0.653697 -0.340366 0
M  V30 3214 H 315.427 1.25389 -1.4275 0
M  V30 3215 H 313.577 3.71712 -1.12972 0
M  V30 3216 H 315.249 2.88173 -3.60214 0
M  V30 3217 H 313.492 2.65539 -3.43033 0
M  V30 3218 H 314.163 4.28854 -3.47546 0
M  V30 3219 H 316.639 3.8405 -1.60139 0
M  V30 3220 H 315.515 5.22053 -1.69564 0
M  V30 3221 H 315.776 4.41828 -0.154938 0
M  V30 3222 N 314.835 0.952656 1.25548 0
M  V30 3223 C 316.065 0.622592 1.96996 0
M  V30 3224 C 316.473 -0.809112 1.71026 0
M  V30 3225 O 315.816 -1.55258 0.981861 0
M  V30 3226 C 315.878 0.798946 3.5051 0
M  V30 3227 C 315.542 2.20744 4.00151 0
M  V30 3228 C 316.539 3.18394 4.11001 0
M  V30 3229 C 314.224 2.5311 4.33867 0
M  V30 3230 C 316.218 4.46504 4.54877 0
M  V30 3231 C 313.905 3.8145 4.7743 0
M  V30 3232 C 314.903 4.77959 4.87897 0
M  V30 3233 O 314.591 6.04012 5.30494 0
M  V30 3234 H 314.323 0.232503 0.634758 0
M  V30 3235 H 316.877 1.2789 1.60728 0
M  V30 3236 H 315.107 0.0854903 3.86605 0
M  V30 3237 H 316.796 0.47023 4.03167 0
M  V30 3238 H 317.562 2.94715 3.85186 0
M  V30 3239 H 313.441 1.78719 4.24948 0
M  V30 3240 H 316.985 5.21835 4.62962 0
M  V30 3241 H 312.882 4.04936 5.0269 0
M  V30 3242 H 313.65 6.0736 5.48685 0
M  V30 3243 N 316.313 -1.40141 0.720998 0
M  V30 3244 C 317.261 -2.3252 0.0608547 0
M  V30 3245 C 318.255 -1.52326 -0.741152 0
M  V30 3246 O 319.461 -1.68089 -0.643911 0
M  V30 3247 H 315.836 -0.751999 0.000876664 0
M  V30 3248 H 317.807 -2.8584 0.856614 0
M  V30 3249 C 316.556 -3.37331 -0.842809 0
M  V30 3250 H 315.879 -3.99108 -0.235084 0
M  V30 3251 H 317.319 -4.04452 -1.27257 0
M  V30 3252 C 315.778 -2.73246 -1.97074 0
M  V30 3253 O 316.308 -2.59998 -3.06209 0
M  V30 3254 N 314.514 -2.31547 -1.75597 0
M  V30 3255 H 314.061 -2.42522 -0.868368 0
M  V30 3256 H 314.019 -1.89007 -2.51244 0
M  V30 3257 N 317.792 -0.46758 -1.50504 0
M  V30 3258 C 319.203 -0.0116166 -1.86696 0
M  V30 3259 C 319.554 1.39202 -1.38265 0
M  V30 3260 O 318.679 2.0313 -0.746132 0
M  V30 3261 C 319.274 -0.0143044 -3.38797 0
M  V30 3262 C 317.833 0.386175 -3.74414 0
M  V30 3263 C 316.98 -0.401287 -2.74381 0
M  V30 3264 H 319.931 -0.682022 -1.43297 0
M  V30 3265 H 319.952 0.788641 -3.72237 0
M  V30 3266 H 319.464 -1.03602 -3.74016 0
M  V30 3267 H 317.565 1.41237 -3.44794 0
M  V30 3268 H 317.678 0.0899596 -4.79016 0
M  V30 3269 H 316.042 0.144536 -2.5429 0
M  V30 3270 H 316.825 -1.42244 -3.12444 0
M  V30 3271 N 319.27 1.56325 -0.20005 0
M  V30 3272 C 320.18 2.22931 0.730668 0
M  V30 3273 C 321.196 1.22997 1.23076 0
M  V30 3274 O 322.372 1.55748 1.27689 0
M  V30 3275 C 319.437 2.87948 1.93098 0
M  V30 3276 C 318.498 4.03166 1.47497 0
M  V30 3277 C 317.731 4.65073 2.61807 0
M  V30 3278 O 317.954 4.25913 3.79413 0
M  V30 3279 O 316.888 5.54452 2.34237 0
M  V30 3280 H 320.714 3.03084 0.193391 0
M  V30 3281 H 318.299 1.49371 0.0294621 0
M  V30 3282 H 320.181 3.29063 2.6324 0
M  V30 3283 H 318.856 2.10771 2.45677 0
M  V30 3284 H 317.763 3.66664 0.742201 0
M  V30 3285 H 319.096 4.82022 0.995796 0
M  V30 3286 N 320.748 -0.0735177 1.57428 0
M  V30 3287 C 321.996 -0.771472 1.86796 0
M  V30 3288 C 322.317 -1.78201 0.791804 0
M  V30 3289 O 321.587 -1.95074 -0.179718 0
M  V30 3290 H 320.167 -0.28791 0.689287 0
M  V30 3291 H 322.829 -0.0500161 1.94836 0
M  V30 3292 H 321.925 -1.28874 2.8425 0
M  V30 3293 N 322.226 -1.5378 -0.344866 0
M  V30 3294 C 323.472 -1.71216 -1.08687 0
M  V30 3295 C 323.805 -0.473281 -1.88345 0
M  V30 3296 O 323.08 0.52968 -1.87149 0
M  V30 3297 C 323.363 -2.97486 -2.02914 0
M  V30 3298 C 323.216 -4.31579 -1.26727 0
M  V30 3299 C 324.535 -3.19422 -3.0275 0
M  V30 3300 H 321.654 -0.62301 -0.393735 0
M  V30 3301 H 324.296 -1.8645 -0.365563 0
M  V30 3302 H 322.446 -2.84629 -2.64421 0
M  V30 3303 H 324.118 -4.56284 -0.67845 0
M  V30 3304 H 322.361 -4.30049 -0.569273 0
M  V30 3305 H 323.032 -5.16106 -1.95803 0
M  V30 3306 H 325.508 -3.316 -2.51357 0
M  V30 3307 H 324.384 -4.09169 -3.65885 0
M  V30 3308 H 324.645 -2.35656 -3.74057 0
M  V30 3309 N 323.704 0.605807 -1.45491 0
M  V30 3310 C 324.952 1.36207 -1.49305 0
M  V30 3311 C 325.273 1.94519 -0.136863 0
M  V30 3312 O 324.543 1.77261 0.833983 0
M  V30 3313 H 323.123 0.50565 -0.549843 0
M  V30 3314 H 325.785 0.711239 -1.81459 0
M  V30 3315 H 324.881 2.18058 -2.23287 0
M  V30 3316 N 325.182 1.32811 0.848464 0
M  V30 3317 C 326.43 1.23479 1.59991 0
M  V30 3318 C 326.751 -0.201853 1.93952 0
M  V30 3319 O 326.021 -1.12818 1.60153 0
M  V30 3320 H 324.601 0.454034 0.593179 0
M  V30 3321 H 327.263 1.66412 1.01455 0
M  V30 3322 H 326.359 1.82178 2.53412 0
M  V30 3323 N 326.66 -1.06551 1.16123 0
M  V30 3324 C 327.888 -1.83005 0.965237 0
M  V30 3325 C 328.303 -1.82423 -0.486542 0
M  V30 3326 O 327.66 -1.24152 -1.33763 0
M  V30 3327 C 327.711 -3.29733 1.48183 0
M  V30 3328 O 327.432 -3.30416 2.87674 0
M  V30 3329 C 328.933 -4.22926 1.32848 0
M  V30 3330 H 326.153 -0.577118 0.342309 0
M  V30 3331 H 328.697 -1.3445 1.54089 0
M  V30 3332 H 326.852 -3.75609 0.948517 0
M  V30 3333 H 327.266 -4.22149 3.11272 0
M  V30 3334 H 328.74 -5.23916 1.73827 0
M  V30 3335 H 329.217 -4.38346 0.273692 0
M  V30 3336 H 329.823 -3.82894 1.85127 0
M  V30 3337 N 328.138 -0.959301 -1.25041 0
M  V30 3338 C 329.088 -0.453888 -2.23436 0
M  V30 3339 C 330.072 0.459461 -1.542 0
M  V30 3340 O 331.264 0.291752 -1.74579 0
M  V30 3341 C 328.393 0.262667 -3.42294 0
M  V30 3342 C 327.479 -0.669022 -4.1879 0
M  V30 3343 N 327.87 -1.80267 -4.72586 0
M  V30 3344 C 326.168 -0.47814 -4.4343 0
M  V30 3345 C 326.869 -2.38475 -5.3057 0
M  V30 3346 N 325.845 -1.67078 -5.17287 0
M  V30 3347 H 329.647 -1.319 -2.6264 0
M  V30 3348 H 327.161 -0.817358 -1.40332 0
M  V30 3349 H 329.158 0.641911 -4.11929 0
M  V30 3350 H 327.818 1.12432 -3.04613 0
M  V30 3351 H 328.829 -2.18442 -4.69578 0
M  V30 3352 H 325.506 0.340249 -4.16111 0
M  V30 3353 H 326.896 -3.34094 -5.8295 0
M  V30 3354 N 329.616 1.39756 -0.72842 0
M  V30 3355 C 330.862 2.00942 -0.273892 0
M  V30 3356 C 331.195 1.57656 1.13394 0
M  V30 3357 O 330.47 0.802434 1.77176 0
M  V30 3358 C 330.753 3.58211 -0.368346 0
M  V30 3359 C 330.606 4.11534 -1.81548 0
M  V30 3360 C 331.925 4.39372 0.253054 0
M  V30 3361 H 329.044 0.730047 -0.100996 0
M  V30 3362 H 331.686 1.66056 -0.923337 0
M  V30 3363 H 329.836 3.88061 0.184588 0
M  V30 3364 H 331.508 3.92431 -2.42478 0
M  V30 3365 H 329.751 3.65341 -2.33898 0
M  V30 3366 H 330.422 5.20682 -1.83288 0
M  V30 3367 H 332.898 4.15527 -0.218224 0
M  V30 3368 H 331.774 5.48677 0.156585 0
M  V30 3369 H 332.035 4.21358 1.33826 0
M  V30 3370 N 331.094 0.475555 1.50254 0
M  V30 3371 C 332.027 -0.362381 2.25304 0
M  V30 3372 C 333.005 -0.992393 1.28803 0
M  V30 3373 O 334.189 -1.02746 1.58036 0
M  V30 3374 C 331.316 -1.50813 3.03271 0
M  V30 3375 C 330.362 -0.995044 4.1473 0
M  V30 3376 S 331.195 0.0938436 5.35418 0
M  V30 3377 C 332.351 -1.05567 6.16933 0
M  V30 3378 H 332.584 0.274686 2.96028 0
M  V30 3379 H 330.117 0.260495 1.52187 0
M  V30 3380 H 332.075 -2.16476 3.48781 0
M  V30 3381 H 330.736 -2.11672 2.32064 0
M  V30 3382 H 329.929 -1.85293 4.68703 0
M  V30 3383 H 329.531 -0.416052 3.71679 0
M  V30 3384 H 331.823 -1.96636 6.48337 0
M  V30 3385 H 332.766 -0.555109 7.05921 0
M  V30 3386 H 333.174 -1.31151 5.49053 0
M  V30 3387 N 332.573 -1.56217 0.208337 0
M  V30 3388 C 333.803 -2.02043 -0.431523 0
M  V30 3389 C 334.211 -1.08755 -1.54819 0
M  V30 3390 O 333.554 -0.0870009 -1.83494 0
M  V30 3391 C 333.616 -3.44239 -1.03633 0
M  V30 3392 C 333.28 -4.56965 -0.0567502 0
M  V30 3393 C 334.277 -5.14624 0.738773 0
M  V30 3394 C 331.962 -5.02266 0.0581736 0
M  V30 3395 C 333.956 -6.16045 1.63605 0
M  V30 3396 C 331.643 -6.03528 0.959001 0
M  V30 3397 C 332.641 -6.60293 1.7465 0
M  V30 3398 O 332.329 -7.59586 2.6322 0
M  V30 3399 H 332.061 -0.666772 -0.111313 0
M  V30 3400 H 334.615 -2.02919 0.318277 0
M  V30 3401 H 332.845 -3.40391 -1.83497 0
M  V30 3402 H 334.534 -3.73793 -1.58221 0
M  V30 3403 H 335.3 -4.80483 0.660364 0
M  V30 3404 H 331.179 -4.57771 -0.544633 0
M  V30 3405 H 334.723 -6.60279 2.25116 0
M  V30 3406 H 330.62 -6.37092 1.03848 0
M  V30 3407 H 331.388 -7.77057 2.57148 0
M  V30 3408 N 334.051 0.0651679 -1.57465 0
M  V30 3409 C 335.297 0.764193 -1.87851 0
M  V30 3410 C 335.63 1.76889 -0.801495 0
M  V30 3411 O 334.905 1.93594 0.187528 0
M  V30 3412 C 335.188 1.46625 -3.28897 0
M  V30 3413 C 335.041 0.477515 -4.47258 0
M  V30 3414 C 336.36 2.4095 -3.68281 0
M  V30 3415 H 333.479 0.276351 -0.683227 0
M  V30 3416 H 336.121 0.0272868 -1.8998 0
M  V30 3417 H 334.271 2.09438 -3.27212 0
M  V30 3418 H 335.943 -0.145922 -4.61069 0
M  V30 3419 H 334.186 -0.206576 -4.33308 0
M  V30 3420 H 334.857 1.0065 -5.42746 0
M  V30 3421 H 337.333 1.88209 -3.71102 0
M  V30 3422 H 336.209 2.87072 -4.67847 0
M  V30 3423 H 336.47 3.26049 -2.98571 0
M  V30 3424 N 335.529 1.53961 0.336706 0
M  V30 3425 C 336.459 1.85417 1.41925 0
M  V30 3426 C 337.44 0.709856 1.5458 0
M  V30 3427 O 338.625 0.962396 1.68676 0
M  V30 3428 C 335.755 2.06985 2.78881 0
M  V30 3429 C 334.709 3.22813 2.81026 0
M  V30 3430 C 334.035 3.29727 4.20932 0
M  V30 3431 C 335.335 4.60767 2.45949 0
M  V30 3432 H 337.029 2.76079 1.15848 0
M  V30 3433 H 334.575 1.32839 0.555859 0
M  V30 3434 H 336.528 2.27575 3.54665 0
M  V30 3435 H 335.252 1.13061 3.06406 0
M  V30 3436 H 333.911 3.0209 2.07695 0
M  V30 3437 H 333.559 2.33385 4.45579 0
M  V30 3438 H 333.259 4.07566 4.23277 0
M  V30 3439 H 334.783 3.52536 4.98549 0
M  V30 3440 H 336.197 4.81325 3.11446 0
M  V30 3441 H 334.594 5.4106 2.59566 0
M  V30 3442 H 335.664 4.6391 1.41122 0
M  V30 3443 N 337.007 -0.598083 1.45811 0
M  V30 3444 C 337.957 -1.70272 1.51629 0
M  V30 3445 C 338.941 -1.56382 0.378629 0
M  V30 3446 O 340.133 -1.65557 0.626087 0
M  V30 3447 C 337.262 -3.09042 1.49493 0
M  V30 3448 C 336.348 -3.28284 2.68496 0
M  V30 3449 N 336.739 -3.17748 3.93535 0
M  V30 3450 C 335.037 -3.59182 2.64394 0
M  V30 3451 C 335.738 -3.38579 4.7301 0
M  V30 3452 N 334.714 -3.63016 4.04624 0
M  V30 3453 H 338.516 -1.60634 2.46118 0
M  V30 3454 H 336.03 -0.801642 1.41235 0
M  V30 3455 H 338.027 -3.88302 1.51747 0
M  V30 3456 H 336.687 -3.19823 0.560683 0
M  V30 3457 H 337.698 -2.95944 4.25014 0
M  V30 3458 H 334.375 -3.76742 1.79922 0
M  V30 3459 H 335.765 -3.35747 5.82 0
M  V30 3460 N 338.485 -1.33259 -0.841409 0
M  V30 3461 C 339.435 -1.19872 -1.93945 0
M  V30 3462 C 340.419 -0.102269 -1.60575 0
M  V30 3463 O 341.611 -0.330114 -1.73894 0
M  V30 3464 C 338.74 -0.937517 -3.30251 0
M  V30 3465 C 337.826 -2.07629 -3.69799 0
M  V30 3466 N 338.217 -3.32604 -3.81062 0
M  V30 3467 C 336.515 -1.98242 -3.9952 0
M  V30 3468 C 337.216 -4.07275 -4.15333 0
M  V30 3469 N 336.192 -3.35691 -4.27566 0
M  V30 3470 H 339.994 -2.14604 -2.00805 0
M  V30 3471 H 337.508 -1.2523 -1.03398 0
M  V30 3472 H 339.505 -0.822545 -4.08705 0
M  V30 3473 H 338.165 0.00128798 -3.247 0
M  V30 3474 H 339.176 -3.67382 -3.65035 0
M  V30 3475 H 335.853 -1.12005 -4.02195 0
M  V30 3476 H 337.243 -5.1511 -4.31406 0
M  V30 3477 N 339.963 1.05934 -1.16686 0
M  V30 3478 C 340.926 2.11669 -0.879144 0
M  V30 3479 C 341.926 1.60294 0.127445 0
M  V30 3480 O 343.116 1.7389 -0.103865 0
M  V30 3481 C 340.248 3.39438 -0.315425 0
M  V30 3482 H 341.441 2.38626 -1.81653 0
M  V30 3483 H 338.994 1.22058 -0.976299 0
M  V30 3484 H 339.729 3.18132 0.629468 0
M  V30 3485 H 339.514 3.78034 -1.04079 0
M  V30 3486 H 341.004 4.17391 -0.132189 0
M  V30 3487 N 341.441 0.965919 1.2453 0
M  V30 3488 C 342.718 0.543777 1.87889 0
M  V30 3489 C 343.098 -0.97909 1.87021 0
M  V30 3490 O 342.446 -1.84969 1.3416 0
M  V30 3491 C 342.656 1.13327 3.30088 0
M  V30 3492 C 344.004 1.21707 4.06783 0
M  V30 3493 O 345.028 1.08566 3.39252 0
M  V30 3494 O 343.887 1.42456 5.27606 0
M  V30 3495 H 340.981 0.181054 0.806938 0
M  V30 3496 H 343.527 1.06007 1.32516 0
M  V30 3497 H 342.299 2.17612 3.25209 0
M  V30 3498 H 341.922 0.600911 3.93033 0
M  V30 3499 N 342.919 -1.39368 0.735821 0
M  V30 3500 C 343.851 -2.2913 0.0567723 0
M  V30 3501 C 344.864 -1.46859 -0.702589 0
M  V30 3502 O 346.053 -1.69925 -0.546616 0
M  V30 3503 C 343.153 -3.25492 -0.943823 0
M  V30 3504 C 342.326 -4.36709 -0.24581 0
M  V30 3505 C 341.385 -5.13376 -1.15463 0
M  V30 3506 O 340.411 -5.65683 -0.631803 0
M  V30 3507 N 341.613 -5.24656 -2.48427 0
M  V30 3508 H 344.378 -2.88047 0.827582 0
M  V30 3509 H 341.939 -1.50957 0.585112 0
M  V30 3510 H 343.931 -3.73657 -1.55443 0
M  V30 3511 H 342.501 -2.676 -1.61583 0
M  V30 3512 H 341.721 -3.9041 0.545286 0
M  V30 3513 H 343.009 -5.08244 0.237891 0
M  V30 3514 H 342.407 -4.83679 -2.93379 0
M  V30 3515 H 340.964 -5.76258 -3.04582 0
M  V30 3516 N 344.397 -0.483516 -1.5 0
M  V30 3517 C 345.808 -0.0314176 -1.86674 0
M  V30 3518 C 346.159 1.37728 -1.39733 0
M  V30 3519 O 345.284 2.02327 -0.767635 0
M  V30 3520 C 345.879 -0.0502376 -3.38763 0
M  V30 3521 C 344.438 0.346442 -3.74802 0
M  V30 3522 C 343.585 -0.430366 -2.7394 0
M  V30 3523 H 346.536 -0.697182 -1.42566 0
M  V30 3524 H 346.557 0.749116 -3.73053 0
M  V30 3525 H 346.069 -1.07563 -3.72897 0
M  V30 3526 H 344.17 1.37572 -3.46273 0
M  V30 3527 H 344.283 0.0391486 -4.79084 0
M  V30 3528 H 342.647 0.117557 -2.54429 0
M  V30 3529 H 343.43 -1.4555 -3.10918 0
M  V30 3530 N 345.875 1.56104 -0.216619 0
M  V30 3531 C 346.785 2.23694 0.706982 0
M  V30 3532 C 347.801 1.24295 1.21765 0
M  V30 3533 O 348.977 1.57094 1.2603 0
M  V30 3534 C 346.042 2.8998 1.90033 0
M  V30 3535 C 345.103 4.04708 1.43213 0
M  V30 3536 C 344.336 4.67824 2.56859 0
M  V30 3537 O 344.559 4.29913 3.74874 0
M  V30 3538 O 343.493 5.56905 2.28343 0
M  V30 3539 H 347.319 3.03272 0.161235 0
M  V30 3540 H 344.904 1.49394 0.0136177 0
M  V30 3541 H 346.786 3.31837 2.59735 0
M  V30 3542 H 345.461 2.13365 2.43428 0
M  V30 3543 H 344.368 3.6743 0.70327 0
M  V30 3544 H 345.701 4.83051 0.944615 0
M  V30 3545 N 347.353 -0.0568162 1.57498 0
M  V30 3546 C 348.283 -1.06593 2.0775 0
M  V30 3547 C 349.264 -1.39448 0.974082 0
M  V30 3548 O 350.449 -1.48815 1.24771 0
M  V30 3549 C 347.579 -2.37509 2.5339 0
M  V30 3550 C 346.533 -2.1897 3.67745 0
M  V30 3551 C 345.859 -3.55402 3.99492 0
M  V30 3552 C 347.159 -1.59859 4.97235 0
M  V30 3553 H 348.853 -0.647706 2.9231 0
M  V30 3554 H 346.399 -0.310116 1.40621 0
M  V30 3555 H 348.352 -3.08409 2.87162 0
M  V30 3556 H 347.076 -2.8134 1.65878 0
M  V30 3557 H 345.735 -1.50508 3.3428 0
M  V30 3558 H 345.383 -3.9683 3.09088 0
M  V30 3559 H 345.083 -3.43831 4.76502 0
M  V30 3560 H 346.607 -4.27708 4.35773 0
M  V30 3561 H 348.021 -2.20642 5.29141 0
M  V30 3562 H 346.418 -1.58942 5.78669 0
M  V30 3563 H 347.488 -0.561506 4.81638 0
M  V30 3564 N 348.832 -1.54138 -0.328536 0
M  V30 3565 C 350.062 -1.75807 -1.08516 0
M  V30 3566 C 350.47 -0.50428 -1.82356 0
M  V30 3567 O 349.813 0.534451 -1.75754 0
M  V30 3568 C 349.875 -2.89423 -2.13248 0
M  V30 3569 C 349.539 -4.28504 -1.5885 0
M  V30 3570 C 350.536 -5.09536 -1.03289 0
M  V30 3571 C 348.221 -4.75034 -1.63243 0
M  V30 3572 C 350.215 -6.35206 -0.52845 0
M  V30 3573 C 347.902 -6.00672 -1.12411 0
M  V30 3574 C 348.9 -6.80592 -0.573062 0
M  V30 3575 O 348.588 -8.03867 -0.0723692 0
M  V30 3576 H 348.32 -0.590633 -0.328829 0
M  V30 3577 H 350.874 -2.01819 -0.381868 0
M  V30 3578 H 349.104 -2.5897 -2.87178 0
M  V30 3579 H 350.793 -2.98921 -2.74592 0
M  V30 3580 H 351.559 -4.74745 -0.99206 0
M  V30 3581 H 347.438 -4.12875 -2.05074 0
M  V30 3582 H 350.982 -6.97532 -0.0976774 0
M  V30 3583 H 346.879 -6.34955 -1.162 0
M  V30 3584 H 347.647 -8.18283 -0.188258 0
M  V30 3585 N 350.31 0.590341 -1.46126 0
M  V30 3586 C 351.26 1.69466 -1.5253 0
M  V30 3587 C 352.244 1.56179 -0.386917 0
M  V30 3588 O 353.436 1.65223 -0.634858 0
M  V30 3589 C 350.565 3.08245 -1.5113 0
M  V30 3590 C 349.651 3.26856 -2.70233 0
M  V30 3591 N 350.042 3.15657 -3.95214 0
M  V30 3592 C 348.34 3.57775 -2.66296 0
M  V30 3593 C 349.041 3.36066 -4.74799 0
M  V30 3594 N 348.017 3.60865 -4.06543 0
M  V30 3595 H 351.819 1.59326 -2.46966 0
M  V30 3596 H 349.333 0.79414 -1.41659 0
M  V30 3597 H 351.33 3.87492 -1.53804 0
M  V30 3598 H 349.99 3.19521 -0.577636 0
M  V30 3599 H 351.001 2.93686 -4.26578 0
M  V30 3600 H 347.678 3.75782 -1.81918 0
M  V30 3601 H 349.068 3.32655 -5.83772 0
M  V30 3602 N 351.788 1.33704 0.83433 0
M  V30 3603 C 353.036 1.25169 1.58673 0
M  V30 3604 C 353.357 -0.18127 1.94156 0
M  V30 3605 O 352.627 -1.11113 1.6134 0
M  V30 3606 H 351.207 0.4603 0.58833 0
M  V30 3607 H 353.869 1.67478 0.996847 0
M  V30 3608 H 352.965 1.84856 2.51465 0
M  V30 3609 N 353.266 -1.05314 1.17247 0
M  V30 3610 C 354.196 -2.1498 0.911362 0
M  V30 3611 C 355.177 -1.69471 -0.146169 0
M  V30 3612 O 356.362 -1.942 0.003812 0
M  V30 3613 C 353.492 -3.4472 0.422528 0
M  V30 3614 C 352.446 -4.03789 1.4191 0
M  V30 3615 C 351.772 -5.28858 0.788274 0
M  V30 3616 C 353.072 -4.41418 2.7919 0
M  V30 3617 H 354.766 -2.3708 1.82848 0
M  V30 3618 H 352.312 -1.13938 0.880569 0
M  V30 3619 H 354.265 -4.20787 0.227289 0
M  V30 3620 H 352.989 -3.22269 -0.530123 0
M  V30 3621 H 351.648 -3.2979 1.60106 0
M  V30 3622 H 351.296 -5.02709 -0.171173 0
M  V30 3623 H 350.996 -5.69338 1.45353 0
M  V30 3624 H 352.52 -6.07612 0.603282 0
M  V30 3625 H 353.934 -5.08524 2.64719 0
M  V30 3626 H 352.331 -4.92913 3.42282 0
M  V30 3627 H 353.401 -3.51819 3.33693 0
M  V30 3628 N 354.744 -0.972509 -1.24016 0
M  V30 3629 C 356.155 -0.67517 -1.74064 0
M  V30 3630 C 356.506 0.808939 -1.78747 0
M  V30 3631 O 355.631 1.63286 -1.42009 0
M  V30 3632 C 356.226 -1.21889 -3.16115 0
M  V30 3633 C 354.785 -0.971358 -3.6365 0
M  V30 3634 C 353.932 -1.35134 -2.42145 0
M  V30 3635 H 356.883 -1.14727 -1.09651 0
M  V30 3636 H 356.904 -0.587489 -3.75937 0
M  V30 3637 H 356.416 -2.29906 -3.12674 0
M  V30 3638 H 354.517 0.0930686 -3.72484 0
M  V30 3639 H 354.63 -1.62039 -4.50866 0
M  V30 3640 H 352.994 -0.769751 -2.4279 0
M  V30 3641 H 353.777 -2.4411 -2.41381 0
M  V30 3642 N 356.222 1.38976 -0.743202 0
M  V30 3643 C 357.169 2.30544 -0.10861 0
M  V30 3644 C 358.139 1.49642 0.720869 0
M  V30 3645 O 359.324 1.78304 0.679142 0
M  V30 3646 C 356.464 3.36018 0.786496 0
M  V30 3647 C 355.577 4.31963 -0.0564849 0
M  V30 3648 C 354.712 5.24506 0.840657 0
M  V30 3649 C 353.751 6.121 -0.00658363 0
M  V30 3650 N 352.888 6.96973 0.846943 0
M  V30 3651 H 357.728 2.8424 -0.895088 0
M  V30 3652 H 355.265 1.3995 -0.453048 0
M  V30 3653 H 357.223 3.95768 1.31999 0
M  V30 3654 H 355.853 2.83758 1.53887 0
M  V30 3655 H 354.905 3.73763 -0.707492 0
M  V30 3656 H 356.217 4.93703 -0.711229 0
M  V30 3657 H 355.371 5.89322 1.4417 0
M  V30 3658 H 354.11 4.63107 1.52916 0
M  V30 3659 H 353.115 5.46289 -0.620366 0
M  V30 3660 H 354.34 6.75565 -0.691992 0
M  V30 3661 H 352.286 6.38133 1.52059 0
M  V30 3662 H 352.203 7.5559 0.248864 0
M  V30 3663 H 353.471 7.6621 1.43328 0
M  V30 3664 N 357.7 0.491464 1.49741 0
M  V30 3665 C 358.977 -0.118984 1.95238 0
M  V30 3666 C 359.357 -1.55044 1.43264 0
M  V30 3667 O 358.705 -2.19287 0.642287 0
M  V30 3668 C 358.915 -0.0414187 3.48975 0
M  V30 3669 C 360.263 -0.220133 4.24029 0
M  V30 3670 O 361.287 -0.117055 3.56008 0
M  V30 3671 O 360.146 -0.430567 5.44801 0
M  V30 3672 H 357.24 -0.100536 0.820866 0
M  V30 3673 H 359.786 0.553322 1.60426 0
M  V30 3674 H 358.558 0.957214 3.79412 0
M  V30 3675 H 358.181 -0.754292 3.9038 0
M  V30 3676 N 359.178 -1.55987 0.224894 0
M  V30 3677 C 360.589 -1.84553 -0.282345 0
M  V30 3678 C 360.94 -1.14634 -1.59227 0
M  V30 3679 O 360.065 -0.417155 -2.12341 0
M  V30 3680 C 360.66 -3.348 -0.519062 0
M  V30 3681 C 359.219 -3.63671 -0.970604 0
M  V30 3682 C 358.366 -2.77277 -0.0355261 0
M  V30 3683 H 361.317 -1.52245 0.448006 0
M  V30 3684 H 361.338 -3.55187 -1.36463 0
M  V30 3685 H 360.85 -3.8566 0.43449 0
M  V30 3686 H 358.951 -3.1827 -1.9374 0
M  V30 3687 H 359.064 -4.71631 -0.842698 0
M  V30 3688 H 357.428 -2.48846 -0.542927 0
M  V30 3689 H 358.211 -3.30937 0.913003 0
M  V30 3690 N 360.656 0.0484629 -1.57525 0
M  V30 3691 C 361.603 1.05504 -2.05275 0
M  V30 3692 C 362.573 1.37084 -0.937927 0
M  V30 3693 O 363.758 1.47754 -1.2072 0
M  V30 3694 C 360.898 2.35676 -2.52093 0
M  V30 3695 C 360.011 2.10423 -3.77288 0
M  V30 3696 C 359.146 3.34327 -4.12794 0
M  V30 3697 C 358.185 3.04542 -5.30962 0
M  V30 3698 N 357.322 4.20841 -5.61994 0
M  V30 3699 H 362.162 0.640885 -2.91027 0
M  V30 3700 H 359.699 0.304854 -1.43906 0
M  V30 3701 H 361.657 3.11709 -2.77297 0
M  V30 3702 H 360.287 2.7485 -1.69285 0
M  V30 3703 H 359.339 1.24976 -3.59284 0
M  V30 3704 H 360.651 1.84438 -4.63448 0
M  V30 3705 H 359.805 4.1874 -4.39024 0
M  V30 3706 H 358.544 3.63408 -3.25247 0
M  V30 3707 H 357.549 2.18528 -5.04505 0
M  V30 3708 H 358.774 2.76758 -6.20146 0
M  V30 3709 H 356.72 4.4991 -4.77406 0
M  V30 3710 H 356.637 3.98212 -6.42622 0
M  V30 3711 H 357.905 5.06184 -5.92789 0
M  V30 3712 N 362.134 1.5431 0.320358 0
M  V30 3713 C 363.383 1.7188 1.05546 0
M  V30 3714 C 363.696 0.501143 1.89071 0
M  V30 3715 O 364.902 0.558258 2.65699 0
M  V30 3716 C 363.358 3.04025 1.92605 0
M  V30 3717 C 362.966 4.33207 1.14176 0
M  V30 3718 C 364.71 3.30959 2.65832 0
M  V30 3719 C 362.617 5.56412 2.00399 0
M  V30 3720 H 361.547 0.640547 0.397763 0
M  V30 3721 H 364.198 1.80802 0.313522 0
M  V30 3722 H 362.58 2.89019 2.7071 0
M  V30 3723 H 363.754 4.58989 0.40819 0
M  V30 3724 H 362.069 4.13062 0.526165 0
M  V30 3725 H 364.666 4.20203 3.30656 0
M  V30 3726 H 365.009 2.48979 3.33639 0
M  V30 3727 H 365.542 3.46847 1.94787 0
M  V30 3728 H 362.281 6.41004 1.37094 0
M  V30 3729 H 361.801 5.34844 2.7148 0
M  V30 3730 H 363.48 5.92938 2.58908 0
M  V30 3731 N 363.613 -0.582584 1.46437 0
M  V30 3732 C 364.89 -1.34276 1.4223 0
M  V30 3733 C 365.27 -2.10835 0.10583 0
M  V30 3734 O 364.618 -2.09485 -0.912596 0
M  V30 3735 C 364.828 -2.26865 2.65204 0
M  V30 3736 C 366.176 -2.88691 3.11356 0
M  V30 3737 O 367.2 -2.37178 2.65753 0
M  V30 3738 O 366.059 -3.82255 3.90568 0
M  V30 3739 H 363.153 -0.603326 0.565621 0
M  V30 3740 H 365.699 -0.603591 1.58603 0
M  V30 3741 H 364.471 -1.69724 3.52576 0
M  V30 3742 H 364.094 -3.08122 2.5129 0
M  V30 3743 N 365.091 -1.34144 -0.827227 0
M  V30 3744 C 366.319 -1.29325 -1.61501 0
M  V30 3745 C 366.734 0.13354 -1.88327 0
M  V30 3746 O 366.091 1.0793 -1.47164 0
M  V30 3747 C 366.142 -2.07746 -2.95844 0
M  V30 3748 O 365.863 -3.4486 -2.70191 0
M  V30 3749 C 367.364 -2.10273 -3.90256 0
M  V30 3750 H 364.584 -0.445069 -0.50215 0
M  V30 3751 H 367.128 -1.76693 -1.02955 0
M  V30 3752 H 365.283 -1.6403 -3.5096 0
M  V30 3753 H 365.697 -3.85345 -3.55822 0
M  V30 3754 H 367.171 -2.69575 -4.81698 0
M  V30 3755 H 367.648 -1.096 -4.25305 0
M  V30 3756 H 368.254 -2.54059 -3.41078 0
M  V30 3757 N 366.569 1.04691 -1.17803 0
M  V30 3758 C 367.794 1.81984 -0.994813 0
M  V30 3759 C 368.219 1.82586 0.452112 0
M  V30 3760 O 367.577 1.23854 1.324 0
M  V30 3761 C 367.625 3.2575 -1.54659 0
M  V30 3762 O 366.729 4.05267 -0.763728 0
M  V30 3763 H 366.07 0.562483 -0.352857 0
M  V30 3764 H 368.6 1.3189 -1.56417 0
M  V30 3765 H 368.61 3.76541 -1.57102 0
M  V30 3766 H 367.285 3.24627 -2.59981 0
M  V30 3767 H 365.862 3.63972 -0.811108 0
M  V30 3768 N 368.047 0.979072 1.23499 0
M  V30 3769 C 369.293 0.648178 1.92163 0
M  V30 3770 C 369.626 -0.816049 1.76222 0
M  V30 3771 O 368.901 -1.58849 1.12237 0
M  V30 3772 C 369.184 1.03773 3.44824 0
M  V30 3773 C 369.037 2.55948 3.69879 0
M  V30 3774 C 370.356 0.580653 4.36253 0
M  V30 3775 H 367.475 0.236952 0.69787 0
M  V30 3776 H 370.117 1.22012 1.45647 0
M  V30 3777 H 368.267 0.551058 3.84572 0
M  V30 3778 H 369.939 3.12179 3.3962 0
M  V30 3779 H 368.182 2.98641 3.14636 0
M  V30 3780 H 368.853 2.78255 4.76737 0
M  V30 3781 H 371.329 0.998465 4.03943 0
M  V30 3782 H 370.205 0.881663 5.41773 0
M  V30 3783 H 370.466 -0.519052 4.39042 0
M  V30 3784 N 369.525 -1.3858 0.750561 0
M  V30 3785 C 370.75 -2.04997 0.314812 0
M  V30 3786 C 371.175 -1.56235 -1.04749 0
M  V30 3787 O 370.533 -0.712981 -1.66692 0
M  V30 3788 C 370.581 -3.58961 0.343415 0
M  V30 3789 O 369.685 -4.07025 -0.663628 0
M  V30 3790 H 369.026 -0.649081 0.139962 0
M  V30 3791 H 371.556 -1.77313 1.02084 0
M  V30 3792 H 371.566 -4.07542 0.193233 0
M  V30 3793 H 370.241 -3.93811 1.33738 0
M  V30 3794 H 368.818 -3.6982 -0.478307 0
M  V30 3795 N 371.003 -0.499398 -1.49478 0
M  V30 3796 C 371.933 0.269244 -2.31943 0
M  V30 3797 C 372.914 0.964054 -1.40143 0
M  V30 3798 O 374.099 0.955767 -1.69052 0
M  V30 3799 C 371.229 1.33504 -3.20615 0
M  V30 3800 C 370.183 0.760202 -4.21195 0
M  V30 3801 C 369.509 1.9264 -4.98792 0
M  V30 3802 C 370.809 -0.247661 -5.21712 0
M  V30 3803 H 372.503 -0.419082 -2.96452 0
M  V30 3804 H 370.049 -0.202988 -1.42562 0
M  V30 3805 H 372.002 1.88048 -3.77115 0
M  V30 3806 H 370.726 2.05253 -2.54045 0
M  V30 3807 H 369.385 0.23653 -3.65836 0
M  V30 3808 H 369.033 2.63154 -4.28671 0
M  V30 3809 H 368.733 1.54785 -5.66847 0
M  V30 3810 H 370.257 2.4762 -5.58137 0
M  V30 3811 H 371.671 0.209579 -5.72917 0
M  V30 3812 H 370.068 -0.541962 -5.97648 0
M  V30 3813 H 371.138 -1.16409 -4.7072 0
M  V30 3814 N 372.481 1.55866 -0.233164 0
M  V30 3815 C 373.727 1.99643 0.389148 0
M  V30 3816 C 374.082 1.11836 1.56558 0
M  V30 3817 O 373.375 0.170848 1.90837 0
M  V30 3818 C 373.569 3.46856 0.861724 0
M  V30 3819 C 373.398 4.48904 -0.267376 0
M  V30 3820 C 372.168 4.99888 -0.737577 0
M  V30 3821 C 374.366 5.02624 -1.08966 0
M  V30 3822 N 372.348 5.8566 -1.84052 0
M  V30 3823 C 373.719 5.85434 -2.04125 0
M  V30 3824 C 375.774 4.84959 -1.12779 0
M  V30 3825 C 374.477 6.52466 -3.02789 0
M  V30 3826 C 376.503 5.52759 -2.10266 0
M  V30 3827 C 375.865 6.35346 -3.04162 0
M  V30 3828 H 371.964 0.774402 0.108742 0
M  V30 3829 H 374.548 1.91572 -0.347596 0
M  V30 3830 H 372.719 3.55352 1.5678 0
M  V30 3831 H 374.451 3.77531 1.45783 0
M  V30 3832 H 371.206 4.7249 -0.324122 0
M  V30 3833 H 371.63 6.33246 -2.39434 0
M  V30 3834 H 376.272 4.20751 -0.415749 0
M  V30 3835 H 373.99 7.15849 -3.74948 0
M  V30 3836 H 377.576 5.41051 -2.13905 0
M  V30 3837 H 376.456 6.86883 -3.78366 0
M  V30 3838 N 373.959 -0.0401083 1.57549 0
M  V30 3839 C 374.906 -1.04413 2.05831 0
M  V30 3840 C 375.876 -1.36585 0.945184 0
M  V30 3841 O 377.061 -1.47112 1.21502 0
M  V30 3842 C 374.201 -2.34336 2.53339 0
M  V30 3843 C 373.314 -2.08419 3.78398 0
M  V30 3844 C 372.449 -3.32133 4.14561 0
M  V30 3845 C 371.488 -3.01721 5.3257 0
M  V30 3846 N 370.625 -4.17855 5.64218 0
M  V30 3847 H 375.465 -0.625442 2.91363 0
M  V30 3848 H 373.002 -0.297218 1.44066 0
M  V30 3849 H 374.96 -3.10234 2.78946 0
M  V30 3850 H 373.59 -2.73948 1.7074 0
M  V30 3851 H 372.642 -1.23069 3.59942 0
M  V30 3852 H 373.954 -1.81978 4.64419 0
M  V30 3853 H 373.108 -4.16406 4.41238 0
M  V30 3854 H 371.847 -3.61678 3.2717 0
M  V30 3855 H 370.852 -2.15849 5.05657 0
M  V30 3856 H 372.077 -2.73466 6.21605 0
M  V30 3857 H 370.023 -4.47372 4.79786 0
M  V30 3858 H 369.94 -3.94798 6.44725 0
M  V30 3859 H 371.208 -5.03033 5.95465 0
M  V30 3860 N 375.437 -1.54477 -0.31217 0
M  V30 3861 C 376.685 -1.72884 -1.04668 0
M  V30 3862 C 377.006 -0.511477 -1.88173 0
M  V30 3863 O 376.276 0.474407 -1.90069 0
M  V30 3864 H 374.856 -0.637461 -0.389425 0
M  V30 3865 H 377.518 -1.91807 -0.345852 0
M  V30 3866 H 376.614 -2.61334 -1.70619 0
M  V30 3867 N 376.915 0.57481 -1.46744 0
M  V30 3868 C 377.878 1.66533 -1.57478 0
M  V30 3869 C 378.878 1.54338 -0.451263 0
M  V30 3870 O 380.068 1.58814 -0.715813 0
M  V30 3871 C 377.2 3.05999 -1.50259 0
M  V30 3872 H 378.393 1.58372 -2.54673 0
M  V30 3873 H 375.946 0.793301 -1.34672 0
M  V30 3874 H 376.681 3.19709 -0.543725 0
M  V30 3875 H 376.466 3.16259 -2.31781 0
M  V30 3876 H 377.956 3.8537 -1.60872 0
M  V30 3877 N 378.394 1.34581 0.820102 0
M  V30 3878 C 379.324 1.29038 1.94606 0
M  V30 3879 C 380.305 0.1673 1.69275 0
M  V30 3880 O 381.49 0.360112 1.90832 0
M  V30 3881 C 378.62 1.04793 3.31113 0
M  V30 3882 C 377.574 2.13597 3.70891 0
M  V30 3883 C 376.9 1.74537 5.05412 0
M  V30 3884 C 378.2 3.55451 3.8269 0
M  V30 3885 H 379.894 2.23248 1.99501 0
M  V30 3886 H 377.44 1.0747 0.958449 0
M  V30 3887 H 379.393 0.995592 4.0947 0
M  V30 3888 H 378.117 0.0702565 3.26524 0
M  V30 3889 H 376.776 2.17905 2.9481 0
M  V30 3890 H 376.424 0.754226 4.97313 0
M  V30 3891 H 376.124 2.47361 5.32997 0
M  V30 3892 H 377.648 1.70803 5.86224 0
M  V30 3893 H 379.062 3.5354 4.51312 0
M  V30 3894 H 377.459 4.26922 4.21732 0
M  V30 3895 H 378.529 3.92587 2.84611 0
M  V30 3896 N 379.872 -1.04064 1.18357 0
M  V30 3897 C 380.819 -2.12077 0.910603 0
M  V30 3898 C 381.789 -1.65421 -0.15 0
M  V30 3899 O 382.974 -1.90797 -0.0103614 0
M  V30 3900 C 380.114 -3.42252 0.442472 0
M  V30 3901 C 379.227 -4.0252 1.5685 0
M  V30 3902 C 378.362 -5.20657 1.05309 0
M  V30 3903 C 377.401 -5.72955 2.1538 0
M  V30 3904 N 376.538 -6.8238 1.65233 0
M  V30 3905 H 381.378 -2.34764 1.83548 0
M  V30 3906 H 378.915 -1.15157 0.915279 0
M  V30 3907 H 380.873 -4.16921 0.152534 0
M  V30 3908 H 379.503 -3.19712 -0.445428 0
M  V30 3909 H 378.555 -3.25178 1.97391 0
M  V30 3910 H 379.867 -4.37362 2.39824 0
M  V30 3911 H 379.021 -6.0244 0.717677 0
M  V30 3912 H 377.76 -4.87318 0.19293 0
M  V30 3913 H 376.765 -4.89793 2.49766 0
M  V30 3914 H 377.99 -6.08337 3.01832 0
M  V30 3915 H 375.936 -6.50917 0.815064 0
M  V30 3916 H 375.853 -7.16286 2.41805 0
M  V30 3917 H 377.121 -7.67788 1.34619 0
M  V30 3918 N 381.35 -0.985608 -1.22978 0
M  V30 3919 C 382.761 -0.693593 -1.73338 0
M  V30 3920 C 383.112 0.789935 -1.79595 0
M  V30 3921 O 382.237 1.61771 -1.43733 0
M  V30 3922 C 382.832 -1.25235 -3.14804 0
M  V30 3923 C 381.391 -1.00987 -3.626 0
M  V30 3924 C 380.538 -1.37695 -2.40698 0
M  V30 3925 H 383.489 -1.15884 -1.08428 0
M  V30 3926 H 383.51 -0.627329 -3.75293 0
M  V30 3927 H 383.022 -2.33209 -3.10218 0
M  V30 3928 H 381.123 0.0535565 -3.72562 0
M  V30 3929 H 381.236 -1.66812 -4.49122 0
M  V30 3930 H 379.6 -0.795459 -2.4196 0
M  V30 3931 H 380.383 -2.46657 -2.38779 0
M  V30 3932 N 382.828 1.3818 -0.7579 0
M  V30 3933 C 383.758 2.33027 -0.148597 0
M  V30 3934 C 384.739 1.55085 0.69875 0
M  V30 3935 O 385.924 1.83384 0.639053 0
M  V30 3936 C 383.054 3.3928 0.742034 0
M  V30 3937 C 382.008 4.28 -0.00291946 0
M  V30 3938 C 381.334 5.25146 1.00625 0
M  V30 3939 C 382.634 5.08938 -1.17385 0
M  V30 3940 H 384.328 2.84231 -0.940909 0
M  V30 3941 H 381.874 1.36659 -0.453908 0
M  V30 3942 H 383.827 4.046 1.17799 0
M  V30 3943 H 382.551 2.86569 1.56671 0
M  V30 3944 H 381.21 3.64192 -0.419504 0
M  V30 3945 H 380.858 4.68721 1.8251 0
M  V30 3946 H 380.558 5.85361 0.512428 0
M  V30 3947 H 382.082 5.93342 1.44143 0
M  V30 3948 H 383.496 5.67474 -0.815224 0
M  V30 3949 H 381.893 5.7841 -1.59882 0
M  V30 3950 H 382.963 4.42424 -1.98468 0
M  V30 3951 N 384.306 0.507319 1.49211 0
M  V30 3952 C 385.269 -0.256763 2.27757 0
M  V30 3953 C 386.269 -0.888287 1.34038 0
M  V30 3954 O 387.459 -0.751841 1.5714 0
M  V30 3955 C 384.591 -1.36905 3.12202 0
M  V30 3956 H 385.784 0.432557 2.96764 0
M  V30 3957 H 383.337 0.262488 1.5408 0
M  V30 3958 H 384.072 -2.09233 2.47775 0
M  V30 3959 H 383.857 -0.921599 3.81115 0
M  V30 3960 H 385.347 -1.9071 3.7151 0
M  V30 3961 N 385.784 -1.5574 0.241426 0
M  V30 3962 C 386.747 -2.19877 -0.647063 0
M  V30 3963 C 387.747 -1.16642 -1.10686 0
M  V30 3964 O 388.937 -1.41757 -1.01245 0
M  V30 3965 C 386.069 -2.83797 -1.88871 0
M  V30 3966 H 387.262 -2.99772 -0.087574 0
M  V30 3967 H 384.815 -1.56298 -0.00813574 0
M  V30 3968 H 385.55 -2.07824 -2.48957 0
M  V30 3969 H 385.335 -3.59414 -1.56728 0
M  V30 3970 H 386.825 -3.32898 -2.52129 0
M  V30 3971 N 387.262 0.0317525 -1.57568 0
M  V30 3972 C 388.225 1.01783 -2.0536 0
M  V30 3973 C 389.225 1.29203 -0.957253 0
M  V30 3974 O 390.415 1.24251 -1.22095 0
M  V30 3975 C 387.547 2.35137 -2.46827 0
M  V30 3976 H 388.74 0.605062 -2.93733 0
M  V30 3977 H 386.293 0.278514 -1.53799 0
M  V30 3978 H 387.028 2.81168 -1.61602 0
M  V30 3979 H 386.813 2.16566 -3.26866 0
M  V30 3980 H 388.303 3.05938 -2.84239 0
M  V30 3981 N 388.74 1.54641 0.303973 0
M  V30 3982 C 389.988 1.73437 1.0375 0
M  V30 3983 C 390.309 0.521449 1.87899 0
M  V30 3984 O 389.579 -0.46432 1.90318 0
M  V30 3985 H 388.159 0.639518 0.386039 0
M  V30 3986 H 390.821 1.91988 0.335675 0
M  V30 3987 H 389.917 2.62235 1.69231 0
M  V30 3988 N 390.218 -0.567019 1.47046 0
M  V30 3989 C 391.465 -1.32462 1.53167 0
M  V30 3990 C 391.793 -1.93571 0.189841 0
M  V30 3991 O 391.048 -1.77865 -0.816243 0
M  V30 3992 C 391.347 -2.4623 2.59047 0
M  V30 3993 C 391.013 -2.03014 4.02612 0
M  V30 3994 C 389.675 -1.90944 4.41694 0
M  V30 3995 C 392.027 -1.69895 4.92732 0
M  V30 3996 C 389.355 -1.44035 5.68745 0
M  V30 3997 C 391.707 -1.2446 6.20236 0
M  V30 3998 C 390.371 -1.10979 6.5821 0
M  V30 3999 H 389.641 -0.484713 0.560477 0
M  V30 4000 H 392.288 -0.636888 1.80599 0
M  V30 4001 H 390.593 -3.20517 2.25335 0
M  V30 4002 H 392.29 -3.04427 2.61008 0
M  V30 4003 H 388.88 -2.13348 3.71726 0
M  V30 4004 H 393.064 -1.78098 4.63244 0
M  V30 4005 H 388.32 -1.32254 5.96925 0
M  V30 4006 H 392.494 -0.978924 6.89485 0
M  V30 4007 H 390.121 -0.744078 7.5655 0
M  V30 4008 N 391.696 -1.35014 -0.812953 0
M  V30 4009 C 392.945 -1.27269 -1.56479 0
M  V30 4010 C 393.258 0.152771 -1.95002 0
M  V30 4011 O 394.464 0.352451 -2.69203 0
M  V30 4012 C 392.92 -2.23159 -2.82362 0
M  V30 4013 C 392.528 -3.71016 -2.511 0
M  V30 4014 C 394.272 -2.24342 -3.60376 0
M  V30 4015 C 392.179 -4.58746 -3.73237 0
M  V30 4016 H 391.109 -0.472829 -0.587324 0
M  V30 4017 H 393.76 -1.6024 -0.894171 0
M  V30 4018 H 392.142 -1.83151 -3.51101 0
M  V30 4019 H 393.316 -4.1962 -1.90409 0
M  V30 4020 H 391.631 -3.72378 -1.86343 0
M  V30 4021 H 394.228 -2.87107 -4.51081 0
M  V30 4022 H 394.571 -1.24542 -3.97234 0
M  V30 4023 H 395.104 -2.62846 -2.98591 0
M  V30 4024 H 391.843 -5.59521 -3.41492 0
M  V30 4025 H 391.363 -4.14871 -4.33176 0
M  V30 4026 H 393.042 -4.73852 -4.40537 0
M  V30 4027 N 393.175 1.03435 -1.18907 0
M  V30 4028 C 394.138 2.09756 -0.923844 0
M  V30 4029 C 395.138 1.60528 0.093416 0
M  V30 4030 O 396.328 1.73631 -0.140727 0
M  V30 4031 C 393.46 3.38692 -0.387354 0
M  V30 4032 H 394.653 2.34719 -1.86674 0
M  V30 4033 H 392.206 1.19959 -1.00197 0
M  V30 4034 H 392.941 3.19396 0.561845 0
M  V30 4035 H 392.726 3.75742 -1.12074 0
M  V30 4036 H 394.216 4.17016 -0.220694 0
M  V30 4037 N 394.653 0.992116 1.22453 0
M  V30 4038 C 395.881 0.685944 1.95198 0
M  V30 4039 C 396.296 -0.749233 1.73297 0
M  V30 4040 O 395.653 -1.50549 1.03156 0
M  V30 4041 C 395.704 0.981395 3.47924 0
M  V30 4042 O 395.425 2.36018 3.6909 0
M  V30 4043 C 396.926 0.692815 4.37853 0
M  V30 4044 H 394.146 0.253821 0.621141 0
M  V30 4045 H 396.69 1.32668 1.55626 0
M  V30 4046 H 394.845 0.386481 3.85467 0
M  V30 4047 H 395.259 2.45884 4.63294 0
M  V30 4048 H 396.733 0.949818 5.43767 0
M  V30 4049 H 397.21 -0.373181 4.37612 0
M  V30 4050 H 397.816 1.26874 4.05935 0
M  V30 4051 N 396.131 -1.37776 0.765217 0
M  V30 4052 C 397.378 -1.99849 0.326588 0
M  V30 4053 C 397.706 -1.60746 -1.09504 0
M  V30 4054 O 396.961 -0.84202 -1.76659 0
M  V30 4055 C 397.26 -3.5504 0.410053 0
M  V30 4056 C 396.926 -4.13891 1.78899 0
M  V30 4057 C 395.588 -4.29678 2.16635 0
M  V30 4058 C 397.94 -4.46236 2.69301 0
M  V30 4059 C 395.268 -4.7511 3.44221 0
M  V30 4060 C 397.62 -4.93089 3.9629 0
M  V30 4061 C 396.284 -5.07082 4.34078 0
M  V30 4062 H 395.554 -0.7313 0.119507 0
M  V30 4063 H 398.201 -1.64645 0.977968 0
M  V30 4064 H 396.506 -3.90451 -0.324878 0
M  V30 4065 H 398.203 -4.00966 0.0520699 0
M  V30 4066 H 394.793 -4.02026 1.48569 0
M  V30 4067 H 398.977 -4.3363 2.41409 0
M  V30 4068 H 394.233 -4.84129 3.73402 0
M  V30 4069 H 398.407 -5.17084 4.66472 0
M  V30 4070 H 396.034 -5.42046 5.33001 0
M  V30 4071 N 397.609 -0.515225 -1.4894 0
M  V30 4072 C 398.572 0.244681 -2.2789 0
M  V30 4073 C 399.572 0.881166 -1.34507 0
M  V30 4074 O 400.762 0.743497 -1.57537 0
M  V30 4075 C 397.894 1.35247 -3.12923 0
M  V30 4076 H 399.087 -0.448289 -2.96531 0
M  V30 4077 H 396.64 -0.270656 -1.53939 0
M  V30 4078 H 397.375 2.07916 -2.48881 0
M  V30 4079 H 397.16 0.901374 -3.81599 0
M  V30 4080 H 398.65 1.88737 -3.72516 0
M  V30 4081 N 399.087 1.5561 -0.249682 0
M  V30 4082 C 400.335 1.98618 0.373548 0
M  V30 4083 C 400.656 1.13919 1.58264 0
M  V30 4084 O 399.926 0.222637 1.94631 0
M  V30 4085 H 398.506 0.733571 0.141006 0
M  V30 4086 H 401.168 1.91748 -0.349117 0
M  V30 4087 H 400.264 3.04584 0.680796 0
M  V30 4088 N 400.565 -0.0233959 1.57583 0
M  V30 4089 C 401.495 -1.02162 2.09965 0
M  V30 4090 C 402.476 -1.3735 1.00344 0
M  V30 4091 O 403.661 -1.46135 1.27899 0
M  V30 4092 C 400.791 -2.32081 2.58371 0
M  V30 4093 C 399.745 -2.1112 3.72307 0
M  V30 4094 C 399.071 -3.46848 4.06941 0
M  V30 4095 C 400.371 -1.49276 5.00514 0
M  V30 4096 H 402.065 -0.585557 2.93618 0
M  V30 4097 H 399.611 -0.280218 1.41247 0
M  V30 4098 H 401.564 -3.02249 2.93639 0
M  V30 4099 H 400.288 -2.77758 1.71808 0
M  V30 4100 H 398.947 -1.43384 3.37397 0
M  V30 4101 H 398.595 -3.90184 3.17436 0
M  V30 4102 H 398.295 -3.33646 4.83688 0
M  V30 4103 H 399.819 -4.18369 4.44747 0
M  V30 4104 H 401.233 -2.09368 5.33702 0
M  V30 4105 H 399.63 -1.46632 5.8191 0
M  V30 4106 H 400.7 -0.459217 4.82721 0
M  V30 4107 N 402.043 -1.548 -0.295768 0
M  V30 4108 C 403.292 -1.73538 -1.02798 0
M  V30 4109 C 403.605 -0.531159 -1.8825 0
M  V30 4110 O 404.811 -0.600458 -2.64777 0
M  V30 4111 C 403.267 -3.07051 -1.87744 0
M  V30 4112 C 402.875 -4.34968 -1.07269 0
M  V30 4113 C 404.619 -3.35146 -2.60533 0
M  V30 4114 C 402.526 -5.5953 -1.91521 0
M  V30 4115 H 401.456 -0.646794 -0.387522 0
M  V30 4116 H 404.107 -1.81278 -0.284718 0
M  V30 4117 H 402.489 -2.93289 -2.66078 0
M  V30 4118 H 403.663 -4.5958 -0.335117 0
M  V30 4119 H 401.978 -4.13847 -0.460384 0
M  V30 4120 H 404.575 -4.2541 -3.23929 0
M  V30 4121 H 404.918 -2.54255 -3.29636 0
M  V30 4122 H 405.451 -3.49902 -1.89244 0
M  V30 4123 H 402.19 -6.43103 -1.26878 0
M  V30 4124 H 401.71 -5.39096 -2.62937 0
M  V30 4125 H 403.389 -5.96982 -2.49442 0
M  V30 4126 N 403.521 0.559213 -1.47345 0
M  V30 4127 C 404.768 1.31648 -1.53867 0
M  V30 4128 C 405.096 1.93468 -0.200104 0
M  V30 4129 O 404.351 1.78295 0.806799 0
M  V30 4130 C 404.65 2.44853 -2.6035 0
M  V30 4131 C 404.316 2.00876 -4.03683 0
M  V30 4132 C 402.978 1.88599 -4.42701 0
M  V30 4133 C 405.33 1.67279 -4.93626 0
M  V30 4134 C 402.658 1.41017 -5.69501 0
M  V30 4135 C 405.01 1.21169 -6.20887 0
M  V30 4136 C 403.674 1.07487 -6.58789 0
M  V30 4137 H 402.944 0.481734 -0.56304 0
M  V30 4138 H 405.591 0.627301 -1.80934 0
M  V30 4139 H 403.896 3.19318 -2.27032 0
M  V30 4140 H 405.593 3.03039 -2.62619 0
M  V30 4141 H 402.183 2.11374 -3.72853 0
M  V30 4142 H 406.367 1.75638 -4.64182 0
M  V30 4143 H 401.623 1.29086 -5.97618 0
M  V30 4144 H 405.797 0.942345 -6.89995 0
M  V30 4145 H 403.424 0.703946 -7.56934 0
M  V30 4146 N 404.999 1.35443 0.805782 0
M  V30 4147 C 405.949 1.24972 1.90699 0
M  V30 4148 C 406.933 0.144806 1.60247 0
M  V30 4149 O 408.125 0.376102 1.72958 0
M  V30 4150 C 405.254 1.02475 3.27649 0
M  V30 4151 C 404.34 2.17361 3.64164 0
M  V30 4152 N 404.731 3.42591 3.72109 0
M  V30 4153 C 403.029 2.08765 3.94123 0
M  V30 4154 C 403.73 4.18144 4.04389 0
M  V30 4155 N 402.706 3.4691 4.18515 0
M  V30 4156 H 406.508 2.19852 1.95044 0
M  V30 4157 H 404.022 1.27928 1.00041 0
M  V30 4158 H 406.019 0.930617 4.06381 0
M  V30 4159 H 404.679 0.0848009 3.24589 0
M  V30 4160 H 405.69 3.76932 3.55166 0
M  V30 4161 H 402.367 1.22629 3.99084 0
M  V30 4162 H 403.757 5.26367 4.17597 0
M  V30 4163 N 406.477 -1.02803 1.19454 0
M  V30 4164 C 407.707 -1.79581 1.02149 0
M  V30 4165 C 408.115 -1.84182 -0.432851 0
M  V30 4166 O 407.458 -1.28534 -1.31243 0
M  V30 4167 C 407.52 -3.25993 1.51554 0
M  V30 4168 C 407.184 -3.45025 2.99678 0
M  V30 4169 C 408.181 -3.35175 3.97434 0
M  V30 4170 C 405.866 -3.71212 3.38389 0
M  V30 4171 C 407.86 -3.51238 5.31893 0
M  V30 4172 C 405.547 -3.8692 4.73008 0
M  V30 4173 C 406.545 -3.76936 5.69569 0
M  V30 4174 O 406.233 -3.92179 7.01748 0
M  V30 4175 H 405.965 -0.571962 0.360327 0
M  V30 4176 H 408.519 -1.30367 1.58725 0
M  V30 4177 H 406.749 -3.76235 0.893543 0
M  V30 4178 H 408.438 -3.84368 1.30444 0
M  V30 4179 H 409.204 -3.14895 3.68872 0
M  V30 4180 H 405.083 -3.78075 2.6378 0
M  V30 4181 H 408.627 -3.43362 6.07247 0
M  V30 4182 H 404.524 -4.06699 5.01265 0
M  V30 4183 H 405.292 -4.09265 7.08833 0
M  V30 4184 N 407.956 -0.998596 -1.21925 0
M  V30 4185 C 409.205 -0.673085 -1.90138 0
M  V30 4186 C 409.518 0.79895 -1.78539 0
M  V30 4187 O 410.724 1.23628 -2.4172 0
M  V30 4188 C 409.18 -1.15339 -3.40918 0
M  V30 4189 C 408.788 -2.65106 -3.61141 0
M  V30 4190 C 410.532 -0.902476 -4.14796 0
M  V30 4191 C 408.439 -3.0671 -5.05651 0
M  V30 4192 H 407.369 -0.248057 -0.712028 0
M  V30 4193 H 410.02 -1.20891 -1.38049 0
M  V30 4194 H 408.402 -0.545658 -3.92223 0
M  V30 4195 H 409.576 -3.31274 -3.20304 0
M  V30 4196 H 407.891 -2.88142 -3.00605 0
M  V30 4197 H 410.488 -1.18895 -5.21314 0
M  V30 4198 H 410.831 0.161349 -4.15987 0
M  V30 4199 H 411.364 -1.47269 -3.69536 0
M  V30 4200 H 408.103 -4.12292 -5.09603 0
M  V30 4201 H 407.623 -2.45249 -5.47369 0
M  V30 4202 H 409.302 -2.9833 -5.74115 0
M  V30 4203 N 409.434 1.37368 -0.772513 0
M  V30 4204 C 410.682 1.99279 -0.336516 0
M  V30 4205 C 411.003 1.6163 1.09091 0
M  V30 4206 O 410.273 0.882109 1.74916 0
M  V30 4207 H 408.853 0.737063 -0.121435 0
M  V30 4208 H 411.515 1.67836 -0.990809 0
M  V30 4209 H 410.611 3.09332 -0.414763 0
M  V30 4210 N 410.912 0.523116 1.48665 0
M  V30 4211 C 412.161 -0.01544 2.01694 0
M  V30 4212 C 412.474 -1.35975 1.40606 0
M  V30 4213 O 413.68 -1.98627 1.85093 0
M  V30 4214 C 412.136 -0.0779303 3.59816 0
M  V30 4215 C 411.744 1.26107 4.29885 0
M  V30 4216 C 413.488 -0.565678 4.20714 0
M  V30 4217 C 411.395 1.15954 5.79921 0
M  V30 4218 H 410.325 -0.00954163 0.75394 0
M  V30 4219 H 412.976 0.665865 1.70993 0
M  V30 4220 H 411.358 -0.824165 3.87329 0
M  V30 4221 H 412.532 2.02233 4.14051 0
M  V30 4222 H 410.847 1.68401 3.80828 0
M  V30 4223 H 413.444 -0.6595 5.30617 0
M  V30 4224 H 413.787 -1.56984 3.85567 0
M  V30 4225 H 414.32 0.12467 3.97605 0
M  V30 4226 H 411.059 2.13864 6.19631 0
M  V30 4227 H 410.579 0.439529 5.98187 0
M  V30 4228 H 412.258 0.847361 6.41427 0
M  V30 4229 N 412.39 -1.55475 0.257931 0
M  V30 4230 C 413.638 -1.98813 -0.363009 0
M  V30 4231 C 413.959 -1.14757 -1.57657 0
M  V30 4232 O 413.229 -0.232956 -1.9451 0
M  V30 4233 H 411.809 -0.734308 -0.137113 0
M  V30 4234 H 414.471 -1.9156 0.359281 0
M  V30 4235 H 413.567 -3.04941 -0.664634 0
M  V30 4236 N 413.868 0.0150385 -1.57593 0
M  V30 4237 C 415.279 0.559832 -1.78109 0
M  V30 4238 C 415.63 1.74814 -0.890756 0
M  V30 4239 O 414.755 2.16216 -0.0892482 0
M  V30 4240 C 415.35 1.02238 -3.23006 0
M  V30 4241 C 413.909 1.51258 -3.44671 0
M  V30 4242 C 413.056 0.456955 -2.73509 0
M  V30 4243 H 416.007 -0.211169 -1.57289 0
M  V30 4244 H 416.028 1.88912 -3.30292 0
M  V30 4245 H 415.54 0.157302 -3.87781 0
M  V30 4246 H 413.641 2.39905 -2.8509 0
M  V30 4247 H 413.754 1.55042 -4.5332 0
M  V30 4248 H 412.118 0.915196 -2.37689 0
M  V30 4249 H 412.901 -0.398896 -3.40975 0
M  V30 4250 N 415.346 1.54954 0.287554 0
M  V30 4251 C 416.294 1.87606 1.37502 0
M  V30 4252 C 417.288 0.751001 1.51843 0
M  V30 4253 O 418.494 0.935169 1.53801 0
M  V30 4254 H 414.869 0.595231 0.459569 0
M  V30 4255 H 416.84 2.78477 1.07206 0
M  V30 4256 C 415.589 2.15183 2.73115 0
M  V30 4257 H 414.912 3.01234 2.62866 0
M  V30 4258 H 416.352 2.4196 3.48183 0
M  V30 4259 C 414.811 0.954686 3.2309 0
M  V30 4260 O 415.341 0.181949 4.01288 0
M  V30 4261 N 413.547 0.756368 2.80584 0
M  V30 4262 H 413.094 1.38643 2.17108 0
M  V30 4263 H 413.052 -0.0430391 3.14371 0
M  V30 4264 N 416.824 -0.551391 1.4764 0
M  V30 4265 C 417.771 -1.65796 1.60563 0
M  V30 4266 C 418.741 -1.59932 0.448428 0
M  V30 4267 O 419.926 -1.78679 0.669222 0
M  V30 4268 C 417.066 -3.04108 1.63133 0
M  V30 4269 C 416.179 -3.20365 2.89811 0
M  V30 4270 C 415.314 -4.49109 2.8368 0
M  V30 4271 C 414.353 -4.58819 4.05156 0
M  V30 4272 N 413.49 -5.78926 3.97227 0
M  V30 4273 H 418.33 -1.54088 2.5507 0
M  V30 4274 H 415.867 -0.75052 1.26513 0
M  V30 4275 H 417.825 -3.84207 1.62606 0
M  V30 4276 H 416.455 -3.14637 0.721341 0
M  V30 4277 H 415.507 -2.33659 3.00179 0
M  V30 4278 H 416.819 -3.23402 3.79753 0
M  V30 4279 H 415.973 -5.37475 2.81434 0
M  V30 4280 H 414.712 -4.4856 1.91431 0
M  V30 4281 H 413.717 -3.68864 4.077 0
M  V30 4282 H 414.942 -4.61124 4.98539 0
M  V30 4283 H 412.888 -5.79314 3.07785 0
M  V30 4284 H 412.805 -5.83367 4.80853 0
M  V30 4285 H 414.073 -6.69637 3.99007 0
M  V30 4286 N 418.302 -1.35869 -0.798587 0
M  V30 4287 C 419.212 -1.31578 -1.94228 0
M  V30 4288 C 420.228 -0.21939 -1.72611 0
M  V30 4289 O 421.404 -0.450167 -1.96305 0
M  V30 4290 C 418.469 -1.09528 -3.28944 0
M  V30 4291 C 417.53 -2.28556 -3.63402 0
M  V30 4292 C 416.763 -2.07549 -4.9169 0
M  V30 4293 O 416.986 -1.046 -5.60727 0
M  V30 4294 O 415.92 -2.95106 -5.24591 0
M  V30 4295 H 419.746 -2.27847 -2.00796 0
M  V30 4296 H 417.331 -1.16322 -0.937526 0
M  V30 4297 H 419.213 -0.991127 -4.09579 0
M  V30 4298 H 417.888 -0.16315 -3.23289 0
M  V30 4299 H 416.795 -2.44538 -2.83112 0
M  V30 4300 H 418.128 -3.20244 -3.73771 0
M  V30 4301 N 419.78 1.02168 -1.19998 0
M  V30 4302 C 421.026 1.75945 -1.00852 0
M  V30 4303 C 421.359 1.88702 0.458828 0
M  V30 4304 O 420.634 1.40911 1.34069 0
M  V30 4305 C 420.917 3.18154 -1.68671 0
M  V30 4306 C 420.77 3.13224 -3.22817 0
M  V30 4307 C 422.089 4.16711 -1.41561 0
M  V30 4308 H 419.208 0.638673 -0.367785 0
M  V30 4309 H 421.85 1.19222 -1.4794 0
M  V30 4310 H 420 3.66586 -1.28636 0
M  V30 4311 H 421.672 2.72635 -3.72112 0
M  V30 4312 H 419.915 2.50751 -3.53986 0
M  V30 4313 H 420.586 4.13728 -3.65422 0
M  V30 4314 H 423.062 3.76913 -1.76284 0
M  V30 4315 H 421.938 5.14391 -1.91553 0
M  V30 4316 H 422.199 4.40774 -0.342193 0
M  V30 4317 N 421.258 1.00505 1.21394 0
M  V30 4318 C 422.535 0.603277 1.86064 0
M  V30 4319 C 422.915 -0.919095 1.90042 0
M  V30 4320 O 422.263 -1.80607 1.39977 0
M  V30 4321 C 422.473 1.23772 3.26315 0
M  V30 4322 C 423.821 1.34586 4.02705 0
M  V30 4323 O 424.845 1.19304 3.35626 0
M  V30 4324 O 423.704 1.59169 5.22807 0
M  V30 4325 H 420.798 0.206634 0.800769 0
M  V30 4326 H 423.344 1.1017 1.29076 0
M  V30 4327 H 422.116 2.27848 3.18121 0
M  V30 4328 H 421.739 0.725648 3.90922 0
M  V30 4329 N 422.737 -1.36956 0.779787 0
M  V30 4330 C 424.014 -1.93697 0.272156 0
M  V30 4331 C 424.394 -1.71267 -1.23413 0
M  V30 4332 O 423.742 -1.06607 -2.02107 0
M  V30 4333 C 423.952 -3.42812 0.654291 0
M  V30 4334 C 425.3 -4.19921 0.628602 0
M  V30 4335 O 426.324 -3.51209 0.594172 0
M  V30 4336 O 425.183 -5.42465 0.662864 0
M  V30 4337 H 422.277 -0.824447 0.0649286 0
M  V30 4338 H 424.823 -1.46196 0.861682 0
M  V30 4339 H 423.595 -3.52754 1.69353 0
M  V30 4340 H 423.218 -3.97582 0.0381369 0
M  V30 4341 N 424.215 -0.530993 -1.48385 0
M  V30 4342 C 425.492 0.0671788 -1.95485 0
M  V30 4343 C 425.872 1.51191 -1.47324 0
M  V30 4344 O 425.22 2.17507 -0.700202 0
M  V30 4345 C 425.43 -0.0511206 -3.48963 0
M  V30 4346 C 426.778 0.107632 -4.24464 0
M  V30 4347 O 427.802 0.0226248 -3.56193 0
M  V30 4348 O 426.661 0.285972 -5.45751 0
M  V30 4349 H 423.755 0.0787365 -0.823243 0
M  V30 4350 H 426.301 -0.595662 -1.58902 0
M  V30 4351 H 425.073 -1.05747 -3.7674 0
M  V30 4352 H 424.696 0.650525 -3.92242 0
M  V30 4353 N 425.693 1.55336 -0.266172 0
M  V30 4354 C 426.603 2.2583 0.635458 0
M  V30 4355 C 427.619 1.28106 1.17749 0
M  V30 4356 O 428.795 1.61024 1.20968 0
M  V30 4357 C 425.86 2.95879 1.80712 0
M  V30 4358 C 424.921 4.09059 1.30265 0
M  V30 4359 C 424.154 4.75759 2.41846 0
M  V30 4360 O 424.377 4.41622 3.61007 0
M  V30 4361 O 423.311 5.63888 2.1051 0
M  V30 4362 H 427.137 3.03631 0.0646693 0
M  V30 4363 H 424.722 1.49361 -0.0339177 0
M  V30 4364 H 426.604 3.39932 2.49047 0
M  V30 4365 H 425.279 2.21002 2.36516 0
M  V30 4366 H 424.186 3.69482 0.586019 0
M  V30 4367 H 425.519 4.85811 0.790458 0
M  V30 4368 N 427.171 -0.0066808 1.57599 0
M  V30 4369 C 428.081 -1.01671 2.11424 0
M  V30 4370 C 429.097 -1.38143 1.05795 0
M  V30 4371 O 430.273 -1.47011 1.37658 0
M  V30 4372 C 427.338 -2.29192 2.60139 0
M  V30 4373 C 426.399 -1.99094 3.80342 0
M  V30 4374 C 425.632 -3.20535 4.26724 0
M  V30 4375 O 425.855 -4.3199 3.72479 0
M  V30 4376 O 424.789 -3.04924 5.18946 0
M  V30 4377 H 428.615 -0.589181 2.9793 0
M  V30 4378 H 426.2 -0.225091 1.47695 0
M  V30 4379 H 428.082 -3.0412 2.917 0
M  V30 4380 H 426.757 -2.71195 1.76733 0
M  V30 4381 H 425.664 -1.21663 3.53764 0
M  V30 4382 H 426.997 -1.61931 4.648 0
M  V30 4383 N 428.649 -1.55105 -0.279332 0
M  V30 4384 C 429.926 -1.66119 -1.03267 0
M  V30 4385 C 430.306 -0.523525 -2.04505 0
M  V30 4386 O 429.654 0.477194 -2.23462 0
M  V30 4387 C 429.864 -3.05067 -1.69515 0
M  V30 4388 C 431.212 -3.62606 -2.20912 0
M  V30 4389 O 432.236 -3.07659 -1.79512 0
M  V30 4390 O 431.095 -4.58861 -2.96831 0
M  V30 4391 H 428.189 -0.674429 -0.478618 0
M  V30 4392 H 430.735 -1.67446 -0.275694 0
M  V30 4393 H 429.507 -3.79311 -0.9612 0
M  V30 4394 H 429.13 -3.07611 -2.51915 0
M  V30 4395 N 430.127 0.543554 -1.4793 0
M  V30 4396 C 431.077 1.64527 -1.57844 0
M  V30 4397 C 432.061 1.54869 -0.436408 0
M  V30 4398 O 433.253 1.63119 -0.687101 0
M  V30 4399 C 430.382 3.03281 -1.6086 0
M  V30 4400 C 429.468 3.18093 -2.80495 0
M  V30 4401 N 429.859 3.02923 -4.05057 0
M  V30 4402 C 428.157 3.49121 -2.77543 0
M  V30 4403 C 428.858 3.20791 -4.85251 0
M  V30 4404 N 427.834 3.47749 -4.17818 0
M  V30 4405 H 431.636 1.51388 -2.5191 0
M  V30 4406 H 429.15 0.748671 -1.44113 0
M  V30 4407 H 431.147 3.82403 -1.66054 0
M  V30 4408 H 429.807 3.17521 -0.678996 0
M  V30 4409 H 430.818 2.79966 -4.35705 0
M  V30 4410 H 427.495 3.69804 -1.93781 0
M  V30 4411 H 428.885 3.13915 -5.9406 0
M  V30 4412 N 431.605 1.3629 0.791371 0
M  V30 4413 C 432.555 1.26988 1.89362 0
M  V30 4414 C 433.539 0.161795 1.60084 0
M  V30 4415 O 434.731 0.394426 1.72549 0
M  V30 4416 C 431.86 1.05944 3.26544 0
M  V30 4417 C 430.946 2.21211 3.61838 0
M  V30 4418 N 431.337 3.46518 3.68455 0
M  V30 4419 C 429.635 2.12933 3.91887 0
M  V30 4420 C 430.336 4.2241 3.99931 0
M  V30 4421 N 429.312 3.51329 4.14812 0
M  V30 4422 H 433.114 2.21908 1.92702 0
M  V30 4423 H 430.628 1.28982 0.986787 0
M  V30 4424 H 432.625 0.973666 4.05371 0
M  V30 4425 H 431.285 0.119223 3.24481 0
M  V30 4426 H 432.296 3.80677 3.51148 0
M  V30 4427 H 428.973 1.26855 3.97761 0
M  V30 4428 H 430.363 5.30767 4.1199 0
M  V30 4429 N 433.083 -1.0153 1.20538 0
M  V30 4430 C 433.993 -2.13557 0.971113 0
M  V30 4431 C 435.009 -1.73845 -0.0734366 0
M  V30 4432 O 436.185 -2.01075 0.114299 0
M  V30 4433 C 433.25 -3.42661 0.527639 0
M  V30 4434 C 432.311 -3.96608 1.64319 0
M  V30 4435 C 431.544 -5.1955 1.22078 0
M  V30 4436 O 431.767 -5.70329 0.0900198 0
M  V30 4437 O 430.701 -5.66681 2.02871 0
M  V30 4438 H 434.527 -2.3619 1.90913 0
M  V30 4439 H 432.112 -1.11946 0.989362 0
M  V30 4440 H 433.994 -4.20404 0.289621 0
M  V30 4441 H 432.669 -3.21441 -0.381779 0
M  V30 4442 H 431.576 -3.20139 1.93551 0
M  V30 4443 H 432.909 -4.22219 2.52966 0
M  V30 4444 O 434.6 -1.13875 -1.14519 0
M  V30 4445 H 435.291 -0.85746 -1.73687 0
M  V30 END ATOM
M  V30 BEGIN BOND
M  V30 END BOND
M  V30 END CTAB
M  END
$$$$
