drugbank_target|P0ABF6 Cytidine deaminase (DB03068; DB04385)
 OpenBabel12092120033D

  0  0  0     0  0            999 V3000
M  V30 BEGIN CTAB
M  V30 COUNTS 4407 4457 0 0 0
M  V30 BEGIN ATOM
M  V30 1 H -0.908 1.98254 -0.117106 0
M  V30 2 N 0 1.576 0 0
M  V30 3 C 0.933 2.03868 1.02534 0
M  V30 4 C 1.911 0.928543 1.3348 0
M  V30 5 O 3.095 1.19667 1.45644 0
M  V30 6 C 0.222 2.43627 2.35294 0
M  V30 7 C -0.732 3.65373 2.2001 0
M  V30 8 S 0.101 5.13292 1.52614 0
M  V30 9 C 1.257 5.56322 2.86805 0
M  V30 10 H 1.49 2.90518 0.631377 0
M  V30 11 H -0.977 1.52953 0.210867 0
M  V30 12 H 0.981 2.67203 3.11629 0
M  V30 13 H -0.358 1.57376 2.7183 0
M  V30 14 H -1.165 3.90944 3.18086 0
M  V30 15 H -1.563 3.418 1.51819 0
M  V30 16 H 0.729 5.58782 3.83104 0
M  V30 17 H 1.672 6.56266 2.65933 0
M  V30 18 H 2.08 4.83886 2.90714 0
M  V30 19 N 1.4781 -0.272755 1.55222 0
M  V30 20 C 2.4281 -1.33946 1.84506 0
M  V30 21 C 3.4121 -1.44682 0.70399 0
M  V30 22 O 4.6041 -1.48358 0.965338 0
M  V30 23 C 1.7331 -2.69968 2.12067 0
M  V30 24 C 0.8191 -2.63341 3.32434 0
M  V30 25 N 1.2101 -2.26335 4.52334 0
M  V30 26 C -0.4919 -2.94402 3.35028 0
M  V30 27 C 0.2091 -2.29705 5.34425 0
M  V30 28 N -0.8149 -2.68188 4.72838 0
M  V30 29 H 2.9871 -1.04343 2.74754 0
M  V30 30 H 0.5011 -0.481389 1.55101 0
M  V30 31 H 2.4981 -3.46916 2.31202 0
M  V30 32 H 1.1581 -3.00459 1.23103 0
M  V30 33 H 2.1691 -1.98309 4.78429 0
M  V30 34 H -1.1539 -3.29603 2.56257 0
M  V30 35 H 0.2361 -2.03653 6.40293 0
M  V30 36 N 2.9562 -1.48159 -0.537278 0
M  V30 37 C 4.3672 -1.49429 -1.11928 0
M  V30 38 C 4.7182 -0.26 -1.9447 0
M  V30 39 O 3.8432 0.633489 -2.0692 0
M  V30 40 C 4.4382 -2.70758 -2.03656 0
M  V30 41 C 2.9972 -2.74923 -2.57088 0
M  V30 42 C 2.1442 -2.42835 -1.3389 0
M  V30 43 H 5.0952 -1.55381 -0.322886 0
M  V30 44 H 5.1162 -2.48861 -2.87834 0
M  V30 45 H 4.6282 -3.60575 -1.43553 0
M  V30 46 H 2.7292 -1.89296 -3.20933 0
M  V30 47 H 2.8422 -3.76157 -2.9672 0
M  V30 48 H 1.2062 -1.93836 -1.65226 0
M  V30 49 H 1.9892 -3.34884 -0.755504 0
M  V30 50 N 4.4343 0.785586 -1.36625 0
M  V30 51 C 5.8503 1.08419 -1.17122 0
M  V30 52 C 6.0503 2.015 0.00208491 0
M  V30 53 O 5.1063 2.43551 0.666278 0
M  V30 54 C 6.4193 1.69498 -2.48377 0
M  V30 55 C 7.9673 1.81821 -2.54775 0
M  V30 56 C 8.4423 2.46315 -3.86126 0
M  V30 57 N 9.9333 2.53779 -3.87492 0
M  V30 58 C 10.6683 3.045 -4.85868 0
M  V30 59 N 10.1643 3.55499 -5.94637 0
M  V30 60 N 11.9573 3.03247 -4.73284 0
M  V30 61 H 4.1083 0.167264 -2.1174 0
M  V30 62 H 6.3713 0.13682 -0.938075 0
M  V30 63 H 6.0773 1.08571 -3.34522 0
M  V30 64 H 5.9513 2.6896 -2.64462 0
M  V30 65 H 8.3383 2.41884 -1.69045 0
M  V30 66 H 8.4193 0.811532 -2.42586 0
M  V30 67 H 8.0633 1.86895 -4.72263 0
M  V30 68 H 7.9933 3.47561 -3.95612 0
M  V30 69 H 10.4843 2.17672 -3.08913 0
M  V30 70 H 10.7973 3.92562 -6.65669 0
M  V30 71 H 9.1423 3.5364 -5.98301 0
M  V30 72 H 12.3333 2.62696 -3.87438 0
M  V30 73 H 12.5063 3.42467 -5.50109 0
M  V30 74 N 5.9124 1.20967 1.01018 0
M  V30 75 C 7.1594 1.02374 1.74716 0
M  V30 76 C 7.4874 -0.443375 1.89379 0
M  V30 77 O 6.7424 -1.34535 1.42123 0
M  V30 78 C 7.0414 1.65997 3.16512 0
M  V30 79 C 6.7074 3.15831 3.2181 0
M  V30 80 C 5.3694 3.56719 3.22963 0
M  V30 81 C 7.7214 4.11816 3.19464 0
M  V30 82 C 5.0494 4.92107 3.19449 0
M  V30 83 C 7.4014 5.47158 3.17491 0
M  V30 84 C 6.0654 5.87451 3.16951 0
M  V30 85 H 5.3354 0.374614 0.639332 0
M  V30 86 H 7.9824 1.50485 1.18434 0
M  V30 87 H 6.2874 1.10166 3.75993 0
M  V30 88 H 7.9844 1.49119 3.72242 0
M  V30 89 H 4.5744 2.83263 3.21652 0
M  V30 90 H 8.7584 3.81257 3.17737 0
M  V30 91 H 4.0144 5.22579 3.17366 0
M  V30 92 H 8.1884 6.21274 3.14629 0
M  V30 93 H 5.8154 6.92329 3.13983 0
M  V30 94 N 7.3905 -1.2043 1.01659 0
M  V30 95 C 8.3225 -2.22626 0.544988 0
M  V30 96 C 9.3355 -1.58479 -0.372609 0
M  V30 97 O 10.5245 -1.77679 -0.170958 0
M  V30 98 C 7.6245 -3.38141 -0.22663 0
M  V30 99 C 6.7975 -4.31877 0.692876 0
M  V30 100 C 5.8565 -5.26191 -0.0311616 0
M  V30 101 O 4.8825 -5.6612 0.591343 0
M  V30 102 N 6.0845 -5.65618 -1.30601 0
M  V30 103 H 8.8495 -2.63716 1.42388 0
M  V30 104 H 6.4105 -1.34971 0.894116 0
M  V30 105 H 8.4025 -3.98239 -0.72024 0
M  V30 106 H 6.9725 -2.95943 -1.00681 0
M  V30 107 H 6.1925 -3.69746 1.36679 0
M  V30 108 H 7.4805 -4.91426 1.31824 0
M  V30 109 H 6.8785 -5.3519 -1.83269 0
M  V30 110 H 5.4355 -6.28025 -1.74435 0
M  V30 111 N 8.8686 -0.792821 -1.36206 0
M  V30 112 C 10.0966 -0.378825 -2.03402 0
M  V30 113 C 10.5116 1.00586 -1.59774 0
M  V30 114 O 9.8686 1.64574 -0.788764 0
M  V30 115 C 9.9196 -0.43683 -3.58851 0
M  V30 116 O 9.6406 -1.76691 -4.00889 0
M  V30 117 C 11.1416 -0.0138943 -4.43298 0
M  V30 118 H 8.3616 -0.155673 -0.652692 0
M  V30 119 H 10.9056 -1.07261 -1.74113 0
M  V30 120 H 9.0606 0.208575 -3.86838 0
M  V30 121 H 9.4746 -1.72011 -4.95492 0
M  V30 122 H 10.9486 -0.105615 -5.51899 0
M  V30 123 H 11.4256 1.03915 -4.2673 0
M  V30 124 H 12.0316 -0.63192 -4.20579 0
M  V30 125 N 10.3467 1.47872 -0.545128 0
M  V30 126 C 11.3097 2.28337 0.198717 0
M  V30 127 C 12.3097 1.36255 0.853888 0
M  V30 128 O 13.4997 1.59003 0.711606 0
M  V30 129 C 10.6317 3.15585 1.28915 0
M  V30 130 H 11.8247 2.95567 -0.507941 0
M  V30 131 H 9.3777 1.53362 -0.301616 0
M  V30 132 H 10.1127 2.53019 2.02859 0
M  V30 133 H 9.8977 3.83337 0.824309 0
M  V30 134 H 11.3877 3.76243 1.81194 0
M  V30 135 N 11.8248 0.280983 1.55075 0
M  V30 136 C 13.0718 -0.334115 1.99725 0
M  V30 137 C 13.3998 -1.5542 1.1694 0
M  V30 138 O 12.6548 -1.94361 0.228531 0
M  V30 139 C 12.9538 -0.754656 3.49342 0
M  V30 140 C 12.6198 0.361445 4.49449 0
M  V30 141 C 11.2818 0.667893 4.76542 0
M  V30 142 C 13.6338 1.11322 5.09173 0
M  V30 143 C 10.9618 1.7296 5.60626 0
M  V30 144 C 13.3138 2.1647 5.9441 0
M  V30 145 C 11.9778 2.47742 6.19822 0
M  V30 146 H 11.2478 -0.122261 0.730844 0
M  V30 147 H 13.8948 0.395917 1.87363 0
M  V30 148 H 12.1998 -1.56446 3.5921 0
M  V30 149 H 13.8968 -1.24142 3.813 0
M  V30 150 H 10.4868 0.112481 4.28452 0
M  V30 151 H 14.6708 0.88973 4.8826 0
M  V30 152 H 9.9268 1.97684 5.78559 0
M  V30 153 H 14.1008 2.75193 6.3972 0
M  V30 154 H 11.7278 3.30145 6.84769 0
M  V30 155 N 13.3029 -1.57598 0.00835791 0
M  V30 156 C 14.2659 -2.07884 -0.965242 0
M  V30 157 C 15.2659 -0.989825 -1.26725 0
M  V30 158 O 16.4559 -1.25218 -1.21104 0
M  V30 159 C 13.5879 -2.52731 -2.28779 0
M  V30 160 H 14.7809 -2.95178 -0.530112 0
M  V30 161 H 12.3339 -1.54458 -0.239283 0
M  V30 162 H 13.0689 -1.68705 -2.76964 0
M  V30 163 H 12.8539 -3.32272 -2.08177 0
M  V30 164 H 14.3439 -2.91933 -2.98605 0
M  V30 165 N 14.781 0.264519 -1.55364 0
M  V30 166 C 15.713 1.34965 -1.85248 0
M  V30 167 C 16.726 1.45136 -0.737525 0
M  V30 168 O 17.915 1.46801 -1.01547 0
M  V30 169 C 15.015 2.73008 -2.00797 0
M  V30 170 C 14.188 2.85324 -3.31525 0
M  V30 171 C 13.247 4.04097 -3.37034 0
M  V30 172 O 12.273 3.94455 -4.10358 0
M  V30 173 N 13.475 5.16458 -2.65049 0
M  V30 174 H 16.24 1.09672 -2.78913 0
M  V30 175 H 13.801 0.454635 -1.55386 0
M  V30 176 H 15.793 3.50772 -2.01844 0
M  V30 177 H 14.363 2.91087 -1.1396 0
M  V30 178 H 13.583 1.94377 -3.42945 0
M  V30 179 H 14.871 2.9049 -4.17724 0
M  V30 180 H 14.269 5.27181 -2.05175 0
M  V30 181 H 12.826 5.92422 -2.71809 0
M  V30 182 N 16.2591 1.48442 0.529413 0
M  V30 183 C 17.1891 1.65902 1.64313 0
M  V30 184 C 18.1701 0.507897 1.6234 0
M  V30 185 O 19.3551 0.740503 1.79528 0
M  V30 186 C 16.4851 1.69911 3.02898 0
M  V30 187 C 15.4391 2.8453 3.19729 0
M  V30 188 C 14.7651 2.73629 4.59381 0
M  V30 189 C 16.0651 4.25821 3.02447 0
M  V30 190 H 17.7591 2.5914 1.49955 0
M  V30 191 H 15.3051 1.24709 0.719982 0
M  V30 192 H 17.2581 1.80715 3.80684 0
M  V30 193 H 15.9821 0.732524 3.18279 0
M  V30 194 H 14.6411 2.73283 2.44361 0
M  V30 195 H 14.2891 1.74938 4.71599 0
M  V30 196 H 13.9891 3.50541 4.71588 0
M  V30 197 H 15.5131 2.86401 5.39265 0
M  V30 198 H 16.9271 4.37898 3.70024 0
M  V30 199 H 15.3241 5.03735 3.26146 0
M  V30 200 H 16.3941 4.42244 1.98867 0
M  V30 201 N 17.7372 -0.778329 1.37039 0
M  V30 202 C 18.7002 -1.87301 1.32102 0
M  V30 203 C 19.7002 -1.59198 0.226405 0
M  V30 204 O 20.8902 -1.67403 0.481861 0
M  V30 205 C 18.0222 -3.24309 1.05055 0
M  V30 206 H 19.2152 -1.93093 2.29467 0
M  V30 207 H 16.7682 -0.977358 1.21973 0
M  V30 208 H 17.5032 -3.24196 0.0819373 0
M  V30 209 H 17.2882 -3.46098 1.84279 0
M  V30 210 H 18.7782 -4.04382 1.04234 0
M  V30 211 N 19.2153 -1.21501 -1.00376 0
M  V30 212 C 20.4923 -0.941745 -1.71437 0
M  V30 213 C 20.8723 0.546114 -2.03914 0
M  V30 214 O 20.2203 1.51128 -1.71384 0
M  V30 215 C 20.4303 -1.82812 -2.97289 0
M  V30 216 C 21.7783 -2.07771 -3.70292 0
M  V30 217 O 22.8023 -1.80171 -3.07273 0
M  V30 218 O 21.6613 -2.54456 -4.83647 0
M  V30 219 H 18.7553 -0.353243 -0.747762 0
M  V30 220 H 21.3013 -1.32436 -1.06108 0
M  V30 221 H 20.0733 -2.83501 -2.69709 0
M  V30 222 H 19.6963 -1.4464 -3.70358 0
M  V30 223 N 20.6934 1.19889 -1.02296 0
M  V30 224 C 21.6414 2.24938 -0.592081 0
M  V30 225 C 22.6354 1.65257 0.372357 0
M  V30 226 O 23.8414 1.78371 0.241583 0
M  V30 227 H 20.2164 0.731787 -0.173182 0
M  V30 228 H 22.1874 2.58603 -1.48885 0
M  V30 229 C 20.9364 3.47668 0.047351 0
M  V30 230 H 20.2594 3.93875 -0.685772 0
M  V30 231 H 21.6994 4.22852 0.311862 0
M  V30 232 C 20.1584 3.11136 1.29212 0
M  V30 233 O 20.6884 3.2325 2.38479 0
M  V30 234 N 18.8944 2.65625 1.17863 0
M  V30 235 H 18.4414 2.55968 0.289493 0
M  V30 236 H 18.3994 2.41553 2.01245 0
M  V30 237 N 22.1715 0.800033 1.35784 0
M  V30 238 C 23.1015 0.220184 2.3246 0
M  V30 239 C 24.0825 -0.65073 1.57161 0
M  V30 240 O 25.2675 -0.582359 1.85263 0
M  V30 241 C 22.3975 -0.637353 3.41402 0
M  V30 242 C 21.3515 0.134531 4.27789 0
M  V30 243 C 20.6775 -0.844285 5.27992 0
M  V30 244 C 21.9775 1.32979 5.05088 0
M  V30 245 H 23.6715 1.02787 2.81203 0
M  V30 246 H 21.2175 0.495717 1.35199 0
M  V30 247 H 23.1705 -1.05302 4.08031 0
M  V30 248 H 21.8945 -1.47785 2.91251 0
M  V30 249 H 20.5535 0.531296 3.6273 0
M  V30 250 H 20.2015 -1.68011 4.74111 0
M  V30 251 H 19.9015 -0.332184 5.8666 0
M  V30 252 H 21.4255 -1.2583 5.97494 0
M  V30 253 H 22.8395 0.98934 5.64699 0
M  V30 254 H 21.2365 1.77593 5.7322 0
M  V30 255 H 22.3065 2.11978 4.36111 0
M  V30 256 N 23.6496 -1.47581 0.552962 0
M  V30 257 C 24.5816 -2.27997 -0.234533 0
M  V30 258 C 25.5946 -1.36753 -0.883321 0
M  V30 259 O 26.7836 -1.61612 -0.757889 0
M  V30 260 C 23.8836 -3.10879 -1.34935 0
M  V30 261 C 23.0566 -4.30056 -0.798158 0
M  V30 262 C 22.1156 -4.94567 -1.79694 0
M  V30 263 O 21.1416 -5.53087 -1.34474 0
M  V30 264 N 22.3436 -4.88878 -3.13015 0
M  V30 265 H 25.1086 -2.96222 0.455255 0
M  V30 266 H 22.6696 -1.57163 0.388761 0
M  V30 267 H 24.6616 -3.50903 -2.01616 0
M  V30 268 H 23.2316 -2.44924 -1.94244 0
M  V30 269 H 22.4516 -3.94174 0.0453079 0
M  V30 270 H 23.7396 -5.07152 -0.409173 0
M  V30 271 H 23.1376 -4.42526 -3.52402 0
M  V30 272 H 21.6946 -5.32934 -3.75266 0
M  V30 273 N 25.1277 -0.289203 -1.54924 0
M  V30 274 C 26.3527 0.329299 -2.04769 0
M  V30 275 C 26.7777 1.4763 -1.16564 0
M  V30 276 O 26.1357 1.80527 -0.167186 0
M  V30 277 C 26.1837 0.774438 -3.52186 0
M  V30 278 O 25.2877 1.88038 -3.67036 0
M  V30 279 H 24.6287 0.0659259 -0.660719 0
M  V30 280 H 27.1587 -0.42761 -2.00082 0
M  V30 281 H 27.1687 1.06642 -3.93816 0
M  V30 282 H 25.8437 -0.0646707 -4.1585 0
M  V30 283 H 24.4207 1.58985 -3.3731 0
M  V30 284 N 26.6058 1.57591 -0.0167156 0
M  V30 285 C 27.5688 2.08393 0.954204 0
M  V30 286 C 28.5688 0.996531 1.26198 0
M  V30 287 O 29.7588 1.25858 1.20438 0
M  V30 288 C 26.8908 2.5394 2.27436 0
M  V30 289 H 28.0838 2.95455 0.514451 0
M  V30 290 H 25.6368 1.54582 0.231089 0
M  V30 291 H 26.3718 1.70171 2.76066 0
M  V30 292 H 26.1568 3.33371 2.06412 0
M  V30 293 H 27.6468 2.93512 2.97053 0
M  V30 294 N 28.0839 -0.256276 1.55502 0
M  V30 295 C 29.0139 -1.32102 1.92539 0
M  V30 296 C 29.9949 -1.50684 0.789194 0
M  V30 297 O 31.1799 -1.63449 1.04872 0
M  V30 298 C 28.3099 -2.67752 2.21192 0
M  V30 299 C 27.2639 -2.63878 3.36975 0
M  V30 300 C 26.5899 -4.03236 3.51147 0
M  V30 301 C 27.8899 -2.21682 4.72921 0
M  V30 302 H 29.5839 -1.01351 2.81724 0
M  V30 303 H 27.1299 -0.486105 1.35547 0
M  V30 304 H 29.0829 -3.42365 2.45691 0
M  V30 305 H 27.8069 -3.0012 1.28824 0
M  V30 306 H 26.4659 -1.91722 3.12471 0
M  V30 307 H 26.1139 -4.32854 2.56216 0
M  V30 308 H 25.8139 -4.01535 4.29003 0
M  V30 309 H 27.3379 -4.79563 3.77957 0
M  V30 310 H 28.7519 -2.86023 4.96854 0
M  V30 311 H 27.1489 -2.3111 5.53812 0
M  V30 312 H 28.2189 -1.16833 4.70615 0
M  V30 313 N 29.562 -1.4872 -0.521534 0
M  V30 314 C 30.472 -1.66569 -1.65203 0
M  V30 315 C 31.488 -0.548197 -1.65139 0
M  V30 316 O 32.664 -0.820339 -1.83936 0
M  V30 317 C 29.729 -1.70917 -3.01642 0
M  V30 318 C 28.79 -2.94356 -3.12495 0
M  V30 319 C 28.023 -2.98487 -4.42426 0
M  V30 320 O 28.246 -2.10786 -5.30024 0
M  V30 321 O 27.18 -3.90746 -4.57822 0
M  V30 322 H 31.006 -2.62298 -1.5308 0
M  V30 323 H 28.591 -1.3222 -0.695565 0
M  V30 324 H 30.473 -1.7625 -3.82771 0
M  V30 325 H 29.148 -0.783633 -3.14071 0
M  V30 326 H 28.055 -2.94552 -2.3063 0
M  V30 327 H 29.388 -3.86322 -3.04986 0
M  V30 328 N 31.0401 0.771051 -1.3745 0
M  V30 329 C 32.4511 1.34737 -1.29239 0
M  V30 330 C 32.8021 1.96109 0.0596908 0
M  V30 331 O 31.9271 1.93865 0.961534 0
M  V30 332 C 32.5221 2.44973 -2.34037 0
M  V30 333 C 31.0811 2.98372 -2.29458 0
M  V30 334 C 30.2281 1.71595 -2.17831 0
M  V30 335 H 33.1791 0.571256 -1.48062 0
M  V30 336 H 33.2001 3.24471 -1.98744 0
M  V30 337 H 32.7121 2.00276 -3.32432 0
M  V30 338 H 30.8131 3.47443 -1.34589 0
M  V30 339 H 30.9261 3.53939 -3.229 0
M  V30 340 H 29.2901 1.94547 -1.64388 0
M  V30 341 H 30.0731 1.29001 -3.18141 0
M  V30 342 N 32.5182 1.22032 0.997298 0
M  V30 343 C 33.7672 1.03637 1.73038 0
M  V30 344 C 34.0802 -0.429475 1.90827 0
M  V30 345 O 35.2862 -0.732995 2.61418 0
M  V30 346 C 33.7422 1.80582 3.11317 0
M  V30 347 C 33.3502 3.31387 3.01474 0
M  V30 348 C 35.0942 1.70621 3.88701 0
M  V30 349 C 33.0012 4.00791 4.3488 0
M  V30 350 H 31.9312 0.384179 0.648785 0
M  V30 351 H 34.5822 1.4584 1.11368 0
M  V30 352 H 32.9642 1.31175 3.73643 0
M  V30 353 H 34.1382 3.88155 2.4834 0
M  V30 354 H 32.4532 3.41976 2.37575 0
M  V30 355 H 35.0502 2.19799 4.87434 0
M  V30 356 H 35.3932 0.665823 4.10941 0
M  V30 357 H 35.9262 2.17547 3.33044 0
M  V30 358 H 32.6652 5.05064 4.1784 0
M  V30 359 H 32.1852 3.48811 4.87945 0
M  V30 360 H 33.8642 4.06139 5.03647 0
M  V30 361 N 33.9963 -1.19345 1.0293 0
M  V30 362 C 34.9263 -2.2481 0.631105 0
M  V30 363 C 35.9073 -1.66245 -0.360104 0
M  V30 364 O 37.0923 -1.92677 -0.242726 0
M  V30 365 C 34.2223 -3.47295 -0.0184607 0
M  V30 366 C 33.1763 -4.18536 0.895073 0
M  V30 367 C 32.5023 -5.34586 0.110592 0
M  V30 368 C 33.8023 -4.73287 2.209 0
M  V30 369 H 35.4963 -2.58372 1.51275 0
M  V30 370 H 33.0423 -1.24194 0.728818 0
M  V30 371 H 34.9953 -4.20268 -0.308675 0
M  V30 372 H 33.7193 -3.12933 -0.934907 0
M  V30 373 H 32.3783 -3.47446 1.16949 0
M  V30 374 H 32.0263 -4.96469 -0.807902 0
M  V30 375 H 31.7263 -5.83183 0.719087 0
M  V30 376 H 33.2503 -6.10355 -0.172871 0
M  V30 377 H 34.6643 -5.38013 1.98028 0
M  V30 378 H 33.0613 -5.32373 2.76946 0
M  V30 379 H 34.1313 -3.91331 2.86336 0
M  V30 380 N 35.4744 -0.807222 -1.35358 0
M  V30 381 C 36.4374 -0.223665 -2.28106 0
M  V30 382 C 37.4374 0.589354 -1.4961 0
M  V30 383 O 38.6274 0.407745 -1.69361 0
M  V30 384 C 35.7594 0.688149 -3.33882 0
M  V30 385 H 36.9524 -1.04169 -2.81227 0
M  V30 386 H 34.5054 -0.577921 -1.45223 0
M  V30 387 H 35.2404 1.52984 -2.85948 0
M  V30 388 H 35.0254 0.10687 -3.91954 0
M  V30 389 H 36.5154 1.09075 -4.03104 0
M  V30 390 N 36.9525 1.47285 -0.560781 0
M  V30 391 C 38.2295 1.9558 0.0277798 0
M  V30 392 C 38.6095 1.5034 1.48192 0
M  V30 393 O 37.9575 0.743882 2.16052 0
M  V30 394 C 38.1675 3.48789 -0.121418 0
M  V30 395 C 39.5155 4.24594 0.0220912 0
M  V30 396 O 40.5395 3.56166 -0.0491439 0
M  V30 397 O 39.3985 5.46217 0.175958 0
M  V30 398 H 36.4925 0.824663 0.0621342 0
M  V30 399 H 39.0385 1.5767 -0.627556 0
M  V30 400 H 37.8105 3.74533 -1.13316 0
M  V30 401 H 37.4335 3.93473 0.571366 0
M  V30 402 N 38.4306 0.297415 1.54768 0
M  V30 403 C 39.3776 -0.580276 2.23386 0
M  V30 404 C 40.3476 -1.13238 1.21517 0
M  V30 405 O 41.5326 -1.17757 1.50126 0
M  V30 406 C 38.6726 -1.74801 2.97555 0
M  V30 407 C 37.7856 -1.22764 4.1419 0
M  V30 408 C 36.9206 -2.35895 4.75949 0
M  V30 409 C 35.9596 -1.80974 5.84735 0
M  V30 410 N 35.0966 -2.87664 6.40464 0
M  V30 411 H 39.9366 0.0114833 2.97998 0
M  V30 412 H 37.4736 0.0174361 1.4709 0
M  V30 413 H 39.4316 -2.43475 3.38786 0
M  V30 414 H 38.0616 -2.31145 2.25326 0
M  V30 415 H 37.1136 -0.433271 3.77924 0
M  V30 416 H 38.4256 -0.785551 4.92575 0
M  V30 417 H 37.5796 -3.12523 5.20014 0
M  V30 418 H 36.3186 -2.83429 3.96887 0
M  V30 419 H 35.3236 -1.02834 5.40097 0
M  V30 420 H 36.5486 -1.34348 6.65678 0
M  V30 421 H 34.4946 -3.34538 5.64287 0
M  V30 422 H 34.4116 -2.4794 7.14186 0
M  V30 423 H 35.6796 -3.642 6.89187 0
M  V30 424 N 39.9087 -1.5758 0.0250728 0
M  V30 425 C 41.1387 -1.95646 -0.663783 0
M  V30 426 C 41.5467 -0.899935 -1.66427 0
M  V30 427 O 40.8897 0.127191 -1.83259 0
M  V30 428 C 40.9517 -3.29835 -1.43 0
M  V30 429 C 40.6157 -4.53197 -0.588305 0
M  V30 430 C 41.6127 -5.19726 0.13469 0
M  V30 431 C 39.2977 -4.99529 -0.526897 0
M  V30 432 C 41.2917 -6.30902 0.90781 0
M  V30 433 C 38.9787 -6.10589 0.24993 0
M  V30 434 C 39.9767 -6.76134 0.965994 0
M  V30 435 O 39.6647 -7.85062 1.7301 0
M  V30 436 H 39.3967 -0.649282 -0.188174 0
M  V30 437 H 41.9507 -2.05245 0.0799006 0
M  V30 438 H 40.1807 -3.16716 -2.21873 0
M  V30 439 H 41.8697 -3.52833 -2.00658 0
M  V30 440 H 42.6357 -4.84904 0.0965562 0
M  V30 441 H 38.5147 -4.48319 -1.07381 0
M  V30 442 H 42.0587 -6.81995 1.46724 0
M  V30 443 H 37.9557 -6.44849 0.289795 0
M  V30 444 H 38.7237 -8.01708 1.64944 0
M  V30 445 N 41.3868 0.248026 -1.55636 0
M  V30 446 C 42.6338 0.976224 -1.77415 0
M  V30 447 C 42.9618 1.85361 -0.589193 0
M  V30 448 O 42.2168 1.90973 0.427529 0
M  V30 449 C 42.5158 1.86819 -3.04686 0
M  V30 450 C 42.1818 1.14625 -4.36087 0
M  V30 451 C 40.8438 0.946723 -4.71795 0
M  V30 452 C 43.1958 0.634463 -5.17324 0
M  V30 453 C 40.5238 0.223091 -5.86276 0
M  V30 454 C 42.8758 -0.0756959 -6.32555 0
M  V30 455 C 41.5398 -0.286711 -6.66884 0
M  V30 456 H 40.8098 0.357226 -0.649208 0
M  V30 457 H 43.4568 0.246415 -1.89908 0
M  V30 458 H 41.7618 2.66502 -2.872 0
M  V30 459 H 43.4588 2.43329 -3.18735 0
M  V30 460 H 40.0488 1.3117 -4.08035 0
M  V30 461 H 44.2328 0.77616 -4.90193 0
M  V30 462 H 39.4888 0.0491185 -6.1138 0
M  V30 463 H 43.6628 -0.479899 -6.94745 0
M  V30 464 H 41.2898 -0.849389 -7.5544 0
M  V30 465 N 42.8649 1.48995 0.513639 0
M  V30 466 C 44.2759 1.5119 1.09537 0
M  V30 467 C 44.6269 0.290906 1.94031 0
M  V30 468 O 43.7519 -0.60049 2.07902 0
M  V30 469 C 44.3469 2.73964 1.99322 0
M  V30 470 C 42.9059 2.78978 2.52682 0
M  V30 471 C 42.0529 2.44934 1.30009 0
M  V30 472 H 45.0039 1.55875 0.298125 0
M  V30 473 H 45.0249 2.53409 2.83838 0
M  V30 474 H 44.5369 3.62813 1.37799 0
M  V30 475 H 42.6379 1.94378 3.1788 0
M  V30 476 H 42.7509 3.8083 2.90698 0
M  V30 477 H 41.1149 1.9644 1.62122 0
M  V30 478 H 41.8979 3.36043 0.702131 0
M  V30 479 N 44.343 -0.763751 1.37857 0
M  V30 480 C 45.306 -1.85889 1.34081 0
M  V30 481 C 46.306 -1.58949 0.243277 0
M  V30 482 O 47.496 -1.66882 0.499589 0
M  V30 483 C 44.628 -3.23176 1.08489 0
M  V30 484 H 45.821 -1.90648 2.31502 0
M  V30 485 H 43.374 -0.964367 1.23003 0
M  V30 486 H 44.109 -3.24091 0.116318 0
M  V30 487 H 43.894 -3.44124 1.8794 0
M  V30 488 H 45.384 -4.03254 1.08517 0
M  V30 489 N 45.8211 -1.22559 -0.990812 0
M  V30 490 C 46.7511 -1.0218 -2.09956 0
M  V30 491 C 47.7321 0.0579394 -1.70001 0
M  V30 492 O 48.9171 -0.104684 -1.93918 0
M  V30 493 C 46.0471 -0.601023 -3.4206 0
M  V30 494 C 45.0011 -1.62694 -3.95872 0
M  V30 495 C 44.3271 -1.06193 -5.24049 0
M  V30 496 C 45.6271 -3.01743 -4.2632 0
M  V30 497 H 47.3211 -1.94916 -2.27262 0
M  V30 498 H 44.8671 -0.938566 -1.09211 0
M  V30 499 H 46.8201 -0.445561 -4.19038 0
M  V30 500 H 45.5441 0.362005 -3.24588 0
M  V30 501 H 44.2031 -1.77021 -3.21028 0
M  V30 502 H 43.8511 -0.0901903 -5.02919 0
M  V30 503 H 43.5511 -1.74732 -5.61019 0
M  V30 504 H 45.0751 -0.918092 -6.03658 0
M  V30 505 H 46.4891 -2.90777 -4.94087 0
M  V30 506 H 44.8861 -3.67425 -4.74467 0
M  V30 507 H 45.9561 -3.51518 -3.34011 0
M  V30 508 N 47.2992 1.18797 -1.03562 0
M  V30 509 C 48.2292 2.24472 -0.643019 0
M  V30 510 C 49.2102 1.66433 0.351283 0
M  V30 511 O 50.3952 1.92803 0.232505 0
M  V30 512 C 47.5252 3.473 4.24935e-05 0
M  V30 513 C 46.4792 4.18055 -0.917257 0
M  V30 514 C 45.8052 5.34519 -0.138941 0
M  V30 515 C 47.1052 4.72109 -2.23407 0
M  V30 516 H 48.7992 2.57566 -1.52643 0
M  V30 517 H 46.3452 1.23806 -0.735394 0
M  V30 518 H 48.2982 4.20426 0.286383 0
M  V30 519 H 47.0222 3.13424 0.918299 0
M  V30 520 H 45.6812 3.46821 -1.1879 0
M  V30 521 H 45.3292 4.96891 0.781562 0
M  V30 522 H 45.0292 5.82794 -0.750005 0
M  V30 523 H 46.5532 6.10438 0.1405 0
M  V30 524 H 47.9672 5.36955 -2.00879 0
M  V30 525 H 46.3642 5.30897 -2.79765 0
M  V30 526 H 47.4342 3.89807 -2.88407 0
M  V30 527 N 48.7773 0.814389 1.34928 0
M  V30 528 C 50.0053 0.411136 2.02774 0
M  V30 529 C 50.4203 -0.980316 1.61354 0
M  V30 530 O 49.7773 -1.63299 0.814847 0
M  V30 531 C 49.8283 0.493865 3.58111 0
M  V30 532 O 49.5493 1.83047 3.98027 0
M  V30 533 C 51.0503 0.0844174 4.4322 0
M  V30 534 H 48.2703 0.166037 0.650133 0
M  V30 535 H 50.8143 1.10018 1.72384 0
M  V30 536 H 48.9693 -0.147006 3.87121 0
M  V30 537 H 49.3833 1.79872 4.92693 0
M  V30 538 H 50.8573 0.193404 5.51661 0
M  V30 539 H 51.3343 -0.97113 4.28329 0
M  V30 540 H 51.9403 0.69875 4.19521 0
M  V30 541 N 50.2554 -1.46986 0.568584 0
M  V30 542 C 51.5034 -2.02041 0.0487022 0
M  V30 543 C 51.8244 -1.44408 -1.31039 0
M  V30 544 O 51.0944 -0.623477 -1.85714 0
M  V30 545 H 49.6744 -0.746849 0.015014 0
M  V30 546 H 52.3364 -1.80257 0.741168 0
M  V30 547 H 51.4324 -3.12085 -0.0308961 0
M  V30 548 N 51.7335 -0.305618 -1.54608 0
M  V30 549 C 52.6435 0.57778 -2.27374 0
M  V30 550 C 53.6595 1.14451 -1.31061 0
M  V30 551 O 54.8355 1.16831 -1.6405 0
M  V30 552 C 51.9005 1.73123 -3.00382 0
M  V30 553 C 50.9615 1.19812 -4.12242 0
M  V30 554 C 50.1945 2.2966 -4.81759 0
M  V30 555 O 50.4175 3.49651 -4.50666 0
M  V30 556 O 49.3515 1.96091 -5.69062 0
M  V30 557 H 53.1775 -0.012624 -3.03697 0
M  V30 558 H 50.7625 -0.0719184 -1.49227 0
M  V30 559 H 52.6445 2.40315 -3.4616 0
M  V30 560 H 51.3195 2.30815 -2.26949 0
M  V30 561 H 50.2265 0.491798 -3.70853 0
M  V30 562 H 51.5595 0.666566 -4.87666 0
M  V30 563 N 53.2116 1.57565 -0.0334293 0
M  V30 564 C 54.1436 2.0739 0.975811 0
M  V30 565 C 55.1566 0.998166 1.2861 0
M  V30 566 O 56.3456 1.27426 1.25 0
M  V30 567 C 53.4456 2.4871 2.30209 0
M  V30 568 C 52.6186 3.79413 2.17634 0
M  V30 569 C 51.6776 4.07237 3.33233 0
M  V30 570 O 50.7036 4.77425 3.09927 0
M  V30 571 N 51.9056 3.5775 4.5716 0
M  V30 572 H 54.6706 2.94598 0.55066 0
M  V30 573 H 52.2316 1.61173 0.15323 0
M  V30 574 H 54.2236 2.64413 3.06378 0
M  V30 575 H 52.7936 1.66845 2.64351 0
M  V30 576 H 52.0136 3.73465 1.26165 0
M  V30 577 H 53.3016 4.65038 2.0644 0
M  V30 578 H 52.6996 3.00976 4.78989 0
M  V30 579 H 51.2566 3.78724 5.30482 0
M  V30 580 N 54.6897 -0.239769 1.55765 0
M  V30 581 C 55.9357 -0.968234 1.78194 0
M  V30 582 C 56.2687 -1.84701 0.599938 0
M  V30 583 O 55.5437 -1.9031 -0.401524 0
M  V30 584 C 55.8267 -1.8227 3.10564 0
M  V30 585 C 55.6797 -0.971633 4.3918 0
M  V30 586 C 56.9987 -2.80388 3.39221 0
M  V30 587 H 54.1177 -0.350572 0.648281 0
M  V30 588 H 56.7597 -0.238259 1.885 0
M  V30 589 H 54.9097 -2.44507 3.01908 0
M  V30 590 H 56.5817 -0.367408 4.59835 0
M  V30 591 H 54.8247 -0.276276 4.32919 0
M  V30 592 H 55.4957 -1.60346 5.28198 0
M  V30 593 H 57.9717 -2.28287 3.47885 0
M  V30 594 H 56.8477 -3.3729 4.33044 0
M  V30 595 H 57.1087 -3.57212 2.60484 0
M  V30 596 N 56.1678 -1.49265 -0.50573 0
M  V30 597 C 57.3928 -1.62478 -1.28902 0
M  V30 598 C 57.8178 -0.294332 -1.85783 0
M  V30 599 O 57.1758 0.737412 -1.65626 0
M  V30 600 C 57.2238 -2.69268 -2.39848 0
M  V30 601 O 56.3278 -2.28113 -3.43567 0
M  V30 602 H 55.6688 -0.54399 -0.380751 0
M  V30 603 H 58.1988 -1.95421 -0.605952 0
M  V30 604 H 58.2088 -2.91291 -2.85681 0
M  V30 605 H 56.8838 -3.65846 -1.97812 0
M  V30 606 H 55.4608 -2.16401 -3.03685 0
M  V30 607 N 57.6459 0.756429 -1.3826 0
M  V30 608 C 58.8709 1.55077 -1.37717 0
M  V30 609 C 59.2959 1.88073 0.03164 0
M  V30 610 O 58.6539 1.50364 1.01293 0
M  V30 611 C 58.7019 2.8283 -2.23695 0
M  V30 612 O 57.8059 3.77862 -1.6521 0
M  V30 613 H 57.1469 0.469152 -0.469885 0
M  V30 614 H 59.6769 0.935019 -1.81985 0
M  V30 615 H 59.6869 3.31783 -2.37453 0
M  V30 616 H 58.3619 2.58144 -3.2609 0
M  V30 617 H 56.9389 3.36555 -1.60578 0
M  V30 618 N 59.124 1.23083 0.984299 0
M  V30 619 C 60.054 1.03292 2.09411 0
M  V30 620 C 61.035 -0.048923 1.7003 0
M  V30 621 O 62.22 0.114967 1.93859 0
M  V30 622 C 59.35 0.619155 3.41736 0
M  V30 623 C 58.304 1.64791 3.95004 0
M  V30 624 C 57.63 1.0897 5.23478 0
M  V30 625 C 58.93 3.03999 4.24714 0
M  V30 626 H 60.624 1.96119 2.26225 0
M  V30 627 H 58.17 0.944344 1.08711 0
M  V30 628 H 60.123 0.467777 4.18796 0
M  V30 629 H 58.847 -0.344786 3.24775 0
M  V30 630 H 57.506 1.78721 3.20085 0
M  V30 631 H 57.154 0.11686 5.02864 0
M  V30 632 H 56.854 1.77704 5.60085 0
M  V30 633 H 58.378 0.950093 6.03163 0
M  V30 634 H 59.792 2.93393 4.92538 0
M  V30 635 H 58.189 3.69936 4.72512 0
M  V30 636 H 59.259 3.53285 3.32142 0
M  V30 637 N 60.6021 -1.18246 1.0419 0
M  V30 638 C 61.5491 -2.2192 0.634037 0
M  V30 639 C 62.5191 -1.62179 -0.358765 0
M  V30 640 O 63.7041 -1.89122 -0.252466 0
M  V30 641 C 60.8441 -3.451 0.00445535 0
M  V30 642 C 59.9571 -4.19174 1.04487 0
M  V30 643 C 59.0921 -5.29813 0.383676 0
M  V30 644 C 58.1311 -5.9566 1.4091 0
M  V30 645 N 57.2681 -6.97834 0.772784 0
M  V30 646 H 62.1081 -2.56164 1.52263 0
M  V30 647 H 59.6451 -1.25843 0.761701 0
M  V30 648 H 61.6031 -4.15485 -0.377919 0
M  V30 649 H 60.2331 -3.11472 -0.847652 0
M  V30 650 H 59.2851 -3.47604 1.54518 0
M  V30 651 H 60.5971 -4.64267 1.82368 0
M  V30 652 H 59.7511 -6.06677 -0.0528366 0
M  V30 653 H 58.4901 -4.85825 -0.427208 0
M  V30 654 H 57.4951 -5.17535 1.85574 0
M  V30 655 H 58.7201 -6.4173 2.22171 0
M  V30 656 H 56.6661 -6.55998 -0.0177708 0
M  V30 657 H 56.5831 -7.41186 1.48928 0
M  V30 658 H 57.8511 -7.78665 0.36071 0
M  V30 659 N 62.0802 -0.821533 -1.34494 0
M  V30 660 C 63.3052 -0.420873 -2.03085 0
M  V30 661 C 63.7302 0.964915 -1.61465 0
M  V30 662 O 63.0882 1.62763 -0.798607 0
M  V30 663 C 63.1362 -0.529414 -3.56693 0
M  V30 664 O 62.2402 0.451302 -4.09923 0
M  V30 665 H 61.5812 -0.173489 -0.640935 0
M  V30 666 H 64.1112 -1.11157 -1.71771 0
M  V30 667 H 64.1212 -0.404671 -4.05988 0
M  V30 668 H 62.7962 -1.54014 -3.86332 0
M  V30 669 H 61.3732 0.285558 -3.71805 0
M  V30 670 N 63.5583 1.46682 -0.576371 0
M  V30 671 C 64.5213 2.28707 0.150239 0
M  V30 672 C 65.5213 1.38035 0.824794 0
M  V30 673 O 66.7113 1.60476 0.677719 0
M  V30 674 C 63.8433 3.18248 1.22192 0
M  V30 675 H 65.0363 2.94423 -0.570521 0
M  V30 676 H 62.5893 1.52688 -0.334078 0
M  V30 677 H 63.3243 2.57265 1.97447 0
M  V30 678 H 63.1093 3.85 0.742812 0
M  V30 679 H 64.5993 3.80001 1.73172 0
M  V30 680 N 65.0364 0.313813 1.54444 0
M  V30 681 C 66.2644 -0.293918 2.04802 0
M  V30 682 C 66.6794 -1.46537 1.19047 0
M  V30 683 O 66.0364 -1.81182 0.218939 0
M  V30 684 C 66.0874 -0.737806 3.53891 0
M  V30 685 O 65.8084 0.387038 4.36387 0
M  V30 686 C 67.3094 -1.40936 4.203 0
M  V30 687 H 64.5294 -0.0620057 0.668129 0
M  V30 688 H 67.0734 0.457169 1.99324 0
M  V30 689 H 65.2284 -1.43889 3.59687 0
M  V30 690 H 65.6424 0.0391274 5.24485 0
M  V30 691 H 67.1164 -1.67099 5.26101 0
M  V30 692 H 67.5934 -2.35355 3.70816 0
M  V30 693 H 68.1994 -0.751117 4.18615 0
M  V30 694 N 66.5145 -1.57545 0.0417849 0
M  V30 695 C 67.7625 -1.91937 -0.632829 0
M  V30 696 C 68.0835 -0.919978 -1.71934 0
M  V30 697 O 67.3535 0.0366064 -1.95866 0
M  V30 698 H 65.9335 -0.708493 -0.236742 0
M  V30 699 H 68.5955 -1.9468 0.0925745 0
M  V30 700 H 67.6915 -2.92912 -1.07746 0
M  V30 701 N 67.9926 0.231505 -1.5589 0
M  V30 702 C 68.9226 1.29022 -1.94617 0
M  V30 703 C 69.9036 1.4941 -0.813067 0
M  V30 704 O 71.0886 1.6176 -1.07459 0
M  V30 705 C 68.2186 2.64199 -2.25424 0
M  V30 706 C 67.1726 2.58484 -3.41131 0
M  V30 707 C 66.4986 3.97599 -3.57518 0
M  V30 708 C 67.7986 2.1413 -4.76388 0
M  V30 709 H 69.4926 0.968563 -2.83301 0
M  V30 710 H 67.0386 0.464479 -1.36303 0
M  V30 711 H 68.9916 3.38413 -2.51107 0
M  V30 712 H 67.7156 2.98032 -1.33583 0
M  V30 713 H 66.3746 1.86727 -3.15481 0
M  V30 714 H 66.0226 4.28723 -2.6307 0
M  V30 715 H 65.7226 3.94659 -4.35337 0
M  V30 716 H 67.2466 4.7349 -3.85538 0
M  V30 717 H 68.6606 2.78083 -5.01341 0
M  V30 718 H 67.0576 2.2227 -5.57419 0
M  V30 719 H 68.1276 1.09331 -4.72414 0
M  V30 720 N 69.4707 1.49531 0.497807 0
M  V30 721 C 70.7477 1.49682 1.25915 0
M  V30 722 C 71.1277 0.226339 2.09883 0
M  V30 723 O 70.4757 -0.791189 2.14365 0
M  V30 724 C 70.6857 2.77755 2.11313 0
M  V30 725 C 72.0337 3.27371 2.70395 0
M  V30 726 O 73.0577 2.78894 2.21578 0
M  V30 727 O 71.9167 4.11808 3.59272 0
M  V30 728 H 69.0107 0.599228 0.56996 0
M  V30 729 H 71.5567 1.61798 0.511816 0
M  V30 730 H 70.3287 3.61713 1.49264 0
M  V30 731 H 69.9517 2.68515 2.93233 0
M  V30 732 N 70.9488 -0.749086 1.3866 0
M  V30 733 C 71.8588 -1.89358 1.38494 0
M  V30 734 C 72.8748 -1.71708 0.281476 0
M  V30 735 O 74.0508 -1.94554 0.520643 0
M  V30 736 C 71.1158 -3.24782 1.21316 0
M  V30 737 C 70.1768 -3.54926 2.41508 0
M  V30 738 C 69.4098 -4.83888 2.2514 0
M  V30 739 O 69.6328 -5.56592 1.24746 0
M  V30 740 O 68.5668 -5.13612 3.13826 0
M  V30 741 H 72.3928 -1.92452 2.34938 0
M  V30 742 H 69.9778 -0.894981 1.19626 0
M  V30 743 H 71.8598 -4.05739 1.13814 0
M  V30 744 H 70.5348 -3.2249 0.279592 0
M  V30 745 H 69.4418 -2.74112 2.54585 0
M  V30 746 H 70.7748 -3.61983 3.3351 0
M  V30 747 N 72.4269 -1.23603 -0.977757 0
M  V30 748 C 73.7039 -0.977897 -1.69401 0
M  V30 749 C 74.0839 0.502738 -2.05026 0
M  V30 750 O 73.4319 1.47459 -1.74551 0
M  V30 751 C 73.6419 -1.89077 -2.93345 0
M  V30 752 C 74.9899 -2.15579 -3.65802 0
M  V30 753 O 76.0139 -1.86648 -3.03383 0
M  V30 754 O 74.8729 -2.64658 -4.78141 0
M  V30 755 H 71.9669 -0.369025 -0.740101 0
M  V30 756 H 74.5129 -1.34657 -1.03274 0
M  V30 757 H 73.2849 -2.89158 -2.63634 0
M  V30 758 H 72.9079 -1.52463 -3.67207 0
M  V30 759 N 73.905 1.17692 -1.04816 0
M  V30 760 C 74.868 2.19787 -0.650117 0
M  V30 761 C 75.868 1.58044 0.296427 0
M  V30 762 O 77.058 1.74012 0.0808097 0
M  V30 763 C 74.19 3.40869 0.0456987 0
M  V30 764 H 75.383 2.56516 -1.5537 0
M  V30 765 H 72.936 1.31708 -0.841594 0
M  V30 766 H 73.671 3.09681 0.962726 0
M  V30 767 H 73.456 3.86928 -0.634727 0
M  V30 768 H 74.946 4.16445 0.310432 0
M  V30 769 N 75.3831 0.828654 1.34056 0
M  V30 770 C 76.3131 0.269443 2.3194 0
M  V30 771 C 77.2941 -0.617247 1.58506 0
M  V30 772 O 78.4791 -0.542931 1.86456 0
M  V30 773 C 75.6091 -0.564793 3.42677 0
M  V30 774 C 74.5631 0.225241 4.27407 0
M  V30 775 C 73.8891 -0.7321 5.29664 0
M  V30 776 C 75.1891 1.43663 5.02154 0
M  V30 777 H 76.8831 1.08728 2.7896 0
M  V30 778 H 74.4291 0.524283 1.34117 0
M  V30 779 H 76.3821 -0.966233 4.10173 0
M  V30 780 H 75.1061 -1.41574 2.9432 0
M  V30 781 H 73.7651 0.608117 3.61521 0
M  V30 782 H 73.4131 -1.57916 4.77568 0
M  V30 783 H 73.1131 -0.20767 5.87233 0
M  V30 784 H 74.6371 -1.13128 6.00029 0
M  V30 785 H 76.0511 1.1089 5.62473 0
M  V30 786 H 74.4481 1.89711 5.69324 0
M  V30 787 H 75.5181 2.21181 4.31517 0
M  V30 788 N 76.8612 -1.46375 0.584142 0
M  V30 789 C 77.8242 -2.28784 -0.138108 0
M  V30 790 C 78.8242 -1.38471 -0.817462 0
M  V30 791 O 80.0142 -1.60833 -0.669199 0
M  V30 792 C 77.1462 -3.18892 -1.20503 0
M  V30 793 H 78.3392 -2.94117 0.586127 0
M  V30 794 H 75.8922 -1.52509 0.342171 0
M  V30 795 H 76.6272 -2.58309 -1.96079 0
M  V30 796 H 76.4122 -3.85388 -0.722384 0
M  V30 797 H 77.9022 -3.80914 -1.71155 0
M  V30 798 N 78.3393 -0.321999 -1.54275 0
M  V30 799 C 79.5863 0.281044 -2.0054 0
M  V30 800 C 79.9143 1.52265 -1.21019 0
M  V30 801 O 79.1693 1.93687 -0.279982 0
M  V30 802 C 79.4683 0.661769 -3.5122 0
M  V30 803 C 79.1343 -0.480482 -4.48333 0
M  V30 804 C 77.7963 -0.794005 -4.74604 0
M  V30 805 C 80.1483 -1.24783 -5.06042 0
M  V30 806 C 77.4763 -1.87763 -5.55844 0
M  V30 807 C 79.8283 -2.32153 -5.88462 0
M  V30 808 C 78.4923 -2.64089 -6.13036 0
M  V30 809 H 77.7623 0.102841 -0.733829 0
M  V30 810 H 80.4093 -0.445453 -1.86247 0
M  V30 811 H 78.7143 1.46867 -3.63232 0
M  V30 812 H 80.4113 1.13989 -3.84457 0
M  V30 813 H 77.0013 -0.226039 -4.28004 0
M  V30 814 H 81.1853 -1.01887 -4.85729 0
M  V30 815 H 76.4413 -2.12954 -5.73115 0
M  V30 816 H 80.6153 -2.92057 -6.32199 0
M  V30 817 H 78.2423 -3.48185 -6.75775 0
M  V30 818 N 79.8174 1.5752 -0.0501392 0
M  V30 819 C 80.7804 2.1037 0.909786 0
M  V30 820 C 81.7804 1.02308 1.24056 0
M  V30 821 O 82.9704 1.28385 1.17741 0
M  V30 822 C 80.1024 2.58708 2.21998 0
M  V30 823 H 81.2954 2.96479 0.451665 0
M  V30 824 H 78.8484 1.55038 0.198248 0
M  V30 825 H 79.5834 1.75989 2.72394 0
M  V30 826 H 79.3684 3.37675 1.99295 0
M  V30 827 H 80.8584 2.99747 2.9076 0
M  V30 828 N 81.2955 -0.223234 1.56011 0
M  V30 829 C 82.2255 -1.27988 1.95298 0
M  V30 830 C 83.2065 -1.48976 0.820979 0
M  V30 831 O 84.3915 -1.61188 1.08315 0
M  V30 832 C 81.5215 -2.63 2.26822 0
M  V30 833 C 80.4755 -2.56671 3.42497 0
M  V30 834 C 79.8015 -3.95697 3.59622 0
M  V30 835 C 81.1015 -2.11601 4.77517 0
M  V30 836 H 82.7955 -0.953525 2.8381 0
M  V30 837 H 80.3415 -0.457244 1.36548 0
M  V30 838 H 82.2945 -3.37077 2.52898 0
M  V30 839 H 81.0185 -2.9732 1.35161 0
M  V30 840 H 79.6775 -1.85051 3.16467 0
M  V30 841 H 79.3255 -4.27322 2.6534 0
M  V30 842 H 79.0255 -3.92345 4.37424 0
M  V30 843 H 80.5495 -4.71438 3.88044 0
M  V30 844 H 81.9635 -2.7542 5.02809 0
M  V30 845 H 80.3605 -2.19311 5.5859 0
M  V30 846 H 81.4305 -1.06824 4.72987 0
M  V30 847 N 82.7736 -1.49793 -0.48987 0
M  V30 848 C 83.7036 -1.70201 -1.59856 0
M  V30 849 C 84.6846 -0.55076 -1.60937 0
M  V30 850 O 85.8696 -0.787841 -1.77501 0
M  V30 851 C 82.9996 -1.77882 -2.98287 0
M  V30 852 C 81.9536 -2.92907 -3.12073 0
M  V30 853 C 81.2796 -2.85712 -4.51965 0
M  V30 854 C 82.5796 -4.3369 -2.91051 0
M  V30 855 H 84.2736 -2.63025 -1.43032 0
M  V30 856 H 81.8196 -1.26574 -0.686664 0
M  V30 857 H 83.7726 -1.90744 -3.75759 0
M  V30 858 H 82.4966 -0.816653 -3.16225 0
M  V30 859 H 81.1556 -2.79665 -2.37029 0
M  V30 860 H 80.8036 -1.8738 -4.66795 0
M  V30 861 H 80.5036 -3.62921 -4.62128 0
M  V30 862 H 82.0276 -3.00598 -5.31482 0
M  V30 863 H 83.4416 -4.47555 -3.58284 0
M  V30 864 H 81.8386 -5.12205 -3.12675 0
M  V30 865 H 82.9086 -4.47362 -1.87071 0
M  V30 866 N 84.2517 0.741722 -1.39055 0
M  V30 867 C 85.6627 1.31966 -1.32068 0
M  V30 868 C 86.0137 1.96192 0.0180797 0
M  V30 869 O 85.1387 1.95861 0.920196 0
M  V30 870 C 85.7337 2.39954 -2.39181 0
M  V30 871 C 84.2927 2.93438 -2.35735 0
M  V30 872 C 83.4397 1.66936 -2.21422 0
M  V30 873 H 86.3907 0.539721 -1.4924 0
M  V30 874 H 86.4117 3.20182 -2.05581 0
M  V30 875 H 85.9237 1.9318 -3.36605 0
M  V30 876 H 84.0247 3.4451 -1.41929 0
M  V30 877 H 84.1377 3.4701 -3.30335 0
M  V30 878 H 82.5017 1.91016 -1.68478 0
M  V30 879 H 83.2847 1.22224 -3.20806 0
M  V30 880 N 85.7298 1.2412 0.971189 0
M  V30 881 C 86.6598 1.05508 2.08304 0
M  V30 882 C 87.6408 -0.0308864 1.70072 0
M  V30 883 O 88.8258 0.135521 1.93727 0
M  V30 884 C 85.9558 0.655365 3.4106 0
M  V30 885 C 84.9098 1.68971 3.93234 0
M  V30 886 C 84.2358 1.14516 5.22293 0
M  V30 887 C 85.5358 3.08487 4.21465 0
M  V30 888 H 87.2298 1.98507 2.24132 0
M  V30 889 H 84.7758 0.955821 1.07704 0
M  V30 890 H 86.7288 0.51217 4.18276 0
M  V30 891 H 85.4528 -0.31032 3.25122 0
M  V30 892 H 84.1118 1.82106 3.18171 0
M  V30 893 H 83.7598 0.170189 5.02712 0
M  V30 894 H 83.4598 1.83635 5.58168 0
M  V30 895 H 84.9838 1.01401 6.02121 0
M  V30 896 H 86.3978 2.98601 4.89398 0
M  V30 897 H 84.7948 3.74926 4.68562 0
M  V30 898 H 85.8648 3.56787 3.28376 0
M  V30 899 N 87.2079 -1.17134 1.05439 0
M  V30 900 C 88.1709 -2.19439 0.661764 0
M  V30 901 C 89.1709 -1.58199 -0.288042 0
M  V30 902 O 90.3609 -1.74053 -0.0715803 0
M  V30 903 C 87.4929 -3.40889 -0.0276209 0
M  V30 904 H 88.6859 -2.55688 1.56728 0
M  V30 905 H 86.2389 -1.31259 0.848567 0
M  V30 906 H 86.9739 -3.10187 -0.94629 0
M  V30 907 H 86.7589 -3.86586 0.655238 0
M  V30 908 H 88.2489 -4.16603 -0.288342 0
M  V30 909 N 88.686 -0.835752 -1.33615 0
M  V30 910 C 89.649 -0.272 -2.2758 0
M  V30 911 C 90.649 0.557487 -1.50827 0
M  V30 912 O 91.839 0.37173 -1.70188 0
M  V30 913 C 88.971 0.617173 -3.35267 0
M  V30 914 H 90.164 -1.10111 -2.78954 0
M  V30 915 H 87.717 -0.608594 -1.43965 0
M  V30 916 H 88.452 1.46884 -2.89129 0
M  V30 917 H 88.237 0.0237066 -3.92093 0
M  V30 918 H 89.727 1.005 -4.05326 0
M  V30 919 N 90.1641 1.46063 -0.591896 0
M  V30 920 C 91.1271 2.28854 0.125973 0
M  V30 921 C 92.1271 1.38903 0.810107 0
M  V30 922 O 93.3171 1.61186 0.66066 0
M  V30 923 C 90.4491 3.19526 1.1881 0
M  V30 924 H 91.6421 2.93802 -0.601717 0
M  V30 925 H 89.1951 1.52325 -0.350254 0
M  V30 926 H 89.9301 2.59345 1.94707 0
M  V30 927 H 89.7151 3.85766 0.701936 0
M  V30 928 H 91.2051 3.81817 1.69132 0
M  V30 929 N 91.6422 0.330177 1.54103 0
M  V30 930 C 92.8822 -0.270916 2.02597 0
M  V30 931 C 93.2462 -1.48826 1.21304 0
M  V30 932 O 94.4472 -2.16266 1.59633 0
M  V30 933 C 92.7182 -0.590328 3.52491 0
M  V30 934 S 94.2772 -1.17014 4.2291 0
M  V30 935 H 91.0952 -0.0815379 0.706309 0
M  V30 936 H 93.6972 0.464835 1.89893 0
M  V30 937 H 92.4012 0.303691 4.09275 0
M  V30 938 H 91.9322 -1.3561 3.69288 0
M  V30 939 H 93.9472 -2.45662 4.3112 0
M  V30 940 N 93.1203 -1.57491 0.0584922 0
M  V30 941 C 94.0833 -2.1085 -0.898617 0
M  V30 942 C 95.0833 -1.02964 -1.23511 0
M  V30 943 O 96.2733 -1.29007 -1.17059 0
M  V30 944 C 93.4053 -2.59881 -2.20623 0
M  V30 945 H 94.5983 -2.96715 -0.435936 0
M  V30 946 H 92.1513 -1.55141 -0.190023 0
M  V30 947 H 92.8863 -1.77431 -2.71457 0
M  V30 948 H 92.6713 -3.38727 -1.97501 0
M  V30 949 H 94.1613 -3.01285 -2.89166 0
M  V30 950 N 94.5984 0.214957 -1.56127 0
M  V30 951 C 96.0144 0.564948 -1.49267 0
M  V30 952 C 96.2144 1.86827 -0.754838 0
M  V30 953 O 95.2704 2.50745 -0.297198 0
M  V30 954 C 96.5834 0.638071 -2.93852 0
M  V30 955 C 98.1314 0.728253 -3.0441 0
M  V30 956 C 98.6064 0.832663 -4.50367 0
M  V30 957 N 100.097 0.896712 -4.54437 0
M  V30 958 C 100.832 0.997324 -5.6466 0
M  V30 959 N 100.328 1.06147 -6.8462 0
M  V30 960 N 102.121 1.03297 -5.52527 0
M  V30 961 H 94.2724 -0.640211 -2.02522 0
M  V30 962 H 96.5354 -0.225507 -0.920788 0
M  V30 963 H 96.2414 -0.250126 -3.50809 0
M  V30 964 H 96.1154 1.49947 -3.46115 0
M  V30 965 H 98.5024 1.60689 -2.47514 0
M  V30 966 H 98.5834 -0.158952 -2.55306 0
M  V30 967 H 98.2274 -0.0415417 -5.07883 0
M  V30 968 H 98.1574 1.73538 -4.97184 0
M  V30 969 H 100.648 0.857188 -3.6805 0
M  V30 970 H 100.961 1.1382 -7.64372 0
M  V30 971 H 99.3064 1.03049 -6.87318 0
M  V30 972 H 102.497 0.979558 -4.57736 0
M  V30 973 H 102.67 1.10793 -6.38458 0
M  V30 974 N 96.0765 1.50051 0.48192 0
M  V30 975 C 97.3045 1.64237 1.25832 0
M  V30 976 C 97.7195 0.321336 1.86045 0
M  V30 977 O 97.0765 -0.695478 1.68729 0
M  V30 978 C 97.1275 2.72548 2.37487 0
M  V30 979 O 96.8485 3.99529 1.79745 0
M  V30 980 C 98.3495 2.9761 3.28547 0
M  V30 981 H 95.5695 0.55237 0.380957 0
M  V30 982 H 98.1135 1.96207 0.576467 0
M  V30 983 H 96.2685 2.43303 3.01467 0
M  V30 984 H 96.6825 4.59342 2.5319 0
M  V30 985 H 98.1565 3.77084 4.03127 0
M  V30 986 H 98.6335 2.0826 3.86684 0
M  V30 987 H 99.2395 3.28345 2.70314 0
M  V30 988 N 97.5546 -0.734337 1.39446 0
M  V30 989 C 98.9656 -1.31264 1.32766 0
M  V30 990 C 99.3166 -1.96198 -0.00767497 0
M  V30 991 O 98.4416 -1.96346 -0.909796 0
M  V30 992 C 99.0366 -2.38682 2.4045 0
M  V30 993 C 97.5956 -2.92184 2.37288 0
M  V30 994 C 96.7426 -1.6576 2.22304 0
M  V30 995 H 99.6936 -0.531799 1.49525 0
M  V30 996 H 99.7146 -3.19087 2.07276 0
M  V30 997 H 99.2266 -1.91392 3.37625 0
M  V30 998 H 97.3276 -3.43752 1.43754 0
M  V30 999 H 97.4406 -3.45253 3.3217 0
M  V30 1000 H 95.8046 -1.9012 1.69489 0
M  V30 1001 H 96.5876 -1.20521 3.21449 0
M  V30 1002 N 99.0327 -1.24633 -0.964593 0
M  V30 1003 C 99.9627 -1.06611 -2.07741 0
M  V30 1004 C 100.944 0.0218666 -1.70086 0
M  V30 1005 O 102.129 -0.145793 -1.93652 0
M  V30 1006 C 99.2587 -0.673444 -3.40708 0
M  V30 1007 C 98.2127 -1.71054 -3.92332 0
M  V30 1008 C 97.5387 -1.17285 -5.21678 0
M  V30 1009 C 98.8387 -3.10718 -4.19824 0
M  V30 1010 H 100.533 -1.99693 -2.23076 0
M  V30 1011 H 98.0787 -0.96152 -1.07195 0
M  V30 1012 H 100.032 -0.534345 -4.17998 0
M  V30 1013 H 98.7557 0.293073 -3.25282 0
M  V30 1014 H 97.4147 -1.83791 -3.17201 0
M  V30 1015 H 97.0627 -0.196847 -5.02615 0
M  V30 1016 H 96.7627 -1.86592 -5.57187 0
M  V30 1017 H 98.2867 -1.04593 -6.01575 0
M  V30 1018 H 99.7007 -3.01192 -4.87808 0
M  V30 1019 H 98.0977 -3.77406 -4.66567 0
M  V30 1020 H 99.1677 -3.58524 -3.26479 0
M  V30 1021 N 100.511 1.16574 -1.06058 0
M  V30 1022 C 101.736 1.91493 -0.796562 0
M  V30 1023 C 102.161 1.76773 0.642868 0
M  V30 1024 O 101.519 1.09142 1.44768 0
M  V30 1025 C 101.567 3.40293 -1.19303 0
M  V30 1026 O 100.671 4.11074 -0.330394 0
M  V30 1027 H 100.012 0.596678 -0.291326 0
M  V30 1028 H 102.542 1.47708 -1.41575 0
M  V30 1029 H 102.552 3.91057 -1.16356 0
M  V30 1030 H 101.227 3.50326 -2.24153 0
M  V30 1031 H 99.8038 3.70513 -0.421225 0
M  V30 1032 N 101.989 0.842826 1.3317 0
M  V30 1033 C 102.937 0.267495 2.31057 0
M  V30 1034 C 103.931 -0.602682 1.58316 0
M  V30 1035 O 105.137 -0.491803 1.73151 0
M  V30 1036 H 101.512 0.0677813 0.748939 0
M  V30 1037 H 103.483 1.10754 2.77085 0
M  V30 1038 C 102.232 -0.539331 3.43492 0
M  V30 1039 H 101.555 0.12095 3.99617 0
M  V30 1040 H 102.995 -0.90767 4.14171 0
M  V30 1041 C 101.454 -1.71981 2.89697 0
M  V30 1042 O 101.984 -2.81862 2.86211 0
M  V30 1043 N 100.19 -1.54299 2.46252 0
M  V30 1044 H 99.7369 -0.649143 2.49287 0
M  V30 1045 H 99.6949 -2.33431 2.10612 0
M  V30 1046 N 103.467 -1.45747 0.599634 0
M  V30 1047 C 104.714 -2.02292 0.0917284 0
M  V30 1048 C 105.042 -1.46906 -1.27472 0
M  V30 1049 O 104.297 -0.630652 -1.8526 0
M  V30 1050 C 104.596 -3.57399 -0.00602758 0
M  V30 1051 C 104.262 -4.31902 1.29503 0
M  V30 1052 C 102.924 -4.51974 1.65144 0
M  V30 1053 C 105.276 -4.74551 2.15525 0
M  V30 1054 C 102.604 -5.11949 2.86574 0
M  V30 1055 C 104.956 -5.35868 3.36196 0
M  V30 1056 C 103.62 -5.54165 3.72099 0
M  V30 1057 H 102.89 -0.740239 0.0335658 0
M  V30 1058 H 105.537 -1.7491 0.779661 0
M  V30 1059 H 103.842 -3.84014 -0.777183 0
M  V30 1060 H 105.539 -3.98846 -0.415038 0
M  V30 1061 H 102.129 -4.16588 1.00761 0
M  V30 1062 H 106.313 -4.58784 1.8929 0
M  V30 1063 H 101.569 -5.24305 3.14507 0
M  V30 1064 H 105.743 -5.6787 4.03109 0
M  V30 1065 H 103.37 -6.00406 4.6628 0
M  V30 1066 N 104.945 -0.338344 -1.53925 0
M  V30 1067 C 105.893 0.536231 -2.26335 0
M  V30 1068 C 106.887 1.1063 -1.28286 0
M  V30 1069 O 108.093 1.05264 -1.46012 0
M  V30 1070 H 104.468 0.191602 -0.727181 0
M  V30 1071 H 106.439 -0.0965747 -2.98244 0
M  V30 1072 C 105.188 1.67803 -3.04528 0
M  V30 1073 H 104.511 1.24864 -3.79801 0
M  V30 1074 H 105.951 2.26526 -3.58416 0
M  V30 1075 C 104.41 2.60439 -2.13712 0
M  V30 1076 O 104.94 3.6255 -1.72975 0
M  V30 1077 N 103.146 2.29006 -1.78898 0
M  V30 1078 H 102.693 1.46011 -2.12223 0
M  V30 1079 H 102.651 2.91248 -1.18416 0
M  V30 1080 N 106.423 1.57458 -0.0668435 0
M  V30 1081 C 107.669 1.93587 0.6043 0
M  V30 1082 C 108.002 0.946722 1.69561 0
M  V30 1083 O 107.277 -0.0248516 1.94484 0
M  V30 1084 C 107.56 3.40014 1.18585 0
M  V30 1085 C 107.413 4.49685 0.101529 0
M  V30 1086 C 108.732 3.87154 2.09284 0
M  V30 1087 H 105.851 0.703958 0.218202 0
M  V30 1088 H 108.493 1.89542 -0.131804 0
M  V30 1089 H 106.643 3.43592 1.81319 0
M  V30 1090 H 108.315 4.5823 -0.531279 0
M  V30 1091 H 106.558 4.30059 -0.568487 0
M  V30 1092 H 107.229 5.49266 0.54874 0
M  V30 1093 H 109.705 3.85551 1.56491 0
M  V30 1094 H 108.581 4.90231 2.46911 0
M  V30 1095 H 108.842 3.2481 2.99918 0
M  V30 1096 N 107.901 -0.206675 1.56239 0
M  V30 1097 C 109.149 -0.927007 1.79586 0
M  V30 1098 C 109.47 -1.8427 0.637929 0
M  V30 1099 O 108.74 -1.92849 -0.344398 0
M  V30 1100 H 107.32 -0.345292 0.662407 0
M  V30 1101 H 109.982 -0.21496 1.93711 0
M  V30 1102 H 109.078 -1.52501 2.72305 0
M  V30 1103 N 109.379 -1.50304 -0.473955 0
M  V30 1104 C 110.342 -1.6841 -1.55469 0
M  V30 1105 C 111.342 -0.554905 -1.50922 0
M  V30 1106 O 112.532 -0.821882 -1.53593 0
M  V30 1107 C 109.664 -1.70667 -2.95102 0
M  V30 1108 H 110.857 -2.64828 -1.40733 0
M  V30 1109 H 108.41 -1.39742 -0.700132 0
M  V30 1110 H 109.145 -0.75932 -3.15285 0
M  V30 1111 H 108.93 -2.52698 -2.9981 0
M  V30 1112 H 110.42 -1.8664 -3.73571 0
M  V30 1113 N 110.857 0.726932 -1.39834 0
M  V30 1114 C 112.106 1.48214 -1.36805 0
M  V30 1115 C 112.419 1.95576 0.0305291 0
M  V30 1116 O 113.625 2.7088 0.183417 0
M  V30 1117 C 112.081 2.67854 -2.40379 0
M  V30 1118 C 111.689 2.27408 -3.85992 0
M  V30 1119 C 113.433 3.45641 -2.46439 0
M  V30 1120 C 111.34 3.43819 -4.81189 0
M  V30 1121 H 110.27 0.556606 -0.508631 0
M  V30 1122 H 112.921 0.792216 -1.65518 0
M  V30 1123 H 111.303 3.3896 -2.04749 0
M  V30 1124 H 112.477 1.63795 -4.30706 0
M  V30 1125 H 110.792 1.62692 -3.83302 0
M  V30 1126 H 113.389 4.32244 -3.14753 0
M  V30 1127 H 113.732 3.88669 -1.49139 0
M  V30 1128 H 114.265 2.8157 -2.81004 0
M  V30 1129 H 111.004 3.05834 -5.79781 0
M  V30 1130 H 110.524 4.06385 -4.41148 0
M  V30 1131 H 112.203 4.10043 -5.00474 0
M  V30 1132 N 112.336 1.25143 0.95797 0
M  V30 1133 C 113.299 1.05321 2.03569 0
M  V30 1134 C 114.299 0.007152 1.60798 0
M  V30 1135 O 115.489 0.24903 1.72411 0
M  V30 1136 C 112.621 0.598394 3.35607 0
M  V30 1137 H 113.814 2.00986 2.22586 0
M  V30 1138 H 111.367 1.07502 1.13459 0
M  V30 1139 H 112.102 -0.361014 3.22284 0
M  V30 1140 H 111.887 1.35351 3.67998 0
M  V30 1141 H 113.377 0.48104 4.1482 0
M  V30 1142 N 113.814 -1.1601 1.06675 0
M  V30 1143 C 115.23 -1.38622 0.790948 0
M  V30 1144 C 115.43 -1.92109 -0.607965 0
M  V30 1145 O 114.486 -2.12239 -1.36787 0
M  V30 1146 C 115.799 -2.36347 1.85905 0
M  V30 1147 C 117.347 -2.50023 1.88301 0
M  V30 1148 C 117.822 -3.51033 2.94176 0
M  V30 1149 N 119.313 -3.58563 2.93235 0
M  V30 1150 C 120.048 -4.36521 3.71803 0
M  V30 1151 N 119.544 -5.17869 4.602 0
M  V30 1152 N 121.337 -4.31541 3.60178 0
M  V30 1153 H 113.488 -0.796294 1.96908 0
M  V30 1154 H 115.751 -0.412597 0.853503 0
M  V30 1155 H 115.457 -2.04147 2.86386 0
M  V30 1156 H 115.331 -3.36042 1.71334 0
M  V30 1157 H 117.718 -2.81524 0.884769 0
M  V30 1158 H 117.799 -1.5035 2.06951 0
M  V30 1159 H 117.443 -3.20268 3.94196 0
M  V30 1160 H 117.373 -4.50445 2.72776 0
M  V30 1161 H 119.864 -3.00496 2.29152 0
M  V30 1162 H 120.177 -5.74578 5.16797 0
M  V30 1163 H 118.522 -5.17199 4.64253 0
M  V30 1164 H 121.713 -3.67051 2.90502 0
M  V30 1165 H 121.886 -4.9205 4.21653 0
M  V30 1166 N 115.292 -0.849877 -1.32721 0
M  V30 1167 C 116.54 -0.450032 -1.97026 0
M  V30 1168 C 116.861 0.996604 -1.67609 0
M  V30 1169 O 116.131 1.6958 -0.980786 0
M  V30 1170 H 114.711 -0.163426 -0.728904 0
M  V30 1171 H 117.373 -1.08526 -1.6189 0
M  V30 1172 H 116.469 -0.591146 -3.0645 0
M  V30 1173 N 116.77 1.45427 -0.607355 0
M  V30 1174 C 118.016 2.0254 -0.102607 0
M  V30 1175 C 118.349 1.47478 1.26348 0
M  V30 1176 O 117.624 0.64939 1.83339 0
M  V30 1177 C 117.907 3.60044 -0.0634347 0
M  V30 1178 C 117.76 4.2544 -1.46017 0
M  V30 1179 C 119.079 4.35646 0.624514 0
M  V30 1180 H 116.198 0.73598 -0.0387607 0
M  V30 1181 H 118.84 1.73284 -0.779282 0
M  V30 1182 H 116.99 3.85101 0.512808 0
M  V30 1183 H 118.662 4.11569 -2.08347 0
M  V30 1184 H 116.905 3.83849 -2.02094 0
M  V30 1185 H 117.576 5.34342 -1.385 0
M  V30 1186 H 120.052 4.15882 0.134723 0
M  V30 1187 H 118.928 5.45376 0.621028 0
M  V30 1188 H 119.189 4.08501 1.69055 0
M  V30 1189 N 118.248 0.346503 1.53744 0
M  V30 1190 C 119.473 -0.253074 2.0585 0
M  V30 1191 C 119.898 -1.43202 1.21962 0
M  V30 1192 O 119.256 -1.79783 0.234073 0
M  V30 1193 C 119.304 -0.643193 3.54817 0
M  V30 1194 O 118.408 -1.74286 3.73762 0
M  V30 1195 H 117.749 -0.0413583 0.662711 0
M  V30 1196 H 120.279 0.501574 1.98357 0
M  V30 1197 H 120.289 -0.919526 3.97503 0
M  V30 1198 H 118.964 0.218966 4.15323 0
M  V30 1199 H 117.541 -1.46356 3.42979 0
M  V30 1200 N 119.726 -1.57421 0.075193 0
M  V30 1201 C 120.974 -1.93236 -0.591974 0
M  V30 1202 C 121.295 -0.956241 -1.69944 0
M  V30 1203 O 120.565 -0.00494792 -1.95899 0
M  V30 1204 H 119.145 -0.713355 -0.22166 0
M  V30 1205 H 121.807 -1.9444 0.133848 0
M  V30 1206 H 120.903 -2.95131 -1.01509 0
M  V30 1207 N 121.204 0.198386 -1.56346 0
M  V30 1208 C 122.432 0.935572 -1.84539 0
M  V30 1209 C 122.847 1.76989 -0.657281 0
M  V30 1210 O 122.204 1.78626 0.374043 0
M  V30 1211 C 122.255 1.8344 -3.11499 0
M  V30 1212 O 121.976 1.03377 -4.25728 0
M  V30 1213 C 123.477 2.68355 -3.52846 0
M  V30 1214 H 120.697 0.273126 -0.612897 0
M  V30 1215 H 123.241 0.20663 -2.03453 0
M  V30 1216 H 121.396 2.51701 -2.94492 0
M  V30 1217 H 121.81 1.64599 -4.98003 0
M  V30 1218 H 123.284 3.27085 -4.44657 0
M  V30 1219 H 123.761 3.41901 -2.75681 0
M  V30 1220 H 124.367 2.05471 -3.72373 0
M  V30 1221 N 122.682 1.50554 0.465978 0
M  V30 1222 C 123.928 1.63006 1.21658 0
M  V30 1223 C 124.283 0.328613 1.89573 0
M  V30 1224 O 123.576 -0.673813 1.79361 0
M  V30 1225 C 123.77 2.75152 2.28093 0
M  V30 1226 C 123.599 4.16075 1.7062 0
M  V30 1227 C 122.369 4.82408 1.50368 0
M  V30 1228 C 124.567 5.00145 1.1983 0
M  V30 1229 N 122.549 6.07532 0.881924 0
M  V30 1230 C 123.92 6.16035 0.700083 0
M  V30 1231 C 125.975 4.85882 1.08733 0
M  V30 1232 C 124.678 7.19228 0.101835 0
M  V30 1233 C 126.704 5.89257 0.503016 0
M  V30 1234 C 126.066 7.04398 0.0152005 0
M  V30 1235 H 122.165 0.650596 0.433877 0
M  V30 1236 H 124.749 1.8769 0.517746 0
M  V30 1237 H 122.92 2.52181 2.95397 0
M  V30 1238 H 124.652 2.76935 2.95109 0
M  V30 1239 H 121.407 4.39788 1.75737 0
M  V30 1240 H 121.831 6.7443 0.589312 0
M  V30 1241 H 126.473 3.97144 1.4504 0
M  V30 1242 H 124.191 8.07637 -0.273426 0
M  V30 1243 H 127.777 5.80286 0.419451 0
M  V30 1244 H 126.657 7.83021 -0.429856 0
M  V30 1245 N 124.16 -0.719506 1.40217 0
M  V30 1246 C 125.39 -1.50646 1.41384 0
M  V30 1247 C 125.798 -1.89197 0.0107743 0
M  V30 1248 O 125.141 -1.55709 -0.974708 0
M  V30 1249 C 125.203 -2.81405 2.23722 0
M  V30 1250 C 124.867 -2.65199 3.72181 0
M  V30 1251 C 125.864 -2.32717 4.64907 0
M  V30 1252 C 123.549 -2.81586 4.1595 0
M  V30 1253 C 125.543 -2.16827 5.99387 0
M  V30 1254 C 123.23 -2.65313 5.50502 0
M  V30 1255 C 124.228 -2.32981 6.42035 0
M  V30 1256 O 123.916 -2.16827 7.74107 0
M  V30 1257 H 123.648 -0.471606 0.484318 0
M  V30 1258 H 126.202 -0.895456 1.84853 0
M  V30 1259 H 124.432 -3.44823 1.75026 0
M  V30 1260 H 126.121 -3.43102 2.16878 0
M  V30 1261 H 126.887 -2.19694 4.32388 0
M  V30 1262 H 122.766 -3.0574 3.45027 0
M  V30 1263 H 126.31 -1.91513 6.70797 0
M  V30 1264 H 122.207 -2.7792 5.82607 0
M  V30 1265 H 122.975 -2.31778 7.84998 0
M  V30 1266 N 125.638 -1.25649 -0.95132 0
M  V30 1267 C 126.885 -1.10594 -1.69633 0
M  V30 1268 C 127.213 0.352515 -1.91279 0
M  V30 1269 O 126.468 1.27601 -1.4838 0
M  V30 1270 C 126.767 -1.80909 -3.08231 0
M  V30 1271 C 126.433 -3.30825 -3.06375 0
M  V30 1272 C 125.095 -3.71722 -3.05576 0
M  V30 1273 C 127.447 -4.26589 -2.99452 0
M  V30 1274 C 124.775 -5.06788 -2.95606 0
M  V30 1275 C 127.127 -5.61683 -2.91024 0
M  V30 1276 C 125.791 -6.01904 -2.88562 0
M  V30 1277 H 125.061 -0.404691 -0.620731 0
M  V30 1278 H 127.708 -1.55964 -1.11119 0
M  V30 1279 H 126.013 -1.27979 -3.70309 0
M  V30 1280 H 127.71 -1.6671 -3.64704 0
M  V30 1281 H 124.3 -2.98287 -3.07771 0
M  V30 1282 H 128.484 -3.95982 -2.99185 0
M  V30 1283 H 123.74 -5.37126 -2.92071 0
M  V30 1284 H 127.914 -6.35578 -2.84629 0
M  V30 1285 H 125.541 -7.06521 -2.80593 0
M  V30 1286 N 127.117 1.15442 -1.07289 0
M  V30 1287 C 128.365 1.85845 -0.794096 0
M  V30 1288 C 128.686 1.82692 0.681809 0
M  V30 1289 O 127.956 1.26741 1.49377 0
M  V30 1290 H 126.536 0.688089 -0.290763 0
M  V30 1291 H 129.198 1.39947 -1.3565 0
M  V30 1292 H 128.294 2.91001 -1.12804 0
M  V30 1293 N 128.595 0.856903 1.32268 0
M  V30 1294 C 129.558 0.308171 2.27119 0
M  V30 1295 C 130.558 -0.533421 1.51695 0
M  V30 1296 O 131.748 -0.344607 1.70757 0
M  V30 1297 C 128.88 -0.563757 3.36206 0
M  V30 1298 H 130.073 1.14535 2.77167 0
M  V30 1299 H 127.626 0.631421 1.42978 0
M  V30 1300 H 128.361 -1.42266 2.91429 0
M  V30 1301 H 128.146 0.0386749 3.92081 0
M  V30 1302 H 129.636 -0.940386 4.06874 0
M  V30 1303 N 130.073 -1.45103 0.615059 0
M  V30 1304 C 131.021 -2.32331 -0.111791 0
M  V30 1305 C 132.015 -1.46409 -0.852102 0
M  V30 1306 O 133.221 -1.62849 -0.766821 0
M  V30 1307 H 129.596 -0.749993 -0.0549072 0
M  V30 1308 H 131.567 -2.91407 0.642225 0
M  V30 1309 C 130.316 -3.3015 -1.09071 0
M  V30 1310 H 129.639 -3.96265 -0.530485 0
M  V30 1311 H 131.079 -3.93898 -1.56908 0
M  V30 1312 C 129.538 -2.57875 -2.168 0
M  V30 1313 O 130.068 -2.36567 -3.24652 0
M  V30 1314 N 128.274 -2.17884 -1.92289 0
M  V30 1315 H 127.821 -2.35413 -1.04587 0
M  V30 1316 H 127.779 -1.6985 -2.64572 0
M  V30 1317 N 131.551 -0.354651 -1.53558 0
M  V30 1318 C 132.484 0.540273 -2.21712 0
M  V30 1319 C 133.462 1.09161 -1.2051 0
M  V30 1320 O 134.646 1.14979 -1.49372 0
M  V30 1321 C 131.773 1.74435 -2.90328 0
M  V30 1322 C 130.819 1.32146 -4.05512 0
M  V30 1323 S 131.652 0.331924 -5.3447 0
M  V30 1324 C 132.808 1.54258 -6.06593 0
M  V30 1325 H 133.041 -0.0385776 -2.97275 0
M  V30 1326 H 130.574 -0.138736 -1.53775 0
M  V30 1327 H 132.532 2.43507 -3.30476 0
M  V30 1328 H 131.193 2.29444 -2.1451 0
M  V30 1329 H 130.386 2.21952 -4.52497 0
M  V30 1330 H 129.988 0.710091 -3.67197 0
M  V30 1331 H 132.28 2.47534 -6.30661 0
M  V30 1332 H 133.223 1.11431 -6.99277 0
M  V30 1333 H 133.631 1.74367 -5.36895 0
M  V30 1334 N 133.029 1.57378 -0.0835403 0
M  V30 1335 C 133.939 2.16897 0.894021 0
M  V30 1336 C 134.955 1.13528 1.31861 0
M  V30 1337 O 136.131 1.45848 1.3889 0
M  V30 1338 C 133.196 2.72831 2.13925 0
M  V30 1339 C 132.257 3.91115 1.76997 0
M  V30 1340 C 131.49 4.44371 2.95584 0
M  V30 1341 O 131.713 3.96596 4.09961 0
M  V30 1342 O 130.647 5.35549 2.74719 0
M  V30 1343 H 134.473 3.00814 0.417679 0
M  V30 1344 H 132.058 1.48741 0.140181 0
M  V30 1345 H 133.94 3.0863 2.86924 0
M  V30 1346 H 132.615 1.91967 2.60635 0
M  V30 1347 H 131.522 3.60148 1.01214 0
M  V30 1348 H 132.855 4.73307 1.3506 0
M  V30 1349 N 134.507 -0.190092 1.56449 0
M  V30 1350 C 135.754 -0.909705 1.80916 0
M  V30 1351 C 136.082 -1.83047 0.657583 0
M  V30 1352 O 135.337 -1.92428 -0.356356 0
M  V30 1353 C 135.636 -1.75382 3.1141 0
M  V30 1354 C 135.302 -0.983606 4.40041 0
M  V30 1355 C 133.964 -0.770967 4.74984 0
M  V30 1356 C 136.316 -0.442024 5.19322 0
M  V30 1357 C 133.644 -0.0053448 5.867 0
M  V30 1358 C 135.996 0.310412 6.31838 0
M  V30 1359 C 134.66 0.534023 6.6536 0
M  V30 1360 H 133.93 -0.332885 0.662019 0
M  V30 1361 H 136.577 -0.175762 1.90692 0
M  V30 1362 H 134.882 -2.55659 2.96893 0
M  V30 1363 H 136.579 -2.31331 3.27547 0
M  V30 1364 H 133.169 -1.15936 4.12622 0
M  V30 1365 H 137.353 -0.593693 4.92736 0
M  V30 1366 H 132.609 0.177825 6.11141 0
M  V30 1367 H 136.783 0.737419 6.92485 0
M  V30 1368 H 134.41 1.12918 7.51767 0
M  V30 1369 N 135.985 -1.50799 -0.457987 0
M  V30 1370 C 137.234 -1.6168 -1.20593 0
M  V30 1371 C 137.547 -0.32888 -1.92815 0
M  V30 1372 O 138.753 -0.316773 -2.69646 0
M  V30 1373 C 137.209 -2.8545 -2.19195 0
M  V30 1374 C 136.817 -4.21168 -1.52715 0
M  V30 1375 C 138.561 -3.05681 -2.94549 0
M  V30 1376 C 136.468 -5.3611 -2.4968 0
M  V30 1377 H 135.398 -0.602134 -0.453818 0
M  V30 1378 H 138.049 -1.77245 -0.475031 0
M  V30 1379 H 136.431 -2.63472 -2.95632 0
M  V30 1380 H 137.605 -4.53449 -0.819775 0
M  V30 1381 H 135.92 -4.06648 -0.895922 0
M  V30 1382 H 138.517 -3.88727 -3.67145 0
M  V30 1383 H 138.86 -2.17929 -3.54701 0
M  V30 1384 H 139.393 -3.27901 -2.25223 0
M  V30 1385 H 136.132 -6.26057 -1.94249 0
M  V30 1386 H 135.652 -5.0823 -3.18532 0
M  V30 1387 H 137.331 -5.6722 -3.11241 0
M  V30 1388 N 137.463 0.71206 -1.40597 0
M  V30 1389 C 138.711 1.46907 -1.38791 0
M  V30 1390 C 139.032 1.94998 0.00780391 0
M  V30 1391 O 138.302 1.70587 0.963174 0
M  V30 1392 H 136.882 0.545043 -0.51082 0
M  V30 1393 H 139.544 0.843882 -1.75683 0
M  V30 1394 H 138.64 2.34021 -2.06496 0
M  V30 1395 N 138.941 1.26152 0.944643 0
M  V30 1396 C 139.904 1.07474 2.0244 0
M  V30 1397 C 140.904 0.0242064 1.60782 0
M  V30 1398 O 142.094 0.267302 1.72137 0
M  V30 1399 C 139.226 0.633956 3.34953 0
M  V30 1400 H 140.419 2.03336 2.20442 0
M  V30 1401 H 137.972 1.087 1.12312 0
M  V30 1402 H 138.707 -0.326811 3.22649 0
M  V30 1403 H 138.492 1.39247 3.66542 0
M  V30 1404 H 139.982 0.52501 4.14287 0
M  V30 1405 N 140.419 -1.14872 1.07899 0
M  V30 1406 C 141.647 -1.89661 0.82683 0
M  V30 1407 C 142.062 -1.78312 -0.620519 0
M  V30 1408 O 141.419 -1.13888 -1.42604 0
M  V30 1409 C 141.47 -3.39817 1.23316 0
M  V30 1410 O 141.191 -3.50845 2.62372 0
M  V30 1411 C 142.692 -4.31615 1.0111 0
M  V30 1412 H 139.912 -0.60092 0.298557 0
M  V30 1413 H 142.456 -1.4551 1.43691 0
M  V30 1414 H 140.611 -3.8161 0.667286 0
M  V30 1415 H 141.025 -4.44076 2.79101 0
M  V30 1416 H 142.499 -5.35367 1.34486 0
M  V30 1417 H 142.976 -4.39169 -0.0522168 0
M  V30 1418 H 143.582 -3.95572 1.56215 0
M  V30 1419 N 141.898 -0.863906 -1.31812 0
M  V30 1420 C 142.831 -0.259963 -2.26714 0
M  V30 1421 C 143.809 0.607392 -1.50829 0
M  V30 1422 O 144.993 0.562155 -1.79922 0
M  V30 1423 C 142.12 0.632456 -3.32743 0
M  V30 1424 C 141.166 -0.162743 -4.26189 0
M  V30 1425 S 141.999 -1.53726 -5.12961 0
M  V30 1426 C 143.155 -0.650803 -6.22507 0
M  V30 1427 H 143.388 -1.06445 -2.77591 0
M  V30 1428 H 140.921 -0.662071 -1.39485 0
M  V30 1429 H 142.879 1.14167 -3.94305 0
M  V30 1430 H 141.54 1.41083 -2.80632 0
M  V30 1431 H 140.733 0.517366 -5.01338 0
M  V30 1432 H 140.335 -0.60385 -3.69093 0
M  V30 1433 H 142.627 0.141134 -6.77353 0
M  V30 1434 H 143.57 -1.37322 -6.94657 0
M  V30 1435 H 143.978 -0.221041 -5.64067 0
M  V30 1436 N 143.376 1.44774 -0.622745 0
M  V30 1437 C 144.308 2.28856 0.125485 0
M  V30 1438 C 145.321 1.40811 0.817069 0
M  V30 1439 O 146.51 1.65044 0.679918 0
M  V30 1440 C 143.61 3.16963 1.19949 0
M  V30 1441 C 142.783 4.33374 0.592064 0
M  V30 1442 C 141.842 5.02577 1.55893 0
M  V30 1443 O 140.868 5.58873 1.07933 0
M  V30 1444 N 142.07 5.03256 2.89334 0
M  V30 1445 H 144.835 2.93713 -0.596068 0
M  V30 1446 H 142.396 1.55129 -0.463303 0
M  V30 1447 H 144.388 3.60123 1.84644 0
M  V30 1448 H 142.958 2.53913 1.82337 0
M  V30 1449 H 142.178 3.93509 -0.233322 0
M  V30 1450 H 143.466 5.08527 0.166738 0
M  V30 1451 H 142.864 4.58836 3.30887 0
M  V30 1452 H 141.421 5.50232 3.49412 0
M  V30 1453 N 144.854 0.36279 1.53368 0
M  V30 1454 C 145.786 -0.519668 2.23231 0
M  V30 1455 C 146.799 -1.04844 1.24546 0
M  V30 1456 O 147.988 -0.955296 1.50786 0
M  V30 1457 C 145.088 -1.72995 2.9142 0
M  V30 1458 C 144.261 -1.33316 4.16588 0
M  V30 1459 C 143.32 -2.40521 4.68013 0
M  V30 1460 O 142.346 -2.03027 5.3176 0
M  V30 1461 N 143.548 -3.72065 4.45587 0
M  V30 1462 H 146.313 0.078751 2.99597 0
M  V30 1463 H 143.874 0.187833 1.60807 0
M  V30 1464 H 145.866 -2.44184 3.22733 0
M  V30 1465 H 144.436 -2.2353 2.18525 0
M  V30 1466 H 143.656 -0.451236 3.91609 0
M  V30 1467 H 144.944 -1.04432 4.97967 0
M  V30 1468 H 144.342 -4.05304 3.94646 0
M  V30 1469 H 142.899 -4.39366 4.81457 0
M  V30 1470 N 146.332 -1.57332 0.0918853 0
M  V30 1471 C 147.56 -1.98574 -0.581048 0
M  V30 1472 C 147.975 -0.970903 -1.61923 0
M  V30 1473 O 147.332 0.0399054 -1.82456 0
M  V30 1474 C 147.383 -3.39872 -1.23164 0
M  V30 1475 O 147.104 -4.37469 -0.234989 0
M  V30 1476 C 148.605 -3.96099 -1.99049 0
M  V30 1477 H 145.825 -0.65261 -0.156018 0
M  V30 1478 H 148.369 -2.0379 0.170225 0
M  V30 1479 H 146.524 -3.35679 -1.93386 0
M  V30 1480 H 146.938 -5.19751 -0.70418 0
M  V30 1481 H 148.412 -4.97127 -2.39934 0
M  V30 1482 H 148.889 -3.3374 -2.85507 0
M  V30 1483 H 149.495 -4.03755 -1.3365 0
M  V30 1484 N 147.81 0.181792 -1.56548 0
M  V30 1485 C 149.056 0.901431 -1.81665 0
M  V30 1486 C 149.389 1.82347 -0.668075 0
M  V30 1487 O 148.664 1.91669 0.330615 0
M  V30 1488 C 148.947 1.70618 -3.17115 0
M  V30 1489 C 148.8 0.807964 -4.42484 0
M  V30 1490 C 150.119 2.67605 -3.49393 0
M  V30 1491 H 147.238 0.32627 -0.660846 0
M  V30 1492 H 149.88 0.168134 -1.89255 0
M  V30 1493 H 148.03 2.33133 -3.10775 0
M  V30 1494 H 149.702 0.19649 -4.60881 0
M  V30 1495 H 147.945 0.115411 -4.33646 0
M  V30 1496 H 148.616 1.40632 -5.33785 0
M  V30 1497 H 151.092 2.15218 -3.56118 0
M  V30 1498 H 149.968 3.20985 -4.45264 0
M  V30 1499 H 150.229 3.47298 -2.73563 0
M  V30 1500 N 149.288 1.51039 0.449983 0
M  V30 1501 C 150.238 1.67824 1.54335 0
M  V30 1502 C 151.222 0.5324 1.51836 0
M  V30 1503 O 152.414 0.787762 1.58503 0
M  V30 1504 C 149.543 1.7951 2.92628 0
M  V30 1505 C 148.629 2.99838 2.9993 0
M  V30 1506 N 149.02 4.23207 2.77001 0
M  V30 1507 C 147.318 2.98832 3.31082 0
M  V30 1508 C 148.019 5.04361 2.89818 0
M  V30 1509 N 146.995 4.38746 3.2094 0
M  V30 1510 H 150.797 2.60884 1.35339 0
M  V30 1511 H 148.311 1.48513 0.657085 0
M  V30 1512 H 150.308 1.89642 3.7127 0
M  V30 1513 H 148.968 0.876227 3.12654 0
M  V30 1514 H 149.979 4.5236 2.52172 0
M  V30 1515 H 146.656 2.16527 3.56963 0
M  V30 1516 H 148.046 6.12528 2.76151 0
M  V30 1517 N 150.766 -0.704594 1.40972 0
M  V30 1518 C 151.729 -1.80035 1.41845 0
M  V30 1519 C 152.729 -1.57774 0.310474 0
M  V30 1520 O 153.919 -1.64613 0.56992 0
M  V30 1521 C 151.051 -3.18284 1.22098 0
M  V30 1522 H 152.244 -1.80658 2.3938 0
M  V30 1523 H 149.797 -0.911329 1.26982 0
M  V30 1524 H 150.532 -3.23306 0.253672 0
M  V30 1525 H 150.317 -3.35843 2.02366 0
M  V30 1526 H 151.807 -3.98289 1.25522 0
M  V30 1527 N 152.244 -1.26651 -0.937939 0
M  V30 1528 C 153.154 -1.10276 -2.07066 0
M  V30 1529 C 154.17 -0.0354197 -1.73964 0
M  V30 1530 O 155.346 -0.239816 -1.99967 0
M  V30 1531 C 152.411 -0.740887 -3.38691 0
M  V30 1532 C 151.472 -1.88799 -3.85556 0
M  V30 1533 C 150.705 -1.54329 -5.10899 0
M  V30 1534 O 150.928 -0.446494 -5.6865 0
M  V30 1535 O 149.862 -2.37911 -5.52885 0
M  V30 1536 H 153.688 -2.05309 -2.23789 0
M  V30 1537 H 151.273 -1.05743 -1.0554 0
M  V30 1538 H 153.155 -0.55195 -4.1777 0
M  V30 1539 H 151.83 0.180022 -3.23199 0
M  V30 1540 H 150.737 -2.13191 -3.07409 0
M  V30 1541 H 152.07 -2.78874 -4.05574 0
M  V30 1542 N 153.722 1.14298 -1.08507 0
M  V30 1543 C 154.654 2.1907 -0.673859 0
M  V30 1544 C 155.667 1.60381 0.279577 0
M  V30 1545 O 156.856 1.78374 0.0670754 0
M  V30 1546 C 153.956 3.38888 0.0290979 0
M  V30 1547 C 153.129 4.27103 -0.943494 0
M  V30 1548 C 152.188 5.25477 -0.275676 0
M  V30 1549 O 151.214 5.61709 -0.920401 0
M  V30 1550 N 152.416 5.7227 0.974013 0
M  V30 1551 H 155.181 2.54965 -1.57521 0
M  V30 1552 H 152.742 1.29528 -0.971287 0
M  V30 1553 H 154.734 4.01761 0.48683 0
M  V30 1554 H 153.304 3.01309 0.832555 0
M  V30 1555 H 152.524 3.61149 -1.58004 0
M  V30 1556 H 153.812 4.82905 -1.60251 0
M  V30 1557 H 153.21 5.44965 1.51755 0
M  V30 1558 H 151.767 6.37127 1.37522 0
M  V30 1559 N 155.201 0.870884 1.31352 0
M  V30 1560 C 156.426 0.495957 2.01383 0
M  V30 1561 C 156.851 -0.904324 1.64935 0
M  V30 1562 O 156.209 -1.59687 0.858466 0
M  V30 1563 C 156.257 0.661433 3.54482 0
M  V30 1564 O 155.361 -0.298851 4.11316 0
M  V30 1565 H 154.702 0.197158 0.634054 0
M  V30 1566 H 157.232 1.17455 1.67527 0
M  V30 1567 H 157.242 0.555072 4.04207 0
M  V30 1568 H 155.917 1.68246 3.8035 0
M  V30 1569 H 154.494 -0.147368 3.72609 0
M  V30 1570 N 156.679 -1.44442 0.630414 0
M  V30 1571 C 157.642 -2.29107 -0.0652523 0
M  V30 1572 C 158.642 -1.41002 -0.772995 0
M  V30 1573 O 159.832 -1.62881 -0.617692 0
M  V30 1574 C 156.964 -3.22564 -1.10296 0
M  V30 1575 H 158.157 -2.92103 0.679401 0
M  V30 1576 H 155.71 -1.51343 0.390517 0
M  V30 1577 H 156.445 -2.64416 -1.87762 0
M  V30 1578 H 156.23 -3.87491 -0.59941 0
M  V30 1579 H 157.72 -3.86167 -1.5895 0
M  V30 1580 N 158.157 -0.370918 -1.53173 0
M  V30 1581 C 159.406 0.218249 -2.00516 0
M  V30 1582 C 159.719 1.49429 -1.26215 0
M  V30 1583 O 160.925 2.16239 -1.64174 0
M  V30 1584 C 159.381 0.43948 -3.57207 0
M  V30 1585 C 158.989 -0.822244 -4.4039 0
M  V30 1586 C 160.733 0.986012 -4.1289 0
M  V30 1587 C 158.64 -0.570304 -5.88644 0
M  V30 1588 H 157.57 0.0853333 -0.749156 0
M  V30 1589 H 160.221 -0.490483 -1.76823 0
M  V30 1590 H 158.603 1.20961 -3.77074 0
M  V30 1591 H 159.777 -1.59557 -4.32294 0
M  V30 1592 H 158.092 -1.29238 -3.95836 0
M  V30 1593 H 160.689 1.18991 -5.21292 0
M  V30 1594 H 161.032 1.94972 -3.6782 0
M  V30 1595 H 161.565 0.27592 -3.96842 0
M  V30 1596 H 158.304 -1.50449 -6.38001 0
M  V30 1597 H 157.824 0.164427 -5.99575 0
M  V30 1598 H 159.503 -0.19784 -6.46697 0
M  V30 1599 N 159.635 1.57281 -0.100228 0
M  V30 1600 C 160.86 1.99302 0.573881 0
M  V30 1601 C 161.285 0.979059 1.60611 0
M  V30 1602 O 160.643 -0.0517803 1.81226 0
M  V30 1603 C 160.691 3.40274 1.19358 0
M  V30 1604 O 159.795 3.41676 2.30935 0
M  V30 1605 H 159.136 0.647944 0.145138 0
M  V30 1606 H 161.666 2.03779 -0.183156 0
M  V30 1607 H 161.676 3.78078 1.53365 0
M  V30 1608 H 160.351 4.13594 0.437385 0
M  V30 1609 H 158.928 3.15672 1.98509 0
M  V30 1610 N 161.113 -0.173488 1.56642 0
M  V30 1611 C 162.063 -1.21941 1.92651 0
M  V30 1612 C 163.047 -1.39912 0.794577 0
M  V30 1613 O 164.239 -1.41919 1.05773 0
M  V30 1614 C 161.368 -2.55935 2.28806 0
M  V30 1615 C 160.454 -2.41667 3.48508 0
M  V30 1616 N 160.845 -1.9711 4.65813 0
M  V30 1617 C 159.143 -2.72499 3.53072 0
M  V30 1618 C 159.844 -1.95253 5.47952 0
M  V30 1619 N 158.82 -2.37575 4.88937 0
M  V30 1620 H 162.622 -0.866581 2.80834 0
M  V30 1621 H 160.136 -0.381776 1.57849 0
M  V30 1622 H 162.133 -3.31511 2.52797 0
M  V30 1623 H 160.793 -2.92022 1.41961 0
M  V30 1624 H 161.804 -1.67481 4.90072 0
M  V30 1625 H 158.481 -3.12639 2.767 0
M  V30 1626 H 159.871 -1.6252 6.51948 0
M  V30 1627 N 162.591 -1.51276 -0.441967 0
M  V30 1628 C 163.554 -1.7167 -1.51862 0
M  V30 1629 C 164.554 -0.586793 -1.49711 0
M  V30 1630 O 165.744 -0.854276 -1.51815 0
M  V30 1631 C 162.876 -1.76889 -2.91416 0
M  V30 1632 H 164.069 -2.67754 -1.35084 0
M  V30 1633 H 161.622 -1.41196 -0.670333 0
M  V30 1634 H 162.357 -0.826026 -3.13604 0
M  V30 1635 H 162.142 -2.59001 -2.94382 0
M  V30 1636 H 163.632 -1.94522 -3.69528 0
M  V30 1637 N 164.069 0.697108 -1.41344 0
M  V30 1638 C 165.315 1.45796 -1.41828 0
M  V30 1639 C 165.67 1.92382 -0.0261743 0
M  V30 1640 O 164.963 1.66522 0.947688 0
M  V30 1641 C 165.157 2.68553 -2.35826 0
M  V30 1642 C 164.986 2.33975 -3.84039 0
M  V30 1643 C 163.756 2.24414 -4.52732 0
M  V30 1644 C 165.954 1.97048 -4.75054 0
M  V30 1645 N 163.936 1.82705 -5.86082 0
M  V30 1646 C 165.307 1.66086 -5.9734 0
M  V30 1647 C 167.362 1.83845 -4.62715 0
M  V30 1648 C 166.065 1.23246 -7.08663 0
M  V30 1649 C 168.091 1.4241 -5.73998 0
M  V30 1650 C 167.453 1.12357 -6.95381 0
M  V30 1651 H 163.552 0.530859 -0.574206 0
M  V30 1652 H 166.136 0.806674 -1.77203 0
M  V30 1653 H 164.307 3.31404 -2.02549 0
M  V30 1654 H 166.039 3.35015 -2.2704 0
M  V30 1655 H 162.794 2.4276 -4.0665 0
M  V30 1656 H 163.218 1.64337 -6.56751 0
M  V30 1657 H 167.86 2.05734 -3.69369 0
M  V30 1658 H 165.578 1.00102 -8.01876 0
M  V30 1659 H 169.164 1.32746 -5.66454 0
M  V30 1660 H 168.044 0.807795 -7.80028 0
M  V30 1661 N 165.547 1.27147 0.931209 0
M  V30 1662 C 166.477 1.12081 2.04842 0
M  V30 1663 C 167.458 0.0232364 1.70084 0
M  V30 1664 O 168.643 0.197085 1.93197 0
M  V30 1665 C 165.773 0.76354 3.38803 0
M  V30 1666 C 164.727 1.81396 3.87659 0
M  V30 1667 C 164.053 1.31075 5.18385 0
M  V30 1668 C 165.353 3.21739 4.11438 0
M  V30 1669 H 167.047 2.05537 2.17703 0
M  V30 1670 H 164.593 0.989603 1.04608 0
M  V30 1671 H 166.546 0.644982 4.16435 0
M  V30 1672 H 165.27 -0.206727 3.25945 0
M  V30 1673 H 163.929 1.92136 3.12217 0
M  V30 1674 H 163.577 0.330037 5.01916 0
M  V30 1675 H 163.277 2.013 5.52044 0
M  V30 1676 H 164.801 1.20506 5.98591 0
M  V30 1677 H 166.215 3.14019 4.79651 0
M  V30 1678 H 164.612 3.89644 4.56397 0
M  V30 1679 H 165.682 3.67054 3.16859 0
M  V30 1680 N 167.025 -1.13721 1.09112 0
M  V30 1681 C 168.25 -1.89314 0.847053 0
M  V30 1682 C 168.675 -1.78416 -0.595774 0
M  V30 1683 O 168.033 -1.12942 -1.41823 0
M  V30 1684 C 168.081 -3.3701 1.28284 0
M  V30 1685 O 167.185 -4.10054 0.439267 0
M  V30 1686 H 166.526 -0.588745 0.307044 0
M  V30 1687 H 169.056 -1.43902 1.45442 0
M  V30 1688 H 169.066 -3.87834 1.26683 0
M  V30 1689 H 167.741 -3.4426 2.33363 0
M  V30 1690 H 166.318 -3.69266 0.519312 0
M  V30 1691 N 168.503 -0.877838 -1.30888 0
M  V30 1692 C 169.751 -0.491723 -1.96027 0
M  V30 1693 C 170.072 0.960827 -1.69685 0
M  V30 1694 O 169.342 1.67462 -1.01654 0
M  V30 1695 H 167.922 -0.17885 -0.725273 0
M  V30 1696 H 170.584 -1.11935 -1.59551 0
M  V30 1697 H 169.68 -0.656016 -3.05128 0
M  V30 1698 N 169.982 1.44106 -0.638065 0
M  V30 1699 C 170.892 2.34513 0.0637334 0
M  V30 1700 C 171.908 1.53018 0.828346 0
M  V30 1701 O 173.084 1.85723 0.779036 0
M  V30 1702 C 170.149 3.31095 1.02844 0
M  V30 1703 C 169.21 4.28497 0.26244 0
M  V30 1704 C 168.443 5.20465 1.1812 0
M  V30 1705 O 168.666 5.16514 2.42011 0
M  V30 1706 O 167.6 5.98251 0.661774 0
M  V30 1707 H 171.426 2.95989 -0.68003 0
M  V30 1708 H 169.011 1.43994 -0.398252 0
M  V30 1709 H 170.893 3.90526 1.58327 0
M  V30 1710 H 169.568 2.72144 1.7527 0
M  V30 1711 H 168.475 3.72592 -0.335602 0
M  V30 1712 H 169.808 4.90388 -0.421936 0
M  V30 1713 N 171.46 0.379036 1.52974 0
M  V30 1714 C 172.407 -0.461048 2.26148 0
M  V30 1715 C 173.377 -1.06637 1.27349 0
M  V30 1716 O 174.562 -1.09633 1.56157 0
M  V30 1717 C 171.702 -1.58782 3.06402 0
M  V30 1718 C 170.815 -1.00636 4.20115 0
M  V30 1719 C 169.95 -2.10334 4.87784 0
M  V30 1720 C 168.989 -1.49724 5.93506 0
M  V30 1721 N 168.126 -2.5331 6.54812 0
M  V30 1722 H 172.966 0.169429 2.97518 0
M  V30 1723 H 170.503 0.0953806 1.4679 0
M  V30 1724 H 172.461 -2.25174 3.51215 0
M  V30 1725 H 171.091 -2.18876 2.37261 0
M  V30 1726 H 170.143 -0.232332 3.7969 0
M  V30 1727 H 171.455 -0.523343 4.96047 0
M  V30 1728 H 170.609 -2.84519 5.35849 0
M  V30 1729 H 169.348 -2.61992 4.11353 0
M  V30 1730 H 168.353 -0.740598 5.44789 0
M  V30 1731 H 169.578 -0.988732 6.71864 0
M  V30 1732 H 167.524 -3.04156 5.81227 0
M  V30 1733 H 167.441 -2.09734 7.26325 0
M  V30 1734 H 168.709 -3.27155 7.07524 0
M  V30 1735 N 172.938 -1.57226 0.108567 0
M  V30 1736 C 173.901 -2.13602 -0.831082 0
M  V30 1737 C 174.901 -1.06841 -1.20173 0
M  V30 1738 O 176.091 -1.32666 -1.12895 0
M  V30 1739 C 173.223 -2.66769 -2.12243 0
M  V30 1740 H 174.416 -2.97951 -0.341317 0
M  V30 1741 H 171.969 -1.55667 -0.14057 0
M  V30 1742 H 172.704 -1.85977 -2.65675 0
M  V30 1743 H 172.489 -3.44839 -1.86625 0
M  V30 1744 H 173.979 -3.10332 -2.79435 0
M  V30 1745 N 174.416 0.165178 -1.56732 0
M  V30 1746 C 175.346 1.20651 -1.99914 0
M  V30 1747 C 176.327 1.45827 -0.875705 0
M  V30 1748 O 177.512 1.57057 -1.14223 0
M  V30 1749 C 174.642 2.54401 -2.36427 0
M  V30 1750 C 173.596 2.43782 -3.51787 0
M  V30 1751 C 172.922 3.82078 -3.7406 0
M  V30 1752 C 174.222 1.93732 -4.85041 0
M  V30 1753 H 175.916 0.847534 -2.87154 0
M  V30 1754 H 173.462 0.40625 -1.38151 0
M  V30 1755 H 175.415 3.27458 -2.65234 0
M  V30 1756 H 174.139 2.92098 -1.46103 0
M  V30 1757 H 172.798 1.73178 -3.23117 0
M  V30 1758 H 172.446 4.17179 -2.81017 0
M  V30 1759 H 172.146 3.7584 -4.51684 0
M  V30 1760 H 173.67 4.56712 -4.05274 0
M  V30 1761 H 175.084 2.56569 -5.12684 0
M  V30 1762 H 173.481 1.98428 -5.66345 0
M  V30 1763 H 174.551 0.891962 -4.76626 0
M  V30 1764 N 175.894 1.51508 0.433938 0
M  V30 1765 C 176.857 1.72473 1.50949 0
M  V30 1766 C 177.857 0.594725 1.49398 0
M  V30 1767 O 179.047 0.862315 1.5136 0
M  V30 1768 C 176.179 1.78431 2.90474 0
M  V30 1769 H 177.372 2.68467 1.33662 0
M  V30 1770 H 174.925 1.41549 0.662836 0
M  V30 1771 H 175.66 0.842645 3.13161 0
M  V30 1772 H 175.445 2.60558 2.93005 0
M  V30 1773 H 176.935 1.96479 3.68491 0
M  V30 1774 N 177.372 -0.689602 1.41712 0
M  V30 1775 C 178.335 -1.78521 1.43746 0
M  V30 1776 C 179.335 -1.57436 0.327191 0
M  V30 1777 O 180.525 -1.64 0.587348 0
M  V30 1778 C 177.657 -3.16971 1.25467 0
M  V30 1779 H 178.85 -1.78108 2.41283 0
M  V30 1780 H 176.403 -0.89781 1.27942 0
M  V30 1781 H 177.138 -3.23019 0.287948 0
M  V30 1782 H 176.923 -3.33678 2.05917 0
M  V30 1783 H 178.413 -3.96935 1.2974 0
M  V30 1784 N 178.85 -1.27639 -0.924453 0
M  V30 1785 C 180.099 -1.13549 -1.66702 0
M  V30 1786 C 180.412 0.317487 -1.93006 0
M  V30 1787 O 181.618 0.579333 -2.65247 0
M  V30 1788 C 180.074 -1.98426 -3.00259 0
M  V30 1789 C 179.682 -3.484 -2.81641 0
M  V30 1790 C 181.426 -1.92993 -3.78092 0
M  V30 1791 C 179.333 -4.25464 -4.10773 0
M  V30 1792 H 178.263 -0.421351 -0.625283 0
M  V30 1793 H 180.914 -1.52085 -1.02676 0
M  V30 1794 H 179.296 -1.52736 -3.6536 0
M  V30 1795 H 180.47 -4.01973 -2.25287 0
M  V30 1796 H 178.785 -3.55245 -2.17232 0
M  V30 1797 H 181.382 -2.47844 -4.7379 0
M  V30 1798 H 181.725 -0.904281 -4.0636 0
M  V30 1799 H 182.258 -2.36595 -3.19793 0
M  V30 1800 H 178.997 -5.28566 -3.87683 0
M  V30 1801 H 178.517 -3.76667 -4.66779 0
M  V30 1802 H 180.196 -4.34812 -4.79111 0
M  V30 1803 N 180.328 1.1314 -1.09713 0
M  V30 1804 C 181.556 1.88321 -0.856898 0
M  V30 1805 C 181.971 1.79276 0.592073 0
M  V30 1806 O 181.328 1.16142 1.40774 0
M  V30 1807 C 181.379 3.37812 -1.28706 0
M  V30 1808 O 181.1 3.46627 -2.67921 0
M  V30 1809 C 182.601 4.29952 -1.07964 0
M  V30 1810 H 179.821 0.596094 -0.308079 0
M  V30 1811 H 182.365 1.43205 -1.45988 0
M  V30 1812 H 180.52 3.805 -0.727912 0
M  V30 1813 H 180.934 4.39579 -2.8613 0
M  V30 1814 H 182.408 5.33159 -1.42986 0
M  V30 1815 H 182.885 4.39196 -0.0176577 0
M  V30 1816 H 183.491 3.93036 -1.62489 0
M  V30 1817 N 181.806 0.884767 1.30421 0
M  V30 1818 C 183.052 0.503851 1.96441 0
M  V30 1819 C 183.385 -0.944518 1.69684 0
M  V30 1820 O 182.66 -1.66737 1.00145 0
M  V30 1821 C 182.943 0.779085 3.51571 0
M  V30 1822 C 182.796 2.27807 3.87846 0
M  V30 1823 C 184.115 0.255452 4.39358 0
M  V30 1824 H 181.234 0.184533 0.713524 0
M  V30 1825 H 183.876 1.10872 1.54297 0
M  V30 1826 H 182.026 0.264274 3.876 0
M  V30 1827 H 183.698 2.86127 3.61841 0
M  V30 1828 H 181.941 2.74479 3.35922 0
M  V30 1829 H 182.612 2.42125 4.96064 0
M  V30 1830 H 185.088 0.696079 4.10236 0
M  V30 1831 H 183.964 0.477361 5.4682 0
M  V30 1832 H 184.225 -0.843293 4.33983 0
M  V30 1833 N 183.284 -1.43765 0.645699 0
M  V30 1834 C 184.232 -2.32516 -0.0624849 0
M  V30 1835 C 185.226 -1.48183 -0.820855 0
M  V30 1836 O 186.432 -1.64439 -0.732106 0
M  V30 1837 H 182.807 -0.750989 -0.0389864 0
M  V30 1838 H 184.778 -2.89979 0.703892 0
M  V30 1839 C 183.527 -3.32389 -1.02044 0
M  V30 1840 H 182.85 -3.97301 -0.446312 0
M  V30 1841 H 184.29 -3.97138 -1.48517 0
M  V30 1842 C 182.749 -2.62416 -2.11281 0
M  V30 1843 O 183.279 -2.434 -3.19561 0
M  V30 1844 N 181.485 -2.21913 -1.87624 0
M  V30 1845 H 181.032 -2.37578 -0.995703 0
M  V30 1846 H 180.99 -1.75424 -2.6091 0
M  V30 1847 N 184.763 -0.387143 -1.52771 0
M  V30 1848 C 185.993 0.195585 -2.05672 0
M  V30 1849 C 186.401 1.41241 -1.25887 0
M  V30 1850 O 185.744 1.81265 -0.298081 0
M  V30 1851 C 185.806 0.632327 -3.53895 0
M  V30 1852 C 185.47 -0.470739 -4.54569 0
M  V30 1853 C 186.467 -1.32746 -5.02667 0
M  V30 1854 C 184.152 -0.637151 -4.98243 0
M  V30 1855 C 186.146 -2.33574 -5.93061 0
M  V30 1856 C 183.833 -1.64877 -5.88438 0
M  V30 1857 C 184.831 -2.49649 -6.35739 0
M  V30 1858 O 184.519 -3.49082 -7.24153 0
M  V30 1859 H 184.251 0.033658 -0.675162 0
M  V30 1860 H 186.805 -0.550221 -1.97893 0
M  V30 1861 H 185.035 1.43008 -3.59285 0
M  V30 1862 H 186.724 1.14048 -3.89548 0
M  V30 1863 H 187.49 -1.21019 -4.69659 0
M  V30 1864 H 183.369 0.0129567 -4.60998 0
M  V30 1865 H 186.913 -2.99777 -6.29904 0
M  V30 1866 H 182.81 -1.76643 -6.2086 0
M  V30 1867 H 183.578 -3.45065 -7.42208 0
M  V30 1868 N 186.241 1.57166 -0.116904 0
M  V30 1869 C 187.469 1.99473 0.549383 0
M  V30 1870 C 187.884 0.996541 1.60357 0
M  V30 1871 O 187.241 -0.0108731 1.82497 0
M  V30 1872 C 187.292 3.41788 1.17741 0
M  V30 1873 O 187.013 4.37788 0.165362 0
M  V30 1874 C 188.514 3.99216 1.92722 0
M  V30 1875 H 185.734 0.655009 0.145616 0
M  V30 1876 H 188.278 2.03494 -0.202625 0
M  V30 1877 H 186.433 3.38713 1.88021 0
M  V30 1878 H 186.847 5.20806 0.621403 0
M  V30 1879 H 188.321 5.00882 2.31995 0
M  V30 1880 H 188.798 3.3824 2.80161 0
M  V30 1881 H 189.404 4.0583 1.27209 0
M  V30 1882 N 187.719 -0.156864 1.56817 0
M  V30 1883 C 189.13 -0.717916 1.72345 0
M  V30 1884 C 189.481 -1.82124 0.729747 0
M  V30 1885 O 188.606 -2.16141 -0.105781 0
M  V30 1886 C 189.201 -1.30904 3.12489 0
M  V30 1887 C 187.76 -1.81676 3.29653 0
M  V30 1888 C 186.907 -0.701349 2.68284 0
M  V30 1889 H 189.858 0.0686989 1.58551 0
M  V30 1890 H 189.879 -2.17882 3.11942 0
M  V30 1891 H 189.391 -0.505796 3.8479 0
M  V30 1892 H 187.492 -2.64598 2.62333 0
M  V30 1893 H 187.605 -1.95226 4.3752 0
M  V30 1894 H 185.969 -1.12548 2.28484 0
M  V30 1895 H 186.752 0.0902846 3.43181 0
M  V30 1896 N 189.197 -1.51736 -0.425897 0
M  V30 1897 C 190.437 -1.66636 -1.18371 0
M  V30 1898 C 190.801 -0.379854 -1.88205 0
M  V30 1899 O 192.002 -0.404758 -2.65735 0
M  V30 1900 C 190.273 -2.84382 -2.16476 0
M  V30 1901 S 191.832 -3.19673 -3.0059 0
M  V30 1902 H 188.65 -0.586957 -0.40125 0
M  V30 1903 H 191.252 -1.89679 -0.473518 0
M  V30 1904 H 189.956 -3.76281 -1.63831 0
M  V30 1905 H 189.487 -2.63562 -2.92059 0
M  V30 1906 H 191.502 -2.66994 -4.18245 0
M  V30 1907 N 190.675 0.682077 -1.42076 0
M  V30 1908 C 191.923 1.4393 -1.41876 0
M  V30 1909 C 192.244 1.94971 -0.0335599 0
M  V30 1910 O 191.514 1.72591 0.926773 0
M  V30 1911 H 190.094 0.534085 -0.522267 0
M  V30 1912 H 192.756 0.806427 -1.77434 0
M  V30 1913 H 191.852 2.29588 -2.11414 0
M  V30 1914 N 192.153 1.28127 0.917671 0
M  V30 1915 C 193.103 1.08361 2.00604 0
M  V30 1916 C 194.087 0.00847518 1.60898 0
M  V30 1917 O 195.279 0.228167 1.75523 0
M  V30 1918 C 192.408 0.743376 3.35155 0
M  V30 1919 C 191.494 1.85716 3.81275 0
M  V30 1920 N 191.885 3.09822 3.99805 0
M  V30 1921 C 190.183 1.74612 4.10398 0
M  V30 1922 C 190.884 3.82368 4.38372 0
M  V30 1923 N 189.86 3.10192 4.4641 0
M  V30 1924 H 193.662 2.02531 2.12975 0
M  V30 1925 H 191.176 1.18989 1.10523 0
M  V30 1926 H 193.173 0.582859 4.12805 0
M  V30 1927 H 191.833 -0.190595 3.2414 0
M  V30 1928 H 192.844 3.45475 3.85833 0
M  V30 1929 H 189.521 0.883657 4.08041 0
M  V30 1930 H 190.911 4.89082 4.60704 0
M  V30 1931 N 193.631 -1.12557 1.10312 0
M  V30 1932 C 194.871 -1.8568 0.854543 0
M  V30 1933 C 195.235 -1.82091 -0.608843 0
M  V30 1934 O 196.436 -2.50544 -0.973717 0
M  V30 1935 C 194.707 -3.2942 1.38626 0
M  V30 1936 S 196.266 -4.19931 1.27293 0
M  V30 1937 H 193.084 -0.640427 0.308827 0
M  V30 1938 H 195.686 -1.35599 1.40831 0
M  V30 1939 H 194.39 -3.2959 2.44537 0
M  V30 1940 H 193.921 -3.84566 0.82902 0
M  V30 1941 H 195.936 -4.95668 0.229776 0
M  V30 1942 N 195.109 -0.891671 -1.2995 0
M  V30 1943 C 196.525 -0.58662 -1.48428 0
M  V30 1944 C 196.725 0.873951 -1.81561 0
M  V30 1945 O 195.781 1.65471 -1.90724 0
M  V30 1946 C 197.094 -1.50553 -2.60296 0
M  V30 1947 C 198.642 -1.50988 -2.74175 0
M  V30 1948 C 199.117 -2.41488 -3.89163 0
M  V30 1949 N 200.608 -2.39489 -3.96483 0
M  V30 1950 C 201.343 -3.06223 -4.84784 0
M  V30 1951 N 200.839 -3.82206 -5.77833 0
M  V30 1952 N 202.632 -2.95421 -4.78208 0
M  V30 1953 H 194.783 -1.83644 -1.06718 0
M  V30 1954 H 197.046 -0.786455 -0.529332 0
M  V30 1955 H 196.752 -2.54581 -2.42654 0
M  V30 1956 H 196.626 -1.22008 -3.56923 0
M  V30 1957 H 199.013 -0.47708 -2.91218 0
M  V30 1958 H 199.094 -1.83567 -1.78148 0
M  V30 1959 H 198.738 -3.44857 -3.72876 0
M  V30 1960 H 198.668 -2.06222 -4.84541 0
M  V30 1961 H 201.159 -1.84278 -3.29924 0
M  V30 1962 H 201.472 -4.302 -6.41988 0
M  V30 1963 H 199.817 -3.86313 -5.77743 0
M  V30 1964 H 203.008 -2.35581 -4.04499 0
M  V30 1965 H 203.181 -3.47704 -5.46814 0
M  V30 1966 N 196.587 1.43421 -0.653314 0
M  V30 1967 C 197.519 2.29071 0.0769134 0
M  V30 1968 C 198.532 1.42513 0.787017 0
M  V30 1969 O 199.721 1.66449 0.644757 0
M  V30 1970 C 196.821 3.19436 1.13199 0
M  V30 1971 C 195.994 4.34533 0.500006 0
M  V30 1972 C 195.053 5.05771 1.45198 0
M  V30 1973 O 194.079 5.61037 0.960538 0
M  V30 1974 N 195.281 5.0928 2.78594 0
M  V30 1975 H 198.046 2.92382 -0.658235 0
M  V30 1976 H 195.607 1.54112 -0.496104 0
M  V30 1977 H 197.599 3.63958 1.76964 0
M  V30 1978 H 196.169 2.57724 1.7691 0
M  V30 1979 H 195.389 3.92925 -0.316738 0
M  V30 1980 H 196.677 5.08766 0.0588345 0
M  V30 1981 H 196.075 4.65751 3.2108 0
M  V30 1982 H 194.632 5.57519 3.37662 0
M  V30 1983 N 198.065 0.39524 1.52563 0
M  V30 1984 C 199.312 -0.185044 2.01653 0
M  V30 1985 C 199.64 -1.46317 1.28146 0
M  V30 1986 O 198.895 -1.9213 0.372074 0
M  V30 1987 C 199.194 -0.493444 3.53977 0
M  V30 1988 C 198.86 0.69384 4.4553 0
M  V30 1989 C 197.522 1.01954 4.70275 0
M  V30 1990 C 199.874 1.48785 4.99512 0
M  V30 1991 C 197.202 2.14069 5.46252 0
M  V30 1992 C 199.554 2.59965 5.76716 0
M  V30 1993 C 198.218 2.93037 5.99738 0
M  V30 1994 H 197.488 -0.0677123 0.7379 0
M  V30 1995 H 200.135 0.533807 1.8391 0
M  V30 1996 H 198.44 -1.29369 3.69825 0
M  V30 1997 H 200.137 -0.955163 3.89458 0
M  V30 1998 H 196.727 0.429987 4.26438 0
M  V30 1999 H 200.911 1.24946 4.80315 0
M  V30 2000 H 196.167 2.40056 5.62302 0
M  V30 2001 H 200.341 3.21887 6.17545 0
M  V30 2002 H 197.968 3.8003 6.58393 0
M  V30 2003 N 199.544 -1.57102 0.125237 0
M  V30 2004 C 200.477 -2.11371 -0.860094 0
M  V30 2005 C 201.455 -1.03168 -1.25679 0
M  V30 2006 O 202.639 -1.30862 -1.35674 0
M  V30 2007 C 199.766 -2.61555 -2.1519 0
M  V30 2008 C 198.812 -3.81701 -1.9028 0
M  V30 2009 S 199.645 -5.23797 -1.11343 0
M  V30 2010 C 200.801 -5.77353 -2.41689 0
M  V30 2011 H 201.034 -2.94617 -0.39852 0
M  V30 2012 H 198.567 -1.54145 -0.0886555 0
M  V30 2013 H 200.525 -2.91122 -2.89411 0
M  V30 2014 H 199.186 -1.78479 -2.58465 0
M  V30 2015 H 198.379 -4.14985 -2.86014 0
M  V30 2016 H 197.981 -3.52783 -1.24178 0
M  V30 2017 H 200.273 -5.87458 -3.37489 0
M  V30 2018 H 201.216 -6.75323 -2.12942 0
M  V30 2019 H 201.624 -5.05457 -2.51342 0
M  V30 2020 N 201.022 0.148545 -1.56898 0
M  V30 2021 C 201.97 1.20265 -1.99096 0
M  V30 2022 C 202.964 1.44559 -0.883123 0
M  V30 2023 O 204.17 1.4487 -1.0683 0
M  V30 2024 H 200.545 0.404786 -0.63376 0
M  V30 2025 H 202.516 0.82004 -2.86911 0
M  V30 2026 C 201.265 2.52886 -2.3863 0
M  V30 2027 H 200.588 2.35021 -3.23427 0
M  V30 2028 H 202.028 3.25274 -2.7198 0
M  V30 2029 C 200.487 3.13315 -1.23837 0
M  V30 2030 O 201.017 3.98077 -0.538268 0
M  V30 2031 N 199.223 2.72742 -1.00301 0
M  V30 2032 H 198.77 2.03912 -1.5741 0
M  V30 2033 H 198.728 3.13507 -0.236838 0
M  V30 2034 N 202.5 1.5196 0.417844 0
M  V30 2035 C 203.41 1.77554 1.53336 0
M  V30 2036 C 204.426 0.660655 1.6097 0
M  V30 2037 O 205.602 0.945099 1.77848 0
M  V30 2038 C 202.667 1.91291 2.89152 0
M  V30 2039 C 201.728 3.15183 2.91475 0
M  V30 2040 C 200.961 3.28256 4.20813 0
M  V30 2041 O 201.184 2.46798 5.14244 0
M  V30 2042 O 200.118 4.21356 4.29817 0
M  V30 2043 H 203.944 2.7222 1.34647 0
M  V30 2044 H 201.529 1.36698 0.602828 0
M  V30 2045 H 203.411 2.02199 3.69721 0
M  V30 2046 H 202.086 0.998129 3.07927 0
M  V30 2047 H 200.993 3.09739 2.09791 0
M  V30 2048 H 202.326 4.06414 2.77648 0
M  V30 2049 N 203.978 -0.674533 1.42435 0
M  V30 2050 C 204.908 -1.80009 1.48724 0
M  V30 2051 C 205.889 -1.6659 0.343793 0
M  V30 2052 O 207.074 -1.86007 0.558137 0
M  V30 2053 C 204.204 -3.18306 1.38919 0
M  V30 2054 C 203.158 -3.46461 2.51294 0
M  V30 2055 C 202.484 -4.84335 2.26547 0
M  V30 2056 C 203.784 -3.43328 3.93603 0
M  V30 2057 H 205.478 -1.75004 2.42928 0
M  V30 2058 H 203.024 -0.840533 1.16923 0
M  V30 2059 H 204.977 -3.9678 1.41927 0
M  V30 2060 H 203.701 -3.2399 0.412094 0
M  V30 2061 H 202.36 -2.70348 2.47604 0
M  V30 2062 H 202.008 -4.86669 1.2713 0
M  V30 2063 H 201.708 -5.04136 3.01861 0
M  V30 2064 H 203.232 -5.65094 2.31304 0
M  V30 2065 H 204.646 -4.11772 3.98894 0
M  V30 2066 H 203.043 -3.74664 4.68771 0
M  V30 2067 H 204.113 -2.41897 4.20255 0
M  V30 2068 N 205.456 -1.28612 -0.910864 0
M  V30 2069 C 206.404 -1.1265 -2.03501 0
M  V30 2070 C 207.398 -0.0450054 -1.6934 0
M  V30 2071 O 208.604 -0.203988 -1.7884 0
M  V30 2072 H 204.979 -0.347639 -0.666822 0
M  V30 2073 H 206.95 -2.07849 -2.14106 0
M  V30 2074 C 205.699 -0.808143 -3.38178 0
M  V30 2075 H 205.022 -1.63231 -3.6496 0
M  V30 2076 H 206.462 -0.736426 -4.17556 0
M  V30 2077 C 204.921 0.488226 -3.33344 0
M  V30 2078 O 205.451 1.51766 -3.71927 0
M  V30 2079 N 203.657 0.490009 -2.86439 0
M  V30 2080 H 203.204 -0.348161 -2.55236 0
M  V30 2081 H 203.162 1.35741 -2.83587 0
M  V30 2082 N 206.934 1.1197 -1.10907 0
M  V30 2083 C 208.159 1.87942 -0.877064 0
M  V30 2084 C 208.584 1.79341 0.567314 0
M  V30 2085 O 207.942 1.15184 1.40009 0
M  V30 2086 C 207.99 3.34926 -1.33629 0
M  V30 2087 O 207.094 4.09303 -0.504447 0
M  V30 2088 H 206.435 0.583785 -0.316371 0
M  V30 2089 H 208.965 1.4157 -1.47712 0
M  V30 2090 H 208.975 3.8577 -1.32837 0
M  V30 2091 H 207.65 3.40504 -2.3881 0
M  V30 2092 H 206.227 3.68393 -0.577993 0
M  V30 2093 N 208.412 0.89855 1.29475 0
M  V30 2094 C 209.66 0.522847 1.9522 0
M  V30 2095 C 209.981 -0.93371 1.71192 0
M  V30 2096 O 209.251 -1.65823 1.04305 0
M  V30 2097 H 207.831 0.190366 0.722336 0
M  V30 2098 H 210.493 1.14459 1.5775 0
M  V30 2099 H 209.589 0.704476 3.04045 0
M  V30 2100 N 209.89 -1.43072 0.660911 0
M  V30 2101 C 210.82 -2.33497 -0.0122829 0
M  V30 2102 C 211.801 -1.49903 -0.803925 0
M  V30 2103 O 212.986 -1.78546 -0.763864 0
M  V30 2104 C 210.116 -3.33363 -0.973994 0
M  V30 2105 C 209.07 -4.27003 -0.291928 0
M  V30 2106 C 208.396 -5.16967 -1.36562 0
M  V30 2107 C 209.696 -5.15816 0.820462 0
M  V30 2108 H 211.39 -2.90038 0.742873 0
M  V30 2109 H 208.936 -1.39461 0.358688 0
M  V30 2110 H 210.889 -3.95524 -1.45392 0
M  V30 2111 H 209.613 -2.75095 -1.7604 0
M  V30 2112 H 208.272 -3.66217 0.167623 0
M  V30 2113 H 207.92 -4.55034 -2.14366 0
M  V30 2114 H 207.62 -5.80441 -0.914454 0
M  V30 2115 H 209.144 -5.82003 -1.84675 0
M  V30 2116 H 210.558 -5.71742 0.422366 0
M  V30 2117 H 208.955 -5.8805 1.19656 0
M  V30 2118 H 210.025 -4.55045 1.67518 0
M  V30 2119 N 211.368 -0.403325 -1.52352 0
M  V30 2120 C 212.645 0.232611 -1.94212 0
M  V30 2121 C 213.025 1.63133 -1.33981 0
M  V30 2122 O 212.373 2.22659 -0.513344 0
M  V30 2123 C 212.583 0.244811 -3.4814 0
M  V30 2124 C 213.931 0.46698 -4.22024 0
M  V30 2125 O 214.955 0.324419 -3.5472 0
M  V30 2126 O 213.814 0.74747 -5.41364 0
M  V30 2127 H 210.908 0.148223 -0.813609 0
M  V30 2128 H 213.454 -0.458848 -1.63379 0
M  V30 2129 H 212.226 -0.734378 -3.84347 0
M  V30 2130 H 211.849 0.980611 -3.85318 0
M  V30 2131 N 212.846 1.57033 -0.133567 0
M  V30 2132 C 213.776 2.1909 0.807567 0
M  V30 2133 C 214.757 1.13517 1.26681 0
M  V30 2134 O 215.942 1.41809 1.32679 0
M  V30 2135 C 213.072 2.80188 2.05212 0
M  V30 2136 C 212.026 3.91471 1.73015 0
M  V30 2137 C 211.352 4.39443 3.04622 0
M  V30 2138 C 212.652 5.12886 0.987168 0
M  V30 2139 H 214.346 2.97988 0.290403 0
M  V30 2140 H 211.892 1.43335 0.138239 0
M  V30 2141 H 213.845 3.22264 2.71521 0
M  V30 2142 H 212.569 1.98601 2.59278 0
M  V30 2143 H 211.228 3.49993 1.0909 0
M  V30 2144 H 210.876 3.54695 3.56651 0
M  V30 2145 H 210.576 5.14495 2.83847 0
M  V30 2146 H 212.1 4.8418 3.72024 0
M  V30 2147 H 213.514 5.51891 1.55208 0
M  V30 2148 H 211.911 5.93615 0.87985 0
M  V30 2149 H 212.981 4.84894 -0.0235286 0
M  V30 2150 N 214.325 -0.140222 1.56975 0
M  V30 2151 C 215.741 -0.493088 1.51792 0
M  V30 2152 C 215.941 -1.83013 0.843116 0
M  V30 2153 O 214.997 -2.49041 0.416493 0
M  V30 2154 C 216.31 -0.497144 2.96562 0
M  V30 2155 C 217.858 -0.582186 3.07538 0
M  V30 2156 C 218.333 -0.616838 4.53827 0
M  V30 2157 N 219.824 -0.678873 4.58198 0
M  V30 2158 C 220.559 -0.726782 5.68775 0
M  V30 2159 N 220.055 -0.733623 6.88905 0
M  V30 2160 N 221.848 -0.768179 5.56826 0
M  V30 2161 H 213.999 0.736108 1.99237 0
M  V30 2162 H 216.262 0.269182 0.90898 0
M  V30 2163 H 215.968 0.417217 3.49217 0
M  V30 2164 H 215.842 -1.33263 3.52875 0
M  V30 2165 H 218.229 -1.48697 2.54899 0
M  V30 2166 H 218.31 0.280581 2.54257 0
M  V30 2167 H 217.954 0.283812 5.07106 0
M  V30 2168 H 217.884 -1.49619 5.04898 0
M  V30 2169 H 220.375 -0.68061 3.7172 0
M  V30 2170 H 220.688 -0.772215 7.68932 0
M  V30 2171 H 219.033 -0.701389 6.91452 0
M  V30 2172 H 222.224 -0.760051 4.61888 0
M  V30 2173 H 222.397 -0.80205 6.43017 0
M  V30 2174 N 215.803 -1.52179 -0.40978 0
M  V30 2175 C 217.052 -1.65434 -1.15388 0
M  V30 2176 C 217.365 -0.390056 -1.91671 0
M  V30 2177 O 218.571 -0.402399 -2.68501 0
M  V30 2178 C 217.027 -2.92279 -2.10003 0
M  V30 2179 C 216.635 -4.25813 -1.39239 0
M  V30 2180 C 218.379 -3.14897 -2.84675 0
M  V30 2181 C 216.286 -5.43782 -2.32498 0
M  V30 2182 H 215.216 -0.616267 -0.434432 0
M  V30 2183 H 217.867 -1.78666 -0.418401 0
M  V30 2184 H 216.249 -2.72744 -2.871 0
M  V30 2185 H 217.423 -4.55828 -0.675099 0
M  V30 2186 H 215.738 -4.09292 -0.766097 0
M  V30 2187 H 218.335 -4.0021 -3.54593 0
M  V30 2188 H 218.678 -2.29103 -3.47588 0
M  V30 2189 H 219.211 -3.34901 -2.14677 0
M  V30 2190 H 215.95 -6.3192 -1.74233 0
M  V30 2191 H 215.47 -5.18106 -3.02201 0
M  V30 2192 H 217.149 -5.76834 -2.93038 0
M  V30 2193 N 217.281 0.66697 -1.42791 0
M  V30 2194 C 218.231 1.77313 -1.43332 0
M  V30 2195 C 219.215 1.5801 -0.303586 0
M  V30 2196 O 220.407 1.68356 -0.546385 0
M  V30 2197 C 217.536 3.15822 -1.34578 0
M  V30 2198 C 216.622 3.40721 -2.52528 0
M  V30 2199 N 217.013 3.36162 -3.77927 0
M  V30 2200 C 215.311 3.71387 -2.46956 0
M  V30 2201 C 216.012 3.60762 -4.56318 0
M  V30 2202 N 214.988 3.81908 -3.86843 0
M  V30 2203 H 218.79 1.72193 -2.38174 0
M  V30 2204 H 216.304 0.868114 -1.3725 0
M  V30 2205 H 218.301 3.951 -1.33048 0
M  V30 2206 H 216.961 3.22133 -0.407453 0
M  V30 2207 H 217.972 3.15885 -4.10411 0
M  V30 2208 H 214.649 3.84897 -1.61743 0
M  V30 2209 H 216.039 3.63132 -5.65318 0
M  V30 2210 N 218.759 1.29093 0.90403 0
M  V30 2211 C 219.689 1.16401 2.02418 0
M  V30 2212 C 220.67 0.0593085 1.69997 0
M  V30 2213 O 221.855 0.238021 1.92736 0
M  V30 2214 C 218.985 0.835233 3.37107 0
M  V30 2215 C 217.939 1.89578 3.83724 0
M  V30 2216 C 217.265 1.42041 5.15489 0
M  V30 2217 C 218.565 3.30394 4.04521 0
M  V30 2218 H 220.259 2.10109 2.13295 0
M  V30 2219 H 217.805 1.01157 1.02486 0
M  V30 2220 H 219.758 0.733169 4.14973 0
M  V30 2221 H 218.482 -0.137543 3.2631 0
M  V30 2222 H 217.141 1.98715 3.08071 0
M  V30 2223 H 216.789 0.436426 5.01103 0
M  V30 2224 H 216.489 2.12964 5.4765 0
M  V30 2225 H 218.013 1.33176 5.959 0
M  V30 2226 H 219.427 3.24123 4.72882 0
M  V30 2227 H 217.824 3.99237 4.48029 0
M  V30 2228 H 218.894 3.73692 3.09002 0
M  V30 2229 N 220.237 -1.11381 1.11499 0
M  V30 2230 C 221.648 -1.6465 0.880191 0
M  V30 2231 C 221.999 -1.87199 -0.587434 0
M  V30 2232 O 221.124 -1.60667 -1.44966 0
M  V30 2233 C 221.719 -2.99105 1.59128 0
M  V30 2234 C 220.278 -3.49279 1.40289 0
M  V30 2235 C 219.425 -2.24077 1.63354 0
M  V30 2236 H 222.376 -0.950123 1.27116 0
M  V30 2237 H 222.397 -3.66107 1.03664 0
M  V30 2238 H 221.909 -2.82661 2.65941 0
M  V30 2239 H 220.01 -3.70887 0.356888 0
M  V30 2240 H 220.123 -4.2803 2.15238 0
M  V30 2241 H 218.487 -2.31733 1.05698 0
M  V30 2242 H 219.27 -2.10175 2.71443 0
M  V30 2243 N 221.715 -0.905404 -1.28997 0
M  V30 2244 C 222.963 -0.533192 -1.9494 0
M  V30 2245 C 223.284 0.924618 -1.71685 0
M  V30 2246 O 222.554 1.65268 -1.05183 0
M  V30 2247 H 221.134 -0.194194 -0.721317 0
M  V30 2248 H 223.796 -1.15294 -1.57141 0
M  V30 2249 H 222.892 -0.72059 -3.03667 0
M  V30 2250 N 223.193 1.4272 -0.668489 0
M  V30 2251 C 224.609 1.55992 -0.33745 0
M  V30 2252 C 224.809 1.64933 1.15756 0
M  V30 2253 O 223.865 1.61278 1.94282 0
M  V30 2254 C 225.178 2.81314 -1.06222 0
M  V30 2255 C 226.726 2.95078 -1.04394 0
M  V30 2256 C 227.201 4.23252 -1.74991 0
M  V30 2257 N 228.692 4.3015 -1.71829 0
M  V30 2258 C 229.427 5.28127 -2.23315 0
M  V30 2259 N 228.923 6.32293 -2.83156 0
M  V30 2260 N 230.716 5.19882 -2.13726 0
M  V30 2261 H 222.867 1.3516 -1.63846 0
M  V30 2262 H 225.13 0.650174 -0.689912 0
M  V30 2263 H 224.836 2.80823 -2.11734 0
M  V30 2264 H 224.71 3.72012 -0.62344 0
M  V30 2265 H 227.097 2.951 0.0028244 0
M  V30 2266 H 227.178 2.05627 -1.52155 0
M  V30 2267 H 226.822 4.2399 -2.79633 0
M  V30 2268 H 226.752 5.11626 -1.24685 0
M  V30 2269 H 229.243 3.55499 -1.28175 0
M  V30 2270 H 229.556 7.03398 -3.20079 0
M  V30 2271 H 227.901 6.32873 -2.87223 0
M  V30 2272 H 231.092 4.37423 -1.66669 0
M  V30 2273 H 231.265 5.96077 -2.54158 0
M  V30 2274 N 224.671 0.411399 1.52136 0
M  V30 2275 C 225.581 -0.419774 2.30814 0
M  V30 2276 C 226.597 -1.0515 1.38634 0
M  V30 2277 O 227.773 -1.05252 1.71709 0
M  V30 2278 C 224.838 -1.52019 3.11594 0
M  V30 2279 C 223.899 -0.91129 4.19516 0
M  V30 2280 C 223.132 -1.95927 4.96436 0
M  V30 2281 O 223.355 -3.17775 4.73683 0
M  V30 2282 O 222.289 -1.56423 5.81219 0
M  V30 2283 H 226.115 0.221805 3.02889 0
M  V30 2284 H 223.7 0.174547 1.48377 0
M  V30 2285 H 225.582 -2.15898 3.61892 0
M  V30 2286 H 224.257 -2.14633 2.42311 0
M  V30 2287 H 223.164 -0.235157 3.7336 0
M  V30 2288 H 224.497 -0.32904 4.91099 0
M  V30 2289 N 226.149 -1.5696 0.141893 0
M  V30 2290 C 227.112 -2.15316 -0.785587 0
M  V30 2291 C 228.112 -1.09366 -1.1788 0
M  V30 2292 O 229.302 -1.35031 -1.10056 0
M  V30 2293 C 226.434 -2.71211 -2.06537 0
M  V30 2294 H 227.627 -2.98608 -0.278041 0
M  V30 2295 H 225.18 -1.5593 -0.107519 0
M  V30 2296 H 225.915 -1.91571 -2.6167 0
M  V30 2297 H 225.7 -3.4872 -1.79268 0
M  V30 2298 H 227.19 -3.16189 -2.72789 0
M  V30 2299 N 227.627 0.131896 -1.57047 0
M  V30 2300 C 228.577 1.1679 -1.95816 0
M  V30 2301 C 229.561 1.37756 -0.831393 0
M  V30 2302 O 230.753 1.39065 -1.09499 0
M  V30 2303 C 227.882 2.49778 -2.35512 0
M  V30 2304 C 226.968 2.32342 -3.54793 0
M  V30 2305 N 227.359 1.8469 -4.70875 0
M  V30 2306 C 225.657 2.63043 -3.60173 0
M  V30 2307 C 226.358 1.80656 -5.52936 0
M  V30 2308 N 225.334 2.24528 -4.95064 0
M  V30 2309 H 229.136 0.791818 -2.83033 0
M  V30 2310 H 226.65 0.339791 -1.58805 0
M  V30 2311 H 228.647 3.24692 -2.61498 0
M  V30 2312 H 227.307 2.88156 -1.49654 0
M  V30 2313 H 228.318 1.54429 -4.9434 0
M  V30 2314 H 224.995 3.05193 -2.84892 0
M  V30 2315 H 226.385 1.45178 -6.56028 0
M  V30 2316 N 229.106 1.52395 0.401703 0
M  V30 2317 C 230.069 1.75636 1.47257 0
M  V30 2318 C 231.069 0.62628 1.48103 0
M  V30 2319 O 232.259 0.894227 1.49497 0
M  V30 2320 C 229.391 1.84553 2.86624 0
M  V30 2321 H 230.584 2.71241 1.27938 0
M  V30 2322 H 228.137 1.42923 0.632662 0
M  V30 2323 H 228.872 0.908882 3.11303 0
M  V30 2324 H 228.657 2.66715 2.87412 0
M  V30 2325 H 230.147 2.04251 3.64241 0
M  V30 2326 N 230.584 -0.659388 1.43143 0
M  V30 2327 C 231.514 -1.78422 1.50625 0
M  V30 2328 C 232.495 -1.66216 0.361443 0
M  V30 2329 O 233.68 -1.85404 0.577834 0
M  V30 2330 C 230.81 -3.16815 1.42287 0
M  V30 2331 C 229.764 -3.43777 2.54954 0
M  V30 2332 C 229.09 -4.81905 2.31671 0
M  V30 2333 C 230.39 -3.39134 3.97222 0
M  V30 2334 H 232.084 -1.72417 2.44771 0
M  V30 2335 H 229.63 -0.828084 1.17808 0
M  V30 2336 H 231.583 -3.95253 1.46127 0
M  V30 2337 H 230.307 -3.23534 0.446435 0
M  V30 2338 H 228.966 -2.67707 2.50457 0
M  V30 2339 H 228.614 -4.85294 1.32284 0
M  V30 2340 H 228.314 -5.00906 3.07192 0
M  V30 2341 H 229.838 -5.62609 2.37284 0
M  V30 2342 H 231.252 -4.07518 4.03239 0
M  V30 2343 H 229.649 -3.69671 4.72719 0
M  V30 2344 H 230.719 -2.37426 4.22797 0
M  V30 2345 N 232.062 -1.29571 -0.897171 0
M  V30 2346 C 233.478 -1.07637 -1.17841 0
M  V30 2347 C 233.678 0.170713 -2.00776 0
M  V30 2348 O 232.734 0.867768 -2.3712 0
M  V30 2349 C 234.047 -2.3332 -1.8969 0
M  V30 2350 C 235.595 -2.38664 -2.02505 0
M  V30 2351 C 236.07 -3.64157 -2.77765 0
M  V30 2352 N 237.561 -3.64894 -2.85318 0
M  V30 2353 C 238.296 -4.58679 -3.44094 0
M  V30 2354 N 237.792 -5.62799 -4.04017 0
M  V30 2355 N 239.585 -4.46245 -3.41793 0
M  V30 2356 H 231.736 -2.09598 -0.343883 0
M  V30 2357 H 233.999 -0.923333 -0.214848 0
M  V30 2358 H 233.705 -3.24262 -1.36187 0
M  V30 2359 H 233.579 -2.41025 -2.9015 0
M  V30 2360 H 235.966 -1.48208 -2.55183 0
M  V30 2361 H 236.047 -2.34943 -1.01171 0
M  V30 2362 H 235.691 -4.54965 -2.25763 0
M  V30 2363 H 235.621 -3.65137 -3.7945 0
M  V30 2364 H 238.112 -2.89613 -2.42761 0
M  V30 2365 H 238.425 -6.3048 -4.46895 0
M  V30 2366 H 236.77 -5.66605 -4.02472 0
M  V30 2367 H 239.961 -3.64094 -2.94199 0
M  V30 2368 H 240.134 -5.19518 -3.87304 0
M  V30 2369 N 233.54 1.10788 -1.12088 0
M  V30 2370 C 234.817 1.79136 -0.785476 0
M  V30 2371 C 235.197 1.98246 0.725377 0
M  V30 2372 O 234.545 1.57258 1.65778 0
M  V30 2373 C 234.755 3.12375 -1.55636 0
M  V30 2374 C 236.103 3.8731 -1.74001 0
M  V30 2375 O 237.127 3.22085 -1.52117 0
M  V30 2376 O 235.986 5.04369 -2.10415 0
M  V30 2377 H 233.08 0.776226 -0.285311 0
M  V30 2378 H 235.626 1.1747 -1.2247 0
M  V30 2379 H 234.398 2.93863 -2.5838 0
M  V30 2380 H 234.021 3.81758 -1.11114 0
M  V30 2381 N 235.018 0.912232 1.28515 0
M  V30 2382 C 236.248 0.559604 1.98877 0
M  V30 2383 C 236.656 -0.863113 1.68366 0
M  V30 2384 O 235.999 -1.58304 0.931969 0
M  V30 2385 C 236.061 0.68703 3.52874 0
M  V30 2386 C 235.725 2.07901 4.06972 0
M  V30 2387 C 236.722 3.05157 4.20922 0
M  V30 2388 C 234.407 2.39178 4.417 0
M  V30 2389 C 236.401 4.31806 4.68852 0
M  V30 2390 C 234.088 3.66068 4.89324 0
M  V30 2391 C 235.086 4.62195 5.02856 0
M  V30 2392 O 234.774 5.86829 5.49442 0
M  V30 2393 H 234.506 0.212191 0.641834 0
M  V30 2394 H 237.06 1.22712 1.64715 0
M  V30 2395 H 235.29 -0.0375486 3.86682 0
M  V30 2396 H 236.979 0.341727 4.04459 0
M  V30 2397 H 237.745 2.82311 3.94367 0
M  V30 2398 H 233.624 1.65109 4.30418 0
M  V30 2399 H 237.168 5.06842 4.79329 0
M  V30 2400 H 233.065 3.88739 5.15318 0
M  V30 2401 H 233.833 5.89597 5.6773 0
M  V30 2402 N 236.496 -1.42363 0.676048 0
M  V30 2403 C 237.426 -2.33497 0.0124832 0
M  V30 2404 C 238.407 -1.50748 -0.787981 0
M  V30 2405 O 239.592 -1.79346 -0.744884 0
M  V30 2406 C 236.722 -3.34377 -0.938582 0
M  V30 2407 C 235.676 -4.27289 -0.246622 0
M  V30 2408 C 235.002 -5.18386 -1.31071 0
M  V30 2409 C 236.302 -5.14916 0.875125 0
M  V30 2410 H 237.996 -2.89233 0.773593 0
M  V30 2411 H 235.542 -1.39073 0.37346 0
M  V30 2412 H 237.495 -3.97044 -1.41188 0
M  V30 2413 H 236.219 -2.76947 -1.73113 0
M  V30 2414 H 234.878 -3.66018 0.206456 0
M  V30 2415 H 234.526 -4.57282 -2.09528 0
M  V30 2416 H 234.226 -5.81378 -0.852839 0
M  V30 2417 H 235.75 -5.83929 -1.78492 0
M  V30 2418 H 237.164 -5.71262 0.482983 0
M  V30 2419 H 235.561 -5.86747 1.25887 0
M  V30 2420 H 236.631 -4.53242 1.72335 0
M  V30 2421 N 237.974 -0.419461 -1.51915 0
M  V30 2422 C 239.385 0.0477853 -1.86639 0
M  V30 2423 C 239.736 1.43531 -1.33766 0
M  V30 2424 O 238.861 2.05401 -0.68113 0
M  V30 2425 C 239.456 0.0934885 -3.38671 0
M  V30 2426 C 238.015 0.505097 -3.72996 0
M  V30 2427 C 237.162 -0.313792 -2.75519 0
M  V30 2428 H 240.113 -0.636088 -1.45395 0
M  V30 2429 H 240.134 0.906667 -3.6954 0
M  V30 2430 H 239.646 -0.916501 -3.77123 0
M  V30 2431 H 237.747 1.52135 -3.40126 0
M  V30 2432 H 237.86 0.242309 -4.78487 0
M  V30 2433 H 236.224 0.225363 -2.53701 0
M  V30 2434 H 237.007 -1.32232 -3.16812 0
M  V30 2435 N 239.452 1.56882 -0.150215 0
M  V30 2436 C 240.729 1.87844 0.545327 0
M  V30 2437 C 241.109 1.0567 1.82749 0
M  V30 2438 O 240.457 0.144442 2.28043 0
M  V30 2439 C 240.667 3.39526 0.80767 0
M  V30 2440 C 242.015 4.08814 1.14703 0
M  V30 2441 O 243.039 3.44723 0.896917 0
M  V30 2442 O 241.898 5.22004 1.61784 0
M  V30 2443 H 238.992 0.778677 0.278553 0
M  V30 2444 H 241.538 1.68666 -0.187068 0
M  V30 2445 H 240.31 3.91173 -0.0996096 0
M  V30 2446 H 239.933 3.64243 1.59413 0
M  V30 2447 N 240.93 -0.123565 1.57115 0
M  V30 2448 C 241.893 -1.13583 1.99076 0
M  V30 2449 C 242.893 -1.34564 0.880296 0
M  V30 2450 O 244.083 -1.31158 1.14644 0
M  V30 2451 C 241.215 -2.49128 2.32698 0
M  V30 2452 H 242.408 -0.775287 2.89706 0
M  V30 2453 H 239.961 -0.36771 1.51913 0
M  V30 2454 H 240.696 -2.90111 1.44934 0
M  V30 2455 H 240.481 -2.35255 3.13684 0
M  V30 2456 H 241.971 -3.2199 2.65918 0
M  V30 2457 N 242.408 -1.52605 -0.393616 0
M  V30 2458 C 243.655 -1.67424 -1.1391 0
M  V30 2459 C 243.983 -0.411859 -1.90089 0
M  V30 2460 O 243.238 0.605626 -1.86093 0
M  V30 2461 C 243.537 -2.85721 -2.14705 0
M  V30 2462 C 243.203 -4.23342 -1.55218 0
M  V30 2463 C 241.865 -4.60771 -1.3872 0
M  V30 2464 C 244.217 -5.09041 -1.11924 0
M  V30 2465 C 241.545 -5.81563 -0.774689 0
M  V30 2466 C 243.897 -6.30452 -0.520853 0
M  V30 2467 C 242.561 -6.66617 -0.343134 0
M  V30 2468 H 241.831 -0.612648 -0.416826 0
M  V30 2469 H 244.478 -1.8674 -0.424315 0
M  V30 2470 H 242.783 -2.60803 -2.92385 0
M  V30 2471 H 244.48 -2.94382 -2.72288 0
M  V30 2472 H 241.07 -3.93855 -1.69045 0
M  V30 2473 H 245.254 -4.80695 -1.23473 0
M  V30 2474 H 240.51 -6.08196 -0.625154 0
M  V30 2475 H 244.684 -6.96175 -0.177065 0
M  V30 2476 H 242.311 -7.60083 0.133571 0
M  V30 2477 N 243.887 0.651787 -1.4349 0
M  V30 2478 C 245.135 1.40888 -1.44897 0
M  V30 2479 C 245.456 1.94856 -0.0749086 0
M  V30 2480 O 244.726 1.74518 0.889956 0
M  V30 2481 H 243.306 0.522887 -0.533478 0
M  V30 2482 H 245.968 0.768609 -1.79104 0
M  V30 2483 H 245.064 2.25052 -2.16236 0
M  V30 2484 N 245.365 1.30045 0.890287 0
M  V30 2485 C 246.776 1.16738 1.45702 0
M  V30 2486 C 247.127 -0.233939 1.948 0
M  V30 2487 O 246.252 -1.13021 1.84541 0
M  V30 2488 C 246.847 2.11313 2.64825 0
M  V30 2489 C 245.406 2.02001 3.17604 0
M  V30 2490 C 244.553 2.01699 1.90296 0
M  V30 2491 H 247.504 1.42392 0.700726 0
M  V30 2492 H 247.525 1.69086 3.40867 0
M  V30 2493 H 247.037 3.13294 2.2906 0
M  V30 2494 H 245.138 1.03142 3.5804 0
M  V30 2495 H 245.251 2.90128 3.81264 0
M  V30 2496 H 243.615 1.46427 2.08402 0
M  V30 2497 H 244.398 3.05402 1.56795 0
M  V30 2498 N 246.843 -1.10192 1.12674 0
M  V30 2499 C 247.79 -2.16606 0.796906 0
M  V30 2500 C 248.76 -1.64394 -0.237476 0
M  V30 2501 O 249.945 -1.90474 -0.111484 0
M  V30 2502 C 247.085 -3.44116 0.26043 0
M  V30 2503 C 246.198 -4.10268 1.35293 0
M  V30 2504 C 245.333 -5.25507 0.775621 0
M  V30 2505 C 244.372 -5.83567 1.84706 0
M  V30 2506 N 243.509 -6.90179 1.28829 0
M  V30 2507 H 248.349 -2.44163 1.70846 0
M  V30 2508 H 245.886 -1.19846 0.85295 0
M  V30 2509 H 247.844 -4.17143 -0.0686814 0
M  V30 2510 H 246.474 -3.16901 -0.614274 0
M  V30 2511 H 245.526 -3.35184 1.79877 0
M  V30 2512 H 246.838 -4.4946 2.16303 0
M  V30 2513 H 245.992 -6.05398 0.397327 0
M  V30 2514 H 244.731 -4.87656 -0.0656581 0
M  V30 2515 H 243.736 -5.02344 2.23452 0
M  V30 2516 H 244.961 -6.23482 2.69161 0
M  V30 2517 H 242.907 -6.54322 0.468881 0
M  V30 2518 H 242.824 -7.28097 2.03497 0
M  V30 2519 H 244.092 -7.73844 0.937311 0
M  V30 2520 N 248.321 -0.919034 -1.28029 0
M  V30 2521 C 249.598 -0.473668 -1.89778 0
M  V30 2522 C 249.978 1.04783 -1.83259 0
M  V30 2523 O 249.326 1.8982 -1.27202 0
M  V30 2524 C 249.536 -1.00998 -3.34066 0
M  V30 2525 C 250.884 -1.06525 -4.1102 0
M  V30 2526 O 251.908 -0.958996 -3.43048 0
M  V30 2527 O 250.767 -1.22776 -5.3253 0
M  V30 2528 H 247.861 -0.15098 -0.813101 0
M  V30 2529 H 250.407 -1.01016 -1.36359 0
M  V30 2530 H 249.179 -2.05392 -3.33061 0
M  V30 2531 H 248.802 -0.454626 -3.94992 0
M  V30 2532 N 249.799 1.42003 -0.683588 0
M  V30 2533 C 250.729 2.33487 -0.024866 0
M  V30 2534 C 251.71 1.51163 0.779975 0
M  V30 2535 O 252.895 1.79739 0.735362 0
M  V30 2536 C 250.025 3.3487 0.920836 0
M  V30 2537 C 248.979 4.27414 0.223958 0
M  V30 2538 C 248.305 5.19074 1.2832 0
M  V30 2539 C 249.605 5.14445 -0.90242 0
M  V30 2540 H 251.299 2.88819 -0.788921 0
M  V30 2541 H 248.845 1.38873 -0.38083 0
M  V30 2542 H 250.798 3.97787 1.39081 0
M  V30 2543 H 249.522 2.77861 1.71642 0
M  V30 2544 H 248.181 3.65904 -0.225864 0
M  V30 2545 H 247.829 4.58387 2.071 0
M  V30 2546 H 247.529 5.81822 0.821995 0
M  V30 2547 H 249.053 5.84867 1.75392 0
M  V30 2548 H 250.467 5.70998 -0.513272 0
M  V30 2549 H 248.864 5.86072 -1.28997 0
M  V30 2550 H 249.934 4.52322 -1.74737 0
M  V30 2551 N 251.277 0.427512 1.51691 0
M  V30 2552 C 252.187 -0.39527 2.31246 0
M  V30 2553 C 253.203 -1.03674 1.39742 0
M  V30 2554 O 254.379 -1.03425 1.72816 0
M  V30 2555 C 251.444 -1.48706 3.13189 0
M  V30 2556 C 250.505 -0.866743 4.20459 0
M  V30 2557 C 249.738 -1.90651 4.98486 0
M  V30 2558 O 249.961 -3.12733 4.77026 0
M  V30 2559 O 248.895 -1.5025 5.82845 0
M  V30 2560 H 252.721 0.253918 3.02637 0
M  V30 2561 H 250.306 0.190274 1.48183 0
M  V30 2562 H 252.188 -2.12047 3.64162 0
M  V30 2563 H 250.863 -2.12051 2.44573 0
M  V30 2564 H 249.77 -0.195544 3.73589 0
M  V30 2565 H 251.103 -0.276934 4.9142 0
M  V30 2566 N 252.755 -1.56801 0.158532 0
M  V30 2567 C 254.004 -1.95665 -0.489702 0
M  V30 2568 C 254.317 -1.04654 -1.65248 0
M  V30 2569 O 255.523 -1.33146 -2.3661 0
M  V30 2570 C 253.979 -3.47874 -0.922582 0
M  V30 2571 C 253.587 -4.47489 0.213893 0
M  V30 2572 C 255.331 -3.95583 -1.53996 0
M  V30 2573 C 253.238 -5.90921 -0.237903 0
M  V30 2574 H 252.168 -0.730516 -0.186716 0
M  V30 2575 H 254.819 -1.81861 0.244722 0
M  V30 2576 H 253.201 -3.57051 -1.71261 0
M  V30 2577 H 254.375 -4.50017 0.991036 0
M  V30 2578 H 252.69 -4.09764 0.740407 0
M  V30 2579 H 255.287 -5.0019 -1.8898 0
M  V30 2580 H 255.63 -3.37789 -2.43319 0
M  V30 2581 H 256.163 -3.8937 -0.814611 0
M  V30 2582 H 252.902 -6.52559 0.620236 0
M  V30 2583 H 252.422 -5.91729 -0.980676 0
M  V30 2584 H 254.101 -6.43352 -0.686067 0
M  V30 2585 N 254.233 0.115231 -1.57178 0
M  V30 2586 C 255.18 1.14115 -2.00615 0
M  V30 2587 C 256.15 1.40939 -0.878941 0
M  V30 2588 O 257.335 1.52741 -1.14345 0
M  V30 2589 C 254.475 2.46156 -2.4187 0
M  V30 2590 C 253.588 2.26236 -3.68024 0
M  V30 2591 C 252.723 3.51534 -3.98243 0
M  V30 2592 C 251.762 3.26787 -5.17568 0
M  V30 2593 N 250.899 4.44298 -5.43639 0
M  V30 2594 H 255.739 0.763743 -2.88047 0
M  V30 2595 H 253.276 0.365615 -1.42484 0
M  V30 2596 H 255.234 3.23189 -2.63827 0
M  V30 2597 H 253.864 2.81783 -1.57475 0
M  V30 2598 H 252.916 1.40102 -3.5366 0
M  V30 2599 H 254.228 2.03929 -4.55208 0
M  V30 2600 H 253.382 4.36984 -4.20868 0
M  V30 2601 H 252.121 3.76876 -3.09541 0
M  V30 2602 H 251.126 2.39729 -4.94783 0
M  V30 2603 H 252.351 3.02812 -6.0785 0
M  V30 2604 H 250.297 4.69754 -4.57895 0
M  V30 2605 H 250.214 4.25109 -6.25154 0
M  V30 2606 H 251.482 5.3087 -5.70786 0
M  V30 2607 N 255.711 1.52812 0.385517 0
M  V30 2608 C 256.939 1.71907 1.15133 0
M  V30 2609 C 257.354 0.439004 1.83625 0
M  V30 2610 O 256.711 -0.586765 1.7281 0
M  V30 2611 C 256.762 2.87099 2.19673 0
M  V30 2612 O 256.483 4.10151 1.53973 0
M  V30 2613 C 257.984 3.17902 3.08955 0
M  V30 2614 H 255.204 0.575479 0.345057 0
M  V30 2615 H 257.748 1.99476 0.45052 0
M  V30 2616 H 255.903 2.61982 2.85384 0
M  V30 2617 H 256.317 4.74514 2.23465 0
M  V30 2618 H 257.791 4.01959 3.7833 0
M  V30 2619 H 258.268 2.3243 3.72657 0
M  V30 2620 H 258.874 3.44871 2.48885 0
M  V30 2621 N 257.189 -0.644168 1.43834 0
M  V30 2622 C 258.119 -1.76814 1.52509 0
M  V30 2623 C 259.1 -1.65823 0.379052 0
M  V30 2624 O 260.285 -1.84781 0.597466 0
M  V30 2625 C 257.415 -3.15288 1.4564 0
M  V30 2626 C 256.369 -3.41053 2.58586 0
M  V30 2627 C 255.695 -4.79421 2.36769 0
M  V30 2628 C 256.995 -3.34902 4.00797 0
M  V30 2629 H 258.689 -1.69812 2.46586 0
M  V30 2630 H 256.235 -0.815542 1.1868 0
M  V30 2631 H 258.188 -3.93681 1.50311 0
M  V30 2632 H 256.912 -3.23043 0.480725 0
M  V30 2633 H 255.571 -2.65035 2.53282 0
M  V30 2634 H 255.219 -4.83863 1.37424 0
M  V30 2635 H 254.919 -4.9762 3.12487 0
M  V30 2636 H 256.443 -5.6006 2.43238 0
M  V30 2637 H 257.857 -4.03218 4.07539 0
M  V30 2638 H 256.254 -3.64637 4.76613 0
M  V30 2639 H 257.324 -2.32928 4.25291 0
M  V30 2640 N 258.668 -1.30515 -0.883378 0
M  V30 2641 C 259.598 -1.19607 -2.00541 0
M  V30 2642 C 260.579 -0.086346 -1.69881 0
M  V30 2643 O 261.764 -0.268654 -1.92333 0
M  V30 2644 C 258.894 -0.888758 -3.35736 0
M  V30 2645 C 257.848 -1.95659 -3.8066 0
M  V30 2646 C 257.174 -1.50224 -5.13164 0
M  V30 2647 C 258.474 -3.36788 -3.99213 0
M  V30 2648 H 260.168 -2.13476 -2.09925 0
M  V30 2649 H 257.714 -1.02775 -1.00863 0
M  V30 2650 H 259.667 -0.799094 -4.13754 0
M  V30 2651 H 258.391 0.0856125 -3.26488 0
M  V30 2652 H 257.05 -2.03591 -3.04871 0
M  V30 2653 H 256.698 -0.516092 -5.00345 0
M  V30 2654 H 256.398 -2.2165 -5.44192 0
M  V30 2655 H 257.922 -1.42639 -5.93706 0
M  V30 2656 H 259.336 -3.31605 -4.67665 0
M  V30 2657 H 257.733 -4.06314 -4.41621 0
M  V30 2658 H 258.803 -3.78561 -3.03017 0
M  V30 2659 N 260.146 1.09593 -1.13257 0
M  V30 2660 C 261.079 2.15451 -0.752061 0
M  V30 2661 C 262.057 1.60493 0.260913 0
M  V30 2662 O 263.241 1.8788 0.152819 0
M  V30 2663 C 260.368 3.38506 -0.114594 0
M  V30 2664 C 259.414 4.12183 -1.09579 0
M  V30 2665 S 260.247 4.6661 -2.62745 0
M  V30 2666 C 261.403 5.92966 -2.00354 0
M  V30 2667 H 261.636 2.47395 -1.64872 0
M  V30 2668 H 259.169 1.21515 -0.952545 0
M  V30 2669 H 261.127 4.09757 0.246808 0
M  V30 2670 H 259.788 3.04784 0.759309 0
M  V30 2671 H 258.981 5.00445 -0.597545 0
M  V30 2672 H 258.583 3.46785 -1.40057 0
M  V30 2673 H 260.875 6.63882 -1.35156 0
M  V30 2674 H 261.818 6.47467 -2.86691 0
M  V30 2675 H 262.226 5.45405 -1.4558 0
M  V30 2676 N 261.624 0.925811 1.2754 0
M  V30 2677 C 262.901 0.483726 1.89524 0
M  V30 2678 C 263.281 -1.03809 1.83812 0
M  V30 2679 O 262.629 -1.89143 1.28207 0
M  V30 2680 C 262.839 1.02769 3.33526 0
M  V30 2681 C 264.187 1.08703 4.10449 0
M  V30 2682 O 265.211 0.977175 3.42534 0
M  V30 2683 O 264.07 1.25599 5.31871 0
M  V30 2684 H 261.164 0.15529 0.812289 0
M  V30 2685 H 263.71 1.01738 1.35822 0
M  V30 2686 H 262.482 2.07155 3.31967 0
M  V30 2687 H 262.105 0.475567 3.94746 0
M  V30 2688 N 263.102 -1.41638 0.69111 0
M  V30 2689 C 264.012 -2.34588 0.0233487 0
M  V30 2690 C 265.028 -1.55987 -0.770984 0
M  V30 2691 O 266.204 -1.88486 -0.709569 0
M  V30 2692 C 263.269 -3.34684 -0.904851 0
M  V30 2693 C 262.33 -4.29176 -0.103225 0
M  V30 2694 C 261.563 -5.2449 -0.987216 0
M  V30 2695 O 261.786 -5.2514 -2.22674 0
M  V30 2696 O 260.72 -6.00295 -0.439281 0
M  V30 2697 H 264.546 -2.93261 0.789416 0
M  V30 2698 H 262.131 -1.42417 0.45142 0
M  V30 2699 H 264.013 -3.96133 -1.43724 0
M  V30 2700 H 262.688 -2.78461 -1.65049 0
M  V30 2701 H 261.595 -3.71089 0.473655 0
M  V30 2702 H 262.928 -4.88484 0.60365 0
M  V30 2703 N 264.58 -0.43555 -1.51462 0
M  V30 2704 C 265.512 0.41257 -2.25456 0
M  V30 2705 C 266.525 0.987822 -1.29406 0
M  V30 2706 O 267.714 0.882266 -1.55172 0
M  V30 2707 C 264.814 1.58894 -2.99342 0
M  V30 2708 C 263.987 1.13288 -4.22474 0
M  V30 2709 C 263.046 2.17917 -4.78956 0
M  V30 2710 O 262.072 1.77425 -5.40841 0
M  V30 2711 N 263.274 3.50382 -4.62832 0
M  V30 2712 H 266.039 -0.221603 -2.9888 0
M  V30 2713 H 263.6 -0.264342 -1.59727 0
M  V30 2714 H 265.592 2.28508 -3.34015 0
M  V30 2715 H 264.162 2.12849 -2.28941 0
M  V30 2716 H 263.382 0.263881 -3.93316 0
M  V30 2717 H 264.67 0.805542 -5.02383 0
M  V30 2718 H 264.068 3.86013 -4.13534 0
M  V30 2719 H 262.625 4.15895 -5.01871 0
M  V30 2720 N 266.058 1.56714 -0.166846 0
M  V30 2721 C 267.335 1.88412 0.525373 0
M  V30 2722 C 267.715 1.07602 1.81618 0
M  V30 2723 O 267.063 0.168621 2.27877 0
M  V30 2724 C 267.273 3.40363 0.771613 0
M  V30 2725 C 268.621 4.10007 1.1036 0
M  V30 2726 O 269.645 3.45655 0.860304 0
M  V30 2727 O 268.504 5.2369 1.56239 0
M  V30 2728 H 265.598 0.781587 0.270278 0
M  V30 2729 H 268.144 1.68458 -0.204946 0
M  V30 2730 H 266.916 3.91046 -0.141093 0
M  V30 2731 H 266.539 3.65914 1.55541 0
M  V30 2732 N 267.536 -0.106894 1.57237 0
M  V30 2733 C 268.486 -1.1366 1.9765 0
M  V30 2734 C 269.47 -1.36416 0.853203 0
M  V30 2735 O 270.662 -1.37305 1.11697 0
M  V30 2736 C 267.791 -2.46 2.39455 0
M  V30 2737 C 266.877 -2.26668 3.58445 0
M  V30 2738 N 267.268 -1.77176 4.73754 0
M  V30 2739 C 265.566 -2.57279 3.64312 0
M  V30 2740 C 266.267 -1.71836 5.5574 0
M  V30 2741 N 265.243 -2.16623 4.98573 0
M  V30 2742 H 269.045 -0.74669 2.84256 0
M  V30 2743 H 266.559 -0.314483 1.59326 0
M  V30 2744 H 268.556 -3.2049 2.6663 0
M  V30 2745 H 267.216 -2.85738 1.54219 0
M  V30 2746 H 268.227 -1.46545 4.96734 0
M  V30 2747 H 264.904 -3.00622 2.89711 0
M  V30 2748 H 266.294 -1.34723 6.58255 0
M  V30 2749 N 269.014 -1.53014 -0.377408 0
M  V30 2750 C 270.262 -1.6829 -1.11906 0
M  V30 2751 C 270.583 -0.431206 -1.90173 0
M  V30 2752 O 269.853 0.554595 -1.87886 0
M  V30 2753 H 268.433 -0.620371 -0.416112 0
M  V30 2754 H 271.095 -1.90167 -0.426893 0
M  V30 2755 H 270.191 -2.53862 -1.8155 0
M  V30 2756 N 270.492 0.636531 -1.44174 0
M  V30 2757 C 271.722 1.42146 -1.49927 0
M  V30 2758 C 272.13 1.88812 -0.121063 0
M  V30 2759 O 271.473 1.61126 0.882267 0
M  V30 2760 C 271.535 2.67883 -2.39748 0
M  V30 2761 C 271.199 2.43048 -3.8701 0
M  V30 2762 C 272.196 2.05216 -4.77684 0
M  V30 2763 C 269.881 2.56856 -4.3166 0
M  V30 2764 C 271.875 1.81512 -6.11009 0
M  V30 2765 C 269.562 2.32766 -5.65034 0
M  V30 2766 C 270.56 1.95152 -6.54526 0
M  V30 2767 O 270.248 1.71326 -7.85431 0
M  V30 2768 H 269.98 0.442567 -0.51099 0
M  V30 2769 H 272.534 0.786158 -1.8976 0
M  V30 2770 H 270.764 3.34032 -1.94832 0
M  V30 2771 H 272.453 3.29874 -2.36513 0
M  V30 2772 H 273.219 1.94111 -4.44462 0
M  V30 2773 H 269.098 2.85104 -3.62266 0
M  V30 2774 H 272.642 1.52077 -6.80822 0
M  V30 2775 H 268.539 2.43479 -5.97819 0
M  V30 2776 H 269.307 1.85616 -7.97176 0
M  V30 2777 N 271.97 1.30982 0.876444 0
M  V30 2778 C 272.933 1.18054 1.96459 0
M  V30 2779 C 273.933 0.109399 1.60427 0
M  V30 2780 O 275.123 0.358173 1.70478 0
M  V30 2781 C 272.255 0.810616 3.31122 0
M  V30 2782 H 273.448 2.14735 2.09354 0
M  V30 2783 H 271.001 1.145 1.06392 0
M  V30 2784 H 271.736 -0.155322 3.23928 0
M  V30 2785 H 271.521 1.58481 3.58645 0
M  V30 2786 H 273.011 0.743876 4.10921 0
M  V30 2787 N 273.449 -1.08991 1.13837 0
M  V30 2788 C 274.379 -2.17771 0.842507 0
M  V30 2789 C 275.36 -1.6892 -0.20001 0
M  V30 2790 O 276.545 -1.94113 -0.0579731 0
M  V30 2791 C 273.675 -3.4589 0.312644 0
M  V30 2792 C 272.629 -4.08099 1.28992 0
M  V30 2793 C 271.955 -5.31098 0.619623 0
M  V30 2794 C 273.255 -4.50077 2.65005 0
M  V30 2795 H 274.949 -2.42777 1.75213 0
M  V30 2796 H 272.495 -1.16682 0.843875 0
M  V30 2797 H 274.448 -4.21297 0.0933043 0
M  V30 2798 H 273.172 -3.20419 -0.632382 0
M  V30 2799 H 271.831 -3.34717 1.49533 0
M  V30 2800 H 271.479 -5.0191 -0.33102 0
M  V30 2801 H 271.179 -5.73674 1.27167 0
M  V30 2802 H 272.703 -6.09224 0.409669 0
M  V30 2803 H 274.117 -5.16688 2.48407 0
M  V30 2804 H 272.514 -5.03553 3.26427 0
M  V30 2805 H 273.584 -3.62257 3.22332 0
M  V30 2806 N 274.927 -0.932562 -1.27047 0
M  V30 2807 C 276.155 -0.592031 -1.98249 0
M  V30 2808 C 276.57 0.831062 -1.69525 0
M  V30 2809 O 275.927 1.55299 -0.958561 0
M  V30 2810 C 275.978 -0.814279 -3.5221 0
M  V30 2811 O 275.699 -2.18139 -3.7993 0
M  V30 2812 C 277.2 -0.483121 -4.4066 0
M  V30 2813 H 274.42 -0.223896 -0.632544 0
M  V30 2814 H 276.964 -1.25091 -1.61779 0
M  V30 2815 H 275.119 -0.20213 -3.86872 0
M  V30 2816 H 275.533 -2.235 -4.74498 0
M  V30 2817 H 277.007 -0.689298 -5.47679 0
M  V30 2818 H 277.484 0.581546 -4.35333 0
M  V30 2819 H 278.09 -1.07362 -4.11526 0
M  V30 2820 N 276.405 1.4127 -0.698611 0
M  V30 2821 C 277.653 2.00782 -0.230409 0
M  V30 2822 C 277.974 1.5562 1.17505 0
M  V30 2823 O 277.244 0.78815 1.79346 0
M  V30 2824 H 275.824 0.742464 -0.0821944 0
M  V30 2825 H 278.486 1.72852 -0.90045 0
M  V30 2826 H 277.582 3.11095 -0.25021 0
M  V30 2827 N 277.883 0.443576 1.51229 0
M  V30 2828 C 279.16 -0.181038 1.9476 0
M  V30 2829 C 279.54 -1.59523 1.38259 0
M  V30 2830 O 278.888 -2.2122 0.572198 0
M  V30 2831 C 279.098 -0.152422 3.48667 0
M  V30 2832 C 280.446 -0.354923 4.23114 0
M  V30 2833 O 281.47 -0.230257 3.55455 0
M  V30 2834 O 280.329 -0.603674 5.43156 0
M  V30 2835 H 277.423 -0.1266 0.817252 0
M  V30 2836 H 279.969 0.502004 1.62105 0
M  V30 2837 H 278.741 0.836022 3.82265 0
M  V30 2838 H 278.364 -0.878107 3.87782 0
M  V30 2839 N 279.361 -1.56624 0.175154 0
M  V30 2840 C 280.324 -2.16934 -0.739738 0
M  V30 2841 C 281.324 -1.11842 -1.15533 0
M  V30 2842 O 282.514 -1.37335 -1.07167 0
M  V30 2843 C 279.646 -2.75531 -2.00738 0
M  V30 2844 H 280.839 -2.99131 -0.214639 0
M  V30 2845 H 278.392 -1.56123 -0.0744197 0
M  V30 2846 H 279.127 -1.97078 -2.57548 0
M  V30 2847 H 278.912 -3.52444 -1.71831 0
M  V30 2848 H 280.402 -3.21904 -2.66021 0
M  V30 2849 N 280.839 0.0985539 -1.57292 0
M  V30 2850 C 281.769 1.12064 -2.04851 0
M  V30 2851 C 282.75 1.41981 -0.936767 0
M  V30 2852 O 283.935 1.52071 -1.20781 0
M  V30 2853 C 281.065 2.44144 -2.47004 0
M  V30 2854 C 280.019 2.28643 -3.6181 0
M  V30 2855 C 279.345 3.65869 -3.89929 0
M  V30 2856 C 280.645 1.72986 -4.92822 0
M  V30 2857 H 282.339 0.724979 -2.9049 0
M  V30 2858 H 279.885 0.34729 -1.39749 0
M  V30 2859 H 281.838 3.15914 -2.78884 0
M  V30 2860 H 280.562 2.85639 -1.5836 0
M  V30 2861 H 279.221 1.59318 -3.30172 0
M  V30 2862 H 278.869 4.04885 -2.98458 0
M  V30 2863 H 278.569 3.56344 -4.67218 0
M  V30 2864 H 280.093 4.39112 -4.2428 0
M  V30 2865 H 281.507 2.34593 -5.23105 0
M  V30 2866 H 279.904 1.74229 -5.74251 0
M  V30 2867 H 280.974 0.689007 -4.7998 0
M  V30 2868 N 282.317 1.53212 0.369288 0
M  V30 2869 C 283.542 1.73423 1.1375 0
M  V30 2870 C 283.967 0.460404 1.82378 0
M  V30 2871 O 283.325 -0.585298 1.71592 0
M  V30 2872 C 283.373 2.89769 2.1463 0
M  V30 2873 O 282.477 2.58119 3.21634 0
M  V30 2874 H 281.818 0.576061 0.330227 0
M  V30 2875 H 284.348 2.00083 0.427547 0
M  V30 2876 H 284.358 3.15829 2.58294 0
M  V30 2877 H 283.033 3.8217 1.64071 0
M  V30 2878 H 281.61 2.42864 2.82969 0
M  V30 2879 N 283.795 -0.628877 1.44509 0
M  V30 2880 C 284.727 -1.754 1.47538 0
M  V30 2881 C 285.74 -1.58575 0.368506 0
M  V30 2882 O 286.929 -1.66847 0.634376 0
M  V30 2883 C 284.029 -3.1315 1.29577 0
M  V30 2884 C 283.202 -3.56413 2.53551 0
M  V30 2885 C 282.261 -4.7305 2.30457 0
M  V30 2886 O 281.287 -4.81247 3.03957 0
M  V30 2887 N 282.489 -5.64903 1.3366 0
M  V30 2888 H 285.254 -1.73272 2.44534 0
M  V30 2889 H 282.815 -0.813512 1.39977 0
M  V30 2890 H 284.807 -3.88902 1.11971 0
M  V30 2891 H 283.377 -3.09908 0.409371 0
M  V30 2892 H 282.597 -2.70847 2.86419 0
M  V30 2893 H 283.885 -3.82071 3.36005 0
M  V30 2894 H 283.283 -5.60975 0.729604 0
M  V30 2895 H 281.84 -6.40275 1.22032 0
M  V30 2896 N 285.273 -1.31445 -0.869486 0
M  V30 2897 C 286.236 -1.19094 -1.9583 0
M  V30 2898 C 287.236 -0.117906 -1.60367 0
M  V30 2899 O 288.426 -0.367208 -1.70286 0
M  V30 2900 C 285.558 -0.828165 -3.30688 0
M  V30 2901 H 286.751 -2.15842 -2.08212 0
M  V30 2902 H 284.304 -1.15063 -1.05784 0
M  V30 2903 H 285.039 0.138142 -3.24006 0
M  V30 2904 H 284.824 -1.6038 -3.578 0
M  V30 2905 H 286.314 -0.765658 -4.10521 0
M  V30 2906 N 286.751 1.08385 -1.14413 0
M  V30 2907 C 287.714 2.13486 -0.834048 0
M  V30 2908 C 288.714 1.59988 0.161418 0
M  V30 2909 O 289.904 1.74071 -0.0669575 0
M  V30 2910 C 287.036 3.4003 -0.243354 0
M  V30 2911 H 288.229 2.42425 -1.7655 0
M  V30 2912 H 285.782 1.24101 -0.950189 0
M  V30 2913 H 286.517 3.16726 0.696807 0
M  V30 2914 H 286.302 3.80157 -0.960367 0
M  V30 2915 H 287.792 4.17577 -0.0436242 0
M  V30 2916 N 288.23 0.939286 1.26551 0
M  V30 2917 C 289.479 0.581601 1.93133 0
M  V30 2918 C 289.792 -0.883224 1.74524 0
M  V30 2919 O 290.998 -1.3502 2.35546 0
M  V30 2920 C 289.454 0.989425 3.46032 0
M  V30 2921 C 289.062 2.47573 3.73379 0
M  V30 2922 C 290.806 0.703544 4.18629 0
M  V30 2923 C 288.713 2.82235 5.19709 0
M  V30 2924 H 287.643 0.213803 0.723052 0
M  V30 2925 H 290.294 1.14167 1.4366 0
M  V30 2926 H 288.676 0.357902 3.94379 0
M  V30 2927 H 289.85 3.15614 3.35744 0
M  V30 2928 H 288.165 2.73471 3.1401 0
M  V30 2929 H 290.762 0.938869 5.26393 0
M  V30 2930 H 291.105 -0.359639 4.14744 0
M  V30 2931 H 291.638 1.2947 3.76141 0
M  V30 2932 H 288.377 3.87509 5.28694 0
M  V30 2933 H 287.897 2.18854 5.58447 0
M  V30 2934 H 289.576 2.70599 5.87695 0
M  V30 2935 N 289.708 -1.40897 0.706093 0
M  V30 2936 C 290.671 -2.29131 0.0562841 0
M  V30 2937 C 291.671 -1.44901 -0.697166 0
M  V30 2938 O 292.861 -1.65926 -0.530484 0
M  V30 2939 C 289.993 -3.27957 -0.93043 0
M  V30 2940 H 291.186 -2.88091 0.833284 0
M  V30 2941 H 288.739 -1.4906 0.470192 0
M  V30 2942 H 289.474 -2.73997 -1.73482 0
M  V30 2943 H 289.259 -3.90124 -0.393166 0
M  V30 2944 H 290.749 -3.94049 -1.38256 0
M  V30 2945 N 291.186 -0.45159 -1.50991 0
M  V30 2946 C 292.149 0.341117 -2.26647 0
M  V30 2947 C 293.149 0.937422 -1.30649 0
M  V30 2948 O 294.339 0.809644 -1.54241 0
M  V30 2949 C 291.471 1.48398 -3.06905 0
M  V30 2950 H 292.664 -0.322117 -2.98165 0
M  V30 2951 H 290.217 -0.205122 -1.54948 0
M  V30 2952 H 290.952 2.18284 -2.39838 0
M  V30 2953 H 290.737 1.06241 -3.77432 0
M  V30 2954 H 292.227 2.04367 -3.64176 0
M  V30 2955 N 292.664 1.56529 -0.183458 0
M  V30 2956 C 293.627 2.17324 0.728223 0
M  V30 2957 C 294.627 1.12453 1.14939 0
M  V30 2958 O 295.817 1.37902 1.06437 0
M  V30 2959 C 292.949 2.76591 1.99274 0
M  V30 2960 H 294.142 2.99241 0.198772 0
M  V30 2961 H 291.695 1.5616 0.0661391 0
M  V30 2962 H 292.43 1.98441 2.56499 0
M  V30 2963 H 292.215 3.5335 1.69959 0
M  V30 2964 H 293.705 3.23311 2.6431 0
M  V30 2965 N 294.142 -0.090211 1.57342 0
M  V30 2966 C 295.09 -1.12792 2.03422 0
M  V30 2967 C 296.084 -1.41182 0.936166 0
M  V30 2968 O 297.29 -1.40805 1.12133 0
M  V30 2969 H 293.665 -0.380986 0.648347 0
M  V30 2970 H 295.636 -0.71299 2.89757 0
M  V30 2971 C 294.385 -2.43855 2.47851 0
M  V30 2972 H 293.708 -2.22855 3.31927 0
M  V30 2973 H 295.148 -3.14955 2.83865 0
M  V30 2974 C 293.607 -3.08503 1.3538 0
M  V30 2975 O 294.137 -3.95805 0.685641 0
M  V30 2976 N 292.343 -2.68831 1.10355 0
M  V30 2977 H 291.89 -1.97929 1.64869 0
M  V30 2978 H 291.848 -3.12412 0.353031 0
M  V30 2979 N 295.62 -1.53406 -0.361157 0
M  V30 2980 C 297.036 -1.43277 -0.703124 0
M  V30 2981 C 297.236 -0.575384 -1.9311 0
M  V30 2982 O 296.292 -0.0595362 -2.5243 0
M  V30 2983 C 297.605 -2.8653 -0.9122 0
M  V30 2984 C 299.153 -2.96191 -1.01193 0
M  V30 2985 C 299.628 -4.40514 -1.25345 0
M  V30 2986 N 301.119 -4.43962 -1.32105 0
M  V30 2987 C 301.854 -5.52746 -1.5251 0
M  V30 2988 N 301.35 -6.71567 -1.70203 0
M  V30 2989 N 303.143 -5.40331 -1.54916 0
M  V30 2990 H 295.294 -2.07654 0.446475 0
M  V30 2991 H 297.557 -0.937944 0.137715 0
M  V30 2992 H 297.263 -3.51605 -0.0816414 0
M  V30 2993 H 297.137 -3.30441 -1.81903 0
M  V30 2994 H 299.524 -2.31266 -1.83303 0
M  V30 2995 H 299.605 -2.55667 -0.0823929 0
M  V30 2996 H 299.249 -5.06014 -0.437346 0
M  V30 2997 H 299.179 -4.78614 -2.19627 0
M  V30 2998 H 301.67 -3.58332 -1.20028 0
M  V30 2999 H 301.983 -7.50241 -1.85359 0
M  V30 3000 H 300.328 -6.74545 -1.67373 0
M  V30 3001 H 303.519 -4.46465 -1.40663 0
M  V30 3002 H 303.692 -6.25173 -1.70477 0
M  V30 3003 N 297.098 0.621204 -1.44841 0
M  V30 3004 C 298.323 1.41244 -1.51871 0
M  V30 3005 C 298.748 1.87519 -0.147764 0
M  V30 3006 O 298.106 1.59334 0.865 0
M  V30 3007 C 298.154 2.60221 -2.49634 0
M  V30 3008 O 297.258 3.60395 -2.00473 0
M  V30 3009 H 296.599 0.42223 -0.512463 0
M  V30 3010 H 299.129 0.757305 -1.90069 0
M  V30 3011 H 299.139 3.0764 -2.67996 0
M  V30 3012 H 297.814 2.25887 -3.4921 0
M  V30 3013 H 296.391 3.19717 -1.91925 0
M  V30 3014 N 298.576 1.31904 0.862503 0
M  V30 3015 C 299.526 1.16772 1.95827 0
M  V30 3016 C 300.51 0.0767098 1.60717 0
M  V30 3017 O 301.702 0.302407 1.74398 0
M  V30 3018 C 298.831 0.884858 3.317 0
M  V30 3019 C 297.917 2.0172 3.73055 0
M  V30 3020 N 298.308 3.265 3.86305 0
M  V30 3021 C 296.606 1.91861 4.02623 0
M  V30 3022 C 297.307 4.00616 4.2176 0
M  V30 3023 N 296.283 3.28847 4.32852 0
M  V30 3024 H 300.085 2.11382 2.04193 0
M  V30 3025 H 297.599 1.2357 1.05377 0
M  V30 3026 H 299.596 0.757419 4.09962 0
M  V30 3027 H 298.256 -0.0529448 3.24657 0
M  V30 3028 H 299.267 3.61529 3.70833 0
M  V30 3029 H 295.944 1.05593 4.03926 0
M  V30 3030 H 297.334 5.08182 4.39546 0
M  V30 3031 N 300.054 -1.07777 1.14986 0
M  V30 3032 C 300.987 -2.14228 0.786243 0
M  V30 3033 C 301.965 -1.60888 -0.235347 0
M  V30 3034 O 303.149 -1.88099 -0.122909 0
M  V30 3035 C 300.276 -3.38281 0.168433 0
M  V30 3036 C 299.322 -4.10387 1.16123 0
M  V30 3037 S 300.155 -4.62371 2.70135 0
M  V30 3038 C 301.311 -5.89704 2.09762 0
M  V30 3039 H 301.544 -2.44741 1.68787 0
M  V30 3040 H 299.077 -1.19984 0.971756 0
M  V30 3041 H 301.035 -4.10098 -0.181588 0
M  V30 3042 H 299.696 -3.05953 -0.710725 0
M  V30 3043 H 298.889 -4.99431 0.677086 0
M  V30 3044 H 298.491 -3.44513 1.45556 0
M  V30 3045 H 300.783 -6.61648 1.45701 0
M  V30 3046 H 301.726 -6.42824 2.96955 0
M  V30 3047 H 302.134 -5.4302 1.54239 0
M  V30 3048 N 301.532 -0.945985 -1.26051 0
M  V30 3049 C 302.943 -0.638096 -1.75457 0
M  V30 3050 C 303.294 0.846672 -1.76991 0
M  V30 3051 O 302.419 1.66262 -1.38513 0
M  V30 3052 C 303.014 -1.15157 -3.18629 0
M  V30 3053 C 301.573 -0.894004 -3.65629 0
M  V30 3054 C 300.72 -1.29967 -2.44957 0
M  V30 3055 H 303.671 -1.12376 -1.1206 0
M  V30 3056 H 303.692 -0.507615 -3.77099 0
M  V30 3057 H 303.204 -2.23222 -3.1748 0
M  V30 3058 H 301.305 0.172057 -3.72203 0
M  V30 3059 H 301.418 -1.52439 -4.54202 0
M  V30 3060 H 299.782 -0.718078 -2.44368 0
M  V30 3061 H 300.565 -2.38935 -2.46505 0
M  V30 3062 N 303.011 1.40521 -0.713556 0
M  V30 3063 C 304.241 2.0494 -0.261395 0
M  V30 3064 C 304.649 1.53861 1.10107 0
M  V30 3065 O 303.992 0.689321 1.70276 0
M  V30 3066 C 304.054 3.59138 -0.161227 0
M  V30 3067 C 303.718 4.33096 -1.45865 0
M  V30 3068 C 304.715 4.61182 -2.40016 0
M  V30 3069 C 302.4 4.72043 -1.71701 0
M  V30 3070 C 304.394 5.27196 -3.58251 0
M  V30 3071 C 302.081 5.37789 -2.90218 0
M  V30 3072 C 303.079 5.65295 -3.83315 0
M  V30 3073 O 302.767 6.29683 -4.99754 0
M  V30 3074 H 302.499 0.666041 -0.115608 0
M  V30 3075 H 305.053 1.80954 -0.971849 0
M  V30 3076 H 303.283 3.81936 0.605153 0
M  V30 3077 H 304.972 4.05091 0.256105 0
M  V30 3078 H 305.738 4.31559 -2.21318 0
M  V30 3079 H 301.617 4.50003 -1.00092 0
M  V30 3080 H 305.161 5.48582 -4.30934 0
M  V30 3081 H 301.058 5.66831 -3.08825 0
M  V30 3082 H 301.826 6.4818 -4.99805 0
M  V30 3083 N 304.489 0.459591 1.5075 0
M  V30 3084 C 305.714 -0.0996819 2.0716 0
M  V30 3085 C 306.139 -1.33761 1.32249 0
M  V30 3086 O 305.497 -1.77551 0.366786 0
M  V30 3087 C 305.545 -0.378226 3.58611 0
M  V30 3088 O 304.649 -1.46081 3.85661 0
M  V30 3089 H 303.99 0.00791392 0.663953 0
M  V30 3090 H 306.52 0.647329 1.9409 0
M  V30 3091 H 306.53 -0.622135 4.03229 0
M  V30 3092 H 305.205 0.526439 4.12555 0
M  V30 3093 H 303.782 -1.20511 3.5289 0
M  V30 3094 N 305.967 -1.56429 0.191757 0
M  V30 3095 C 306.914 -2.18936 -0.730454 0
M  V30 3096 C 307.884 -1.13557 -1.21219 0
M  V30 3097 O 309.069 -1.41794 -1.27668 0
M  V30 3098 C 306.209 -2.85013 -1.9458 0
M  V30 3099 C 305.322 -4.04909 -1.50574 0
M  V30 3100 C 304.457 -4.58853 -2.67634 0
M  V30 3101 C 303.496 -5.71114 -2.20217 0
M  V30 3102 N 302.633 -6.19478 -3.30442 0
M  V30 3103 H 307.473 -2.97389 -0.190664 0
M  V30 3104 H 305.01 -1.46869 -0.0823694 0
M  V30 3105 H 306.968 -3.21492 -2.65893 0
M  V30 3106 H 305.598 -2.09129 -2.45896 0
M  V30 3107 H 304.65 -3.74115 -0.688605 0
M  V30 3108 H 305.962 -4.86113 -1.11784 0
M  V30 3109 H 305.116 -4.97619 -3.47074 0
M  V30 3110 H 303.855 -3.76749 -3.09696 0
M  V30 3111 H 302.86 -5.31879 -1.3923 0
M  V30 3112 H 304.085 -6.55033 -1.79189 0
M  V30 3113 H 302.031 -5.40297 -3.72041 0
M  V30 3114 H 301.948 -6.95725 -2.9581 0
M  V30 3115 H 303.216 -6.62898 -4.10106 0
M  V30 3116 N 307.445 0.0818655 -1.57387 0
M  V30 3117 C 308.67 0.799946 -1.91352 0
M  V30 3118 C 309.095 1.70833 -0.787258 0
M  V30 3119 O 308.453 1.79419 0.26048 0
M  V30 3120 C 308.501 1.57812 -3.24234 0
M  V30 3121 O 307.605 2.68806 -3.12757 0
M  V30 3122 H 306.946 0.21891 -0.626877 0
M  V30 3123 H 309.476 0.0531256 -2.04531 0
M  V30 3124 H 309.486 1.95952 -3.57864 0
M  V30 3125 H 308.161 0.911548 -4.05788 0
M  V30 3126 H 306.738 2.33597 -2.90666 0
M  V30 3127 N 308.923 1.53595 0.353017 0
M  V30 3128 C 310.334 1.61937 0.929153 0
M  V30 3129 C 310.685 0.494686 1.89861 0
M  V30 3130 O 309.81 -0.377017 2.1309 0
M  V30 3131 C 310.405 2.93526 1.69199 0
M  V30 3132 C 308.964 3.04161 2.21727 0
M  V30 3133 C 308.111 2.57322 1.03348 0
M  V30 3134 H 311.062 1.58155 0.131431 0
M  V30 3135 H 311.083 2.82034 2.55416 0
M  V30 3136 H 310.595 3.75362 0.986144 0
M  V30 3137 H 308.696 2.26938 2.95516 0
M  V30 3138 H 308.809 4.09465 2.48748 0
M  V30 3139 H 307.173 2.12499 1.40414 0
M  V30 3140 H 307.956 3.41588 0.342428 0
M  V30 3141 N 310.401 -0.613514 1.45168 0
M  V30 3142 C 311.626 -1.40437 1.52618 0
M  V30 3143 C 312.051 -1.87438 0.157707 0
M  V30 3144 O 311.409 -1.59791 -0.856537 0
M  V30 3145 C 311.457 -2.58894 2.51011 0
M  V30 3146 O 310.561 -3.59326 2.02382 0
M  V30 3147 H 309.902 -0.419506 0.514695 0
M  V30 3148 H 312.432 -0.747215 1.90467 0
M  V30 3149 H 312.442 -3.06214 2.69624 0
M  V30 3150 H 311.117 -2.24032 3.50403 0
M  V30 3151 H 309.694 -3.18695 1.93618 0
M  V30 3152 N 311.879 -1.3236 -0.855495 0
M  V30 3153 C 313.127 -1.22629 -1.60644 0
M  V30 3154 C 313.448 0.212136 -1.93843 0
M  V30 3155 O 312.718 1.13666 -1.59552 0
M  V30 3156 H 311.298 -0.450882 -0.595579 0
M  V30 3157 H 313.96 -1.65871 -1.02337 0
M  V30 3158 H 313.056 -1.80832 -2.54374 0
M  V30 3159 N 313.357 1.07166 -1.15556 0
M  V30 3160 C 314.603 1.80065 -0.932984 0
M  V30 3161 C 314.936 1.86586 0.53845 0
M  V30 3162 O 314.211 1.35098 1.39924 0
M  V30 3163 C 314.494 3.25022 -1.55025 0
M  V30 3164 C 314.347 3.26634 -3.09242 0
M  V30 3165 C 315.666 4.22341 -1.2376 0
M  V30 3166 H 312.785 0.653697 -0.340366 0
M  V30 3167 H 315.427 1.25389 -1.4275 0
M  V30 3168 H 313.577 3.71712 -1.12972 0
M  V30 3169 H 315.249 2.88173 -3.60214 0
M  V30 3170 H 313.492 2.65539 -3.43033 0
M  V30 3171 H 314.163 4.28854 -3.47546 0
M  V30 3172 H 316.639 3.8405 -1.60139 0
M  V30 3173 H 315.515 5.22053 -1.69564 0
M  V30 3174 H 315.776 4.41828 -0.154938 0
M  V30 3175 N 314.835 0.952656 1.25548 0
M  V30 3176 C 315.798 0.475794 2.24207 0
M  V30 3177 C 316.798 -0.419428 1.55234 0
M  V30 3178 O 317.988 -0.216994 1.72843 0
M  V30 3179 C 315.12 -0.312814 3.39462 0
M  V30 3180 H 316.313 1.34779 2.67908 0
M  V30 3181 H 313.866 0.735739 1.37901 0
M  V30 3182 H 314.601 -1.20257 3.01179 0
M  V30 3183 H 314.386 0.329404 3.90714 0
M  V30 3184 H 315.876 -0.635986 4.12729 0
M  V30 3185 N 316.313 -1.40141 0.720998 0
M  V30 3186 C 317.243 -2.33339 0.0867621 0
M  V30 3187 C 318.224 -1.53178 -0.739622 0
M  V30 3188 O 319.409 -1.81625 -0.687449 0
M  V30 3189 C 316.539 -3.37194 -0.831728 0
M  V30 3190 C 315.493 -4.27857 -0.110558 0
M  V30 3191 C 314.819 -5.22294 -1.14513 0
M  V30 3192 C 316.119 -5.11872 1.0385 0
M  V30 3193 H 317.813 -2.86626 0.865219 0
M  V30 3194 H 315.359 -1.37814 0.417516 0
M  V30 3195 H 317.312 -4.01335 -1.28485 0
M  V30 3196 H 316.036 -2.82314 -1.64214 0
M  V30 3197 H 314.695 -3.65176 0.322797 0
M  V30 3198 H 314.343 -4.63717 -1.94874 0
M  V30 3199 H 314.043 -5.83797 -0.667446 0
M  V30 3200 H 315.567 -5.89312 -1.59824 0
M  V30 3201 H 316.981 -5.69436 0.664482 0
M  V30 3202 H 315.378 -5.82445 1.4449 0
M  V30 3203 H 316.448 -4.4753 1.86668 0
M  V30 3204 N 317.792 -0.46758 -1.50504 0
M  V30 3205 C 318.702 0.33382 -2.32213 0
M  V30 3206 C 319.718 0.999323 -1.42441 0
M  V30 3207 O 320.894 0.988068 -1.75497 0
M  V30 3208 C 317.959 1.4035 -3.17022 0
M  V30 3209 C 317.02 0.754961 -4.2261 0
M  V30 3210 C 316.253 1.77367 -5.03365 0
M  V30 3211 O 316.476 2.99976 -4.8515 0
M  V30 3212 O 315.41 1.34744 -5.86624 0
M  V30 3213 H 319.236 -0.334067 -3.01857 0
M  V30 3214 H 316.821 -0.229496 -1.47627 0
M  V30 3215 H 318.703 2.02318 -3.69656 0
M  V30 3216 H 317.378 2.05492 -2.5011 0
M  V30 3217 H 316.285 0.0964244 -3.73976 0
M  V30 3218 H 317.618 0.146545 -4.91982 0
M  V30 3219 N 319.27 1.56325 -0.20005 0
M  V30 3220 C 320.51 1.99619 0.439519 0
M  V30 3221 C 320.874 1.08423 1.58456 0
M  V30 3222 O 322.075 1.40973 2.28867 0
M  V30 3223 C 320.346 3.46314 0.883258 0
M  V30 3224 S 321.905 4.11634 1.51997 0
M  V30 3225 H 318.723 0.697007 0.140363 0
M  V30 3226 H 321.325 1.93118 -0.304282 0
M  V30 3227 H 320.029 4.10381 0.0398967 0
M  V30 3228 H 319.56 3.56643 1.6604 0
M  V30 3229 H 321.575 4.09049 2.8088 0
M  V30 3230 N 320.748 -0.0735177 1.57428 0
M  V30 3231 C 321.695 -1.08756 2.0357 0
M  V30 3232 C 322.665 -1.38559 0.916 0
M  V30 3233 O 323.85 -1.49656 1.18354 0
M  V30 3234 C 320.99 -2.39657 2.48311 0
M  V30 3235 C 320.103 -2.16399 3.73892 0
M  V30 3236 C 319.238 -3.40852 4.07423 0
M  V30 3237 C 318.277 -3.1295 5.2605 0
M  V30 3238 N 317.414 -4.29729 5.55228 0
M  V30 3239 H 322.254 -0.687104 2.8997 0
M  V30 3240 H 319.791 -0.327709 1.43403 0
M  V30 3241 H 321.749 -3.16081 2.72303 0
M  V30 3242 H 320.379 -2.77508 1.64891 0
M  V30 3243 H 319.431 -1.30676 3.57251 0
M  V30 3244 H 320.743 -1.91788 4.60455 0
M  V30 3245 H 319.897 -4.25671 4.32306 0
M  V30 3246 H 318.636 -3.68537 3.19425 0
M  V30 3247 H 317.641 -2.26526 5.00965 0
M  V30 3248 H 318.866 -2.86589 6.15665 0
M  V30 3249 H 316.812 -4.57448 4.70188 0
M  V30 3250 H 316.729 -4.08385 6.36206 0
M  V30 3251 H 317.997 -5.1555 5.84661 0
M  V30 3252 N 322.226 -1.5378 -0.344866 0
M  V30 3253 C 323.503 -1.61589 -1.10219 0
M  V30 3254 C 323.883 -0.436316 -2.06542 0
M  V30 3255 O 323.231 0.571543 -2.21237 0
M  V30 3256 C 323.441 -2.97602 -1.82301 0
M  V30 3257 C 324.789 -3.5291 -2.36093 0
M  V30 3258 O 325.813 -2.99768 -1.924 0
M  V30 3259 O 324.672 -4.45859 -3.16026 0
M  V30 3260 H 321.766 -0.653522 -0.506792 0
M  V30 3261 H 324.312 -1.66126 -0.346465 0
M  V30 3262 H 323.084 -3.74893 -1.12121 0
M  V30 3263 H 322.707 -2.9665 -2.64735 0
M  V30 3264 N 323.704 0.605807 -1.45491 0
M  V30 3265 C 324.952 1.36207 -1.49305 0
M  V30 3266 C 325.273 1.94519 -0.136863 0
M  V30 3267 O 324.543 1.77261 0.833983 0
M  V30 3268 H 323.123 0.50565 -0.549843 0
M  V30 3269 H 325.785 0.711239 -1.81459 0
M  V30 3270 H 324.881 2.18058 -2.23287 0
M  V30 3271 N 325.182 1.32811 0.848464 0
M  V30 3272 C 326.598 1.11937 1.13764 0
M  V30 3273 C 326.798 -0.0960789 2.01271 0
M  V30 3274 O 325.854 -0.779165 2.40178 0
M  V30 3275 C 327.167 2.402 1.809 0
M  V30 3276 C 328.715 2.46016 1.93508 0
M  V30 3277 C 329.19 3.74215 2.64059 0
M  V30 3278 N 330.681 3.75232 2.71579 0
M  V30 3279 C 331.416 4.71134 3.26833 0
M  V30 3280 N 330.912 5.77406 3.8285 0
M  V30 3281 N 332.705 4.58623 3.24995 0
M  V30 3282 H 324.856 2.1073 0.265855 0
M  V30 3283 H 327.119 0.930671 0.180431 0
M  V30 3284 H 326.825 3.29093 1.24058 0
M  V30 3285 H 326.699 2.51628 2.81004 0
M  V30 3286 H 329.086 1.57577 2.49506 0
M  V30 3287 H 329.167 2.38536 0.923811 0
M  V30 3288 H 328.811 4.63031 2.08722 0
M  V30 3289 H 328.741 3.78968 3.65637 0
M  V30 3290 H 331.232 2.98423 2.31845 0
M  V30 3291 H 331.545 6.46632 4.23187 0
M  V30 3292 H 329.89 5.81152 3.81165 0
M  V30 3293 H 333.081 3.74762 2.80484 0
M  V30 3294 H 333.254 5.33535 3.67756 0
M  V30 3295 N 326.66 -1.06551 1.16123 0
M  V30 3296 C 327.909 -1.78687 0.935622 0
M  V30 3297 C 328.222 -1.88056 -0.538001 0
M  V30 3298 O 329.428 -2.56794 -0.88143 0
M  V30 3299 C 327.884 -3.21143 1.62466 0
M  V30 3300 C 327.492 -3.19949 3.13587 0
M  V30 3301 C 329.236 -3.9783 1.48092 0
M  V30 3302 C 327.143 -4.57108 3.75241 0
M  V30 3303 H 326.073 -0.669712 0.346412 0
M  V30 3304 H 328.724 -1.19534 1.39226 0
M  V30 3305 H 327.106 -3.80539 1.09572 0
M  V30 3306 H 328.28 -2.70151 3.73303 0
M  V30 3307 H 326.595 -2.5676 3.27816 0
M  V30 3308 H 329.192 -4.99217 1.91538 0
M  V30 3309 H 329.535 -4.14078 0.429507 0
M  V30 3310 H 330.068 -3.4495 1.98127 0
M  V30 3311 H 326.807 -4.46065 4.80319 0
M  V30 3312 H 326.327 -5.07111 3.20309 0
M  V30 3313 H 328.006 -5.26069 3.76644 0
M  V30 3314 N 328.138 -0.959301 -1.25041 0
M  V30 3315 C 329.385 -0.616611 -1.92884 0
M  V30 3316 C 329.713 0.847036 -1.75087 0
M  V30 3317 O 328.968 1.62374 -1.09239 0
M  V30 3318 C 329.267 -0.927136 -3.45165 0
M  V30 3319 C 328.933 -2.37757 -3.83122 0
M  V30 3320 C 327.595 -2.77402 -3.93194 0
M  V30 3321 C 329.947 -3.31929 -4.01836 0
M  V30 3322 C 327.275 -4.10277 -4.19392 0
M  V30 3323 C 329.627 -4.64423 -4.29528 0
M  V30 3324 C 328.291 -5.03857 -4.37818 0
M  V30 3325 H 327.561 -0.225634 -0.705812 0
M  V30 3326 H 330.208 -1.20921 -1.48493 0
M  V30 3327 H 328.513 -0.252195 -3.90987 0
M  V30 3328 H 330.21 -0.6405 -3.95852 0
M  V30 3329 H 326.8 -2.06013 -3.75841 0
M  V30 3330 H 330.984 -3.02488 -3.93465 0
M  V30 3331 H 326.24 -4.40467 -4.24027 0
M  V30 3332 H 330.414 -5.37369 -4.42953 0
M  V30 3333 H 328.041 -6.06843 -4.57871 0
M  V30 3334 N 329.616 1.39756 -0.72842 0
M  V30 3335 C 330.841 2.05472 -0.282159 0
M  V30 3336 C 331.266 1.54549 1.07221 0
M  V30 3337 O 330.624 0.686372 1.67805 0
M  V30 3338 C 330.672 3.59462 -0.286264 0
M  V30 3339 O 329.776 4.05918 0.728298 0
M  V30 3340 H 329.117 0.651226 -0.129618 0
M  V30 3341 H 331.647 1.78915 -0.992499 0
M  V30 3342 H 331.657 4.07798 -0.128373 0
M  V30 3343 H 330.332 3.95889 -1.27456 0
M  V30 3344 H 328.909 3.69012 0.537081 0
M  V30 3345 N 331.094 0.475555 1.50254 0
M  V30 3346 C 332.342 -0.077738 2.0195 0
M  V30 3347 C 332.663 -1.39813 1.35931 0
M  V30 3348 O 331.933 -1.89249 0.506123 0
M  V30 3349 H 330.513 -0.031719 0.746326 0
M  V30 3350 H 333.175 0.626995 1.84539 0
M  V30 3351 H 332.271 -0.225995 3.11281 0
M  V30 3352 N 332.573 -1.56217 0.208337 0
M  V30 3353 C 333.798 -2.02782 -0.435222 0
M  V30 3354 C 334.223 -1.08738 -1.53485 0
M  V30 3355 O 333.581 -0.0731855 -1.81152 0
M  V30 3356 C 333.629 -3.47687 -0.956335 0
M  V30 3357 O 332.733 -3.56773 -2.06849 0
M  V30 3358 H 332.074 -0.656403 -0.100158 0
M  V30 3359 H 334.604 -2.02033 0.3231 0
M  V30 3360 H 334.614 -3.87745 -1.26955 0
M  V30 3361 H 333.289 -4.15624 -0.15143 0
M  V30 3362 H 331.866 -3.28597 -1.76292 0
M  V30 3363 N 334.051 0.0651679 -1.57465 0
M  V30 3364 C 335.281 0.774683 -1.91526 0
M  V30 3365 C 335.689 1.71305 -0.803196 0
M  V30 3366 O 335.032 1.82231 0.231881 0
M  V30 3367 C 335.094 1.61645 -3.21109 0
M  V30 3368 C 334.758 0.846753 -4.49087 0
M  V30 3369 C 335.755 0.163024 -5.19644 0
M  V30 3370 C 333.44 0.811966 -4.95694 0
M  V30 3371 C 335.434 -0.54519 -6.35064 0
M  V30 3372 C 333.121 0.0999836 -6.11018 0
M  V30 3373 C 334.119 -0.577388 -6.80555 0
M  V30 3374 O 333.807 -1.27789 -7.93678 0
M  V30 3375 H 333.539 0.225031 -0.637446 0
M  V30 3376 H 336.093 0.0377134 -2.05365 0
M  V30 3377 H 334.323 2.39638 -3.03497 0
M  V30 3378 H 336.012 2.20525 -3.40769 0
M  V30 3379 H 336.778 0.181163 -4.84662 0
M  V30 3380 H 332.657 1.32867 -4.41438 0
M  V30 3381 H 336.201 -1.07446 -6.89276 0
M  V30 3382 H 332.098 0.0797945 -6.45451 0
M  V30 3383 H 332.866 -1.18784 -8.09835 0
M  V30 3384 N 335.529 1.53961 0.336706 0
M  V30 3385 C 336.492 1.81724 1.39675 0
M  V30 3386 C 337.492 0.688532 1.45313 0
M  V30 3387 O 338.682 0.956829 1.45569 0
M  V30 3388 C 335.814 1.96543 2.78538 0
M  V30 3389 H 337.007 2.76424 1.16318 0
M  V30 3390 H 334.56 1.45478 0.571474 0
M  V30 3391 H 335.295 1.0401 3.07168 0
M  V30 3392 H 335.08 2.78665 2.75841 0
M  V30 3393 H 336.57 2.19516 3.5525 0
M  V30 3394 N 337.007 -0.598083 1.45811 0
M  V30 3395 C 337.917 -1.73632 1.57763 0
M  V30 3396 C 338.933 -1.67763 0.461676 0
M  V30 3397 O 340.109 -1.87949 0.723685 0
M  V30 3398 C 337.174 -3.10114 1.55018 0
M  V30 3399 C 336.235 -3.27364 2.77726 0
M  V30 3400 C 335.468 -4.57334 2.75102 0
M  V30 3401 O 335.691 -5.40258 1.8297 0
M  V30 3402 O 334.625 -4.77502 3.66437 0
M  V30 3403 H 338.451 -1.66498 2.53992 0
M  V30 3404 H 336.036 -0.763308 1.28429 0
M  V30 3405 H 337.918 -3.9141 1.56129 0
M  V30 3406 H 336.593 -3.17718 0.619431 0
M  V30 3407 H 335.5 -2.45619 2.82174 0
M  V30 3408 H 336.833 -3.24641 3.69958 0
M  V30 3409 N 338.485 -1.33259 -0.841409 0
M  V30 3410 C 339.433 -1.23279 -1.97244 0
M  V30 3411 C 340.427 -0.134706 -1.68864 0
M  V30 3412 O 341.633 -0.298501 -1.77508 0
M  V30 3413 H 338.008 -0.382497 -0.647457 0
M  V30 3414 H 339.979 -2.18906 -2.02787 0
M  V30 3415 C 338.728 -0.986268 -3.33419 0
M  V30 3416 H 338.051 -1.82347 -3.55794 0
M  V30 3417 H 339.491 -0.956728 -4.13065 0
M  V30 3418 C 337.95 0.310842 -3.35463 0
M  V30 3419 O 338.48 1.31838 -3.79449 0
M  V30 3420 N 336.686 0.337485 -2.88634 0
M  V30 3421 H 336.233 -0.482967 -2.53032 0
M  V30 3422 H 336.191 1.20518 -2.90384 0
M  V30 3423 N 339.963 1.05934 -1.16686 0
M  V30 3424 C 340.926 2.11669 -0.879144 0
M  V30 3425 C 341.926 1.60294 0.127445 0
M  V30 3426 O 343.116 1.7389 -0.103865 0
M  V30 3427 C 340.248 3.39438 -0.315425 0
M  V30 3428 H 341.441 2.38626 -1.81653 0
M  V30 3429 H 338.994 1.22058 -0.976299 0
M  V30 3430 H 339.729 3.18132 0.629468 0
M  V30 3431 H 339.514 3.78034 -1.04079 0
M  V30 3432 H 341.004 4.17391 -0.132189 0
M  V30 3433 N 341.441 0.965919 1.2453 0
M  V30 3434 C 342.404 0.499547 2.2369 0
M  V30 3435 C 343.404 -0.40294 1.5567 0
M  V30 3436 O 344.594 -0.19865 1.73064 0
M  V30 3437 C 341.726 -0.276792 3.39774 0
M  V30 3438 H 342.919 1.37613 2.66463 0
M  V30 3439 H 340.472 0.750324 1.37112 0
M  V30 3440 H 341.207 -1.17055 3.02438 0
M  V30 3441 H 340.992 0.370826 3.90343 0
M  V30 3442 H 342.482 -0.592175 4.1338 0
M  V30 3443 N 342.919 -1.39368 0.735821 0
M  V30 3444 C 344.166 -2.00497 0.284123 0
M  V30 3445 C 344.494 -1.58387 -1.12889 0
M  V30 3446 O 343.749 -0.804359 -1.78406 0
M  V30 3447 C 344.048 -3.5583 0.334651 0
M  V30 3448 C 343.714 -4.17593 1.7008 0
M  V30 3449 C 342.376 -4.34176 2.07472 0
M  V30 3450 C 344.728 -4.51848 2.59775 0
M  V30 3451 C 342.056 -4.82304 3.34065 0
M  V30 3452 C 344.408 -5.01384 3.85741 0
M  V30 3453 C 343.072 -5.16175 4.23225 0
M  V30 3454 H 342.342 -0.73367 0.103968 0
M  V30 3455 H 344.989 -1.66683 0.942825 0
M  V30 3456 H 343.294 -3.89674 -0.407625 0
M  V30 3457 H 344.991 -4.00986 -0.0329927 0
M  V30 3458 H 341.581 -4.05087 1.40008 0
M  V30 3459 H 345.765 -4.38653 2.32157 0
M  V30 3460 H 341.021 -4.91941 3.63049 0
M  V30 3461 H 345.195 -5.26863 4.55399 0
M  V30 3462 H 342.822 -5.5323 5.21384 0
M  V30 3463 N 344.397 -0.483516 -1.5 0
M  V30 3464 C 345.345 0.318061 -2.30415 0
M  V30 3465 C 346.339 0.978988 -1.38247 0
M  V30 3466 O 347.545 0.908673 -1.55381 0
M  V30 3467 H 343.92 0.121419 -0.742133 0
M  V30 3468 H 345.891 -0.380403 -2.95965 0
M  V30 3469 C 344.64 1.38013 -3.19136 0
M  V30 3470 H 343.963 0.880952 -3.89973 0
M  V30 3471 H 345.403 1.91332 -3.78375 0
M  V30 3472 C 343.862 2.38884 -2.37563 0
M  V30 3473 O 344.392 3.44412 -2.06744 0
M  V30 3474 N 342.598 2.10912 -1.99911 0
M  V30 3475 H 342.145 1.25118 -2.25174 0
M  V30 3476 H 342.103 2.78635 -1.45636 0
M  V30 3477 N 345.875 1.56104 -0.216619 0
M  V30 3478 C 347.286 1.844 0.292128 0
M  V30 3479 C 347.637 1.13788 1.59833 0
M  V30 3480 O 346.762 0.405888 2.12559 0
M  V30 3481 C 347.357 3.3452 0.53681 0
M  V30 3482 C 345.916 3.63151 0.989876 0
M  V30 3483 C 345.063 2.77255 0.0502302 0
M  V30 3484 H 348.014 1.52481 -0.439926 0
M  V30 3485 H 348.035 3.54459 1.38345 0
M  V30 3486 H 347.547 3.85885 -0.414031 0
M  V30 3487 H 345.648 3.17238 1.95425 0
M  V30 3488 H 345.761 4.71177 0.867698 0
M  V30 3489 H 344.125 2.48555 0.556117 0
M  V30 3490 H 344.908 3.31416 -0.89544 0
M  V30 3491 N 347.353 -0.0568162 1.57498 0
M  V30 3492 C 348.581 -0.765626 1.92213 0
M  V30 3493 C 348.996 -1.70353 0.813961 0
M  V30 3494 O 348.353 -1.81268 -0.211701 0
M  V30 3495 C 348.404 -1.5465 3.2675 0
M  V30 3496 O 348.125 -0.646278 4.33307 0
M  V30 3497 C 349.626 -2.35497 3.75574 0
M  V30 3498 H 346.846 -0.216835 0.634999 0
M  V30 3499 H 349.39 -0.0226146 2.04487 0
M  V30 3500 H 347.545 -2.24165 3.15957 0
M  V30 3501 H 347.959 -1.19093 5.108 0
M  V30 3502 H 349.433 -2.85722 4.72299 0
M  V30 3503 H 349.91 -3.15692 3.05344 0
M  V30 3504 H 350.516 -1.7111 3.8936 0
M  V30 3505 N 348.832 -1.54138 -0.328536 0
M  V30 3506 C 349.762 -1.86167 -1.40939 0
M  V30 3507 C 350.743 -0.718044 -1.54202 0
M  V30 3508 O 351.928 -0.971328 -1.68163 0
M  V30 3509 C 349.058 -2.08461 -2.77779 0
M  V30 3510 C 348.012 -3.24299 -2.7931 0
M  V30 3511 C 347.338 -3.31955 -4.19178 0
M  V30 3512 C 348.638 -4.62065 -2.43502 0
M  V30 3513 H 350.332 -2.76689 -1.14383 0
M  V30 3514 H 347.878 -1.33132 -0.548806 0
M  V30 3515 H 349.831 -2.29453 -3.53454 0
M  V30 3516 H 348.555 -1.14684 -3.05802 0
M  V30 3517 H 347.214 -3.03187 -2.0609 0
M  V30 3518 H 346.862 -2.35745 -4.44335 0
M  V30 3519 H 346.562 -4.09805 -4.2111 0
M  V30 3520 H 348.086 -3.55175 -4.96672 0
M  V30 3521 H 349.5 -4.8297 -3.08889 0
M  V30 3522 H 347.897 -5.42429 -2.56693 0
M  V30 3523 H 348.967 -4.64652 -1.38659 0
M  V30 3524 N 350.31 0.590341 -1.46126 0
M  V30 3525 C 351.721 1.17243 -1.45296 0
M  V30 3526 C 352.072 1.95281 -0.189723 0
M  V30 3527 O 351.197 2.04502 0.707674 0
M  V30 3528 C 351.792 2.13284 -2.6324 0
M  V30 3529 C 350.351 2.66832 -2.65476 0
M  V30 3530 C 349.498 1.42557 -2.3785 0
M  V30 3531 H 352.449 0.378692 -1.54116 0
M  V30 3532 H 352.47 2.96619 -2.38323 0
M  V30 3533 H 351.982 1.56459 -3.55165 0
M  V30 3534 H 350.083 3.27548 -1.77603 0
M  V30 3535 H 350.196 3.10088 -3.65215 0
M  V30 3536 H 348.56 1.72107 -1.87753 0
M  V30 3537 H 349.343 0.875741 -3.31942 0
M  V30 3538 N 351.788 1.33704 0.83433 0
M  V30 3539 C 353.199 1.22813 1.4062 0
M  V30 3540 C 353.55 -0.151107 1.95617 0
M  V30 3541 O 352.675 -1.05092 1.89168 0
M  V30 3542 C 353.27 2.22355 2.55624 0
M  V30 3543 C 351.829 2.1529 3.08751 0
M  V30 3544 C 350.976 2.09589 1.8157 0
M  V30 3545 H 353.927 1.45236 0.639702 0
M  V30 3546 H 353.948 1.83391 3.33389 0
M  V30 3547 H 353.46 3.22728 2.15566 0
M  V30 3548 H 351.561 1.18235 3.53343 0
M  V30 3549 H 351.674 3.06038 3.68616 0
M  V30 3550 H 350.038 1.55134 2.02004 0
M  V30 3551 H 350.821 3.11777 1.43701 0
M  V30 3552 N 353.266 -1.05314 1.17247 0
M  V30 3553 C 354.196 -2.1498 0.911362 0
M  V30 3554 C 355.177 -1.69471 -0.146169 0
M  V30 3555 O 356.362 -1.942 0.003812 0
M  V30 3556 C 353.492 -3.4472 0.422528 0
M  V30 3557 C 352.446 -4.03789 1.4191 0
M  V30 3558 C 351.772 -5.28858 0.788274 0
M  V30 3559 C 353.072 -4.41418 2.7919 0
M  V30 3560 H 354.766 -2.3708 1.82848 0
M  V30 3561 H 352.312 -1.13938 0.880569 0
M  V30 3562 H 354.265 -4.20787 0.227289 0
M  V30 3563 H 352.989 -3.22269 -0.530123 0
M  V30 3564 H 351.648 -3.2979 1.60106 0
M  V30 3565 H 351.296 -5.02709 -0.171173 0
M  V30 3566 H 350.996 -5.69338 1.45353 0
M  V30 3567 H 352.52 -6.07612 0.603282 0
M  V30 3568 H 353.934 -5.08524 2.64719 0
M  V30 3569 H 352.331 -4.92913 3.42282 0
M  V30 3570 H 353.401 -3.51819 3.33693 0
M  V30 3571 N 354.744 -0.972509 -1.24016 0
M  V30 3572 C 355.676 -0.464375 -2.24446 0
M  V30 3573 C 356.689 0.4295 -1.57032 0
M  V30 3574 O 357.878 0.234902 -1.76948 0
M  V30 3575 C 354.978 0.348385 -3.37105 0
M  V30 3576 C 354.151 -0.53673 -4.34094 0
M  V30 3577 C 353.21 0.220838 -5.25736 0
M  V30 3578 O 352.236 -0.386867 -5.67884 0
M  V30 3579 N 353.438 1.50907 -5.60542 0
M  V30 3580 H 356.203 -1.32788 -2.68677 0
M  V30 3581 H 353.764 -0.844877 -1.38107 0
M  V30 3582 H 355.756 0.863341 -3.95384 0
M  V30 3583 H 354.326 1.11285 -2.92121 0
M  V30 3584 H 353.546 -1.23261 -3.74433 0
M  V30 3585 H 354.834 -1.14022 -4.95859 0
M  V30 3586 H 354.232 2.02444 -5.28236 0
M  V30 3587 H 352.789 1.96962 -6.21329 0
M  V30 3588 N 356.222 1.38976 -0.743202 0
M  V30 3589 C 357.47 1.99948 -0.29417 0
M  V30 3590 C 357.791 1.59279 1.12495 0
M  V30 3591 O 357.061 0.844808 1.76748 0
M  V30 3592 H 355.641 0.739473 -0.105774 0
M  V30 3593 H 358.303 1.699 -0.954986 0
M  V30 3594 H 357.399 3.10142 -0.349056 0
M  V30 3595 N 357.7 0.491464 1.49741 0
M  V30 3596 C 358.663 -0.280906 2.27472 0
M  V30 3597 C 359.663 -0.902454 1.33088 0
M  V30 3598 O 360.853 -0.768465 1.56334 0
M  V30 3599 C 357.985 -1.40209 3.10732 0
M  V30 3600 H 359.178 0.401056 2.97206 0
M  V30 3601 H 356.731 0.246131 1.5435 0
M  V30 3602 H 357.466 -2.11849 2.45541 0
M  V30 3603 H 357.251 -0.961969 3.80117 0
M  V30 3604 H 358.741 -1.9464 3.69466 0
M  V30 3605 N 359.178 -1.55987 0.224894 0
M  V30 3606 C 360.108 -2.23426 -0.678457 0
M  V30 3607 C 361.089 -1.20709 -1.19847 0
M  V30 3608 O 362.274 -1.49304 -1.24186 0
M  V30 3609 C 359.404 -2.91676 -1.88527 0
M  V30 3610 C 358.358 -4.00893 -1.49896 0
M  V30 3611 C 357.684 -4.56455 -2.78483 0
M  V30 3612 C 358.984 -5.17769 -0.686461 0
M  V30 3613 H 360.678 -2.99175 -0.116173 0
M  V30 3614 H 358.224 -1.43897 -0.054436 0
M  V30 3615 H 360.177 -3.37547 -2.5227 0
M  V30 3616 H 358.901 -2.1338 -2.47258 0
M  V30 3617 H 357.56 -3.55758 -0.884985 0
M  V30 3618 H 357.208 -3.74886 -3.35365 0
M  V30 3619 H 356.908 -5.30169 -2.53368 0
M  V30 3620 H 358.432 -5.05047 -3.43162 0
M  V30 3621 H 359.846 -5.60001 -1.22767 0
M  V30 3622 H 358.243 -5.97735 -0.532259 0
M  V30 3623 H 359.313 -4.83932 0.306196 0
M  V30 3624 N 360.656 0.0484629 -1.57525 0
M  V30 3625 C 361.905 0.742065 -1.87553 0
M  V30 3626 C 362.218 1.77545 -0.820802 0
M  V30 3627 O 363.424 2.52027 -1.00967 0
M  V30 3628 C 361.88 1.37081 -3.32771 0
M  V30 3629 C 361.488 0.374786 -4.4643 0
M  V30 3630 C 363.232 2.04542 -3.71972 0
M  V30 3631 C 361.139 1.01077 -5.82698 0
M  V30 3632 H 360.069 0.280903 -0.699721 0
M  V30 3633 H 362.72 -0.00411877 -1.835 0
M  V30 3634 H 361.102 2.16605 -3.31509 0
M  V30 3635 H 362.276 -0.392331 -4.59127 0
M  V30 3636 H 360.591 -0.196653 -4.15935 0
M  V30 3637 H 363.188 2.52943 -4.71088 0
M  V30 3638 H 363.531 2.85515 -3.02964 0
M  V30 3639 H 364.064 1.31819 -3.75325 0
M  V30 3640 H 360.803 0.240878 -6.55057 0
M  V30 3641 H 360.323 1.74819 -5.73758 0
M  V30 3642 H 362.002 1.52383 -6.28799 0
M  V30 3643 N 362.134 1.5431 0.320358 0
M  V30 3644 C 363.064 1.86912 1.3995 0
M  V30 3645 C 364.045 0.726211 1.53819 0
M  V30 3646 O 365.23 0.980233 1.67646 0
M  V30 3647 C 362.36 2.09932 2.7667 0
M  V30 3648 C 361.314 3.25776 2.77586 0
M  V30 3649 C 360.64 3.34173 4.17412 0
M  V30 3650 C 361.94 4.6335 2.41048 0
M  V30 3651 H 363.634 2.77292 1.12914 0
M  V30 3652 H 361.18 1.33421 0.541738 0
M  V30 3653 H 363.133 2.31324 3.52232 0
M  V30 3654 H 361.857 1.16304 3.0519 0
M  V30 3655 H 360.516 3.04276 2.04479 0
M  V30 3656 H 360.164 2.38098 4.43078 0
M  V30 3657 H 359.864 4.12033 4.18931 0
M  V30 3658 H 361.388 3.57803 4.94782 0
M  V30 3659 H 362.802 4.84602 3.06324 0
M  V30 3660 H 361.199 5.43782 2.53813 0
M  V30 3661 H 362.269 4.65381 1.36193 0
M  V30 3662 N 363.613 -0.582584 1.46437 0
M  V30 3663 C 364.543 -1.70187 1.59871 0
M  V30 3664 C 365.524 -1.64066 0.449042 0
M  V30 3665 O 366.709 -1.82081 0.6753 0
M  V30 3666 C 363.839 -3.08827 1.58881 0
M  V30 3667 C 362.793 -3.29779 2.72819 0
M  V30 3668 C 362.119 -4.68947 2.5689 0
M  V30 3669 C 363.419 -3.17601 4.1464 0
M  V30 3670 H 365.113 -1.592 2.53566 0
M  V30 3671 H 362.659 -0.764472 1.22032 0
M  V30 3672 H 364.612 -3.86951 1.66873 0
M  V30 3673 H 363.336 -3.20713 0.617306 0
M  V30 3674 H 361.995 -2.54054 2.64296 0
M  V30 3675 H 361.643 -4.77599 1.57823 0
M  V30 3676 H 361.343 -4.83919 3.33312 0
M  V30 3677 H 362.867 -5.4924 2.66773 0
M  V30 3678 H 364.281 -3.8557 4.24274 0
M  V30 3679 H 362.678 -3.44094 4.9165 0
M  V30 3680 H 363.748 -2.14681 4.34788 0
M  V30 3681 N 365.091 -1.34144 -0.827227 0
M  V30 3682 C 366.039 -1.25364 -1.95925 0
M  V30 3683 C 367.033 -0.152608 -1.68711 0
M  V30 3684 O 368.239 -0.317311 -1.77181 0
M  V30 3685 H 364.614 -0.389342 -0.643364 0
M  V30 3686 H 366.585 -2.21045 -2.00454 0
M  V30 3687 C 365.334 -1.02158 -3.32354 0
M  V30 3688 H 364.657 -1.86111 -3.5384 0
M  V30 3689 H 366.097 -1.00048 -4.12027 0
M  V30 3690 C 364.556 0.275244 -3.35774 0
M  V30 3691 O 365.086 1.27806 -3.80826 0
M  V30 3692 N 363.292 0.306853 -2.88975 0
M  V30 3693 H 362.839 -0.509777 -2.52506 0
M  V30 3694 H 362.797 1.17432 -2.91646 0
M  V30 3695 N 366.569 1.04691 -1.17803 0
M  V30 3696 C 367.499 2.14494 -0.92275 0
M  V30 3697 C 368.48 1.69546 0.137179 0
M  V30 3698 O 369.665 1.94195 -0.0141108 0
M  V30 3699 C 366.795 3.44491 -0.440803 0
M  V30 3700 C 365.749 4.03031 -1.4405 0
M  V30 3701 C 365.075 5.28432 -0.81631 0
M  V30 3702 C 366.375 4.39932 -2.81527 0
M  V30 3703 H 368.069 2.36107 -1.84103 0
M  V30 3704 H 365.615 1.1347 -0.886599 0
M  V30 3705 H 367.568 4.2066 -0.249602 0
M  V30 3706 H 366.292 3.22546 0.513025 0
M  V30 3707 H 364.951 3.28937 -1.61853 0
M  V30 3708 H 364.599 5.02792 0.144511 0
M  V30 3709 H 364.299 5.68559 -1.48371 0
M  V30 3710 H 365.823 6.07284 -0.635496 0
M  V30 3711 H 367.237 5.07113 -2.67412 0
M  V30 3712 H 365.634 4.9109 -3.44892 0
M  V30 3713 H 366.704 3.50045 -3.35554 0
M  V30 3714 N 368.047 0.979072 1.23499 0
M  V30 3715 C 368.994 0.517904 2.24914 0
M  V30 3716 C 369.964 -0.442525 1.60097 0
M  V30 3717 O 371.149 -0.350365 1.87556 0
M  V30 3718 C 368.289 -0.174813 3.44657 0
M  V30 3719 C 367.402 0.825721 4.24035 0
M  V30 3720 C 366.537 0.107946 5.3109 0
M  V30 3721 C 365.576 1.09778 6.02175 0
M  V30 3722 N 364.713 0.40925 7.00906 0
M  V30 3723 H 369.553 1.38751 2.63727 0
M  V30 3724 H 367.09 0.695303 1.2963 0
M  V30 3725 H 369.048 -0.593233 4.12961 0
M  V30 3726 H 367.678 -1.0083 3.06648 0
M  V30 3727 H 366.73 1.36253 3.55161 0
M  V30 3728 H 368.042 1.58005 4.73113 0
M  V30 3729 H 367.196 -0.367904 6.05583 0
M  V30 3730 H 365.935 -0.678994 4.8295 0
M  V30 3731 H 364.94 1.5844 5.26476 0
M  V30 3732 H 366.165 1.88536 6.52404 0
M  V30 3733 H 364.111 -0.358506 6.5502 0
M  V30 3734 H 364.028 1.10226 7.47921 0
M  V30 3735 H 365.296 -0.0442557 7.79487 0
M  V30 3736 N 369.525 -1.3858 0.750561 0
M  V30 3737 C 370.773 -1.99789 0.30477 0
M  V30 3738 C 371.094 -1.59874 -1.11649 0
M  V30 3739 O 370.364 -0.85417 -1.76297 0
M  V30 3740 H 368.944 -0.738902 0.109694 0
M  V30 3741 H 371.606 -1.69391 0.963983 0
M  V30 3742 H 370.702 -3.09952 0.365499 0
M  V30 3743 N 371.003 -0.499398 -1.49478 0
M  V30 3744 C 372.233 0.0424839 -2.06556 0
M  V30 3745 C 372.641 1.31514 -1.36018 0
M  V30 3746 O 371.984 1.78555 -0.431718 0
M  V30 3747 C 372.046 0.368074 -3.57611 0
M  V30 3748 C 371.71 -0.806631 -4.49825 0
M  V30 3749 C 372.707 -1.69667 -4.91436 0
M  V30 3750 C 370.392 -1.00498 -4.92144 0
M  V30 3751 C 372.386 -2.76923 -5.74101 0
M  V30 3752 C 370.073 -2.08072 -5.74586 0
M  V30 3753 C 371.071 -2.96119 -6.15469 0
M  V30 3754 O 370.759 -4.01836 -6.96264 0
M  V30 3755 H 370.491 -0.0165165 -0.675798 0
M  V30 3756 H 373.045 -0.695497 -1.93267 0
M  V30 3757 H 371.275 1.15963 -3.68903 0
M  V30 3758 H 372.964 0.848381 -3.96935 0
M  V30 3759 H 373.73 -1.55524 -4.59388 0
M  V30 3760 H 369.609 -0.329036 -4.59824 0
M  V30 3761 H 373.153 -3.45676 -6.05932 0
M  V30 3762 H 369.05 -2.22211 -6.06047 0
M  V30 3763 H 369.818 -3.9917 -7.14567 0
M  V30 3764 N 372.481 1.55866 -0.233164 0
M  V30 3765 C 373.758 1.90471 0.444988 0
M  V30 3766 C 374.138 1.15209 1.7689 0
M  V30 3767 O 373.486 0.265119 2.26957 0
M  V30 3768 C 373.696 3.4333 0.626559 0
M  V30 3769 C 375.044 4.14319 0.92871 0
M  V30 3770 O 376.068 3.48993 0.712926 0
M  V30 3771 O 374.927 5.29846 1.33887 0
M  V30 3772 H 372.021 0.792347 0.236885 0
M  V30 3773 H 374.567 1.67437 -0.276211 0
M  V30 3774 H 373.339 3.90095 -0.306822 0
M  V30 3775 H 372.962 3.72181 1.39881 0
M  V30 3776 N 373.959 -0.0401083 1.57549 0
M  V30 3777 C 375.189 -0.744115 1.92734 0
M  V30 3778 C 375.597 -1.70005 0.830348 0
M  V30 3779 O 374.94 -1.82576 -0.20286 0
M  V30 3780 C 375.002 -1.56516 3.2364 0
M  V30 3781 C 374.666 -0.7752 4.50377 0
M  V30 3782 C 375.663 -0.0803326 5.19838 0
M  V30 3783 C 373.348 -0.733002 4.96923 0
M  V30 3784 C 375.342 0.646154 6.34116 0
M  V30 3785 C 373.029 -0.00276321 6.111 0
M  V30 3786 C 374.027 0.685585 6.7955 0
M  V30 3787 O 373.715 1.40399 7.91545 0
M  V30 3788 H 373.447 -0.214861 0.640945 0
M  V30 3789 H 376.001 -0.00503675 2.05399 0
M  V30 3790 H 374.231 -2.3478 3.07271 0
M  V30 3791 H 375.92 -2.15076 3.44234 0
M  V30 3792 H 376.686 -0.104035 4.84888 0
M  V30 3793 H 372.565 -1.25827 4.43496 0
M  V30 3794 H 376.109 1.18398 6.87479 0
M  V30 3795 H 372.006 0.0229012 6.45496 0
M  V30 3796 H 372.774 1.31653 8.07843 0
M  V30 3797 N 375.437 -1.54477 -0.31217 0
M  V30 3798 C 376.848 -1.64344 -0.885891 0
M  V30 3799 C 377.199 -0.54485 -1.88483 0
M  V30 3800 O 376.324 0.320387 -2.14015 0
M  V30 3801 C 376.919 -2.97908 -1.61357 0
M  V30 3802 C 375.478 -3.09933 -2.13585 0
M  V30 3803 C 374.625 -2.59971 -0.964897 0
M  V30 3804 H 377.576 -1.58448 -0.0894528 0
M  V30 3805 H 377.597 -2.88706 -2.47848 0
M  V30 3806 H 377.109 -3.77845 -0.886277 0
M  V30 3807 H 375.21 -2.34694 -2.89395 0
M  V30 3808 H 375.323 -4.15916 -2.37804 0
M  V30 3809 H 373.687 -2.16147 -1.34731 0
M  V30 3810 H 374.47 -3.42376 -0.251742 0
M  V30 3811 N 376.915 0.57481 -1.46744 0
M  V30 3812 C 378.192 1.3352 -1.4294 0
M  V30 3813 C 378.572 2.10775 -0.117009 0
M  V30 3814 O 377.92 2.09966 0.901474 0
M  V30 3815 C 378.13 2.25456 -2.66403 0
M  V30 3816 C 379.478 2.87035 -3.12883 0
M  V30 3817 O 380.502 2.35766 -2.67007 0
M  V30 3818 O 379.361 3.80179 -3.92589 0
M  V30 3819 H 376.455 0.600318 -0.568812 0
M  V30 3820 H 379.001 0.595171 -1.58921 0
M  V30 3821 H 377.773 1.67851 -3.53471 0
M  V30 3822 H 377.396 3.06785 -2.52921 0
M  V30 3823 N 378.394 1.34581 0.820102 0
M  V30 3824 C 379.643 1.26437 1.57151 0
M  V30 3825 C 379.956 -0.163111 1.94919 0
M  V30 3826 O 381.162 -0.366722 2.69012 0
M  V30 3827 C 379.618 2.21658 2.83541 0
M  V30 3828 C 379.226 3.69679 2.53065 0
M  V30 3829 C 380.97 2.22428 3.61561 0
M  V30 3830 C 378.877 4.56761 3.75664 0
M  V30 3831 H 377.807 0.469707 0.589823 0
M  V30 3832 H 380.458 1.59763 0.902656 0
M  V30 3833 H 378.84 1.81287 3.52067 0
M  V30 3834 H 380.014 4.18605 1.92631 0
M  V30 3835 H 378.329 3.71384 1.88316 0
M  V30 3836 H 380.926 2.8471 4.52597 0
M  V30 3837 H 381.269 1.22434 3.97889 0
M  V30 3838 H 381.802 2.61259 2.99981 0
M  V30 3839 H 378.541 5.57702 3.44454 0
M  V30 3840 H 378.061 4.12568 4.35371 0
M  V30 3841 H 379.74 4.71509 4.43044 0
M  V30 3842 N 379.872 -1.04064 1.18357 0
M  V30 3843 C 380.804 -2.12114 0.868358 0
M  V30 3844 C 381.817 -1.62247 -0.134045 0
M  V30 3845 O 383.006 -1.78253 0.0937933 0
M  V30 3846 C 380.106 -3.37773 0.276132 0
M  V30 3847 C 379.279 -4.16874 1.3242 0
M  V30 3848 C 378.338 -5.20861 0.747662 0
M  V30 3849 O 377.364 -5.51141 1.42239 0
M  V30 3850 N 378.566 -5.78715 -0.454823 0
M  V30 3851 H 381.331 -2.39748 1.79836 0
M  V30 3852 H 378.892 -1.20258 1.08396 0
M  V30 3853 H 380.884 -4.04513 -0.123133 0
M  V30 3854 H 379.454 -3.07581 -0.557895 0
M  V30 3855 H 378.674 -3.45456 1.89878 0
M  V30 3856 H 379.962 -4.66516 2.03078 0
M  V30 3857 H 379.36 -5.56415 -1.02073 0
M  V30 3858 H 377.917 -6.46921 -0.79601 0
M  V30 3859 N 381.35 -0.985608 -1.22978 0
M  V30 3860 C 382.766 -0.695104 -1.43668 0
M  V30 3861 C 382.966 0.736866 -1.87543 0
M  V30 3862 O 382.022 1.50868 -2.02473 0
M  V30 3863 C 383.335 -1.69447 -2.48412 0
M  V30 3864 C 384.883 -1.70909 -2.62219 0
M  V30 3865 C 385.358 -2.6969 -3.70178 0
M  V30 3866 N 386.849 -2.6824 -3.77626 0
M  V30 3867 C 387.584 -3.41339 -4.60733 0
M  V30 3868 N 387.08 -4.24015 -5.4789 0
M  V30 3869 N 388.873 -3.30079 -4.54977 0
M  V30 3870 H 381.024 -1.91054 -0.928016 0
M  V30 3871 H 383.287 -0.823553 -0.469536 0
M  V30 3872 H 382.993 -2.7188 -2.23102 0
M  V30 3873 H 382.867 -1.48147 -3.46889 0
M  V30 3874 H 385.254 -0.691785 -2.86877 0
M  V30 3875 H 385.335 -1.96276 -1.6404 0
M  V30 3876 H 384.979 -3.71566 -3.46268 0
M  V30 3877 H 384.909 -2.41595 -4.67909 0
M  V30 3878 H 387.4 -2.08243 -3.15346 0
M  V30 3879 H 387.713 -4.76636 -6.08308 0
M  V30 3880 H 386.058 -4.28104 -5.47496 0
M  V30 3881 H 389.249 -2.64937 -3.85909 0
M  V30 3882 H 389.422 -3.87308 -5.19516 0
M  V30 3883 N 382.828 1.3818 -0.7579 0
M  V30 3884 C 383.791 2.28764 -0.141286 0
M  V30 3885 C 384.791 1.47388 0.642907 0
M  V30 3886 O 385.981 1.67781 0.468536 0
M  V30 3887 C 383.113 3.31184 0.808069 0
M  V30 3888 H 384.306 2.848 -0.939633 0
M  V30 3889 H 381.859 1.47212 -0.525191 0
M  V30 3890 H 382.594 2.80247 1.63193 0
M  V30 3891 H 382.379 3.91314 0.248104 0
M  V30 3892 H 383.869 3.98909 1.23536 0
M  V30 3893 N 384.306 0.507319 1.49211 0
M  V30 3894 C 385.552 -0.0350047 2.0277 0
M  V30 3895 C 385.885 -1.3606 1.38569 0
M  V30 3896 O 385.16 -1.87321 0.523542 0
M  V30 3897 C 385.443 -0.180916 3.59645 0
M  V30 3898 C 385.296 1.16825 4.34364 0
M  V30 3899 C 386.615 -0.918558 4.30407 0
M  V30 3900 H 383.734 -0.0112473 0.736914 0
M  V30 3901 H 386.376 0.659956 1.7817 0
M  V30 3902 H 384.526 -0.772826 3.80736 0
M  V30 3903 H 386.198 1.79952 4.24753 0
M  V30 3904 H 384.441 1.75594 3.96673 0
M  V30 3905 H 385.112 1.01939 5.42506 0
M  V30 3906 H 387.588 -0.41649 4.1401 0
M  V30 3907 H 386.464 -0.989505 5.39907 0
M  V30 3908 H 386.725 -1.96373 3.96093 0
M  V30 3909 N 385.784 -1.5574 0.241426 0
M  V30 3910 C 386.714 -2.24133 -0.654722 0
M  V30 3911 C 387.695 -1.21974 -1.1856 0
M  V30 3912 O 388.88 -1.50612 -1.22595 0
M  V30 3913 C 386.01 -2.93659 -1.85423 0
M  V30 3914 C 384.964 -4.0246 -1.45636 0
M  V30 3915 C 384.29 -4.59383 -2.73626 0
M  V30 3916 C 385.59 -5.18468 -0.631506 0
M  V30 3917 H 387.284 -2.99281 -0.0844353 0
M  V30 3918 H 384.83 -1.43947 -0.0391707 0
M  V30 3919 H 386.783 -3.40203 -2.48676 0
M  V30 3920 H 385.507 -2.15991 -2.44981 0
M  V30 3921 H 384.166 -3.56676 -0.847202 0
M  V30 3922 H 383.814 -3.78422 -3.3137 0
M  V30 3923 H 383.514 -5.32826 -2.4773 0
M  V30 3924 H 385.038 -5.08658 -3.37786 0
M  V30 3925 H 386.452 -5.61272 -1.1682 0
M  V30 3926 H 384.849 -5.98266 -0.468831 0
M  V30 3927 H 385.919 -4.8358 0.357506 0
M  V30 3928 N 387.262 0.0317525 -1.57568 0
M  V30 3929 C 388.225 1.01783 -2.0536 0
M  V30 3930 C 389.225 1.29203 -0.957253 0
M  V30 3931 O 390.415 1.24251 -1.22095 0
M  V30 3932 C 387.547 2.35137 -2.46827 0
M  V30 3933 H 388.74 0.605062 -2.93733 0
M  V30 3934 H 386.293 0.278514 -1.53799 0
M  V30 3935 H 387.028 2.81168 -1.61602 0
M  V30 3936 H 386.813 2.16566 -3.26866 0
M  V30 3937 H 388.303 3.05938 -2.84239 0
M  V30 3938 N 388.74 1.54641 0.303973 0
M  V30 3939 C 389.65 1.88439 1.39743 0
M  V30 3940 C 390.666 0.778239 1.55626 0
M  V30 3941 O 391.842 1.07442 1.70347 0
M  V30 3942 C 388.907 2.12212 2.74166 0
M  V30 3943 C 387.968 3.35936 2.67293 0
M  V30 3944 C 387.201 3.58566 3.95305 0
M  V30 3945 O 387.424 2.84263 4.9452 0
M  V30 3946 O 386.358 4.52078 3.97378 0
M  V30 3947 H 390.184 2.81458 1.14083 0
M  V30 3948 H 387.769 1.40793 0.499768 0
M  V30 3949 H 389.651 2.29067 3.53704 0
M  V30 3950 H 388.326 1.22379 2.99675 0
M  V30 3951 H 387.233 3.24448 1.86237 0
M  V30 3952 H 388.566 4.2589 2.46736 0
M  V30 3953 N 390.218 -0.567019 1.47046 0
M  V30 3954 C 391.165 -1.67489 1.58796 0
M  V30 3955 C 392.135 -1.60399 0.43144 0
M  V30 3956 O 393.32 -1.79378 0.650233 0
M  V30 3957 C 390.46 -3.05821 1.59899 0
M  V30 3958 C 389.573 -3.2342 2.86397 0
M  V30 3959 C 388.708 -4.52093 2.789 0
M  V30 3960 C 387.747 -4.6309 4.00267 0
M  V30 3961 N 386.884 -5.83106 3.91064 0
M  V30 3962 H 391.724 -1.56785 2.53422 0
M  V30 3963 H 389.261 -0.763896 1.2571 0
M  V30 3964 H 391.219 -3.8591 1.58522 0
M  V30 3965 H 389.849 -3.15384 0.687929 0
M  V30 3966 H 388.901 -2.3683 2.97684 0
M  V30 3967 H 390.213 -3.27412 3.76301 0
M  V30 3968 H 389.367 -5.4043 2.75718 0
M  V30 3969 H 388.106 -4.50565 1.86662 0
M  V30 3970 H 387.111 -3.73168 4.03765 0
M  V30 3971 H 388.336 -4.66386 4.93621 0
M  V30 3972 H 386.282 -5.82546 3.01623 0
M  V30 3973 H 386.199 -5.88434 4.74638 0
M  V30 3974 H 387.467 -6.73831 3.91882 0
M  V30 3975 N 391.696 -1.35014 -0.812953 0
M  V30 3976 C 392.659 -1.27292 -1.90602 0
M  V30 3977 C 393.659 -0.185817 -1.59723 0
M  V30 3978 O 394.849 -0.439102 -1.68575 0
M  V30 3979 C 391.981 -0.967676 -3.26877 0
M  V30 3980 H 393.174 -2.24479 -1.9887 0
M  V30 3981 H 390.727 -1.19446 -1.00808 0
M  V30 3982 H 391.462 0.0005954 -3.243 0
M  V30 3983 H 391.247 -1.75412 -3.50675 0
M  V30 3984 H 392.737 -0.939085 -4.06904 0
M  V30 3985 N 393.175 1.03435 -1.18907 0
M  V30 3986 C 394.452 1.73778 -0.89781 0
M  V30 3987 C 394.832 2.02458 0.597832 0
M  V30 3988 O 394.18 1.67482 1.55441 0
M  V30 3989 C 394.39 3.01845 -1.75187 0
M  V30 3990 C 395.738 3.7546 -1.9828 0
M  V30 3991 O 396.762 3.11759 -1.72293 0
M  V30 3992 O 395.621 4.89966 -2.42065 0
M  V30 3993 H 392.715 0.75651 -0.334098 0
M  V30 3994 H 395.261 1.09444 -1.29693 0
M  V30 3995 H 394.033 2.76836 -2.76545 0
M  V30 3996 H 393.656 3.73919 -1.35167 0
M  V30 3997 N 394.653 0.992116 1.22453 0
M  V30 3998 C 395.616 0.546883 2.2258 0
M  V30 3999 C 396.616 -0.369829 1.56489 0
M  V30 4000 O 397.806 -0.161896 1.73446 0
M  V30 4001 C 394.938 -0.204659 3.40285 0
M  V30 4002 H 396.131 1.43234 2.63484 0
M  V30 4003 H 393.684 0.779239 1.3549 0
M  V30 4004 H 394.419 -1.10614 3.04853 0
M  V30 4005 H 394.204 0.45354 3.89468 0
M  V30 4006 H 395.694 -0.504358 4.14543 0
M  V30 4007 N 396.131 -1.37776 0.765217 0
M  V30 4008 C 397.542 -1.82521 0.392819 0
M  V30 4009 C 397.893 -1.63789 -1.08017 0
M  V30 4010 O 397.018 -1.14542 -1.83601 0
M  V30 4011 C 397.613 -3.31358 0.706214 0
M  V30 4012 C 396.172 -3.74406 0.386952 0
M  V30 4013 C 395.319 -2.60394 0.953422 0
M  V30 4014 H 398.27 -1.2634 0.960412 0
M  V30 4015 H 398.291 -3.80498 -0.0114706 0
M  V30 4016 H 397.803 -3.44959 1.77833 0
M  V30 4017 H 395.904 -3.66377 -0.678112 0
M  V30 4018 H 396.017 -4.70749 0.890636 0
M  V30 4019 H 394.381 -2.51878 0.378064 0
M  V30 4020 H 395.164 -2.76791 2.03081 0
M  V30 4021 N 397.609 -0.515225 -1.4894 0
M  V30 4022 C 398.539 0.244628 -2.32215 0
M  V30 4023 C 399.52 0.949136 -1.41157 0
M  V30 4024 O 400.705 0.937783 -1.70057 0
M  V30 4025 C 397.835 1.30096 -3.22013 0
M  V30 4026 C 396.789 0.715486 -4.21977 0
M  V30 4027 C 396.115 1.87339 -5.00808 0
M  V30 4028 C 397.415 -0.302982 -5.2142 0
M  V30 4029 H 399.109 -0.450501 -2.95991 0
M  V30 4030 H 396.655 -0.218098 -1.42339 0
M  V30 4031 H 398.608 1.84037 -3.79089 0
M  V30 4032 H 397.332 2.02547 -2.56207 0
M  V30 4033 H 395.991 0.197715 -3.66066 0
M  V30 4034 H 395.639 2.58592 -4.31438 0
M  V30 4035 H 395.339 1.48764 -5.68457 0
M  V30 4036 H 396.863 2.41686 -5.60732 0
M  V30 4037 H 398.277 0.148802 -5.73107 0
M  V30 4038 H 396.674 -0.60532 -5.97039 0
M  V30 4039 H 397.744 -1.21395 -4.69459 0
M  V30 4040 N 399.087 1.5561 -0.249682 0
M  V30 4041 C 400.336 1.98187 0.37479 0
M  V30 4042 C 400.649 1.14111 1.58865 0
M  V30 4043 O 401.855 1.46714 2.28445 0
M  V30 4044 C 400.311 3.52661 0.718192 0
M  V30 4045 C 399.919 4.45481 -0.474428 0
M  V30 4046 C 401.663 4.03888 1.3067 0
M  V30 4047 C 399.57 5.91303 -0.107026 0
M  V30 4048 H 398.5 0.740159 0.143808 0
M  V30 4049 H 401.151 1.80125 -0.350336 0
M  V30 4050 H 399.533 3.66429 1.50152 0
M  V30 4051 H 400.707 4.43473 -1.25172 0
M  V30 4052 H 399.022 4.04751 -0.978052 0
M  V30 4053 H 401.619 5.10358 1.59496 0
M  V30 4054 H 401.962 3.51401 2.23211 0
M  V30 4055 H 402.495 3.93457 0.586211 0
M  V30 4056 H 399.234 6.47833 -0.999642 0
M  V30 4057 H 398.754 5.9644 0.634013 0
M  V30 4058 H 400.433 6.46258 0.309807 0
M  V30 4059 N 400.565 -0.0233959 1.57583 0
M  V30 4060 C 401.497 -1.04994 2.03737 0
M  V30 4061 C 402.51 -1.32125 0.951152 0
M  V30 4062 O 403.699 -1.29512 1.22837 0
M  V30 4063 C 400.799 -2.39026 2.40249 0
M  V30 4064 C 399.972 -2.31171 3.7132 0
M  V30 4065 C 399.031 -3.47698 3.94959 0
M  V30 4066 O 398.057 -3.26937 4.65941 0
M  V30 4067 N 399.259 -4.6976 3.41037 0
M  V30 4068 H 402.024 -0.656507 2.92421 0
M  V30 4069 H 399.585 -0.211235 1.60516 0
M  V30 4070 H 401.577 -3.15712 2.53196 0
M  V30 4071 H 400.147 -2.70194 1.57207 0
M  V30 4072 H 399.367 -1.39547 3.68674 0
M  V30 4073 H 400.655 -2.23071 4.57293 0
M  V30 4074 H 400.053 -4.89528 2.83512 0
M  V30 4075 H 398.61 -5.43791 3.59353 0
M  V30 4076 N 402.043 -1.548 -0.295768 0
M  V30 4077 C 403.289 -1.75517 -1.02789 0
M  V30 4078 C 403.644 -0.537266 -1.84746 0
M  V30 4079 O 402.937 0.470299 -1.85738 0
M  V30 4080 C 403.131 -2.98797 -1.961 0
M  V30 4081 C 402.96 -4.3246 -1.23321 0
M  V30 4082 C 401.73 -4.96131 -0.95822 0
M  V30 4083 C 403.928 -5.10365 -0.635024 0
M  V30 4084 N 401.91 -6.1357 -0.201257 0
M  V30 4085 C 403.281 -6.19999 -0.0110937 0
M  V30 4086 C 405.336 -4.94957 -0.540594 0
M  V30 4087 C 404.039 -7.15904 0.698136 0
M  V30 4088 C 406.065 -5.91197 0.154992 0
M  V30 4089 C 405.427 -7.00203 0.767752 0
M  V30 4090 H 401.526 -0.694786 -0.358882 0
M  V30 4091 H 404.11 -1.92281 -0.305943 0
M  V30 4092 H 402.281 -2.83448 -2.6554 0
M  V30 4093 H 404.013 -3.08017 -2.62502 0
M  V30 4094 H 400.768 -4.56595 -1.25771 0
M  V30 4095 H 401.192 -6.76802 0.16389 0
M  V30 4096 H 405.834 -4.10803 -1.00003 0
M  V30 4097 H 403.552 -7.99595 1.16933 0
M  V30 4098 H 407.138 -5.81353 0.228069 0
M  V30 4099 H 406.018 -7.73393 1.29743 0
M  V30 4100 N 403.521 0.559213 -1.47345 0
M  V30 4101 C 404.798 1.31997 -1.44348 0
M  V30 4102 C 405.178 2.1064 -0.139358 0
M  V30 4103 O 404.526 2.1091 0.879153 0
M  V30 4104 C 404.736 2.22618 -2.68779 0
M  V30 4105 C 406.084 2.83701 -3.1591 0
M  V30 4106 O 407.108 2.32921 -2.69493 0
M  V30 4107 O 405.967 3.75993 -3.966 0
M  V30 4108 H 403.061 0.594251 -0.575147 0
M  V30 4109 H 405.607 0.578282 -1.59543 0
M  V30 4110 H 404.379 1.64093 -3.55231 0
M  V30 4111 H 404.002 3.04085 -2.5616 0
M  V30 4112 N 404.999 1.35443 0.805782 0
M  V30 4113 C 405.962 1.28301 1.89925 0
M  V30 4114 C 406.962 0.194285 1.59622 0
M  V30 4115 O 408.152 0.448036 1.6834 0
M  V30 4116 C 405.284 0.984997 3.2636 0
M  V30 4117 H 406.477 2.2553 1.97677 0
M  V30 4118 H 404.03 1.19979 1.00173 0
M  V30 4119 H 404.765 0.016603 3.24296 0
M  V30 4120 H 404.55 1.77269 3.4974 0
M  V30 4121 H 406.04 0.960651 4.064 0
M  V30 4122 N 406.477 -1.02803 1.19454 0
M  V30 4123 C 407.705 -1.79841 1.02297 0
M  V30 4124 C 408.12 -1.83879 -0.428259 0
M  V30 4125 O 407.477 -1.28345 -1.29745 0
M  V30 4126 C 407.528 -3.24852 1.58598 0
M  V30 4127 O 407.249 -3.21097 2.98041 0
M  V30 4128 C 408.75 -4.18485 1.46236 0
M  V30 4129 H 405.97 -0.565936 0.360496 0
M  V30 4130 H 408.514 -1.2948 1.58288 0
M  V30 4131 H 406.669 -3.72401 1.06753 0
M  V30 4132 H 407.083 -4.12033 3.24545 0
M  V30 4133 H 408.557 -5.18121 1.90407 0
M  V30 4134 H 409.034 -4.37254 0.41301 0
M  V30 4135 H 409.64 -3.76811 1.97215 0
M  V30 4136 N 407.956 -0.998596 -1.21925 0
M  V30 4137 C 409.181 -0.696015 -1.95372 0
M  V30 4138 C 409.606 0.733826 -1.73195 0
M  V30 4139 O 408.964 1.50242 -1.01474 0
M  V30 4140 C 409.012 -1.01466 -3.4603 0
M  V30 4141 O 408.116 -0.116415 -4.12236 0
M  V30 4142 H 407.457 -0.259938 -0.611006 0
M  V30 4143 H 409.987 -1.33711 -1.54863 0
M  V30 4144 H 409.997 -0.958855 -3.96573 0
M  V30 4145 H 408.672 -2.05653 -3.61497 0
M  V30 4146 H 407.249 -0.228193 -3.72201 0
M  V30 4147 N 409.434 1.37368 -0.772513 0
M  V30 4148 C 410.397 2.28601 -0.165541 0
M  V30 4149 C 411.397 1.48062 0.627238 0
M  V30 4150 O 412.587 1.68268 0.450715 0
M  V30 4151 C 409.719 3.32023 0.772897 0
M  V30 4152 H 410.912 2.83787 -0.969787 0
M  V30 4153 H 408.465 1.46647 -0.540775 0
M  V30 4154 H 409.2 2.81962 1.60212 0
M  V30 4155 H 408.985 3.91555 0.206585 0
M  V30 4156 H 410.475 4.00197 1.19298 0
M  V30 4157 N 410.912 0.523116 1.48665 0
M  V30 4158 C 412.14 -0.0096312 2.06898 0
M  V30 4159 C 412.555 -1.28784 1.38059 0
M  V30 4160 O 411.912 -1.76453 0.465893 0
M  V30 4161 C 411.963 -0.244386 3.60673 0
M  V30 4162 O 411.684 0.983172 4.26925 0
M  V30 4163 C 413.185 -0.818289 4.35682 0
M  V30 4164 H 410.405 0.0304161 0.67031 0
M  V30 4165 H 412.949 0.726799 1.91149 0
M  V30 4166 H 411.104 -0.930847 3.76051 0
M  V30 4167 H 411.518 0.759653 5.1897 0
M  V30 4168 H 412.992 -0.93201 5.44075 0
M  V30 4169 H 413.469 -1.82153 3.99646 0
M  V30 4170 H 414.075 -0.168609 4.24966 0
M  V30 4171 N 412.39 -1.55475 0.257931 0
M  V30 4172 C 413.32 -2.24815 -0.630912 0
M  V30 4173 C 414.301 -1.23224 -1.17259 0
M  V30 4174 O 415.486 -1.51904 -1.20991 0
M  V30 4175 C 412.616 -2.95609 -1.82298 0
M  V30 4176 C 411.57 -4.03982 -1.41359 0
M  V30 4177 C 410.896 -4.6226 -2.68738 0
M  V30 4178 C 412.196 -5.19109 -0.57648 0
M  V30 4179 H 413.89 -2.99354 -0.0526878 0
M  V30 4180 H 411.436 -1.4398 -0.023901 0
M  V30 4181 H 413.389 -3.42822 -2.45054 0
M  V30 4182 H 412.113 -2.18577 -2.42676 0
M  V30 4183 H 410.772 -3.57555 -0.809324 0
M  V30 4184 H 410.42 -3.81915 -3.27338 0
M  V30 4185 H 410.12 -5.35424 -2.42065 0
M  V30 4186 H 411.644 -5.12212 -3.32372 0
M  V30 4187 H 413.058 -5.62479 -1.10861 0
M  V30 4188 H 411.455 -5.98729 -0.405351 0
M  V30 4189 H 412.525 -4.83174 0.408776 0
M  V30 4190 N 413.868 0.0150385 -1.57593 0
M  V30 4191 C 414.815 1.01126 -2.07466 0
M  V30 4192 C 415.785 1.35064 -0.966794 0
M  V30 4193 O 416.97 1.4516 -1.23827 0
M  V30 4194 C 414.11 2.30276 -2.57035 0
M  V30 4195 C 413.223 2.02373 -3.81666 0
M  V30 4196 C 412.358 3.25496 -4.19793 0
M  V30 4197 C 411.397 2.93211 -5.37303 0
M  V30 4198 N 410.534 4.08826 -5.70794 0
M  V30 4199 H 415.374 0.57901 -2.92321 0
M  V30 4200 H 412.911 0.27426 -1.44521 0
M  V30 4201 H 414.869 3.05757 -2.83846 0
M  V30 4202 H 413.499 2.71197 -1.75077 0
M  V30 4203 H 412.551 1.17327 -3.61854 0
M  V30 4204 H 413.863 1.74567 -4.67256 0
M  V30 4205 H 413.017 4.09333 -4.47807 0
M  V30 4206 H 411.756 3.56428 -3.32882 0
M  V30 4207 H 410.761 2.07777 -5.09027 0
M  V30 4208 H 411.986 2.63542 -6.25877 0
M  V30 4209 H 409.932 4.39682 -4.86842 0
M  V30 4210 H 409.849 3.84491 -6.50924 0
M  V30 4211 H 411.117 4.93496 -6.03392 0
M  V30 4212 N 415.346 1.54954 0.287554 0
M  V30 4213 C 416.309 1.86076 1.33823 0
M  V30 4214 C 417.309 0.734414 1.43049 0
M  V30 4215 O 418.499 1.00266 1.42452 0
M  V30 4216 C 415.631 2.05305 2.72144 0
M  V30 4217 H 416.824 2.79984 1.07465 0
M  V30 4218 H 414.377 1.47223 0.524902 0
M  V30 4219 H 415.112 1.1373 3.03704 0
M  V30 4220 H 414.897 2.873 2.66836 0
M  V30 4221 H 416.387 2.30706 3.48087 0
M  V30 4222 N 416.824 -0.551391 1.4764 0
M  V30 4223 C 417.754 -1.66757 1.63445 0
M  V30 4224 C 418.735 -1.63077 0.483742 0
M  V30 4225 O 419.92 -1.80607 0.71377 0
M  V30 4226 C 417.05 -3.05387 1.65396 0
M  V30 4227 C 416.004 -3.23918 2.79752 0
M  V30 4228 C 415.33 -4.63393 2.66779 0
M  V30 4229 C 416.63 -3.08735 4.21284 0
M  V30 4230 H 418.324 -1.53786 2.56886 0
M  V30 4231 H 415.87 -0.738415 1.23626 0
M  V30 4232 H 417.823 -3.83325 1.75043 0
M  V30 4233 H 416.547 -3.19332 0.685195 0
M  V30 4234 H 415.206 -2.48391 2.69625 0
M  V30 4235 H 414.854 -4.74144 1.67918 0
M  V30 4236 H 414.554 -4.7674 3.43501 0
M  V30 4237 H 416.078 -5.43458 2.78364 0
M  V30 4238 H 417.492 -3.76484 4.32357 0
M  V30 4239 H 415.889 -3.33588 4.98838 0
M  V30 4240 H 416.959 -2.0541 4.39243 0
M  V30 4241 N 418.302 -1.35869 -0.798587 0
M  V30 4242 C 419.55 -1.29332 -1.55298 0
M  V30 4243 C 419.871 0.129729 -1.94568 0
M  V30 4244 O 419.141 1.06796 -1.6423 0
M  V30 4245 H 417.721 -0.475737 -0.57592 0
M  V30 4246 H 420.383 -1.70062 -0.952093 0
M  V30 4247 H 419.479 -1.91458 -2.46476 0
M  V30 4248 N 419.78 1.02168 -1.19998 0
M  V30 4249 C 421.02 1.77232 -1.01825 0
M  V30 4250 C 421.384 1.86833 0.442428 0
M  V30 4251 O 422.585 2.58293 0.744189 0
M  V30 4252 C 420.856 3.15601 -1.67722 0
M  V30 4253 S 422.415 4.06765 -1.64584 0
M  V30 4254 H 419.233 0.610021 -0.365233 0
M  V30 4255 H 421.835 1.22368 -1.52467 0
M  V30 4256 H 420.539 3.06235 -2.73218 0
M  V30 4257 H 420.07 3.7554 -1.17189 0
M  V30 4258 H 422.085 4.91586 -0.67511 0
M  V30 4259 N 421.258 1.00505 1.21394 0
M  V30 4260 C 422.208 0.536503 2.21598 0
M  V30 4261 C 423.192 -0.401914 1.55799 0
M  V30 4262 O 424.384 -0.226757 1.75541 0
M  V30 4263 C 421.513 -0.135446 3.43033 0
M  V30 4264 C 420.599 0.823992 4.16018 0
M  V30 4265 N 420.99 1.97683 4.6557 0
M  V30 4266 C 419.288 0.642387 4.4135 0
M  V30 4267 C 419.989 2.58003 5.21354 0
M  V30 4268 N 418.965 1.86162 5.1073 0
M  V30 4269 H 422.767 1.41557 2.57563 0
M  V30 4270 H 420.281 0.868878 1.37202 0
M  V30 4271 H 422.278 -0.488584 4.14027 0
M  V30 4272 H 420.938 -1.01049 3.08576 0
M  V30 4273 H 421.949 2.3572 4.61147 0
M  V30 4274 H 418.626 -0.185578 4.17087 0
M  V30 4275 H 420.016 3.555 5.70149 0
M  V30 4276 N 422.737 -1.36956 0.779787 0
M  V30 4277 C 423.962 -2.04283 0.358224 0
M  V30 4278 C 424.387 -1.58422 -1.01411 0
M  V30 4279 O 423.745 -0.748179 -1.65142 0
M  V30 4280 C 423.793 -3.58152 0.419479 0
M  V30 4281 O 422.897 -4.08342 -0.577142 0
M  V30 4282 H 422.238 -0.645967 0.153698 0
M  V30 4283 H 424.768 -1.75108 1.05822 0
M  V30 4284 H 424.778 -4.07041 0.279636 0
M  V30 4285 H 423.453 -3.90886 1.42061 0
M  V30 4286 H 422.03 -3.70751 -0.399755 0
M  V30 4287 N 424.215 -0.530993 -1.48385 0
M  V30 4288 C 425.464 0.00474348 -2.01699 0
M  V30 4289 C 425.777 1.35227 -1.41325 0
M  V30 4290 O 426.983 1.97643 -1.86144 0
M  V30 4291 C 425.439 0.0588473 -3.59852 0
M  V30 4292 C 425.047 -1.28385 -4.2921 0
M  V30 4293 C 426.791 0.543358 -4.21008 0
M  V30 4294 C 424.698 -1.19028 -5.79298 0
M  V30 4295 H 423.628 0.00554317 -0.75398 0
M  V30 4296 H 426.279 -0.674924 -1.70637 0
M  V30 4297 H 424.661 0.803612 -3.8776 0
M  V30 4298 H 425.835 -2.04426 -4.12973 0
M  V30 4299 H 424.15 -1.70418 -3.7993 0
M  V30 4300 H 426.747 0.631351 -5.3096 0
M  V30 4301 H 427.09 1.54937 -3.86394 0
M  V30 4302 H 427.623 -0.145754 -3.97533 0
M  V30 4303 H 424.362 -2.17147 -6.18488 0
M  V30 4304 H 423.882 -0.471246 -5.97946 0
M  V30 4305 H 425.561 -0.881365 -6.40969 0
M  V30 4306 N 425.693 1.55336 -0.266172 0
M  V30 4307 C 426.97 1.91372 0.404486 0
M  V30 4308 C 427.35 1.18935 1.74407 0
M  V30 4309 O 426.698 0.3132 2.26343 0
M  V30 4310 C 426.908 3.44581 0.553593 0
M  V30 4311 C 428.256 4.16196 0.840618 0
M  V30 4312 O 429.28 3.50426 0.638739 0
M  V30 4313 O 428.139 5.32567 1.22618 0
M  V30 4314 H 425.233 0.797194 0.220025 0
M  V30 4315 H 427.779 1.66813 -0.311664 0
M  V30 4316 H 426.551 3.89357 -0.389498 0
M  V30 4317 H 426.174 3.75065 1.31955 0
M  V30 4318 N 427.171 -0.0066808 1.57599 0
M  V30 4319 C 428.587 -0.36267 1.55425 0
M  V30 4320 C 428.787 -1.75209 0.995187 0
M  V30 4321 O 427.843 -2.44616 0.626058 0
M  V30 4322 C 429.156 -0.244017 2.99708 0
M  V30 4323 C 430.704 -0.319451 3.11366 0
M  V30 4324 C 431.179 -0.229998 4.57422 0
M  V30 4325 N 432.67 -0.288105 4.62303 0
M  V30 4326 C 433.405 -0.242127 5.72889 0
M  V30 4327 N 432.901 -0.147133 6.92644 0
M  V30 4328 N 434.694 -0.293502 5.61333 0
M  V30 4329 H 426.845 0.902314 1.92281 0
M  V30 4330 H 429.108 0.34525 0.882896 0
M  V30 4331 H 428.814 0.711678 3.44424 0
M  V30 4332 H 428.688 -1.02877 3.629 0
M  V30 4333 H 431.075 -1.26559 2.66584 0
M  V30 4334 H 431.156 0.495055 2.50964 0
M  V30 4335 H 430.8 0.712566 5.02877 0
M  V30 4336 H 430.73 -1.0629 5.15761 0
M  V30 4337 H 433.221 -0.363126 3.76151 0
M  V30 4338 H 433.534 -0.117763 7.7271 0
M  V30 4339 H 431.879 -0.112857 6.94908 0
M  V30 4340 H 435.07 -0.365864 4.66668 0
M  V30 4341 H 435.243 -0.254204 6.47501 0
M  V30 4342 N 428.649 -1.55105 -0.279332 0
M  V30 4343 C 429.895 -1.75672 -1.01327 0
M  V30 4344 C 430.228 -0.552739 -1.86168 0
M  V30 4345 O 429.503 0.449827 -1.89227 0
M  V30 4346 C 429.786 -3.05825 -1.90114 0
M  V30 4347 C 429.639 -4.36565 -1.08309 0
M  V30 4348 C 430.958 -3.31975 -2.8893 0
M  V30 4349 H 428.077 -0.639149 -0.366957 0
M  V30 4350 H 430.719 -1.87833 -0.286154 0
M  V30 4351 H 428.869 -2.95588 -2.52111 0
M  V30 4352 H 430.541 -4.58751 -0.484314 0
M  V30 4353 H 428.784 -4.32076 -0.386362 0
M  V30 4354 H 429.455 -5.23946 -1.73737 0
M  V30 4355 H 431.931 -3.41963 -2.37067 0
M  V30 4356 H 430.807 -4.2432 -3.48201 0
M  V30 4357 H 431.068 -2.51309 -3.63725 0
M  V30 4358 N 430.127 0.543554 -1.4793 0
M  V30 4359 C 431.057 1.65888 -1.64327 0
M  V30 4360 C 432.038 1.62818 -0.492383 0
M  V30 4361 O 433.223 1.80226 -0.723338 0
M  V30 4362 C 430.353 3.04506 -1.67013 0
M  V30 4363 C 429.307 3.2243 -2.81466 0
M  V30 4364 C 428.633 4.61972 -2.69233 0
M  V30 4365 C 429.933 3.06496 -4.22915 0
M  V30 4366 H 431.627 1.52421 -2.57698 0
M  V30 4367 H 429.173 0.731849 -1.24016 0
M  V30 4368 H 431.126 3.82391 -1.77074 0
M  V30 4369 H 429.85 3.18964 -0.70212 0
M  V30 4370 H 428.509 2.46957 -2.70938 0
M  V30 4371 H 428.157 4.73247 -1.7043 0
M  V30 4372 H 427.857 4.74911 -3.46025 0
M  V30 4373 H 429.381 5.41974 -2.81242 0
M  V30 4374 H 430.795 3.74186 -4.34348 0
M  V30 4375 H 429.192 3.30938 -5.006 0
M  V30 4376 H 430.262 2.03077 -4.40327 0
M  V30 4377 N 431.605 1.3629 0.791371 0
M  V30 4378 C 432.535 1.33137 1.91825 0
M  V30 4379 C 433.516 0.203168 1.68882 0
M  V30 4380 O 434.701 0.400509 1.90025 0
M  V30 4381 C 431.831 1.11793 3.28816 0
M  V30 4382 C 430.785 2.21417 3.66277 0
M  V30 4383 C 430.111 1.85218 5.01596 0
M  V30 4384 C 431.411 3.63489 3.75064 0
M  V30 4385 H 433.105 2.2743 1.9472 0
M  V30 4386 H 430.651 1.09479 0.935437 0
M  V30 4387 H 432.604 1.08222 4.07266 0
M  V30 4388 H 431.328 0.139501 3.26302 0
M  V30 4389 H 429.987 2.2411 2.90121 0
M  V30 4390 H 429.635 0.859544 4.95602 0
M  V30 4391 H 429.335 2.58611 5.27631 0
M  V30 4392 H 430.859 1.832 5.82469 0
M  V30 4393 H 432.273 3.63034 4.43711 0
M  V30 4394 H 430.67 4.35771 4.12582 0
M  V30 4395 H 431.74 3.98536 2.76219 0
M  V30 4396 N 433.083 -1.0153 1.20538 0
M  V30 4397 C 434.046 -2.0826 0.957098 0
M  V30 4398 C 435.046 -1.60657 -0.0678655 0
M  V30 4399 O 436.236 -1.73385 0.168332 0
M  V30 4400 C 433.368 -3.38033 0.441188 0
M  V30 4401 H 434.561 -2.31719 1.90384 0
M  V30 4402 H 432.114 -1.1835 1.02093 0
M  V30 4403 H 432.849 -3.20249 -0.510961 0
M  V30 4404 H 432.634 -3.73911 1.18038 0
M  V30 4405 H 434.124 -4.16613 0.287009 0
M  V30 4406 O 434.6 -1.13875 -1.14519 0
M  V30 4407 H 435.291 -0.85746 -1.73687 0
M  V30 END ATOM
M  V30 BEGIN BOND
M  V30 END BOND
M  V30 END CTAB
M  END
$$$$
