drugbank_target|P0ABK9 Cytochrome c-552 (DB03317)
 OpenBabel12092120033D

  0  0  0     0  0            999 V3000
M  V30 BEGIN CTAB
M  V30 COUNTS 7469 7562 0 0 0
M  V30 BEGIN ATOM
M  V30 1 H -0.908 1.98254 -0.117106 0
M  V30 2 N 0 1.576 0 0
M  V30 3 C 0.933 2.03868 1.02534 0
M  V30 4 C 1.911 0.928543 1.3348 0
M  V30 5 O 3.095 1.19667 1.45644 0
M  V30 6 C 0.222 2.43627 2.35294 0
M  V30 7 C -0.732 3.65373 2.2001 0
M  V30 8 S 0.101 5.13292 1.52614 0
M  V30 9 C 1.257 5.56322 2.86805 0
M  V30 10 H 1.49 2.90518 0.631377 0
M  V30 11 H -0.977 1.52953 0.210867 0
M  V30 12 H 0.981 2.67203 3.11629 0
M  V30 13 H -0.358 1.57376 2.7183 0
M  V30 14 H -1.165 3.90944 3.18086 0
M  V30 15 H -1.563 3.418 1.51819 0
M  V30 16 H 0.729 5.58782 3.83104 0
M  V30 17 H 1.672 6.56266 2.65933 0
M  V30 18 H 2.08 4.83886 2.90714 0
M  V30 19 N 1.4781 -0.272755 1.55222 0
M  V30 20 C 2.7061 -1.02255 1.79865 0
M  V30 21 C 3.1211 -1.79924 0.572088 0
M  V30 22 O 2.4781 -1.76638 -0.458842 0
M  V30 23 C 2.5291 -1.98094 3.02392 0
M  V30 24 O 2.2501 -1.23572 4.20311 0
M  V30 25 C 3.7511 -2.84884 3.39641 0
M  V30 26 H 0.9711 -0.302057 0.599168 0
M  V30 27 H 3.5151 -0.303465 2.02236 0
M  V30 28 H 1.6701 -2.65465 2.82147 0
M  V30 29 H 2.0841 -1.88172 4.89583 0
M  V30 30 H 3.5581 -3.47927 4.28545 0
M  V30 31 H 4.0351 -3.54665 2.59055 0
M  V30 32 H 4.6411 -2.23003 3.62146 0
M  V30 33 N 2.9562 -1.48159 -0.537278 0
M  V30 34 C 4.3722 -1.34118 -0.865129 0
M  V30 35 C 4.5722 -0.346678 -1.98495 0
M  V30 36 O 3.6282 0.234715 -2.51407 0
M  V30 37 C 4.9412 -2.73963 -1.23954 0
M  V30 38 C 6.4892 -2.82397 -1.34984 0
M  V30 39 C 6.9642 -4.22928 -1.75772 0
M  V30 40 N 8.4552 -4.25566 -1.82887 0
M  V30 41 C 9.1902 -5.31235 -2.15817 0
M  V30 42 N 8.6862 -6.47189 -2.47222 0
M  V30 43 N 10.4792 -5.18624 -2.16761 0
M  V30 44 H 2.6302 -2.1144 0.201715 0
M  V30 45 H 4.8932 -0.947598 0.0275949 0
M  V30 46 H 4.5992 -3.48264 -0.490381 0
M  V30 47 H 4.4732 -3.0702 -2.19132 0
M  V30 48 H 6.8602 -2.08356 -2.08978 0
M  V30 49 H 6.9412 -2.5297 -0.379448 0
M  V30 50 H 6.5852 -4.97482 -1.02341 0
M  V30 51 H 6.5152 -4.49794 -2.73848 0
M  V30 52 H 9.0062 -3.41924 -1.60924 0
M  V30 53 H 9.3192 -7.23564 -2.71433 0
M  V30 54 H 7.6642 -6.50476 -2.44757 0
M  V30 55 H 10.8552 -4.27056 -1.91679 0
M  V30 56 H 11.0282 -6.01078 -2.42093 0
M  V30 57 N 4.4343 0.785586 -1.36625 0
M  V30 58 C 5.6833 1.53883 -1.30396 0
M  V30 59 C 5.9963 1.95271 0.113452 0
M  V30 60 O 7.2023 2.69858 0.298142 0
M  V30 61 C 5.6583 2.77808 -2.28802 0
M  V30 62 C 5.2663 2.43574 -3.75999 0
M  V30 63 C 7.0103 3.55783 -2.31558 0
M  V30 64 C 4.9173 3.63919 -4.66173 0
M  V30 65 H 3.8473 0.577678 -0.484566 0
M  V30 66 H 6.4983 0.861705 -1.62009 0
M  V30 67 H 4.8803 3.47339 -1.90188 0
M  V30 68 H 6.0543 1.81916 -4.23371 0
M  V30 69 H 4.3693 1.78803 -3.76056 0
M  V30 70 H 6.9663 4.45205 -2.96137 0
M  V30 71 H 7.3093 3.94644 -1.3252 0
M  V30 72 H 7.8423 2.93235 -2.68809 0
M  V30 73 H 4.5813 3.3015 -5.66287 0
M  V30 74 H 4.1013 4.2473 -4.23515 0
M  V30 75 H 5.7803 4.30901 -4.82632 0
M  V30 76 N 5.9124 1.20967 1.01018 0
M  V30 77 C 6.8594 0.964281 2.09691 0
M  V30 78 C 7.8294 -0.107853 1.65749 0
M  V30 79 O 9.0144 0.0381987 1.90762 0
M  V30 80 C 6.1544 0.52943 3.41015 0
M  V30 81 C 5.2674 1.67043 3.98398 0
M  V30 82 C 4.4024 1.18525 5.17808 0
M  V30 83 C 3.4414 2.29892 5.67288 0
M  V30 84 N 2.5784 1.82546 6.77954 0
M  V30 85 H 7.4184 1.89463 2.30017 0
M  V30 86 H 4.9554 0.944289 1.1279 0
M  V30 87 H 6.9134 0.258588 4.16398 0
M  V30 88 H 5.5434 -0.363919 3.20742 0
M  V30 89 H 4.5954 2.05603 3.20049 0
M  V30 90 H 5.9074 2.50877 4.31117 0
M  V30 91 H 5.0614 0.870762 6.00419 0
M  V30 92 H 3.8004 0.316887 4.86669 0
M  V30 93 H 2.8054 2.6215 4.83278 0
M  V30 94 H 4.0304 3.17216 6.00459 0
M  V30 95 H 1.9764 0.980454 6.48632 0
M  V30 96 H 1.8934 2.59956 7.09901 0
M  V30 97 H 3.1614 1.54115 7.64113 0
M  V30 98 N 7.3905 -1.2043 1.01659 0
M  V30 99 C 8.6395 -1.89118 0.701237 0
M  V30 100 C 8.9525 -1.79705 -0.772358 0
M  V30 101 O 10.1585 -2.43528 -1.20026 0
M  V30 102 C 8.6145 -3.39168 1.20388 0
M  V30 103 C 8.2225 -3.57166 2.70438 0
M  V30 104 C 9.9665 -4.1341 0.963953 0
M  V30 105 C 7.8735 -5.01042 3.14183 0
M  V30 106 H 6.8035 -0.708267 0.2586 0
M  V30 107 H 9.4545 -1.36239 1.22927 0
M  V30 108 H 7.8365 -3.91369 0.603824 0
M  V30 109 H 9.0105 -3.15351 3.35992 0
M  V30 110 H 7.3255 -2.96294 2.92572 0
M  V30 111 H 9.9225 -5.19491 1.26621 0
M  V30 112 H 10.2655 -4.16181 -0.099578 0
M  V30 113 H 10.7985 -3.67309 1.52738 0
M  V30 114 H 7.5375 -5.03426 4.19812 0
M  V30 115 H 7.0575 -5.43668 2.53348 0
M  V30 116 H 8.7365 -5.69623 3.0682 0
M  V30 117 N 8.8686 -0.792821 -1.36206 0
M  V30 118 C 9.8166 -0.181555 -2.3189 0
M  V30 119 C 10.8106 0.661025 -1.55971 0
M  V30 120 O 12.0166 0.555728 -1.71206 0
M  V30 121 H 8.3916 -0.0399382 -0.750939 0
M  V30 122 H 10.3626 -1.00394 -2.81005 0
M  V30 123 C 9.1116 0.666444 -3.41253 0
M  V30 124 H 8.4346 0.0274489 -3.99791 0
M  V30 125 H 9.8746 1.06076 -4.10517 0
M  V30 126 C 8.3336 1.82614 -2.83114 0
M  V30 127 O 8.8636 2.9229 -2.75553 0
M  V30 128 N 7.0696 1.63333 -2.40356 0
M  V30 129 H 6.6166 0.741217 -2.46706 0
M  V30 130 H 6.5746 2.41087 -2.01803 0
M  V30 131 N 10.3467 1.47872 -0.545128 0
M  V30 132 C 11.3097 2.28337 0.198717 0
M  V30 133 C 12.3097 1.36255 0.853888 0
M  V30 134 O 13.4997 1.59003 0.711606 0
M  V30 135 C 10.6317 3.15585 1.28915 0
M  V30 136 H 11.8247 2.95567 -0.507941 0
M  V30 137 H 9.3777 1.53362 -0.301616 0
M  V30 138 H 10.1127 2.53019 2.02859 0
M  V30 139 H 9.8977 3.83337 0.824309 0
M  V30 140 H 11.3877 3.76243 1.81194 0
M  V30 141 N 11.8248 0.280983 1.55075 0
M  V30 142 C 13.2408 -0.0729964 1.59433 0
M  V30 143 C 13.4408 -1.5411 1.29817 0
M  V30 144 O 12.4968 -2.29086 1.06187 0
M  V30 145 C 13.8098 0.306921 2.9913 0
M  V30 146 C 15.3578 0.254023 3.11968 0
M  V30 147 C 15.8328 0.608467 4.5394 0
M  V30 148 N 17.3238 0.560241 4.59799 0
M  V30 149 C 18.0588 0.80722 5.6769 0
M  V30 150 N 17.5548 1.11912 6.83701 0
M  V30 151 N 19.3478 0.735623 5.57266 0
M  V30 152 H 11.4988 1.238 1.7259 0
M  V30 153 H 13.7618 0.500547 0.805082 0
M  V30 154 H 13.4678 1.32816 3.25657 0
M  V30 155 H 13.3418 -0.349363 3.75579 0
M  V30 156 H 15.7288 -0.75794 2.852 0
M  V30 157 H 15.8098 0.944649 2.37718 0
M  V30 158 H 15.4538 1.61814 4.81434 0
M  V30 159 H 15.3838 -0.104013 5.26497 0
M  V30 160 H 17.8748 0.329288 3.76463 0
M  V30 161 H 18.1878 1.29409 7.61888 0
M  V30 162 H 16.5328 1.15695 6.85303 0
M  V30 163 H 19.7238 0.491752 4.6551 0
M  V30 164 H 19.8968 0.931482 6.4127 0
M  V30 165 N 13.3029 -1.57598 0.00835791 0
M  V30 166 C 14.7189 -1.55764 -0.347822 0
M  V30 167 C 14.9189 -1.01186 -1.74252 0
M  V30 168 O 13.9749 -0.649371 -2.44007 0
M  V30 169 C 15.2879 -2.99927 -0.215407 0
M  V30 170 C 16.8359 -3.11656 -0.289725 0
M  V30 171 C 17.3109 -4.57621 -0.18634 0
M  V30 172 N 18.8019 -4.62557 -0.243978 0
M  V30 173 C 19.5369 -5.73094 -0.18745 0
M  V30 174 N 19.0329 -6.92753 -0.0810331 0
M  V30 175 N 20.8259 -5.61588 -0.239925 0
M  V30 176 H 12.9769 -1.91411 0.92062 0
M  V30 177 H 15.2399 -0.879562 0.353659 0
M  V30 178 H 14.9459 -3.43729 0.744512 0
M  V30 179 H 14.8199 -3.63865 -0.994097 0
M  V30 180 H 17.2069 -2.67779 -1.24009 0
M  V30 181 H 17.2879 -2.5048 0.51898 0
M  V30 182 H 16.9319 -5.02174 0.760519 0
M  V30 183 H 16.8619 -5.16752 -1.01364 0
M  V30 184 H 19.3529 -3.76481 -0.327217 0
M  V30 185 H 19.6659 -7.72787 -0.0440241 0
M  V30 186 H 18.0109 -6.94984 -0.0465419 0
M  V30 187 H 21.2019 -4.66996 -0.321317 0
M  V30 188 H 21.3749 -6.47714 -0.192407 0
M  V30 189 N 14.781 0.264519 -1.55364 0
M  V30 190 C 16.03 0.992812 -1.75574 0
M  V30 191 C 16.343 1.87142 -0.568979 0
M  V30 192 O 17.549 2.63513 -0.653682 0
M  V30 193 C 16.005 1.81519 -3.10771 0
M  V30 194 C 15.613 0.984839 -4.37041 0
M  V30 195 C 17.357 2.53727 -3.40327 0
M  V30 196 C 15.264 1.80209 -5.63275 0
M  V30 197 H 14.194 0.374412 -0.65447 0
M  V30 198 H 16.845 0.248138 -1.81815 0
M  V30 199 H 15.227 2.60115 -2.98591 0
M  V30 200 H 16.401 0.242455 -4.60162 0
M  V30 201 H 14.716 0.37691 -4.14691 0
M  V30 202 H 17.313 3.15292 -4.3185 0
M  V30 203 H 17.656 3.24447 -2.60845 0
M  V30 204 H 18.189 1.82156 -3.53644 0
M  V30 205 H 14.928 1.13896 -6.45529 0
M  V30 206 H 14.448 2.52022 -5.44284 0
M  V30 207 H 16.127 2.37364 -6.01887 0
M  V30 208 N 16.2591 1.48442 0.529413 0
M  V30 209 C 17.5061 1.56488 1.28521 0
M  V30 210 C 17.8341 0.239042 1.93025 0
M  V30 211 O 17.0891 -0.770713 1.79885 0
M  V30 212 C 17.3881 2.6523 2.39558 0
M  V30 213 C 17.0541 4.07648 1.92702 0
M  V30 214 C 15.7161 4.46411 1.79641 0
M  V30 215 C 18.0681 4.96896 1.573 0
M  V30 216 C 15.3961 5.72226 1.29514 0
M  V30 217 C 17.7481 6.23202 1.08636 0
M  V30 218 C 16.4121 6.60821 0.941919 0
M  V30 219 H 15.6821 0.572631 0.470292 0
M  V30 220 H 18.3291 1.82161 0.59072 0
M  V30 221 H 16.6341 2.33419 3.14679 0
M  V30 222 H 18.3311 2.68671 2.97686 0
M  V30 223 H 14.9211 3.77036 2.03819 0
M  V30 224 H 19.1051 4.67626 1.66251 0
M  V30 225 H 14.3611 6.00097 1.17019 0
M  V30 226 H 18.5351 6.91753 0.803136 0
M  V30 227 H 16.1621 7.58198 0.5513 0
M  V30 228 N 17.7372 -0.778329 1.37039 0
M  V30 229 C 18.9622 -1.57248 1.35233 0
M  V30 230 C 19.3872 -1.87999 -0.0615568 0
M  V30 231 O 18.7452 -1.48734 -1.03672 0
M  V30 232 C 18.7932 -2.86353 2.19167 0
M  V30 233 O 17.8972 -3.80442 1.59178 0
M  V30 234 H 17.2382 -0.476569 0.462362 0
M  V30 235 H 19.7682 -0.963853 1.80474 0
M  V30 236 H 19.7782 -3.35519 2.32145 0
M  V30 237 H 18.4532 -2.63299 3.21942 0
M  V30 238 H 17.0302 -3.39067 1.55203 0
M  V30 239 N 19.2153 -1.21501 -1.00376 0
M  V30 240 C 20.1453 -0.999478 -2.11028 0
M  V30 241 C 21.1263 0.0759671 -1.6993 0
M  V30 242 O 22.3113 -0.0841106 -1.94018 0
M  V30 243 C 19.4413 -0.564709 -3.42678 0
M  V30 244 C 18.3953 -1.58486 -3.97576 0
M  V30 245 C 17.7213 -1.00628 -5.25146 0
M  V30 246 C 19.0213 -2.97204 -4.29496 0
M  V30 247 H 20.7153 -1.92495 -2.29317 0
M  V30 248 H 18.2613 -0.92693 -1.102 0
M  V30 249 H 20.2143 -0.401091 -4.19487 0
M  V30 250 H 18.9383 0.396411 -3.24185 0
M  V30 251 H 17.5973 -1.73606 -3.22888 0
M  V30 252 H 17.2453 -0.0368439 -5.02987 0
M  V30 253 H 16.9453 -1.68771 -5.62841 0
M  V30 254 H 18.4693 -0.854015 -6.04598 0
M  V30 255 H 19.8833 -2.8552 -4.97143 0
M  V30 256 H 18.2803 -3.62372 -4.78338 0
M  V30 257 H 19.3503 -3.47956 -3.3772 0
M  V30 258 N 20.6934 1.19889 -1.02296 0
M  V30 259 C 21.6234 2.25141 -0.619174 0
M  V30 260 C 22.6044 1.66051 0.368915 0
M  V30 261 O 23.7894 1.92546 0.252941 0
M  V30 262 C 20.9194 3.4728 0.0368783 0
M  V30 263 C 19.8734 4.19005 -0.872865 0
M  V30 264 C 19.1994 5.34637 -0.0822402 0
M  V30 265 C 20.4994 4.74452 -2.18387 0
M  V30 266 H 22.1934 2.59171 -1.49903 0
M  V30 267 H 19.7394 1.24579 -0.722222 0
M  V30 268 H 21.6924 4.20098 0.330958 0
M  V30 269 H 20.4164 3.12433 0.95149 0
M  V30 270 H 19.0754 3.48061 -1.15105 0
M  V30 271 H 18.7234 4.96034 0.83422 0
M  V30 272 H 18.4234 5.83557 -0.688149 0
M  V30 273 H 19.9474 6.10255 0.205238 0
M  V30 274 H 21.3614 5.39055 -1.95172 0
M  V30 275 H 19.7584 5.33834 -2.74119 0
M  V30 276 H 20.8284 3.92844 -2.84257 0
M  V30 277 N 22.1715 0.800033 1.35784 0
M  V30 278 C 23.4205 0.37387 1.98205 0
M  V30 279 C 23.7335 -1.06302 1.64193 0
M  V30 280 O 24.9395 -1.59198 2.19928 0
M  V30 281 C 23.3955 0.617532 3.54562 0
M  V30 282 C 23.0035 2.06654 3.9749 0
M  V30 283 C 24.7475 0.256401 4.23725 0
M  V30 284 C 22.6545 2.2563 5.46667 0
M  V30 285 H 21.5845 0.136055 0.741623 0
M  V30 286 H 24.2355 0.983166 1.54939 0
M  V30 287 H 22.6175 -0.0616248 3.95952 0
M  V30 288 H 23.7915 2.78296 3.67271 0
M  V30 289 H 22.1065 2.38691 3.41197 0
M  V30 290 H 24.7035 0.376318 5.33374 0
M  V30 291 H 25.0465 -0.796692 4.08606 0
M  V30 292 H 25.5795 0.889214 3.87734 0
M  V30 293 H 22.3185 3.2936 5.66747 0
M  V30 294 H 21.8385 1.58504 5.78478 0
M  V30 295 H 23.5175 2.06861 6.1304 0
M  V30 296 N 23.6496 -1.47581 0.552962 0
M  V30 297 C 25.0606 -1.86324 0.118463 0
M  V30 298 C 25.4116 -1.46006 -1.3106 0
M  V30 299 O 24.5366 -0.861182 -1.98526 0
M  V30 300 C 25.1316 -3.3816 0.20821 0
M  V30 301 C 23.6906 -3.7601 -0.171226 0
M  V30 302 C 22.8376 -2.71634 0.557686 0
M  V30 303 H 25.7886 -1.39159 0.762928 0
M  V30 304 H 25.8096 -3.76141 -0.574278 0
M  V30 305 H 25.3216 -3.67473 1.24841 0
M  V30 306 H 23.4226 -3.52313 -1.21269 0
M  V30 307 H 23.5356 -4.78745 0.184379 0
M  V30 308 H 21.8996 -2.547 0.00125792 0
M  V30 309 H 22.6826 -3.0379 1.59896 0
M  V30 310 N 25.1277 -0.289203 -1.54924 0
M  V30 311 C 26.3747 0.323519 -1.99899 0
M  V30 312 C 26.7027 1.54797 -1.17762 0
M  V30 313 O 25.9577 1.94237 -0.238835 0
M  V30 314 C 26.2567 0.736119 -3.49737 0
M  V30 315 C 25.9227 -0.385276 -4.49251 0
M  V30 316 C 24.5847 -0.693156 -4.76181 0
M  V30 317 C 26.9367 -1.14021 -5.08575 0
M  V30 318 C 24.2647 -1.7593 -5.59701 0
M  V30 319 C 26.6167 -2.19619 -5.93254 0
M  V30 320 C 25.2807 -2.51026 -6.185 0
M  V30 321 H 24.5507 0.118384 -0.731482 0
M  V30 322 H 27.1977 -0.405847 -1.8715 0
M  V30 323 H 25.5027 1.54539 -3.60035 0
M  V30 324 H 27.1997 1.22118 -3.81953 0
M  V30 325 H 23.7897 -0.135202 -4.28387 0
M  V30 326 H 27.9737 -0.915611 -4.87781 0
M  V30 327 H 23.2297 -2.0075 -5.77503 0
M  V30 328 H 27.4037 -2.78581 -6.38252 0
M  V30 329 H 25.0307 -3.33772 -6.83008 0
M  V30 330 N 26.6058 1.57591 -0.0167156 0
M  V30 331 C 27.8528 1.91283 0.664597 0
M  V30 332 C 28.1808 0.891949 1.72842 0
M  V30 333 O 27.4358 -0.100931 1.9544 0
M  V30 334 C 27.7348 3.3172 1.33029 0
M  V30 335 C 27.4008 4.4914 0.398047 0
M  V30 336 C 26.0628 4.80992 0.141421 0
M  V30 337 C 28.4148 5.20634 -0.242825 0
M  V30 338 C 25.7428 5.81703 -0.764092 0
M  V30 339 C 28.0948 6.22311 -1.13632 0
M  V30 340 C 26.7588 6.52611 -1.40196 0
M  V30 341 H 26.0288 0.699956 0.243193 0
M  V30 342 H 28.6758 1.9135 -0.0758267 0
M  V30 343 H 26.9808 3.27856 2.14517 0
M  V30 344 H 28.6778 3.55055 1.86379 0
M  V30 345 H 25.2678 4.24262 0.608238 0
M  V30 346 H 29.4518 4.96267 -0.0576019 0
M  V30 347 H 24.7078 6.03532 -0.977732 0
M  V30 348 H 28.8818 6.76834 -1.63917 0
M  V30 349 H 26.5088 7.30467 -2.10529 0
M  V30 350 N 28.0839 -0.256276 1.55502 0
M  V30 351 C 29.3309 -0.985619 1.76895 0
M  V30 352 C 29.6589 -1.85671 0.579355 0
M  V30 353 O 28.9139 -1.90744 -0.437651 0
M  V30 354 C 29.2129 -1.88432 3.03691 0
M  V30 355 C 28.8789 -1.16936 4.35473 0
M  V30 356 C 27.5409 -0.97173 4.71286 0
M  V30 357 C 29.8929 -0.661889 5.1698 0
M  V30 358 C 27.2209 -0.254179 5.86149 0
M  V30 359 C 29.5729 0.042149 6.32586 0
M  V30 360 C 28.2369 0.25134 6.67027 0
M  V30 361 H 27.5069 -0.360663 0.647304 0
M  V30 362 H 30.1539 -0.256483 1.89775 0
M  V30 363 H 28.4589 -2.68021 2.85783 0
M  V30 364 H 30.1559 -2.45015 3.1744 0
M  V30 365 H 26.7459 -1.33332 4.07333 0
M  V30 366 H 30.9299 -0.802145 4.89775 0
M  V30 367 H 26.1859 -0.0815408 6.11346 0
M  V30 368 H 30.3599 0.443049 6.94989 0
M  V30 369 H 27.9869 0.809314 7.5588 0
M  V30 370 N 29.562 -1.4872 -0.521534 0
M  V30 371 C 30.809 -1.57168 -1.27689 0
M  V30 372 C 31.137 -0.249275 -1.92896 0
M  V30 373 O 30.392 0.761162 -1.80291 0
M  V30 374 C 30.691 -2.66497 -2.38148 0
M  V30 375 C 30.357 -4.08664 -1.90538 0
M  V30 376 C 29.019 -4.47357 -1.77271 0
M  V30 377 C 31.371 -4.97724 -1.54663 0
M  V30 378 C 28.699 -5.72905 -1.26478 0
M  V30 379 C 31.051 -6.2377 -1.05329 0
M  V30 380 C 29.715 -6.61311 -0.906861 0
M  V30 381 H 28.985 -0.575117 -0.467249 0
M  V30 382 H 31.632 -1.82472 -0.581051 0
M  V30 383 H 29.937 -2.35085 -3.13437 0
M  V30 384 H 31.634 -2.70246 -2.96257 0
M  V30 385 H 28.224 -3.78111 -2.01816 0
M  V30 386 H 32.408 -4.68501 -1.63768 0
M  V30 387 H 27.664 -6.00709 -1.13835 0
M  V30 388 H 31.838 -6.9217 -0.76644 0
M  V30 389 H 29.465 -7.5848 -0.511083 0
M  V30 390 N 31.0401 0.771051 -1.3745 0
M  V30 391 C 32.2681 1.56015 -1.35893 0
M  V30 392 C 32.6831 1.88718 0.0555523 0
M  V30 393 O 32.0401 1.51502 1.01752 0
M  V30 394 C 32.0911 2.87001 -2.19801 0
M  V30 395 O 31.8121 2.557 -3.55738 0
M  V30 396 C 33.3131 3.81228 -2.26231 0
M  V30 397 H 30.5331 0.483317 -0.465453 0
M  V30 398 H 33.0771 0.955611 -1.80799 0
M  V30 399 H 31.2321 3.43877 -1.78402 0
M  V30 400 H 31.6461 3.39584 -3.99729 0
M  V30 401 H 33.1201 4.70139 -2.89263 0
M  V30 402 H 33.5971 4.20409 -1.27093 0
M  V30 403 H 34.2031 3.30281 -2.67945 0
M  V30 404 N 32.5182 1.22032 0.997298 0
M  V30 405 C 33.7432 1.06921 1.77715 0
M  V30 406 C 34.1682 -0.376226 1.84299 0
M  V30 407 O 33.5262 -1.27165 1.29223 0
M  V30 408 C 33.5742 1.67996 3.19076 0
M  V30 409 O 32.6782 0.930653 4.01762 0
M  V30 410 H 32.0192 0.375814 0.547412 0
M  V30 411 H 34.5492 1.61737 1.25309 0
M  V30 412 H 34.5592 1.72538 3.69723 0
M  V30 413 H 33.2342 2.73182 3.13599 0
M  V30 414 H 31.8112 0.960917 3.60307 0
M  V30 415 N 33.9963 -1.19345 1.0293 0
M  V30 416 C 35.2423 -1.89318 0.727083 0
M  V30 417 C 35.5753 -1.79446 -0.742483 0
M  V30 418 O 34.8503 -1.1871 -1.54072 0
M  V30 419 C 35.1333 -3.40238 1.17942 0
M  V30 420 C 34.9863 -3.58979 2.71024 0
M  V30 421 C 36.3053 -4.33479 0.760548 0
M  V30 422 H 33.4243 -0.687475 0.265606 0
M  V30 423 H 36.0663 -1.40477 1.2793 0
M  V30 424 H 34.2163 -3.81964 0.709608 0
M  V30 425 H 35.8883 -3.26421 3.25955 0
M  V30 426 H 34.1313 -3.02018 3.11396 0
M  V30 427 H 34.8023 -4.64823 2.9773 0
M  V30 428 H 37.2783 -3.99469 1.16464 0
M  V30 429 H 36.1543 -5.37664 1.10493 0
M  V30 430 H 36.4153 -4.40813 -0.337063 0
M  V30 431 N 35.4744 -0.807222 -1.35358 0
M  V30 432 C 36.4244 -0.190706 -2.27201 0
M  V30 433 C 37.4084 0.635838 -1.47804 0
M  V30 434 O 38.6004 0.492991 -1.69996 0
M  V30 435 C 35.7294 0.659337 -3.36909 0
M  V30 436 C 34.8154 -0.176971 -4.23731 0
M  V30 437 N 35.2064 -1.24029 -4.90357 0
M  V30 438 C 33.5044 0.0412953 -4.45981 0
M  V30 439 C 34.2054 -1.75092 -5.54723 0
M  V30 440 N 33.1814 -1.05727 -5.33219 0
M  V30 441 H 36.9834 -1.0043 -2.76208 0
M  V30 442 H 34.4974 -0.648445 -1.48892 0
M  V30 443 H 36.4944 1.11706 -4.01656 0
M  V30 444 H 35.1544 1.47127 -2.89454 0
M  V30 445 H 36.1654 -1.62295 -4.91814 0
M  V30 446 H 32.8424 0.82232 -4.09322 0
M  V30 447 H 34.2324 -2.63963 -6.17878 0
M  V30 448 N 36.9525 1.47285 -0.560781 0
M  V30 449 C 37.9155 2.28535 0.174488 0
M  V30 450 C 38.9155 1.37153 0.839388 0
M  V30 451 O 40.1055 1.59748 0.694702 0
M  V30 452 C 37.2375 3.16934 1.25561 0
M  V30 453 H 38.4305 2.95012 -0.539262 0
M  V30 454 H 35.9835 1.53034 -0.317865 0
M  V30 455 H 36.7185 2.55157 2.00164 0
M  V30 456 H 36.5035 3.8419 0.783604 0
M  V30 457 H 37.9935 3.78143 1.77193 0
M  V30 458 N 38.4306 0.297415 1.54768 0
M  V30 459 C 39.3406 -0.58983 2.27064 0
M  V30 460 C 40.3566 -1.15144 1.30453 0
M  V30 461 O 41.5326 -1.17699 1.63428 0
M  V30 462 C 38.5976 -1.74714 2.9946 0
M  V30 463 C 37.6586 -1.21997 4.11601 0
M  V30 464 C 36.8916 -2.32212 4.80535 0
M  V30 465 O 37.1146 -3.52036 4.48806 0
M  V30 466 O 36.0486 -1.99106 5.68014 0
M  V30 467 H 39.8746 -0.00348199 3.037 0
M  V30 468 H 37.4596 0.0640035 1.49263 0
M  V30 469 H 39.3416 -2.42147 3.44881 0
M  V30 470 H 38.0166 -2.32016 2.25722 0
M  V30 471 H 36.9236 -0.511458 3.70587 0
M  V30 472 H 38.2566 -0.692419 4.87305 0
M  V30 473 N 39.9087 -1.5758 0.0250728 0
M  V30 474 C 40.8407 -2.06869 -0.986796 0
M  V30 475 C 41.8537 -0.991332 -1.29137 0
M  V30 476 O 43.0427 -1.26761 -1.25674 0
M  V30 477 C 40.1427 -2.47486 -2.31525 0
M  V30 478 C 39.3157 -3.78253 -2.19643 0
M  V30 479 C 38.3747 -4.05464 -3.35388 0
M  V30 480 O 37.4007 -4.75774 -3.12454 0
M  V30 481 N 38.6027 -3.55321 -4.59051 0
M  V30 482 H 41.3677 -2.94302 -0.566276 0
M  V30 483 H 38.9287 -1.6109 -0.161776 0
M  V30 484 H 40.9207 -2.62785 -3.07776 0
M  V30 485 H 39.4907 -1.65441 -2.65232 0
M  V30 486 H 38.7107 -3.7279 -1.28144 0
M  V30 487 H 39.9987 -4.63936 -2.08903 0
M  V30 488 H 39.3967 -2.98431 -4.80578 0
M  V30 489 H 37.9537 -3.75905 -5.32483 0
M  V30 490 N 41.3868 0.248026 -1.55636 0
M  V30 491 C 42.6148 0.993808 -1.81469 0
M  V30 492 C 43.0298 1.78991 -0.60064 0
M  V30 493 O 42.3868 1.77345 0.430682 0
M  V30 494 C 42.4378 1.93258 -3.05506 0
M  V30 495 O 42.1588 1.16869 -4.22224 0
M  V30 496 C 43.6598 2.79444 -3.4413 0
M  V30 497 H 40.8798 0.292486 -0.603898 0
M  V30 498 H 43.4238 0.271253 -2.02693 0
M  V30 499 H 41.5788 2.60943 -2.86335 0
M  V30 500 H 41.9928 1.80359 -4.92515 0
M  V30 501 H 43.4668 3.41066 -4.34026 0
M  V30 502 H 43.9438 3.50499 -2.64665 0
M  V30 503 H 44.5498 2.17214 -3.65648 0
M  V30 504 N 42.8649 1.48995 0.513639 0
M  V30 505 C 43.8279 1.64229 1.59879 0
M  V30 506 C 44.8279 0.514696 1.5234 0
M  V30 507 O 46.0179 0.78087 1.55718 0
M  V30 508 C 43.1499 1.62783 2.99524 0
M  V30 509 H 44.3429 2.61004 1.47705 0
M  V30 510 H 41.8959 1.37837 0.736936 0
M  V30 511 H 42.6309 0.675461 3.17188 0
M  V30 512 H 42.4159 2.4466 3.06404 0
M  V30 513 H 43.9059 1.76669 3.78388 0
M  V30 514 N 44.343 -0.763751 1.37857 0
M  V30 515 C 45.306 -1.85889 1.34081 0
M  V30 516 C 46.306 -1.58949 0.243277 0
M  V30 517 O 47.496 -1.66882 0.499589 0
M  V30 518 C 44.628 -3.23176 1.08489 0
M  V30 519 H 45.821 -1.90648 2.31502 0
M  V30 520 H 43.374 -0.964367 1.23003 0
M  V30 521 H 44.109 -3.24091 0.116318 0
M  V30 522 H 43.894 -3.44124 1.8794 0
M  V30 523 H 45.384 -4.03254 1.08517 0
M  V30 524 N 45.8211 -1.22559 -0.990812 0
M  V30 525 C 47.2321 -1.04791 -1.54518 0
M  V30 526 C 47.5831 0.387998 -1.92325 0
M  V30 527 O 46.7081 1.27328 -1.74976 0
M  V30 528 C 47.3031 -1.896 -2.80779 0
M  V30 529 C 45.8621 -1.76124 -3.32652 0
M  V30 530 C 45.0091 -1.8594 -2.05722 0
M  V30 531 H 47.9601 -1.36374 -0.811662 0
M  V30 532 H 47.9811 -1.41464 -3.53225 0
M  V30 533 H 47.4931 -2.94101 -2.53231 0
M  V30 534 H 45.5941 -0.743643 -3.65104 0
M  V30 535 H 45.7071 -2.58913 -4.03114 0
M  V30 536 H 44.0711 -1.29403 -2.19379 0
M  V30 537 H 44.8541 -2.91976 -1.80568 0
M  V30 538 N 47.2992 1.18797 -1.03562 0
M  V30 539 C 48.2622 2.20464 -0.626769 0
M  V30 540 C 49.2622 1.57721 0.313173 0
M  V30 541 O 50.4522 1.73917 0.0992615 0
M  V30 542 C 47.5842 3.40802 0.0818498 0
M  V30 543 H 48.7772 2.58149 -1.5264 0
M  V30 544 H 46.3302 1.32593 -0.827578 0
M  V30 545 H 47.0652 3.08642 0.995518 0
M  V30 546 H 46.8502 3.8758 -0.593652 0
M  V30 547 H 48.3402 4.16092 0.354584 0
M  V30 548 N 48.7773 0.814389 1.34928 0
M  V30 549 C 49.7243 0.22822 2.29669 0
M  V30 550 C 50.6943 -0.642164 1.53184 0
M  V30 551 O 51.8793 -0.585605 1.81591 0
M  V30 552 C 49.0193 -0.61089 3.3965 0
M  V30 553 C 48.1323 0.280792 4.31086 0
M  V30 554 C 47.2673 -0.567067 5.28165 0
M  V30 555 C 46.3063 0.324531 6.11239 0
M  V30 556 N 45.4433 -0.483756 7.00431 0
M  V30 557 H 50.2833 1.04153 2.79206 0
M  V30 558 H 47.8203 0.525133 1.37407 0
M  V30 559 H 49.7783 -1.11263 4.0209 0
M  V30 560 H 48.4083 -1.38939 2.91369 0
M  V30 561 H 47.4603 0.900688 3.69583 0
M  V30 562 H 48.7723 0.966723 4.89342 0
M  V30 563 H 47.9263 -1.13363 5.96015 0
M  V30 564 H 46.6653 -1.28654 4.70425 0
M  V30 565 H 45.6703 0.903298 5.42329 0
M  V30 566 H 46.8953 1.04198 6.71059 0
M  V30 567 H 44.8413 -1.18706 6.45171 0
M  V30 568 H 44.7583 0.143965 7.55863 0
M  V30 569 H 46.0263 -1.03334 7.7262 0
M  V30 570 N 50.2554 -1.46986 0.568584 0
M  V30 571 C 51.6664 -1.86188 0.138219 0
M  V30 572 C 52.0174 -1.47388 -1.29504 0
M  V30 573 O 51.1424 -0.88219 -1.97602 0
M  V30 574 C 51.7374 -3.3792 0.244065 0
M  V30 575 C 50.2964 -3.76171 -0.131335 0
M  V30 576 C 49.4434 -2.71027 0.586465 0
M  V30 577 H 52.3944 -1.38342 0.777645 0
M  V30 578 H 52.4154 -3.76729 -0.534351 0
M  V30 579 H 51.9274 -3.66128 1.28731 0
M  V30 580 H 50.0284 -3.5358 -1.17526 0
M  V30 581 H 50.1414 -4.78523 0.235146 0
M  V30 582 H 48.5054 -2.54684 0.0282722 0
M  V30 583 H 49.2884 -3.02077 1.63109 0
M  V30 584 N 51.7335 -0.305618 -1.54608 0
M  V30 585 C 52.9795 0.302746 -2.00528 0
M  V30 586 C 53.3125 1.53184 -1.19367 0
M  V30 587 O 52.5875 1.92598 -0.271321 0
M  V30 588 C 52.8705 0.654756 -3.54097 0
M  V30 589 C 52.7235 -0.583793 -4.45995 0
M  V30 590 C 54.0425 1.47947 -4.14487 0
M  V30 591 H 51.1615 0.108564 -0.72896 0
M  V30 592 H 53.8035 -0.418634 -1.85331 0
M  V30 593 H 51.9535 1.26935 -3.67178 0
M  V30 594 H 53.6255 -1.22224 -4.44814 0
M  V30 595 H 51.8685 -1.21615 -4.16404 0
M  V30 596 H 52.5395 -0.293287 -5.5122 0
M  V30 597 H 55.0155 0.96013 -4.04871 0
M  V30 598 H 53.8915 1.69454 -5.22088 0
M  V30 599 H 54.1525 2.47011 -3.66658 0
M  V30 600 N 53.2116 1.57565 -0.0334293 0
M  V30 601 C 54.4396 1.9628 0.654347 0
M  V30 602 C 54.8546 0.910138 1.65414 0
M  V30 603 O 54.2116 -0.107595 1.82183 0
M  V30 604 C 54.2626 3.35067 1.35693 0
M  V30 605 O 53.9836 4.36296 0.397191 0
M  V30 606 C 55.4846 3.88439 2.13613 0
M  V30 607 H 52.7046 0.646369 0.180132 0
M  V30 608 H 55.2486 2.04282 -0.0944721 0
M  V30 609 H 53.4036 3.2827 2.05712 0
M  V30 610 H 53.8176 5.1678 0.896597 0
M  V30 611 H 55.2916 4.8788 2.58219 0
M  V30 612 H 55.7686 3.22914 2.97696 0
M  V30 613 H 56.3746 3.98516 1.48543 0
M  V30 614 N 54.6897 -0.239769 1.55765 0
M  V30 615 C 55.9357 -0.968234 1.78194 0
M  V30 616 C 56.2687 -1.84701 0.599938 0
M  V30 617 O 55.5437 -1.9031 -0.401524 0
M  V30 618 C 55.8267 -1.8227 3.10564 0
M  V30 619 C 55.6797 -0.971633 4.3918 0
M  V30 620 C 56.9987 -2.80388 3.39221 0
M  V30 621 H 54.1177 -0.350572 0.648281 0
M  V30 622 H 56.7597 -0.238259 1.885 0
M  V30 623 H 54.9097 -2.44507 3.01908 0
M  V30 624 H 56.5817 -0.367408 4.59835 0
M  V30 625 H 54.8247 -0.276276 4.32919 0
M  V30 626 H 55.4957 -1.60346 5.28198 0
M  V30 627 H 57.9717 -2.28287 3.47885 0
M  V30 628 H 56.8477 -3.3729 4.33044 0
M  V30 629 H 57.1087 -3.57212 2.60484 0
M  V30 630 N 56.1678 -1.49265 -0.50573 0
M  V30 631 C 57.0778 -1.68312 -1.63427 0
M  V30 632 C 58.0938 -0.565682 -1.64548 0
M  V30 633 O 59.2698 -0.839801 -1.83055 0
M  V30 634 C 56.3348 -1.74107 -2.99813 0
M  V30 635 C 55.3958 -2.97653 -3.09356 0
M  V30 636 C 54.6288 -3.03163 -4.39236 0
M  V30 637 O 54.8518 -2.16396 -5.27758 0
M  V30 638 O 53.7858 -3.9558 -4.53652 0
M  V30 639 H 57.6118 -2.63907 -1.50289 0
M  V30 640 H 55.1968 -1.32951 -0.681502 0
M  V30 641 H 57.0788 -1.803 -3.80881 0
M  V30 642 H 55.7538 -0.816901 -3.13223 0
M  V30 643 H 54.6608 -2.96981 -2.27493 0
M  V30 644 H 55.9938 -3.89535 -3.00871 0
M  V30 645 N 57.6459 0.756429 -1.3826 0
M  V30 646 C 58.6089 1.85176 -1.35065 0
M  V30 647 C 59.6089 1.58818 -0.251703 0
M  V30 648 O 60.7989 1.66615 -0.508433 0
M  V30 649 C 57.9309 3.22596 -1.10201 0
M  V30 650 H 59.1239 1.89417 -2.3251 0
M  V30 651 H 56.6769 0.95783 -1.23512 0
M  V30 652 H 57.4119 3.24025 -0.133504 0
M  V30 653 H 57.1969 3.43122 -1.89762 0
M  V30 654 H 58.6869 4.02673 -1.10654 0
M  V30 655 N 59.124 1.23083 0.984299 0
M  V30 656 C 60.071 1.00854 2.07598 0
M  V30 657 C 61.041 -0.0726709 1.65941 0
M  V30 658 O 62.226 0.0786535 1.90638 0
M  V30 659 C 59.366 0.601645 3.39815 0
M  V30 660 C 58.479 1.75456 3.94765 0
M  V30 661 C 57.614 1.29482 5.15177 0
M  V30 662 C 56.653 2.41873 5.62284 0
M  V30 663 N 55.79 1.96885 6.73929 0
M  V30 664 H 60.63 1.943 2.25946 0
M  V30 665 H 58.167 0.968001 1.10762 0
M  V30 666 H 60.125 0.346854 4.15756 0
M  V30 667 H 58.755 -0.295803 3.21442 0
M  V30 668 H 57.807 2.12346 3.15616 0
M  V30 669 H 59.119 2.59965 4.25699 0
M  V30 670 H 58.273 0.997923 5.98437 0
M  V30 671 H 57.012 0.420046 4.85888 0
M  V30 672 H 56.017 2.72342 4.77608 0
M  V30 673 H 57.242 3.29881 5.93595 0
M  V30 674 H 55.188 1.11782 6.46406 0
M  V30 675 H 55.105 2.74956 7.04227 0
M  V30 676 H 56.373 1.70289 7.60672 0
M  V30 677 N 60.6021 -1.18246 1.0419 0
M  V30 678 C 61.5501 -2.23968 0.627792 0
M  V30 679 C 62.5441 -1.65828 -0.346019 0
M  V30 680 O 63.7501 -1.78733 -0.213175 0
M  V30 681 H 60.1251 -0.728939 0.184802 0
M  V30 682 H 62.0961 -2.56202 1.52981 0
M  V30 683 C 60.8451 -3.47699 0.00796591 0
M  V30 684 H 60.1681 -3.92734 0.748347 0
M  V30 685 H 61.6081 -4.23294 -0.24455 0
M  V30 686 C 60.0671 -3.13153 -1.24246 0
M  V30 687 O 60.5971 -3.27003 -2.33307 0
M  V30 688 N 58.8031 -2.67467 -1.13622 0
M  V30 689 H 58.3501 -2.56396 -0.248734 0
M  V30 690 H 58.3081 -2.44724 -1.97377 0
M  V30 691 N 62.0802 -0.821533 -1.34494 0
M  V30 692 C 62.9902 -0.244355 -2.33324 0
M  V30 693 C 64.0062 0.620527 -1.62559 0
M  V30 694 O 65.1822 0.528754 -1.94335 0
M  V30 695 C 62.2472 0.585368 -3.41723 0
M  V30 696 C 61.3082 -0.301752 -4.28238 0
M  V30 697 C 60.5412 0.488466 -5.3146 0
M  V30 698 O 60.7642 1.72186 -5.4379 0
M  V30 699 O 59.6982 -0.12848 -6.01763 0
M  V30 700 H 63.5242 -1.06231 -2.84515 0
M  V30 701 H 61.1092 -0.583645 -1.37528 0
M  V30 702 H 62.9912 1.05747 -4.07916 0
M  V30 703 H 61.6662 1.38068 -2.92778 0
M  V30 704 H 60.5732 -0.821315 -3.64973 0
M  V30 705 H 61.9062 -1.06138 -4.8062 0
M  V30 706 N 63.5583 1.46682 -0.576371 0
M  V30 707 C 64.7863 2.06798 -0.0649635 0
M  V30 708 C 65.2013 1.42612 1.23723 0
M  V30 709 O 64.5583 0.529203 1.74659 0
M  V30 710 C 64.6093 3.6132 0.114202 0
M  V30 711 O 64.3303 4.23104 -1.13644 0
M  V30 712 C 65.8313 4.38349 0.66069 0
M  V30 713 H 63.0513 0.668778 -0.0545616 0
M  V30 714 H 65.5953 1.88404 -0.795237 0
M  V30 715 H 63.7503 3.79162 0.794673 0
M  V30 716 H 64.1643 5.15894 -0.946253 0
M  V30 717 H 65.6383 5.47081 0.73526 0
M  V30 718 H 66.1153 4.05953 1.67627 0
M  V30 719 H 66.7213 4.25297 0.0152951 0
M  V30 720 N 65.0364 0.313813 1.54444 0
M  V30 721 C 66.2834 -0.291675 2.00388 0
M  V30 722 C 66.6114 -1.52904 1.2021 0
M  V30 723 O 65.8664 -1.93833 0.269707 0
M  V30 724 C 66.1654 -0.680386 3.50864 0
M  V30 725 C 65.8314 0.456699 4.48581 0
M  V30 726 C 64.4934 0.768824 4.75018 0
M  V30 727 C 66.8454 1.22098 5.06697 0
M  V30 728 C 64.1734 1.84812 5.56831 0
M  V30 729 C 66.5254 2.29029 5.89685 0
M  V30 730 C 65.1894 2.60834 6.14428 0
M  V30 731 H 64.4594 -0.106732 0.733273 0
M  V30 732 H 67.1064 0.43557 1.86481 0
M  V30 733 H 65.4114 -1.48791 3.62448 0
M  V30 734 H 67.1084 -1.16026 3.83847 0
M  V30 735 H 63.6984 0.203337 4.28117 0
M  V30 736 H 67.8824 0.993096 4.86263 0
M  V30 737 H 63.1384 2.09912 5.74236 0
M  V30 738 H 67.3124 2.887 6.33739 0
M  V30 739 H 64.9394 3.44596 6.77612 0
M  V30 740 N 66.5145 -1.57545 0.0417849 0
M  V30 741 C 67.4775 -2.09885 -0.92093 0
M  V30 742 C 68.4775 -1.01648 -1.24596 0
M  V30 743 O 69.6675 -1.27759 -1.1842 0
M  V30 744 C 66.7995 -2.57527 -2.23367 0
M  V30 745 H 67.9925 -2.96236 -0.467382 0
M  V30 746 H 65.5455 -1.5493 -0.206467 0
M  V30 747 H 66.2805 -1.74542 -2.73323 0
M  V30 748 H 66.0655 -3.36613 -2.01083 0
M  V30 749 H 67.5555 -2.98201 -2.92346 0
M  V30 750 N 67.9926 0.231505 -1.5589 0
M  V30 751 C 69.4036 0.799327 -1.68724 0
M  V30 752 C 69.7546 1.85398 -0.642022 0
M  V30 753 O 68.8796 2.1539 0.208784 0
M  V30 754 C 69.4746 1.45664 -3.05888 0
M  V30 755 C 68.0336 1.97197 -3.20609 0
M  V30 756 C 67.1806 0.828552 -2.64632 0
M  V30 757 H 70.1316 0.00702616 -1.58698 0
M  V30 758 H 70.1526 2.32517 -3.01191 0
M  V30 759 H 69.6646 0.688808 -3.81939 0
M  V30 760 H 67.7656 2.76813 -2.4941 0
M  V30 761 H 67.8786 2.15878 -4.27707 0
M  V30 762 H 66.2426 1.23321 -2.22854 0
M  V30 763 H 67.0256 0.0735544 -3.43221 0
M  V30 764 N 69.4707 1.49531 0.497807 0
M  V30 765 C 70.4027 1.62559 1.61578 0
M  V30 766 C 71.4157 0.508134 1.54667 0
M  V30 767 O 72.6047 0.780309 1.60541 0
M  V30 768 C 69.7047 1.56925 3.00379 0
M  V30 769 C 68.8777 2.84257 3.3244 0
M  V30 770 C 67.9367 2.71632 4.50669 0
M  V30 771 O 66.9627 3.4557 4.52294 0
M  V30 772 N 68.1647 1.83391 5.5077 0
M  V30 773 H 70.9297 2.58981 1.50828 0
M  V30 774 H 68.4907 1.4666 0.685743 0
M  V30 775 H 70.4827 1.46129 3.77397 0
M  V30 776 H 69.0527 0.683483 3.05037 0
M  V30 777 H 68.2727 3.09381 2.44289 0
M  V30 778 H 69.5607 3.68666 3.5066 0
M  V30 779 H 68.9587 1.22583 5.52259 0
M  V30 780 H 67.5157 1.78515 6.26878 0
M  V30 781 N 70.9488 -0.749086 1.3866 0
M  V30 782 C 71.8988 -1.85368 1.32751 0
M  V30 783 C 72.8828 -1.59511 0.210945 0
M  V30 784 O 74.0748 -1.71255 0.447299 0
M  V30 785 C 71.2038 -3.23131 1.15935 0
M  V30 786 C 70.2898 -3.54864 2.32233 0
M  V30 787 N 70.6808 -3.57625 3.57684 0
M  V30 788 C 68.9788 -3.85154 2.24883 0
M  V30 789 C 69.6798 -3.86753 4.34508 0
M  V30 790 N 68.6558 -4.03812 3.63918 0
M  V30 791 H 72.4578 -1.85787 2.27729 0
M  V30 792 H 69.9718 -0.946658 1.31955 0
M  V30 793 H 71.9688 -4.02185 1.09786 0
M  V30 794 H 70.6288 -3.23961 0.218947 0
M  V30 795 H 71.6398 -3.39276 3.91295 0
M  V30 796 H 68.3168 -3.93672 1.39027 0
M  V30 797 H 69.7068 -3.95474 5.43185 0
M  V30 798 N 72.4269 -1.23603 -0.977757 0
M  V30 799 C 73.8379 -1.06424 -1.53398 0
M  V30 800 C 74.1889 0.367578 -1.92726 0
M  V30 801 O 73.3139 1.25465 -1.76316 0
M  V30 802 C 73.9089 -1.92568 -2.78753 0
M  V30 803 C 72.4679 -1.79642 -3.30765 0
M  V30 804 C 71.6149 -1.88111 -2.03739 0
M  V30 805 H 74.5659 -1.37227 -0.797152 0
M  V30 806 H 74.5869 -1.45203 -3.51705 0
M  V30 807 H 74.0989 -2.96771 -2.50098 0
M  V30 808 H 72.1999 -0.782325 -3.64294 0
M  V30 809 H 72.3129 -2.63174 -4.00345 0
M  V30 810 H 70.6769 -1.31723 -2.17994 0
M  V30 811 H 71.4599 -2.93875 -1.77461 0
M  V30 812 N 73.905 1.17692 -1.04816 0
M  V30 813 C 75.182 1.83768 -0.669963 0
M  V30 814 C 75.562 1.93232 0.849986 0
M  V30 815 O 74.91 1.46397 1.75443 0
M  V30 816 C 75.12 3.21641 -1.35455 0
M  V30 817 C 76.468 3.97592 -1.49017 0
M  V30 818 O 77.492 3.31107 -1.31326 0
M  V30 819 O 76.351 5.16729 -1.77914 0
M  V30 820 H 73.445 0.792799 -0.235368 0
M  V30 821 H 75.991 1.25021 -1.14751 0
M  V30 822 H 74.763 3.097 -2.39168 0
M  V30 823 H 74.386 3.88052 -0.866107 0
M  V30 824 N 75.3831 0.828654 1.34056 0
M  V30 825 C 76.3151 0.212052 2.28217 0
M  V30 826 C 77.3281 -0.601362 1.51286 0
M  V30 827 O 78.5171 -0.430104 1.73241 0
M  V30 828 C 75.6171 -0.72088 3.31144 0
M  V30 829 C 74.7901 0.0509587 4.3737 0
M  V30 830 C 73.8491 -0.803766 5.20025 0
M  V30 831 O 72.8751 -0.246667 5.68665 0
M  V30 832 N 74.0771 -2.1227 5.40298 0
M  V30 833 H 76.8421 1.02105 2.81771 0
M  V30 834 H 74.4031 0.686153 1.46641 0
M  V30 835 H 76.3951 -1.29742 3.8334 0
M  V30 836 H 74.9651 -1.43061 2.77943 0
M  V30 837 H 74.1851 0.808831 3.85813 0
M  V30 838 H 75.4731 0.582065 5.0546 0
M  V30 839 H 74.8711 -2.59898 5.02464 0
M  V30 840 H 73.4281 -2.64796 5.95589 0
M  V30 841 N 76.8612 -1.46375 0.584142 0
M  V30 842 C 78.0912 -2.06461 0.0758195 0
M  V30 843 C 78.4992 -1.43322 -1.23512 0
M  V30 844 O 77.8422 -0.533216 -1.75791 0
M  V30 845 C 77.9042 -3.59131 -0.162773 0
M  V30 846 C 77.5682 -4.4447 1.06279 0
M  V30 847 C 78.5652 -4.80918 1.97519 0
M  V30 848 C 76.2502 -4.85584 1.28504 0
M  V30 849 C 78.2442 -5.57309 3.09331 0
M  V30 850 C 75.9312 -5.61734 2.4062 0
M  V30 851 C 76.9292 -5.9751 3.30863 0
M  V30 852 O 76.6172 -6.72121 4.41032 0
M  V30 853 H 76.3492 -0.673745 0.0551725 0
M  V30 854 H 78.9032 -1.88969 0.804984 0
M  V30 855 H 77.1332 -3.74936 -0.946565 0
M  V30 856 H 78.8222 -4.0114 -0.619782 0
M  V30 857 H 79.5882 -4.49732 1.81565 0
M  V30 858 H 75.4672 -4.57187 0.591702 0
M  V30 859 H 79.0112 -5.85152 3.79793 0
M  V30 860 H 74.9082 -5.92334 2.56537 0
M  V30 861 H 75.6762 -6.90547 4.39417 0
M  V30 862 N 78.3393 -0.321999 -1.54275 0
M  V30 863 C 79.2693 0.537411 -2.27231 0
M  V30 864 C 80.2503 1.12064 -1.27968 0
M  V30 865 O 81.4353 1.14606 -1.56777 0
M  V30 866 C 78.5653 1.69919 -3.02894 0
M  V30 867 C 77.5193 1.24534 -4.09482 0
M  V30 868 C 76.8453 2.49394 -4.72977 0
M  V30 869 C 78.1453 0.361335 -5.21049 0
M  V30 870 H 79.8393 -0.0711406 -2.99315 0
M  V30 871 H 77.3853 -0.0356555 -1.43956 0
M  V30 872 H 79.3383 2.30668 -3.52662 0
M  V30 873 H 78.0623 2.33431 -2.28424 0
M  V30 874 H 76.7213 0.660782 -3.60596 0
M  V30 875 H 76.3693 3.11265 -3.95124 0
M  V30 876 H 76.0693 2.19718 -5.44975 0
M  V30 877 H 77.5933 3.10908 -5.25517 0
M  V30 878 H 79.0073 0.875072 -5.66582 0
M  V30 879 H 77.4043 0.157428 -5.99893 0
M  V30 880 H 78.4743 -0.60822 -4.8107 0
M  V30 881 N 79.8174 1.5752 -0.0501392 0
M  V30 882 C 81.0424 1.97376 0.636997 0
M  V30 883 C 81.4674 0.927466 1.63645 0
M  V30 884 O 80.8254 -0.10941 1.8097 0
M  V30 885 C 80.8734 3.36304 1.30123 0
M  V30 886 O 79.9774 3.34156 2.41689 0
M  V30 887 H 79.3184 0.642998 0.165679 0
M  V30 888 H 81.8484 2.04258 -0.118233 0
M  V30 889 H 81.8584 3.73008 1.65315 0
M  V30 890 H 80.5334 4.11993 0.568746 0
M  V30 891 H 79.1104 3.09196 2.08451 0
M  V30 892 N 81.2955 -0.223234 1.56011 0
M  V30 893 C 82.5415 -0.944891 1.8012 0
M  V30 894 C 82.8965 -1.82039 0.622862 0
M  V30 895 O 82.1895 -1.8773 -0.383143 0
M  V30 896 C 82.3835 -1.81948 3.0762 0
M  V30 897 C 82.2125 -1.03014 4.37742 0
M  V30 898 C 80.9825 -0.72574 5.00061 0
M  V30 899 C 83.1805 -0.396256 5.12771 0
M  V30 900 N 81.1625 0.0851816 6.13841 0
M  V30 901 C 82.5335 0.278137 6.19376 0
M  V30 902 C 84.5885 -0.309117 4.9694 0
M  V30 903 C 83.2915 1.03133 7.11868 0
M  V30 904 C 85.3175 0.430607 5.8983 0
M  V30 905 C 84.6795 1.09355 6.9586 0
M  V30 906 H 80.7785 -0.326081 0.710771 0
M  V30 907 H 83.3625 -0.215914 1.93499 0
M  V30 908 H 81.5335 -2.52029 2.95527 0
M  V30 909 H 83.2655 -2.47848 3.19927 0
M  V30 910 H 80.0205 -1.04335 4.61964 0
M  V30 911 H 80.4445 0.479428 6.753 0
M  V30 912 H 85.0865 -0.807313 4.15021 0
M  V30 913 H 82.8045 1.54105 7.9327 0
M  V30 914 H 86.3905 0.499012 5.79656 0
M  V30 915 H 85.2705 1.65679 7.66499 0
M  V30 916 N 82.7736 -1.49793 -0.48987 0
M  V30 917 C 83.7206 -1.67281 -1.59014 0
M  V30 918 C 84.6906 -0.514177 -1.57941 0
M  V30 919 O 85.8756 -0.742533 -1.75759 0
M  V30 920 C 83.0156 -1.75569 -2.97102 0
M  V30 921 C 82.1286 -3.0281 -3.08107 0
M  V30 922 C 81.2636 -3.02008 -4.36995 0
M  V30 923 C 80.3026 -4.23782 -4.41673 0
M  V30 924 N 79.4396 -4.20826 -5.62005 0
M  V30 925 H 84.2796 -2.61224 -1.43409 0
M  V30 926 H 81.8166 -1.29508 -0.697565 0
M  V30 927 H 83.7746 -1.78354 -3.77155 0
M  V30 928 H 82.4046 -0.850827 -3.11385 0
M  V30 929 H 81.4566 -3.09584 -2.21047 0
M  V30 930 H 82.7686 -3.92801 -3.07423 0
M  V30 931 H 81.9226 -3.03418 -5.25378 0
M  V30 932 H 80.6616 -2.09815 -4.4026 0
M  V30 933 H 79.6666 -4.22604 -3.5169 0
M  V30 934 H 80.8916 -5.17181 -4.40115 0
M  V30 935 H 78.8376 -3.31476 -5.66091 0
M  V30 936 H 78.7546 -5.04564 -5.62984 0
M  V30 937 H 80.0226 -4.26355 -6.52565 0
M  V30 938 N 84.2517 0.741722 -1.39055 0
M  V30 939 C 85.2147 1.83733 -1.37021 0
M  V30 940 C 86.2147 1.58542 -0.268534 0
M  V30 941 O 87.4047 1.66067 -0.526076 0
M  V30 942 C 84.5367 3.2141 -1.13617 0
M  V30 943 H 85.7297 1.86941 -2.34506 0
M  V30 944 H 83.2827 0.944676 -1.24521 0
M  V30 945 H 84.0177 3.23865 -0.167863 0
M  V30 946 H 83.8027 3.4109 -1.93391 0
M  V30 947 H 85.2927 4.01477 -1.14918 0
M  V30 948 N 85.7298 1.2412 0.971189 0
M  V30 949 C 86.9578 1.10575 1.74874 0
M  V30 950 C 87.3728 -0.342017 1.85676 0
M  V30 951 O 86.7298 -1.23617 1.34258 0
M  V30 952 C 86.7808 1.73579 3.171 0
M  V30 953 O 86.5018 3.12695 3.06844 0
M  V30 954 C 88.0028 1.65598 4.11208 0
M  V30 955 H 85.2228 0.386504 0.548503 0
M  V30 956 H 87.7668 1.64156 1.21955 0
M  V30 957 H 85.9218 1.24009 3.67016 0
M  V30 958 H 86.3358 3.43412 3.96445 0
M  V30 959 H 87.8098 2.1437 5.08674 0
M  V30 960 H 88.2868 0.616532 4.34851 0
M  V30 961 H 88.8928 2.14578 3.67201 0
M  V30 962 N 87.2079 -1.17134 1.05439 0
M  V30 963 C 88.4329 -1.91913 0.786396 0
M  V30 964 C 88.8579 -1.7643 -0.652234 0
M  V30 965 O 88.2159 -1.08372 -1.45345 0
M  V30 966 C 88.2639 -3.40921 1.17497 0
M  V30 967 O 87.3679 -4.11244 0.308589 0
M  V30 968 H 86.7089 -0.598215 0.288158 0
M  V30 969 H 89.2389 -1.48457 1.4079 0
M  V30 970 H 89.2489 -3.91668 1.14281 0
M  V30 971 H 87.9239 -3.5151 2.22292 0
M  V30 972 H 86.5009 -3.70731 0.40157 0
M  V30 973 N 88.686 -0.835752 -1.33615 0
M  V30 974 C 89.596 -0.269088 -2.33052 0
M  V30 975 C 90.612 0.603251 -1.63208 0
M  V30 976 O 91.788 0.508112 -1.94885 0
M  V30 977 C 88.853 0.549091 -3.42324 0
M  V30 978 C 87.914 -0.347156 -4.27894 0
M  V30 979 C 87.147 0.43207 -5.31948 0
M  V30 980 O 87.37 1.66409 -5.45586 0
M  V30 981 O 86.304 -0.192298 -6.01593 0
M  V30 982 H 90.13 -1.09243 -2.83372 0
M  V30 983 H 87.715 -0.598198 -1.36901 0
M  V30 984 H 89.597 1.01414 -4.09015 0
M  V30 985 H 88.272 1.34955 -2.94226 0
M  V30 986 H 87.179 -0.859979 -3.64081 0
M  V30 987 H 88.512 -1.1123 -4.79467 0
M  V30 988 N 90.1641 1.46063 -0.591896 0
M  V30 989 C 91.0961 2.28539 0.174001 0
M  V30 990 C 92.1091 1.39047 0.846753 0
M  V30 991 O 93.2981 1.63564 0.714774 0
M  V30 992 C 90.3981 3.14347 1.26645 0
M  V30 993 C 89.5711 4.32021 0.683856 0
M  V30 994 C 88.6301 4.99157 1.66518 0
M  V30 995 O 87.6561 5.56458 1.19763 0
M  V30 996 N 88.8581 4.97005 2.99943 0
M  V30 997 H 91.6231 2.94911 -0.533633 0
M  V30 998 H 89.1841 1.56077 -0.430294 0
M  V30 999 H 91.1761 3.56125 1.92242 0
M  V30 1000 H 89.7461 2.49988 1.87682 0
M  V30 1001 H 88.9661 3.93915 -0.1498 0
M  V30 1002 H 90.2541 5.08059 0.274567 0
M  V30 1003 H 89.6521 4.51714 3.40545 0
M  V30 1004 H 88.2091 5.42696 3.61004 0
M  V30 1005 N 91.6422 0.330177 1.54103 0
M  V30 1006 C 92.8672 -0.274893 2.0557 0
M  V30 1007 C 93.2922 -1.44487 1.20437 0
M  V30 1008 O 92.6502 -1.80021 0.214991 0
M  V30 1009 C 92.6982 -0.68079 3.54115 0
M  V30 1010 O 91.8022 -1.7824 3.71893 0
M  V30 1011 H 91.1432 -0.0483849 0.662235 0
M  V30 1012 H 93.6732 0.480508 1.98878 0
M  V30 1013 H 93.6832 -0.961635 3.96505 0
M  V30 1014 H 92.3582 0.174903 4.15532 0
M  V30 1015 H 90.9352 -1.49985 3.41407 0
M  V30 1016 N 93.1203 -1.57491 0.0584922 0
M  V30 1017 C 94.0303 -2.15448 -0.928414 0
M  V30 1018 C 95.0463 -1.11416 -1.3365 0
M  V30 1019 O 96.2223 -1.4362 -1.41193 0
M  V30 1020 C 93.2873 -2.69393 -2.18239 0
M  V30 1021 C 92.3483 -3.88249 -1.83196 0
M  V30 1022 C 91.5813 -4.39613 -3.02616 0
M  V30 1023 O 91.8043 -3.90023 -4.16219 0
M  V30 1024 O 90.7383 -5.31111 -2.83204 0
M  V30 1025 H 94.5643 -3.00112 -0.465483 0
M  V30 1026 H 92.1493 -1.48499 -0.163826 0
M  V30 1027 H 94.0313 -3.04026 -2.91798 0
M  V30 1028 H 92.7063 -1.87796 -2.63656 0
M  V30 1029 H 91.6133 -3.58492 -1.06931 0
M  V30 1030 H 92.9463 -4.71098 -1.42573 0
M  V30 1031 N 94.5984 0.214957 -1.56127 0
M  V30 1032 C 96.0144 0.564948 -1.49267 0
M  V30 1033 C 96.2144 1.86827 -0.754838 0
M  V30 1034 O 95.2704 2.50745 -0.297198 0
M  V30 1035 C 96.5834 0.638071 -2.93852 0
M  V30 1036 C 98.1314 0.728253 -3.0441 0
M  V30 1037 C 98.6064 0.832663 -4.50367 0
M  V30 1038 N 100.097 0.896712 -4.54437 0
M  V30 1039 C 100.832 0.997324 -5.6466 0
M  V30 1040 N 100.328 1.06147 -6.8462 0
M  V30 1041 N 102.121 1.03297 -5.52527 0
M  V30 1042 H 94.2724 -0.640211 -2.02522 0
M  V30 1043 H 96.5354 -0.225507 -0.920788 0
M  V30 1044 H 96.2414 -0.250126 -3.50809 0
M  V30 1045 H 96.1154 1.49947 -3.46115 0
M  V30 1046 H 98.5024 1.60689 -2.47514 0
M  V30 1047 H 98.5834 -0.158952 -2.55306 0
M  V30 1048 H 98.2274 -0.0415417 -5.07883 0
M  V30 1049 H 98.1574 1.73538 -4.97184 0
M  V30 1050 H 100.648 0.857188 -3.6805 0
M  V30 1051 H 100.961 1.1382 -7.64372 0
M  V30 1052 H 99.3064 1.03049 -6.87318 0
M  V30 1053 H 102.497 0.979558 -4.57736 0
M  V30 1054 H 102.67 1.10793 -6.38458 0
M  V30 1055 N 96.0765 1.50051 0.48192 0
M  V30 1056 C 97.3225 1.60736 1.2366 0
M  V30 1057 C 97.6555 0.301786 1.91841 0
M  V30 1058 O 96.9305 -0.696025 1.8162 0
M  V30 1059 C 97.2135 2.78009 2.28874 0
M  V30 1060 C 97.0665 4.18416 1.65069 0
M  V30 1061 C 98.3855 2.90867 3.30279 0
M  V30 1062 H 95.5045 0.585031 0.448228 0
M  V30 1063 H 98.1465 1.82402 0.531946 0
M  V30 1064 H 96.2965 2.59667 2.88973 0
M  V30 1065 H 97.9685 4.48322 1.0865 0
M  V30 1066 H 96.2115 4.23177 0.954148 0
M  V30 1067 H 96.8825 4.96381 2.41474 0
M  V30 1068 H 99.3585 3.07623 2.80191 0
M  V30 1069 H 98.2345 3.74566 4.01238 0
M  V30 1070 H 98.4955 2.01021 3.93755 0
M  V30 1071 N 97.5546 -0.734337 1.39446 0
M  V30 1072 C 98.8316 -1.48579 1.27215 0
M  V30 1073 C 99.2116 -2.1077 -0.117968 0
M  V30 1074 O 98.5596 -1.98646 -1.12924 0
M  V30 1075 C 98.7696 -2.53667 2.39696 0
M  V30 1076 C 100.118 -3.20031 2.79044 0
M  V30 1077 O 101.142 -2.6398 2.39151 0
M  V30 1078 O 100.001 -4.21455 3.47905 0
M  V30 1079 H 97.0946 -0.659816 0.49857 0
M  V30 1080 H 99.6406 -0.768106 1.51322 0
M  V30 1081 H 98.4126 -2.06096 3.32626 0
M  V30 1082 H 98.0356 -3.32994 2.17258 0
M  V30 1083 N 99.0327 -1.24633 -0.964593 0
M  V30 1084 C 99.9957 -1.0424 -2.04124 0
M  V30 1085 C 100.996 0.00137563 -1.608 0
M  V30 1086 O 102.186 -0.239883 -1.7254 0
M  V30 1087 C 99.3177 -0.580588 -3.3592 0
M  V30 1088 H 100.511 -1.99803 -2.23649 0
M  V30 1089 H 98.0637 -1.06899 -1.14027 0
M  V30 1090 H 98.7987 0.3781 -3.22088 0
M  V30 1091 H 98.5837 -1.33398 -3.6871 0
M  V30 1092 H 100.074 -0.459034 -4.15069 0
M  V30 1093 N 100.511 1.16574 -1.06058 0
M  V30 1094 C 101.441 2.23057 -0.690488 0
M  V30 1095 C 102.422 1.67141 0.315901 0
M  V30 1096 O 103.607 1.93253 0.191556 0
M  V30 1097 C 100.737 3.47222 -0.073625 0
M  V30 1098 C 99.6908 4.16016 -1.00573 0
M  V30 1099 C 99.0168 5.34104 -0.252289 0
M  V30 1100 C 100.317 4.67264 -2.33371 0
M  V30 1101 H 102.011 2.54271 -1.58072 0
M  V30 1102 H 99.5568 1.22218 -0.76149 0
M  V30 1103 H 101.51 4.20939 0.19714 0
M  V30 1104 H 100.234 3.15302 0.85161 0
M  V30 1105 H 98.8928 3.44223 -1.2612 0
M  V30 1106 H 98.5408 4.98437 0.675988 0
M  V30 1107 H 98.2408 5.81072 -0.873455 0
M  V30 1108 H 99.7648 6.10599 0.0109857 0
M  V30 1109 H 101.179 5.32573 -2.12223 0
M  V30 1110 H 99.5758 5.24843 -2.90963 0
M  V30 1111 H 100.646 3.83602 -2.96611 0
M  V30 1112 N 101.989 0.842826 1.3317 0
M  V30 1113 C 102.952 0.284065 2.27433 0
M  V30 1114 C 103.952 -0.54948 1.5112 0
M  V30 1115 O 105.142 -0.362699 1.70382 0
M  V30 1116 C 102.274 -0.599384 3.35589 0
M  V30 1117 H 103.467 1.11589 2.78366 0
M  V30 1118 H 101.02 0.616221 1.4364 0
M  V30 1119 H 101.755 -1.45349 2.89904 0
M  V30 1120 H 101.54 -0.00291266 3.921 0
M  V30 1121 H 103.03 -0.983488 4.05854 0
M  V30 1122 N 103.467 -1.45747 0.599634 0
M  V30 1123 C 104.377 -2.34262 -0.125888 0
M  V30 1124 C 105.393 -1.50768 -0.868625 0
M  V30 1125 O 106.569 -1.83592 -0.828003 0
M  V30 1126 C 103.634 -3.28252 -1.11587 0
M  V30 1127 C 102.695 -4.27651 -0.375956 0
M  V30 1128 C 101.928 -5.1715 -1.31877 0
M  V30 1129 O 102.151 -5.09916 -2.55621 0
M  V30 1130 O 101.085 -5.96286 -0.820157 0
M  V30 1131 H 104.911 -2.97688 0.601315 0
M  V30 1132 H 102.496 -1.44999 0.359934 0
M  V30 1133 H 104.378 -3.86191 -1.68626 0
M  V30 1134 H 103.053 -2.67401 -1.82424 0
M  V30 1135 H 101.96 -3.7335 0.236698 0
M  V30 1136 H 103.293 -4.91334 0.29177 0
M  V30 1137 N 104.945 -0.338344 -1.53925 0
M  V30 1138 C 106.222 0.314774 -1.93051 0
M  V30 1139 C 106.602 1.68669 -1.26941 0
M  V30 1140 O 105.95 2.24636 -0.418445 0
M  V30 1141 C 106.16 0.392249 -3.46789 0
M  V30 1142 C 107.508 0.645554 -4.19664 0
M  V30 1143 O 108.532 0.474575 -3.53024 0
M  V30 1144 O 107.391 0.976408 -5.37707 0
M  V30 1145 H 104.485 0.182598 -0.80659 0
M  V30 1146 H 107.031 -0.389141 -1.65178 0
M  V30 1147 H 105.803 -0.570702 -3.87116 0
M  V30 1148 H 105.426 1.14316 -3.80812 0
M  V30 1149 N 106.423 1.57458 -0.0668435 0
M  V30 1150 C 107.834 1.80776 0.466558 0
M  V30 1151 C 108.185 0.980361 1.69951 0
M  V30 1152 O 107.31 0.201441 2.1546 0
M  V30 1153 C 107.905 3.27881 0.85321 0
M  V30 1154 C 106.464 3.52062 1.3315 0
M  V30 1155 C 105.611 2.75513 0.314264 0
M  V30 1156 H 108.562 1.5598 -0.292588 0
M  V30 1157 H 108.583 3.39659 1.715 0
M  V30 1158 H 108.095 3.88075 -0.0443439 0
M  V30 1159 H 106.196 2.97167 2.24772 0
M  V30 1160 H 106.309 4.60762 1.31285 0
M  V30 1161 H 104.673 2.42123 0.790492 0
M  V30 1162 H 105.456 3.38442 -0.575477 0
M  V30 1163 N 107.901 -0.206675 1.56239 0
M  V30 1164 C 109.317 -0.557025 1.49564 0
M  V30 1165 C 109.517 -1.86424 0.764735 0
M  V30 1166 O 108.573 -2.50584 0.310491 0
M  V30 1167 C 109.886 -0.622478 2.94186 0
M  V30 1168 C 111.434 -0.712099 3.04792 0
M  V30 1169 C 111.909 -0.808767 4.50803 0
M  V30 1170 N 113.4 -0.8726 4.54907 0
M  V30 1171 C 114.135 -0.967365 5.65181 0
M  V30 1172 N 113.631 -1.02515 6.85173 0
M  V30 1173 N 115.424 -1.00366 5.53067 0
M  V30 1174 H 107.575 0.650943 2.02179 0
M  V30 1175 H 109.838 0.230387 0.919579 0
M  V30 1176 H 109.544 0.268727 3.50672 0
M  V30 1177 H 109.418 -1.4811 3.46905 0
M  V30 1178 H 111.805 -1.59374 2.48363 0
M  V30 1179 H 111.886 0.172489 2.55218 0
M  V30 1180 H 111.53 0.0684754 5.07854 0
M  V30 1181 H 111.46 -1.70899 4.98098 0
M  V30 1182 H 113.951 -0.837657 3.68499 0
M  V30 1183 H 114.264 -1.09765 7.64965 0
M  V30 1184 H 112.609 -0.994026 6.87855 0
M  V30 1185 H 115.8 -0.95527 4.58249 0
M  V30 1186 H 115.973 -1.07405 6.39037 0
M  V30 1187 N 109.379 -1.50304 -0.473955 0
M  V30 1188 C 110.309 -1.71886 -1.58042 0
M  V30 1189 C 111.29 -0.567799 -1.60344 0
M  V30 1190 O 112.475 -0.806623 -1.76656 0
M  V30 1191 C 109.605 -1.81036 -2.96384 0
M  V30 1192 C 108.559 -2.962 -3.08949 0
M  V30 1193 C 107.885 -2.9049 -4.48909 0
M  V30 1194 C 109.185 -4.36752 -2.86434 0
M  V30 1195 H 110.879 -2.64527 -1.40234 0
M  V30 1196 H 108.425 -1.27295 -0.673201 0
M  V30 1197 H 110.378 -1.94719 -3.73714 0
M  V30 1198 H 109.102 -0.850147 -3.15341 0
M  V30 1199 H 107.761 -2.82164 -2.3405 0
M  V30 1200 H 107.409 -1.92321 -4.64781 0
M  V30 1201 H 107.109 -3.67802 -4.58253 0
M  V30 1202 H 108.633 -3.06218 -5.28264 0
M  V30 1203 H 110.047 -4.5133 -3.53517 0
M  V30 1204 H 108.444 -5.15493 -3.07225 0
M  V30 1205 H 109.514 -4.49321 -1.82316 0
M  V30 1206 N 110.857 0.726932 -1.39834 0
M  V30 1207 C 112.103 1.48884 -1.377 0
M  V30 1208 C 112.436 1.94185 0.0244852 0
M  V30 1209 O 111.711 1.67361 0.990986 0
M  V30 1210 C 111.994 2.72288 -2.3565 0
M  V30 1211 C 111.847 2.32956 -3.84775 0
M  V30 1212 C 113.166 3.74414 -2.31306 0
M  V30 1213 H 110.285 0.540062 -0.5015 0
M  V30 1214 H 112.927 0.830547 -1.70886 0
M  V30 1215 H 111.077 3.28457 -2.07481 0
M  V30 1216 H 112.749 1.82356 -4.23726 0
M  V30 1217 H 110.992 1.65088 -4.01159 0
M  V30 1218 H 111.663 3.21362 -4.4881 0
M  V30 1219 H 114.139 3.27849 -2.56231 0
M  V30 1220 H 113.015 4.58414 -3.01907 0
M  V30 1221 H 113.276 4.21909 -1.32081 0
M  V30 1222 N 112.336 1.25143 0.95797 0
M  V30 1223 C 113.585 1.0909 1.69654 0
M  V30 1224 C 113.898 -0.368548 1.92097 0
M  V30 1225 O 115.104 -0.649455 2.63618 0
M  V30 1226 C 113.56 1.90395 3.05414 0
M  V30 1227 C 113.168 3.4081 2.90779 0
M  V30 1228 C 114.912 1.82901 3.83076 0
M  V30 1229 C 112.819 4.14423 4.21909 0
M  V30 1230 H 111.749 0.404625 0.636235 0
M  V30 1231 H 114.4 1.4931 1.06672 0
M  V30 1232 H 112.782 1.42996 3.69281 0
M  V30 1233 H 113.956 3.95859 2.35865 0
M  V30 1234 H 112.271 3.49361 2.26575 0
M  V30 1235 H 114.868 2.35196 4.80195 0
M  V30 1236 H 115.211 0.796224 4.08615 0
M  V30 1237 H 115.744 2.28033 3.25954 0
M  V30 1238 H 112.483 5.18102 4.01561 0
M  V30 1239 H 112.003 3.64159 4.76601 0
M  V30 1240 H 113.682 4.21956 4.90471 0
M  V30 1241 N 113.814 -1.1601 1.06675 0
M  V30 1242 C 114.744 -2.22688 0.702307 0
M  V30 1243 C 115.725 -1.67306 -0.307032 0
M  V30 1244 O 116.91 -1.93352 -0.181305 0
M  V30 1245 C 114.04 -3.47178 0.092038 0
M  V30 1246 C 112.994 -4.15477 1.02777 0
M  V30 1247 C 112.32 -5.33963 0.28061 0
M  V30 1248 C 113.62 -4.66019 2.35846 0
M  V30 1249 H 115.314 -2.53429 1.59419 0
M  V30 1250 H 112.86 -1.21813 0.767961 0
M  V30 1251 H 114.813 -4.21037 -0.174814 0
M  V30 1252 H 113.537 -3.15749 -0.834877 0
M  V30 1253 H 112.196 -3.43549 1.27944 0
M  V30 1254 H 111.844 -4.98788 -0.649545 0
M  V30 1255 H 111.544 -5.806 0.904258 0
M  V30 1256 H 113.068 -6.10596 0.021396 0
M  V30 1257 H 114.482 -5.3144 2.15045 0
M  V30 1258 H 112.879 -5.23293 2.93743 0
M  V30 1259 H 113.949 -3.82023 2.98641 0
M  V30 1260 N 115.292 -0.849877 -1.32721 0
M  V30 1261 C 116.538 -0.460855 -1.9811 0
M  V30 1262 C 116.893 0.971716 -1.66059 0
M  V30 1263 O 116.186 1.67184 -0.935944 0
M  V30 1264 C 116.38 -0.631272 -3.51781 0
M  V30 1265 C 116.209 -2.07886 -3.98765 0
M  V30 1266 C 114.979 -2.71637 -4.26077 0
M  V30 1267 C 117.177 -3.04889 -4.14182 0
M  V30 1268 N 115.159 -4.07356 -4.59276 0
M  V30 1269 C 116.53 -4.25583 -4.50865 0
M  V30 1270 C 118.585 -3.01148 -3.96503 0
M  V30 1271 C 117.288 -5.43027 -4.71714 0
M  V30 1272 C 119.314 -4.17832 -4.18533 0
M  V30 1273 C 118.676 -5.37284 -4.55528 0
M  V30 1274 H 114.775 -0.217283 -0.751207 0
M  V30 1275 H 117.359 -1.10026 -1.60631 0
M  V30 1276 H 115.53 -0.0215966 -3.88394 0
M  V30 1277 H 117.262 -0.212614 -4.04141 0
M  V30 1278 H 114.017 -2.22705 -4.17971 0
M  V30 1279 H 114.441 -4.77351 -4.80068 0
M  V30 1280 H 119.083 -2.0992 -3.67006 0
M  V30 1281 H 116.801 -6.34791 -5.00066 0
M  V30 1282 H 120.387 -4.16368 -4.06361 0
M  V30 1283 H 119.267 -6.26071 -4.72234 0
M  V30 1284 N 116.77 1.45427 -0.607355 0
M  V30 1285 C 117.733 2.28974 0.101693 0
M  V30 1286 C 118.733 1.39754 0.795329 0
M  V30 1287 O 119.923 1.61878 0.643527 0
M  V30 1288 C 117.055 3.20768 1.15414 0
M  V30 1289 H 118.248 2.93147 -0.632844 0
M  V30 1290 H 115.801 1.51945 -0.366391 0
M  V30 1291 H 116.536 2.61395 1.91945 0
M  V30 1292 H 116.321 3.86489 0.66098 0
M  V30 1293 H 117.811 3.83589 1.65073 0
M  V30 1294 N 118.248 0.346503 1.53744 0
M  V30 1295 C 119.496 -0.248612 2.00565 0
M  V30 1296 C 119.817 -1.5083 1.23593 0
M  V30 1297 O 119.087 -1.92858 0.343912 0
M  V30 1298 H 117.667 -0.0948564 0.740953 0
M  V30 1299 H 120.329 0.468341 1.89189 0
M  V30 1300 H 119.425 -0.488994 3.08245 0
M  V30 1301 N 119.726 -1.57421 0.075193 0
M  V30 1302 C 120.956 -1.97659 -0.601203 0
M  V30 1303 C 121.364 -0.952427 -1.63479 0
M  V30 1304 O 120.707 0.0688241 -1.83571 0
M  V30 1305 C 120.769 -3.34218 -1.32434 0
M  V30 1306 C 120.433 -4.5484 -0.443826 0
M  V30 1307 C 121.43 -5.19034 0.299969 0
M  V30 1308 C 119.115 -5.00952 -0.367709 0
M  V30 1309 C 121.109 -6.27695 1.10807 0
M  V30 1310 C 118.796 -6.09484 0.444058 0
M  V30 1311 C 119.794 -6.72719 1.18061 0
M  V30 1312 O 119.482 -7.79161 1.97898 0
M  V30 1313 H 119.214 -0.65494 -0.167422 0
M  V30 1314 H 121.768 -2.04886 0.145157 0
M  V30 1315 H 119.998 -3.23615 -2.11685 0
M  V30 1316 H 121.687 -3.59038 -1.89331 0
M  V30 1317 H 122.453 -4.84351 0.250776 0
M  V30 1318 H 118.332 -4.51509 -0.930638 0
M  V30 1319 H 121.876 -6.76982 1.68347 0
M  V30 1320 H 117.773 -6.43601 0.494803 0
M  V30 1321 H 118.541 -7.96055 1.90367 0
M  V30 1322 N 121.204 0.198386 -1.56346 0
M  V30 1323 C 122.615 0.763358 -1.70381 0
M  V30 1324 C 122.966 1.83995 -0.681203 0
M  V30 1325 O 122.091 2.15785 0.16305 0
M  V30 1326 C 122.686 1.39143 -3.08909 0
M  V30 1327 C 121.245 1.90352 -3.2472 0
M  V30 1328 C 120.392 0.772233 -2.6633 0
M  V30 1329 H 123.343 -0.0266377 -1.58678 0
M  V30 1330 H 123.364 2.26076 -3.06055 0
M  V30 1331 H 122.876 0.607638 -3.83314 0
M  V30 1332 H 120.977 2.71461 -2.55225 0
M  V30 1333 H 121.09 2.06757 -4.3219 0
M  V30 1334 H 119.454 1.18566 -2.2542 0
M  V30 1335 H 120.237 0.00073556 -3.433 0
M  V30 1336 N 122.682 1.50554 0.465978 0
M  V30 1337 C 123.929 1.61798 1.21768 0
M  V30 1338 C 124.257 0.320696 1.91838 0
M  V30 1339 O 123.512 -0.693724 1.82992 0
M  V30 1340 C 123.811 2.75152 2.28093 0
M  V30 1341 C 123.477 4.15454 1.75239 0
M  V30 1342 C 122.139 4.53628 1.60546 0
M  V30 1343 C 124.491 5.03121 1.36083 0
M  V30 1344 C 121.819 5.77204 1.05128 0
M  V30 1345 C 124.171 6.27249 0.821056 0
M  V30 1346 C 122.835 6.64221 0.660795 0
M  V30 1347 H 122.105 0.592063 0.445582 0
M  V30 1348 H 124.752 1.84503 0.512927 0
M  V30 1349 H 123.057 2.46556 3.04496 0
M  V30 1350 H 124.754 2.81055 2.86023 0
M  V30 1351 H 121.344 3.85341 1.87644 0
M  V30 1352 H 125.528 4.74257 1.46267 0
M  V30 1353 H 120.784 6.0452 0.91462 0
M  V30 1354 H 124.958 6.94537 0.509018 0
M  V30 1355 H 122.585 7.59854 0.229226 0
M  V30 1356 N 124.16 -0.719506 1.40217 0
M  V30 1357 C 125.385 -1.51371 1.4178 0
M  V30 1358 C 125.81 -1.88091 0.0182355 0
M  V30 1359 O 125.168 -1.52997 -0.972707 0
M  V30 1360 C 125.216 -2.768 2.31115 0
M  V30 1361 O 124.32 -3.73349 1.7517 0
M  V30 1362 H 123.661 -0.456529 0.482159 0
M  V30 1363 H 126.191 -0.88644 1.844 0
M  V30 1364 H 126.201 -3.25371 2.46167 0
M  V30 1365 H 124.876 -2.49407 3.3282 0
M  V30 1366 H 123.453 -3.32179 1.69444 0
M  V30 1367 N 125.638 -1.25649 -0.95132 0
M  V30 1368 C 127.054 -1.02542 -1.223 0
M  V30 1369 C 127.254 0.255715 -1.99871 0
M  V30 1370 O 126.31 0.967558 -2.33226 0
M  V30 1371 C 127.623 -2.25065 -1.99415 0
M  V30 1372 C 129.171 -2.29861 -2.12446 0
M  V30 1373 C 129.646 -3.52048 -2.92961 0
M  V30 1374 N 131.137 -3.52465 -3.00538 0
M  V30 1375 C 131.872 -4.43672 -3.63239 0
M  V30 1376 N 131.368 -5.45157 -4.27523 0
M  V30 1377 N 133.161 -4.31346 -3.60412 0
M  V30 1378 H 125.312 -2.07951 -0.432471 0
M  V30 1379 H 127.575 -0.91339 -0.253816 0
M  V30 1380 H 127.281 -3.18194 -1.49817 0
M  V30 1381 H 127.155 -2.28502 -3.00111 0
M  V30 1382 H 129.542 -1.37252 -2.61239 0
M  V30 1383 H 129.623 -2.3044 -1.11044 0
M  V30 1384 H 129.267 -4.44981 -2.44856 0
M  V30 1385 H 129.197 -3.48715 -3.94596 0
M  V30 1386 H 131.688 -2.79056 -2.54826 0
M  V30 1387 H 132.001 -6.10958 -4.73234 0
M  V30 1388 H 130.346 -5.49025 -4.26141 0
M  V30 1389 H 133.537 -3.51288 -3.09377 0
M  V30 1390 H 133.71 -5.02624 -4.0899 0
M  V30 1391 N 127.117 1.15442 -1.07289 0
M  V30 1392 C 128.394 1.82306 -0.708792 0
M  V30 1393 C 128.774 1.94991 0.808807 0
M  V30 1394 O 128.122 1.50085 1.72298 0
M  V30 1395 C 128.332 3.18695 -1.42247 0
M  V30 1396 C 129.68 3.94341 -1.57417 0
M  V30 1397 O 130.704 3.28247 -1.38319 0
M  V30 1398 O 129.563 5.12839 -1.88834 0
M  V30 1399 H 126.657 0.787628 -0.252132 0
M  V30 1400 H 129.203 1.22559 -1.17377 0
M  V30 1401 H 127.975 3.04557 -2.45684 0
M  V30 1402 H 127.598 3.86128 -0.948223 0
M  V30 1403 N 128.595 0.856903 1.32268 0
M  V30 1404 C 129.825 0.47475 2.01071 0
M  V30 1405 C 130.233 -0.933746 1.64553 0
M  V30 1406 O 129.576 -1.62114 0.863989 0
M  V30 1407 C 129.638 0.536746 3.55471 0
M  V30 1408 C 129.302 1.90453 4.15423 0
M  V30 1409 C 130.299 2.87029 4.33486 0
M  V30 1410 C 127.984 2.20229 4.51447 0
M  V30 1411 C 129.978 4.11532 4.86744 0
M  V30 1412 C 127.665 3.44984 5.0441 0
M  V30 1413 C 128.663 4.40452 5.22007 0
M  V30 1414 O 128.351 5.62998 5.73837 0
M  V30 1415 H 128.083 0.184778 0.650256 0
M  V30 1416 H 130.637 1.15615 1.69771 0
M  V30 1417 H 128.867 -0.20152 3.86175 0
M  V30 1418 H 130.556 0.169875 4.05544 0
M  V30 1419 H 131.322 2.6533 4.05986 0
M  V30 1420 H 127.201 1.46705 4.37034 0
M  V30 1421 H 130.745 4.86056 5.00395 0
M  V30 1422 H 126.642 3.66532 5.31342 0
M  V30 1423 H 127.41 5.64987 5.92226 0
M  V30 1424 N 130.073 -1.45103 0.615059 0
M  V30 1425 C 131.021 -2.32331 -0.111791 0
M  V30 1426 C 132.015 -1.46409 -0.852102 0
M  V30 1427 O 133.221 -1.62849 -0.766821 0
M  V30 1428 H 129.596 -0.749993 -0.0549072 0
M  V30 1429 H 131.567 -2.91407 0.642225 0
M  V30 1430 C 130.316 -3.3015 -1.09071 0
M  V30 1431 H 129.639 -3.96265 -0.530485 0
M  V30 1432 H 131.079 -3.93898 -1.56908 0
M  V30 1433 C 129.538 -2.57875 -2.168 0
M  V30 1434 O 130.068 -2.36567 -3.24652 0
M  V30 1435 N 128.274 -2.17884 -1.92289 0
M  V30 1436 H 127.821 -2.35413 -1.04587 0
M  V30 1437 H 127.779 -1.6985 -2.64572 0
M  V30 1438 N 131.551 -0.354651 -1.53558 0
M  V30 1439 C 132.498 0.496968 -2.25386 0
M  V30 1440 C 133.468 1.0865 -1.25636 0
M  V30 1441 O 134.653 1.12104 -1.54394 0
M  V30 1442 C 131.793 1.63637 -3.03837 0
M  V30 1443 C 130.906 1.07307 -4.18461 0
M  V30 1444 C 130.041 2.18068 -4.84376 0
M  V30 1445 C 129.08 1.59147 -5.91049 0
M  V30 1446 N 128.217 2.63695 -6.50699 0
M  V30 1447 H 133.057 -0.122075 -2.9775 0
M  V30 1448 H 130.594 -0.0720154 -1.46924 0
M  V30 1449 H 132.552 2.30734 -3.47589 0
M  V30 1450 H 131.182 2.22623 -2.33749 0
M  V30 1451 H 130.234 0.292708 -3.79272 0
M  V30 1452 H 131.546 0.602193 -4.95152 0
M  V30 1453 H 130.7 2.93007 -5.31255 0
M  V30 1454 H 129.439 2.68504 -4.07133 0
M  V30 1455 H 128.444 0.827175 -5.43542 0
M  V30 1456 H 129.669 1.09549 -6.70206 0
M  V30 1457 H 127.615 3.13365 -5.76315 0
M  V30 1458 H 127.532 2.21263 -7.22896 0
M  V30 1459 H 128.8 3.3837 -7.02229 0
M  V30 1460 N 133.029 1.57378 -0.0835403 0
M  V30 1461 C 134.44 1.81261 0.447358 0
M  V30 1462 C 134.791 0.998331 1.68902 0
M  V30 1463 O 133.916 0.224282 2.15235 0
M  V30 1464 C 134.511 3.28767 0.818386 0
M  V30 1465 C 133.07 3.53455 1.29409 0
M  V30 1466 C 132.217 2.75831 0.285024 0
M  V30 1467 H 135.168 1.5566 -0.309115 0
M  V30 1468 H 135.189 3.41459 1.67887 0
M  V30 1469 H 134.701 3.88006 -0.0855019 0
M  V30 1470 H 132.802 2.99534 2.21608 0
M  V30 1471 H 132.915 4.62128 1.2639 0
M  V30 1472 H 131.279 2.42947 0.764767 0
M  V30 1473 H 132.062 3.37813 -0.611341 0
M  V30 1474 N 134.507 -0.190092 1.56449 0
M  V30 1475 C 135.923 -0.54113 1.50146 0
M  V30 1476 C 136.123 -1.85603 0.784465 0
M  V30 1477 O 135.179 -2.5024 0.337051 0
M  V30 1478 C 136.492 -0.591241 2.9483 0
M  V30 1479 C 138.04 -0.679732 3.0553 0
M  V30 1480 C 138.515 -0.760908 4.51635 0
M  V30 1481 N 140.006 -0.824302 4.55806 0
M  V30 1482 C 140.741 -0.907365 5.66175 0
M  V30 1483 N 140.237 -0.952422 6.86222 0
M  V30 1484 N 142.03 -0.94494 5.541 0
M  V30 1485 H 134.181 0.67235 2.01478 0
M  V30 1486 H 136.444 0.240127 0.917084 0
M  V30 1487 H 136.15 0.305905 3.50367 0
M  V30 1488 H 136.024 -1.44422 3.48457 0
M  V30 1489 H 138.411 -1.56731 2.50039 0
M  V30 1490 H 138.492 0.199549 2.5502 0
M  V30 1491 H 138.136 0.122336 5.07753 0
M  V30 1492 H 138.066 -1.65606 4.99882 0
M  V30 1493 H 140.557 -0.798526 3.69367 0
M  V30 1494 H 140.87 -1.01645 7.66086 0
M  V30 1495 H 139.215 -0.921014 6.8887 0
M  V30 1496 H 142.406 -0.906612 4.59236 0
M  V30 1497 H 142.579 -1.00622 6.4014 0
M  V30 1498 N 135.985 -1.50799 -0.457987 0
M  V30 1499 C 137.233 -1.62121 -1.2067 0
M  V30 1500 C 137.554 -0.329793 -1.92191 0
M  V30 1501 O 136.824 0.653409 -1.84682 0
M  V30 1502 H 135.404 -0.597441 -0.448411 0
M  V30 1503 H 138.066 -1.87637 -0.527096 0
M  V30 1504 H 137.162 -2.43882 -1.94751 0
M  V30 1505 N 137.463 0.71206 -1.40597 0
M  V30 1506 C 138.413 1.81783 -1.37619 0
M  V30 1507 C 139.397 1.58896 -0.253162 0
M  V30 1508 O 140.589 1.70009 -0.492547 0
M  V30 1509 C 137.718 3.19944 -1.24462 0
M  V30 1510 C 136.804 3.48582 -2.4156 0
M  V30 1511 N 137.195 3.48016 -3.67041 0
M  V30 1512 C 135.493 3.79056 -2.35016 0
M  V30 1513 C 136.194 3.75096 -4.44609 0
M  V30 1514 N 135.17 3.94022 -3.74497 0
M  V30 1515 H 138.972 1.79683 -2.32575 0
M  V30 1516 H 136.486 0.91134 -1.34419 0
M  V30 1517 H 138.483 3.99133 -1.20411 0
M  V30 1518 H 137.143 3.23267 -0.304762 0
M  V30 1519 H 138.154 3.28782 -4.00153 0
M  V30 1520 H 134.831 3.89848 -1.49415 0
M  V30 1521 H 136.221 3.80934 -5.53479 0
M  V30 1522 N 138.941 1.26152 0.944643 0
M  V30 1523 C 139.904 1.07474 2.0244 0
M  V30 1524 C 140.904 0.0242064 1.60782 0
M  V30 1525 O 142.094 0.267302 1.72137 0
M  V30 1526 C 139.226 0.633956 3.34953 0
M  V30 1527 H 140.419 2.03336 2.20442 0
M  V30 1528 H 137.972 1.087 1.12312 0
M  V30 1529 H 138.707 -0.326811 3.22649 0
M  V30 1530 H 138.492 1.39247 3.66542 0
M  V30 1531 H 139.982 0.52501 4.14287 0
M  V30 1532 N 140.419 -1.14872 1.07899 0
M  V30 1533 C 141.666 -1.85789 0.805532 0
M  V30 1534 C 141.994 -1.82649 -0.668561 0
M  V30 1535 O 141.249 -1.24858 -1.50695 0
M  V30 1536 C 141.548 -3.34223 1.26609 0
M  V30 1537 C 141.214 -3.57555 2.74709 0
M  V30 1538 C 139.876 -3.63631 3.1516 0
M  V30 1539 C 142.228 -3.66803 3.70277 0
M  V30 1540 C 139.556 -3.76473 4.49983 0
M  V30 1541 C 141.908 -3.8117 5.04869 0
M  V30 1542 C 140.572 -3.85494 5.44932 0
M  V30 1543 H 139.842 -0.679849 0.294765 0
M  V30 1544 H 142.489 -1.3572 1.35101 0
M  V30 1545 H 140.794 -3.86536 0.640103 0
M  V30 1546 H 142.491 -3.87511 1.03132 0
M  V30 1547 H 139.081 -3.5347 2.42398 0
M  V30 1548 H 143.265 -3.61404 3.40149 0
M  V30 1549 H 138.521 -3.7808 4.80484 0
M  V30 1550 H 142.695 -3.87268 5.78789 0
M  V30 1551 H 140.322 -3.95197 6.49403 0
M  V30 1552 N 141.898 -0.863906 -1.31812 0
M  V30 1553 C 142.861 -0.320212 -2.26952 0
M  V30 1554 C 143.861 0.525369 -1.51975 0
M  V30 1555 O 145.051 0.335547 -1.70938 0
M  V30 1556 C 142.183 0.545919 -3.365 0
M  V30 1557 H 143.376 -1.16004 -2.76556 0
M  V30 1558 H 140.929 -0.638995 -1.42641 0
M  V30 1559 H 141.664 1.40718 -2.92179 0
M  V30 1560 H 141.449 -0.0594674 -3.92055 0
M  V30 1561 H 142.939 0.918796 -4.07367 0
M  V30 1562 N 143.376 1.44774 -0.622745 0
M  V30 1563 C 144.622 2.0242 -0.124083 0
M  V30 1564 C 144.955 1.4881 1.24777 0
M  V30 1565 O 144.23 0.668799 1.8264 0
M  V30 1566 C 144.513 3.59957 -0.101619 0
M  V30 1567 C 144.366 4.23867 -1.50521 0
M  V30 1568 C 145.685 4.36284 0.578272 0
M  V30 1569 H 142.804 0.735528 -0.0465645 0
M  V30 1570 H 145.446 1.72447 -0.797617 0
M  V30 1571 H 143.596 3.85623 0.471934 0
M  V30 1572 H 145.268 4.09336 -2.12701 0
M  V30 1573 H 143.511 3.81684 -2.06154 0
M  V30 1574 H 144.182 5.32843 -1.4416 0
M  V30 1575 H 146.658 4.16001 0.0906057 0
M  V30 1576 H 145.534 5.46004 0.563149 0
M  V30 1577 H 145.795 4.10271 1.64713 0
M  V30 1578 N 144.854 0.36279 1.53368 0
M  V30 1579 C 146.082 -0.228613 2.05633 0
M  V30 1580 C 146.497 -1.42676 1.23649 0
M  V30 1581 O 145.854 -1.80394 0.27647 0
M  V30 1582 C 145.905 -0.624845 3.56059 0
M  V30 1583 O 145.626 0.525675 4.34935 0
M  V30 1584 C 147.127 -1.27493 4.24571 0
M  V30 1585 H 144.347 -0.0407183 0.669763 0
M  V30 1586 H 146.891 0.520352 1.97769 0
M  V30 1587 H 145.046 -1.32373 3.64083 0
M  V30 1588 H 145.46 0.205969 5.24095 0
M  V30 1589 H 146.934 -1.50277 5.31151 0
M  V30 1590 H 147.411 -2.23439 3.78116 0
M  V30 1591 H 148.017 -0.617558 4.20792 0
M  V30 1592 N 146.332 -1.57332 0.0918853 0
M  V30 1593 C 147.609 -1.85691 -0.614668 0
M  V30 1594 C 147.989 -0.988146 -1.86545 0
M  V30 1595 O 147.337 -0.0597055 -2.28422 0
M  V30 1596 C 147.547 -3.36294 -0.933126 0
M  V30 1597 C 148.895 -4.04275 -1.29796 0
M  V30 1598 O 149.919 -3.41157 -1.02424 0
M  V30 1599 O 148.778 -5.1564 -1.81047 0
M  V30 1600 H 145.872 -0.767802 -0.307261 0
M  V30 1601 H 148.418 -1.69244 0.12434 0
M  V30 1602 H 147.19 -3.91273 -0.0456404 0
M  V30 1603 H 146.813 -3.58076 -1.72822 0
M  V30 1604 N 147.81 0.181792 -1.56548 0
M  V30 1605 C 149.056 0.901431 -1.81665 0
M  V30 1606 C 149.389 1.82347 -0.668075 0
M  V30 1607 O 148.664 1.91669 0.330615 0
M  V30 1608 C 148.947 1.70618 -3.17115 0
M  V30 1609 C 148.8 0.807964 -4.42484 0
M  V30 1610 C 150.119 2.67605 -3.49393 0
M  V30 1611 H 147.238 0.32627 -0.660846 0
M  V30 1612 H 149.88 0.168134 -1.89255 0
M  V30 1613 H 148.03 2.33133 -3.10775 0
M  V30 1614 H 149.702 0.19649 -4.60881 0
M  V30 1615 H 147.945 0.115411 -4.33646 0
M  V30 1616 H 148.616 1.40632 -5.33785 0
M  V30 1617 H 151.092 2.15218 -3.56118 0
M  V30 1618 H 149.968 3.20985 -4.45264 0
M  V30 1619 H 150.229 3.47298 -2.73563 0
M  V30 1620 N 149.288 1.51039 0.449983 0
M  V30 1621 C 150.704 1.38934 0.785462 0
M  V30 1622 C 150.904 0.461817 1.96136 0
M  V30 1623 O 149.96 -0.0877389 2.52348 0
M  V30 1624 C 151.273 2.80724 1.0777 0
M  V30 1625 C 152.821 2.89787 1.1829 0
M  V30 1626 C 153.296 4.32457 1.50815 0
M  V30 1627 N 154.787 4.35505 1.57764 0
M  V30 1628 C 155.522 5.42914 1.84477 0
M  V30 1629 N 155.018 6.60502 2.09068 0
M  V30 1630 N 156.811 5.3038 1.86155 0
M  V30 1631 H 148.962 2.09904 -0.324647 0
M  V30 1632 H 151.225 0.944378 -0.0827957 0
M  V30 1633 H 150.931 3.50531 0.286498 0
M  V30 1634 H 150.805 3.19273 2.00859 0
M  V30 1635 H 153.192 2.20186 1.96474 0
M  V30 1636 H 153.273 2.54752 0.231314 0
M  V30 1637 H 152.917 5.02603 0.731622 0
M  V30 1638 H 152.847 4.64995 2.47158 0
M  V30 1639 H 155.338 3.50724 1.40715 0
M  V30 1640 H 155.651 7.38158 2.28785 0
M  V30 1641 H 153.996 6.63639 2.06416 0
M  V30 1642 H 157.187 4.37505 1.66454 0
M  V30 1643 H 157.36 6.1417 2.06637 0
M  V30 1644 N 150.766 -0.704594 1.40972 0
M  V30 1645 C 151.676 -1.84856 1.44448 0
M  V30 1646 C 152.692 -1.70726 0.335961 0
M  V30 1647 O 153.868 -1.92799 0.582276 0
M  V30 1648 C 150.933 -3.20758 1.31587 0
M  V30 1649 C 149.994 -3.47063 2.52677 0
M  V30 1650 C 149.227 -4.76481 2.4042 0
M  V30 1651 O 149.45 -5.52341 1.42391 0
M  V30 1652 O 148.384 -5.03367 3.30007 0
M  V30 1653 H 152.21 -1.8488 2.40942 0
M  V30 1654 H 149.795 -0.85647 1.22413 0
M  V30 1655 H 151.677 -4.01913 1.26665 0
M  V30 1656 H 150.352 -3.21438 0.382049 0
M  V30 1657 H 149.259 -2.65873 2.63177 0
M  V30 1658 H 150.592 -3.5119 3.44858 0
M  V30 1659 N 152.244 -1.26651 -0.937939 0
M  V30 1660 C 153.472 -1.15173 -1.7188 0
M  V30 1661 C 153.887 0.292668 -1.86518 0
M  V30 1662 O 153.244 1.20014 -1.37488 0
M  V30 1663 C 153.295 -1.81925 -3.12387 0
M  V30 1664 O 153.016 -3.2072 -2.98446 0
M  V30 1665 C 154.517 -1.76442 -4.06673 0
M  V30 1666 H 151.737 -0.400911 -0.538063 0
M  V30 1667 H 154.281 -1.67332 -1.1756 0
M  V30 1668 H 152.436 -1.33696 -3.63599 0
M  V30 1669 H 152.85 -3.53802 -3.872 0
M  V30 1670 H 154.324 -2.27781 -5.02812 0
M  V30 1671 H 154.801 -0.731608 -4.33064 0
M  V30 1672 H 155.407 -2.24238 -3.61382 0
M  V30 1673 N 153.722 1.14298 -1.08507 0
M  V30 1674 C 154.652 2.21542 -0.737646 0
M  V30 1675 C 155.633 1.67773 0.280377 0
M  V30 1676 O 156.818 1.93616 0.150521 0
M  V30 1677 C 153.948 3.46988 -0.147259 0
M  V30 1678 C 152.902 4.13789 -1.09374 0
M  V30 1679 C 152.228 5.33449 -0.365524 0
M  V30 1680 C 153.528 4.62208 -2.4323 0
M  V30 1681 H 155.222 2.5086 -1.6343 0
M  V30 1682 H 152.768 1.20576 -0.787243 0
M  V30 1683 H 154.721 4.21262 0.107808 0
M  V30 1684 H 153.445 3.17037 0.784538 0
M  V30 1685 H 152.104 3.4147 -1.33393 0
M  V30 1686 H 151.752 4.99759 0.57011 0
M  V30 1687 H 151.452 5.79088 -0.996512 0
M  V30 1688 H 152.976 6.10485 -0.118534 0
M  V30 1689 H 154.39 5.27952 -2.23472 0
M  V30 1690 H 152.787 5.18553 -3.02031 0
M  V30 1691 H 153.857 3.77224 -3.04681 0
M  V30 1692 N 155.201 0.870884 1.31352 0
M  V30 1693 C 156.617 0.562932 1.49343 0
M  V30 1694 C 156.817 -0.902725 1.80148 0
M  V30 1695 O 155.873 -1.68484 1.88067 0
M  V30 1696 C 157.186 1.46393 2.62659 0
M  V30 1697 C 158.734 1.46607 2.76542 0
M  V30 1698 C 159.209 2.35266 3.92955 0
M  V30 1699 N 160.7 2.33151 4.00243 0
M  V30 1700 C 161.435 2.98471 4.89594 0
M  V30 1701 N 160.931 3.72964 5.8384 0
M  V30 1702 N 162.724 2.87775 4.82848 0
M  V30 1703 H 154.875 1.81923 1.09626 0
M  V30 1704 H 157.138 0.777934 0.541777 0
M  V30 1705 H 156.844 2.50689 2.46674 0
M  V30 1706 H 156.718 1.16314 3.58819 0
M  V30 1707 H 159.105 0.43069 2.9194 0
M  V30 1708 H 159.186 1.8071 1.81046 0
M  V30 1709 H 158.83 3.38881 3.78315 0
M  V30 1710 H 158.76 1.98487 4.87761 0
M  V30 1711 H 161.251 1.79006 3.32814 0
M  V30 1712 H 161.564 4.19932 6.4875 0
M  V30 1713 H 159.909 3.77073 5.83816 0
M  V30 1714 H 163.1 2.29116 4.08195 0
M  V30 1715 H 163.273 3.38961 5.52277 0
M  V30 1716 N 156.679 -1.44442 0.630414 0
M  V30 1717 C 157.907 -2.06414 0.141671 0
M  V30 1718 C 158.322 -1.47105 -1.18345 0
M  V30 1719 O 157.679 -0.593662 -1.72574 0
M  V30 1720 C 157.73 -3.61494 0.0199784 0
M  V30 1721 O 157.451 -4.18594 1.29269 0
M  V30 1722 C 158.952 -4.40499 -0.497544 0
M  V30 1723 H 156.172 -0.666292 0.0793452 0
M  V30 1724 H 158.716 -1.85323 0.864614 0
M  V30 1725 H 156.871 -3.8185 -0.653402 0
M  V30 1726 H 157.285 -5.12026 1.13707 0
M  V30 1727 H 158.759 -5.49433 -0.531708 0
M  V30 1728 H 159.236 -4.11895 -1.52445 0
M  V30 1729 H 159.842 -4.25061 0.142562 0
M  V30 1730 N 158.157 -0.370918 -1.53173 0
M  V30 1731 C 159.405 0.216673 -2.00935 0
M  V30 1732 C 159.726 1.48845 -1.25977 0
M  V30 1733 O 158.996 1.92286 -0.374551 0
M  V30 1734 H 157.576 0.0830565 -0.742368 0
M  V30 1735 H 160.238 -0.49838 -1.8842 0
M  V30 1736 H 159.334 0.439893 -3.08984 0
M  V30 1737 N 159.635 1.57281 -0.100228 0
M  V30 1738 C 160.598 2.13158 0.842398 0
M  V30 1739 C 161.598 1.06202 1.20738 0
M  V30 1740 O 162.788 1.32066 1.13597 0
M  V30 1741 C 159.92 2.65639 2.13655 0
M  V30 1742 H 161.113 2.97766 0.357114 0
M  V30 1743 H 158.666 1.5559 0.148823 0
M  V30 1744 H 159.401 1.84566 2.66657 0
M  V30 1745 H 159.186 3.43844 1.88451 0
M  V30 1746 H 160.676 3.08846 2.81077 0
M  V30 1747 N 161.113 -0.173488 1.56642 0
M  V30 1748 C 162.524 -0.736155 1.71574 0
M  V30 1749 C 162.875 -1.82888 0.710389 0
M  V30 1750 O 162 -2.16017 -0.1287 0
M  V30 1751 C 162.595 -1.34211 3.11083 0
M  V30 1752 C 161.154 -1.85162 3.27707 0
M  V30 1753 C 160.301 -0.729765 2.67525 0
M  V30 1754 H 163.252 0.0518786 1.58615 0
M  V30 1755 H 163.273 -2.21178 3.09613 0
M  V30 1756 H 162.785 -0.546579 3.84232 0
M  V30 1757 H 160.886 -2.67366 2.59512 0
M  V30 1758 H 160.999 -1.99855 4.35425 0
M  V30 1759 H 159.363 -1.14965 2.27278 0
M  V30 1760 H 160.146 0.0538806 3.43258 0
M  V30 1761 N 162.591 -1.51276 -0.441967 0
M  V30 1762 C 163.538 -1.72256 -1.53612 0
M  V30 1763 C 164.508 -0.564164 -1.56225 0
M  V30 1764 O 165.693 -0.798074 -1.73307 0
M  V30 1765 C 162.833 -1.84932 -2.91366 0
M  V30 1766 C 161.946 -3.12459 -2.98317 0
M  V30 1767 C 161.081 -3.15758 -4.27166 0
M  V30 1768 C 160.12 -4.37619 -4.27967 0
M  V30 1769 N 159.257 -4.38493 -5.48333 0
M  V30 1770 H 164.097 -2.65654 -1.35026 0
M  V30 1771 H 161.634 -1.31662 -0.656009 0
M  V30 1772 H 163.592 -1.90263 -3.7129 0
M  V30 1773 H 162.222 -0.949461 -3.08521 0
M  V30 1774 H 161.274 -3.1646 -2.11086 0
M  V30 1775 H 162.586 -4.02382 -2.94771 0
M  V30 1776 H 161.74 -3.19979 -5.15459 0
M  V30 1777 H 160.479 -2.23715 -4.33362 0
M  V30 1778 H 159.484 -4.33579 -3.38067 0
M  V30 1779 H 160.709 -5.30921 -4.23438 0
M  V30 1780 H 158.655 -3.49318 -5.55259 0
M  V30 1781 H 158.572 -5.22219 -5.46647 0
M  V30 1782 H 159.84 -4.469 -6.38671 0
M  V30 1783 N 164.069 0.697108 -1.41344 0
M  V30 1784 C 165.017 1.83237 -1.43272 0
M  V30 1785 C 166.011 1.66522 -0.310947 0
M  V30 1786 O 167.217 1.73402 -0.482899 0
M  V30 1787 H 163.592 0.603802 -0.448249 0
M  V30 1788 H 165.563 1.78727 -2.38954 0
M  V30 1789 C 164.312 3.21245 -1.33029 0
M  V30 1790 H 163.635 3.34723 -2.18633 0
M  V30 1791 H 165.075 4.00763 -1.38439 0
M  V30 1792 C 163.534 3.36873 -0.0424635 0
M  V30 1793 O 164.064 3.91177 0.913421 0
M  V30 1794 N 162.27 2.90581 0.0331145 0
M  V30 1795 H 161.817 2.46577 -0.745506 0
M  V30 1796 H 161.775 3.01416 0.894199 0
M  V30 1797 N 165.547 1.27147 0.931209 0
M  V30 1798 C 166.51 1.09615 2.01289 0
M  V30 1799 C 167.51 0.0412581 1.60747 0
M  V30 1800 O 168.7 0.285545 1.71844 0
M  V30 1801 C 165.832 0.669447 3.34262 0
M  V30 1802 H 167.025 2.05662 2.18273 0
M  V30 1803 H 164.578 1.09885 1.11153 0
M  V30 1804 H 165.313 -0.292572 3.22978 0
M  V30 1805 H 165.098 1.43127 3.65044 0
M  V30 1806 H 166.588 0.568921 4.13706 0
M  V30 1807 N 167.025 -1.13721 1.09112 0
M  V30 1808 C 167.935 -2.22638 0.73957 0
M  V30 1809 C 168.951 -1.72091 -0.257068 0
M  V30 1810 O 170.127 -2.01155 -0.0992154 0
M  V30 1811 C 167.192 -3.46322 0.16191 0
M  V30 1812 C 166.253 -4.11775 1.21408 0
M  V30 1813 C 165.486 -5.29555 0.663891 0
M  V30 1814 O 165.709 -5.68077 -0.514274 0
M  V30 1815 O 164.643 -5.84973 1.41738 0
M  V30 1816 H 168.469 -2.55074 1.64836 0
M  V30 1817 H 166.054 -1.21791 0.865289 0
M  V30 1818 H 167.936 -4.21107 -0.157073 0
M  V30 1819 H 166.611 -3.15593 -0.719932 0
M  V30 1820 H 165.518 -3.3883 1.58571 0
M  V30 1821 H 166.851 -4.46627 2.06845 0
M  V30 1822 N 168.503 -0.877838 -1.30888 0
M  V30 1823 C 169.78 -0.413052 -1.91189 0
M  V30 1824 C 170.16 1.1056 -1.79832 0
M  V30 1825 O 169.508 1.93771 -1.21099 0
M  V30 1826 C 169.718 -0.903191 -3.3711 0
M  V30 1827 C 171.066 -0.93395 -4.14201 0
M  V30 1828 O 172.09 -0.849373 -3.45925 0
M  V30 1829 O 170.949 -1.05772 -5.36167 0
M  V30 1830 H 168.043 -0.125035 -0.817493 0
M  V30 1831 H 170.589 -0.966269 -1.39504 0
M  V30 1832 H 169.361 -1.94692 -3.39427 0
M  V30 1833 H 168.984 -0.328732 -3.96239 0
M  V30 1834 N 169.982 1.44106 -0.638065 0
M  V30 1835 C 171.23 2.01579 -0.145043 0
M  V30 1836 C 171.551 1.50496 1.24 0
M  V30 1837 O 170.821 0.711374 1.82527 0
M  V30 1838 H 169.401 0.745282 -0.05063 0
M  V30 1839 H 172.063 1.76516 -0.826327 0
M  V30 1840 H 171.159 3.11877 -0.118039 0
M  V30 1841 N 171.46 0.379036 1.52974 0
M  V30 1842 C 172.871 -0.0972525 1.86447 0
M  V30 1843 C 173.222 -1.47027 1.29914 0
M  V30 1844 O 172.347 -2.07135 0.626433 0
M  V30 1845 C 172.942 -0.183248 3.38304 0
M  V30 1846 C 171.501 -0.603812 3.71525 0
M  V30 1847 C 170.648 0.240632 2.76254 0
M  V30 1848 H 173.599 0.597316 1.4703 0
M  V30 1849 H 173.62 -1.00432 3.67006 0
M  V30 1850 H 173.132 0.816191 3.79421 0
M  V30 1851 H 171.233 -1.61099 3.35973 0
M  V30 1852 H 171.346 -0.369086 4.77676 0
M  V30 1853 H 169.71 -0.292548 2.53014 0
M  V30 1854 H 170.493 1.23786 3.20206 0
M  V30 1855 N 172.938 -1.57226 0.108567 0
M  V30 1856 C 173.868 -2.17778 -0.84232 0
M  V30 1857 C 174.849 -1.11487 -1.2847 0
M  V30 1858 O 176.034 -1.39681 -1.34918 0
M  V30 1859 C 173.164 -2.76888 -2.09644 0
M  V30 1860 C 172.118 -3.88669 -1.79221 0
M  V30 1861 C 171.444 -4.34541 -3.11574 0
M  V30 1862 C 172.744 -5.11251 -1.06864 0
M  V30 1863 H 174.438 -2.97489 -0.337774 0
M  V30 1864 H 171.984 -1.43097 -0.161025 0
M  V30 1865 H 173.937 -3.17904 -2.76614 0
M  V30 1866 H 172.661 -1.94451 -2.62405 0
M  V30 1867 H 171.32 -3.48213 -1.14644 0
M  V30 1868 H 170.968 -3.48977 -3.62249 0
M  V30 1869 H 170.668 -5.09914 -2.91996 0
M  V30 1870 H 172.192 -4.782 -3.7968 0
M  V30 1871 H 173.606 -5.49352 -1.63968 0
M  V30 1872 H 172.003 -5.9214 -0.974178 0
M  V30 1873 H 173.073 -4.8487 -0.0536168 0
M  V30 1874 N 174.416 0.165178 -1.56732 0
M  V30 1875 C 175.827 0.727046 -1.71962 0
M  V30 1876 C 176.178 1.82508 -0.720078 0
M  V30 1877 O 175.303 2.16082 0.117242 0
M  V30 1878 C 175.898 1.32559 -3.11791 0
M  V30 1879 C 174.457 1.83422 -3.28684 0
M  V30 1880 C 173.604 0.715567 -2.67908 0
M  V30 1881 H 176.555 -0.0602896 -1.58585 0
M  V30 1882 H 176.576 2.19533 -3.10782 0
M  V30 1883 H 176.088 0.526195 -3.84516 0
M  V30 1884 H 174.189 2.65986 -2.60926 0
M  V30 1885 H 174.302 1.97543 -4.36478 0
M  V30 1886 H 172.666 1.13758 -2.27884 0
M  V30 1887 H 173.449 -0.0720836 -3.43224 0
M  V30 1888 N 175.894 1.51508 0.433938 0
M  V30 1889 C 176.827 1.67756 1.54704 0
M  V30 1890 C 177.805 0.525127 1.53887 0
M  V30 1891 O 178.989 0.749393 1.72963 0
M  V30 1892 C 176.116 1.69424 2.9328 0
M  V30 1893 C 175.162 2.90673 3.12108 0
M  V30 1894 S 175.995 4.51431 2.88046 0
M  V30 1895 C 177.151 4.55849 4.28897 0
M  V30 1896 H 177.384 2.61904 1.40689 0
M  V30 1897 H 174.917 1.41235 0.62386 0
M  V30 1898 H 176.875 1.7107 3.73156 0
M  V30 1899 H 175.536 0.764464 3.04655 0
M  V30 1900 H 174.729 2.88251 4.13434 0
M  V30 1901 H 174.331 2.86786 2.40062 0
M  V30 1902 H 176.623 4.31699 5.22152 0
M  V30 1903 H 177.566 5.57676 4.36351 0
M  V30 1904 H 177.974 3.85137 4.12711 0
M  V30 1905 N 177.372 -0.689602 1.41712 0
M  V30 1906 C 178.335 -1.78521 1.43746 0
M  V30 1907 C 179.335 -1.57436 0.327191 0
M  V30 1908 O 180.525 -1.64 0.587348 0
M  V30 1909 C 177.657 -3.16971 1.25467 0
M  V30 1910 H 178.85 -1.78108 2.41283 0
M  V30 1911 H 176.403 -0.89781 1.27942 0
M  V30 1912 H 177.138 -3.23019 0.287948 0
M  V30 1913 H 176.923 -3.33678 2.05917 0
M  V30 1914 H 178.413 -3.96935 1.2974 0
M  V30 1915 N 178.85 -1.27639 -0.924453 0
M  V30 1916 C 180.09 -1.15407 -1.68703 0
M  V30 1917 C 180.454 0.294581 -1.89727 0
M  V30 1918 O 181.655 0.539385 -2.63333 0
M  V30 1919 C 179.926 -1.9195 -3.0148 0
M  V30 1920 S 181.485 -1.95969 -3.92609 0
M  V30 1921 H 178.303 -0.411937 -0.579507 0
M  V30 1922 H 180.905 -1.61592 -1.10038 0
M  V30 1923 H 179.609 -2.96387 -2.83871 0
M  V30 1924 H 179.14 -1.46272 -3.65196 0
M  V30 1925 H 181.155 -1.05846 -4.84779 0
M  V30 1926 N 180.328 1.1314 -1.09713 0
M  V30 1927 C 181.574 1.84967 -0.846104 0
M  V30 1928 C 181.929 1.82082 0.621601 0
M  V30 1929 O 181.222 1.2501 1.452 0
M  V30 1930 C 181.416 3.32167 -1.3191 0
M  V30 1931 C 181.245 3.49386 -2.83125 0
M  V30 1932 C 180.015 3.63456 -3.51038 0
M  V30 1933 C 182.213 3.45179 -3.81256 0
M  V30 1934 N 180.195 3.68966 -4.9065 0
M  V30 1935 C 181.566 3.57094 -5.06837 0
M  V30 1936 C 183.621 3.28598 -3.74069 0
M  V30 1937 C 182.324 3.5414 -6.26081 0
M  V30 1938 C 184.35 3.26953 -4.92804 0
M  V30 1939 C 183.712 3.39422 -6.17229 0
M  V30 1940 H 179.811 0.692899 -0.362512 0
M  V30 1941 H 182.395 1.35506 -1.39808 0
M  V30 1942 H 180.566 3.80186 -0.794535 0
M  V30 1943 H 182.298 3.91815 -1.01308 0
M  V30 1944 H 179.053 3.65256 -3.01471 0
M  V30 1945 H 179.477 3.75404 -5.63383 0
M  V30 1946 H 184.119 3.17858 -2.78794 0
M  V30 1947 H 181.837 3.63653 -7.21653 0
M  V30 1948 H 185.423 3.15316 -4.88945 0
M  V30 1949 H 184.303 3.38114 -7.07565 0
M  V30 1950 N 181.806 0.884767 1.30421 0
M  V30 1951 C 183.031 0.517288 2.00845 0
M  V30 1952 C 183.456 -0.886779 1.65885 0
M  V30 1953 O 182.814 -1.58768 0.875354 0
M  V30 1954 C 182.862 0.698994 3.5376 0
M  V30 1955 O 181.966 -0.255208 4.1161 0
M  V30 1956 H 181.307 0.203872 0.631927 0
M  V30 1957 H 183.837 1.19225 1.66272 0
M  V30 1958 H 183.847 0.597912 4.03595 0
M  V30 1959 H 182.522 1.72271 3.78544 0
M  V30 1960 H 181.099 -0.10784 3.72744 0
M  V30 1961 N 183.284 -1.43765 0.645699 0
M  V30 1962 C 184.524 -2.03776 0.159542 0
M  V30 1963 C 184.888 -1.49792 -1.2011 0
M  V30 1964 O 186.089 -2.01398 -1.78023 0
M  V30 1965 C 184.36 -3.57036 0.161251 0
M  V30 1966 S 185.919 -4.3804 -0.258159 0
M  V30 1967 H 182.737 -0.707717 0.0682454 0
M  V30 1968 H 185.339 -1.75941 0.852352 0
M  V30 1969 H 184.043 -3.9383 1.15439 0
M  V30 1970 H 183.574 -3.89503 -0.552339 0
M  V30 1971 H 185.589 -4.7302 -1.49889 0
M  V30 1972 N 184.763 -0.387143 -1.52771 0
M  V30 1973 C 185.71 0.449048 -2.26389 0
M  V30 1974 C 186.68 1.05961 -1.27912 0
M  V30 1975 O 187.865 1.08804 -1.56737 0
M  V30 1976 C 185.005 1.57155 -3.0724 0
M  V30 1977 C 184.118 0.984066 -4.20643 0
M  V30 1978 C 183.253 2.07745 -4.88892 0
M  V30 1979 C 182.292 1.46574 -5.94292 0
M  V30 1980 N 181.429 2.49834 -6.56146 0
M  V30 1981 H 186.269 -0.185205 -2.97424 0
M  V30 1982 H 183.806 -0.103164 -1.46738 0
M  V30 1983 H 185.764 2.23309 -3.52405 0
M  V30 1984 H 184.394 2.17615 -2.38419 0
M  V30 1985 H 183.446 0.212193 -3.79808 0
M  V30 1986 H 184.758 0.497029 -4.96318 0
M  V30 1987 H 183.912 2.81673 -5.3735 0
M  V30 1988 H 182.651 2.59807 -4.12737 0
M  V30 1989 H 181.656 0.711696 -5.45174 0
M  V30 1990 H 182.881 0.953088 -6.72379 0
M  V30 1991 H 180.827 3.0107 -5.82832 0
M  V30 1992 H 180.744 2.05879 -7.27427 0
M  V30 1993 H 182.012 3.23399 -7.09249 0
M  V30 1994 N 186.241 1.57166 -0.116904 0
M  V30 1995 C 187.466 1.999 0.55271 0
M  V30 1996 C 187.891 0.996039 1.59564 0
M  V30 1997 O 187.249 -0.032556 1.81271 0
M  V30 1998 C 187.297 3.4152 1.15742 0
M  V30 1999 O 186.401 3.44106 2.27299 0
M  V30 2000 H 185.742 0.649447 0.138258 0
M  V30 2001 H 188.272 2.03573 -0.204759 0
M  V30 2002 H 188.282 3.79684 1.49346 0
M  V30 2003 H 186.957 4.14034 0.393493 0
M  V30 2004 H 185.534 3.17759 1.9515 0
M  V30 2005 N 187.719 -0.156864 1.56817 0
M  V30 2006 C 189.13 -0.717916 1.72345 0
M  V30 2007 C 189.481 -1.82124 0.729747 0
M  V30 2008 O 188.606 -2.16141 -0.105781 0
M  V30 2009 C 189.201 -1.30904 3.12489 0
M  V30 2010 C 187.76 -1.81676 3.29653 0
M  V30 2011 C 186.907 -0.701349 2.68284 0
M  V30 2012 H 189.858 0.0686989 1.58551 0
M  V30 2013 H 189.879 -2.17882 3.11942 0
M  V30 2014 H 189.391 -0.505796 3.8479 0
M  V30 2015 H 187.492 -2.64598 2.62333 0
M  V30 2016 H 187.605 -1.95226 4.3752 0
M  V30 2017 H 185.969 -1.12548 2.28484 0
M  V30 2018 H 186.752 0.0902846 3.43181 0
M  V30 2019 N 189.197 -1.51736 -0.425897 0
M  V30 2020 C 190.474 -1.55519 -1.1863 0
M  V30 2021 C 190.854 -0.326219 -2.08564 0
M  V30 2022 O 190.202 0.688012 -2.17896 0
M  V30 2023 C 190.412 -2.87521 -1.9782 0
M  V30 2024 C 191.76 -3.39899 -2.54468 0
M  V30 2025 O 192.784 -2.89148 -2.08019 0
M  V30 2026 O 191.643 -4.2848 -3.39215 0
M  V30 2027 H 188.737 -0.625739 -0.540721 0
M  V30 2028 H 191.283 -1.64055 -0.434038 0
M  V30 2029 H 190.055 -3.68422 -1.31836 0
M  V30 2030 H 189.678 -2.822 -2.80088 0
M  V30 2031 N 190.675 0.682077 -1.42076 0
M  V30 2032 C 191.921 1.44428 -1.42367 0
M  V30 2033 C 192.254 1.94164 -0.0373056 0
M  V30 2034 O 191.529 1.70429 0.937239 0
M  V30 2035 C 191.812 2.64654 -2.44194 0
M  V30 2036 C 191.665 2.20596 -3.91991 0
M  V30 2037 C 192.984 3.66865 -2.431 0
M  V30 2038 H 190.103 0.523834 -0.518428 0
M  V30 2039 H 192.745 0.77576 -1.73442 0
M  V30 2040 H 190.895 3.2169 -2.17826 0
M  V30 2041 H 192.567 1.68783 -4.29313 0
M  V30 2042 H 190.81 1.52242 -4.06208 0
M  V30 2043 H 191.481 3.06921 -4.58807 0
M  V30 2044 H 193.957 3.19531 -2.66532 0
M  V30 2045 H 192.833 4.48577 -3.16339 0
M  V30 2046 H 193.094 4.17493 -1.45437 0
M  V30 2047 N 192.153 1.28127 0.917671 0
M  V30 2048 C 193.116 1.11744 2.00115 0
M  V30 2049 C 194.116 0.0583052 1.60694 0
M  V30 2050 O 195.306 0.303755 1.71531 0
M  V30 2051 C 192.438 0.704862 3.33533 0
M  V30 2052 H 193.631 2.07966 2.16079 0
M  V30 2053 H 191.184 1.11058 1.09981 0
M  V30 2054 H 191.919 -0.258299 3.2327 0
M  V30 2055 H 191.704 1.4699 3.63505 0
M  V30 2056 H 193.194 0.612768 4.1308 0
M  V30 2057 N 193.631 -1.12557 1.10312 0
M  V30 2058 C 195.047 -1.36036 0.834649 0
M  V30 2059 C 195.247 -1.93946 -0.546539 0
M  V30 2060 O 194.303 -2.16484 -1.29966 0
M  V30 2061 C 195.616 -2.30312 1.9333 0
M  V30 2062 C 197.164 -2.43906 1.9616 0
M  V30 2063 C 197.639 -3.41496 3.05195 0
M  V30 2064 N 199.13 -3.49053 3.04494 0
M  V30 2065 C 199.865 -4.24471 3.85502 0
M  V30 2066 N 199.361 -5.02966 4.76442 0
M  V30 2067 N 201.154 -4.19864 3.73725 0
M  V30 2068 H 193.305 -0.733246 1.99342 0
M  V30 2069 H 195.568 -0.385234 0.866198 0
M  V30 2070 H 195.274 -1.94933 2.92735 0
M  V30 2071 H 195.148 -3.30421 1.81939 0
M  V30 2072 H 197.535 -2.78567 0.973886 0
M  V30 2073 H 197.616 -1.4369 2.11629 0
M  V30 2074 H 197.26 -3.07565 4.04186 0
M  V30 2075 H 197.19 -4.41539 2.86968 0
M  V30 2076 H 199.681 -2.93053 2.38596 0
M  V30 2077 H 199.994 -5.57846 5.34815 0
M  V30 2078 H 198.339 -5.02167 4.80472 0
M  V30 2079 H 201.53 -3.57623 3.02032 0
M  V30 2080 H 201.703 -4.78386 4.37093 0
M  V30 2081 N 195.109 -0.891671 -1.2995 0
M  V30 2082 C 196.039 -0.379797 -2.30391 0
M  V30 2083 C 197.02 0.540919 -1.6127 0
M  V30 2084 O 198.205 0.453352 -1.88834 0
M  V30 2085 C 195.335 0.400654 -3.44981 0
M  V30 2086 C 194.289 -0.428905 -4.25846 0
M  V30 2087 C 193.615 0.478557 -5.32554 0
M  V30 2088 C 194.915 -1.67458 -4.94727 0
M  V30 2089 H 196.609 -1.21914 -2.73454 0
M  V30 2090 H 194.155 -0.587675 -1.31462 0
M  V30 2091 H 196.108 0.769434 -4.14316 0
M  V30 2092 H 194.832 1.27371 -3.0074 0
M  V30 2093 H 193.491 -0.779911 -3.58208 0
M  V30 2094 H 193.139 1.34951 -4.84559 0
M  V30 2095 H 192.839 -0.0727433 -5.87555 0
M  V30 2096 H 194.363 0.843705 -6.04743 0
M  V30 2097 H 195.777 -1.376 -5.56542 0
M  V30 2098 H 194.174 -2.16659 -5.59624 0
M  V30 2099 H 195.244 -2.41518 -4.20473 0
M  V30 2100 N 196.587 1.43421 -0.653314 0
M  V30 2101 C 197.836 2.01032 -0.164076 0
M  V30 2102 C 198.149 1.52147 1.22926 0
M  V30 2103 O 199.355 2.02031 1.81371 0
M  V30 2104 C 197.811 3.59082 -0.24252 0
M  V30 2105 C 197.419 4.1696 -1.63855 0
M  V30 2106 C 199.163 4.24079 0.18911 0
M  V30 2107 C 197.07 5.67304 -1.67092 0
M  V30 2108 H 196 0.751798 -0.0575769 0
M  V30 2109 H 198.651 1.6439 -0.815362 0
M  V30 2110 H 197.033 3.93125 0.476276 0
M  V30 2111 H 198.207 3.94416 -2.38271 0
M  V30 2112 H 196.522 3.64335 -2.01616 0
M  V30 2113 H 199.119 5.34381 0.184775 0
M  V30 2114 H 199.462 3.98005 1.22056 0
M  V30 2115 H 199.995 3.94918 -0.477938 0
M  V30 2116 H 196.734 5.98145 -2.68146 0
M  V30 2117 H 196.254 5.91904 -0.970014 0
M  V30 2118 H 197.933 6.31344 -1.4147 0
M  V30 2119 N 198.065 0.39524 1.52563 0
M  V30 2120 C 198.997 -0.472201 2.24283 0
M  V30 2121 C 200.01 -1.02178 1.26742 0
M  V30 2122 O 201.199 -0.923097 1.52778 0
M  V30 2123 C 198.299 -1.66775 2.95024 0
M  V30 2124 C 197.472 -1.2445 4.19322 0
M  V30 2125 C 196.531 -2.30539 4.7301 0
M  V30 2126 O 195.557 -1.91702 5.35947 0
M  V30 2127 N 196.759 -3.6253 4.53379 0
M  V30 2128 H 199.524 0.142282 2.99362 0
M  V30 2129 H 197.085 0.2219 1.60372 0
M  V30 2130 H 199.077 -2.37283 3.27839 0
M  V30 2131 H 197.647 -2.18845 2.23217 0
M  V30 2132 H 196.867 -0.368069 3.92478 0
M  V30 2133 H 198.155 -0.938457 5.0007 0
M  V30 2134 H 197.553 -3.96841 4.03154 0
M  V30 2135 H 196.11 -4.29055 4.90668 0
M  V30 2136 N 199.544 -1.57102 0.125237 0
M  V30 2137 C 200.491 -2.15641 -0.822655 0
M  V30 2138 C 201.461 -1.08313 -1.25927 0
M  V30 2139 O 202.646 -1.36251 -1.33567 0
M  V30 2140 C 199.786 -2.76504 -2.06494 0
M  V30 2141 C 198.899 -3.98158 -1.67612 0
M  V30 2142 C 198.034 -4.47088 -2.86854 0
M  V30 2143 C 197.073 -5.6126 -2.44242 0
M  V30 2144 N 196.21 -6.04905 -3.56419 0
M  V30 2145 H 201.05 -2.96313 -0.316625 0
M  V30 2146 H 198.587 -1.46388 -0.144588 0
M  V30 2147 H 200.545 -3.09925 -2.79289 0
M  V30 2148 H 199.175 -1.98512 -2.54545 0
M  V30 2149 H 198.227 -3.70858 -0.846661 0
M  V30 2150 H 199.539 -4.80934 -1.32301 0
M  V30 2151 H 198.693 -4.82451 -3.67867 0
M  V30 2152 H 197.432 -3.63275 -3.25396 0
M  V30 2153 H 196.437 -5.25495 -1.61663 0
M  V30 2154 H 197.662 -6.46843 -2.0681 0
M  V30 2155 H 195.608 -5.24032 -3.94623 0
M  V30 2156 H 195.525 -6.82552 -3.25051 0
M  V30 2157 H 196.793 -6.44907 -4.37853 0
M  V30 2158 N 201.022 0.148545 -1.56898 0
M  V30 2159 C 202.299 0.890019 -1.74178 0
M  V30 2160 C 202.679 1.99407 -0.692839 0
M  V30 2161 O 202.027 2.26671 0.288505 0
M  V30 2162 C 202.237 1.43389 -3.18183 0
M  V30 2163 C 203.585 1.89791 -3.79822 0
M  V30 2164 O 204.609 1.53134 -3.21603 0
M  V30 2165 O 203.468 2.57387 -4.82093 0
M  V30 2166 H 200.562 0.420496 -0.712118 0
M  V30 2167 H 203.108 0.134591 -1.69165 0
M  V30 2168 H 201.88 0.640383 -3.86024 0
M  V30 2169 H 201.503 2.25287 -3.27615 0
M  V30 2170 N 202.5 1.5196 0.417844 0
M  V30 2171 C 203.748 1.65263 1.16329 0
M  V30 2172 C 204.069 0.380634 1.91249 0
M  V30 2173 O 203.339 -0.604214 1.86349 0
M  V30 2174 H 201.919 0.60912 0.432414 0
M  V30 2175 H 204.581 1.88969 0.477162 0
M  V30 2176 H 203.677 2.4896 1.88217 0
M  V30 2177 N 203.978 -0.674533 1.42435 0
M  V30 2178 C 204.888 -1.81751 1.48337 0
M  V30 2179 C 205.904 -1.69975 0.372099 0
M  V30 2180 O 207.08 -1.91521 0.62304 0
M  V30 2181 C 204.145 -3.17895 1.38361 0
M  V30 2182 C 203.206 -3.41625 2.59982 0
M  V30 2183 C 202.439 -4.71274 2.50473 0
M  V30 2184 O 202.662 -5.49197 1.54075 0
M  V30 2185 O 201.596 -4.96254 3.4061 0
M  V30 2186 H 205.422 -1.79728 2.44809 0
M  V30 2187 H 203.007 -0.830312 1.24202 0
M  V30 2188 H 204.889 -3.99136 1.35161 0
M  V30 2189 H 203.564 -3.20555 0.450144 0
M  V30 2190 H 202.471 -2.60231 2.68757 0
M  V30 2191 H 203.804 -3.43796 3.52229 0
M  V30 2192 N 205.456 -1.28612 -0.910864 0
M  V30 2193 C 206.733 -1.06632 -1.63979 0
M  V30 2194 C 207.113 0.393351 -2.07403 0
M  V30 2195 O 206.461 1.37999 -1.82122 0
M  V30 2196 C 206.671 -2.0436 -2.8291 0
M  V30 2197 C 208.019 -2.34666 -3.5386 0
M  V30 2198 O 209.043 -2.02467 -2.93062 0
M  V30 2199 O 207.902 -2.89631 -4.63439 0
M  V30 2200 H 204.996 -0.407737 -0.7195 0
M  V30 2201 H 207.542 -1.39942 -0.959914 0
M  V30 2202 H 206.314 -3.02727 -2.47936 0
M  V30 2203 H 205.937 -1.71714 -3.58609 0
M  V30 2204 N 206.934 1.1197 -1.10907 0
M  V30 2205 C 208.182 1.83225 -0.852819 0
M  V30 2206 C 208.503 1.84769 0.623341 0
M  V30 2207 O 207.773 1.3143 1.45269 0
M  V30 2208 H 206.353 0.67849 -0.312507 0
M  V30 2209 H 209.015 1.3556 -1.40033 0
M  V30 2210 H 208.111 2.87265 -1.22005 0
M  V30 2211 N 208.412 0.89855 1.29475 0
M  V30 2212 C 209.642 0.538479 1.99459 0
M  V30 2213 C 210.05 -0.880922 1.67441 0
M  V30 2214 O 209.393 -1.59283 0.915127 0
M  V30 2215 C 209.455 0.649564 3.53583 0
M  V30 2216 C 209.119 2.03573 4.09154 0
M  V30 2217 C 210.116 3.00675 4.24135 0
M  V30 2218 C 207.801 2.3448 4.44212 0
M  V30 2219 C 209.795 4.26809 4.73405 0
M  V30 2220 C 207.482 3.60857 4.93179 0
M  V30 2221 C 208.48 4.56836 5.0773 0
M  V30 2222 O 208.168 5.80969 5.55635 0
M  V30 2223 H 207.9 0.205372 0.644048 0
M  V30 2224 H 210.454 1.20958 1.66007 0
M  V30 2225 H 208.684 -0.0785592 3.8662 0
M  V30 2226 H 210.373 0.29881 4.04799 0
M  V30 2227 H 211.139 2.78112 3.97339 0
M  V30 2228 H 207.018 1.60534 4.32145 0
M  V30 2229 H 210.562 5.0173 4.84678 0
M  V30 2230 H 206.459 3.83251 5.19412 0
M  V30 2231 H 207.227 5.83542 5.73952 0
M  V30 2232 N 209.89 -1.43072 0.660911 0
M  V30 2233 C 211.137 -2.01721 0.177445 0
M  V30 2234 C 211.465 -1.5218 -1.21126 0
M  V30 2235 O 210.72 -0.708659 -1.82419 0
M  V30 2236 C 211.019 -3.57103 0.145563 0
M  V30 2237 C 210.685 -4.26021 1.47705 0
M  V30 2238 C 209.347 -4.44563 1.84165 0
M  V30 2239 C 211.699 -4.64983 2.35458 0
M  V30 2240 C 209.027 -4.99334 3.0803 0
M  V30 2241 C 211.379 -5.21127 3.58622 0
M  V30 2242 C 210.043 -5.37884 3.95268 0
M  V30 2243 H 209.313 -0.73815 0.0649317 0
M  V30 2244 H 211.96 -1.71446 0.853144 0
M  V30 2245 H 210.265 -3.86965 -0.61361 0
M  V30 2246 H 211.962 -4.00248 -0.2455 0
M  V30 2247 H 208.552 -4.11939 1.18339 0
M  V30 2248 H 212.736 -4.50343 2.08579 0
M  V30 2249 H 207.992 -5.10493 3.36462 0
M  V30 2250 H 212.166 -5.50262 4.26831 0
M  V30 2251 H 209.793 -5.80089 4.91325 0
M  V30 2252 N 211.368 -0.403325 -1.52352 0
M  V30 2253 C 212.318 0.442244 -2.2367 0
M  V30 2254 C 213.302 1.01823 -1.24583 0
M  V30 2255 O 214.494 0.942005 -1.49851 0
M  V30 2256 C 211.623 1.5615 -3.05732 0
M  V30 2257 C 210.709 0.996575 -4.12225 0
M  V30 2258 N 211.1 0.157804 -5.05554 0
M  V30 2259 C 209.398 1.26767 -4.27605 0
M  V30 2260 C 210.099 -0.155853 -5.81491 0
M  V30 2261 N 209.075 0.451775 -5.41719 0
M  V30 2262 H 212.877 -0.204964 -2.93184 0
M  V30 2263 H 210.391 -0.213418 -1.60992 0
M  V30 2264 H 212.388 2.17981 -3.55373 0
M  V30 2265 H 211.048 2.21139 -2.37755 0
M  V30 2266 H 212.059 -0.206049 -5.1749 0
M  V30 2267 H 208.736 1.91757 -3.70858 0
M  V30 2268 H 210.126 -0.836329 -6.66675 0
M  V30 2269 N 212.846 1.57033 -0.133567 0
M  V30 2270 C 214.094 1.953 0.519848 0
M  V30 2271 C 214.415 1.01866 1.66278 0
M  V30 2272 O 213.685 0.0776513 1.95746 0
M  V30 2273 H 212.265 0.721091 0.195032 0
M  V30 2274 H 214.927 1.93809 -0.205921 0
M  V30 2275 H 214.023 2.98695 0.904854 0
M  V30 2276 N 214.325 -0.140222 1.56975 0
M  V30 2277 C 215.272 -1.17292 1.98774 0
M  V30 2278 C 216.242 -1.4232 0.856408 0
M  V30 2279 O 217.427 -1.54541 1.119 0
M  V30 2280 C 214.567 -2.49973 2.37923 0
M  V30 2281 C 213.68 -2.32062 3.64378 0
M  V30 2282 C 212.815 -3.57825 3.926 0
M  V30 2283 C 211.854 -3.3498 5.12303 0
M  V30 2284 N 210.991 -4.52891 5.36502 0
M  V30 2285 H 215.831 -0.809472 2.86795 0
M  V30 2286 H 213.368 -0.388237 1.41884 0
M  V30 2287 H 215.326 -3.27346 2.58652 0
M  V30 2288 H 213.956 -2.84252 1.52972 0
M  V30 2289 H 213.008 -1.45711 3.51387 0
M  V30 2290 H 214.32 -2.11145 4.51906 0
M  V30 2291 H 213.474 -4.43624 4.13863 0
M  V30 2292 H 212.213 -3.81753 3.03506 0
M  V30 2293 H 211.218 -2.4757 4.90906 0
M  V30 2294 H 212.443 -3.12444 6.02956 0
M  V30 2295 H 210.389 -4.76979 4.50363 0
M  V30 2296 H 210.306 -4.35001 6.18312 0
M  V30 2297 H 211.574 -5.39884 5.62268 0
M  V30 2298 N 215.803 -1.52179 -0.40978 0
M  V30 2299 C 217.049 -1.67408 -1.15525 0
M  V30 2300 C 217.404 -0.398746 -1.88223 0
M  V30 2301 O 216.697 0.60678 -1.81738 0
M  V30 2302 C 216.891 -2.83428 -2.17723 0
M  V30 2303 C 216.72 -4.22121 -1.55061 0
M  V30 2304 C 215.49 -4.87657 -1.3236 0
M  V30 2305 C 217.688 -5.04248 -1.01185 0
M  V30 2306 N 215.67 -6.10387 -0.655834 0
M  V30 2307 C 217.041 -6.18209 -0.470963 0
M  V30 2308 C 219.096 -4.89583 -0.906252 0
M  V30 2309 C 217.799 -7.1911 0.165172 0
M  V30 2310 C 219.825 -5.90718 -0.28397 0
M  V30 2311 C 219.187 -7.03969 0.246243 0
M  V30 2312 H 215.286 -0.666251 -0.409431 0
M  V30 2313 H 217.87 -1.89482 -0.447729 0
M  V30 2314 H 216.041 -2.6297 -2.85834 0
M  V30 2315 H 217.773 -2.87697 -2.84627 0
M  V30 2316 H 214.528 -4.46007 -1.59294 0
M  V30 2317 H 214.952 -6.76153 -0.338596 0
M  V30 2318 H 219.594 -4.02253 -1.302 0
M  V30 2319 H 217.312 -8.06066 0.572986 0
M  V30 2320 H 220.898 -5.81443 -0.203792 0
M  V30 2321 H 219.778 -7.80886 0.720173 0
M  V30 2322 N 217.281 0.66697 -1.42791 0
M  V30 2323 C 218.244 1.76211 -1.46568 0
M  V30 2324 C 219.244 1.56896 -0.352196 0
M  V30 2325 O 220.434 1.63044 -0.613364 0
M  V30 2326 C 217.566 3.14935 -1.30494 0
M  V30 2327 H 218.759 1.74247 -2.44086 0
M  V30 2328 H 216.312 0.877342 -1.29354 0
M  V30 2329 H 217.047 3.2252 -0.339301 0
M  V30 2330 H 216.832 3.30359 -2.11199 0
M  V30 2331 H 218.322 3.94821 -1.36038 0
M  V30 2332 N 218.759 1.29093 0.90403 0
M  V30 2333 C 220.175 1.07011 1.1841 0
M  V30 2334 C 220.375 -0.181358 2.00682 0
M  V30 2335 O 219.431 -0.880331 2.36657 0
M  V30 2336 C 220.744 2.32311 1.90924 0
M  V30 2337 C 222.292 2.37587 2.03768 0
M  V30 2338 C 222.767 3.62679 2.79693 0
M  V30 2339 N 224.258 3.63376 2.87249 0
M  V30 2340 C 224.993 4.56848 3.46522 0
M  V30 2341 N 224.489 5.60648 4.06996 0
M  V30 2342 N 226.282 4.44426 3.44154 0
M  V30 2343 H 218.433 2.09412 0.354993 0
M  V30 2344 H 220.696 0.922181 0.219742 0
M  V30 2345 H 220.402 3.23536 1.37905 0
M  V30 2346 H 220.276 2.39483 2.91424 0
M  V30 2347 H 222.663 1.46853 2.55965 0
M  V30 2348 H 222.744 2.34403 1.02415 0
M  V30 2349 H 222.388 4.53762 2.28173 0
M  V30 2350 H 222.318 3.63119 3.81381 0
M  V30 2351 H 224.809 2.88321 2.44293 0
M  V30 2352 H 225.122 6.28101 4.50232 0
M  V30 2353 H 223.467 5.64463 4.05471 0
M  V30 2354 H 226.658 3.62529 2.96126 0
M  V30 2355 H 226.831 5.17457 3.90054 0
M  V30 2356 N 220.237 -1.11381 1.11499 0
M  V30 2357 C 221.485 -1.8277 0.862524 0
M  V30 2358 C 221.806 -1.85097 -0.613534 0
M  V30 2359 O 221.076 -1.32198 -1.4457 0
M  V30 2360 H 219.656 -0.676823 0.316101 0
M  V30 2361 H 222.318 -1.34816 1.4075 0
M  V30 2362 H 221.414 -2.86614 1.23527 0
M  V30 2363 N 221.715 -0.905404 -1.28997 0
M  V30 2364 C 222.963 -0.533192 -1.9494 0
M  V30 2365 C 223.284 0.924618 -1.71685 0
M  V30 2366 O 222.554 1.65268 -1.05183 0
M  V30 2367 H 221.134 -0.194194 -0.721317 0
M  V30 2368 H 223.796 -1.15294 -1.57141 0
M  V30 2369 H 222.892 -0.72059 -3.03667 0
M  V30 2370 N 223.193 1.4272 -0.668489 0
M  V30 2371 C 224.604 1.84793 -0.266151 0
M  V30 2372 C 224.955 1.55959 1.19043 0
M  V30 2373 O 224.08 1.01622 1.91055 0
M  V30 2374 C 224.675 3.35436 -0.476271 0
M  V30 2375 C 223.234 3.76182 -0.128113 0
M  V30 2376 C 222.381 2.66344 -0.771777 0
M  V30 2377 H 225.332 1.32656 -0.871098 0
M  V30 2378 H 225.353 3.79515 0.273561 0
M  V30 2379 H 224.865 3.5639 -1.53647 0
M  V30 2380 H 222.966 3.60836 0.928891 0
M  V30 2381 H 223.079 4.75766 -0.564231 0
M  V30 2382 H 221.443 2.53885 -0.203652 0
M  V30 2383 H 222.226 2.90123 -1.83531 0
M  V30 2384 N 224.671 0.411399 1.52136 0
M  V30 2385 C 225.581 -0.419774 2.30814 0
M  V30 2386 C 226.597 -1.0515 1.38634 0
M  V30 2387 O 227.773 -1.05252 1.71709 0
M  V30 2388 C 224.838 -1.52019 3.11594 0
M  V30 2389 C 223.899 -0.91129 4.19516 0
M  V30 2390 C 223.132 -1.95927 4.96436 0
M  V30 2391 O 223.355 -3.17775 4.73683 0
M  V30 2392 O 222.289 -1.56423 5.81219 0
M  V30 2393 H 226.115 0.221805 3.02889 0
M  V30 2394 H 223.7 0.174547 1.48377 0
M  V30 2395 H 225.582 -2.15898 3.61892 0
M  V30 2396 H 224.257 -2.14633 2.42311 0
M  V30 2397 H 223.164 -0.235157 3.7336 0
M  V30 2398 H 224.497 -0.32904 4.91099 0
M  V30 2399 N 226.149 -1.5696 0.141893 0
M  V30 2400 C 227.398 -1.95135 -0.510427 0
M  V30 2401 C 227.711 -1.02896 -1.66348 0
M  V30 2402 O 228.917 -1.30629 -2.38009 0
M  V30 2403 C 227.373 -3.46876 -0.959427 0
M  V30 2404 C 226.981 -4.47691 0.166419 0
M  V30 2405 C 228.725 -3.93927 -1.58183 0
M  V30 2406 C 226.632 -5.90636 -0.300565 0
M  V30 2407 H 225.562 -0.728494 -0.194454 0
M  V30 2408 H 228.213 -1.8211 0.22542 0
M  V30 2409 H 226.595 -3.55215 -1.75038 0
M  V30 2410 H 227.769 -4.51043 0.94325 0
M  V30 2411 H 226.084 -4.10527 0.696905 0
M  V30 2412 H 228.681 -4.98158 -1.94275 0
M  V30 2413 H 229.024 -3.3519 -2.46888 0
M  V30 2414 H 229.557 -3.88484 -0.855863 0
M  V30 2415 H 226.296 -6.5318 0.550989 0
M  V30 2416 H 225.816 -5.90655 -1.04338 0
M  V30 2417 H 227.495 -6.42588 -0.754265 0
M  V30 2418 N 227.627 0.131896 -1.57047 0
M  V30 2419 C 228.873 0.843179 -1.84441 0
M  V30 2420 C 229.206 1.80129 -0.725749 0
M  V30 2421 O 228.481 1.92624 0.269469 0
M  V30 2422 C 228.764 1.60442 -3.22382 0
M  V30 2423 C 228.617 0.666782 -4.4483 0
M  V30 2424 C 229.936 2.56354 -3.5773 0
M  V30 2425 H 227.055 0.305081 -0.670891 0
M  V30 2426 H 229.697 0.107839 -1.89694 0
M  V30 2427 H 227.847 2.23128 -3.18035 0
M  V30 2428 H 229.519 0.0497646 -4.61273 0
M  V30 2429 H 227.762 -0.022609 -4.33794 0
M  V30 2430 H 228.433 1.23579 -5.37989 0
M  V30 2431 H 230.909 2.0378 -3.62785 0
M  V30 2432 H 229.785 3.06657 -4.5525 0
M  V30 2433 H 230.046 3.38419 -2.84473 0
M  V30 2434 N 229.106 1.52395 0.401703 0
M  V30 2435 C 230.054 1.7689 1.51039 0
M  V30 2436 C 231.048 0.636298 1.56996 0
M  V30 2437 O 232.254 0.818507 1.60314 0
M  V30 2438 H 228.629 0.559502 0.502456 0
M  V30 2439 H 230.6 2.69757 1.27568 0
M  V30 2440 C 229.349 1.94331 2.88324 0
M  V30 2441 H 228.672 2.80905 2.84486 0
M  V30 2442 H 230.112 2.15466 3.65172 0
M  V30 2443 C 228.571 0.712396 3.29282 0
M  V30 2444 O 229.101 -0.116218 4.01532 0
M  V30 2445 N 227.307 0.546154 2.85422 0
M  V30 2446 H 226.854 1.22156 2.26794 0
M  V30 2447 H 226.812 -0.276113 3.13185 0
M  V30 2448 N 230.584 -0.659388 1.43143 0
M  V30 2449 C 231.532 -1.79374 1.4808 0
M  V30 2450 C 232.526 -1.65639 0.354988 0
M  V30 2451 O 233.732 -1.7206 0.528704 0
M  V30 2452 H 230.107 -0.591705 0.4641 0
M  V30 2453 H 232.078 -1.72329 2.43609 0
M  V30 2454 C 230.827 -3.17606 1.41499 0
M  V30 2455 H 230.15 -3.28809 2.27431 0
M  V30 2456 H 231.59 -3.96951 1.49015 0
M  V30 2457 C 230.049 -3.36642 0.131765 0
M  V30 2458 O 230.579 -3.93461 -0.809386 0
M  V30 2459 N 228.785 -2.90567 0.0439396 0
M  V30 2460 H 228.332 -2.44513 0.810619 0
M  V30 2461 H 228.29 -3.03681 -0.813969 0
M  V30 2462 N 232.062 -1.29571 -0.897171 0
M  V30 2463 C 232.992 -1.17473 -2.01798 0
M  V30 2464 C 233.973 -0.068323 -1.69963 0
M  V30 2465 O 235.158 -0.248239 -1.92607 0
M  V30 2466 C 232.288 -0.853099 -3.36659 0
M  V30 2467 C 231.242 -1.9161 -3.82713 0
M  V30 2468 C 230.568 -1.44773 -5.14728 0
M  V30 2469 C 231.868 -3.32535 -4.02763 0
M  V30 2470 H 233.562 -2.11237 -2.12177 0
M  V30 2471 H 231.108 -1.01699 -1.01948 0
M  V30 2472 H 233.061 -0.755165 -4.14578 0
M  V30 2473 H 231.785 0.120236 -3.26379 0
M  V30 2474 H 230.444 -2.00346 -3.07013 0
M  V30 2475 H 230.092 -0.462995 -5.00865 0
M  V30 2476 H 229.792 -2.15865 -5.46513 0
M  V30 2477 H 231.316 -1.36334 -5.95185 0
M  V30 2478 H 232.73 -3.26626 -4.71156 0
M  V30 2479 H 231.127 -4.01607 -4.45905 0
M  V30 2480 H 232.197 -3.75326 -3.07016 0
M  V30 2481 N 233.54 1.10788 -1.12088 0
M  V30 2482 C 234.788 1.8231 -0.872205 0
M  V30 2483 C 235.109 1.85419 0.603709 0
M  V30 2484 O 234.379 1.32963 1.43867 0
M  V30 2485 H 232.959 0.675137 -0.319686 0
M  V30 2486 H 235.621 1.34068 -1.41463 0
M  V30 2487 H 234.717 2.85955 -1.25045 0
M  V30 2488 N 235.018 0.912232 1.28515 0
M  V30 2489 C 236.258 0.551677 1.96814 0
M  V30 2490 C 236.622 -0.887825 1.7024 0
M  V30 2491 O 237.823 -1.35588 2.32098 0
M  V30 2492 C 236.094 0.850555 3.47132 0
M  V30 2493 S 237.653 0.59619 4.34731 0
M  V30 2494 H 234.471 0.204191 0.681049 0
M  V30 2495 H 237.073 1.17736 1.56072 0
M  V30 2496 H 235.777 1.8962 3.63968 0
M  V30 2497 H 235.308 0.213471 3.9282 0
M  V30 2498 H 237.323 -0.553154 4.93107 0
M  V30 2499 N 236.496 -1.42363 0.676048 0
M  V30 2500 C 237.459 -2.29199 0.00766941 0
M  V30 2501 C 238.459 -1.43389 -0.727745 0
M  V30 2502 O 239.649 -1.64764 -0.56556 0
M  V30 2503 C 236.781 -3.2591 -0.999785 0
M  V30 2504 H 237.974 -2.89794 0.771988 0
M  V30 2505 H 235.527 -1.50024 0.438468 0
M  V30 2506 H 236.262 -2.70256 -1.79255 0
M  V30 2507 H 236.047 -3.89202 -0.475829 0
M  V30 2508 H 237.537 -3.91028 -1.46583 0
M  V30 2509 N 237.974 -0.419461 -1.51915 0
M  V30 2510 C 239.251 0.211999 -1.94448 0
M  V30 2511 C 239.631 1.61703 -1.35703 0
M  V30 2512 O 238.979 2.22102 -0.536931 0
M  V30 2513 C 239.189 0.207872 -3.4838 0
M  V30 2514 C 240.537 0.422192 -4.22496 0
M  V30 2515 O 241.561 0.286778 -3.55044 0
M  V30 2516 O 240.42 0.690009 -5.42126 0
M  V30 2517 H 237.514 0.139586 -0.815135 0
M  V30 2518 H 240.06 -0.476151 -1.62883 0
M  V30 2519 H 238.832 -0.775102 -3.83546 0
M  V30 2520 H 238.455 0.939688 -3.86336 0
M  V30 2521 N 239.452 1.56882 -0.150215 0
M  V30 2522 C 240.692 1.98119 0.502804 0
M  V30 2523 C 241.056 1.03327 1.61826 0
M  V30 2524 O 242.257 1.33621 2.33236 0
M  V30 2525 C 240.528 3.43329 0.992988 0
M  V30 2526 S 242.087 4.0659 1.65015 0
M  V30 2527 H 238.905 0.692189 0.162467 0
M  V30 2528 H 241.507 1.93988 -0.242689 0
M  V30 2529 H 240.211 4.10046 0.170436 0
M  V30 2530 H 239.742 3.5118 1.77303 0
M  V30 2531 H 241.757 3.99906 2.93752 0
M  V30 2532 N 240.93 -0.123565 1.57115 0
M  V30 2533 C 241.88 -1.1575 1.96433 0
M  V30 2534 C 242.864 -1.37313 0.838686 0
M  V30 2535 O 244.056 -1.38482 1.10235 0
M  V30 2536 C 241.185 -2.48526 2.36833 0
M  V30 2537 C 240.271 -2.30457 3.5602 0
M  V30 2538 N 240.662 -1.8219 4.71848 0
M  V30 2539 C 238.96 -2.61129 3.61563 0
M  V30 2540 C 239.661 -1.77721 5.53886 0
M  V30 2541 N 238.637 -2.21899 4.96248 0
M  V30 2542 H 242.439 -0.776797 2.83449 0
M  V30 2543 H 239.953 -0.331364 1.58983 0
M  V30 2544 H 241.95 -3.233 2.63216 0
M  V30 2545 H 240.61 -2.87358 1.5118 0
M  V30 2546 H 241.621 -1.51805 4.95152 0
M  V30 2547 H 238.298 -3.03678 2.86507 0
M  V30 2548 H 239.688 -1.41697 6.56789 0
M  V30 2549 N 242.408 -1.52605 -0.393616 0
M  V30 2550 C 243.356 -1.77688 -1.50099 0
M  V30 2551 C 244.35 -0.644615 -1.56656 0
M  V30 2552 O 245.556 -0.826997 -1.59877 0
M  V30 2553 H 241.931 -0.562159 -0.499481 0
M  V30 2554 H 243.902 -2.7043 -1.26135 0
M  V30 2555 C 242.651 -1.95858 -2.87289 0
M  V30 2556 H 241.974 -2.8241 -2.82992 0
M  V30 2557 H 243.414 -2.174 -3.64024 0
M  V30 2558 C 241.873 -0.729848 -3.28899 0
M  V30 2559 O 242.403 0.0949217 -4.01588 0
M  V30 2560 N 240.609 -0.561283 -2.85128 0
M  V30 2561 H 240.156 -1.23357 -2.26143 0
M  V30 2562 H 240.114 0.2595 -3.13327 0
M  V30 2563 N 243.887 0.651787 -1.4349 0
M  V30 2564 C 245.115 1.43937 -1.48626 0
M  V30 2565 C 245.53 1.8851 -0.104587 0
M  V30 2566 O 244.887 1.5958 0.885464 0
M  V30 2567 C 244.938 2.6734 -2.43334 0
M  V30 2568 O 244.659 2.24631 -3.76128 0
M  V30 2569 C 246.16 3.60683 -2.57726 0
M  V30 2570 H 243.38 0.44213 -0.504739 0
M  V30 2571 H 245.924 0.798944 -1.88248 0
M  V30 2572 H 244.079 3.2752 -2.06904 0
M  V30 2573 H 244.493 3.04485 -4.2707 0
M  V30 2574 H 245.967 4.43933 -3.28067 0
M  V30 2575 H 246.444 4.08126 -1.62265 0
M  V30 2576 H 247.05 3.06384 -2.94973 0
M  V30 2577 N 245.365 1.30045 0.890287 0
M  V30 2578 C 246.328 1.15963 1.977 0
M  V30 2579 C 247.328 0.0923777 1.60534 0
M  V30 2580 O 248.518 0.340071 1.70848 0
M  V30 2581 C 245.65 0.775451 3.31963 0
M  V30 2582 H 246.843 2.12502 2.11619 0
M  V30 2583 H 244.396 1.13366 1.07601 0
M  V30 2584 H 245.131 -0.189671 3.23745 0
M  V30 2585 H 244.916 1.54668 3.60306 0
M  V30 2586 H 246.406 0.700251 4.11687 0
M  V30 2587 N 246.843 -1.10192 1.12674 0
M  V30 2588 C 248.068 -1.86523 0.906853 0
M  V30 2589 C 248.493 -1.80221 -0.538711 0
M  V30 2590 O 247.851 -1.17396 -1.38158 0
M  V30 2591 C 247.899 -3.32758 1.3894 0
M  V30 2592 O 247.003 -4.08449 0.5695 0
M  V30 2593 H 246.344 -0.578678 0.325619 0
M  V30 2594 H 248.874 -1.39203 1.49946 0
M  V30 2595 H 248.884 -3.83608 1.38958 0
M  V30 2596 H 247.559 -3.36661 2.44197 0
M  V30 2597 H 246.136 -3.67427 0.636528 0
M  V30 2598 N 248.321 -0.919034 -1.28029 0
M  V30 2599 C 249.732 -0.600735 -1.76771 0
M  V30 2600 C 250.083 0.884024 -1.75156 0
M  V30 2601 O 249.208 1.69163 -1.34956 0
M  V30 2602 C 249.803 -1.08372 -3.21 0
M  V30 2603 C 248.362 -0.816248 -3.67443 0
M  V30 2604 C 247.509 -1.24742 -2.47658 0
M  V30 2605 H 250.46 -1.09974 -1.14418 0
M  V30 2606 H 250.481 -0.427512 -3.78091 0
M  V30 2607 H 249.993 -2.16437 -3.22144 0
M  V30 2608 H 248.094 0.250968 -3.71754 0
M  V30 2609 H 248.207 -1.4277 -4.57333 0
M  V30 2610 H 246.571 -0.666083 -2.45836 0
M  V30 2611 H 247.354 -2.33653 -2.51518 0
M  V30 2612 N 249.799 1.42003 -0.683588 0
M  V30 2613 C 250.709 2.34597 -0.0109075 0
M  V30 2614 C 251.725 1.55576 0.779245 0
M  V30 2615 O 252.901 1.88107 0.719555 0
M  V30 2616 C 249.966 3.34199 0.922588 0
M  V30 2617 C 249.027 4.29115 0.125984 0
M  V30 2618 C 248.26 5.23959 1.01502 0
M  V30 2619 O 248.483 5.23952 2.25456 0
M  V30 2620 O 247.417 6.00053 0.47111 0
M  V30 2621 H 251.243 2.93675 -0.773853 0
M  V30 2622 H 248.828 1.42654 -0.443861 0
M  V30 2623 H 250.71 3.95365 1.45823 0
M  V30 2624 H 249.385 2.77582 1.66523 0
M  V30 2625 H 248.292 3.71335 -0.453969 0
M  V30 2626 H 249.625 4.88798 -0.577736 0
M  V30 2627 N 251.277 0.427512 1.51691 0
M  V30 2628 C 252.524 -0.142229 2.02 0
M  V30 2629 C 252.852 -1.43566 1.31221 0
M  V30 2630 O 252.107 -1.91298 0.412744 0
M  V30 2631 C 252.406 -0.418249 3.54944 0
M  V30 2632 C 252.072 0.788187 4.43958 0
M  V30 2633 C 250.734 1.11906 4.68007 0
M  V30 2634 C 253.086 1.59347 4.96244 0
M  V30 2635 C 250.414 2.25608 5.41588 0
M  V30 2636 C 252.766 2.7214 5.71072 0
M  V30 2637 C 251.43 3.05692 5.93387 0
M  V30 2638 H 250.7 -0.0520451 0.73917 0
M  V30 2639 H 253.347 0.572697 1.82736 0
M  V30 2640 H 251.652 -1.21496 3.72486 0
M  V30 2641 H 253.349 -0.872339 3.91397 0
M  V30 2642 H 249.939 0.520344 4.2543 0
M  V30 2643 H 254.123 1.35106 4.77556 0
M  V30 2644 H 249.379 2.51929 5.57083 0
M  V30 2645 H 253.553 3.34914 6.10578 0
M  V30 2646 H 251.18 3.9391 6.50184 0
M  V30 2647 N 252.755 -1.56801 0.158532 0
M  V30 2648 C 253.718 -2.16138 -0.762705 0
M  V30 2649 C 254.718 -1.1061 -1.16713 0
M  V30 2650 O 255.908 -1.36191 -1.08617 0
M  V30 2651 C 253.04 -2.73386 -2.03649 0
M  V30 2652 H 254.233 -2.98886 -0.246354 0
M  V30 2653 H 251.786 -1.56035 -0.0909744 0
M  V30 2654 H 252.521 -1.94335 -2.59623 0
M  V30 2655 H 252.306 -3.50601 -1.75559 0
M  V30 2656 H 253.796 -3.19065 -2.6942 0
M  V30 2657 N 254.233 0.115231 -1.57178 0
M  V30 2658 C 255.18 1.14115 -2.00615 0
M  V30 2659 C 256.15 1.40939 -0.878941 0
M  V30 2660 O 257.335 1.52741 -1.14345 0
M  V30 2661 C 254.475 2.46156 -2.4187 0
M  V30 2662 C 253.588 2.26236 -3.68024 0
M  V30 2663 C 252.723 3.51534 -3.98243 0
M  V30 2664 C 251.762 3.26787 -5.17568 0
M  V30 2665 N 250.899 4.44298 -5.43639 0
M  V30 2666 H 255.739 0.763743 -2.88047 0
M  V30 2667 H 253.276 0.365615 -1.42484 0
M  V30 2668 H 255.234 3.23189 -2.63827 0
M  V30 2669 H 253.864 2.81783 -1.57475 0
M  V30 2670 H 252.916 1.40102 -3.5366 0
M  V30 2671 H 254.228 2.03929 -4.55208 0
M  V30 2672 H 253.382 4.36984 -4.20868 0
M  V30 2673 H 252.121 3.76876 -3.09541 0
M  V30 2674 H 251.126 2.39729 -4.94783 0
M  V30 2675 H 252.351 3.02812 -6.0785 0
M  V30 2676 H 250.297 4.69754 -4.57895 0
M  V30 2677 H 250.214 4.25109 -6.25154 0
M  V30 2678 H 251.482 5.3087 -5.70786 0
M  V30 2679 N 255.711 1.52812 0.385517 0
M  V30 2680 C 256.959 1.67694 1.12797 0
M  V30 2681 C 257.28 0.421115 1.90399 0
M  V30 2682 O 256.55 -0.564551 1.87589 0
M  V30 2683 H 255.13 0.618155 0.419396 0
M  V30 2684 H 257.792 1.89938 0.436972 0
M  V30 2685 H 256.888 2.52896 1.82894 0
M  V30 2686 N 257.189 -0.644168 1.43834 0
M  V30 2687 C 258.136 -1.75671 1.49694 0
M  V30 2688 C 259.106 -1.6246 0.345809 0
M  V30 2689 O 260.291 -1.82573 0.554234 0
M  V30 2690 C 257.431 -3.13867 1.43463 0
M  V30 2691 C 256.544 -3.38147 2.6885 0
M  V30 2692 C 255.679 -4.66241 2.54544 0
M  V30 2693 C 254.718 -4.83657 3.75157 0
M  V30 2694 N 253.855 -6.03016 3.59605 0
M  V30 2695 H 258.695 -1.69998 2.44754 0
M  V30 2696 H 256.232 -0.829458 1.21484 0
M  V30 2697 H 258.19 -3.9377 1.37843 0
M  V30 2698 H 256.82 -3.18588 0.519783 0
M  V30 2699 H 255.872 -2.52276 2.84712 0
M  V30 2700 H 257.184 -3.46899 3.58417 0
M  V30 2701 H 256.338 -5.54285 2.46683 0
M  V30 2702 H 255.077 -4.59826 1.62516 0
M  V30 2703 H 254.082 -3.94046 3.83416 0
M  V30 2704 H 255.307 -4.91896 4.68204 0
M  V30 2705 H 253.253 -5.97715 2.7032 0
M  V30 2706 H 253.17 -6.12766 4.42779 0
M  V30 2707 H 254.438 -6.93657 3.55613 0
M  V30 2708 N 258.668 -1.30515 -0.883378 0
M  V30 2709 C 260.079 -1.17509 -1.45081 0
M  V30 2710 C 260.43 0.223605 -1.94922 0
M  V30 2711 O 259.555 1.12041 -1.85137 0
M  V30 2712 C 260.15 -2.12715 -2.63701 0
M  V30 2713 C 258.709 -2.03682 -3.16529 0
M  V30 2714 C 257.856 -2.02706 -1.89224 0
M  V30 2715 H 260.807 -1.42762 -0.693165 0
M  V30 2716 H 260.828 -1.70891 -3.39965 0
M  V30 2717 H 260.34 -3.14505 -2.27395 0
M  V30 2718 H 258.441 -1.05039 -3.57488 0
M  V30 2719 H 258.554 -2.92146 -3.7972 0
M  V30 2720 H 256.918 -1.4753 -2.07622 0
M  V30 2721 H 257.701 -3.06229 -1.55174 0
M  V30 2722 N 260.146 1.09593 -1.13257 0
M  V30 2723 C 261.056 2.19739 -0.821691 0
M  V30 2724 C 262.072 1.72926 0.19302 0
M  V30 2725 O 263.248 2.01385 0.0244895 0
M  V30 2726 C 260.313 3.45482 -0.290333 0
M  V30 2727 C 259.374 4.06985 -1.36607 0
M  V30 2728 C 258.607 5.26726 -0.859975 0
M  V30 2729 O 258.83 5.69594 0.303082 0
M  V30 2730 O 257.764 5.7931 -1.63351 0
M  V30 2731 H 261.59 2.48781 -1.74189 0
M  V30 2732 H 259.175 1.18496 -0.909894 0
M  V30 2733 H 261.057 4.214 0.000674022 0
M  V30 2734 H 259.732 3.18047 0.602306 0
M  V30 2735 H 258.639 3.32712 -1.71037 0
M  V30 2736 H 259.972 4.38643 -2.23279 0
M  V30 2737 N 261.624 0.925811 1.2754 0
M  V30 2738 C 262.554 0.440748 2.29303 0
M  V30 2739 C 263.535 -0.497971 1.62648 0
M  V30 2740 O 264.72 -0.403126 1.8997 0
M  V30 2741 C 261.85 -0.309048 3.45922 0
M  V30 2742 C 260.804 0.54166 4.24559 0
M  V30 2743 C 260.13 -0.337191 5.33636 0
M  V30 2744 C 261.43 1.80516 4.90114 0
M  V30 2745 H 263.124 1.29121 2.70126 0
M  V30 2746 H 260.67 0.622323 1.29858 0
M  V30 2747 H 262.623 -0.659315 4.1621 0
M  V30 2748 H 261.347 -1.19352 3.04011 0
M  V30 2749 H 260.006 0.874609 3.56014 0
M  V30 2750 H 259.654 -1.22056 4.87966 0
M  V30 2751 H 259.354 0.228497 5.87156 0
M  V30 2752 H 260.878 -0.683072 6.06767 0
M  V30 2753 H 262.292 1.52307 5.52698 0
M  V30 2754 H 260.689 2.3142 5.53683 0
M  V30 2755 H 261.759 2.52581 4.13921 0
M  V30 2756 N 263.102 -1.41638 0.69111 0
M  V30 2757 C 264.33 -2.05628 0.22909 0
M  V30 2758 C 264.745 -1.51992 -1.11999 0
M  V30 2759 O 264.102 -0.666322 -1.69901 0
M  V30 2760 C 264.153 -3.61084 0.173283 0
M  V30 2761 O 263.874 -4.12735 1.46907 0
M  V30 2762 C 265.375 -4.42213 -0.310266 0
M  V30 2763 H 262.595 -0.662327 0.107534 0
M  V30 2764 H 265.139 -1.81489 0.942438 0
M  V30 2765 H 263.294 -3.84278 -0.490858 0
M  V30 2766 H 263.708 -5.06743 1.35322 0
M  V30 2767 H 265.182 -5.51194 -0.298196 0
M  V30 2768 H 265.659 -4.1799 -1.34838 0
M  V30 2769 H 266.265 -4.24074 0.322716 0
M  V30 2770 N 264.58 -0.43555 -1.51462 0
M  V30 2771 C 265.51 0.367376 -2.30592 0
M  V30 2772 C 266.491 1.02263 -1.35928 0
M  V30 2773 O 267.676 1.02661 -1.64847 0
M  V30 2774 C 264.806 1.46983 -3.14664 0
M  V30 2775 C 263.76 0.938161 -4.17591 0
M  V30 2776 C 263.086 2.13622 -4.90173 0
M  V30 2777 C 264.386 -0.0261621 -5.22293 0
M  V30 2778 H 266.08 -0.292969 -2.97963 0
M  V30 2779 H 263.626 -0.14234 -1.43295 0
M  V30 2780 H 265.579 2.03873 -3.688 0
M  V30 2781 H 264.303 2.15843 -2.4511 0
M  V30 2782 H 262.962 0.391481 -3.64504 0
M  V30 2783 H 262.61 2.81098 -4.17124 0
M  V30 2784 H 262.31 1.78688 -5.59772 0
M  V30 2785 H 263.834 2.7107 -5.47132 0
M  V30 2786 H 265.248 0.452384 -5.71512 0
M  V30 2787 H 263.645 -0.287992 -5.99409 0
M  V30 2788 H 264.715 -0.963391 -4.75233 0
M  V30 2789 N 266.058 1.56714 -0.166846 0
M  V30 2790 C 267.283 2.01557 0.488833 0
M  V30 2791 C 267.708 1.0463 1.56314 0
M  V30 2792 O 267.066 0.0251304 1.81283 0
M  V30 2793 C 267.114 3.4503 1.04818 0
M  V30 2794 O 266.218 3.51163 2.16236 0
M  V30 2795 H 265.559 0.653516 0.117526 0
M  V30 2796 H 268.089 2.02818 -0.269421 0
M  V30 2797 H 268.099 3.84243 1.37191 0
M  V30 2798 H 266.774 4.15077 0.261572 0
M  V30 2799 H 265.351 3.23807 1.84942 0
M  V30 2800 N 267.536 -0.106894 1.57237 0
M  V30 2801 C 268.952 -0.46078 1.52804 0
M  V30 2802 C 269.152 -1.81184 0.881746 0
M  V30 2803 O 268.208 -2.48102 0.469224 0
M  V30 2804 C 269.521 -0.434127 2.9755 0
M  V30 2805 C 271.069 -0.516821 3.08704 0
M  V30 2806 C 271.544 -0.520436 4.55033 0
M  V30 2807 N 273.035 -0.58153 4.59535 0
M  V30 2808 C 273.77 -0.605973 5.70189 0
M  V30 2809 N 273.266 -0.587331 6.90306 0
M  V30 2810 N 275.059 -0.649895 5.5833 0
M  V30 2811 H 267.21 0.778203 1.9763 0
M  V30 2812 H 269.473 0.288403 0.903066 0
M  V30 2813 H 269.179 0.491197 3.48253 0
M  V30 2814 H 269.053 -1.25748 3.55622 0
M  V30 2815 H 271.44 -1.43256 2.57995 0
M  V30 2816 H 271.521 0.334449 2.53604 0
M  V30 2817 H 271.165 0.391313 5.0639 0
M  V30 2818 H 271.095 -1.38876 5.07958 0
M  V30 2819 H 273.586 -0.60161 3.73081 0
M  V30 2820 H 273.899 -0.60894 7.70397 0
M  V30 2821 H 272.244 -0.554564 6.92784 0
M  V30 2822 H 275.435 -0.661907 4.63397 0
M  V30 2823 H 275.608 -0.665476 6.44574 0
M  V30 2824 N 269.014 -1.53014 -0.377408 0
M  V30 2825 C 270.425 -1.60438 -0.954798 0
M  V30 2826 C 270.776 -0.464418 -1.90624 0
M  V30 2827 O 269.901 0.41087 -2.12464 0
M  V30 2828 C 270.496 -2.90797 -1.73847 0
M  V30 2829 C 269.055 -3.00595 -2.26538 0
M  V30 2830 C 268.202 -2.55645 -1.07429 0
M  V30 2831 H 271.153 -1.57926 -0.156575 0
M  V30 2832 H 271.174 -2.77935 -2.5987 0
M  V30 2833 H 270.686 -3.73746 -1.04574 0
M  V30 2834 H 268.787 -2.22208 -2.99089 0
M  V30 2835 H 268.9 -4.05456 -2.5523 0
M  V30 2836 H 267.264 -2.10239 -1.43777 0
M  V30 2837 H 268.047 -3.41 -0.396728 0
M  V30 2838 N 270.492 0.636531 -1.44174 0
M  V30 2839 C 271.722 1.42146 -1.49927 0
M  V30 2840 C 272.13 1.88812 -0.121063 0
M  V30 2841 O 271.473 1.61126 0.882267 0
M  V30 2842 C 271.535 2.67883 -2.39748 0
M  V30 2843 C 271.199 2.43048 -3.8701 0
M  V30 2844 C 272.196 2.05216 -4.77684 0
M  V30 2845 C 269.881 2.56856 -4.3166 0
M  V30 2846 C 271.875 1.81512 -6.11009 0
M  V30 2847 C 269.562 2.32766 -5.65034 0
M  V30 2848 C 270.56 1.95152 -6.54526 0
M  V30 2849 O 270.248 1.71326 -7.85431 0
M  V30 2850 H 269.98 0.442567 -0.51099 0
M  V30 2851 H 272.534 0.786158 -1.8976 0
M  V30 2852 H 270.764 3.34032 -1.94832 0
M  V30 2853 H 272.453 3.29874 -2.36513 0
M  V30 2854 H 273.219 1.94111 -4.44462 0
M  V30 2855 H 269.098 2.85104 -3.62266 0
M  V30 2856 H 272.642 1.52077 -6.80822 0
M  V30 2857 H 268.539 2.43479 -5.97819 0
M  V30 2858 H 269.307 1.85616 -7.97176 0
M  V30 2859 N 271.97 1.30982 0.876444 0
M  V30 2860 C 272.933 1.18054 1.96459 0
M  V30 2861 C 273.933 0.109399 1.60427 0
M  V30 2862 O 275.123 0.358173 1.70478 0
M  V30 2863 C 272.255 0.810616 3.31122 0
M  V30 2864 H 273.448 2.14735 2.09354 0
M  V30 2865 H 271.001 1.145 1.06392 0
M  V30 2866 H 271.736 -0.155322 3.23928 0
M  V30 2867 H 271.521 1.58481 3.58645 0
M  V30 2868 H 273.011 0.743876 4.10921 0
M  V30 2869 N 273.449 -1.08991 1.13837 0
M  V30 2870 C 274.412 -2.13925 0.822715 0
M  V30 2871 C 275.412 -1.599 -0.1699 0
M  V30 2872 O 276.602 -1.74104 0.0577251 0
M  V30 2873 C 273.734 -3.40155 0.225318 0
M  V30 2874 H 274.927 -2.43358 1.75262 0
M  V30 2875 H 272.48 -1.24603 0.943594 0
M  V30 2876 H 273.215 -3.16352 -0.713594 0
M  V30 2877 H 273 -3.80661 0.940193 0
M  V30 2878 H 274.49 -4.17594 0.0214784 0
M  V30 2879 N 274.927 -0.932562 -1.27047 0
M  V30 2880 C 276.343 -0.633544 -1.46487 0
M  V30 2881 C 276.543 0.815746 -1.84249 0
M  V30 2882 O 275.599 1.59319 -1.95892 0
M  V30 2883 C 276.912 -1.58758 -2.55375 0
M  V30 2884 C 278.46 -1.59634 -2.69232 0
M  V30 2885 C 278.935 -2.53747 -3.81283 0
M  V30 2886 N 280.426 -2.51982 -3.88664 0
M  V30 2887 C 281.161 -3.21491 -4.74796 0
M  V30 2888 N 280.657 -4.00395 -5.65381 0
M  V30 2889 N 282.45 -3.10485 -4.68568 0
M  V30 2890 H 274.601 -1.86946 -1.00821 0
M  V30 2891 H 276.864 -0.802897 -0.504044 0
M  V30 2892 H 276.57 -2.62172 -2.34432 0
M  V30 2893 H 276.444 -1.33301 -3.52861 0
M  V30 2894 H 278.831 -0.569488 -2.89553 0
M  V30 2895 H 278.912 -1.89142 -1.72218 0
M  V30 2896 H 278.556 -3.56545 -3.61715 0
M  V30 2897 H 278.486 -2.21532 -4.77735 0
M  V30 2898 H 280.977 -1.94681 -3.23895 0
M  V30 2899 H 281.29 -4.50406 -6.27976 0
M  V30 2900 H 279.635 -4.04498 -5.65161 0
M  V30 2901 H 282.826 -2.48331 -3.96799 0
M  V30 2902 H 282.999 -3.64925 -5.35475 0
M  V30 2903 N 276.405 1.4127 -0.698611 0
M  V30 2904 C 277.368 2.29158 -0.044132 0
M  V30 2905 C 278.368 1.44529 0.704841 0
M  V30 2906 O 279.558 1.65643 0.539276 0
M  V30 2907 C 276.69 3.27459 0.947809 0
M  V30 2908 H 277.883 2.88529 -0.817994 0
M  V30 2909 H 275.436 1.49307 -0.46228 0
M  V30 2910 H 276.171 2.73073 1.74933 0
M  V30 2911 H 275.956 3.8991 0.41385 0
M  V30 2912 H 277.446 3.93311 1.40344 0
M  V30 2913 N 277.883 0.443576 1.51229 0
M  V30 2914 C 278.816 -0.410089 2.24485 0
M  V30 2915 C 279.794 -1.01949 1.26669 0
M  V30 2916 O 280.978 -1.06075 1.55821 0
M  V30 2917 C 278.105 -1.57211 3.00004 0
M  V30 2918 C 277.151 -1.08279 4.12526 0
M  V30 2919 S 277.984 -0.0197476 5.35496 0
M  V30 2920 C 279.14 -1.18629 6.14555 0
M  V30 2921 H 279.373 0.211832 2.96544 0
M  V30 2922 H 276.906 0.228156 1.52705 0
M  V30 2923 H 278.864 -2.23825 3.44111 0
M  V30 2924 H 277.525 -2.16547 2.27522 0
M  V30 2925 H 276.718 -1.95193 4.64667 0
M  V30 2926 H 276.32 -0.494797 3.70713 0
M  V30 2927 H 278.612 -2.10344 6.4402 0
M  V30 2928 H 279.555 -0.70472 7.04584 0
M  V30 2929 H 279.963 -1.42768 5.46148 0
M  V30 2930 N 279.361 -1.56624 0.175154 0
M  V30 2931 C 280.271 -2.21741 -0.766042 0
M  V30 2932 C 281.287 -1.21023 -1.25018 0
M  V30 2933 O 282.463 -1.53697 -1.3015 0
M  V30 2934 C 279.528 -2.84839 -1.97655 0
M  V30 2935 C 278.589 -4.00769 -1.53892 0
M  V30 2936 C 277.822 -4.60849 -2.69173 0
M  V30 2937 O 278.045 -4.19823 -3.86141 0
M  V30 2938 O 276.979 -5.50655 -2.43028 0
M  V30 2939 H 280.805 -3.02738 -0.241585 0
M  V30 2940 H 278.39 -1.49305 -0.053222 0
M  V30 2941 H 280.272 -3.24834 -2.68442 0
M  V30 2942 H 278.947 -2.06836 -2.48999 0
M  V30 2943 H 277.854 -3.65436 -0.80044 0
M  V30 2944 H 279.187 -4.80376 -1.07236 0
M  V30 2945 N 280.839 0.0985539 -1.57292 0
M  V30 2946 C 281.802 1.10402 -2.00858 0
M  V30 2947 C 282.802 1.33146 -0.901593 0
M  V30 2948 O 283.992 1.29318 -1.16716 0
M  V30 2949 C 281.124 2.45394 -2.36632 0
M  V30 2950 H 282.317 0.729099 -2.90902 0
M  V30 2951 H 279.87 0.343495 -1.52479 0
M  V30 2952 H 280.605 2.87769 -1.49531 0
M  V30 2953 H 280.39 2.30235 -3.17387 0
M  V30 2954 H 281.88 3.17718 -2.71007 0
M  V30 2955 N 282.317 1.53212 0.369288 0
M  V30 2956 C 283.566 1.68436 1.10961 0
M  V30 2957 C 283.879 0.440738 1.9057 0
M  V30 2958 O 285.085 0.473446 2.6734 0
M  V30 2959 C 283.541 2.97744 2.0218 0
M  V30 2960 C 283.149 4.29355 1.279 0
M  V30 2961 C 284.893 3.22334 2.76226 0
M  V30 2962 C 282.8 5.49755 2.17999 0
M  V30 2963 H 281.73 0.627568 0.41794 0
M  V30 2964 H 284.381 1.79713 0.370884 0
M  V30 2965 H 282.763 2.8026 2.79768 0
M  V30 2966 H 283.937 4.57458 0.554007 0
M  V30 2967 H 282.252 4.11179 0.657311 0
M  V30 2968 H 284.849 4.09471 3.43857 0
M  V30 2969 H 285.192 2.38238 3.41392 0
M  V30 2970 H 285.725 3.40475 2.05723 0
M  V30 2971 H 282.464 6.36318 1.57417 0
M  V30 2972 H 281.984 5.25937 2.88359 0
M  V30 2973 H 283.663 5.84401 2.77641 0
M  V30 2974 N 283.795 -0.628877 1.44509 0
M  V30 2975 C 285.043 -1.38565 1.4712 0
M  V30 2976 C 285.364 -1.94712 0.105899 0
M  V30 2977 O 284.634 -1.75912 -0.862079 0
M  V30 2978 H 283.214 -0.514333 0.541729 0
M  V30 2979 H 285.876 -0.740018 1.80305 0
M  V30 2980 H 284.972 -2.21583 2.19789 0
M  V30 2981 N 285.273 -1.31445 -0.869486 0
M  V30 2982 C 286.22 -1.19135 -1.97675 0
M  V30 2983 C 287.19 -0.0770266 -1.65921 0
M  V30 2984 O 288.375 -0.249972 -1.89155 0
M  V30 2985 C 285.515 -0.905149 -3.33018 0
M  V30 2986 C 284.628 -2.10285 -3.77365 0
M  V30 2987 C 283.763 -1.75339 -5.01427 0
M  V30 2988 C 282.802 -2.91515 -5.38224 0
M  V30 2989 N 281.939 -2.56762 -6.53466 0
M  V30 2990 H 286.779 -2.13853 -2.07535 0
M  V30 2991 H 284.316 -1.06379 -1.01597 0
M  V30 2992 H 286.274 -0.719765 -4.10944 0
M  V30 2993 H 284.904 0.00519624 -3.228 0
M  V30 2994 H 283.956 -2.39899 -2.95216 0
M  V30 2995 H 285.268 -2.97237 -4.00564 0
M  V30 2996 H 284.422 -1.53266 -5.87022 0
M  V30 2997 H 283.161 -0.855801 -4.80133 0
M  V30 2998 H 282.166 -3.14237 -4.51149 0
M  V30 2999 H 283.391 -3.81985 -5.61484 0
M  V30 3000 H 281.337 -1.69526 -6.33717 0
M  V30 3001 H 281.254 -3.37243 -6.76612 0
M  V30 3002 H 282.522 -2.38083 -7.42251 0
M  V30 3003 N 286.751 1.08385 -1.14413 0
M  V30 3004 C 288.162 1.62258 -0.923535 0
M  V30 3005 C 288.513 1.88691 0.537595 0
M  V30 3006 O 287.638 1.64454 1.40655 0
M  V30 3007 C 288.233 2.94781 -1.67002 0
M  V30 3008 C 286.792 3.45437 -1.495 0
M  V30 3009 C 285.939 2.19668 -1.69238 0
M  V30 3010 H 288.89 0.916086 -1.2959 0
M  V30 3011 H 288.911 3.63229 -1.13334 0
M  V30 3012 H 288.423 2.7551 -2.73342 0
M  V30 3013 H 286.524 3.6981 -0.455097 0
M  V30 3014 H 286.637 4.22173 -2.2651 0
M  V30 3015 H 285.001 2.28849 -1.11804 0
M  V30 3016 H 285.784 2.02905 -2.7692 0
M  V30 3017 N 288.23 0.939286 1.26551 0
M  V30 3018 C 289.477 0.585847 1.9384 0
M  V30 3019 C 289.805 -0.874784 1.73718 0
M  V30 3020 O 289.06 -1.64092 1.06642 0
M  V30 3021 C 289.359 0.872106 3.46596 0
M  V30 3022 C 289.025 2.31632 3.86856 0
M  V30 3023 C 287.687 2.71111 3.97558 0
M  V30 3024 C 290.039 3.25494 4.07066 0
M  V30 3025 C 287.367 4.03553 4.25866 0
M  V30 3026 C 289.719 4.57531 4.36862 0
M  V30 3027 C 288.383 4.96828 4.45778 0
M  V30 3028 H 287.653 0.214377 0.709312 0
M  V30 3029 H 290.3 1.18544 1.50398 0
M  V30 3030 H 288.605 0.18996 3.91339 0
M  V30 3031 H 290.302 0.577442 3.96821 0
M  V30 3032 H 286.892 2.00008 3.79071 0
M  V30 3033 H 291.076 2.9619 3.98227 0
M  V30 3034 H 286.332 4.33665 4.30981 0
M  V30 3035 H 290.506 5.30254 4.51446 0
M  V30 3036 H 288.133 5.99482 4.67468 0
M  V30 3037 N 289.708 -1.40897 0.706093 0
M  V30 3038 C 290.618 -2.3455 0.0482286 0
M  V30 3039 C 291.634 -1.56796 -0.754396 0
M  V30 3040 O 292.81 -1.89228 -0.689538 0
M  V30 3041 C 289.875 -3.35625 -0.869303 0
M  V30 3042 C 288.936 -4.29261 -0.0576994 0
M  V30 3043 C 288.169 -5.25508 -0.931531 0
M  V30 3044 O 288.392 -5.27472 -2.17092 0
M  V30 3045 O 287.326 -6.00727 -0.375587 0
M  V30 3046 H 291.152 -2.92407 0.820476 0
M  V30 3047 H 288.737 -1.4193 0.4665 0
M  V30 3048 H 290.619 -3.97635 -1.39514 0
M  V30 3049 H 289.294 -2.80196 -1.62086 0
M  V30 3050 H 288.201 -3.70566 0.512988 0
M  V30 3051 H 289.534 -4.87817 0.655426 0
M  V30 3052 N 291.186 -0.45159 -1.50991 0
M  V30 3053 C 292.133 0.352625 -2.2809 0
M  V30 3054 C 293.103 1.0044 -1.32291 0
M  V30 3055 O 294.288 1.02058 -1.6121 0
M  V30 3056 C 291.428 1.43983 -3.13629 0
M  V30 3057 C 290.541 0.804772 -4.24438 0
M  V30 3058 C 289.676 1.86822 -4.97263 0
M  V30 3059 C 288.715 1.21236 -5.99973 0
M  V30 3060 N 287.852 2.2178 -6.66152 0
M  V30 3061 H 292.692 -0.311186 -2.96371 0
M  V30 3062 H 290.229 -0.165308 -1.46168 0
M  V30 3063 H 292.187 2.08161 -3.61559 0
M  V30 3064 H 290.817 2.07307 -2.47434 0
M  V30 3065 H 289.869 0.0509129 -3.80366 0
M  V30 3066 H 291.181 0.286076 -4.97979 0
M  V30 3067 H 290.335 2.58628 -5.48813 0
M  V30 3068 H 289.074 2.42068 -4.23385 0
M  V30 3069 H 288.079 0.479828 -5.47702 0
M  V30 3070 H 289.304 0.667051 -6.75816 0
M  V30 3071 H 287.25 2.76079 -5.95077 0
M  V30 3072 H 287.167 1.74841 -7.35504 0
M  V30 3073 H 288.435 2.93026 -7.22327 0
M  V30 3074 N 292.664 1.56529 -0.183458 0
M  V30 3075 C 293.627 2.17324 0.728223 0
M  V30 3076 C 294.627 1.12453 1.14939 0
M  V30 3077 O 295.817 1.37902 1.06437 0
M  V30 3078 C 292.949 2.76591 1.99274 0
M  V30 3079 H 294.142 2.99241 0.198772 0
M  V30 3080 H 291.695 1.5616 0.0661391 0
M  V30 3081 H 292.43 1.98441 2.56499 0
M  V30 3082 H 292.215 3.5335 1.69959 0
M  V30 3083 H 293.705 3.23311 2.6431 0
M  V30 3084 N 294.142 -0.090211 1.57342 0
M  V30 3085 C 295.39 -0.791241 1.85967 0
M  V30 3086 C 295.711 -1.7903 0.772859 0
M  V30 3087 O 294.981 -1.94872 -0.200398 0
M  V30 3088 H 293.561 -0.295205 0.686195 0
M  V30 3089 H 296.223 -0.0706782 1.94772 0
M  V30 3090 H 295.319 -1.31882 2.82867 0
M  V30 3091 N 295.62 -1.53406 -0.361157 0
M  V30 3092 C 297.036 -1.43277 -0.703124 0
M  V30 3093 C 297.236 -0.575384 -1.9311 0
M  V30 3094 O 296.292 -0.0595362 -2.5243 0
M  V30 3095 C 297.605 -2.8653 -0.9122 0
M  V30 3096 C 299.153 -2.96191 -1.01193 0
M  V30 3097 C 299.628 -4.40514 -1.25345 0
M  V30 3098 N 301.119 -4.43962 -1.32105 0
M  V30 3099 C 301.854 -5.52746 -1.5251 0
M  V30 3100 N 301.35 -6.71567 -1.70203 0
M  V30 3101 N 303.143 -5.40331 -1.54916 0
M  V30 3102 H 295.294 -2.07654 0.446475 0
M  V30 3103 H 297.557 -0.937944 0.137715 0
M  V30 3104 H 297.263 -3.51605 -0.0816414 0
M  V30 3105 H 297.137 -3.30441 -1.81903 0
M  V30 3106 H 299.524 -2.31266 -1.83303 0
M  V30 3107 H 299.605 -2.55667 -0.0823929 0
M  V30 3108 H 299.249 -5.06014 -0.437346 0
M  V30 3109 H 299.179 -4.78614 -2.19627 0
M  V30 3110 H 301.67 -3.58332 -1.20028 0
M  V30 3111 H 301.983 -7.50241 -1.85359 0
M  V30 3112 H 300.328 -6.74545 -1.67373 0
M  V30 3113 H 303.519 -4.46465 -1.40663 0
M  V30 3114 H 303.692 -6.25173 -1.70477 0
M  V30 3115 N 297.098 0.621204 -1.44841 0
M  V30 3116 C 298.345 1.38055 -1.48145 0
M  V30 3117 C 298.673 1.94143 -0.117867 0
M  V30 3118 O 297.928 1.74713 0.881694 0
M  V30 3119 C 298.227 2.55675 -2.4973 0
M  V30 3120 C 297.893 2.17817 -3.94799 0
M  V30 3121 C 296.555 2.07205 -4.34303 0
M  V30 3122 C 298.907 1.88065 -4.86087 0
M  V30 3123 C 296.235 1.65045 -5.63007 0
M  V30 3124 C 298.587 1.47394 -6.15189 0
M  V30 3125 C 297.251 1.35331 -6.53637 0
M  V30 3126 H 296.521 0.505181 -0.542101 0
M  V30 3127 H 299.168 0.703477 -1.78111 0
M  V30 3128 H 297.473 3.2866 -2.13284 0
M  V30 3129 H 299.17 3.13904 -2.4953 0
M  V30 3130 H 295.76 2.26998 -3.63552 0
M  V30 3131 H 299.944 1.95168 -4.56315 0
M  V30 3132 H 295.2 1.54317 -5.91605 0
M  V30 3133 H 299.374 1.23415 -6.85377 0
M  V30 3134 H 297.001 1.02435 -7.53267 0
M  V30 3135 N 298.576 1.31904 0.862503 0
M  V30 3136 C 299.853 1.12644 1.59908 0
M  V30 3137 C 300.233 -0.316104 2.0872 0
M  V30 3138 O 299.581 -1.31145 1.87118 0
M  V30 3139 C 299.791 2.1472 2.7513 0
M  V30 3140 C 301.139 2.47637 3.44907 0
M  V30 3141 O 302.163 2.13205 2.85346 0
M  V30 3142 O 301.022 3.06632 4.52371 0
M  V30 3143 H 298.116 0.43416 0.703871 0
M  V30 3144 H 300.662 1.43408 0.907314 0
M  V30 3145 H 299.434 3.1172 2.3653 0
M  V30 3146 H 299.057 1.84905 3.51989 0
M  V30 3147 N 300.054 -1.07777 1.14986 0
M  V30 3148 C 300.986 -2.14769 0.800436 0
M  V30 3149 C 301.999 -1.61739 -0.185595 0
M  V30 3150 O 303.188 -1.78462 0.0370358 0
M  V30 3151 C 300.288 -3.38481 0.168533 0
M  V30 3152 C 299.461 -4.20876 1.1909 0
M  V30 3153 C 298.52 -5.22976 0.581575 0
M  V30 3154 O 297.546 -5.55388 1.24633 0
M  V30 3155 N 298.748 -5.76976 -0.638706 0
M  V30 3156 H 301.513 -2.45348 1.72118 0
M  V30 3157 H 299.074 -1.23645 1.04515 0
M  V30 3158 H 301.066 -4.03916 -0.251764 0
M  V30 3159 H 299.636 -3.05651 -0.655467 0
M  V30 3160 H 298.856 -3.51322 1.78791 0
M  V30 3161 H 300.144 -4.7274 1.88133 0
M  V30 3162 H 299.542 -5.52886 -1.19723 0
M  V30 3163 H 298.099 -6.44061 -1.00142 0
M  V30 3164 N 301.532 -0.945985 -1.26051 0
M  V30 3165 C 302.464 -0.416662 -2.25381 0
M  V30 3166 C 303.477 0.462712 -1.56086 0
M  V30 3167 O 304.666 0.272383 -1.7641 0
M  V30 3168 C 301.766 0.419812 -3.3629 0
M  V30 3169 C 300.939 -0.444531 -4.35135 0
M  V30 3170 C 299.998 0.332305 -5.2515 0
M  V30 3171 O 299.024 -0.266324 -5.68577 0
M  V30 3172 N 300.226 1.62763 -5.57215 0
M  V30 3173 H 302.991 -1.27059 -2.71433 0
M  V30 3174 H 300.552 -0.815392 -1.39868 0
M  V30 3175 H 302.544 0.947013 -3.93464 0
M  V30 3176 H 301.114 1.17456 -2.89694 0
M  V30 3177 H 300.334 -1.15291 -3.76964 0
M  V30 3178 H 301.622 -1.03478 -4.98166 0
M  V30 3179 H 301.02 2.13603 -5.23823 0
M  V30 3180 H 299.577 2.10097 -6.17011 0
M  V30 3181 N 303.011 1.40521 -0.713556 0
M  V30 3182 C 304.236 2.05759 -0.26035 0
M  V30 3183 C 304.661 1.53403 1.08854 0
M  V30 3184 O 304.019 0.668535 1.68524 0
M  V30 3185 C 304.067 3.59745 -0.248122 0
M  V30 3186 O 303.171 4.05123 0.77131 0
M  V30 3187 H 302.512 0.652564 -0.122703 0
M  V30 3188 H 305.042 1.79958 -0.973467 0
M  V30 3189 H 305.052 4.07911 -0.0851129 0
M  V30 3190 H 303.727 3.97218 -1.2325 0
M  V30 3191 H 302.304 3.68422 0.57619 0
M  V30 3192 N 304.489 0.459591 1.5075 0
M  V30 3193 C 305.422 -0.386257 2.24907 0
M  V30 3194 C 306.4 -1.006 1.27744 0
M  V30 3195 O 307.584 -1.04416 1.56938 0
M  V30 3196 C 304.711 -1.54021 3.01654 0
M  V30 3197 C 303.757 -1.03898 4.13651 0
M  V30 3198 S 304.59 0.0370501 5.35487 0
M  V30 3199 C 305.746 -1.12105 6.15779 0
M  V30 3200 H 305.979 0.243272 2.96303 0
M  V30 3201 H 303.512 0.244339 1.52454 0
M  V30 3202 H 305.47 -2.20163 3.46466 0
M  V30 3203 H 304.131 -2.14121 2.29806 0
M  V30 3204 H 303.324 -1.90254 4.66711 0
M  V30 3205 H 302.926 -0.45545 3.71216 0
M  V30 3206 H 305.218 -2.03501 6.46215 0
M  V30 3207 H 306.161 -0.62995 7.05292 0
M  V30 3208 H 306.569 -1.36967 5.47631 0
M  V30 3209 N 305.967 -1.56429 0.191757 0
M  V30 3210 C 307.213 -1.97777 -0.448554 0
M  V30 3211 C 307.546 -1.07847 -1.61501 0
M  V30 3212 O 306.821 -0.129774 -1.94067 0
M  V30 3213 C 307.104 -3.48362 -0.911906 0
M  V30 3214 C 306.957 -4.4907 0.256136 0
M  V30 3215 C 308.276 -4.02561 -1.77857 0
M  V30 3216 H 305.395 -0.719071 -0.161572 0
M  V30 3217 H 308.037 -1.87896 0.282007 0
M  V30 3218 H 306.187 -3.56914 -1.53442 0
M  V30 3219 H 307.859 -4.5256 0.893733 0
M  V30 3220 H 306.102 -4.24181 0.908436 0
M  V30 3221 H 306.773 -5.51889 -0.11053 0
M  V30 3222 H 309.249 -3.96767 -1.25359 0
M  V30 3223 H 308.125 -5.08301 -2.07174 0
M  V30 3224 H 308.386 -3.47616 -2.73158 0
M  V30 3225 N 307.445 0.0818655 -1.57387 0
M  V30 3226 C 308.685 0.788375 -1.88584 0
M  V30 3227 C 309.049 1.75248 -0.784351 0
M  V30 3228 O 310.25 2.50334 -0.979105 0
M  V30 3229 C 308.521 1.48654 -3.25018 0
M  V30 3230 S 310.08 2.22951 -3.7794 0
M  V30 3231 H 306.898 0.262383 -0.660815 0
M  V30 3232 H 309.5 0.0448995 -1.95448 0
M  V30 3233 H 308.204 0.770919 -4.03094 0
M  V30 3234 H 307.735 2.26965 -3.21326 0
M  V30 3235 H 309.75 3.49309 -3.52417 0
M  V30 3236 N 308.923 1.53595 0.353017 0
M  V30 3237 C 310.171 1.70049 1.09215 0
M  V30 3238 C 310.492 0.461406 1.89463 0
M  V30 3239 O 309.762 -0.524633 1.88744 0
M  V30 3240 H 308.342 0.626912 0.40619 0
M  V30 3241 H 311.004 1.90822 0.396585 0
M  V30 3242 H 310.1 2.56718 1.77488 0
M  V30 3243 N 310.401 -0.613514 1.45168 0
M  V30 3244 C 311.333 -1.73825 1.4939 0
M  V30 3245 C 312.346 -1.58175 0.385304 0
M  V30 3246 O 313.535 -1.66165 0.652036 0
M  V30 3247 C 310.635 -3.11758 1.32891 0
M  V30 3248 C 309.808 -3.53704 2.57317 0
M  V30 3249 C 308.867 -4.70579 2.35462 0
M  V30 3250 O 307.893 -4.77996 3.09044 0
M  V30 3251 N 309.095 -5.63454 1.39644 0
M  V30 3252 H 311.86 -1.70669 2.46358 0
M  V30 3253 H 309.421 -0.79862 1.40832 0
M  V30 3254 H 311.413 -3.87692 1.1609 0
M  V30 3255 H 309.983 -3.09456 0.442218 0
M  V30 3256 H 309.203 -2.67794 2.89275 0
M  V30 3257 H 310.491 -3.78486 3.40038 0
M  V30 3258 H 309.889 -5.6017 0.789062 0
M  V30 3259 H 308.446 -6.38944 1.28816 0
M  V30 3260 N 311.879 -1.3236 -0.855495 0
M  V30 3261 C 313.119 -1.24187 -1.62348 0
M  V30 3262 C 313.483 0.193597 -1.91021 0
M  V30 3263 O 314.684 0.39904 -2.65822 0
M  V30 3264 C 312.955 -2.07661 -2.90881 0
M  V30 3265 S 314.514 -2.16505 -3.81669 0
M  V30 3266 H 311.332 -0.442076 -0.556857 0
M  V30 3267 H 313.934 -1.67198 -1.01317 0
M  V30 3268 H 312.638 -3.11018 -2.67761 0
M  V30 3269 H 312.169 -1.65425 -3.56929 0
M  V30 3270 H 314.184 -1.31394 -4.78487 0
M  V30 3271 N 313.357 1.07166 -1.15556 0
M  V30 3272 C 314.307 2.12649 -0.82247 0
M  V30 3273 C 315.291 1.59725 0.194129 0
M  V30 3274 O 316.483 1.76999 -0.00540402 0
M  V30 3275 C 313.612 3.41847 -0.315572 0
M  V30 3276 C 312.698 4.0162 -1.36244 0
M  V30 3277 N 313.089 4.35625 -2.5703 0
M  V30 3278 C 311.387 4.29114 -1.21562 0
M  V30 3279 C 312.088 4.83017 -3.24144 0
M  V30 3280 N 311.064 4.81906 -2.51531 0
M  V30 3281 H 314.866 2.36776 -1.74111 0
M  V30 3282 H 312.38 1.24622 -1.0413 0
M  V30 3283 H 314.377 4.16859 -0.0585855 0
M  V30 3284 H 313.037 3.19163 0.597105 0
M  V30 3285 H 314.048 4.26253 -2.94158 0
M  V30 3286 H 310.725 4.15919 -0.362988 0
M  V30 3287 H 312.115 5.18605 -4.27198 0
M  V30 3288 N 314.835 0.952656 1.25548 0
M  V30 3289 C 316.081 0.607272 1.93494 0
M  V30 3290 C 316.414 -0.853245 1.74452 0
M  V30 3291 O 315.689 -1.61194 1.08843 0
M  V30 3292 C 315.972 0.96435 3.46947 0
M  V30 3293 C 315.825 2.48045 3.75225 0
M  V30 3294 C 317.144 0.487987 4.37386 0
M  V30 3295 H 314.263 0.222096 0.702739 0
M  V30 3296 H 316.905 1.18895 1.48203 0
M  V30 3297 H 315.055 0.469361 3.85654 0
M  V30 3298 H 316.727 3.04905 3.46166 0
M  V30 3299 H 314.97 2.919 3.209 0
M  V30 3300 H 315.641 2.6808 4.82532 0
M  V30 3301 H 318.117 0.912558 4.0597 0
M  V30 3302 H 316.993 0.766547 5.43521 0
M  V30 3303 H 317.254 -0.612063 4.37843 0
M  V30 3304 N 316.313 -1.40141 0.720998 0
M  V30 3305 C 317.223 -2.34486 0.0731031 0
M  V30 3306 C 318.239 -1.57587 -0.737723 0
M  V30 3307 O 319.415 -1.89949 -0.669429 0
M  V30 3308 C 316.48 -3.36528 -0.833656 0
M  V30 3309 C 315.541 -4.29298 -0.0121673 0
M  V30 3310 C 314.774 -5.26466 -0.875742 0
M  V30 3311 O 314.997 -5.29745 -2.11485 0
M  V30 3312 O 313.931 -6.01092 -0.31185 0
M  V30 3313 H 317.757 -2.9152 0.851444 0
M  V30 3314 H 315.342 -1.41427 0.481527 0
M  V30 3315 H 317.224 -3.99093 -1.35289 0
M  V30 3316 H 315.899 -2.81899 -1.59105 0
M  V30 3317 H 314.806 -3.70001 0.552262 0
M  V30 3318 H 316.139 -4.87094 0.707129 0
M  V30 3319 N 317.792 -0.46758 -1.50504 0
M  V30 3320 C 319.022 0.086288 -2.0642 0
M  V30 3321 C 319.43 1.34369 -1.33197 0
M  V30 3322 O 318.773 1.79431 -0.393747 0
M  V30 3323 C 318.835 0.443846 -3.5675 0
M  V30 3324 C 318.499 -0.711035 -4.51435 0
M  V30 3325 C 319.496 -1.59205 -4.94924 0
M  V30 3326 C 317.181 -0.900363 -4.94165 0
M  V30 3327 C 319.175 -2.64683 -5.79846 0
M  V30 3328 C 316.862 -1.95837 -5.7887 0
M  V30 3329 C 317.86 -2.82997 -6.21612 0
M  V30 3330 O 317.548 -3.86977 -7.0463 0
M  V30 3331 H 317.28 -0.00217814 -0.675996 0
M  V30 3332 H 319.834 -0.654346 -1.94698 0
M  V30 3333 H 318.064 1.23762 -3.6636 0
M  V30 3334 H 319.753 0.932386 -3.95046 0
M  V30 3335 H 320.519 -1.45745 -4.62583 0
M  V30 3336 H 316.398 -0.231427 -4.60419 0
M  V30 3337 H 319.942 -3.32745 -6.13128 0
M  V30 3338 H 315.839 -2.09305 -6.10624 0
M  V30 3339 H 316.607 -3.83923 -7.22873 0
M  V30 3340 N 319.27 1.56325 -0.20005 0
M  V30 3341 C 320.5 2.01811 0.442232 0
M  V30 3342 C 320.908 1.07932 1.55394 0
M  V30 3343 O 320.251 0.0772685 1.83537 0
M  V30 3344 C 320.313 3.43685 1.05457 0
M  V30 3345 C 319.977 4.56928 0.0809833 0
M  V30 3346 C 320.974 5.15009 -0.711471 0
M  V30 3347 C 318.659 5.0229 -0.0315364 0
M  V30 3348 C 320.653 6.16904 -1.60336 0
M  V30 3349 C 318.34 6.04028 -0.926981 0
M  V30 3350 C 319.338 6.6121 -1.71146 0
M  V30 3351 O 319.026 7.60971 -2.59189 0
M  V30 3352 H 318.758 0.666173 0.114848 0
M  V30 3353 H 321.312 2.03085 -0.307511 0
M  V30 3354 H 319.542 3.39413 1.85299 0
M  V30 3355 H 321.231 3.72948 1.60201 0
M  V30 3356 H 321.997 4.80827 -0.634873 0
M  V30 3357 H 317.876 4.57476 0.568902 0
M  V30 3358 H 321.42 6.61464 -2.21611 0
M  V30 3359 H 317.317 6.37634 -1.00468 0
M  V30 3360 H 318.085 7.7841 -2.53023 0
M  V30 3361 N 320.748 -0.0735177 1.57428 0
M  V30 3362 C 321.995 -0.772999 1.87166 0
M  V30 3363 C 322.323 -1.77665 0.791551 0
M  V30 3364 O 321.578 -1.94541 -0.212636 0
M  V30 3365 C 321.877 -1.51799 3.23561 0
M  V30 3366 C 321.543 -0.654484 4.46125 0
M  V30 3367 C 320.205 -0.416511 4.79394 0
M  V30 3368 C 322.557 -0.0555862 5.2117 0
M  V30 3369 C 319.885 0.429869 5.85123 0
M  V30 3370 C 322.237 0.778239 6.27795 0
M  V30 3371 C 320.901 1.0261 6.59566 0
M  V30 3372 H 320.171 -0.282861 0.684888 0
M  V30 3373 H 322.818 -0.0338272 1.9147 0
M  V30 3374 H 321.123 -2.32932 3.1504 0
M  V30 3375 H 322.82 -2.06397 3.43804 0
M  V30 3376 H 319.41 -0.850091 4.20085 0
M  V30 3377 H 323.594 -0.226558 4.95783 0
M  V30 3378 H 318.85 0.630665 6.08139 0
M  V30 3379 H 323.024 1.24906 6.85107 0
M  V30 3380 H 320.651 1.68371 7.4132 0
M  V30 3381 N 322.226 -1.5378 -0.344866 0
M  V30 3382 C 323.503 -1.61589 -1.10219 0
M  V30 3383 C 323.883 -0.436316 -2.06542 0
M  V30 3384 O 323.231 0.571543 -2.21237 0
M  V30 3385 C 323.441 -2.97602 -1.82301 0
M  V30 3386 C 324.789 -3.5291 -2.36093 0
M  V30 3387 O 325.813 -2.99768 -1.924 0
M  V30 3388 O 324.672 -4.45859 -3.16026 0
M  V30 3389 H 321.766 -0.653522 -0.506792 0
M  V30 3390 H 324.312 -1.66126 -0.346465 0
M  V30 3391 H 323.084 -3.74893 -1.12121 0
M  V30 3392 H 322.707 -2.9665 -2.64735 0
M  V30 3393 N 323.704 0.605807 -1.45491 0
M  V30 3394 C 324.952 1.36207 -1.49305 0
M  V30 3395 C 325.273 1.94519 -0.136863 0
M  V30 3396 O 324.543 1.77261 0.833983 0
M  V30 3397 H 323.123 0.50565 -0.549843 0
M  V30 3398 H 325.785 0.711239 -1.81459 0
M  V30 3399 H 324.881 2.18058 -2.23287 0
M  V30 3400 N 325.182 1.32811 0.848464 0
M  V30 3401 C 326.129 1.22265 1.95755 0
M  V30 3402 C 327.099 0.103413 1.65778 0
M  V30 3403 O 328.284 0.280033 1.88734 0
M  V30 3404 C 325.424 0.958014 3.31536 0
M  V30 3405 C 324.537 2.16262 3.73971 0
M  V30 3406 C 323.672 1.83295 4.98575 0
M  V30 3407 C 322.711 3.00041 5.33518 0
M  V30 3408 N 321.848 2.67125 6.49299 0
M  V30 3409 H 326.688 2.17128 2.04107 0
M  V30 3410 H 324.225 1.07982 0.998913 0
M  V30 3411 H 326.183 0.785052 4.09747 0
M  V30 3412 H 324.813 0.046159 3.22767 0
M  V30 3413 H 323.865 2.44565 2.91362 0
M  V30 3414 H 325.177 3.03572 3.95785 0
M  V30 3415 H 324.331 1.62586 5.84509 0
M  V30 3416 H 323.07 0.932078 4.7871 0
M  V30 3417 H 322.075 3.21374 4.46093 0
M  V30 3418 H 323.3 3.90869 5.55336 0
M  V30 3419 H 321.246 1.79586 6.3094 0
M  V30 3420 H 321.163 3.47965 6.71161 0
M  V30 3421 H 322.431 2.49861 7.3837 0
M  V30 3422 N 326.66 -1.06551 1.16123 0
M  V30 3423 C 327.608 -2.16063 0.861371 0
M  V30 3424 C 328.602 -1.6856 -0.168517 0
M  V30 3425 O 329.808 -1.79986 -0.0227579 0
M  V30 3426 H 326.183 -0.705278 0.260934 0
M  V30 3427 H 328.154 -2.38567 1.79244 0
M  V30 3428 C 326.903 -3.45661 0.376018 0
M  V30 3429 H 326.226 -3.82604 1.15992 0
M  V30 3430 H 327.666 -4.23504 0.204951 0
M  V30 3431 C 326.125 -3.24546 -0.903954 0
M  V30 3432 O 326.655 -3.49865 -1.97377 0
M  V30 3433 N 324.861 -2.77992 -0.846679 0
M  V30 3434 H 324.408 -2.57589 0.0241017 0
M  V30 3435 H 324.366 -2.64244 -1.70359 0
M  V30 3436 N 328.138 -0.959301 -1.25041 0
M  V30 3437 C 329.085 -0.482057 -2.2571 0
M  V30 3438 C 330.055 0.467939 -1.59372 0
M  V30 3439 O 331.24 0.380159 -1.86974 0
M  V30 3440 C 328.38 0.229623 -3.44335 0
M  V30 3441 C 327.493 -0.758156 -4.25295 0
M  V30 3442 C 326.628 -0.0234403 -5.31195 0
M  V30 3443 C 325.667 -1.00184 -6.03846 0
M  V30 3444 N 324.804 -0.29769 -7.01469 0
M  V30 3445 H 329.644 -1.34538 -2.65901 0
M  V30 3446 H 327.181 -0.674592 -1.3072 0
M  V30 3447 H 329.139 0.658856 -4.11965 0
M  V30 3448 H 327.769 1.05696 -3.05005 0
M  V30 3449 H 326.821 -1.30586 -3.57284 0
M  V30 3450 H 328.133 -1.50458 -4.75567 0
M  V30 3451 H 327.287 0.464201 -6.04922 0
M  V30 3452 H 326.026 0.755741 -4.81809 0
M  V30 3453 H 325.031 -1.50044 -5.2893 0
M  V30 3454 H 326.256 -1.78133 -6.55321 0
M  V30 3455 H 324.202 0.462668 -6.54366 0
M  V30 3456 H 324.119 -0.983128 -7.4958 0
M  V30 3457 H 325.387 0.16826 -7.79318 0
M  V30 3458 N 329.616 1.39756 -0.72842 0
M  V30 3459 C 330.579 2.29012 -0.0927297 0
M  V30 3460 C 331.579 1.45992 0.674025 0
M  V30 3461 O 332.769 1.66749 0.50402 0
M  V30 3462 C 329.901 3.29396 0.878137 0
M  V30 3463 H 331.094 2.86729 -0.879011 0
M  V30 3464 H 328.647 1.48293 -0.493847 0
M  V30 3465 H 329.382 2.76722 1.69101 0
M  V30 3466 H 329.167 3.907 0.331051 0
M  V30 3467 H 330.657 3.96199 1.3197 0
M  V30 3468 N 331.094 0.475555 1.50254 0
M  V30 3469 C 332.34 -0.0780073 2.0265 0
M  V30 3470 C 332.673 -1.38968 1.35652 0
M  V30 3471 O 331.948 -1.8839 0.483691 0
M  V30 3472 C 332.231 -0.257161 3.59181 0
M  V30 3473 C 332.084 1.07585 4.36744 0
M  V30 3474 C 333.403 -1.00965 4.28362 0
M  V30 3475 H 330.522 -0.0268758 0.73651 0
M  V30 3476 H 333.164 0.622015 1.7953 0
M  V30 3477 H 331.314 -0.853412 3.79011 0
M  V30 3478 H 332.986 1.70902 4.28474 0
M  V30 3479 H 331.229 1.6714 4.00308 0
M  V30 3480 H 331.9 0.904088 5.44546 0
M  V30 3481 H 334.376 -0.504214 4.13034 0
M  V30 3482 H 333.252 -1.10381 5.37687 0
M  V30 3483 H 333.513 -2.04731 3.91839 0
M  V30 3484 N 332.573 -1.56217 0.208337 0
M  V30 3485 C 333.52 -2.19699 -0.707192 0
M  V30 3486 C 334.49 -1.14836 -1.20008 0
M  V30 3487 O 335.675 -1.4314 -1.26157 0
M  V30 3488 C 332.815 -2.87061 -1.91546 0
M  V30 3489 C 331.928 -4.06483 -1.46271 0
M  V30 3490 C 331.063 -4.61665 -2.62752 0
M  V30 3491 C 330.102 -5.73417 -2.14147 0
M  V30 3492 N 329.239 -6.22948 -3.23853 0
M  V30 3493 H 334.079 -2.97575 -0.159111 0
M  V30 3494 H 331.616 -1.46948 -0.0667874 0
M  V30 3495 H 333.574 -3.24294 -2.62468 0
M  V30 3496 H 332.204 -2.11725 -2.43664 0
M  V30 3497 H 331.256 -3.74825 -0.648886 0
M  V30 3498 H 332.568 -4.87271 -1.06622 0
M  V30 3499 H 331.722 -5.01272 -3.41776 0
M  V30 3500 H 330.461 -3.80013 -3.05682 0
M  V30 3501 H 329.466 -5.33326 -1.33581 0
M  V30 3502 H 330.691 -6.56897 -1.72232 0
M  V30 3503 H 328.637 -5.44213 -3.6629 0
M  V30 3504 H 328.554 -6.98823 -2.88414 0
M  V30 3505 H 329.822 -6.6721 -4.03052 0
M  V30 3506 N 334.051 0.0651679 -1.57465 0
M  V30 3507 C 335.298 0.763063 -1.87573 0
M  V30 3508 C 335.626 1.77242 -0.800961 0
M  V30 3509 O 334.881 1.94651 0.202316 0
M  V30 3510 C 335.18 1.50081 -3.24362 0
M  V30 3511 C 334.846 0.630816 -4.46466 0
M  V30 3512 C 333.508 0.391082 -4.79608 0
M  V30 3513 C 335.86 0.0279465 -5.21193 0
M  V30 3514 C 333.188 -0.460894 -5.84887 0
M  V30 3515 C 335.54 -0.811522 -6.27373 0
M  V30 3516 C 334.204 -1.06106 -6.59013 0
M  V30 3517 H 333.474 0.279224 -0.686378 0
M  V30 3518 H 336.121 0.0236726 -1.91485 0
M  V30 3519 H 334.426 2.31258 -3.16271 0
M  V30 3520 H 336.123 2.04571 -3.44894 0
M  V30 3521 H 332.713 0.8278 -4.2053 0
M  V30 3522 H 336.897 0.200262 -4.95896 0
M  V30 3523 H 332.153 -0.662907 -6.07796 0
M  V30 3524 H 336.327 -1.28537 -6.84435 0
M  V30 3525 H 333.954 -1.723 -7.40417 0
M  V30 3526 N 335.529 1.53961 0.336706 0
M  V30 3527 C 336.94 1.62914 0.911925 0
M  V30 3528 C 337.291 0.514795 1.89326 0
M  V30 3529 O 336.416 -0.354395 2.13478 0
M  V30 3530 C 337.011 2.95304 1.66076 0
M  V30 3531 C 335.57 3.06496 2.18489 0
M  V30 3532 C 334.717 2.58403 1.00613 0
M  V30 3533 H 337.668 1.58285 0.114649 0
M  V30 3534 H 337.689 2.84727 2.5241 0
M  V30 3535 H 337.201 3.76387 0.946276 0
M  V30 3536 H 335.302 2.3006 2.93092 0
M  V30 3537 H 335.415 4.1208 2.44391 0
M  V30 3538 H 333.779 2.13977 1.38152 0
M  V30 3539 H 334.562 3.41932 0.306179 0
M  V30 3540 N 337.007 -0.598083 1.45811 0
M  V30 3541 C 338.253 -1.35679 1.51535 0
M  V30 3542 C 338.608 -1.91745 0.15864 0
M  V30 3543 O 337.901 -1.72654 -0.830724 0
M  V30 3544 C 338.095 -2.51669 2.53766 0
M  V30 3545 C 337.924 -2.06963 3.99245 0
M  V30 3546 C 336.694 -1.92693 4.67116 0
M  V30 3547 C 338.892 -1.63855 4.875 0
M  V30 3548 N 336.874 -1.41897 5.97276 0
M  V30 3549 C 338.245 -1.24541 6.07363 0
M  V30 3550 C 340.3 -1.51533 4.74281 0
M  V30 3551 C 339.003 -0.741354 7.15469 0
M  V30 3552 C 341.029 -1.0253 5.82444 0
M  V30 3553 C 340.391 -0.641869 7.01469 0
M  V30 3554 H 336.49 -0.490042 0.609412 0
M  V30 3555 H 339.074 -0.682687 1.82339 0
M  V30 3556 H 337.245 -3.16663 2.24898 0
M  V30 3557 H 338.977 -3.18578 2.4958 0
M  V30 3558 H 335.732 -2.1417 4.22408 0
M  V30 3559 H 336.156 -1.18704 6.66512 0
M  V30 3560 H 340.798 -1.798 3.82664 0
M  V30 3561 H 338.516 -0.446243 8.06867 0
M  V30 3562 H 342.102 -0.934088 5.74253 0
M  V30 3563 H 340.982 -0.268531 7.8374 0
M  V30 3564 N 338.485 -1.33259 -0.841409 0
M  V30 3565 C 339.762 -1.15174 -1.58096 0
M  V30 3566 C 340.142 0.282858 -2.09196 0
M  V30 3567 O 339.49 1.28151 -1.89181 0
M  V30 3568 C 339.7 -2.1907 -2.71679 0
M  V30 3569 C 341.048 -2.53093 -3.40924 0
M  V30 3570 O 342.072 -2.17717 -2.81918 0
M  V30 3571 O 340.931 -3.1379 -4.47435 0
M  V30 3572 H 338.025 -0.445303 -0.696875 0
M  V30 3573 H 340.571 -1.44833 -0.884385 0
M  V30 3574 H 339.343 -3.15443 -2.31541 0
M  V30 3575 H 338.966 -1.90481 -3.49002 0
M  V30 3576 N 339.963 1.05934 -1.16686 0
M  V30 3577 C 341.24 1.75643 -0.860747 0
M  V30 3578 C 341.62 2.01144 0.640641 0
M  V30 3579 O 340.968 1.64147 1.58959 0
M  V30 3580 C 341.178 3.05493 -1.68745 0
M  V30 3581 C 342.526 3.79581 -1.90271 0
M  V30 3582 O 343.55 3.15344 -1.65641 0
M  V30 3583 O 342.409 4.9499 -2.31618 0
M  V30 3584 H 339.503 0.763426 -0.317977 0
M  V30 3585 H 342.049 1.1217 -1.27342 0
M  V30 3586 H 340.821 2.8264 -2.70611 0
M  V30 3587 H 340.444 3.76702 -1.27206 0
M  V30 3588 N 341.441 0.965919 1.2453 0
M  V30 3589 C 342.689 0.625593 1.92174 0
M  V30 3590 C 343.01 -0.841652 1.75901 0
M  V30 3591 O 342.28 -1.60061 1.12948 0
M  V30 3592 H 340.86 0.228388 0.71123 0
M  V30 3593 H 343.522 1.2266 1.51461 0
M  V30 3594 H 342.618 0.864653 2.99884 0
M  V30 3595 N 342.919 -1.39368 0.735821 0
M  V30 3596 C 343.852 -2.28155 0.0451175 0
M  V30 3597 C 344.83 -1.44433 -0.746852 0
M  V30 3598 O 346.014 -1.73823 -0.729237 0
M  V30 3599 C 343.141 -3.253 -0.943266 0
M  V30 3600 C 342.187 -4.25826 -0.239685 0
M  V30 3601 S 343.02 -5.25166 1.04693 0
M  V30 3602 C 344.176 -6.2587 0.0611639 0
M  V30 3603 H 344.409 -2.86388 0.79807 0
M  V30 3604 H 341.942 -1.45104 0.527653 0
M  V30 3605 H 343.9 -3.81789 -1.50824 0
M  V30 3606 H 342.561 -2.66085 -1.66906 0
M  V30 3607 H 341.754 -4.94229 -0.987596 0
M  V30 3608 H 341.356 -3.73141 0.253274 0
M  V30 3609 H 343.648 -6.73007 -0.778941 0
M  V30 3610 H 344.591 -7.04508 0.712362 0
M  V30 3611 H 344.999 -5.63639 -0.311602 0
M  V30 3612 N 344.397 -0.483516 -1.5 0
M  V30 3613 C 345.344 0.304164 -2.28787 0
M  V30 3614 C 346.314 0.976114 -1.34392 0
M  V30 3615 O 347.499 0.986156 -1.63339 0
M  V30 3616 C 344.639 1.37298 -3.16612 0
M  V30 3617 C 343.752 0.714561 -4.26049 0
M  V30 3618 C 342.887 1.76232 -5.01114 0
M  V30 3619 C 341.926 1.08483 -6.0241 0
M  V30 3620 N 341.063 2.076 -6.70706 0
M  V30 3621 H 345.903 -0.373981 -2.95644 0
M  V30 3622 H 343.44 -0.196275 -1.45785 0
M  V30 3623 H 345.398 2.00445 -3.65893 0
M  V30 3624 H 344.028 2.02012 -2.51776 0
M  V30 3625 H 343.08 -0.0297798 -3.80388 0
M  V30 3626 H 344.392 0.180383 -4.98474 0
M  V30 3627 H 343.546 2.46929 -5.54176 0
M  V30 3628 H 342.285 2.33033 -4.28424 0
M  V30 3629 H 341.29 0.363545 -5.48597 0
M  V30 3630 H 342.515 0.523551 -6.77079 0
M  V30 3631 H 340.461 2.63394 -6.00799 0
M  V30 3632 H 340.378 1.59201 -7.39047 0
M  V30 3633 H 341.646 2.77639 -7.2838 0
M  V30 3634 N 345.875 1.56104 -0.216619 0
M  V30 3635 C 347.121 1.98466 0.417033 0
M  V30 3636 C 347.454 1.10403 1.59765 0
M  V30 3637 O 346.729 0.160632 1.93836 0
M  V30 3638 C 347.012 3.49769 0.85637 0
M  V30 3639 C 346.865 4.48606 -0.327546 0
M  V30 3640 C 348.184 4.05339 1.7143 0
M  V30 3641 H 345.303 0.721551 0.150112 0
M  V30 3642 H 347.945 1.87423 -0.311864 0
M  V30 3643 H 346.095 3.5931 1.47745 0
M  V30 3644 H 347.767 4.5108 -0.965618 0
M  V30 3645 H 346.01 4.22682 -0.975805 0
M  V30 3646 H 346.681 5.51995 0.0227149 0
M  V30 3647 H 349.157 3.98712 1.19031 0
M  V30 3648 H 348.033 5.11533 1.99061 0
M  V30 3649 H 348.294 3.51918 2.67593 0
M  V30 3650 N 347.353 -0.0568162 1.57498 0
M  V30 3651 C 348.263 -1.08346 2.08083 0
M  V30 3652 C 349.279 -1.41439 1.01346 0
M  V30 3653 O 350.455 -1.51316 1.32912 0
M  V30 3654 C 347.52 -2.37352 2.52715 0
M  V30 3655 C 346.581 -2.11093 3.73816 0
M  V30 3656 C 345.814 -3.33949 4.1631 0
M  V30 3657 O 346.037 -4.43622 3.58547 0
M  V30 3658 O 344.971 -3.21279 5.08983 0
M  V30 3659 H 348.797 -0.683667 2.95905 0
M  V30 3660 H 346.382 -0.271965 1.46904 0
M  V30 3661 H 348.264 -3.13246 2.81877 0
M  V30 3662 H 346.939 -2.76681 1.68016 0
M  V30 3663 H 345.846 -1.32856 3.49714 0
M  V30 3664 H 347.179 -1.76637 4.59413 0
M  V30 3665 N 348.832 -1.54138 -0.328536 0
M  V30 3666 C 349.78 -1.83894 -1.42428 0
M  V30 3667 C 350.774 -0.710478 -1.53781 0
M  V30 3668 O 351.98 -0.894062 -1.56226 0
M  V30 3669 H 348.355 -0.582837 -0.475189 0
M  V30 3670 H 350.326 -2.75537 -1.14552 0
M  V30 3671 C 349.075 -2.07866 -2.78724 0
M  V30 3672 H 348.398 -2.94158 -2.7076 0
M  V30 3673 H 349.838 -2.32644 -3.54476 0
M  V30 3674 C 348.297 -0.868689 -3.25508 0
M  V30 3675 O 348.827 -0.0754908 -4.01629 0
M  V30 3676 N 347.033 -0.681711 -2.82491 0
M  V30 3677 H 346.58 -1.32838 -2.20708 0
M  V30 3678 H 346.538 0.126374 -3.14146 0
M  V30 3679 N 350.31 0.590341 -1.46126 0
M  V30 3680 C 351.243 1.71434 -1.50617 0
M  V30 3681 C 352.221 1.58543 -0.360948 0
M  V30 3682 O 353.405 1.79865 -0.563985 0
M  V30 3683 C 350.532 3.09422 -1.37753 0
M  V30 3684 C 349.578 3.40854 -2.5636 0
M  V30 3685 S 350.411 3.33773 -4.18755 0
M  V30 3686 C 351.567 4.74312 -4.08386 0
M  V30 3687 H 351.8 1.67364 -2.45717 0
M  V30 3688 H 349.333 0.76845 -1.33919 0
M  V30 3689 H 351.291 3.8903 -1.31018 0
M  V30 3690 H 349.952 3.10989 -0.440949 0
M  V30 3691 H 349.145 4.41368 -2.43332 0
M  V30 3692 H 348.747 2.68798 -2.60046 0
M  V30 3693 H 351.039 5.64522 -3.74595 0
M  V30 3694 H 351.982 4.92397 -5.08872 0
M  V30 3695 H 352.39 4.50803 -3.3976 0
M  V30 3696 N 351.788 1.33704 0.83433 0
M  V30 3697 C 352.698 1.26382 1.97648 0
M  V30 3698 C 353.714 0.173548 1.73132 0
M  V30 3699 O 354.89 0.397962 1.97429 0
M  V30 3700 C 351.955 1.00769 3.31733 0
M  V30 3701 C 351.016 2.1884 3.69334 0
M  V30 3702 C 350.249 1.9444 4.9702 0
M  V30 3703 O 350.472 0.896961 5.63303 0
M  V30 3704 O 349.406 2.81093 5.32231 0
M  V30 3705 H 353.232 2.22444 2.06767 0
M  V30 3706 H 350.817 1.13795 0.968037 0
M  V30 3707 H 352.699 0.882186 4.12062 0
M  V30 3708 H 351.374 0.0773783 3.23608 0
M  V30 3709 H 350.281 2.36946 2.89495 0
M  V30 3710 H 351.614 3.10221 3.82131 0
M  V30 3711 N 353.266 -1.05314 1.17247 0
M  V30 3712 C 354.198 -2.13023 0.845812 0
M  V30 3713 C 355.211 -1.62096 -0.151246 0
M  V30 3714 O 356.4 -1.78343 0.0748818 0
M  V30 3715 C 353.5 -3.38047 0.240292 0
M  V30 3716 C 352.673 -4.18255 1.27991 0
M  V30 3717 C 351.732 -5.21625 0.692375 0
M  V30 3718 O 350.758 -5.52619 1.36385 0
M  V30 3719 N 351.96 -5.78201 -0.516178 0
M  V30 3720 H 354.725 -2.41642 1.77283 0
M  V30 3721 H 352.286 -1.21401 1.07115 0
M  V30 3722 H 354.278 -4.04359 -0.16603 0
M  V30 3723 H 352.848 -3.06972 -0.590487 0
M  V30 3724 H 352.068 -3.47451 1.86203 0
M  V30 3725 H 353.356 -4.68643 1.98119 0
M  V30 3726 H 352.754 -5.55301 -1.07969 0
M  V30 3727 H 351.311 -6.4604 -0.86458 0
M  V30 3728 N 354.744 -0.972509 -1.24016 0
M  V30 3729 C 355.974 -0.653853 -1.9598 0
M  V30 3730 C 356.382 0.781801 -1.72292 0
M  V30 3731 O 355.725 1.53677 -1.00644 0
M  V30 3732 C 355.787 -0.854608 -3.49194 0
M  V30 3733 C 355.451 -2.27082 -3.96589 0
M  V30 3734 C 356.448 -3.24892 -4.05883 0
M  V30 3735 C 354.133 -2.5998 -4.29786 0
M  V30 3736 C 356.127 -4.53684 -4.47716 0
M  V30 3737 C 353.814 -3.88997 -4.71301 0
M  V30 3738 C 354.812 -4.85661 -4.80232 0
M  V30 3739 O 354.5 -6.12376 -5.20818 0
M  V30 3740 H 354.232 -0.242572 -0.630979 0
M  V30 3741 H 356.786 -1.30431 -1.58673 0
M  V30 3742 H 355.016 -0.146985 -3.86421 0
M  V30 3743 H 356.705 -0.534311 -4.02368 0
M  V30 3744 H 357.471 -3.00805 -3.80449 0
M  V30 3745 H 353.35 -1.85457 -4.22051 0
M  V30 3746 H 356.894 -5.29135 -4.54601 0
M  V30 3747 H 352.791 -4.12882 -4.96184 0
M  V30 3748 H 353.559 -6.16013 -5.38953 0
M  V30 3749 N 356.222 1.38976 -0.743202 0
M  V30 3750 C 357.452 2.04339 -0.304807 0
M  V30 3751 C 357.86 1.56162 1.06819 0
M  V30 3752 O 357.203 0.725284 1.68776 0
M  V30 3753 C 357.265 3.58716 -0.237369 0
M  V30 3754 C 356.929 4.29905 -1.55018 0
M  V30 3755 C 357.926 4.55987 -2.49744 0
M  V30 3756 C 355.611 4.68294 -1.81675 0
M  V30 3757 C 357.605 5.19478 -3.69353 0
M  V30 3758 C 355.292 5.31512 -3.0156 0
M  V30 3759 C 356.29 5.57037 -3.9522 0
M  V30 3760 O 355.978 6.18941 -5.12998 0
M  V30 3761 H 355.71 0.663439 -0.12971 0
M  V30 3762 H 358.264 1.78852 -1.01001 0
M  V30 3763 H 356.494 3.83133 0.524003 0
M  V30 3764 H 358.183 4.05543 0.170121 0
M  V30 3765 H 358.949 4.26767 -2.30423 0
M  V30 3766 H 354.828 4.47779 -1.09615 0
M  V30 3767 H 358.372 5.39318 -4.42473 0
M  V30 3768 H 354.269 5.60153 -3.20778 0
M  V30 3769 H 355.037 6.37433 -5.13441 0
M  V30 3770 N 357.7 0.491464 1.49741 0
M  V30 3771 C 358.977 -0.118984 1.95238 0
M  V30 3772 C 359.357 -1.55044 1.43264 0
M  V30 3773 O 358.705 -2.19287 0.642287 0
M  V30 3774 C 358.915 -0.0414187 3.48975 0
M  V30 3775 C 360.263 -0.220133 4.24029 0
M  V30 3776 O 361.287 -0.117055 3.56008 0
M  V30 3777 O 360.146 -0.430567 5.44801 0
M  V30 3778 H 357.24 -0.100536 0.820866 0
M  V30 3779 H 359.786 0.553322 1.60426 0
M  V30 3780 H 358.558 0.957214 3.79412 0
M  V30 3781 H 358.181 -0.754292 3.9038 0
M  V30 3782 N 359.178 -1.55987 0.224894 0
M  V30 3783 C 360.125 -2.20436 -0.68385 0
M  V30 3784 C 361.095 -1.16102 -1.18783 0
M  V30 3785 O 362.28 -1.4447 -1.24632 0
M  V30 3786 C 359.42 -2.89076 -1.88491 0
M  V30 3787 C 358.533 -4.08012 -1.41951 0
M  V30 3788 C 357.668 -4.64426 -2.5784 0
M  V30 3789 C 356.707 -5.75656 -2.08053 0
M  V30 3790 N 355.844 -6.26347 -3.17227 0
M  V30 3791 H 360.684 -2.97727 -0.12754 0
M  V30 3792 H 358.221 -1.47011 -0.0511978 0
M  V30 3793 H 360.179 -3.27059 -2.59014 0
M  V30 3794 H 358.809 -2.14298 -2.41405 0
M  V30 3795 H 357.861 -3.75492 -0.609095 0
M  V30 3796 H 359.173 -4.88375 -1.01447 0
M  V30 3797 H 358.327 -5.04869 -3.3644 0
M  V30 3798 H 357.066 -3.83233 -3.01635 0
M  V30 3799 H 356.071 -5.34712 -1.27916 0
M  V30 3800 H 357.296 -6.58686 -1.65255 0
M  V30 3801 H 355.242 -5.48067 -3.60497 0
M  V30 3802 H 355.159 -7.01843 -2.80986 0
M  V30 3803 H 356.427 -6.71447 -3.95953 0
M  V30 3804 N 360.656 0.0484629 -1.57525 0
M  V30 3805 C 361.905 0.742065 -1.87553 0
M  V30 3806 C 362.218 1.77545 -0.820802 0
M  V30 3807 O 363.424 2.52027 -1.00967 0
M  V30 3808 C 361.88 1.37081 -3.32771 0
M  V30 3809 C 361.488 0.374786 -4.4643 0
M  V30 3810 C 363.232 2.04542 -3.71972 0
M  V30 3811 C 361.139 1.01077 -5.82698 0
M  V30 3812 H 360.069 0.280903 -0.699721 0
M  V30 3813 H 362.72 -0.00411877 -1.835 0
M  V30 3814 H 361.102 2.16605 -3.31509 0
M  V30 3815 H 362.276 -0.392331 -4.59127 0
M  V30 3816 H 360.591 -0.196653 -4.15935 0
M  V30 3817 H 363.188 2.52943 -4.71088 0
M  V30 3818 H 363.531 2.85515 -3.02964 0
M  V30 3819 H 364.064 1.31819 -3.75325 0
M  V30 3820 H 360.803 0.240878 -6.55057 0
M  V30 3821 H 360.323 1.74819 -5.73758 0
M  V30 3822 H 362.002 1.52383 -6.28799 0
M  V30 3823 N 362.134 1.5431 0.320358 0
M  V30 3824 C 363.097 1.83195 1.3774 0
M  V30 3825 C 364.097 0.703906 1.44575 0
M  V30 3826 O 365.287 0.972214 1.44546 0
M  V30 3827 C 362.419 1.99487 2.76438 0
M  V30 3828 H 363.612 2.77642 1.1338 0
M  V30 3829 H 361.165 1.46076 0.556012 0
M  V30 3830 H 361.9 1.07262 3.06048 0
M  V30 3831 H 361.685 2.81575 2.7287 0
M  V30 3832 H 363.175 2.23271 3.52902 0
M  V30 3833 N 363.613 -0.582584 1.46437 0
M  V30 3834 C 364.86 -1.34079 1.51753 0
M  V30 3835 C 365.188 -1.93762 0.169299 0
M  V30 3836 O 364.443 -1.76989 -0.835062 0
M  V30 3837 C 364.742 -2.48964 2.56421 0
M  V30 3838 C 364.408 -2.07273 4.00436 0
M  V30 3839 C 363.07 -1.95618 4.39644 0
M  V30 3840 C 365.422 -1.75111 4.90903 0
M  V30 3841 C 362.75 -1.5006 5.67185 0
M  V30 3842 C 365.102 -1.31032 6.18881 0
M  V30 3843 C 363.766 -1.17954 6.56996 0
M  V30 3844 H 363.036 -0.49063 0.555304 0
M  V30 3845 H 365.683 -0.656007 1.79913 0
M  V30 3846 H 363.988 -3.22889 2.21923 0
M  V30 3847 H 365.685 -3.07178 2.57765 0
M  V30 3848 H 362.275 -2.17279 3.69443 0
M  V30 3849 H 366.459 -1.83001 4.61329 0
M  V30 3850 H 361.715 -1.38577 5.95488 0
M  V30 3851 H 365.889 -1.052 6.88408 0
M  V30 3852 H 363.516 -0.824279 7.55718 0
M  V30 3853 N 365.091 -1.34144 -0.827227 0
M  V30 3854 C 366.316 -1.29476 -1.62021 0
M  V30 3855 C 366.741 0.129292 -1.87655 0
M  V30 3856 O 366.099 1.08967 -1.449 0
M  V30 3857 C 366.147 -2.08702 -2.94068 0
M  V30 3858 O 365.251 -1.45359 -3.85933 0
M  V30 3859 H 364.592 -0.444881 -0.492927 0
M  V30 3860 H 367.122 -1.76882 -1.02829 0
M  V30 3861 H 367.132 -2.19898 -3.43669 0
M  V30 3862 H 365.807 -3.12241 -2.74734 0
M  V30 3863 H 364.384 -1.42879 -3.44442 0
M  V30 3864 N 366.569 1.04691 -1.17803 0
M  V30 3865 C 367.846 1.7472 -0.879328 0
M  V30 3866 C 368.226 2.01812 0.619271 0
M  V30 3867 O 367.574 1.65824 1.57209 0
M  V30 3868 C 367.784 3.03686 -1.71976 0
M  V30 3869 C 369.132 3.77542 -1.94286 0
M  V30 3870 O 370.156 3.13569 -1.68976 0
M  V30 3871 O 369.015 4.92506 -2.36855 0
M  V30 3872 H 366.109 0.760011 -0.326056 0
M  V30 3873 H 368.655 1.10813 -1.28525 0
M  V30 3874 H 367.427 2.79754 -2.73594 0
M  V30 3875 H 367.05 3.75332 -1.31194 0
M  V30 3876 N 368.047 0.979072 1.23499 0
M  V30 3877 C 369.293 0.6578 1.9247 0
M  V30 3878 C 369.648 -0.799746 1.74991 0
M  V30 3879 O 368.941 -1.56922 1.09937 0
M  V30 3880 C 369.135 0.981932 3.43646 0
M  V30 3881 C 368.964 2.46944 3.75831 0
M  V30 3882 C 367.734 3.13119 3.96591 0
M  V30 3883 C 369.932 3.45006 3.81412 0
M  V30 3884 N 367.914 4.51489 4.15969 0
M  V30 3885 C 369.285 4.68778 4.05768 0
M  V30 3886 C 371.34 3.39505 3.64198 0
M  V30 3887 C 370.043 5.87723 4.14697 0
M  V30 3888 C 372.069 4.57814 3.7438 0
M  V30 3889 C 371.431 5.80381 3.99171 0
M  V30 3890 H 367.53 0.291746 0.72554 0
M  V30 3891 H 370.114 1.25626 1.48749 0
M  V30 3892 H 368.285 0.412179 3.86207 0
M  V30 3893 H 370.017 0.618068 3.99953 0
M  V30 3894 H 366.772 2.63619 3.93449 0
M  V30 3895 H 367.196 5.23221 4.29615 0
M  V30 3896 H 371.838 2.45773 3.44029 0
M  V30 3897 H 369.556 6.81874 4.33675 0
M  V30 3898 H 373.142 4.55132 3.62417 0
M  V30 3899 H 372.022 6.70398 4.06861 0
M  V30 3900 N 369.525 -1.3858 0.750561 0
M  V30 3901 C 370.753 -2.04471 0.316098 0
M  V30 3902 C 371.168 -1.56606 -1.05452 0
M  V30 3903 O 370.525 -0.737784 -1.66922 0
M  V30 3904 C 370.576 -3.60025 0.326275 0
M  V30 3905 O 370.297 -4.06133 1.6428 0
M  V30 3906 C 371.798 -4.43131 -0.122429 0
M  V30 3907 H 369.018 -0.65717 0.135528 0
M  V30 3908 H 371.562 -1.77329 1.01857 0
M  V30 3909 H 369.717 -3.86014 -0.327431 0
M  V30 3910 H 370.131 -5.00547 1.56693 0
M  V30 3911 H 371.605 -5.51963 -0.0641473 0
M  V30 3912 H 372.082 -4.23333 -1.16988 0
M  V30 3913 H 372.688 -4.22323 0.50229 0
M  V30 3914 N 371.003 -0.499398 -1.49478 0
M  V30 3915 C 371.951 0.293604 -2.3074 0
M  V30 3916 C 372.945 0.96427 -1.39277 0
M  V30 3917 O 374.151 0.892141 -1.56336 0
M  V30 3918 H 370.526 0.113541 -0.743379 0
M  V30 3919 H 372.497 -0.411772 -2.95545 0
M  V30 3920 C 371.246 1.3462 -3.20582 0
M  V30 3921 H 370.569 0.83954 -3.90886 0
M  V30 3922 H 372.009 1.87308 -3.80384 0
M  V30 3923 C 370.468 2.36351 -2.40083 0
M  V30 3924 O 370.998 3.422 -2.10385 0
M  V30 3925 N 369.204 2.0878 -2.02137 0
M  V30 3926 H 368.751 1.22723 -2.26488 0
M  V30 3927 H 368.709 2.77075 -1.48583 0
M  V30 3928 N 372.481 1.55866 -0.233164 0
M  V30 3929 C 373.706 2.03449 0.402906 0
M  V30 3930 C 374.131 1.11166 1.51736 0
M  V30 3931 O 373.489 0.101996 1.81013 0
M  V30 3932 C 373.537 3.49165 0.9009 0
M  V30 3933 O 372.641 3.60019 2.01147 0
M  V30 3934 H 371.982 0.657913 0.0897025 0
M  V30 3935 H 374.512 2.01493 -0.355201 0
M  V30 3936 H 374.522 3.89716 1.2077 0
M  V30 3937 H 373.197 4.15813 0.0852889 0
M  V30 3938 H 371.774 3.3136 1.71042 0
M  V30 3939 N 373.959 -0.0401083 1.57549 0
M  V30 3940 C 374.889 -1.04384 2.08869 0
M  V30 3941 C 375.87 -1.38407 0.988817 0
M  V30 3942 O 377.055 -1.47483 1.26342 0
M  V30 3943 C 374.185 -2.34808 2.55895 0
M  V30 3944 C 373.139 -2.15057 3.70047 0
M  V30 3945 C 372.465 -3.51145 4.03239 0
M  V30 3946 C 373.765 -1.54576 4.98902 0
M  V30 3947 H 375.459 -0.616666 2.92981 0
M  V30 3948 H 373.005 -0.295184 1.40942 0
M  V30 3949 H 374.958 -3.05346 2.90417 0
M  V30 3950 H 373.682 -2.79565 1.68853 0
M  V30 3951 H 372.341 -1.46954 3.35857 0
M  V30 3952 H 371.989 -3.93529 3.13279 0
M  V30 3953 H 371.689 -3.38758 4.80122 0
M  V30 3954 H 373.213 -4.23062 4.40285 0
M  V30 3955 H 374.627 -2.15017 5.31451 0
M  V30 3956 H 373.024 -1.52796 5.80322 0
M  V30 3957 H 374.094 -0.51039 4.82206 0
M  V30 3958 N 375.437 -1.54477 -0.31217 0
M  V30 3959 C 376.662 -1.77526 -1.07235 0
M  V30 3960 C 377.087 -0.527775 -1.80544 0
M  V30 3961 O 376.445 0.52121 -1.73646 0
M  V30 3962 C 376.493 -2.97535 -2.03728 0
M  V30 3963 O 375.597 -2.69878 -3.11833 0
M  V30 3964 H 374.938 -0.58792 -0.30862 0
M  V30 3965 H 377.468 -2.01532 -0.352993 0
M  V30 3966 H 377.478 -3.25198 -2.46395 0
M  V30 3967 H 376.153 -3.87996 -1.49774 0
M  V30 3968 H 374.73 -2.53199 -2.7376 0
M  V30 3969 N 376.915 0.57481 -1.46744 0
M  V30 3970 C 377.862 1.68329 -1.57905 0
M  V30 3971 C 378.832 1.60625 -0.422927 0
M  V30 3972 O 380.017 1.79721 -0.640711 0
M  V30 3973 C 377.157 3.06665 -1.58274 0
M  V30 3974 C 376.27 3.24935 -2.84678 0
M  V30 3975 C 375.405 4.53566 -2.76499 0
M  V30 3976 C 374.444 4.65207 -3.97806 0
M  V30 3977 N 373.581 5.85172 -3.87967 0
M  V30 3978 H 378.421 1.58127 -2.52587 0
M  V30 3979 H 375.958 0.770552 -1.25303 0
M  V30 3980 H 377.916 3.86745 -1.56473 0
M  V30 3981 H 376.546 3.15745 -0.671194 0
M  V30 3982 H 375.598 2.38405 -2.96424 0
M  V30 3983 H 376.91 3.29403 -3.7456 0
M  V30 3984 H 376.064 5.41885 -2.72848 0
M  V30 3985 H 374.803 4.51548 -1.8427 0
M  V30 3986 H 373.808 3.75304 -4.0178 0
M  V30 3987 H 375.033 4.68997 -4.9114 0
M  V30 3988 H 372.979 5.84137 -2.98529 0
M  V30 3989 H 372.896 5.90943 -4.71511 0
M  V30 3990 H 374.164 6.759 -3.88303 0
M  V30 3991 N 378.394 1.34581 0.820102 0
M  V30 3992 C 379.622 1.3018 1.60813 0
M  V30 3993 C 380.037 -0.123551 1.88395 0
M  V30 3994 O 379.394 -1.07148 1.47735 0
M  V30 3995 C 379.445 2.09312 2.94739 0
M  V30 3996 O 379.166 3.46288 2.68358 0
M  V30 3997 C 380.667 2.1234 3.89136 0
M  V30 3998 H 377.887 0.447726 0.499782 0
M  V30 3999 H 380.431 1.77237 1.02017 0
M  V30 4000 H 378.586 1.65889 3.50085 0
M  V30 4001 H 379 3.87227 3.53774 0
M  V30 4002 H 380.474 2.72126 4.80262 0
M  V30 4003 H 380.951 1.11854 4.24718 0
M  V30 4004 H 381.557 2.55864 3.39726 0
M  V30 4005 N 379.872 -1.04064 1.18357 0
M  V30 4006 C 381.283 -1.58719 0.98312 0
M  V30 4007 C 381.634 -1.90556 -0.467193 0
M  V30 4008 O 380.759 -1.69561 -1.34454 0
M  V30 4009 C 381.354 -2.88379 1.77828 0
M  V30 4010 C 379.913 -3.3965 1.62218 0
M  V30 4011 C 379.06 -2.13235 1.77274 0
M  V30 4012 H 382.011 -0.867359 1.32901 0
M  V30 4013 H 382.032 -3.58773 1.26737 0
M  V30 4014 H 381.544 -2.65176 2.83379 0
M  V30 4015 H 379.645 -3.67866 0.592036 0
M  V30 4016 H 379.758 -4.13475 2.42023 0
M  V30 4017 H 378.122 -2.24542 1.20221 0
M  V30 4018 H 378.905 -1.92487 2.8426 0
M  V30 4019 N 381.35 -0.985608 -1.22978 0
M  V30 4020 C 382.283 -0.47487 -2.23204 0
M  V30 4021 C 383.261 0.460865 -1.55932 0
M  V30 4022 O 384.445 0.388105 -1.84461 0
M  V30 4023 C 381.572 0.312427 -3.37256 0
M  V30 4024 C 380.618 -0.568219 -4.22698 0
M  V30 4025 S 381.451 -2.01919 -4.95973 0
M  V30 4026 C 382.607 -1.24118 -6.1347 0
M  V30 4027 H 382.84 -1.32419 -2.66181 0
M  V30 4028 H 380.373 -0.792005 -1.32539 0
M  V30 4029 H 382.331 0.760645 -4.03391 0
M  V30 4030 H 380.992 1.13693 -2.92801 0
M  V30 4031 H 380.185 0.0371657 -5.03986 0
M  V30 4032 H 379.787 -0.952897 -3.61657 0
M  V30 4033 H 382.079 -0.505121 -6.75614 0
M  V30 4034 H 383.022 -2.02907 -6.78406 0
M  V30 4035 H 383.43 -0.757669 -5.59392 0
M  V30 4036 N 382.828 1.3818 -0.7579 0
M  V30 4037 C 383.758 2.33027 -0.148597 0
M  V30 4038 C 384.739 1.55085 0.69875 0
M  V30 4039 O 385.924 1.83384 0.639053 0
M  V30 4040 C 383.054 3.3928 0.742034 0
M  V30 4041 C 382.008 4.28 -0.00291946 0
M  V30 4042 C 381.334 5.25146 1.00625 0
M  V30 4043 C 382.634 5.08938 -1.17385 0
M  V30 4044 H 384.328 2.84231 -0.940909 0
M  V30 4045 H 381.874 1.36659 -0.453908 0
M  V30 4046 H 383.827 4.046 1.17799 0
M  V30 4047 H 382.551 2.86569 1.56671 0
M  V30 4048 H 381.21 3.64192 -0.419504 0
M  V30 4049 H 380.858 4.68721 1.8251 0
M  V30 4050 H 380.558 5.85361 0.512428 0
M  V30 4051 H 382.082 5.93342 1.44143 0
M  V30 4052 H 383.496 5.67474 -0.815224 0
M  V30 4053 H 381.893 5.7841 -1.59882 0
M  V30 4054 H 382.963 4.42424 -1.98468 0
M  V30 4055 N 384.306 0.507319 1.49211 0
M  V30 4056 C 385.253 -0.267728 2.29242 0
M  V30 4057 C 386.223 -0.954609 1.35928 0
M  V30 4058 O 387.408 -0.960046 1.64887 0
M  V30 4059 C 384.548 -1.32243 3.18756 0
M  V30 4060 C 383.661 -0.64669 4.27132 0
M  V30 4061 C 382.796 -1.68238 5.03855 0
M  V30 4062 C 381.835 -0.98885 6.0406 0
M  V30 4063 N 380.972 -1.96903 6.73924 0
M  V30 4064 H 385.812 0.420968 2.95012 0
M  V30 4065 H 383.349 0.219443 1.45454 0
M  V30 4066 H 385.307 -1.94599 3.69036 0
M  V30 4067 H 383.937 -1.97981 2.54958 0
M  V30 4068 H 382.989 0.0902926 3.80293 0
M  V30 4069 H 384.301 -0.101058 4.98698 0
M  V30 4070 H 383.455 -2.38081 5.58034 0
M  V30 4071 H 382.194 -2.26187 4.32077 0
M  V30 4072 H 381.199 -0.276222 5.49106 0
M  V30 4073 H 382.424 -0.415767 6.77826 0
M  V30 4074 H 380.37 -2.53803 6.04913 0
M  V30 4075 H 380.287 -1.47423 7.41487 0
M  V30 4076 H 381.555 -2.66015 7.32705 0
M  V30 4077 N 385.784 -1.5574 0.241426 0
M  V30 4078 C 386.747 -2.19877 -0.647063 0
M  V30 4079 C 387.747 -1.16642 -1.10686 0
M  V30 4080 O 388.937 -1.41757 -1.01245 0
M  V30 4081 C 386.069 -2.83797 -1.88871 0
M  V30 4082 H 387.262 -2.99772 -0.087574 0
M  V30 4083 H 384.815 -1.56298 -0.00813574 0
M  V30 4084 H 385.55 -2.07824 -2.48957 0
M  V30 4085 H 385.335 -3.59414 -1.56728 0
M  V30 4086 H 386.825 -3.32898 -2.52129 0
M  V30 4087 N 387.262 0.0317525 -1.57568 0
M  V30 4088 C 388.194 1.06073 -2.03178 0
M  V30 4089 C 389.207 1.32627 -0.944132 0
M  V30 4090 O 390.396 1.30162 -1.22148 0
M  V30 4091 C 387.496 2.40297 -2.38978 0
M  V30 4092 C 386.669 2.33137 -3.70089 0
M  V30 4093 C 385.728 3.49787 -3.9311 0
M  V30 4094 O 384.754 3.29403 -4.64201 0
M  V30 4095 N 385.956 4.71562 -3.38541 0
M  V30 4096 H 388.721 0.672006 -2.92069 0
M  V30 4097 H 386.282 0.219745 -1.60402 0
M  V30 4098 H 388.274 3.1705 -2.51518 0
M  V30 4099 H 386.844 2.71024 -1.55771 0
M  V30 4100 H 386.064 1.415 -3.67928 0
M  V30 4101 H 387.352 2.25493 -4.56104 0
M  V30 4102 H 386.75 4.91024 -2.80912 0
M  V30 4103 H 385.307 5.45689 -3.56464 0
M  V30 4104 N 388.74 1.54641 0.303973 0
M  V30 4105 C 389.69 1.8177 1.37636 0
M  V30 4106 C 390.674 0.674697 1.46071 0
M  V30 4107 O 391.866 0.935251 1.50273 0
M  V30 4108 C 388.995 2.06584 2.74186 0
M  V30 4109 C 388.081 3.2706 2.69986 0
M  V30 4110 N 388.472 4.47682 2.35402 0
M  V30 4111 C 386.77 3.29028 3.01092 0
M  V30 4112 C 387.471 5.29689 2.40426 0
M  V30 4113 N 386.447 4.67339 2.7766 0
M  V30 4114 H 390.249 2.72596 1.09857 0
M  V30 4115 H 387.763 1.541 0.51254 0
M  V30 4116 H 389.76 2.24166 3.51504 0
M  V30 4117 H 388.42 1.17024 3.02879 0
M  V30 4118 H 389.431 4.74336 2.07908 0
M  V30 4119 H 386.108 2.49565 3.34699 0
M  V30 4120 H 387.498 6.3606 2.16512 0
M  V30 4121 N 390.218 -0.567019 1.47046 0
M  V30 4122 C 391.629 -1.14916 1.47143 0
M  V30 4123 C 391.98 -1.94954 0.220767 0
M  V30 4124 O 391.105 -2.05602 -0.67505 0
M  V30 4125 C 391.7 -2.09069 2.666 0
M  V30 4126 C 390.259 -2.62575 2.69687 0
M  V30 4127 C 389.406 -1.38755 2.40088 0
M  V30 4128 H 392.357 -0.354126 1.54699 0
M  V30 4129 H 392.378 -2.92789 2.43011 0
M  V30 4130 H 391.89 -1.50789 3.57609 0
M  V30 4131 H 389.991 -3.24681 1.82792 0
M  V30 4132 H 390.104 -3.04239 3.70102 0
M  V30 4133 H 388.468 -1.69098 1.90468 0
M  V30 4134 H 389.251 -0.822822 3.33293 0
M  V30 4135 N 391.696 -1.35014 -0.812953 0
M  V30 4136 C 392.606 -1.2951 -1.95613 0
M  V30 4137 C 393.622 -0.20107 -1.72834 0
M  V30 4138 O 394.798 -0.42932 -1.96771 0
M  V30 4139 C 391.863 -1.06033 -3.30088 0
M  V30 4140 C 390.924 -2.24688 -3.65805 0
M  V30 4141 C 390.157 -2.02322 -4.93864 0
M  V30 4142 O 390.38 -0.986464 -5.61805 0
M  V30 4143 O 389.314 -2.89525 -5.27692 0
M  V30 4144 H 393.14 -2.25705 -2.03202 0
M  V30 4145 H 390.725 -1.15321 -0.949811 0
M  V30 4146 H 392.607 -0.94763 -4.10607 0
M  V30 4147 H 391.282 -0.128852 -3.23443 0
M  V30 4148 H 390.189 -2.41521 -2.85689 0
M  V30 4149 H 391.522 -3.16261 -3.77147 0
M  V30 4150 N 393.175 1.03435 -1.18907 0
M  V30 4151 C 394.405 1.8012 -1.01195 0
M  V30 4152 C 394.813 1.8395 0.442613 0
M  V30 4153 O 394.156 1.27836 1.31923 0
M  V30 4154 C 394.218 3.26792 -1.49823 0
M  V30 4155 C 393.882 3.46609 -2.97844 0
M  V30 4156 C 394.879 3.37278 -3.95651 0
M  V30 4157 C 392.564 3.73001 -3.36416 0
M  V30 4158 C 394.558 3.54054 -5.30023 0
M  V30 4159 C 392.245 3.89423 -4.70949 0
M  V30 4160 C 393.243 3.79951 -5.67562 0
M  V30 4161 O 392.931 3.95895 -6.99659 0
M  V30 4162 H 392.663 0.573865 -0.357289 0
M  V30 4163 H 395.217 1.31207 -1.58031 0
M  V30 4164 H 393.447 3.76703 -0.873578 0
M  V30 4165 H 395.136 3.85055 -1.28404 0
M  V30 4166 H 395.902 3.16846 -3.67197 0
M  V30 4167 H 391.781 3.79469 -2.61772 0
M  V30 4168 H 395.325 3.46577 -6.05417 0
M  V30 4169 H 391.222 4.09351 -4.99101 0
M  V30 4170 H 391.99 4.13019 -7.06653 0
M  V30 4171 N 394.653 0.992116 1.22453 0
M  V30 4172 C 395.563 0.55065 2.28046 0
M  V30 4173 C 396.579 -0.400189 1.69335 0
M  V30 4174 O 397.755 -0.267215 1.99619 0
M  V30 4175 C 394.82 -0.128496 3.46462 0
M  V30 4176 C 393.881 0.865208 4.20491 0
M  V30 4177 C 393.114 0.218377 5.33253 0
M  V30 4178 O 393.337 -0.987894 5.6178 0
M  V30 4179 O 392.271 0.922845 5.94783 0
M  V30 4180 H 396.097 1.4291 2.67975 0
M  V30 4181 H 393.682 0.760326 1.28606 0
M  V30 4182 H 395.564 -0.508947 4.18315 0
M  V30 4183 H 394.239 -0.981526 3.0846 0
M  V30 4184 H 393.146 1.29658 3.50913 0
M  V30 4185 H 394.479 1.68741 4.62371 0
M  V30 4186 N 396.131 -1.37776 0.765217 0
M  V30 4187 C 397.359 -2.04124 0.337767 0
M  V30 4188 C 397.774 -1.57715 -1.03785 0
M  V30 4189 O 397.131 -0.755447 -1.6613 0
M  V30 4190 C 397.182 -3.59658 0.364442 0
M  V30 4191 O 396.903 -4.04367 1.68579 0
M  V30 4192 C 398.404 -4.43236 -0.0754221 0
M  V30 4193 H 395.624 -0.655696 0.142491 0
M  V30 4194 H 398.168 -1.76238 1.03732 0
M  V30 4195 H 396.323 -3.86339 -0.286471 0
M  V30 4196 H 396.737 -4.98857 1.61993 0
M  V30 4197 H 398.211 -5.52 -0.00560067 0
M  V30 4198 H 398.688 -4.2455 -1.12491 0
M  V30 4199 H 399.294 -4.21767 0.547055 0
M  V30 4200 N 397.609 -0.515225 -1.4894 0
M  V30 4201 C 398.855 0.016187 -2.03394 0
M  V30 4202 C 399.21 1.33377 -1.38666 0
M  V30 4203 O 398.503 1.84461 -0.518141 0
M  V30 4204 C 398.697 0.210595 -3.56779 0
M  V30 4205 C 398.526 -1.08659 -4.36375 0
M  V30 4206 C 397.296 -1.64237 -4.77864 0
M  V30 4207 C 399.494 -1.9935 -4.74093 0
M  V30 4208 N 397.476 -2.88398 -5.41941 0
M  V30 4209 C 398.847 -3.08088 -5.38035 0
M  V30 4210 C 400.902 -1.99856 -4.56029 0
M  V30 4211 C 399.605 -4.17377 -5.85823 0
M  V30 4212 C 401.631 -3.08129 -5.04787 0
M  V30 4213 C 400.993 -4.15586 -5.68742 0
M  V30 4214 H 397.092 -0.0352107 -0.781207 0
M  V30 4215 H 399.676 -0.693237 -1.8194 0
M  V30 4216 H 397.847 0.889088 -3.78087 0
M  V30 4217 H 399.579 0.740287 -3.97872 0
M  V30 4218 H 396.334 -1.18566 -4.58518 0
M  V30 4219 H 396.758 -3.51572 -5.78555 0
M  V30 4220 H 401.4 -1.18079 -4.05977 0
M  V30 4221 H 399.118 -4.99943 -6.34888 0
M  V30 4222 H 402.704 -3.09557 -4.92611 0
M  V30 4223 H 401.584 -4.97987 -6.05787 0
M  V30 4224 N 399.087 1.5561 -0.249682 0
M  V30 4225 C 400.315 2.03411 0.378352 0
M  V30 4226 C 400.73 1.12886 1.51335 0
M  V30 4227 O 400.087 0.143833 1.81932 0
M  V30 4228 C 400.138 3.50537 0.88351 0
M  V30 4229 O 399.859 4.37614 -0.20626 0
M  V30 4230 C 401.36 4.14113 1.58195 0
M  V30 4231 H 398.58 0.664994 0.08958 0
M  V30 4232 H 401.124 2.01044 -0.374357 0
M  V30 4233 H 399.279 3.5343 1.58639 0
M  V30 4234 H 399.693 5.24199 0.177782 0
M  V30 4235 H 401.167 5.18741 1.8871 0
M  V30 4236 H 401.644 3.60767 2.50487 0
M  V30 4237 H 402.25 4.15151 0.923573 0
M  V30 4238 N 400.565 -0.0233959 1.57583 0
M  V30 4239 C 401.528 -1.00693 2.05897 0
M  V30 4240 C 402.528 -1.28693 0.964092 0
M  V30 4241 O 403.718 -1.23602 1.22753 0
M  V30 4242 C 400.85 -2.33825 2.4807 0
M  V30 4243 H 402.043 -0.589476 2.9405 0
M  V30 4244 H 399.596 -0.270354 1.53944 0
M  V30 4245 H 400.331 -2.80307 1.6309 0
M  V30 4246 H 400.116 -2.1483 3.2801 0
M  V30 4247 H 401.606 -3.04426 2.85857 0
M  V30 4248 N 402.043 -1.548 -0.295768 0
M  V30 4249 C 403.291 -1.73985 -1.02828 0
M  V30 4250 C 403.612 -0.531406 -1.87619 0
M  V30 4251 O 402.882 0.454221 -1.90561 0
M  V30 4252 H 401.462 -0.641556 -0.382642 0
M  V30 4253 H 404.124 -1.92163 -0.325489 0
M  V30 4254 H 403.22 -2.63129 -1.67838 0
M  V30 4255 N 403.521 0.559213 -1.47345 0
M  V30 4256 C 404.77 1.31281 -1.53128 0
M  V30 4257 C 405.083 1.94602 -0.197344 0
M  V30 4258 O 406.289 2.71173 -0.133154 0
M  V30 4259 C 404.745 2.38051 -2.69925 0
M  V30 4260 C 404.353 1.8093 -4.0984 0
M  V30 4261 C 406.097 3.14604 -2.84999 0
M  V30 4262 C 404.004 2.85468 -5.1794 0
M  V30 4263 H 402.934 0.493614 -0.569966 0
M  V30 4264 H 405.585 0.594155 -1.73615 0
M  V30 4265 H 403.967 3.12822 -2.42814 0
M  V30 4266 H 405.141 1.12544 -4.46845 0
M  V30 4267 H 403.456 1.16967 -3.99634 0
M  V30 4268 H 406.053 3.92666 -3.62929 0
M  V30 4269 H 406.396 3.68665 -1.93369 0
M  V30 4270 H 406.929 2.46945 -3.1187 0
M  V30 4271 H 403.668 2.36264 -6.1144 0
M  V30 4272 H 403.188 3.52269 -4.85455 0
M  V30 4273 H 404.867 3.48996 -5.44803 0
M  V30 4274 N 404.999 1.35443 0.805782 0
M  V30 4275 C 405.949 1.24972 1.90699 0
M  V30 4276 C 406.933 0.144806 1.60247 0
M  V30 4277 O 408.125 0.376102 1.72958 0
M  V30 4278 C 405.254 1.02475 3.27649 0
M  V30 4279 C 404.34 2.17361 3.64164 0
M  V30 4280 N 404.731 3.42591 3.72109 0
M  V30 4281 C 403.029 2.08765 3.94123 0
M  V30 4282 C 403.73 4.18144 4.04389 0
M  V30 4283 N 402.706 3.4691 4.18515 0
M  V30 4284 H 406.508 2.19852 1.95044 0
M  V30 4285 H 404.022 1.27928 1.00041 0
M  V30 4286 H 406.019 0.930617 4.06381 0
M  V30 4287 H 404.679 0.0848009 3.24589 0
M  V30 4288 H 405.69 3.76932 3.55166 0
M  V30 4289 H 402.367 1.22629 3.99084 0
M  V30 4290 H 403.757 5.26367 4.17597 0
M  V30 4291 N 406.477 -1.02803 1.19454 0
M  V30 4292 C 407.725 -1.75869 0.995722 0
M  V30 4293 C 408.046 -1.89138 -0.474543 0
M  V30 4294 O 407.316 -1.42558 -1.34366 0
M  V30 4295 H 405.896 -0.651511 0.365435 0
M  V30 4296 H 408.558 -1.24004 1.50363 0
M  V30 4297 H 407.654 -2.76661 1.44447 0
M  V30 4298 N 407.956 -0.998596 -1.21925 0
M  V30 4299 C 408.903 -0.553621 -2.24062 0
M  V30 4300 C 409.873 0.416999 -1.6078 0
M  V30 4301 O 411.058 0.320482 -1.88089 0
M  V30 4302 C 408.198 0.119959 -3.44891 0
M  V30 4303 C 407.311 -0.893077 -4.22668 0
M  V30 4304 C 406.446 -0.192424 -5.30851 0
M  V30 4305 C 405.485 -1.19344 -6.00353 0
M  V30 4306 N 404.622 -0.520707 -7.00166 0
M  V30 4307 H 409.462 -1.4293 -2.61486 0
M  V30 4308 H 406.999 -0.715838 -1.28507 0
M  V30 4309 H 408.957 0.527459 -4.13852 0
M  V30 4310 H 407.587 0.959389 -3.08214 0
M  V30 4311 H 406.639 -1.41886 -3.52948 0
M  V30 4312 H 407.951 -1.65512 -4.70539 0
M  V30 4313 H 407.105 0.271515 -6.06092 0
M  V30 4314 H 405.844 0.602075 -4.83969 0
M  V30 4315 H 404.849 -1.66795 -5.23889 0
M  V30 4316 H 406.074 -1.98891 -6.49322 0
M  V30 4317 H 404.02 0.254252 -6.55507 0
M  V30 4318 H 403.937 -1.2211 -7.46073 0
M  V30 4319 H 405.205 -0.0797596 -7.79459 0
M  V30 4320 N 409.434 1.37368 -0.772513 0
M  V30 4321 C 410.382 2.32134 -0.147111 0
M  V30 4322 C 411.376 1.54972 0.684106 0
M  V30 4323 O 412.582 1.70363 0.581083 0
M  V30 4324 H 408.957 0.751449 -0.028786 0
M  V30 4325 H 410.928 2.82464 -0.962112 0
M  V30 4326 C 409.677 3.40226 0.71703 0
M  V30 4327 H 409 3.99706 0.0867951 0
M  V30 4328 H 410.44 4.08897 1.12159 0
M  V30 4329 C 408.899 2.80372 1.86797 0
M  V30 4330 O 409.429 2.71183 2.96349 0
M  V30 4331 N 407.635 2.37904 1.66883 0
M  V30 4332 H 407.182 2.45578 0.777759 0
M  V30 4333 H 407.14 1.98202 2.44056 0
M  V30 4334 N 410.912 0.523116 1.48665 0
M  V30 4335 C 411.86 -0.256859 2.31177 0
M  V30 4336 C 412.854 -0.94199 1.40794 0
M  V30 4337 O 414.06 -0.867157 1.57735 0
M  V30 4338 H 410.435 -0.1017 0.745091 0
M  V30 4339 H 412.406 0.458739 2.94853 0
M  V30 4340 C 411.155 -1.29503 3.22683 0
M  V30 4341 H 410.478 -0.777248 3.92172 0
M  V30 4342 H 411.918 -1.81233 3.83315 0
M  V30 4343 C 410.377 -2.32501 2.43813 0
M  V30 4344 O 410.907 -3.3881 2.15803 0
M  V30 4345 N 409.113 -2.05538 2.05432 0
M  V30 4346 H 408.66 -1.19104 2.28412 0
M  V30 4347 H 408.618 -2.74676 1.52973 0
M  V30 4348 N 412.39 -1.55475 0.257931 0
M  V30 4349 C 413.636 -1.99502 -0.364266 0
M  V30 4350 C 413.969 -1.146 -1.56782 0
M  V30 4351 O 413.244 -0.211968 -1.93342 0
M  V30 4352 C 413.527 -3.51917 -0.763333 0
M  V30 4353 C 413.38 -4.4758 0.446371 0
M  V30 4354 C 414.699 -4.09742 -1.60623 0
M  V30 4355 H 411.818 -0.725277 -0.130929 0
M  V30 4356 H 414.46 -1.8653 0.361446 0
M  V30 4357 H 412.61 -3.63101 -1.38166 0
M  V30 4358 H 414.282 -4.48362 1.08487 0
M  V30 4359 H 412.525 -4.19947 1.08753 0
M  V30 4360 H 413.196 -5.51862 0.123645 0
M  V30 4361 H 415.672 -4.01727 -1.08418 0
M  V30 4362 H 414.548 -5.16631 -1.85429 0
M  V30 4363 H 414.809 -3.58889 -2.58169 0
M  V30 4364 N 413.868 0.0150385 -1.57593 0
M  V30 4365 C 415.096 0.714395 -1.94175 0
M  V30 4366 C 415.511 1.68135 -0.858841 0
M  V30 4367 O 414.868 1.81766 0.163567 0
M  V30 4368 C 414.919 1.45933 -3.30735 0
M  V30 4369 O 414.64 0.531167 -4.34868 0
M  V30 4370 C 416.141 2.25456 -3.81686 0
M  V30 4371 H 413.361 0.199923 -0.640525 0
M  V30 4372 H 415.905 -0.0316096 -2.04476 0
M  V30 4373 H 414.06 2.15709 -3.21789 0
M  V30 4374 H 414.474 1.05509 -5.13778 0
M  V30 4375 H 415.948 2.731 -4.79709 0
M  V30 4376 H 416.425 3.07485 -3.13607 0
M  V30 4377 H 417.031 1.60727 -3.9376 0
M  V30 4378 N 415.346 1.54954 0.287554 0
M  V30 4379 C 416.586 1.76617 1.02887 0
M  V30 4380 C 416.95 0.547759 1.84021 0
M  V30 4381 O 418.151 0.642365 2.61012 0
M  V30 4382 C 416.422 3.02717 1.89993 0
M  V30 4383 S 417.981 3.45438 2.70588 0
M  V30 4384 H 414.799 0.6207 0.346775 0
M  V30 4385 H 417.401 1.93172 0.30082 0
M  V30 4386 H 416.105 3.89503 1.29287 0
M  V30 4387 H 415.636 2.88787 2.67144 0
M  V30 4388 H 417.651 3.03566 3.92508 0
M  V30 4389 N 416.824 -0.551391 1.4764 0
M  V30 4390 C 418.073 -1.30467 1.53822 0
M  V30 4391 C 418.386 -1.94495 0.207661 0
M  V30 4392 O 419.592 -2.71099 0.147533 0
M  V30 4393 C 418.048 -2.36616 2.71184 0
M  V30 4394 C 417.656 -1.78754 4.10793 0
M  V30 4395 C 419.4 -3.13088 2.86663 0
M  V30 4396 C 417.307 -2.82717 5.19447 0
M  V30 4397 H 416.237 -0.490584 0.572576 0
M  V30 4398 H 418.888 -0.58494 1.73927 0
M  V30 4399 H 417.27 -3.11529 2.4447 0
M  V30 4400 H 418.444 -1.10173 4.47435 0
M  V30 4401 H 416.759 -1.14846 4.00249 0
M  V30 4402 H 419.356 -3.90736 3.65007 0
M  V30 4403 H 419.699 -3.67635 1.95321 0
M  V30 4404 H 420.232 -2.45288 3.13175 0
M  V30 4405 H 416.971 -2.33018 6.12685 0
M  V30 4406 H 416.491 -3.4969 4.87316 0
M  V30 4407 H 418.17 -3.46102 5.46646 0
M  V30 4408 N 418.302 -1.35869 -0.798587 0
M  V30 4409 C 419.579 -1.20145 -1.54352 0
M  V30 4410 C 419.959 0.216161 -2.0999 0
M  V30 4411 O 419.307 1.22068 -1.93162 0
M  V30 4412 C 419.517 -2.27602 -2.64572 0
M  V30 4413 C 420.865 -2.63811 -3.32699 0
M  V30 4414 O 421.889 -2.26576 -2.74849 0
M  V30 4415 O 420.748 -3.27866 -4.37226 0
M  V30 4416 H 417.842 -0.467248 -0.682355 0
M  V30 4417 H 420.388 -1.47574 -0.837859 0
M  V30 4418 H 419.16 -3.2265 -2.21388 0
M  V30 4419 H 418.783 -2.01488 -3.42766 0
M  V30 4420 N 419.78 1.02168 -1.19998 0
M  V30 4421 C 421.02 1.77232 -1.01825 0
M  V30 4422 C 421.384 1.86833 0.442428 0
M  V30 4423 O 422.585 2.58293 0.744189 0
M  V30 4424 C 420.856 3.15601 -1.67722 0
M  V30 4425 S 422.415 4.06765 -1.64584 0
M  V30 4426 H 419.233 0.610021 -0.365233 0
M  V30 4427 H 421.835 1.22368 -1.52467 0
M  V30 4428 H 420.539 3.06235 -2.73218 0
M  V30 4429 H 420.07 3.7554 -1.17189 0
M  V30 4430 H 422.085 4.91586 -0.67511 0
M  V30 4431 N 421.258 1.00505 1.21394 0
M  V30 4432 C 422.208 0.536503 2.21598 0
M  V30 4433 C 423.192 -0.401914 1.55799 0
M  V30 4434 O 424.384 -0.226757 1.75541 0
M  V30 4435 C 421.513 -0.135446 3.43033 0
M  V30 4436 C 420.599 0.823992 4.16018 0
M  V30 4437 N 420.99 1.97683 4.6557 0
M  V30 4438 C 419.288 0.642387 4.4135 0
M  V30 4439 C 419.989 2.58003 5.21354 0
M  V30 4440 N 418.965 1.86162 5.1073 0
M  V30 4441 H 422.767 1.41557 2.57563 0
M  V30 4442 H 420.281 0.868878 1.37202 0
M  V30 4443 H 422.278 -0.488584 4.14027 0
M  V30 4444 H 420.938 -1.01049 3.08576 0
M  V30 4445 H 421.949 2.3572 4.61147 0
M  V30 4446 H 418.626 -0.185578 4.17087 0
M  V30 4447 H 420.016 3.555 5.70149 0
M  V30 4448 N 422.737 -1.36956 0.779787 0
M  V30 4449 C 423.67 -2.27896 0.117681 0
M  V30 4450 C 424.648 -1.46736 -0.700523 0
M  V30 4451 O 425.832 -1.76055 -0.673568 0
M  V30 4452 C 422.959 -3.28136 -0.839296 0
M  V30 4453 C 422.005 -4.26373 -0.10409 0
M  V30 4454 S 422.838 -5.2157 1.21348 0
M  V30 4455 C 423.994 -6.25359 0.260249 0
M  V30 4456 H 424.227 -2.83704 0.888778 0
M  V30 4457 H 421.76 -1.43352 0.57355 0
M  V30 4458 H 423.718 -3.86394 -1.38601 0
M  V30 4459 H 422.379 -2.7126 -1.58356 0
M  V30 4460 H 421.572 -4.97121 -0.82986 0
M  V30 4461 H 421.174 -3.72147 0.371858 0
M  V30 4462 H 423.466 -6.75145 -0.564435 0
M  V30 4463 H 424.409 -7.01885 0.936135 0
M  V30 4464 H 424.817 -5.64345 -0.132127 0
M  V30 4465 N 424.215 -0.530993 -1.48385 0
M  V30 4466 C 425.626 -0.0907905 -1.86479 0
M  V30 4467 C 425.977 1.33213 -1.44044 0
M  V30 4468 O 425.102 1.99783 -0.831615 0
M  V30 4469 C 425.697 -0.157987 -3.38431 0
M  V30 4470 C 424.256 0.227026 -3.75715 0
M  V30 4471 C 423.403 -0.5173 -2.72432 0
M  V30 4472 H 426.354 -0.742186 -1.40276 0
M  V30 4473 H 426.375 0.630053 -3.75247 0
M  V30 4474 H 425.887 -1.19372 -3.69286 0
M  V30 4475 H 423.988 1.26486 -3.50474 0
M  V30 4476 H 424.101 -0.113288 -4.78966 0
M  V30 4477 H 422.465 0.0365527 -2.54674 0
M  V30 4478 H 423.248 -1.55368 -3.0613 0
M  V30 4479 N 425.693 1.55336 -0.266172 0
M  V30 4480 C 426.64 2.22172 0.625165 0
M  V30 4481 C 427.61 1.19211 1.15663 0
M  V30 4482 O 428.795 1.47723 1.20758 0
M  V30 4483 C 425.935 2.93972 1.8076 0
M  V30 4484 C 425.048 4.11632 1.31084 0
M  V30 4485 C 424.183 4.71099 2.45436 0
M  V30 4486 C 423.222 5.8097 1.92718 0
M  V30 4487 N 422.359 6.34538 3.00509 0
M  V30 4488 H 427.199 2.9796 0.0485582 0
M  V30 4489 H 424.736 1.47095 0.0122024 0
M  V30 4490 H 426.694 3.33811 2.50251 0
M  V30 4491 H 425.324 2.20623 2.35638 0
M  V30 4492 H 424.376 3.76975 0.509326 0
M  V30 4493 H 425.688 4.90893 0.884633 0
M  V30 4494 H 424.842 5.13612 3.22936 0
M  V30 4495 H 423.581 3.91096 2.91368 0
M  V30 4496 H 422.586 5.37916 1.13695 0
M  V30 4497 H 423.811 6.62836 1.47733 0
M  V30 4498 H 421.757 5.57433 3.45839 0
M  V30 4499 H 421.674 7.09046 2.62279 0
M  V30 4500 H 422.942 6.81709 3.78011 0
M  V30 4501 N 427.171 -0.0066808 1.57599 0
M  V30 4502 C 428.417 -0.693947 1.90558 0
M  V30 4503 C 428.75 -1.73792 0.866594 0
M  V30 4504 O 428.025 -1.94156 -0.115548 0
M  V30 4505 C 428.308 -1.34317 3.34112 0
M  V30 4506 C 428.161 -0.311189 4.48722 0
M  V30 4507 C 429.48 -2.27116 3.7697 0
M  V30 4508 H 426.599 -0.250803 0.693013 0
M  V30 4509 H 429.241 0.043242 1.89951 0
M  V30 4510 H 427.391 -1.9715 3.3476 0
M  V30 4511 H 429.063 0.316944 4.6021 0
M  V30 4512 H 427.306 0.367253 4.32243 0
M  V30 4513 H 427.977 -0.804366 5.46108 0
M  V30 4514 H 430.453 -1.74306 3.77831 0
M  V30 4515 H 429.329 -2.69511 4.78179 0
M  V30 4516 H 429.59 -3.14743 3.10466 0
M  V30 4517 N 428.649 -1.55105 -0.279332 0
M  V30 4518 C 429.581 -1.83952 -1.36727 0
M  V30 4519 C 430.594 -0.723642 -1.45833 0
M  V30 4520 O 431.783 -1.00141 -1.47763 0
M  V30 4521 C 428.883 -1.98183 -2.74912 0
M  V30 4522 C 428.056 -3.28787 -2.88475 0
M  V30 4523 C 427.115 -3.33162 -4.07295 0
M  V30 4524 O 426.141 -4.06576 -3.98353 0
M  V30 4525 N 427.343 -2.60109 -5.18964 0
M  V30 4526 H 430.108 -2.77853 -1.12328 0
M  V30 4527 H 427.669 -1.54945 -0.469442 0
M  V30 4528 H 429.661 -1.98488 -3.52682 0
M  V30 4529 H 428.231 -1.11177 -2.92162 0
M  V30 4530 H 427.451 -3.41075 -1.97641 0
M  V30 4531 H 428.739 -4.14933 -2.94463 0
M  V30 4532 H 428.137 -2.00136 -5.29115 0
M  V30 4533 H 426.694 -2.66143 -5.94988 0
M  V30 4534 N 430.127 0.543554 -1.4793 0
M  V30 4535 C 431.075 1.67039 -1.61866 0
M  V30 4536 C 432.069 1.62294 -0.48549 0
M  V30 4537 O 433.275 1.67315 -0.66376 0
M  V30 4538 H 429.65 0.552954 -0.509652 0
M  V30 4539 H 431.621 1.52426 -2.56533 0
M  V30 4540 C 430.37 3.05357 -1.6629 0
M  V30 4541 H 429.693 3.09696 -2.5284 0
M  V30 4542 H 431.133 3.83855 -1.80088 0
M  V30 4543 C 429.592 3.34531 -0.398861 0
M  V30 4544 O 430.122 3.98649 0.494162 0
M  V30 4545 N 428.328 2.89299 -0.2747 0
M  V30 4546 H 427.875 2.37298 -1.00236 0
M  V30 4547 H 427.833 3.09188 0.570075 0
M  V30 4548 N 431.605 1.3629 0.791371 0
M  V30 4549 C 432.568 1.30309 1.88553 0
M  V30 4550 C 433.568 0.211204 1.59407 0
M  V30 4551 O 434.758 0.465865 1.67855 0
M  V30 4552 C 431.89 1.01956 3.25297 0
M  V30 4553 H 433.083 2.27614 1.95273 0
M  V30 4554 H 430.636 1.21035 0.988953 0
M  V30 4555 H 431.371 0.050998 3.2426 0
M  V30 4556 H 431.156 1.80968 3.4784 0
M  V30 4557 H 432.646 1.0037 4.05359 0
M  V30 4558 N 433.083 -1.0153 1.20538 0
M  V30 4559 C 433.993 -2.13557 0.971113 0
M  V30 4560 C 435.009 -1.73845 -0.0734366 0
M  V30 4561 O 436.185 -2.01075 0.114299 0
M  V30 4562 C 433.25 -3.42661 0.527639 0
M  V30 4563 C 432.311 -3.96608 1.64319 0
M  V30 4564 C 431.544 -5.1955 1.22078 0
M  V30 4565 O 431.767 -5.70329 0.0900198 0
M  V30 4566 O 430.701 -5.66681 2.02871 0
M  V30 4567 H 434.527 -2.3619 1.90913 0
M  V30 4568 H 432.112 -1.11946 0.989362 0
M  V30 4569 H 433.994 -4.20404 0.289621 0
M  V30 4570 H 432.669 -3.21441 -0.381779 0
M  V30 4571 H 431.576 -3.20139 1.93551 0
M  V30 4572 H 432.909 -4.22219 2.52966 0
M  V30 4573 N 434.561 -1.01147 -1.20859 0
M  V30 4574 C 435.809 -0.696486 -1.89719 0
M  V30 4575 C 436.13 0.775788 -1.78904 0
M  V30 4576 O 435.4 1.55759 -1.18811 0
M  V30 4577 H 433.98 -0.254628 -0.702263 0
M  V30 4578 H 436.642 -1.28197 -1.46804 0
M  V30 4579 H 435.738 -0.975357 -2.96468 0
M  V30 4580 N 436.039 1.36541 -0.78704 0
M  V30 4581 C 436.986 2.30082 -0.181901 0
M  V30 4582 C 437.956 1.5186 0.672896 0
M  V30 4583 O 439.141 1.80374 0.622072 0
M  V30 4584 C 436.281 3.3835 0.679197 0
M  V30 4585 C 435.394 4.31565 -0.193882 0
M  V30 4586 C 434.529 5.26915 0.673364 0
M  V30 4587 C 433.568 6.11769 -0.201315 0
M  V30 4588 N 432.705 6.99315 0.624777 0
M  V30 4589 H 437.545 2.81248 -0.985064 0
M  V30 4590 H 435.082 1.38437 -0.497342 0
M  V30 4591 H 437.04 3.99767 1.19341 0
M  V30 4592 H 435.67 2.8851 1.44781 0
M  V30 4593 H 434.722 3.71323 -0.826044 0
M  V30 4594 H 436.034 4.91191 -0.867937 0
M  V30 4595 H 435.188 5.9361 1.25348 0
M  V30 4596 H 433.927 4.67737 1.38105 0
M  V30 4597 H 432.932 5.44039 -0.793849 0
M  V30 4598 H 434.157 6.73022 -0.906568 0
M  V30 4599 H 432.103 6.42648 1.3168 0
M  V30 4600 H 432.02 7.56 0.00835237 0
M  V30 4601 H 433.288 7.70382 1.18879 0
M  V30 4602 N 437.518 0.538854 1.48102 0
M  V30 4603 C 438.448 -0.207654 2.32575 0
M  V30 4604 C 439.429 -0.926559 1.4265 0
M  V30 4605 O 440.614 -0.91061 1.71527 0
M  V30 4606 C 437.744 -1.24957 3.24042 0
M  V30 4607 C 436.698 -0.648263 4.23062 0
M  V30 4608 C 436.024 -1.79348 5.03725 0
M  V30 4609 C 437.324 0.385897 5.20872 0
M  V30 4610 H 439.018 0.497534 2.95237 0
M  V30 4611 H 436.564 0.240715 1.41974 0
M  V30 4612 H 438.517 -1.77983 3.81969 0
M  V30 4613 H 437.241 -1.98446 2.59397 0
M  V30 4614 H 435.9 -0.139452 3.66335 0
M  V30 4615 H 435.548 -2.51696 4.35498 0
M  V30 4616 H 435.248 -1.39702 5.70751 0
M  V30 4617 H 436.772 -2.32735 5.64506 0
M  V30 4618 H 438.186 -0.057607 5.73271 0
M  V30 4619 H 436.583 0.700227 5.96001 0
M  V30 4620 H 437.653 1.28848 4.67468 0
M  V30 4621 N 438.996 -1.55193 0.274407 0
M  V30 4622 C 440.226 -2.03692 -0.345442 0
M  V30 4623 C 440.634 -1.15224 -1.50067 0
M  V30 4624 O 439.977 -0.164749 -1.8296 0
M  V30 4625 C 440.039 -3.48325 -0.88939 0
M  V30 4626 C 439.703 -4.56794 0.137115 0
M  V30 4627 C 440.7 -5.11028 0.956378 0
M  V30 4628 C 438.385 -5.01568 0.27115 0
M  V30 4629 C 440.379 -6.08552 1.89587 0
M  V30 4630 C 438.066 -5.98918 1.21412 0
M  V30 4631 C 439.064 -6.52291 2.02498 0
M  V30 4632 O 438.752 -7.47738 2.952 0
M  V30 4633 H 438.484 -0.670893 -0.0829332 0
M  V30 4634 H 441.038 -2.01387 0.404056 0
M  V30 4635 H 439.268 -3.47867 -1.68895 0
M  V30 4636 H 440.957 -3.80167 -1.42225 0
M  V30 4637 H 441.723 -4.7725 0.863559 0
M  V30 4638 H 437.602 -4.5967 -0.349987 0
M  V30 4639 H 441.146 -6.50137 2.52918 0
M  V30 4640 H 437.043 -6.32114 1.30776 0
M  V30 4641 H 437.811 -7.65451 2.89874 0
M  V30 4642 N 440.474 -0.00167713 -1.576 0
M  V30 4643 C 441.702 0.693759 -1.94922 0
M  V30 4644 C 442.117 1.67215 -0.876626 0
M  V30 4645 O 441.474 1.81929 0.144279 0
M  V30 4646 C 441.525 1.42416 -3.32265 0
M  V30 4647 O 441.246 0.485014 -4.35407 0
M  V30 4648 C 442.747 2.21395 -3.84056 0
M  V30 4649 H 439.967 0.193118 -0.642609 0
M  V30 4650 H 442.511 -0.0532952 -2.04431 0
M  V30 4651 H 440.666 2.12284 -3.24059 0
M  V30 4652 H 441.08 1.00053 -5.14868 0
M  V30 4653 H 442.554 2.67996 -4.82578 0
M  V30 4654 H 443.031 3.04142 -3.16851 0
M  V30 4655 H 443.637 1.56542 -3.95443 0
M  V30 4656 N 441.952 1.55251 0.271103 0
M  V30 4657 C 443.229 1.66664 1.02384 0
M  V30 4658 C 443.609 0.534363 2.04225 0
M  V30 4659 O 442.957 -0.465337 2.23712 0
M  V30 4660 C 443.167 3.05961 1.67895 0
M  V30 4661 C 444.515 3.63772 2.18986 0
M  V30 4662 O 445.539 3.08606 1.77878 0
M  V30 4663 O 444.398 4.60429 2.94393 0
M  V30 4664 H 441.492 0.676957 0.475035 0
M  V30 4665 H 444.038 1.67589 0.26681 0
M  V30 4666 H 442.81 3.79815 0.941071 0
M  V30 4667 H 442.433 3.08943 2.5028 0
M  V30 4668 N 443.43 -0.535701 1.48216 0
M  V30 4669 C 444.38 -1.63688 1.58714 0
M  V30 4670 C 445.364 -1.54635 0.444615 0
M  V30 4671 O 446.556 -1.62753 0.695742 0
M  V30 4672 C 443.685 -3.02423 1.62466 0
M  V30 4673 C 442.771 -3.16601 2.82178 0
M  V30 4674 N 443.162 -3.00771 4.06658 0
M  V30 4675 C 441.46 -3.47645 2.79391 0
M  V30 4676 C 442.161 -3.18213 4.86945 0
M  V30 4677 N 441.137 -3.45528 4.19656 0
M  V30 4678 H 444.939 -1.5005 2.5271 0
M  V30 4679 H 442.453 -0.741018 1.44508 0
M  V30 4680 H 444.45 -3.81517 1.6808 0
M  V30 4681 H 443.11 -3.17157 0.695826 0
M  V30 4682 H 444.121 -2.77652 4.37184 0
M  V30 4683 H 440.798 -3.68771 1.95739 0
M  V30 4684 H 442.188 -3.1076 5.95716 0
M  V30 4685 N 444.908 -1.36708 -0.784132 0
M  V30 4686 C 445.855 -1.31466 -1.89698 0
M  V30 4687 C 446.825 -0.18239 -1.65096 0
M  V30 4688 O 448.01 -0.369762 -1.87183 0
M  V30 4689 C 445.15 -1.1151 -3.26588 0
M  V30 4690 C 444.263 -2.33859 -3.63227 0
M  V30 4691 C 443.398 -2.06873 -4.89262 0
M  V30 4692 C 442.437 -3.25154 -5.18595 0
M  V30 4693 N 441.574 -2.978 -6.35814 0
M  V30 4694 H 446.414 -2.26619 -1.93515 0
M  V30 4695 H 443.951 -1.12625 -0.946256 0
M  V30 4696 H 445.909 -0.979653 -4.05535 0
M  V30 4697 H 444.539 -0.200103 -3.22179 0
M  V30 4698 H 443.591 -2.58188 -2.79362 0
M  V30 4699 H 444.903 -3.22109 -3.8085 0
M  V30 4700 H 444.057 -1.90289 -5.76086 0
M  V30 4701 H 442.796 -1.15942 -4.73718 0
M  V30 4702 H 441.801 -3.42292 -4.30251 0
M  V30 4703 H 443.026 -4.1692 -5.36055 0
M  V30 4704 H 440.972 -2.09485 -6.21653 0
M  V30 4705 H 440.889 -3.7959 -6.53794 0
M  V30 4706 H 442.157 -2.84805 -7.25607 0
M  V30 4707 N 446.386 1.0089 -1.21074 0
M  V30 4708 C 447.635 1.74019 -1.01981 0
M  V30 4709 C 447.948 1.90408 0.447665 0
M  V30 4710 O 449.154 2.60707 0.757906 0
M  V30 4711 C 447.61 3.13026 -1.77603 0
M  V30 4712 C 447.218 3.04623 -3.28495 0
M  V30 4713 C 448.962 3.90312 -1.66904 0
M  V30 4714 C 446.869 4.38685 -3.96623 0
M  V30 4715 H 445.799 0.652422 -0.377971 0
M  V30 4716 H 448.45 1.12755 -1.44771 0
M  V30 4717 H 446.832 3.74878 -1.27604 0
M  V30 4718 H 448.006 2.52032 -3.85767 0
M  V30 4719 H 446.321 2.40827 -3.39693 0
M  V30 4720 H 448.918 4.8951 -2.15138 0
M  V30 4721 H 449.261 4.11558 -0.62658 0
M  V30 4722 H 449.794 3.35104 -2.14359 0
M  V30 4723 H 446.533 4.22641 -5.01054 0
M  V30 4724 H 446.053 4.91252 -3.4414 0
M  V30 4725 H 447.732 5.075 -4.01314 0
M  V30 4726 N 447.864 1.01787 1.20321 0
M  V30 4727 C 449.112 0.706538 1.89347 0
M  V30 4728 C 449.433 -0.766289 1.79313 0
M  V30 4729 O 448.703 -1.55126 1.19635 0
M  V30 4730 H 447.283 0.258348 0.700903 0
M  V30 4731 H 449.945 1.28974 1.46122 0
M  V30 4732 H 449.041 0.991066 2.95946 0
M  V30 4733 N 449.342 -1.36122 0.79427 0
M  V30 4734 C 450.29 -2.31871 0.184023 0
M  V30 4735 C 451.284 -1.56041 -0.659365 0
M  V30 4736 O 452.49 -1.71266 -0.553906 0
M  V30 4737 H 448.865 -0.750896 0.0407373 0
M  V30 4738 H 450.836 -2.80898 1.00693 0
M  V30 4739 C 449.585 -3.41324 -0.662813 0
M  V30 4740 H 448.908 -3.99793 -0.0231944 0
M  V30 4741 H 450.348 -4.10629 -1.05639 0
M  V30 4742 C 448.807 -2.83308 -1.82313 0
M  V30 4743 O 449.337 -2.75863 -2.91997 0
M  V30 4744 N 447.543 -2.40529 -1.63077 0
M  V30 4745 H 447.09 -2.46785 -0.738591 0
M  V30 4746 H 447.048 -2.02059 -2.40872 0
M  V30 4747 N 450.82 -0.546701 -1.47814 0
M  V30 4748 C 452.231 -0.110564 -1.86372 0
M  V30 4749 C 452.582 1.31678 -1.45449 0
M  V30 4750 O 451.707 1.98889 -0.852758 0
M  V30 4751 C 452.302 -0.193873 -3.38245 0
M  V30 4752 C 450.861 0.187164 -3.75934 0
M  V30 4753 C 450.008 -0.546166 -2.71868 0
M  V30 4754 H 452.959 -0.757022 -1.39481 0
M  V30 4755 H 452.98 0.590218 -3.75895 0
M  V30 4756 H 452.492 -1.23282 -3.67999 0
M  V30 4757 H 450.593 1.22762 -3.51796 0
M  V30 4758 H 450.706 -0.164083 -4.78819 0
M  V30 4759 H 449.07 0.00953904 -2.54698 0
M  V30 4760 H 449.853 -1.58606 -3.04465 0
M  V30 4761 N 452.299 1.55045 -0.282633 0
M  V30 4762 C 453.546 1.9976 0.33199 0
M  V30 4763 C 453.874 1.17105 1.55295 0
M  V30 4764 O 453.129 0.230599 1.94337 0
M  V30 4765 C 453.428 3.49422 0.750938 0
M  V30 4766 C 453.094 4.4941 -0.366228 0
M  V30 4767 C 451.756 4.76471 -0.672964 0
M  V30 4768 C 454.108 5.09054 -1.11864 0
M  V30 4769 C 451.436 5.60442 -1.73556 0
M  V30 4770 C 453.788 5.9418 -2.17102 0
M  V30 4771 C 452.452 6.19558 -2.48402 0
M  V30 4772 H 451.722 0.730974 0.121484 0
M  V30 4773 H 454.369 1.8732 -0.39791 0
M  V30 4774 H 452.674 3.59377 1.56063 0
M  V30 4775 H 454.371 3.81432 1.23736 0
M  V30 4776 H 450.961 4.2844 -0.117041 0
M  V30 4777 H 455.145 4.88165 -0.894925 0
M  V30 4778 H 450.401 5.78349 -1.983 0
M  V30 4779 H 454.575 6.39427 -2.75873 0
M  V30 4780 H 452.202 6.84417 -3.30874 0
M  V30 4781 N 453.777 0.010035 1.57597 0
M  V30 4782 C 455.054 -0.710296 1.82248 0
M  V30 4783 C 455.434 -1.91426 0.889911 0
M  V30 4784 O 454.782 -2.28424 -0.0590292 0
M  V30 4785 C 454.992 -1.10655 3.30993 0
M  V30 4786 C 456.34 -1.50621 3.96987 0
M  V30 4787 O 457.364 -1.20007 3.35375 0
M  V30 4788 O 456.223 -2.07587 5.05539 0
M  V30 4789 H 453.317 -0.34673 0.750804 0
M  V30 4790 H 455.863 0.0362578 1.69661 0
M  V30 4791 H 454.635 -0.248826 3.90508 0
M  V30 4792 H 454.258 -1.91189 3.48615 0
M  V30 4793 N 455.255 -1.55392 -0.262866 0
M  V30 4794 C 456.203 -1.8977 -1.345 0
M  V30 4795 C 457.197 -0.775063 -1.50629 0
M  V30 4796 O 458.403 -0.959519 -1.52293 0
M  V30 4797 H 454.778 -0.602467 -0.450041 0
M  V30 4798 H 456.749 -2.80147 -1.02762 0
M  V30 4799 C 455.498 -2.19501 -2.69657 0
M  V30 4800 H 454.821 -3.05378 -2.5804 0
M  V30 4801 H 456.261 -2.47469 -3.44289 0
M  V30 4802 C 454.72 -1.00597 -3.21531 0
M  V30 4803 O 455.25 -0.245768 -4.00947 0
M  V30 4804 N 453.456 -0.800911 -2.79345 0
M  V30 4805 H 453.003 -1.42079 -2.14875 0
M  V30 4806 H 452.961 -0.00697996 -3.14399 0
M  V30 4807 N 456.733 0.527833 -1.48498 0
M  V30 4808 C 457.98 1.28354 -1.56625 0
M  V30 4809 C 458.308 1.93 -0.241096 0
M  V30 4810 O 457.563 1.79967 0.768798 0
M  V30 4811 C 457.862 2.39275 -2.65485 0
M  V30 4812 C 457.528 1.92268 -4.07853 0
M  V30 4813 C 456.19 1.79166 -4.46602 0
M  V30 4814 C 458.542 1.56771 -4.97064 0
M  V30 4815 C 455.87 1.28905 -5.72364 0
M  V30 4816 C 458.222 1.07972 -6.23318 0
M  V30 4817 C 456.886 0.934887 -6.60921 0
M  V30 4818 H 456.156 0.469682 -0.573131 0
M  V30 4819 H 458.803 0.588781 -1.82224 0
M  V30 4820 H 457.108 3.1443 -2.33754 0
M  V30 4821 H 458.805 2.974 -2.68988 0
M  V30 4822 H 455.395 2.03417 -3.77252 0
M  V30 4823 H 459.579 1.65753 -4.67803 0
M  V30 4824 H 454.835 1.16381 -6.00221 0
M  V30 4825 H 459.009 0.795775 -6.91838 0
M  V30 4826 H 456.636 0.543231 -7.58257 0
M  V30 4827 N 458.211 1.37122 0.776871 0
M  V30 4828 C 459.174 1.32301 1.8716 0
M  V30 4829 C 460.174 0.228099 1.59174 0
M  V30 4830 O 461.364 0.483642 1.67352 0
M  V30 4831 C 458.496 1.054 3.24197 0
M  V30 4832 H 459.689 2.29673 1.92848 0
M  V30 4833 H 457.242 1.22077 0.97606 0
M  V30 4834 H 457.977 0.0853872 3.24188 0
M  V30 4835 H 457.762 1.84648 3.45901 0
M  V30 4836 H 459.252 1.04664 4.04271 0
M  V30 4837 N 459.689 -1.00246 1.21608 0
M  V30 4838 C 460.621 -2.09244 0.935401 0
M  V30 4839 C 461.634 -1.62592 -0.0823594 0
M  V30 4840 O 462.823 -1.77865 0.150456 0
M  V30 4841 C 459.923 -3.36724 0.383453 0
M  V30 4842 C 459.096 -4.1245 1.45615 0
M  V30 4843 C 458.155 -5.18219 0.912991 0
M  V30 4844 O 457.181 -5.46337 1.59701 0
M  V30 4845 N 458.383 -5.7987 -0.270478 0
M  V30 4846 H 461.148 -2.33905 1.87373 0
M  V30 4847 H 458.709 -1.16748 1.12167 0
M  V30 4848 H 460.701 -4.047 0.00562157 0
M  V30 4849 H 459.271 -3.09201 -0.459758 0
M  V30 4850 H 458.491 -3.39241 2.00772 0
M  V30 4851 H 459.779 -4.59819 2.17817 0
M  V30 4852 H 459.177 -5.59381 -0.843195 0
M  V30 4853 H 457.734 -6.49126 -0.589794 0
M  V30 4854 N 461.167 -1.02423 -1.1978 0
M  V30 4855 C 462.395 -0.737456 -1.93311 0
M  V30 4856 C 462.81 0.703023 -1.75223 0
M  V30 4857 O 462.167 1.47761 -1.07112 0
M  V30 4858 C 462.218 -1.0733 -3.45199 0
M  V30 4859 O 461.939 -2.4572 -3.62702 0
M  V30 4860 C 463.44 -0.80866 -4.35862 0
M  V30 4861 H 460.66 -0.2702 -0.614193 0
M  V30 4862 H 463.204 -1.36747 -1.52054 0
M  V30 4863 H 461.359 -0.488545 -3.84307 0
M  V30 4864 H 461.773 -2.58081 -4.56612 0
M  V30 4865 H 463.247 -1.09365 -5.41057 0
M  V30 4866 H 463.724 0.257025 -4.38447 0
M  V30 4867 H 464.33 -1.37592 -4.02428 0
M  V30 4868 N 462.645 1.35699 -0.801477 0
M  V30 4869 C 463.885 2.00741 -0.385027 0
M  V30 4870 C 464.249 1.62213 1.02718 0
M  V30 4871 O 465.45 2.19936 1.54537 0
M  V30 4872 C 463.721 3.53032 -0.557057 0
M  V30 4873 S 465.28 4.38195 -0.230272 0
M  V30 4874 H 462.098 0.695748 -0.146477 0
M  V30 4875 H 464.7 1.65378 -1.04261 0
M  V30 4876 H 463.404 3.7856 -1.58494 0
M  V30 4877 H 462.935 3.93229 0.116029 0
M  V30 4878 H 464.95 4.86748 0.963895 0
M  V30 4879 N 464.123 0.554532 1.47522 0
M  V30 4880 C 465.086 -0.184174 2.28459 0
M  V30 4881 C 466.086 -0.845195 1.36796 0
M  V30 4882 O 467.276 -0.701467 1.59452 0
M  V30 4883 C 464.408 -1.26903 3.16399 0
M  V30 4884 H 465.601 0.526751 2.95238 0
M  V30 4885 H 463.154 0.311375 1.53167 0
M  V30 4886 H 463.889 -2.01244 2.54306 0
M  V30 4887 H 463.674 -0.799883 3.83854 0
M  V30 4888 H 465.164 -1.78794 3.77389 0
M  V30 4889 N 465.601 -1.54893 0.290851 0
M  V30 4890 C 466.549 -2.24579 -0.605576 0
M  V30 4891 C 467.543 -1.24824 -1.14522 0
M  V30 4892 O 468.749 -1.42706 -1.09704 0
M  V30 4893 H 465.124 -0.720946 -0.213872 0
M  V30 4894 H 467.095 -2.984 0.0048173 0
M  V30 4895 C 465.844 -2.99224 -1.77088 0
M  V30 4896 H 465.167 -3.75782 -1.36484 0
M  V30 4897 H 466.607 -3.51281 -2.3744 0
M  V30 4898 C 465.066 -2.05602 -2.66888 0
M  V30 4899 O 465.596 -1.61745 -3.67698 0
M  V30 4900 N 463.802 -1.71771 -2.34399 0
M  V30 4901 H 463.349 -2.07633 -1.52468 0
M  V30 4902 H 463.307 -1.09403 -2.94751 0
M  V30 4903 N 467.08 -0.0183926 -1.57589 0
M  V30 4904 C 468.32 0.666846 -1.93216 0
M  V30 4905 C 468.684 1.69905 -0.894215 0
M  V30 4906 O 469.885 2.436 -1.13633 0
M  V30 4907 C 468.156 1.27684 -3.33814 0
M  V30 4908 S 469.715 1.98464 -3.91353 0
M  V30 4909 H 466.533 0.219826 -0.676164 0
M  V30 4910 H 469.135 -0.0794893 -1.95338 0
M  V30 4911 H 467.839 0.513006 -4.07181 0
M  V30 4912 H 467.37 2.06071 -3.3511 0
M  V30 4913 H 469.385 3.26189 -3.73918 0
M  V30 4914 N 468.558 1.5553 0.254621 0
M  V30 4915 C 469.508 1.86057 1.31783 0
M  V30 4916 C 470.492 0.720827 1.4385 0
M  V30 4917 O 471.684 0.982586 1.47222 0
M  V30 4918 C 468.813 2.15203 2.67475 0
M  V30 4919 C 467.899 3.35484 2.59444 0
M  V30 4920 N 468.29 4.54945 2.2104 0
M  V30 4921 C 466.588 3.38441 2.90472 0
M  V30 4922 C 467.289 5.3707 2.23453 0
M  V30 4923 N 466.265 4.75936 2.62652 0
M  V30 4924 H 470.067 2.75953 1.01129 0
M  V30 4925 H 467.581 1.55653 0.463255 0
M  V30 4926 H 469.578 2.35235 3.44195 0
M  V30 4927 H 468.238 1.26601 2.99002 0
M  V30 4928 H 469.249 4.8071 1.92712 0
M  V30 4929 H 465.926 2.60087 3.2659 0
M  V30 4930 H 467.316 6.42626 1.96166 0
M  V30 4931 N 470.036 -0.519951 1.48776 0
M  V30 4932 C 471.264 -1.29971 1.60982 0
M  V30 4933 C 471.679 -1.86803 0.273885 0
M  V30 4934 O 471.036 -1.66904 -0.738193 0
M  V30 4935 C 471.087 -2.44346 2.66415 0
M  V30 4936 O 470.808 -1.89855 3.94825 0
M  V30 4937 C 472.309 -3.36014 2.89153 0
M  V30 4938 H 469.529 -0.394891 0.542496 0
M  V30 4939 H 472.073 -0.626214 1.94676 0
M  V30 4940 H 470.228 -3.07562 2.35552 0
M  V30 4941 H 470.642 -2.64798 4.5275 0
M  V30 4942 H 472.116 -4.12593 3.66703 0
M  V30 4943 H 472.593 -3.91859 1.98351 0
M  V30 4944 H 473.199 -2.78582 3.21359 0
M  V30 4945 N 471.514 -1.37532 -0.769588 0
M  V30 4946 C 472.446 -1.29347 -1.89214 0
M  V30 4947 C 473.459 -0.208842 -1.61455 0
M  V30 4948 O 474.648 -0.465158 -1.72333 0
M  V30 4949 C 471.748 -0.977649 -3.24492 0
M  V30 4950 C 470.921 -2.16817 -3.7988 0
M  V30 4951 C 469.98 -1.82229 -4.93639 0
M  V30 4952 O 469.006 -2.54548 -5.09111 0
M  V30 4953 N 470.208 -0.767696 -5.75401 0
M  V30 4954 H 472.973 -2.26073 -1.96751 0
M  V30 4955 H 470.534 -1.31185 -0.948795 0
M  V30 4956 H 472.526 -0.727065 -3.98115 0
M  V30 4957 H 471.096 -0.0988777 -3.12444 0
M  V30 4958 H 470.316 -2.58038 -2.9801 0
M  V30 4959 H 471.604 -2.96308 -4.13617 0
M  V30 4960 H 471.002 -0.167626 -5.65452 0
M  V30 4961 H 469.559 -0.576973 -6.49241 0
M  V30 4962 N 472.992 0.995999 -1.22138 0
M  V30 4963 C 474.269 1.70834 -0.952642 0
M  V30 4964 C 474.649 2.04257 0.533119 0
M  V30 4965 O 473.997 1.72343 1.50034 0
M  V30 4966 C 474.207 2.96119 -1.84701 0
M  V30 4967 C 475.555 3.68962 -2.10124 0
M  V30 4968 O 476.579 3.0612 -1.82124 0
M  V30 4969 O 475.438 4.82017 -2.57531 0
M  V30 4970 H 472.532 0.745498 -0.357997 0
M  V30 4971 H 475.078 1.05262 -1.33109 0
M  V30 4972 H 473.85 2.67898 -2.85213 0
M  V30 4973 H 473.473 3.6943 -1.46995 0
M  V30 4974 N 474.47 1.03057 1.19235 0
M  V30 4975 C 475.417 0.612832 2.22515 0
M  V30 4976 C 476.387 -0.374224 1.61829 0
M  V30 4977 O 477.572 -0.270501 1.88873 0
M  V30 4978 C 474.712 -0.028475 3.45088 0
M  V30 4979 C 473.825 1.00483 4.20151 0
M  V30 4980 C 472.96 0.333102 5.30155 0
M  V30 4981 C 471.999 1.3522 5.96977 0
M  V30 4982 N 471.136 0.70616 6.9854 0
M  V30 4983 H 475.976 1.49812 2.57605 0
M  V30 4984 H 473.513 0.749658 1.26564 0
M  V30 4985 H 475.471 -0.417548 4.15105 0
M  V30 4986 H 474.101 -0.877334 3.10649 0
M  V30 4987 H 473.153 1.51194 3.49062 0
M  V30 4988 H 474.465 1.77929 4.65986 0
M  V30 4989 H 473.619 -0.110725 6.06599 0
M  V30 4990 H 472.358 -0.473547 4.85396 0
M  V30 4991 H 471.363 1.80627 5.19282 0
M  V30 4992 H 472.588 2.16037 6.4382 0
M  V30 4993 H 470.534 -0.0803667 6.55951 0
M  V30 4994 H 470.451 1.41848 7.42573 0
M  V30 4995 H 471.719 0.286391 7.78974 0
M  V30 4996 N 475.948 -1.35272 0.808662 0
M  V30 4997 C 476.911 -2.28082 0.226093 0
M  V30 4998 C 477.911 -1.49673 -0.587762 0
M  V30 4999 O 479.101 -1.69404 -0.405943 0
M  V30 5000 C 476.233 -3.33955 -0.684596 0
M  V30 5001 H 477.426 -2.81116 1.04469 0
M  V30 5002 H 474.979 -1.45162 0.579466 0
M  V30 5003 H 475.714 -2.86111 -1.5268 0
M  V30 5004 H 475.499 -3.91965 -0.102699 0
M  V30 5005 H 476.989 -4.03219 -1.08646 0
M  V30 5006 N 477.426 -0.562348 -1.47226 0
M  V30 5007 C 478.389 0.172056 -2.28553 0
M  V30 5008 C 479.389 0.837928 -1.37242 0
M  V30 5009 O 480.579 0.693001 -1.59822 0
M  V30 5010 C 477.711 1.25223 -3.17068 0
M  V30 5011 H 478.904 -0.542401 -2.94954 0
M  V30 5012 H 476.457 -0.319493 -1.53 0
M  V30 5013 H 477.192 1.99892 -2.55369 0
M  V30 5014 H 476.977 0.779515 -3.84273 0
M  V30 5015 H 478.467 1.76791 -3.78332 0
M  V30 5016 N 478.904 1.54736 -0.299062 0
M  V30 5017 C 479.834 2.26409 0.571085 0
M  V30 5018 C 480.815 1.2629 1.13951 0
M  V30 5019 O 482 1.55059 1.16921 0
M  V30 5020 C 479.13 3.00338 1.74396 0
M  V30 5021 C 478.084 4.07588 1.30599 0
M  V30 5022 C 477.41 4.69222 2.56387 0
M  V30 5023 C 478.71 5.20455 0.438645 0
M  V30 5024 H 480.404 2.99388 -0.0266991 0
M  V30 5025 H 477.95 1.43993 -0.0142812 0
M  V30 5026 H 479.903 3.49198 2.35878 0
M  V30 5027 H 478.627 2.24934 2.36796 0
M  V30 5028 H 477.286 3.59575 0.71424 0
M  V30 5029 H 476.934 3.9046 3.17097 0
M  V30 5030 H 476.634 5.41653 2.27784 0
M  V30 5031 H 478.158 5.20844 3.18675 0
M  V30 5032 H 479.572 5.65221 0.959085 0
M  V30 5033 H 477.969 5.99594 0.246466 0
M  V30 5034 H 479.039 4.8192 -0.536738 0
M  V30 5035 N 480.382 0.0267497 1.57577 0
M  V30 5036 C 481.314 -0.984594 2.06974 0
M  V30 5037 C 482.327 -1.29032 0.992705 0
M  V30 5038 O 483.516 -1.25539 1.26895 0
M  V30 5039 C 480.616 -2.31262 2.47732 0
M  V30 5040 C 479.789 -2.1924 3.78487 0
M  V30 5041 C 478.848 -3.34956 4.05821 0
M  V30 5042 O 477.874 -3.11948 4.76106 0
M  V30 5043 N 479.076 -4.58672 3.55809 0
M  V30 5044 H 481.841 -0.563143 2.94362 0
M  V30 5045 H 479.402 -0.160061 1.61107 0
M  V30 5046 H 481.394 -3.07496 2.63112 0
M  V30 5047 H 479.964 -2.65056 1.65723 0
M  V30 5048 H 479.184 -1.27747 3.72927 0
M  V30 5049 H 480.472 -2.08409 4.64158 0
M  V30 5050 H 479.87 -4.8026 2.98942 0
M  V30 5051 H 478.427 -5.32083 3.76472 0
M  V30 5052 N 481.861 -1.55662 -0.24637 0
M  V30 5053 C 482.808 -1.90361 -1.30504 0
M  V30 5054 C 483.778 -0.757905 -1.47801 0
M  V30 5055 O 484.963 -1.01161 -1.61775 0
M  V30 5056 C 482.103 -2.2042 -2.65535 0
M  V30 5057 C 481.216 -3.47799 -2.56242 0
M  V30 5058 C 480.351 -3.67426 -3.8363 0
M  V30 5059 C 479.39 -4.88403 -3.68956 0
M  V30 5060 N 478.527 -5.04548 -4.88237 0
M  V30 5061 H 483.367 -2.80645 -1.00213 0
M  V30 5062 H 480.904 -1.38924 -0.483577 0
M  V30 5063 H 482.862 -2.35853 -3.44135 0
M  V30 5064 H 481.492 -1.3334 -2.93973 0
M  V30 5065 H 480.544 -3.40694 -1.69208 0
M  V30 5066 H 481.856 -4.36544 -2.4131 0
M  V30 5067 H 481.01 -3.82821 -4.70673 0
M  V30 5068 H 479.749 -2.76914 -4.01459 0
M  V30 5069 H 478.754 -4.72984 -2.80296 0
M  V30 5070 H 479.979 -5.80375 -3.52621 0
M  V30 5071 H 477.925 -4.16974 -5.06427 0
M  V30 5072 H 477.842 -5.87384 -4.75937 0
M  V30 5073 H 479.11 -5.24355 -5.76777 0
M  V30 5074 N 483.339 0.512053 -1.4905 0
M  V30 5075 C 484.585 1.26874 -1.58212 0
M  V30 5076 C 484.918 1.9241 -0.263073 0
M  V30 5077 O 484.193 1.80181 0.732476 0
M  V30 5078 C 484.476 2.34428 -2.73341 0
M  V30 5079 C 484.329 1.73466 -4.15006 0
M  V30 5080 C 485.648 3.36073 -2.84154 0
M  V30 5081 H 482.767 0.459924 -0.575881 0
M  V30 5082 H 485.409 0.568587 -1.81293 0
M  V30 5083 H 483.559 2.94146 -2.53792 0
M  V30 5084 H 485.231 1.17661 -4.46042 0
M  V30 5085 H 483.474 1.03921 -4.21168 0
M  V30 5086 H 484.145 2.51426 -4.91415 0
M  V30 5087 H 486.621 2.86332 -3.01916 0
M  V30 5088 H 485.497 4.08703 -3.66406 0
M  V30 5089 H 485.758 3.97725 -1.93048 0
M  V30 5090 N 484.817 1.37938 0.762283 0
M  V30 5091 C 486.063 1.33866 1.52341 0
M  V30 5092 C 486.396 -0.0738961 1.94059 0
M  V30 5093 O 485.671 -1.03326 1.64785 0
M  V30 5094 C 485.954 2.28644 2.78197 0
M  V30 5095 C 485.807 3.78722 2.42672 0
M  V30 5096 C 487.126 2.21702 3.80179 0
M  V30 5097 H 484.245 0.487593 0.55265 0
M  V30 5098 H 486.887 1.68717 0.873767 0
M  V30 5099 H 485.037 1.99055 3.33631 0
M  V30 5100 H 486.709 4.18948 1.93081 0
M  V30 5101 H 484.952 3.96827 1.75244 0
M  V30 5102 H 485.623 4.40486 3.3268 0
M  V30 5103 H 488.099 2.47805 3.34263 0
M  V30 5104 H 486.975 2.90143 4.65949 0
M  V30 5105 H 487.236 1.21301 4.25133 0
M  V30 5106 N 486.295 -0.989507 1.22664 0
M  V30 5107 C 487.258 -2.06183 1.00106 0
M  V30 5108 C 488.258 -1.60765 -0.0337726 0
M  V30 5109 O 489.448 -1.72989 0.205072 0
M  V30 5110 C 486.58 -3.37021 0.51279 0
M  V30 5111 H 487.773 -2.27629 1.95256 0
M  V30 5112 H 485.326 -1.16158 1.0458 0
M  V30 5113 H 486.061 -3.21261 -0.442917 0
M  V30 5114 H 485.846 -3.71323 1.25942 0
M  V30 5115 H 487.336 -4.1591 0.375315 0
M  V30 5116 N 487.773 -1.03688 -1.18687 0
M  V30 5117 C 488.683 -0.634908 -2.25845 0
M  V30 5118 C 489.699 0.337065 -1.70704 0
M  V30 5119 O 490.875 0.192943 -2.00474 0
M  V30 5120 C 487.94 -0.000180054 -3.467 0
M  V30 5121 C 487.001 -1.02067 -4.1699 0
M  V30 5122 C 486.234 -0.41614 -5.32075 0
M  V30 5123 O 486.457 0.778712 -5.65059 0
M  V30 5124 O 485.391 -1.14296 -5.90948 0
M  V30 5125 H 489.217 -1.52757 -2.62486 0
M  V30 5126 H 486.802 -0.807533 -1.25695 0
M  V30 5127 H 488.684 0.353342 -4.19916 0
M  V30 5128 H 487.359 0.866367 -3.11891 0
M  V30 5129 H 486.266 -1.42592 -3.45859 0
M  V30 5130 H 487.599 -1.85786 -4.5579 0
M  V30 5131 N 489.251 1.34841 -0.815825 0
M  V30 5132 C 490.667 1.51543 -0.500697 0
M  V30 5133 C 490.867 1.76261 0.976444 0
M  V30 5134 O 489.923 1.8094 1.76117 0
M  V30 5135 C 491.236 2.68487 -1.35407 0
M  V30 5136 C 492.784 2.82368 -1.35046 0
M  V30 5137 C 493.259 4.02347 -2.18816 0
M  V30 5138 N 494.75 4.09542 -2.16402 0
M  V30 5139 C 495.485 5.01517 -2.77971 0
M  V30 5140 N 494.981 5.98763 -3.48503 0
M  V30 5141 N 496.774 4.94334 -2.67563 0
M  V30 5142 H 488.925 1.17055 -1.77234 0
M  V30 5143 H 491.188 0.573481 -0.754866 0
M  V30 5144 H 490.894 2.56829 -2.40274 0
M  V30 5145 H 490.768 3.63321 -1.01377 0
M  V30 5146 H 493.155 2.93471 -0.309604 0
M  V30 5147 H 493.236 1.88363 -1.73069 0
M  V30 5148 H 492.88 3.92004 -3.22948 0
M  V30 5149 H 492.81 4.95551 -1.78148 0
M  V30 5150 H 495.301 3.39932 -1.65091 0
M  V30 5151 H 495.614 6.6556 -3.92747 0
M  V30 5152 H 493.959 5.98909 -3.52609 0
M  V30 5153 H 497.15 4.1732 -2.12041 0
M  V30 5154 H 497.323 5.6582 -3.15834 0
M  V30 5155 N 490.729 0.570148 1.46925 0
M  V30 5156 C 491.676 -0.170257 2.30171 0
M  V30 5157 C 492.646 -0.896099 1.39855 0
M  V30 5158 O 493.831 -0.889248 1.68811 0
M  V30 5159 C 490.971 -1.18605 3.24079 0
M  V30 5160 C 490.084 -0.464947 4.29491 0
M  V30 5161 C 489.219 -1.46716 5.10537 0
M  V30 5162 C 488.258 -0.731758 6.0771 0
M  V30 5163 N 487.395 -1.68142 6.81669 0
M  V30 5164 H 492.235 0.545713 2.92961 0
M  V30 5165 H 489.772 0.280938 1.44392 0
M  V30 5166 H 491.73 -1.78771 3.76957 0
M  V30 5167 H 490.36 -1.86989 2.63125 0
M  V30 5168 H 489.412 0.251506 3.79568 0
M  V30 5169 H 490.724 0.110548 4.98677 0
M  V30 5170 H 489.878 -2.14199 5.6763 0
M  V30 5171 H 488.617 -2.07658 4.41282 0
M  V30 5172 H 487.622 -0.0430787 5.49783 0
M  V30 5173 H 488.847 -0.127904 6.7898 0
M  V30 5174 H 486.793 -2.27918 6.15134 0
M  V30 5175 H 486.71 -1.15841 7.47072 0
M  V30 5176 H 487.978 -2.347 7.43328 0
M  V30 5177 N 492.207 -1.54576 0.307264 0
M  V30 5178 C 493.139 -2.21212 -0.599807 0
M  V30 5179 C 494.152 -1.20685 -1.09266 0
M  V30 5180 O 495.341 -1.47244 -1.00903 0
M  V30 5181 C 492.441 -2.84994 -1.83389 0
M  V30 5182 C 491.614 -4.11511 -1.48248 0
M  V30 5183 C 490.673 -4.59038 -2.57237 0
M  V30 5184 O 489.699 -5.24095 -2.22065 0
M  V30 5185 N 490.901 -4.31884 -3.87887 0
M  V30 5186 H 493.666 -2.99686 -0.0293075 0
M  V30 5187 H 491.227 -1.61379 0.129738 0
M  V30 5188 H 493.219 -3.1372 -2.5566 0
M  V30 5189 H 491.789 -2.10324 -2.31263 0
M  V30 5190 H 491.009 -3.89728 -0.592122 0
M  V30 5191 H 492.297 -4.93879 -1.22316 0
M  V30 5192 H 491.695 -3.79778 -4.19268 0
M  V30 5193 H 490.252 -4.65304 -4.56438 0
M  V30 5194 N 493.685 -0.035106 -1.57561 0
M  V30 5195 C 494.91 0.655802 -1.96759 0
M  V30 5196 C 495.335 1.64523 -0.911809 0
M  V30 5197 O 494.693 1.80857 0.126673 0
M  V30 5198 C 494.741 1.33326 -3.35047 0
M  V30 5199 O 493.845 2.44866 -3.31835 0
M  V30 5200 H 493.186 0.171807 -0.641388 0
M  V30 5201 H 495.716 -0.0987369 -2.04362 0
M  V30 5202 H 495.726 1.68867 -3.71413 0
M  V30 5203 H 494.401 0.608033 -4.11431 0
M  V30 5204 H 492.978 2.11392 -3.07193 0
M  V30 5205 N 495.163 1.55791 0.238111 0
M  V30 5206 C 496.412 1.77234 0.962868 0
M  V30 5207 C 496.725 0.600661 1.86149 0
M  V30 5208 O 497.931 0.698315 2.62366 0
M  V30 5209 C 496.387 3.13808 1.76218 0
M  V30 5210 C 495.995 4.3865 0.910518 0
M  V30 5211 C 497.739 3.44585 2.47914 0
M  V30 5212 C 495.646 5.66252 1.70623 0
M  V30 5213 H 494.576 0.660731 0.36325 0
M  V30 5214 H 497.227 1.8221 0.217242 0
M  V30 5215 H 495.609 3.02963 2.55009 0
M  V30 5216 H 496.783 4.60507 0.164316 0
M  V30 5217 H 495.098 4.15271 0.30647 0
M  V30 5218 H 497.695 4.3714 3.07917 0
M  V30 5219 H 498.038 2.66314 3.19973 0
M  V30 5220 H 498.571 3.56685 1.76127 0
M  V30 5221 H 495.31 6.47369 1.02923 0
M  V30 5222 H 494.83 5.48483 2.42748 0
M  V30 5223 H 496.509 6.05829 2.27114 0
M  V30 5224 N 496.642 -0.504142 1.49319 0
M  V30 5225 C 497.59 -1.62689 1.66238 0
M  V30 5226 C 498.584 -1.6095 0.528349 0
M  V30 5227 O 499.79 -1.65496 0.707887 0
M  V30 5228 H 496.165 -0.539247 0.524134 0
M  V30 5229 H 498.136 -1.45571 2.60484 0
M  V30 5230 C 496.885 -3.00841 1.74328 0
M  V30 5231 H 496.208 -3.02884 2.60963 0
M  V30 5232 H 497.648 -3.78945 1.90202 0
M  V30 5233 C 496.107 -3.33355 0.487416 0
M  V30 5234 O 496.637 -3.99819 -0.388294 0
M  V30 5235 N 494.843 -2.88469 0.351306 0
M  V30 5236 H 494.39 -2.34557 1.06492 0
M  V30 5237 H 494.348 -3.10591 -0.487899 0
M  V30 5238 N 498.12 -1.38341 -0.754957 0
M  V30 5239 C 499.397 -1.24995 -1.50451 0
M  V30 5240 C 499.777 0.149244 -2.10572 0
M  V30 5241 O 499.125 1.15861 -1.96948 0
M  V30 5242 C 499.335 -2.35904 -2.57197 0
M  V30 5243 C 500.683 -2.74262 -3.24138 0
M  V30 5244 O 501.707 -2.35205 -2.67501 0
M  V30 5245 O 500.566 -3.4161 -4.26574 0
M  V30 5246 H 497.66 -0.48872 -0.667144 0
M  V30 5247 H 500.206 -1.50165 -0.790486 0
M  V30 5248 H 498.978 -3.2953 -2.11011 0
M  V30 5249 H 498.601 -2.12291 -3.36182 0
M  V30 5250 N 499.598 0.982988 -1.23187 0
M  V30 5251 C 500.528 2.09301 -1.03515 0
M  V30 5252 C 501.509 1.70035 0.0471136 0
M  V30 5253 O 502.694 1.93847 -0.117029 0
M  V30 5254 C 499.824 3.4167 -0.622791 0
M  V30 5255 C 498.778 3.94828 -1.65211 0
M  V30 5256 C 498.104 5.23362 -1.09527 0
M  V30 5257 C 499.404 4.2439 -3.04451 0
M  V30 5258 H 501.098 2.26016 -1.96359 0
M  V30 5259 H 498.644 1.08611 -0.945501 0
M  V30 5260 H 500.597 4.18746 -0.472233 0
M  V30 5261 H 499.321 3.24811 0.341329 0
M  V30 5262 H 497.98 3.19895 -1.79061 0
M  V30 5263 H 497.628 5.02852 -0.122211 0
M  V30 5264 H 497.328 5.59895 -1.783 0
M  V30 5265 H 498.852 6.03062 -0.956511 0
M  V30 5266 H 500.266 4.92225 -2.93917 0
M  V30 5267 H 498.663 4.72118 -3.70438 0
M  V30 5268 H 499.733 3.31765 -3.53638 0
M  V30 5269 N 501.076 1.04316 1.18135 0
M  V30 5270 C 502.023 0.636398 2.21853 0
M  V30 5271 C 502.993 -0.357039 1.62217 0
M  V30 5272 O 504.178 -0.250453 1.89149 0
M  V30 5273 C 501.318 0.00812779 3.45099 0
M  V30 5274 C 500.431 1.04933 4.19062 0
M  V30 5275 C 499.566 0.389313 5.29771 0
M  V30 5276 C 498.605 1.41544 5.9551 0
M  V30 5277 N 497.742 0.78021 6.97751 0
M  V30 5278 H 502.582 1.52536 2.56002 0
M  V30 5279 H 500.119 0.76304 1.25762 0
M  V30 5280 H 502.077 -0.373497 4.15525 0
M  V30 5281 H 500.707 -0.844336 3.11562 0
M  V30 5282 H 499.759 1.54888 3.47439 0
M  V30 5283 H 501.071 1.82862 4.64072 0
M  V30 5284 H 500.225 -0.0463805 6.06682 0
M  V30 5285 H 498.964 -0.422038 4.8587 0
M  V30 5286 H 497.969 1.86124 5.17337 0
M  V30 5287 H 499.194 2.22854 6.41493 0
M  V30 5288 H 497.14 -0.0107899 6.55999 0
M  V30 5289 H 497.057 1.49716 7.41027 0
M  V30 5290 H 498.325 0.368996 7.78626 0
M  V30 5291 N 502.554 -1.34406 0.822964 0
M  V30 5292 C 503.803 -1.97542 0.407458 0
M  V30 5293 C 504.116 -1.65973 -1.035 0
M  V30 5294 O 505.322 -2.22598 -1.55442 0
M  V30 5295 C 503.778 -3.53463 0.677623 0
M  V30 5296 C 503.386 -3.93925 2.1337 0
M  V30 5297 C 505.13 -4.23229 0.328284 0
M  V30 5298 C 503.037 -5.42759 2.34876 0
M  V30 5299 H 501.967 -0.739207 0.148623 0
M  V30 5300 H 504.618 -1.53248 1.00932 0
M  V30 5301 H 503 -3.96 0.00558965 0
M  V30 5302 H 504.174 -3.62494 2.8449 0
M  V30 5303 H 502.489 -3.37097 2.44448 0
M  V30 5304 H 505.086 -5.32659 0.466794 0
M  V30 5305 H 505.429 -4.09899 -0.727224 0
M  V30 5306 H 505.962 -3.86169 0.954896 0
M  V30 5307 H 502.701 -5.61075 3.38932 0
M  V30 5308 H 502.221 -5.75704 1.68299 0
M  V30 5309 H 503.9 -6.0944 2.17236 0
M  V30 5310 N 504.032 -0.577932 -1.46621 0
M  V30 5311 C 504.979 0.158048 -2.30258 0
M  V30 5312 C 505.949 0.888669 -1.40328 0
M  V30 5313 O 507.134 0.880283 -1.6928 0
M  V30 5314 C 504.274 1.16884 -3.24703 0
M  V30 5315 C 503.387 0.442163 -4.29731 0
M  V30 5316 C 502.522 1.44007 -5.11308 0
M  V30 5317 C 501.561 0.69952 -6.0809 0
M  V30 5318 N 500.698 1.64525 -6.82551 0
M  V30 5319 H 505.538 -0.561242 -2.92667 0
M  V30 5320 H 503.075 -0.288591 -1.44241 0
M  V30 5321 H 505.033 1.7677 -3.779 0
M  V30 5322 H 503.663 1.85591 -2.64113 0
M  V30 5323 H 502.715 -0.271632 -3.79429 0
M  V30 5324 H 504.027 -0.136992 -4.98612 0
M  V30 5325 H 503.181 2.11186 -5.68758 0
M  V30 5326 H 501.92 2.05315 -4.42377 0
M  V30 5327 H 500.925 0.0139217 -5.49798 0
M  V30 5328 H 502.15 0.091894 -6.79038 0
M  V30 5329 H 500.096 2.24653 -6.16334 0
M  V30 5330 H 500.013 1.11878 -7.47676 0
M  V30 5331 H 501.281 2.30754 -7.44562 0
M  V30 5332 N 505.51 1.54411 -0.315457 0
M  V30 5333 C 506.756 2.00716 0.289972 0
M  V30 5334 C 507.089 1.2034 1.5242 0
M  V30 5335 O 506.364 0.283579 1.92422 0
M  V30 5336 C 506.647 3.54507 0.632196 0
M  V30 5337 C 506.5 4.45615 -0.61218 0
M  V30 5338 C 507.819 4.15421 1.45305 0
M  V30 5339 H 504.938 0.729637 0.10392 0
M  V30 5340 H 507.58 1.8506 -0.430427 0
M  V30 5341 H 505.73 3.67979 1.24595 0
M  V30 5342 H 507.402 4.44026 -1.25053 0
M  V30 5343 H 505.645 4.15621 -1.24264 0
M  V30 5344 H 506.316 5.51022 -0.328379 0
M  V30 5345 H 508.792 4.05474 0.934331 0
M  V30 5346 H 507.668 5.23157 1.66127 0
M  V30 5347 H 507.929 3.68223 2.44671 0
M  V30 5348 N 506.988 0.0434614 1.5754 0
M  V30 5349 C 507.898 -0.94893 2.14552 0
M  V30 5350 C 508.914 -1.34707 1.10136 0
M  V30 5351 O 510.09 -1.42557 1.42266 0
M  V30 5352 C 507.155 -2.208 2.67298 0
M  V30 5353 C 506.216 -1.86893 3.86484 0
M  V30 5354 C 505.449 -3.06797 4.36705 0
M  V30 5355 O 505.672 -4.19921 3.86034 0
M  V30 5356 O 504.606 -2.8826 5.28384 0
M  V30 5357 H 508.432 -0.494099 2.99654 0
M  V30 5358 H 506.017 -0.177989 1.48336 0
M  V30 5359 H 507.899 -2.94686 3.01228 0
M  V30 5360 H 506.574 -2.65436 1.85272 0
M  V30 5361 H 505.481 -1.10347 3.57455 0
M  V30 5362 H 506.814 -1.47062 4.69716 0
M  V30 5363 N 508.466 -1.55915 -0.229846 0
M  V30 5364 C 509.743 -1.6932 -0.979295 0
M  V30 5365 C 510.123 -0.588321 -2.02736 0
M  V30 5366 O 509.471 0.40586 -2.24867 0
M  V30 5367 C 509.681 -3.10305 -1.59724 0
M  V30 5368 C 511.029 -3.6945 -2.09264 0
M  V30 5369 O 512.053 -3.13214 -1.69633 0
M  V30 5370 O 510.912 -4.68072 -2.82082 0
M  V30 5371 H 508.006 -0.689314 -0.456919 0
M  V30 5372 H 510.552 -1.68238 -0.222283 0
M  V30 5373 H 509.324 -3.82177 -0.840039 0
M  V30 5374 H 508.947 -3.1547 -2.42001 0
M  V30 5375 N 509.944 0.496216 -1.49584 0
M  V30 5376 C 510.876 1.61404 -1.62731 0
M  V30 5377 C 511.889 1.54613 -0.50978 0
M  V30 5378 O 513.078 1.60458 -0.782017 0
M  V30 5379 C 510.178 3.00212 -1.57245 0
M  V30 5380 C 509.351 3.32138 -2.84611 0
M  V30 5381 C 508.41 4.5038 -2.72112 0
M  V30 5382 O 507.436 4.51926 -3.46051 0
M  V30 5383 N 508.638 5.50575 -1.83977 0
M  V30 5384 H 511.403 1.50552 -2.59141 0
M  V30 5385 H 508.964 0.684182 -1.46733 0
M  V30 5386 H 510.956 3.77241 -1.4653 0
M  V30 5387 H 509.526 3.04964 -0.686729 0
M  V30 5388 H 508.746 2.4396 -3.09641 0
M  V30 5389 H 510.034 3.50268 -3.69039 0
M  V30 5390 H 509.432 5.52128 -1.23171 0
M  V30 5391 H 507.989 6.26687 -1.79182 0
M  V30 5392 N 511.423 1.38739 0.74761 0
M  V30 5393 C 512.353 1.39173 1.87492 0
M  V30 5394 C 513.334 0.256794 1.6815 0
M  V30 5395 O 514.519 0.460762 1.88655 0
M  V30 5396 C 511.649 1.22197 3.25093 0
M  V30 5397 C 510.603 2.32957 3.59047 0
M  V30 5398 C 509.929 2.01082 4.95449 0
M  V30 5399 C 511.229 3.75237 3.6331 0
M  V30 5400 H 512.923 2.3351 1.87386 0
M  V30 5401 H 510.469 1.12399 0.900134 0
M  V30 5402 H 512.422 1.21124 4.03617 0
M  V30 5403 H 511.146 0.243241 3.25693 0
M  V30 5404 H 509.805 2.33226 2.82845 0
M  V30 5405 H 509.453 1.01678 4.92616 0
M  V30 5406 H 509.153 2.75267 5.19136 0
M  V30 5407 H 510.677 2.01638 5.76346 0
M  V30 5408 H 512.091 3.76966 4.31937 0
M  V30 5409 H 510.488 4.48677 3.98509 0
M  V30 5410 H 511.558 4.07122 2.634 0
M  V30 5411 N 512.901 -0.976442 1.23707 0
M  V30 5412 C 514.147 -1.72081 1.07312 0
M  V30 5413 C 514.48 -1.90275 -0.388476 0
M  V30 5414 O 513.755 -1.4579 -1.28746 0
M  V30 5415 C 514.038 -3.11675 1.80363 0
M  V30 5416 C 513.891 -3.01027 3.3422 0
M  V30 5417 C 515.21 -4.1117 1.5693 0
M  V30 5418 H 512.329 -0.624583 0.391236 0
M  V30 5419 H 514.971 -1.13649 1.52263 0
M  V30 5420 H 513.121 -3.61559 1.42153 0
M  V30 5421 H 514.793 -2.58637 3.81975 0
M  V30 5422 H 513.036 -2.3744 3.63049 0
M  V30 5423 H 513.707 -3.9988 3.80525 0
M  V30 5424 H 516.183 -3.7011 1.90151 0
M  V30 5425 H 515.059 -5.06928 2.10513 0
M  V30 5426 H 515.32 -4.392 0.505548 0
M  V30 5427 N 514.379 -1.04941 -1.1758 0
M  V30 5428 C 515.329 -0.618378 -2.19454 0
M  V30 5429 C 516.313 0.343813 -1.57184 0
M  V30 5430 O 517.505 0.16145 -1.76262 0
M  V30 5431 C 514.634 0.00803847 -3.43299 0
M  V30 5432 C 513.72 -0.977827 -4.12673 0
M  V30 5433 N 514.111 -2.14826 -4.57912 0
M  V30 5434 C 512.409 -0.805748 -4.38661 0
M  V30 5435 C 513.11 -2.77174 -5.11419 0
M  V30 5436 N 512.086 -2.04989 -5.03468 0
M  V30 5437 H 515.888 -1.51018 -2.52132 0
M  V30 5438 H 513.402 -0.919201 -1.33882 0
M  V30 5439 H 515.399 0.334584 -4.15555 0
M  V30 5440 H 514.059 0.895272 -3.12114 0
M  V30 5441 H 515.07 -2.52673 -4.52081 0
M  V30 5442 H 511.747 0.0306506 -4.17489 0
M  V30 5443 H 513.137 -3.76416 -5.56562 0
M  V30 5444 N 515.857 1.33968 -0.830081 0
M  V30 5445 C 516.82 2.27694 -0.26235 0
M  V30 5446 C 517.82 1.50589 0.563876 0
M  V30 5447 O 519.01 1.70028 0.378941 0
M  V30 5448 C 516.142 3.35002 0.63138 0
M  V30 5449 H 517.335 2.79419 -1.08928 0
M  V30 5450 H 514.888 1.44221 -0.602486 0
M  V30 5451 H 515.623 2.88504 1.48109 0
M  V30 5452 H 515.408 3.92079 0.0403276 0
M  V30 5453 H 516.898 4.04897 1.02217 0
M  V30 5454 N 517.335 0.585699 1.46312 0
M  V30 5455 C 518.285 -0.166813 2.27389 0
M  V30 5456 C 519.269 -0.859076 1.36047 0
M  V30 5457 O 520.461 -0.752678 1.60199 0
M  V30 5458 C 517.59 -1.17791 3.2246 0
M  V30 5459 C 516.676 -0.487605 4.21288 0
M  V30 5460 N 517.067 0.45849 5.03718 0
M  V30 5461 C 515.365 -0.737971 4.39852 0
M  V30 5462 C 516.066 0.862213 5.75275 0
M  V30 5463 N 515.042 0.210707 5.43191 0
M  V30 5464 H 518.844 0.560167 2.88512 0
M  V30 5465 H 516.358 0.407715 1.57199 0
M  V30 5466 H 518.355 -1.73122 3.79255 0
M  V30 5467 H 517.015 -1.90568 2.62896 0
M  V30 5468 H 518.026 0.834163 5.11138 0
M  V30 5469 H 514.703 -1.45209 3.91434 0
M  V30 5470 H 516.093 1.64128 6.51546 0
M  V30 5471 N 518.813 -1.54241 0.323641 0
M  V30 5472 C 520.06 -2.0057 -0.27891 0
M  V30 5473 C 520.388 -1.21181 -1.52136 0
M  V30 5474 O 519.643 -0.282043 -1.93657 0
M  V30 5475 C 519.942 -3.5129 -0.658031 0
M  V30 5476 C 519.608 -4.48281 0.485252 0
M  V30 5477 C 518.27 -4.74519 0.799055 0
M  V30 5478 C 520.622 -5.05909 1.25322 0
M  V30 5479 C 517.95 -5.55643 1.88354 0
M  V30 5480 C 520.302 -5.88215 2.32779 0
M  V30 5481 C 518.966 -6.12755 2.64741 0
M  V30 5482 H 518.236 -0.733938 -0.10206 0
M  V30 5483 H 520.883 -1.862 0.447435 0
M  V30 5484 H 519.188 -3.63388 -1.4648 0
M  V30 5485 H 520.885 -3.84578 -1.1358 0
M  V30 5486 H 517.475 -4.27979 0.230593 0
M  V30 5487 H 521.659 -4.8562 1.02404 0
M  V30 5488 H 516.915 -5.72888 2.13564 0
M  V30 5489 H 521.089 -6.31888 2.92729 0
M  V30 5490 H 518.716 -6.75404 3.48904 0
M  V30 5491 N 520.291 -0.0518155 -1.57515 0
M  V30 5492 C 521.201 0.937539 -2.15052 0
M  V30 5493 C 522.217 1.34121 -1.10849 0
M  V30 5494 O 523.393 1.418 -1.4302 0
M  V30 5495 C 520.458 2.19379 -2.68466 0
M  V30 5496 C 519.519 1.84841 -3.87469 0
M  V30 5497 C 518.752 3.04477 -4.38326 0
M  V30 5498 O 518.975 4.17868 -3.88256 0
M  V30 5499 O 517.909 2.85453 -5.29906 0
M  V30 5500 H 521.735 0.478201 -2.99912 0
M  V30 5501 H 519.32 0.17012 -1.48428 0
M  V30 5502 H 521.202 2.93084 -3.02787 0
M  V30 5503 H 519.877 2.64449 -1.86677 0
M  V30 5504 H 518.784 1.08449 -3.58036 0
M  V30 5505 H 520.117 1.44569 -4.7049 0
M  V30 5506 N 521.769 1.56035 0.221574 0
M  V30 5507 C 522.732 1.91584 1.2581 0
M  V30 5508 C 523.732 0.794425 1.39805 0
M  V30 5509 O 524.922 1.06217 1.38071 0
M  V30 5510 C 522.054 2.16663 2.63192 0
M  V30 5511 H 523.247 2.8429 0.954935 0
M  V30 5512 H 520.8 1.49316 0.461988 0
M  V30 5513 H 521.535 1.26508 2.98607 0
M  V30 5514 H 521.32 2.98358 2.5441 0
M  V30 5515 H 522.81 2.45262 3.37988 0
M  V30 5516 N 523.247 -0.488276 1.49845 0
M  V30 5517 C 524.194 -1.58836 1.67451 0
M  V30 5518 C 525.164 -1.57886 0.515857 0
M  V30 5519 O 526.349 -1.75679 0.744403 0
M  V30 5520 C 523.489 -2.96915 1.75885 0
M  V30 5521 C 522.602 -3.07784 3.03138 0
M  V30 5522 C 521.737 -4.36673 3.02473 0
M  V30 5523 C 520.776 -4.41222 4.24252 0
M  V30 5524 N 519.913 -5.61557 4.21424 0
M  V30 5525 H 524.753 -1.43131 2.61376 0
M  V30 5526 H 522.29 -0.696186 1.29583 0
M  V30 5527 H 524.248 -3.76965 1.78755 0
M  V30 5528 H 522.878 -3.11295 0.85414 0
M  V30 5529 H 521.93 -2.20717 3.09819 0
M  V30 5530 H 523.242 -3.07005 3.93128 0
M  V30 5531 H 522.396 -5.25055 3.03977 0
M  V30 5532 H 521.135 -4.40037 2.10283 0
M  V30 5533 H 520.14 -3.5124 4.22978 0
M  V30 5534 H 521.365 -4.39564 5.17649 0
M  V30 5535 H 519.311 -5.65738 3.32078 0
M  V30 5536 H 519.228 -5.62447 5.05163 0
M  V30 5537 H 520.496 -6.52111 4.2705 0
M  V30 5538 N 524.725 -1.39134 -0.740242 0
M  V30 5539 C 525.688 -1.37217 -1.83587 0
M  V30 5540 C 526.688 -0.270221 -1.58513 0
M  V30 5541 O 527.878 -0.527843 -1.6601 0
M  V30 5542 C 525.01 -1.13959 -3.21288 0
M  V30 5543 H 526.203 -2.34705 -1.86691 0
M  V30 5544 H 523.756 -1.24622 -0.94335 0
M  V30 5545 H 524.491 -0.17131 -3.23847 0
M  V30 5546 H 524.276 -1.93754 -3.40884 0
M  V30 5547 H 525.766 -1.15346 -4.01354 0
M  V30 5548 N 526.204 0.969867 -1.24223 0
M  V30 5549 C 527.167 2.04564 -1.03373 0
M  V30 5550 C 528.167 1.60798 0.00819206 0
M  V30 5551 O 529.357 1.72641 -0.232567 0
M  V30 5552 C 526.489 3.36163 -0.566343 0
M  V30 5553 H 527.682 2.24494 -1.98853 0
M  V30 5554 H 525.235 1.1448 -1.06415 0
M  V30 5555 H 525.97 3.21925 0.391751 0
M  V30 5556 H 525.755 3.69273 -1.31834 0
M  V30 5557 H 527.245 4.1526 -0.441435 0
M  V30 5558 N 527.682 1.05563 1.17022 0
M  V30 5559 C 528.612 0.681026 2.23348 0
M  V30 5560 C 529.593 -0.322983 1.67005 0
M  V30 5561 O 530.778 -0.199746 1.9317 0
M  V30 5562 C 527.908 0.0589053 3.4725 0
M  V30 5563 C 526.862 0.988082 4.16438 0
M  V30 5564 C 526.188 0.229646 5.34207 0
M  V30 5565 C 527.488 2.31388 4.68249 0
M  V30 5566 H 529.182 1.56993 2.54938 0
M  V30 5567 H 526.728 0.756302 1.2254 0
M  V30 5568 H 528.681 -0.214982 4.20851 0
M  V30 5569 H 527.405 -0.864968 3.14938 0
M  V30 5570 H 526.064 1.24659 3.44754 0
M  V30 5571 H 525.712 -0.697111 4.98146 0
M  V30 5572 H 525.412 0.848815 5.81437 0
M  V30 5573 H 526.936 -0.0368694 6.10589 0
M  V30 5574 H 528.35 2.09964 5.33468 0
M  V30 5575 H 526.747 2.88736 5.26072 0
M  V30 5576 H 527.817 2.94982 3.84855 0
M  V30 5577 N 529.16 -1.33526 0.837174 0
M  V30 5578 C 530.437 -1.92369 0.354065 0
M  V30 5579 C 530.817 -1.76348 -1.16038 0
M  V30 5580 O 530.165 -1.15083 -1.97403 0
M  V30 5581 C 530.375 -3.39728 0.799101 0
M  V30 5582 C 531.723 -4.16877 0.806139 0
M  V30 5583 O 532.747 -3.48373 0.742597 0
M  V30 5584 O 531.606 -5.39166 0.892345 0
M  V30 5585 H 528.7 -0.820952 0.0998378 0
M  V30 5586 H 531.246 -1.42409 0.922913 0
M  V30 5587 H 530.018 -3.45254 1.84162 0
M  V30 5588 H 529.641 -3.97062 0.206731 0
M  V30 5589 N 530.638 -0.59345 -1.46 0
M  V30 5590 C 531.601 0.123538 -2.28867 0
M  V30 5591 C 532.601 0.808628 -1.38989 0
M  V30 5592 O 533.791 0.658945 -1.61256 0
M  V30 5593 C 530.923 1.1847 -3.19653 0
M  V30 5594 H 532.116 -0.604843 -2.93737 0
M  V30 5595 H 529.669 -0.351875 -1.52288 0
M  V30 5596 H 530.404 1.94431 -2.59552 0
M  V30 5597 H 530.189 0.69783 -3.8584 0
M  V30 5598 H 531.679 1.68726 -3.81997 0
M  V30 5599 N 532.116 1.54067 -0.331816 0
M  V30 5600 C 533.364 2.00319 0.267739 0
M  V30 5601 C 533.685 1.22148 1.52003 0
M  V30 5602 O 532.955 0.325494 1.93177 0
M  V30 5603 H 531.535 0.740014 0.101922 0
M  V30 5604 H 534.197 1.89628 -0.450267 0
M  V30 5605 H 533.293 3.07765 0.518385 0
M  V30 5606 N 533.594 0.0601682 1.57485 0
M  V30 5607 C 534.557 -0.896373 2.10945 0
M  V30 5608 C 535.557 -1.23402 1.03095 0
M  V30 5609 O 536.747 -1.16921 1.29132 0
M  V30 5610 C 533.879 -2.20346 2.60116 0
M  V30 5611 H 535.072 -0.432778 2.96761 0
M  V30 5612 H 532.625 -0.188372 1.55161 0
M  V30 5613 H 533.36 -2.71268 1.7772 0
M  V30 5614 H 533.145 -1.9714 3.38937 0
M  V30 5615 H 534.635 -2.88846 3.01592 0
M  V30 5616 N 535.072 -1.5615 -0.213296 0
M  V30 5617 C 536.3 -1.83638 -0.953139 0
M  V30 5618 C 536.715 -0.640362 -1.77609 0
M  V30 5619 O 536.072 0.391071 -1.78261 0
M  V30 5620 C 536.123 -3.09735 -1.86405 0
M  V30 5621 O 535.844 -4.24723 -1.07435 0
M  V30 5622 C 537.345 -3.5027 -2.71709 0
M  V30 5623 H 534.565 -0.610263 -0.278962 0
M  V30 5624 H 537.109 -2.03247 -0.226035 0
M  V30 5625 H 535.264 -2.92077 -2.545 0
M  V30 5626 H 535.678 -4.9641 -1.69343 0
M  V30 5627 H 537.152 -4.41515 -3.31313 0
M  V30 5628 H 537.629 -2.72406 -3.44516 0
M  V30 5629 H 538.235 -3.70396 -2.09015 0
M  V30 5630 N 536.55 0.480323 -1.50102 0
M  V30 5631 C 537.46 1.60547 -1.71061 0
M  V30 5632 C 538.476 1.63564 -0.593529 0
M  V30 5633 O 539.652 1.81604 -0.870751 0
M  V30 5634 C 536.717 2.96814 -1.79171 0
M  V30 5635 C 535.778 3.04259 -3.02861 0
M  V30 5636 C 535.011 4.34027 -3.10574 0
M  V30 5637 O 535.234 5.24009 -2.25323 0
M  V30 5638 O 534.168 4.46873 -4.03223 0
M  V30 5639 H 537.994 1.45788 -2.6642 0
M  V30 5640 H 535.579 0.658838 -1.34088 0
M  V30 5641 H 537.461 3.77765 -1.86738 0
M  V30 5642 H 536.136 3.11791 -0.869947 0
M  V30 5643 H 535.043 2.22419 -3.008 0
M  V30 5644 H 536.376 2.94216 -3.94586 0
M  V30 5645 N 538.028 1.39524 0.732853 0
M  V30 5646 C 538.991 1.38189 1.82857 0
M  V30 5647 C 539.991 0.278624 1.58368 0
M  V30 5648 O 541.181 0.536639 1.65728 0
M  V30 5649 C 538.313 1.15661 3.2068 0
M  V30 5650 H 539.506 2.35692 1.85444 0
M  V30 5651 H 537.059 1.2512 0.936728 0
M  V30 5652 H 537.794 0.188482 3.23752 0
M  V30 5653 H 537.579 1.95559 3.39852 0
M  V30 5654 H 539.069 1.17472 4.00737 0
M  V30 5655 N 539.506 -0.963266 1.24736 0
M  V30 5656 C 540.416 -2.09246 1.06082 0
M  V30 5657 C 541.432 -1.74 0.000363101 0
M  V30 5658 O 542.608 -2.0041 0.199479 0
M  V30 5659 C 539.673 -3.40115 0.672498 0
M  V30 5660 C 538.734 -3.89282 1.80993 0
M  V30 5661 C 537.967 -5.13905 1.44004 0
M  V30 5662 O 538.19 -5.69434 0.331835 0
M  V30 5663 O 537.124 -5.57566 2.26723 0
M  V30 5664 H 540.95 -2.27881 2.00759 0
M  V30 5665 H 538.535 -1.07649 1.03595 0
M  V30 5666 H 540.417 -4.18797 0.467668 0
M  V30 5667 H 539.092 -3.22771 -0.245102 0
M  V30 5668 H 537.999 -3.11642 2.06955 0
M  V30 5669 H 539.332 -4.1111 2.70646 0
M  V30 5670 N 540.985 -1.06182 -1.16461 0
M  V30 5671 C 541.918 -0.615859 -2.19733 0
M  V30 5672 C 542.896 0.360766 -1.58547 0
M  V30 5673 O 544.08 0.270009 -1.86556 0
M  V30 5674 C 541.207 0.097312 -3.3856 0
M  V30 5675 C 540.253 -0.835889 -4.18229 0
M  V30 5676 S 541.086 -2.33052 -4.82128 0
M  V30 5677 C 542.242 -1.62881 -6.04335 0
M  V30 5678 H 542.475 -1.49079 -2.57221 0
M  V30 5679 H 540.008 -0.874692 -1.27234 0
M  V30 5680 H 541.966 0.502563 -4.07412 0
M  V30 5681 H 540.627 0.948418 -2.99439 0
M  V30 5682 H 539.82 -0.283426 -5.03202 0
M  V30 5683 H 539.422 -1.18097 -3.54865 0
M  V30 5684 H 541.714 -0.933764 -6.71034 0
M  V30 5685 H 542.657 -2.45641 -6.64128 0
M  V30 5686 H 543.065 -1.11189 -5.53441 0
M  V30 5687 N 542.463 1.3308 -0.844243 0
M  V30 5688 C 543.41 2.29104 -0.279323 0
M  V30 5689 C 544.38 1.54577 0.607882 0
M  V30 5690 O 545.565 1.8285 0.545009 0
M  V30 5691 C 542.705 3.40927 0.53508 0
M  V30 5692 C 541.818 4.30354 -0.376749 0
M  V30 5693 C 540.953 5.29297 0.449276 0
M  V30 5694 C 539.992 6.10365 -0.460606 0
M  V30 5695 N 539.129 7.01335 0.327612 0
M  V30 5696 H 543.969 2.76817 -1.10346 0
M  V30 5697 H 541.506 1.36203 -0.555611 0
M  V30 5698 H 543.464 4.04469 1.02278 0
M  V30 5699 H 542.094 2.94391 1.32414 0
M  V30 5700 H 541.146 3.67485 -0.982791 0
M  V30 5701 H 542.458 4.87067 -1.07549 0
M  V30 5702 H 541.612 5.98392 1.00058 0
M  V30 5703 H 540.351 4.73174 1.18143 0
M  V30 5704 H 539.356 5.40182 -1.02388 0
M  V30 5705 H 540.581 6.68571 -1.1912 0
M  V30 5706 H 538.527 6.47655 1.04305 0
M  V30 5707 H 538.444 7.55355 -0.3123 0
M  V30 5708 H 539.712 7.74731 0.86098 0
M  V30 5709 N 543.941 0.601185 1.45683 0
M  V30 5710 C 545.352 0.179659 1.85834 0
M  V30 5711 C 545.703 -1.26189 1.50236 0
M  V30 5712 O 544.828 -1.95587 0.925987 0
M  V30 5713 C 545.423 0.319277 3.37292 0
M  V30 5714 C 543.982 -0.0475092 3.7637 0
M  V30 5715 C 543.129 0.646692 2.69654 0
M  V30 5716 H 546.08 0.808268 1.36575 0
M  V30 5717 H 546.101 -0.4503 3.77826 0
M  V30 5718 H 545.613 1.36855 3.6317 0
M  V30 5719 H 543.714 -1.0962 3.5611 0
M  V30 5720 H 543.827 0.34168 4.7788 0
M  V30 5721 H 542.191 0.0849971 2.54558 0
M  V30 5722 H 542.974 1.69797 2.98369 0
M  V30 5723 N 545.419 -1.53889 0.339982 0
M  V30 5724 C 546.668 -2.00035 -0.258604 0
M  V30 5725 C 546.981 -1.23179 -1.51942 0
M  V30 5726 O 548.187 -1.59784 -2.19503 0
M  V30 5727 C 546.643 -3.56249 -0.511359 0
M  V30 5728 C 546.251 -4.41957 0.733349 0
M  V30 5729 C 547.995 -4.1082 -1.069 0
M  V30 5730 C 545.902 -5.89673 0.451591 0
M  V30 5731 H 544.832 -0.747284 -0.10041 0
M  V30 5732 H 547.483 -1.77776 0.454758 0
M  V30 5733 H 545.865 -3.7456 -1.28533 0
M  V30 5734 H 547.039 -4.35421 1.50815 0
M  V30 5735 H 545.354 -3.9836 1.21237 0
M  V30 5736 H 547.951 -5.18789 -1.2947 0
M  V30 5737 H 548.294 -3.63817 -2.02343 0
M  V30 5738 H 548.827 -3.96205 -0.355817 0
M  V30 5739 H 545.566 -6.40903 1.37565 0
M  V30 5740 H 545.086 -5.99122 -0.285193 0
M  V30 5741 H 546.765 -6.46965 0.0675067 0
M  V30 5742 N 546.897 -0.0685191 -1.57451 0
M  V30 5743 C 547.829 0.929372 -2.09512 0
M  V30 5744 C 548.842 1.26354 -1.02657 0
M  V30 5745 O 550.031 1.2213 -1.30179 0
M  V30 5746 C 547.131 2.24612 -2.53777 0
M  V30 5747 C 546.304 2.09128 -3.84167 0
M  V30 5748 C 545.363 3.24079 -4.14559 0
M  V30 5749 O 544.389 2.99215 -4.8421 0
M  V30 5750 N 545.591 4.49077 -3.67845 0
M  V30 5751 H 548.356 0.484901 -2.95751 0
M  V30 5752 H 545.917 0.11729 -1.61475 0
M  V30 5753 H 547.909 3.00412 -2.71172 0
M  V30 5754 H 546.479 2.60569 -1.72692 0
M  V30 5755 H 545.699 1.17815 -3.76182 0
M  V30 5756 H 546.987 1.9603 -4.69521 0
M  V30 5757 H 546.385 4.72165 -3.11571 0
M  V30 5758 H 544.942 5.21915 -3.90446 0
M  V30 5759 N 548.375 1.56261 0.205012 0
M  V30 5760 C 549.652 1.70856 0.952233 0
M  V30 5761 C 550.032 0.620501 2.01775 0
M  V30 5762 O 549.38 -0.370035 2.25484 0
M  V30 5763 C 549.59 3.12807 1.54767 0
M  V30 5764 C 550.938 3.72733 2.0336 0
M  V30 5765 O 551.962 3.15873 1.64629 0
M  V30 5766 O 550.821 4.72501 2.746 0
M  V30 5767 H 547.915 0.696496 0.445895 0
M  V30 5768 H 550.461 1.6857 0.195489 0
M  V30 5769 H 549.233 3.83465 0.779132 0
M  V30 5770 H 548.856 3.1928 2.36951 0
M  V30 5771 N 549.853 -0.472356 1.50355 0
M  V30 5772 C 551.13 -1.23356 1.51798 0
M  V30 5773 C 551.51 -2.09469 0.26193 0
M  V30 5774 O 550.858 -2.15677 -0.754691 0
M  V30 5775 C 551.068 -2.06568 2.81302 0
M  V30 5776 C 552.416 -2.648 3.31913 0
M  V30 5777 O 553.44 -2.16812 2.82614 0
M  V30 5778 O 552.299 -3.52231 4.17846 0
M  V30 5779 H 549.393 -0.559707 0.608816 0
M  V30 5780 H 551.939 -0.48428 1.62643 0
M  V30 5781 H 550.711 -1.43103 3.64194 0
M  V30 5782 H 550.334 -2.88633 2.73454 0
M  V30 5783 N 551.331 -1.39911 -0.725443 0
M  V30 5784 C 552.58 -1.36963 -1.48068 0
M  V30 5785 C 552.893 0.0284478 -1.95579 0
M  V30 5786 O 554.099 0.180535 -2.70899 0
M  V30 5787 C 552.555 -2.40664 -2.67598 0
M  V30 5788 C 552.163 -3.86234 -2.26997 0
M  V30 5789 C 553.907 -2.46807 -3.45379 0
M  V30 5790 C 551.814 -4.81554 -3.43307 0
M  V30 5791 H 550.744 -0.509223 -0.556065 0
M  V30 5792 H 553.395 -1.65602 -0.790454 0
M  V30 5793 H 551.777 -2.05109 -3.38742 0
M  V30 5794 H 552.951 -4.3088 -1.63337 0
M  V30 5795 H 551.266 -3.83475 -1.62284 0
M  V30 5796 H 553.863 -3.15213 -4.31909 0
M  V30 5797 H 554.206 -1.49552 -3.8851 0
M  V30 5798 H 554.739 -2.81303 -2.81271 0
M  V30 5799 H 551.478 -5.80106 -3.05217 0
M  V30 5800 H 550.998 -4.4158 -4.05915 0
M  V30 5801 H 552.677 -5.0091 -4.0951 0
M  V30 5802 N 552.809 0.956637 -1.25245 0
M  V30 5803 C 554.225 1.22733 -1.02023 0
M  V30 5804 C 554.425 1.99761 0.264186 0
M  V30 5805 O 553.481 2.32814 0.977436 0
M  V30 5806 C 554.794 2.00367 -2.24217 0
M  V30 5807 C 556.342 2.13418 -2.28958 0
M  V30 5808 C 556.817 2.9445 -3.50803 0
M  V30 5809 N 558.308 3.02029 -3.51187 0
M  V30 5810 C 559.043 3.65116 -4.42129 0
M  V30 5811 N 558.539 4.2983 -5.43339 0
M  V30 5812 N 560.332 3.62237 -4.29815 0
M  V30 5813 H 552.483 0.441282 -2.07765 0
M  V30 5814 H 554.746 0.257686 -0.912306 0
M  V30 5815 H 554.452 1.51165 -3.17556 0
M  V30 5816 H 554.326 3.01077 -2.27228 0
M  V30 5817 H 556.713 2.61819 -1.36143 0
M  V30 5818 H 556.794 1.1202 -2.29968 0
M  V30 5819 H 556.438 2.46741 -4.43939 0
M  V30 5820 H 556.368 3.9607 -3.47039 0
M  V30 5821 H 558.859 2.56007 -2.77973 0
M  V30 5822 H 559.172 4.75819 -6.08947 0
M  V30 5823 H 557.517 4.28465 -5.47214 0
M  V30 5824 H 560.708 3.10863 -3.49974 0
M  V30 5825 H 560.881 4.11117 -5.00886 0
M  V30 5826 N 554.287 1.06798 1.15896 0
M  V30 5827 C 555.237 0.653213 2.18443 0
M  V30 5828 C 556.221 -0.318763 1.57711 0
M  V30 5829 O 557.413 -0.133388 1.76497 0
M  V30 5830 C 554.542 0.0465785 3.43268 0
M  V30 5831 C 553.628 1.04336 4.11066 0
M  V30 5832 N 554.019 2.22084 4.54436 0
M  V30 5833 C 552.317 0.875433 4.37324 0
M  V30 5834 C 553.018 2.85276 5.06944 0
M  V30 5835 N 551.994 2.12973 5.00143 0
M  V30 5836 H 555.796 1.55011 2.49698 0
M  V30 5837 H 553.31 0.940384 1.32403 0
M  V30 5838 H 555.307 -0.26843 4.16035 0
M  V30 5839 H 553.967 -0.845504 3.13499 0
M  V30 5840 H 554.978 2.59833 4.48004 0
M  V30 5841 H 551.655 0.0357721 4.17485 0
M  V30 5842 H 553.045 3.85223 5.50503 0
M  V30 5843 N 555.766 -1.3263 0.851289 0
M  V30 5844 C 556.729 -2.27247 0.298541 0
M  V30 5845 C 557.729 -1.51467 -0.539847 0
M  V30 5846 O 558.919 -1.7061 -0.351843 0
M  V30 5847 C 556.051 -3.35964 -0.578004 0
M  V30 5848 H 557.244 -2.7765 1.13359 0
M  V30 5849 H 554.797 -1.43245 0.625354 0
M  V30 5850 H 555.532 -2.90823 -1.435 0
M  V30 5851 H 555.317 -3.92094 0.0220539 0
M  V30 5852 H 556.807 -4.06472 -0.957626 0
M  V30 5853 N 557.244 -0.608902 -1.45362 0
M  V30 5854 C 558.176 0.147318 -2.28726 0
M  V30 5855 C 559.189 0.830468 -1.40025 0
M  V30 5856 O 560.378 0.695636 -1.64387 0
M  V30 5857 C 557.478 1.22968 -3.15804 0
M  V30 5858 C 556.651 0.633391 -4.3279 0
M  V30 5859 C 555.71 1.60682 -5.01067 0
M  V30 5860 O 554.736 1.13261 -5.57818 0
M  V30 5861 N 555.938 2.94123 -5.00472 0
M  V30 5862 H 558.703 -0.568014 -2.94268 0
M  V30 5863 H 556.264 -0.448479 -1.55564 0
M  V30 5864 H 558.256 1.88072 -3.58345 0
M  V30 5865 H 556.826 1.84752 -2.52162 0
M  V30 5866 H 556.046 -0.195762 -3.93714 0
M  V30 5867 H 557.334 0.215255 -5.08344 0
M  V30 5868 H 556.732 3.3525 -4.55657 0
M  V30 5869 H 555.289 3.54646 -5.46872 0
M  V30 5870 N 558.722 1.53707 -0.348139 0
M  V30 5871 C 559.968 2.01979 0.239986 0
M  V30 5872 C 560.323 1.23141 1.47831 0
M  V30 5873 O 559.616 0.311936 1.89044 0
M  V30 5874 C 559.81 3.52292 0.602061 0
M  V30 5875 C 559.639 4.45684 -0.599625 0
M  V30 5876 C 558.409 4.9304 -1.10635 0
M  V30 5877 C 560.607 4.93156 -1.4595 0
M  V30 5878 N 558.589 5.70394 -2.26988 0
M  V30 5879 C 559.96 5.6868 -2.46988 0
M  V30 5880 C 562.015 4.75257 -1.48441 0
M  V30 5881 C 560.718 6.28208 -3.50353 0
M  V30 5882 C 562.744 5.35639 -2.50689 0
M  V30 5883 C 562.106 6.11034 -3.50453 0
M  V30 5884 H 558.205 0.780335 0.0509992 0
M  V30 5885 H 560.789 1.88466 -0.488742 0
M  V30 5886 H 558.96 3.66002 1.29989 0
M  V30 5887 H 560.692 3.87304 1.17377 0
M  V30 5888 H 557.447 4.68784 -0.67371 0
M  V30 5889 H 557.871 6.13741 -2.85747 0
M  V30 5890 H 562.513 4.16508 -0.726707 0
M  V30 5891 H 560.231 6.86064 -4.27015 0
M  V30 5892 H 563.817 5.23693 -2.53449 0
M  V30 5893 H 562.697 6.56925 -4.28275 0
M  V30 5894 N 560.2 0.0768682 1.57412 0
M  V30 5895 C 561.616 -0.279772 1.57129 0
M  V30 5896 C 561.816 -1.69688 1.08666 0
M  V30 5897 O 560.872 -2.40953 0.754843 0
M  V30 5898 C 562.185 -0.0848055 3.0058 0
M  V30 5899 C 563.733 -0.153954 3.12621 0
M  V30 5900 C 564.208 0.0127946 4.57998 0
M  V30 5901 N 565.699 -0.0426435 4.6318 0
M  V30 5902 C 566.434 0.0618892 5.73367 0
M  V30 5903 N 565.93 0.220229 6.9245 0
M  V30 5904 N 567.723 0.00446072 5.621 0
M  V30 5905 H 559.874 1.00297 1.87228 0
M  V30 5906 H 562.137 0.391565 0.863354 0
M  V30 5907 H 561.843 0.89325 3.40168 0
M  V30 5908 H 561.717 -0.834961 3.67843 0
M  V30 5909 H 564.104 -1.1225 2.72917 0
M  V30 5910 H 564.185 0.627389 2.47987 0
M  V30 5911 H 563.829 0.978128 4.98392 0
M  V30 5912 H 563.759 -0.788016 5.20671 0
M  V30 5913 H 566.25 -0.163226 3.77547 0
M  V30 5914 H 566.563 0.291999 7.72248 0
M  V30 5915 H 564.908 0.255658 6.9453 0
M  V30 5916 H 568.099 -0.117979 4.67951 0
M  V30 5917 H 568.272 0.0893796 6.47938 0
M  V30 5918 N 561.678 -1.56367 -0.196722 0
M  V30 5919 C 562.924 -1.81698 -0.914182 0
M  V30 5920 C 563.279 -0.65367 -1.80956 0
M  V30 5921 O 562.572 0.351224 -1.88353 0
M  V30 5922 C 562.766 -3.10663 -1.767 0
M  V30 5923 C 562.595 -4.39428 -0.955689 0
M  V30 5924 C 561.365 -5.01221 -0.64076 0
M  V30 5925 C 563.563 -5.1337 -0.309165 0
M  V30 5926 N 561.545 -6.13608 0.189358 0
M  V30 5927 C 562.916 -6.18815 0.383225 0
M  V30 5928 C 564.971 -4.97393 -0.224726 0
M  V30 5929 C 563.674 -7.10015 1.15201 0
M  V30 5930 C 565.7 -5.89014 0.530658 0
M  V30 5931 C 565.062 -6.93903 1.2115 0
M  V30 5932 H 561.161 -0.716203 -0.31397 0
M  V30 5933 H 563.745 -1.93838 -0.18304 0
M  V30 5934 H 561.916 -2.99762 -2.46976 0
M  V30 5935 H 563.648 -3.24088 -2.42382 0
M  V30 5936 H 560.403 -4.63669 -0.96479 0
M  V30 5937 H 560.827 -6.74389 0.593979 0
M  V30 5938 H 565.469 -4.16331 -0.736754 0
M  V30 5939 H 563.187 -7.9054 1.67547 0
M  V30 5940 H 566.773 -5.78726 0.597326 0
M  V30 5941 H 565.653 -7.63576 1.78665 0
M  V30 5942 N 563.156 0.464375 -1.50603 0
M  V30 5943 C 564.433 1.22549 -1.5245 0
M  V30 5944 C 564.813 2.09327 -0.273035 0
M  V30 5945 O 564.161 2.16074 0.743242 0
M  V30 5946 C 564.371 2.05074 -2.82393 0
M  V30 5947 C 565.719 2.63036 -3.33313 0
M  V30 5948 O 566.743 2.1531 -2.8376 0
M  V30 5949 O 565.602 3.5001 -4.19709 0
M  V30 5950 H 562.696 0.556471 -0.611775 0
M  V30 5951 H 565.242 0.475648 -1.62898 0
M  V30 5952 H 564.014 1.41169 -3.64948 0
M  V30 5953 H 563.637 2.87179 -2.7498 0
M  V30 5954 N 564.634 1.40294 0.718013 0
M  V30 5955 C 565.564 1.43118 1.84498 0
M  V30 5956 C 566.545 0.292403 1.67568 0
M  V30 5957 O 567.73 0.500675 1.87635 0
M  V30 5958 C 564.86 1.29065 3.22427 0
M  V30 5959 C 563.814 2.40521 3.54025 0
M  V30 5960 C 563.14 2.11546 4.91073 0
M  V30 5961 C 564.44 3.82859 3.55269 0
M  V30 5962 H 566.134 2.37432 1.82391 0
M  V30 5963 H 563.68 1.14283 0.87609 0
M  V30 5964 H 565.633 1.29658 4.00957 0
M  V30 5965 H 564.357 0.312271 3.25104 0
M  V30 5966 H 563.016 2.39173 2.77834 0
M  V30 5967 H 562.664 1.12104 4.90348 0
M  V30 5968 H 562.364 2.86216 5.1318 0
M  V30 5969 H 563.888 2.13817 5.71939 0
M  V30 5970 H 565.302 3.86044 4.23843 0
M  V30 5971 H 563.699 4.57029 3.88902 0
M  V30 5972 H 564.769 4.12617 2.54706 0
M  V30 5973 N 566.112 -0.949982 1.2575 0
M  V30 5974 C 567.075 -2.02894 1.06615 0
M  V30 5975 C 568.075 -1.60791 0.0173905 0
M  V30 5976 O 569.265 -1.72249 0.260003 0
M  V30 5977 C 566.397 -3.35219 0.619751 0
M  V30 5978 H 567.59 -2.21302 2.02399 0
M  V30 5979 H 565.143 -1.12772 1.08223 0
M  V30 5980 H 565.878 -3.22508 -0.340486 0
M  V30 5981 H 565.663 -3.67129 1.37692 0
M  V30 5982 H 567.153 -4.14505 0.507443 0
M  V30 5983 N 567.59 -1.07411 -1.15328 0
M  V30 5984 C 568.839 -0.792643 -1.85473 0
M  V30 5985 C 569.152 0.683789 -1.83259 0
M  V30 5986 O 570.358 1.08005 -2.49093 0
M  V30 5987 C 568.814 -1.36787 -3.32892 0
M  V30 5988 C 568.422 -2.87536 -3.43551 0
M  V30 5989 C 570.166 -1.16444 -4.08217 0
M  V30 5990 C 568.073 -3.38247 -4.85122 0
M  V30 5991 H 567.003 -0.292838 -0.694811 0
M  V30 5992 H 569.654 -1.29426 -1.30082 0
M  V30 5993 H 568.036 -0.793993 -3.87958 0
M  V30 5994 H 569.21 -3.50973 -2.98588 0
M  V30 5995 H 567.525 -3.06676 -2.81672 0
M  V30 5996 H 570.122 -1.51808 -5.12697 0
M  V30 5997 H 570.465 -0.10353 -4.16171 0
M  V30 5998 H 570.998 -1.70472 -3.59422 0
M  V30 5999 H 567.737 -4.43866 -4.82351 0
M  V30 6000 H 567.257 -2.79564 -5.30664 0
M  V30 6001 H 568.936 -3.34238 -5.5398 0
M  V30 6002 N 569.068 1.32177 -0.85831 0
M  V30 6003 C 570.031 2.27086 -0.310588 0
M  V30 6004 C 571.031 1.51751 0.531806 0
M  V30 6005 O 572.221 1.70794 0.34279 0
M  V30 6006 C 569.353 3.36266 0.560179 0
M  V30 6007 H 570.546 2.77045 -1.1483 0
M  V30 6008 H 568.099 1.42911 -0.632942 0
M  V30 6009 H 568.834 2.9158 1.41956 0
M  V30 6010 H 568.619 3.92077 -0.0428473 0
M  V30 6011 H 570.109 4.06974 0.936056 0
M  V30 6012 N 570.547 0.616602 1.45037 0
M  V30 6013 C 571.772 0.120192 2.07051 0
M  V30 6014 C 572.197 -1.19008 1.45666 0
M  V30 6015 O 571.555 -1.7267 0.552692 0
M  V30 6016 C 571.603 0.00354901 3.606 0
M  V30 6017 O 570.707 -1.04431 3.98958 0
M  V30 6018 H 570.048 0.0781599 0.659384 0
M  V30 6019 H 572.578 0.849167 1.86146 0
M  V30 6020 H 572.588 -0.191754 4.07549 0
M  V30 6021 H 571.263 0.960239 4.04663 0
M  V30 6022 H 569.84 -0.824749 3.63665 0
M  V30 6023 N 572.025 -1.5352 0.356285 0
M  V30 6024 C 572.975 -2.22204 -0.510815 0
M  V30 6025 C 573.959 -1.21393 -1.05605 0
M  V30 6026 O 575.151 -1.46883 -0.987639 0
M  V30 6027 C 572.28 -3.00786 -1.65478 0
M  V30 6028 C 571.366 -4.08965 -1.12287 0
M  V30 6029 N 571.757 -5.04829 -0.313191 0
M  V30 6030 C 570.055 -4.23505 -1.39856 0
M  V30 6031 C 570.756 -5.81695 -0.0230322 0
M  V30 6032 N 569.732 -5.40074 -0.618144 0
M  V30 6033 H 573.534 -2.93676 0.114711 0
M  V30 6034 H 571.048 -1.61572 0.163811 0
M  V30 6035 H 573.045 -3.48502 -2.28806 0
M  V30 6036 H 571.705 -2.30843 -2.28345 0
M  V30 6037 H 572.716 -5.17879 0.0468202 0
M  V30 6038 H 569.393 -3.64786 -2.0307 0
M  V30 6039 H 570.783 -6.68931 0.630927 0
M  V30 6040 N 573.503 -0.0852151 -1.57369 0
M  V30 6041 C 574.751 0.579658 -1.93609 0
M  V30 6042 C 575.072 1.69332 -0.967043 0
M  V30 6043 O 574.342 1.95892 -0.0174215 0
M  V30 6044 H 572.922 0.217113 -0.714752 0
M  V30 6045 H 575.584 -0.146226 -1.94351 0
M  V30 6046 H 574.68 0.996276 -2.95771 0
M  V30 6047 N 574.981 1.5647 0.188427 0
M  V30 6048 C 576.23 1.80207 0.905995 0
M  V30 6049 C 576.543 0.659579 1.84144 0
M  V30 6050 O 577.749 0.781431 2.60011 0
M  V30 6051 C 576.205 3.19255 1.66145 0
M  V30 6052 C 575.813 4.41324 0.770504 0
M  V30 6053 C 577.557 3.52298 2.36826 0
M  V30 6054 C 575.464 5.71394 1.52521 0
M  V30 6055 H 574.394 0.671953 0.342045 0
M  V30 6056 H 577.045 1.82808 0.159164 0
M  V30 6057 H 575.427 3.10922 2.45242 0
M  V30 6058 H 576.601 4.60797 0.0177261 0
M  V30 6059 H 574.916 4.16035 0.174199 0
M  V30 6060 H 577.513 4.46715 2.93854 0
M  V30 6061 H 577.856 2.76359 3.11338 0
M  V30 6062 H 578.389 3.62108 1.6469 0
M  V30 6063 H 575.128 6.50316 0.82275 0
M  V30 6064 H 574.648 5.55928 2.25175 0
M  V30 6065 H 576.327 6.12747 2.07725 0
M  V30 6066 N 576.459 -0.456382 1.50847 0
M  V30 6067 C 577.409 -1.55045 1.67168 0
M  V30 6068 C 578.393 -1.52061 0.525958 0
M  V30 6069 O 579.585 -1.58836 0.781036 0
M  V30 6070 C 576.714 -2.93386 1.78268 0
M  V30 6071 C 575.8 -3.01198 2.98564 0
M  V30 6072 N 576.191 -2.78792 4.22029 0
M  V30 6073 C 574.489 -3.32346 2.97426 0
M  V30 6074 C 575.19 -2.91953 5.03128 0
M  V30 6075 N 574.166 -3.22797 4.37382 0
M  V30 6076 H 577.968 -1.36444 2.60308 0
M  V30 6077 H 575.482 -0.663375 1.48233 0
M  V30 6078 H 577.479 -3.72071 1.88067 0
M  V30 6079 H 576.139 -3.13022 0.862965 0
M  V30 6080 H 577.15 -2.54087 4.51287 0
M  V30 6081 H 573.827 -3.57877 2.15012 0
M  V30 6082 H 575.217 -2.78745 6.11351 0
M  V30 6083 N 577.937 -1.40673 -0.710563 0
M  V30 6084 C 578.87 -1.35742 -1.83438 0
M  V30 6085 C 579.848 -0.226997 -1.61008 0
M  V30 6086 O 581.032 -0.411477 -1.83954 0
M  V30 6087 C 578.159 -1.11374 -3.19865 0
M  V30 6088 C 577.205 -2.26935 -3.61113 0
M  V30 6089 S 578.038 -3.89352 -3.67648 0
M  V30 6090 C 579.194 -3.67258 -5.06826 0
M  V30 6091 H 579.427 -2.30848 -1.87341 0
M  V30 6092 H 576.96 -1.27018 -0.877831 0
M  V30 6093 H 578.918 -0.980004 -3.9863 0
M  V30 6094 H 577.579 -0.179135 -3.13589 0
M  V30 6095 H 576.772 -2.0554 -4.60184 0
M  V30 6096 H 576.374 -2.36638 -2.89618 0
M  V30 6097 H 578.666 -3.26036 -5.93891 0
M  V30 6098 H 579.609 -4.65878 -5.33257 0
M  V30 6099 H 580.017 -3.0084 -4.77656 0
M  V30 6100 N 579.415 0.9433 -1.26252 0
M  V30 6101 C 580.365 2.02746 -1.04297 0
M  V30 6102 C 581.349 1.60882 0.0239435 0
M  V30 6103 O 582.541 1.75947 -0.192757 0
M  V30 6104 C 579.67 3.36585 -0.6757 0
M  V30 6105 C 578.756 3.84939 -1.77996 0
M  V30 6106 N 579.147 4.05966 -3.01704 0
M  V30 6107 C 577.445 4.13833 -1.66308 0
M  V30 6108 C 578.146 4.45987 -3.73458 0
M  V30 6109 N 577.122 4.52569 -3.01135 0
M  V30 6110 H 580.924 2.17012 -1.98199 0
M  V30 6111 H 578.438 1.12898 -1.16738 0
M  V30 6112 H 580.435 4.13896 -0.499571 0
M  V30 6113 H 579.095 3.2369 0.255863 0
M  V30 6114 H 580.106 3.92716 -3.37631 0
M  V30 6115 H 576.783 4.09739 -0.801267 0
M  V30 6116 H 578.173 4.70465 -4.79701 0
M  V30 6117 N 580.893 1.08022 1.14757 0
M  V30 6118 C 581.856 0.71048 2.1791 0
M  V30 6119 C 582.856 -0.252731 1.58801 0
M  V30 6120 O 584.046 -0.0327915 1.74169 0
M  V30 6121 C 581.178 0.0483203 3.40866 0
M  V30 6122 H 582.371 1.62384 2.52134 0
M  V30 6123 H 579.924 0.877595 1.29337 0
M  V30 6124 H 580.659 -0.876959 3.12218 0
M  V30 6125 H 580.444 0.741189 3.85031 0
M  V30 6126 H 581.934 -0.195471 4.17142 0
M  V30 6127 N 582.371 -1.3172 0.865308 0
M  V30 6128 C 583.782 -1.79104 0.527126 0
M  V30 6129 C 584.133 -1.7135 -0.955695 0
M  V30 6130 O 583.258 -1.27845 -1.74598 0
M  V30 6131 C 583.853 -3.25207 0.950061 0
M  V30 6132 C 582.412 -3.70504 0.663611 0
M  V30 6133 C 581.559 -2.52605 1.14395 0
M  V30 6134 H 584.51 -1.18868 1.05148 0
M  V30 6135 H 584.531 -3.79535 0.270805 0
M  V30 6136 H 584.043 -3.30818 2.02931 0
M  V30 6137 H 582.144 -3.70398 -0.404474 0
M  V30 6138 H 582.257 -4.62845 1.23737 0
M  V30 6139 H 580.621 -2.4838 0.563859 0
M  V30 6140 H 581.404 -2.60964 2.23053 0
M  V30 6141 N 583.85 -0.624285 -1.44708 0
M  V30 6142 C 584.76 0.0861083 -2.34442 0
M  V30 6143 C 585.776 0.84291 -1.5222 0
M  V30 6144 O 586.952 0.796723 -1.84971 0
M  V30 6145 C 584.017 1.05999 -3.30099 0
M  V30 6146 C 583.077 0.303316 -4.28227 0
M  V30 6147 C 582.311 1.23081 -5.19314 0
M  V30 6148 O 582.534 2.46929 -5.14181 0
M  V30 6149 O 581.468 0.71883 -5.97592 0
M  V30 6150 H 585.293 -0.651756 -2.96624 0
M  V30 6151 H 582.879 -0.384493 -1.44368 0
M  V30 6152 H 584.76 1.62046 -3.88997 0
M  V30 6153 H 583.436 1.77859 -2.70459 0
M  V30 6154 H 582.343 -0.300033 -3.72895 0
M  V30 6155 H 583.676 -0.375123 -4.90768 0
M  V30 6156 N 585.328 1.53329 -0.364422 0
M  V30 6157 C 586.238 2.29414 0.490552 0
M  V30 6158 C 587.254 1.35335 1.09363 0
M  V30 6159 O 588.43 1.68391 1.10483 0
M  V30 6160 C 585.495 3.06772 1.61529 0
M  V30 6161 C 584.556 4.16516 1.03986 0
M  V30 6162 C 583.789 4.90176 2.111 0
M  V30 6163 O 584.012 4.63687 3.32191 0
M  V30 6164 O 582.946 5.76134 1.74222 0
M  V30 6165 H 586.772 3.03428 -0.12856 0
M  V30 6166 H 584.357 1.48843 -0.128837 0
M  V30 6167 H 586.239 3.55082 2.26924 0
M  V30 6168 H 584.914 2.35596 2.21983 0
M  V30 6169 H 583.821 3.7246 0.349856 0
M  V30 6170 H 585.154 4.89855 0.4799 0
M  V30 6171 N 586.806 0.0935595 1.57322 0
M  V30 6172 C 588.054 -0.569383 1.93913 0
M  V30 6173 C 588.375 -1.68817 0.976009 0
M  V30 6174 O 587.645 -1.9588 0.0278099 0
M  V30 6175 H 586.225 -0.21332 0.715894 0
M  V30 6176 H 588.887 0.156531 1.9427 0
M  V30 6177 H 587.983 -0.980577 2.96296 0
M  V30 6178 N 588.284 -1.56567 -0.180126 0
M  V30 6179 C 589.214 -1.98753 -1.22553 0
M  V30 6180 C 590.195 -0.86175 -1.46656 0
M  V30 6181 O 591.38 -1.12719 -1.58139 0
M  V30 6182 C 588.51 -2.33988 -2.56645 0
M  V30 6183 C 587.464 -3.49445 -2.47128 0
M  V30 6184 C 586.79 -3.70397 -3.8563 0
M  V30 6185 C 588.09 -4.83171 -1.98352 0
M  V30 6186 H 589.784 -2.86332 -0.874896 0
M  V30 6187 H 587.33 -1.37757 -0.419414 0
M  V30 6188 H 589.283 -2.62097 -3.29974 0
M  V30 6189 H 588.007 -1.43309 -2.93479 0
M  V30 6190 H 586.666 -3.2145 -1.76254 0
M  V30 6191 H 586.314 -2.77023 -4.19842 0
M  V30 6192 H 586.014 -4.48077 -3.80132 0
M  V30 6193 H 587.538 -4.00897 -4.60558 0
M  V30 6194 H 588.952 -5.10213 -2.61449 0
M  V30 6195 H 587.349 -5.64425 -2.03823 0
M  V30 6196 H 588.419 -4.75753 -0.937402 0
M  V30 6197 N 589.762 0.448376 -1.51087 0
M  V30 6198 C 591.178 0.783984 -1.39017 0
M  V30 6199 C 591.378 1.96087 -0.463904 0
M  V30 6200 O 590.434 2.52357 0.0850534 0
M  V30 6201 C 591.747 1.07471 -2.80839 0
M  V30 6202 C 593.295 1.17981 -2.89913 0
M  V30 6203 C 593.77 1.50354 -4.32617 0
M  V30 6204 N 595.261 1.57301 -4.35673 0
M  V30 6205 C 595.996 1.839 -5.4311 0
M  V30 6206 N 595.492 2.08365 -6.60724 0
M  V30 6207 N 597.285 1.8559 -5.30578 0
M  V30 6208 H 589.436 -0.326881 -2.0987 0
M  V30 6209 H 591.699 -0.0838006 -0.944289 0
M  V30 6210 H 591.405 0.282768 -3.50561 0
M  V30 6211 H 591.279 2.00519 -3.19487 0
M  V30 6212 H 593.666 1.9624 -2.20395 0
M  V30 6213 H 593.747 0.228603 -2.54776 0
M  V30 6214 H 593.391 0.726273 -5.0268 0
M  V30 6215 H 593.321 2.46663 -4.65258 0
M  V30 6216 H 595.812 1.40342 -3.50874 0
M  V30 6217 H 596.125 2.27999 -7.38401 0
M  V30 6218 H 594.47 2.0571 -6.63859 0
M  V30 6219 H 597.661 1.65989 -4.37682 0
M  V30 6220 H 597.834 2.05983 -6.1439 0
M  V30 6221 N 591.24 1.41047 0.703093 0
M  V30 6222 C 592.173 1.36713 1.82715 0
M  V30 6223 C 593.151 0.235533 1.60885 0
M  V30 6224 O 594.335 0.421227 1.83733 0
M  V30 6225 C 591.462 1.13069 3.1927 0
M  V30 6226 C 590.508 2.28846 3.59905 0
M  V30 6227 S 591.341 3.91297 3.65578 0
M  V30 6228 C 592.497 3.69941 5.04871 0
M  V30 6229 H 592.73 2.31838 1.86114 0
M  V30 6230 H 590.263 1.27481 0.871083 0
M  V30 6231 H 592.221 1.00113 3.98105 0
M  V30 6232 H 590.882 0.195763 3.13489 0
M  V30 6233 H 590.075 2.07977 4.59088 0
M  V30 6234 H 589.677 2.3817 2.88359 0
M  V30 6235 H 591.969 3.29181 5.92154 0
M  V30 6236 H 592.912 4.68699 5.30779 0
M  V30 6237 H 593.32 3.03369 4.76054 0
M  V30 6238 N 592.718 -0.936591 1.26751 0
M  V30 6239 C 593.648 -2.05315 1.11212 0
M  V30 6240 C 594.629 -1.70092 0.0160262 0
M  V30 6241 O 595.814 -1.93279 0.188894 0
M  V30 6242 C 592.944 -3.39123 0.749171 0
M  V30 6243 C 591.898 -3.88425 1.79751 0
M  V30 6244 C 591.224 -5.18936 1.28876 0
M  V30 6245 C 592.524 -4.12798 3.19992 0
M  V30 6246 H 594.218 -2.18573 2.04613 0
M  V30 6247 H 591.764 -1.05027 0.985159 0
M  V30 6248 H 593.717 -4.16704 0.627323 0
M  V30 6249 H 592.441 -3.25855 -0.220543 0
M  V30 6250 H 591.1 -3.13028 1.90811 0
M  V30 6251 H 590.748 -5.02051 0.308757 0
M  V30 6252 H 590.448 -5.52892 1.98958 0
M  V30 6253 H 591.972 -5.99096 1.17967 0
M  V30 6254 H 593.386 -4.80977 3.11983 0
M  V30 6255 H 591.783 -4.58044 3.87705 0
M  V30 6256 H 592.853 -3.18412 3.65707 0
M  V30 6257 N 594.196 -1.08629 -1.14182 0
M  V30 6258 C 595.444 -0.815731 -1.84906 0
M  V30 6259 C 595.765 0.660441 -1.83475 0
M  V30 6260 O 595.035 1.47888 -1.28476 0
M  V30 6261 H 593.615 -0.298773 -0.684648 0
M  V30 6262 H 596.277 -1.37274 -1.38354 0
M  V30 6263 H 595.373 -1.16193 -2.89665 0
M  V30 6264 N 595.674 1.31259 -0.872281 0
M  V30 6265 C 596.902 2.00795 -0.498907 0
M  V30 6266 C 597.317 1.65464 0.909238 0
M  V30 6267 O 596.674 0.885073 1.59602 0
M  V30 6268 C 596.725 3.55625 -0.649092 0
M  V30 6269 O 596.446 3.89692 -2.00179 0
M  V30 6270 C 597.947 4.42434 -0.277034 0
M  V30 6271 H 595.167 0.642299 -0.194145 0
M  V30 6272 H 597.711 1.67438 -1.17408 0
M  V30 6273 H 595.866 3.87394 -0.0214402 0
M  V30 6274 H 596.28 4.84407 -2.01122 0
M  V30 6275 H 597.754 5.50299 -0.433064 0
M  V30 6276 H 598.231 4.32146 0.783989 0
M  V30 6277 H 598.837 4.16086 -0.880483 0
M  V30 6278 N 597.152 0.631951 1.44375 0
M  V30 6279 C 598.115 -0.0628142 2.29114 0
M  V30 6280 C 599.115 -0.771494 1.41084 0
M  V30 6281 O 600.305 -0.615959 1.62947 0
M  V30 6282 C 597.437 -1.09953 3.22681 0
M  V30 6283 H 598.63 0.682509 2.92031 0
M  V30 6284 H 596.183 0.392128 1.51301 0
M  V30 6285 H 596.918 -1.87481 2.64616 0
M  V30 6286 H 596.703 -0.595286 3.87555 0
M  V30 6287 H 598.193 -1.58538 3.86336 0
M  V30 6288 N 598.631 -1.53133 0.372548 0
M  V30 6289 C 599.564 -2.22328 -0.514361 0
M  V30 6290 C 600.542 -1.21776 -1.07747 0
M  V30 6291 O 601.726 -1.50704 -1.13228 0
M  V30 6292 C 598.853 -2.92343 -1.71035 0
M  V30 6293 C 597.899 -4.07026 -1.27405 0
M  V30 6294 S 598.732 -5.34821 -0.269526 0
M  V30 6295 C 599.888 -6.08352 -1.47168 0
M  V30 6296 H 600.121 -2.9721 0.0732683 0
M  V30 6297 H 597.654 -1.53603 0.156673 0
M  V30 6298 H 599.612 -3.33296 -2.39634 0
M  V30 6299 H 598.273 -2.17173 -2.26925 0
M  V30 6300 H 597.466 -4.55056 -2.16656 0
M  V30 6301 H 597.068 -3.68001 -0.66719 0
M  V30 6302 H 599.36 -6.33507 -2.40157 0
M  V30 6303 H 600.303 -7.0053 -1.03263 0
M  V30 6304 H 600.711 -5.38893 -1.6809 0
M  V30 6305 N 600.109 -0.101901 -1.5727 0
M  V30 6306 C 601.386 0.602832 -1.86079 0
M  V30 6307 C 601.766 1.85912 -1 0
M  V30 6308 O 601.114 2.28379 -0.0742488 0
M  V30 6309 C 601.324 0.911694 -3.36881 0
M  V30 6310 C 602.672 1.2722 -4.05093 0
M  V30 6311 O 603.696 1.0025 -3.41802 0
M  V30 6312 O 602.555 1.7776 -5.16782 0
M  V30 6313 H 599.649 0.302366 -0.769743 0
M  V30 6314 H 602.195 -0.135113 -1.69161 0
M  V30 6315 H 600.967 0.0207256 -3.91295 0
M  V30 6316 H 600.59 1.70538 -3.59169 0
M  V30 6317 N 601.587 1.56661 0.17182 0
M  V30 6318 C 602.534 1.96371 1.21273 0
M  V30 6319 C 603.504 0.82756 1.44016 0
M  V30 6320 O 604.689 1.08764 1.56764 0
M  V30 6321 C 601.829 2.32838 2.54716 0
M  V30 6322 C 600.942 3.59628 2.39356 0
M  V30 6323 C 600.077 3.85311 3.65662 0
M  V30 6324 C 599.116 5.0545 3.45234 0
M  V30 6325 N 598.253 5.27268 4.63608 0
M  V30 6326 H 603.093 2.85106 0.86709 0
M  V30 6327 H 600.63 1.41073 0.416744 0
M  V30 6328 H 602.588 2.52004 3.3249 0
M  V30 6329 H 601.218 1.47214 2.87277 0
M  V30 6330 H 600.27 3.4838 1.52761 0
M  V30 6331 H 601.582 4.4756 2.20207 0
M  V30 6332 H 600.736 4.04841 4.51872 0
M  V30 6333 H 599.475 2.95753 3.8779 0
M  V30 6334 H 598.48 4.85819 2.5741 0
M  V30 6335 H 599.705 5.96538 3.24529 0
M  V30 6336 H 597.651 4.40662 4.85956 0
M  V30 6337 H 597.568 6.09422 4.4737 0
M  V30 6338 H 598.836 5.51277 5.51103 0
M  V30 6339 N 603.065 -0.440357 1.51323 0
M  V30 6340 C 604.028 -1.51679 1.71832 0
M  V30 6341 C 605.028 -1.49648 0.588386 0
M  V30 6342 O 606.218 -1.51724 0.855891 0
M  V30 6343 C 603.35 -2.91228 1.77199 0
M  V30 6344 H 604.543 -1.34799 2.67898 0
M  V30 6345 H 602.096 -0.66883 1.41267 0
M  V30 6346 H 602.831 -3.13516 0.829363 0
M  V30 6347 H 602.616 -2.94107 2.59314 0
M  V30 6348 H 604.106 -3.69321 1.94915 0
M  V30 6349 N 604.543 -1.41418 -0.695603 0
M  V30 6350 C 605.506 -1.42988 -1.79129 0
M  V30 6351 C 606.506 -0.320514 -1.57573 0
M  V30 6352 O 607.696 -0.58039 -1.64247 0
M  V30 6353 C 604.828 -1.24122 -3.175 0
M  V30 6354 H 606.021 -2.40526 -1.7913 0
M  V30 6355 H 603.574 -1.2756 -0.903225 0
M  V30 6356 H 604.309 -0.274253 -3.23138 0
M  V30 6357 H 604.094 -2.045 -3.34547 0
M  V30 6358 H 605.584 -1.28056 -3.97481 0
M  V30 6359 N 606.021 0.929856 -1.27246 0
M  V30 6360 C 607.298 1.65544 -1.04186 0
M  V30 6361 C 607.678 2.06796 0.424097 0
M  V30 6362 O 607.026 1.80053 1.40688 0
M  V30 6363 C 607.236 2.85912 -2.00138 0
M  V30 6364 C 608.584 3.57305 -2.29387 0
M  V30 6365 O 609.608 2.96036 -1.98094 0
M  V30 6366 O 608.467 4.67688 -2.82719 0
M  V30 6367 H 605.561 0.725473 -0.397011 0
M  V30 6368 H 608.107 0.980583 -1.38501 0
M  V30 6369 H 606.879 2.52403 -2.99013 0
M  V30 6370 H 606.502 3.61118 -1.66371 0
M  V30 6371 N 607.499 1.09233 1.13605 0
M  V30 6372 C 608.462 0.733553 2.17144 0
M  V30 6373 C 609.462 -0.235873 1.59061 0
M  V30 6374 O 610.652 -0.0143167 1.74194 0
M  V30 6375 C 607.784 0.084471 3.40795 0
M  V30 6376 H 608.977 1.65049 2.50397 0
M  V30 6377 H 606.53 0.891264 1.28399 0
M  V30 6378 H 607.265 -0.843795 3.1313 0
M  V30 6379 H 607.05 0.781985 3.84223 0
M  V30 6380 H 608.54 -0.151216 4.17326 0
M  V30 6381 N 608.977 -1.30795 0.87923 0
M  V30 6382 C 610.393 -1.48981 0.57243 0
M  V30 6383 C 610.593 -1.80719 -0.891236 0
M  V30 6384 O 609.649 -1.89136 -1.67283 0
M  V30 6385 C 610.962 -2.61721 1.48063 0
M  V30 6386 C 612.51 -2.75603 1.48365 0
M  V30 6387 C 612.985 -3.91449 2.37763 0
M  V30 6388 N 614.476 -3.98751 2.35695 0
M  V30 6389 C 615.211 -4.87684 3.01583 0
M  V30 6390 N 614.707 -5.81454 3.76674 0
M  V30 6391 N 616.5 -4.81005 2.90844 0
M  V30 6392 H 608.651 -1.08465 1.82617 0
M  V30 6393 H 610.914 -0.536813 0.781368 0
M  V30 6394 H 610.62 -2.45073 2.52254 0
M  V30 6395 H 610.494 -3.58071 1.18596 0
M  V30 6396 H 612.881 -2.9166 0.44927 0
M  V30 6397 H 612.962 -1.79891 1.81859 0
M  V30 6398 H 612.606 -3.76149 3.41283 0
M  V30 6399 H 612.536 -4.86487 2.01589 0
M  V30 6400 H 615.027 -3.31668 1.81121 0
M  V30 6401 H 615.34 -6.46063 4.24054 0
M  V30 6402 H 613.685 -5.81403 3.80782 0
M  V30 6403 H 616.876 -4.06728 2.31711 0
M  V30 6404 H 617.049 -5.50107 3.42471 0
M  V30 6405 N 610.455 -0.639598 -1.44038 0
M  V30 6406 C 611.683 -0.154811 -2.0632 0
M  V30 6407 C 612.098 1.17406 -1.47856 0
M  V30 6408 O 611.455 1.72193 -0.604638 0
M  V30 6409 C 611.506 -0.0429958 -3.61474 0
M  V30 6410 O 611.227 -1.31932 -4.17763 0
M  V30 6411 C 612.728 0.469486 -4.40807 0
M  V30 6412 H 609.948 -0.0835862 -0.665773 0
M  V30 6413 H 612.492 -0.876397 -1.84769 0
M  V30 6414 H 610.647 0.629075 -3.82258 0
M  V30 6415 H 611.061 -1.16965 -5.11292 0
M  V30 6416 H 612.535 0.496712 -5.49761 0
M  V30 6417 H 613.012 1.49819 -4.12857 0
M  V30 6418 H 613.618 -0.169624 -4.24962 0
M  V30 6419 N 611.933 1.52934 -0.380664 0
M  V30 6420 C 612.88 2.26197 0.458641 0
M  V30 6421 C 613.85 1.27462 1.06502 0
M  V30 6422 O 615.035 1.56274 1.09467 0
M  V30 6423 C 612.175 3.06571 1.58456 0
M  V30 6424 C 611.288 4.20222 1.00189 0
M  V30 6425 C 610.423 4.88007 2.09815 0
M  V30 6426 C 609.462 5.93665 1.49092 0
M  V30 6427 N 608.599 6.55081 2.52613 0
M  V30 6428 H 613.439 2.975 -0.172595 0
M  V30 6429 H 610.976 1.4678 -0.0969426 0
M  V30 6430 H 612.934 3.51455 2.24801 0
M  V30 6431 H 611.564 2.37494 2.18624 0
M  V30 6432 H 610.616 3.79714 0.228292 0
M  V30 6433 H 611.928 4.96102 0.518064 0
M  V30 6434 H 611.082 5.36151 2.83948 0
M  V30 6435 H 609.821 4.11632 2.61555 0
M  V30 6436 H 608.826 5.44868 0.7348 0
M  V30 6437 H 610.051 6.71969 0.981582 0
M  V30 6438 H 607.997 5.8155 3.03538 0
M  V30 6439 H 607.914 7.26548 2.08961 0
M  V30 6440 H 609.182 7.07871 3.26402 0
M  V30 6441 N 613.412 0.11024 1.57214 0
M  V30 6442 C 614.342 -0.840002 2.17867 0
M  V30 6443 C 615.323 -1.28352 1.11624 0
M  V30 6444 O 616.508 -1.3477 1.39824 0
M  V30 6445 C 613.638 -2.09349 2.77111 0
M  V30 6446 C 612.592 -1.78807 3.8886 0
M  V30 6447 C 611.918 -3.11112 4.34872 0
M  V30 6448 C 613.218 -1.0632 5.11364 0
M  V30 6449 H 614.912 -0.334608 2.97524 0
M  V30 6450 H 612.458 -0.159502 1.43114 0
M  V30 6451 H 614.411 -2.76275 3.18198 0
M  V30 6452 H 613.135 -2.62198 1.9473 0
M  V30 6453 H 611.794 -1.14273 3.48335 0
M  V30 6454 H 611.442 -3.61877 3.49362 0
M  V30 6455 H 611.142 -2.91453 5.10224 0
M  V30 6456 H 612.666 -3.79171 4.78604 0
M  V30 6457 H 614.08 -1.63383 5.49526 0
M  V30 6458 H 612.477 -0.967876 5.92243 0
M  V30 6459 H 613.547 -0.0484569 4.84876 0
M  V30 6460 N 614.89 -1.56749 -0.16351 0
M  V30 6461 C 615.853 -1.96121 -1.18613 0
M  V30 6462 C 616.853 -0.845765 -1.36761 0
M  V30 6463 O 618.043 -1.11268 -1.34033 0
M  V30 6464 C 615.175 -2.26282 -2.54969 0
M  V30 6465 H 616.368 -2.87639 -0.848764 0
M  V30 6466 H 613.921 -1.50928 -0.406251 0
M  V30 6467 H 614.656 -1.37504 -2.93706 0
M  V30 6468 H 614.441 -3.07595 -2.43162 0
M  V30 6469 H 615.931 -2.57638 -3.28653 0
M  V30 6470 N 616.368 0.432326 -1.51554 0
M  V30 6471 C 617.784 0.769195 -1.39841 0
M  V30 6472 C 617.984 1.95584 -0.484675 0
M  V30 6473 O 617.04 2.52433 0.0582829 0
M  V30 6474 C 618.353 1.04487 -2.81963 0
M  V30 6475 C 619.901 1.149 -2.91148 0
M  V30 6476 C 620.376 1.45758 -4.34187 0
M  V30 6477 N 621.867 1.52671 -4.37317 0
M  V30 6478 C 622.602 1.78129 -5.4503 0
M  V30 6479 N 622.098 2.01345 -6.62897 0
M  V30 6480 N 623.891 1.79953 -5.32516 0
M  V30 6481 H 616.042 -0.349122 -2.09511 0
M  V30 6482 H 618.305 -0.0938113 -0.943347 0
M  V30 6483 H 618.011 0.24557 -3.50842 0
M  V30 6484 H 617.885 1.97119 -3.21596 0
M  V30 6485 H 620.272 1.93891 -2.22464 0
M  V30 6486 H 620.353 0.201568 -2.55005 0
M  V30 6487 H 619.997 0.672917 -5.03423 0
M  V30 6488 H 619.927 2.41715 -4.67848 0
M  V30 6489 H 622.418 1.36612 -3.52343 0
M  V30 6490 H 622.731 2.20155 -7.40778 0
M  V30 6491 H 621.076 1.98657 -6.66003 0
M  V30 6492 H 624.267 1.61337 -4.39418 0
M  V30 6493 H 624.44 1.99455 -6.1654 0
M  V30 6494 N 617.846 1.41785 0.688094 0
M  V30 6495 C 618.776 1.47 1.8142 0
M  V30 6496 C 619.757 0.327881 1.6691 0
M  V30 6497 O 620.942 0.540362 1.86531 0
M  V30 6498 C 618.072 1.35876 3.19617 0
M  V30 6499 C 617.026 2.47976 3.48844 0
M  V30 6500 C 616.352 2.21915 4.86475 0
M  V30 6501 C 617.652 3.90309 3.47068 0
M  V30 6502 H 619.346 2.41247 1.77314 0
M  V30 6503 H 616.892 1.16116 0.851651 0
M  V30 6504 H 618.845 1.38134 3.98117 0
M  V30 6505 H 617.569 0.38116 3.24368 0
M  V30 6506 H 616.228 2.45013 2.72698 0
M  V30 6507 H 615.876 1.2248 4.8786 0
M  V30 6508 H 615.576 2.97037 5.06994 0
M  V30 6509 H 617.1 2.25901 5.67275 0
M  V30 6510 H 618.514 3.94947 4.1556 0
M  V30 6511 H 616.911 4.65175 3.7912 0
M  V30 6512 H 617.981 4.17927 2.45896 0
M  V30 6513 N 619.324 -0.923095 1.27737 0
M  V30 6514 C 620.254 -2.04124 1.13383 0
M  V30 6515 C 621.235 -1.70066 0.0340658 0
M  V30 6516 O 622.42 -1.93068 0.209383 0
M  V30 6517 C 619.55 -3.3831 0.785097 0
M  V30 6518 C 618.504 -3.86496 1.8386 0
M  V30 6519 C 617.83 -5.1754 1.34373 0
M  V30 6520 C 619.13 -4.09381 3.24353 0
M  V30 6521 H 620.824 -2.1639 2.06919 0
M  V30 6522 H 618.37 -1.03976 0.996243 0
M  V30 6523 H 620.323 -4.16016 0.671485 0
M  V30 6524 H 619.047 -3.2607 -0.185969 0
M  V30 6525 H 617.706 -3.10987 1.9412 0
M  V30 6526 H 617.354 -5.01696 0.361989 0
M  V30 6527 H 617.054 -5.50751 2.04811 0
M  V30 6528 H 618.578 -5.97811 1.24315 0
M  V30 6529 H 619.992 -4.77641 3.17067 0
M  V30 6530 H 618.389 -4.53906 3.92542 0
M  V30 6531 H 619.459 -3.14515 3.69064 0
M  V30 6532 N 620.802 -1.09834 -1.13024 0
M  V30 6533 C 621.765 -0.745058 -2.16752 0
M  V30 6534 C 622.765 0.227435 -1.59183 0
M  V30 6535 O 623.955 0.0050786 -1.74199 0
M  V30 6536 C 621.087 -0.102543 -3.40746 0
M  V30 6537 H 622.28 -1.66375 -2.49518 0
M  V30 6538 H 619.833 -0.898061 -1.27924 0
M  V30 6539 H 620.568 0.827177 -3.13573 0
M  V30 6540 H 620.353 -0.80235 -3.83803 0
M  V30 6541 H 621.843 0.129082 -4.174 0
M  V30 6542 N 622.28 1.30327 -0.886154 0
M  V30 6543 C 623.508 2.00254 -0.520176 0
M  V30 6544 C 623.923 1.66419 0.891637 0
M  V30 6545 O 623.28 0.901951 1.58654 0
M  V30 6546 C 623.331 3.54916 -0.686775 0
M  V30 6547 O 623.052 3.87547 -2.04301 0
M  V30 6548 C 624.553 4.42115 -0.323945 0
M  V30 6549 H 621.773 0.640204 -0.200947 0
M  V30 6550 H 624.317 1.66183 -1.19178 0
M  V30 6551 H 622.472 3.8735 -0.0625273 0
M  V30 6552 H 622.886 4.82247 -2.06249 0
M  V30 6553 H 624.36 5.49808 -0.491407 0
M  V30 6554 H 624.837 4.32953 0.73811 0
M  V30 6555 H 625.443 4.15129 -0.924565 0
M  V30 6556 N 623.758 0.647228 1.43697 0
M  V30 6557 C 624.705 -0.0480092 2.3075 0
M  V30 6558 C 625.675 -0.820705 1.44408 0
M  V30 6559 O 626.86 -0.798515 1.73287 0
M  V30 6560 C 624 -1.01259 3.2991 0
M  V30 6561 C 623.113 -0.236629 4.31351 0
M  V30 6562 C 622.248 -1.19447 5.17596 0
M  V30 6563 C 621.287 -0.408595 6.10735 0
M  V30 6564 N 620.424 -1.31772 6.89623 0
M  V30 6565 H 625.264 0.700238 2.89656 0
M  V30 6566 H 622.801 0.357082 1.427 0
M  V30 6567 H 624.759 -1.58538 3.85903 0
M  V30 6568 H 623.389 -1.72778 2.72667 0
M  V30 6569 H 622.441 0.452353 3.77701 0
M  V30 6570 H 623.753 0.374731 4.9739 0
M  V30 6571 H 622.907 -1.83809 5.78186 0
M  V30 6572 H 621.646 -1.83975 4.51669 0
M  V30 6573 H 620.651 0.24841 5.49239 0
M  V30 6574 H 621.876 0.232188 6.78703 0
M  V30 6575 H 619.822 -1.94991 6.2635 0
M  V30 6576 H 619.739 -0.760779 7.52162 0
M  V30 6577 H 621.007 -1.94967 7.54724 0
M  V30 6578 N 625.236 -1.5273 0.388769 0
M  V30 6579 C 626.484 -2.01174 -0.193208 0
M  V30 6580 C 626.805 -1.27705 -1.47365 0
M  V30 6581 O 626.075 -0.396966 -1.91836 0
M  V30 6582 H 624.655 -0.743287 -0.0743871 0
M  V30 6583 H 627.317 -1.87826 0.520336 0
M  V30 6584 H 626.413 -3.09477 -0.403803 0
M  V30 6585 N 626.714 -0.118576 -1.57153 0
M  V30 6586 C 627.963 0.539339 -1.94355 0
M  V30 6587 C 628.276 1.67858 -1.00415 0
M  V30 6588 O 629.482 2.39922 -1.27081 0
M  V30 6589 C 627.938 1.01082 -3.45414 0
M  V30 6590 C 627.546 -0.0999402 -4.47889 0
M  V30 6591 C 629.29 1.64013 -3.91535 0
M  V30 6592 C 627.197 0.388212 -5.90124 0
M  V30 6593 H 626.127 0.205247 -0.725527 0
M  V30 6594 H 628.778 -0.19836 -1.82425 0
M  V30 6595 H 627.16 1.80292 -3.52577 0
M  V30 6596 H 628.334 -0.876189 -4.52393 0
M  V30 6597 H 626.649 -0.635885 -4.11516 0
M  V30 6598 H 629.246 2.01649 -4.95219 0
M  V30 6599 H 629.589 2.51836 -3.31488 0
M  V30 6600 H 630.122 0.913439 -3.87171 0
M  V30 6601 H 626.861 -0.453963 -6.53926 0
M  V30 6602 H 626.381 1.13095 -5.89041 0
M  V30 6603 H 628.06 0.849574 -6.41398 0
M  V30 6604 N 628.193 1.56834 0.155195 0
M  V30 6605 C 629.421 1.87049 0.884326 0
M  V30 6606 C 629.836 0.705839 1.7511 0
M  V30 6607 O 629.193 -0.324641 1.79589 0
M  V30 6608 C 629.244 3.1644 1.74781 0
M  V30 6609 O 628.965 4.28417 0.915978 0
M  V30 6610 C 630.466 3.60113 2.58522 0
M  V30 6611 H 627.686 0.620196 0.25612 0
M  V30 6612 H 630.23 2.03946 0.150445 0
M  V30 6613 H 628.385 3.01321 2.43484 0
M  V30 6614 H 628.799 5.02353 1.50803 0
M  V30 6615 H 630.273 4.53508 3.14698 0
M  V30 6616 H 630.75 2.85005 3.34169 0
M  V30 6617 H 631.356 3.77898 1.95124 0
M  V30 6618 N 629.671 -0.424282 1.51781 0
M  V30 6619 C 630.621 -1.51464 1.70419 0
M  V30 6620 C 631.605 -1.50911 0.558094 0
M  V30 6621 O 632.797 -1.57143 0.814552 0
M  V30 6622 C 629.926 -2.89539 1.84451 0
M  V30 6623 C 629.012 -2.94798 3.04886 0
M  V30 6624 N 629.403 -2.69778 4.27848 0
M  V30 6625 C 627.701 -3.25962 3.04408 0
M  V30 6626 C 628.402 -2.81216 5.09208 0
M  V30 6627 N 627.378 -3.13447 4.44131 0
M  V30 6628 H 631.18 -1.30892 2.63144 0
M  V30 6629 H 628.694 -0.631783 1.49607 0
M  V30 6630 H 630.691 -3.67998 1.95917 0
M  V30 6631 H 629.351 -3.11121 0.929168 0
M  V30 6632 H 630.362 -2.44458 4.56575 0
M  V30 6633 H 627.039 -3.53236 2.22555 0
M  V30 6634 H 628.429 -2.65715 6.17127 0
M  V30 6635 N 631.149 -1.42148 -0.680565 0
M  V30 6636 C 632.059 -1.47565 -1.82378 0
M  V30 6637 C 633.075 -0.36489 -1.70131 0
M  V30 6638 O 634.251 -0.614916 -1.91783 0
M  V30 6639 C 631.316 -1.37013 -3.18478 0
M  V30 6640 C 630.377 -2.58532 -3.42724 0
M  V30 6641 C 629.61 -2.48473 -4.72331 0
M  V30 6642 O 629.833 -1.51745 -5.49845 0
M  V30 6643 O 628.767 -3.38503 -4.97694 0
M  V30 6644 H 632.593 -2.44045 -1.80764 0
M  V30 6645 H 630.178 -1.23849 -0.835569 0
M  V30 6646 H 632.06 -1.33468 -3.99705 0
M  V30 6647 H 630.735 -0.436552 -3.20743 0
M  V30 6648 H 629.642 -2.67652 -2.61368 0
M  V30 6649 H 630.975 -3.50769 -3.45286 0
M  V30 6650 N 632.627 0.916307 -1.28225 0
M  V30 6651 C 633.876 1.65975 -1.14608 0
M  V30 6652 C 634.189 1.93204 0.305191 0
M  V30 6653 O 635.395 2.65611 0.562432 0
M  V30 6654 C 633.851 2.98989 -2.00333 0
M  V30 6655 C 633.459 2.79417 -3.50186 0
M  V30 6656 C 635.203 3.76856 -1.95397 0
M  V30 6657 C 633.11 4.08056 -4.28071 0
M  V30 6658 H 632.04 0.622587 -0.425324 0
M  V30 6659 H 634.691 1.01705 -1.52736 0
M  V30 6660 H 633.073 3.6438 -1.5506 0
M  V30 6661 H 634.247 2.22723 -4.034 0
M  V30 6662 H 632.562 2.14966 -3.56621 0
M  V30 6663 H 635.159 4.72203 -2.50856 0
M  V30 6664 H 635.502 4.05776 -0.930137 0
M  V30 6665 H 636.035 3.1828 -2.38626 0
M  V30 6666 H 632.774 3.8431 -5.31024 0
M  V30 6667 H 632.294 4.64371 -3.79631 0
M  V30 6668 H 633.973 4.76333 -4.37854 0
M  V30 6669 N 634.105 1.10431 1.1244 0
M  V30 6670 C 635.037 0.710945 2.17895 0
M  V30 6671 C 636.05 -0.252315 1.60833 0
M  V30 6672 O 637.239 -0.03679 1.78462 0
M  V30 6673 C 634.339 0.0284262 3.38888 0
M  V30 6674 C 633.512 1.01585 4.2544 0
M  V30 6675 C 632.571 0.364826 5.24934 0
M  V30 6676 O 631.597 1.01561 5.60066 0
M  V30 6677 N 632.799 -0.87674 5.73841 0
M  V30 6678 H 635.564 1.61826 2.52255 0
M  V30 6679 H 633.125 0.993132 1.27861 0
M  V30 6680 H 635.117 -0.418568 4.0253 0
M  V30 6681 H 633.687 -0.781294 3.02679 0
M  V30 6682 H 632.907 1.64111 3.58415 0
M  V30 6683 H 634.195 1.68425 4.80115 0
M  V30 6684 H 633.593 -1.42483 5.47462 0
M  V30 6685 H 632.15 -1.26688 6.39369 0
M  V30 6686 N 635.583 -1.29855 0.893053 0
M  V30 6687 C 636.832 -1.95104 0.511597 0
M  V30 6688 C 637.145 -1.71226 -0.945567 0
M  V30 6689 O 638.351 -2.30525 -1.43424 0
M  V30 6690 C 636.807 -3.49374 0.864034 0
M  V30 6691 C 636.415 -3.82061 2.33952 0
M  V30 6692 C 638.159 -4.20894 0.552167 0
M  V30 6693 C 636.066 -5.29546 2.63316 0
M  V30 6694 H 634.996 -0.73029 0.187597 0
M  V30 6695 H 637.647 -1.47682 1.08914 0
M  V30 6696 H 636.029 -3.95413 0.215493 0
M  V30 6697 H 637.203 -3.46904 3.03305 0
M  V30 6698 H 635.518 -3.23665 2.61973 0
M  V30 6699 H 638.115 -5.29435 0.748489 0
M  V30 6700 H 638.458 -4.13178 -0.508924 0
M  V30 6701 H 638.991 -3.80564 1.15825 0
M  V30 6702 H 635.73 -5.4232 3.68197 0
M  V30 6703 H 635.25 -5.65974 1.9858 0
M  V30 6704 H 636.929 -5.97068 2.49236 0
M  V30 6705 N 637.061 -0.65484 -1.43351 0
M  V30 6706 C 638.472 -0.248506 -1.85039 0
M  V30 6707 C 638.823 1.20526 -1.54816 0
M  V30 6708 O 637.948 1.92016 -0.99794 0
M  V30 6709 C 638.543 -0.444241 -3.35875 0
M  V30 6710 C 637.102 -0.0922108 -3.76287 0
M  V30 6711 C 636.249 -0.746327 -2.67068 0
M  V30 6712 H 639.2 -0.8584 -1.33481 0
M  V30 6713 H 639.221 0.309762 -3.79237 0
M  V30 6714 H 638.733 -1.50239 -3.5784 0
M  V30 6715 H 636.834 0.96328 -3.59933 0
M  V30 6716 H 636.947 -0.518807 -4.76283 0
M  V30 6717 H 635.311 -0.179416 -2.54067 0
M  V30 6718 H 636.094 -1.80754 -2.91861 0
M  V30 6719 N 638.539 1.52521 -0.396863 0
M  V30 6720 C 639.816 1.94112 0.240842 0
M  V30 6721 C 640.196 1.33288 1.637 0
M  V30 6722 O 639.544 0.503901 2.22875 0
M  V30 6723 C 639.754 3.48033 0.259567 0
M  V30 6724 C 641.102 4.21822 0.484866 0
M  V30 6725 O 642.126 3.54579 0.339453 0
M  V30 6726 O 640.985 5.41042 0.770412 0
M  V30 6727 H 638.079 0.812973 0.151671 0
M  V30 6728 H 640.625 1.63572 -0.451918 0
M  V30 6729 H 639.397 3.84655 -0.718078 0
M  V30 6730 H 639.02 3.84899 0.996937 0
M  V30 6731 N 640.017 0.126909 1.57088 0
M  V30 6732 C 641.266 -0.529024 1.94639 0
M  V30 6733 C 641.579 -1.67323 1.01304 0
M  V30 6734 O 642.785 -2.39245 1.28352 0
M  V30 6735 C 641.241 -0.992483 3.45945 0
M  V30 6736 C 640.849 0.123691 4.47829 0
M  V30 6737 C 642.593 -1.61934 3.924 0
M  V30 6738 C 640.5 -0.356911 5.90322 0
M  V30 6739 H 639.43 -0.201397 0.726605 0
M  V30 6740 H 642.081 0.208032 1.82317 0
M  V30 6741 H 640.463 -1.7842 3.53528 0
M  V30 6742 H 641.637 0.900168 4.51922 0
M  V30 6743 H 639.952 0.657699 4.11173 0
M  V30 6744 H 642.549 -1.9902 4.96281 0
M  V30 6745 H 642.892 -2.50075 3.32819 0
M  V30 6746 H 643.425 -0.892894 3.8765 0
M  V30 6747 H 640.164 0.488636 6.53676 0
M  V30 6748 H 639.684 -1.0997 5.89633 0
M  V30 6749 H 641.363 -0.815547 6.41839 0
M  V30 6750 N 641.495 -1.56914 -0.146875 0
M  V30 6751 C 642.72 -1.87881 -0.878386 0
M  V30 6752 C 643.145 -0.715945 -1.73942 0
M  V30 6753 O 642.503 0.334447 -1.78189 0
M  V30 6754 C 642.551 -3.17431 -1.71084 0
M  V30 6755 O 641.655 -3.01374 -2.81509 0
M  V30 6756 H 640.996 -0.617289 -0.244644 0
M  V30 6757 H 643.526 -2.04136 -0.137654 0
M  V30 6758 H 643.536 -3.49455 -2.10582 0
M  V30 6759 H 642.211 -4.01671 -1.07856 0
M  V30 6760 H 640.788 -2.80758 -2.45416 0
M  V30 6761 N 642.974 0.416227 -1.52004 0
M  V30 6762 C 644.202 1.18573 -1.69553 0
M  V30 6763 C 644.617 1.84472 -0.401919 0
M  V30 6764 O 643.974 1.71593 0.621463 0
M  V30 6765 C 644.025 2.25413 -2.82615 0
M  V30 6766 O 643.746 1.62205 -4.06966 0
M  V30 6767 C 645.247 3.15297 -3.11613 0
M  V30 6768 H 642.467 0.356582 -0.56841 0
M  V30 6769 H 645.011 0.490618 -1.98528 0
M  V30 6770 H 643.166 2.90604 -2.56179 0
M  V30 6771 H 643.58 2.3298 -4.69916 0
M  V30 6772 H 645.054 3.86351 -3.94255 0
M  V30 6773 H 645.531 3.77264 -2.24874 0
M  V30 6774 H 646.137 2.55783 -3.39787 0
M  V30 6775 N 644.452 1.42507 0.673017 0
M  V30 6776 C 645.399 1.46124 1.78651 0
M  V30 6777 C 646.369 0.313007 1.63124 0
M  V30 6778 O 647.554 0.517337 1.83653 0
M  V30 6779 C 644.694 1.3711 3.16694 0
M  V30 6780 C 643.807 2.61983 3.43495 0
M  V30 6781 C 642.942 2.45098 4.71275 0
M  V30 6782 C 641.981 3.65336 4.91117 0
M  V30 6783 N 641.118 3.47383 6.10139 0
M  V30 6784 H 645.958 2.4128 1.74895 0
M  V30 6785 H 643.495 1.19788 0.853766 0
M  V30 6786 H 645.453 1.29881 3.96468 0
M  V30 6787 H 644.083 0.45549 3.1957 0
M  V30 6788 H 643.135 2.79571 2.57961 0
M  V30 6789 H 644.447 3.51355 3.5405 0
M  V30 6790 H 643.601 2.35466 5.59143 0
M  V30 6791 H 642.34 1.53219 4.63007 0
M  V30 6792 H 641.345 3.754 4.0169 0
M  V30 6793 H 642.57 4.58199 5.01229 0
M  V30 6794 H 640.516 2.58222 6.0304 0
M  V30 6795 H 640.433 4.30344 6.21563 0
M  V30 6796 H 641.701 3.41565 7.00681 0
M  V30 6797 N 645.93 -0.909495 1.28709 0
M  V30 6798 C 646.84 -2.04558 1.14861 0
M  V30 6799 C 647.856 -1.73842 0.0741621 0
M  V30 6800 O 649.032 -1.99383 0.2843 0
M  V30 6801 C 646.097 -3.36957 0.816148 0
M  V30 6802 C 645.158 -3.81255 1.97341 0
M  V30 6803 C 644.391 -5.07335 1.65671 0
M  V30 6804 O 644.614 -5.67514 0.573053 0
M  V30 6805 O 643.548 -5.47449 2.50167 0
M  V30 6806 H 647.374 -2.19161 2.10243 0
M  V30 6807 H 644.959 -1.03159 1.08068 0
M  V30 6808 H 646.841 -4.16436 0.644873 0
M  V30 6809 H 645.516 -3.2352 -0.107983 0
M  V30 6810 H 644.423 -3.02584 2.19986 0
M  V30 6811 H 645.756 -3.99261 2.87839 0
M  V30 6812 N 647.408 -1.11026 -1.11852 0
M  V30 6813 C 648.355 -0.764662 -2.17765 0
M  V30 6814 C 649.325 0.261854 -1.64023 0
M  V30 6815 O 650.51 0.139748 -1.90288 0
M  V30 6816 C 647.65 -0.209317 -3.44465 0
M  V30 6817 C 646.763 -1.29187 -4.12231 0
M  V30 6818 C 645.898 -0.697523 -5.266 0
M  V30 6819 C 644.937 -1.76023 -5.86244 0
M  V30 6820 N 644.074 -1.18569 -6.92016 0
M  V30 6821 H 648.914 -1.67202 -2.46673 0
M  V30 6822 H 646.451 -0.835065 -1.21099 0
M  V30 6823 H 648.409 0.130599 -4.16996 0
M  V30 6824 H 647.039 0.661251 -3.15955 0
M  V30 6825 H 646.091 -1.74881 -3.37818 0
M  V30 6826 H 647.403 -2.09607 -4.52622 0
M  V30 6827 H 646.557 -0.307412 -6.05921 0
M  V30 6828 H 645.296 0.138044 -4.87505 0
M  V30 6829 H 644.301 -2.1597 -5.05606 0
M  V30 6830 H 645.526 -2.59875 -6.27409 0
M  V30 6831 H 643.472 -0.371695 -6.54946 0
M  V30 6832 H 643.389 -1.92666 -7.31038 0
M  V30 6833 H 644.657 -0.82233 -7.7515 0
M  V30 6834 N 648.886 1.2938 -0.899927 0
M  V30 6835 C 649.849 2.25983 -0.382677 0
M  V30 6836 C 650.849 1.53366 0.483259 0
M  V30 6837 O 652.039 1.71798 0.28828 0
M  V30 6838 C 649.171 3.37878 0.452915 0
M  V30 6839 H 650.364 2.73252 -1.23586 0
M  V30 6840 H 647.917 1.40825 -0.678088 0
M  V30 6841 H 648.652 2.95949 1.32608 0
M  V30 6842 H 648.437 3.91742 -0.167562 0
M  V30 6843 H 649.927 4.09746 0.806107 0
M  V30 6844 N 650.364 0.662433 1.43002 0
M  V30 6845 C 651.296 -0.062326 2.29115 0
M  V30 6846 C 652.309 -0.777926 1.43011 0
M  V30 6847 O 653.498 -0.634146 1.66856 0
M  V30 6848 C 650.598 -1.11163 3.2015 0
M  V30 6849 C 649.771 -0.472327 4.34842 0
M  V30 6850 C 648.83 -1.41974 5.06685 0
M  V30 6851 O 647.856 -0.924795 5.61637 0
M  V30 6852 N 649.058 -2.75345 5.11043 0
M  V30 6853 H 651.823 0.676838 2.91957 0
M  V30 6854 H 649.384 0.505907 1.53793 0
M  V30 6855 H 651.376 -1.74643 3.65078 0
M  V30 6856 H 649.946 -1.75266 2.58845 0
M  V30 6857 H 649.166 0.341751 3.92716 0
M  V30 6858 H 650.454 -0.0264381 5.08793 0
M  V30 6859 H 649.852 -3.18108 4.67786 0
M  V30 6860 H 648.409 -3.34105 5.59658 0
M  V30 6861 N 651.842 -1.52309 0.404946 0
M  V30 6862 C 652.774 -2.24579 -0.45791 0
M  V30 6863 C 653.787 -1.2739 -1.01369 0
M  V30 6864 O 654.976 -1.53363 -0.91335 0
M  V30 6865 C 652.076 -2.9608 -1.64893 0
M  V30 6866 C 651.249 -4.20106 -1.21777 0
M  V30 6867 C 650.308 -4.74468 -2.27523 0
M  V30 6868 O 649.334 -5.37157 -1.88285 0
M  V30 6869 N 650.536 -4.55678 -3.59635 0
M  V30 6870 H 653.301 -2.99265 0.161341 0
M  V30 6871 H 650.862 -1.60228 0.232107 0
M  V30 6872 H 652.854 -3.29344 -2.35191 0
M  V30 6873 H 651.424 -2.24606 -2.17419 0
M  V30 6874 H 650.644 -3.92704 -0.343071 0
M  V30 6875 H 651.932 -5.00658 -0.906596 0
M  V30 6876 H 651.33 -4.05673 -3.94266 0
M  V30 6877 H 649.887 -4.9339 -4.25922 0
M  V30 6878 N 653.32 -0.135238 -1.57019 0
M  V30 6879 C 654.283 0.794707 -2.14981 0
M  V30 6880 C 655.283 1.18342 -1.08866 0
M  V30 6881 O 656.473 1.10627 -1.34563 0
M  V30 6882 C 653.605 2.07685 -2.70333 0
M  V30 6883 H 654.798 0.290696 -2.98488 0
M  V30 6884 H 652.351 0.114128 -1.55883 0
M  V30 6885 H 653.086 2.6248 -1.9046 0
M  V30 6886 H 652.871 1.80745 -3.47957 0
M  V30 6887 H 654.361 2.74127 -3.1503 0
M  V30 6888 N 654.798 1.5699 0.138552 0
M  V30 6889 C 656.047 1.82998 0.848205 0
M  V30 6890 C 656.36 0.717829 1.81952 0
M  V30 6891 O 657.566 0.863756 2.57394 0
M  V30 6892 C 656.022 3.24379 1.55904 0
M  V30 6893 C 655.63 4.43552 0.62971 0
M  V30 6894 C 657.374 3.59654 2.25498 0
M  V30 6895 C 655.281 5.75957 1.34266 0
M  V30 6896 H 654.211 0.682495 0.320495 0
M  V30 6897 H 656.862 1.83222 0.100924 0
M  V30 6898 H 655.244 3.18567 2.35226 0
M  V30 6899 H 656.418 4.6062 -0.128882 0
M  V30 6900 H 654.733 4.16379 0.0417526 0
M  V30 6901 H 657.33 4.55837 2.79493 0
M  V30 6902 H 657.673 2.86124 3.02388 0
M  V30 6903 H 658.206 3.67164 1.53087 0
M  V30 6904 H 654.945 6.52604 0.615441 0
M  V30 6905 H 654.465 5.62811 2.07375 0
M  V30 6906 H 656.144 6.19046 1.88126 0
M  V30 6907 N 656.276 -0.40816 1.52223 0
M  V30 6908 C 657.524 -1.15274 1.66001 0
M  V30 6909 C 657.845 -1.91003 0.392803 0
M  V30 6910 O 657.115 -1.8673 -0.592336 0
M  V30 6911 H 655.695 -0.428526 0.611861 0
M  V30 6912 H 658.357 -0.46512 1.89269 0
M  V30 6913 H 657.453 -1.86628 2.50153 0
M  V30 6914 N 657.755 -1.42862 -0.66545 0
M  V30 6915 C 658.685 -1.49867 -1.79059 0
M  V30 6916 C 659.666 -0.354394 -1.66367 0
M  V30 6917 O 660.851 -0.569969 -1.85647 0
M  V30 6918 C 657.981 -1.40943 -3.17415 0
M  V30 6919 C 656.935 -2.53495 -3.44854 0
M  V30 6920 C 656.261 -2.29626 -4.82883 0
M  V30 6921 C 657.561 -3.95781 -3.40815 0
M  V30 6922 H 659.255 -2.44037 -1.73453 0
M  V30 6923 H 656.801 -1.17456 -0.833071 0
M  V30 6924 H 658.754 -1.4445 -3.95869 0
M  V30 6925 H 657.478 -0.432716 -3.23721 0
M  V30 6926 H 656.137 -2.4932 -2.68766 0
M  V30 6927 H 655.785 -1.30226 -4.8585 0
M  V30 6928 H 655.485 -3.05065 -5.02204 0
M  V30 6929 H 657.009 -2.34897 -5.63609 0
M  V30 6930 H 658.423 -4.01508 -4.09224 0
M  V30 6931 H 656.82 -4.71148 -3.71672 0
M  V30 6932 H 657.89 -4.21786 -2.39216 0
M  V30 6933 N 659.233 0.902656 -1.29189 0
M  V30 6934 C 660.181 2.0278 -1.13943 0
M  V30 6935 C 661.175 1.69308 -0.055787 0
M  V30 6936 O 662.381 1.78707 -0.215371 0
M  V30 6937 H 658.756 0.664595 -0.351877 0
M  V30 6938 H 660.727 2.12778 -2.09208 0
M  V30 6939 C 659.476 3.37657 -0.82966 0
M  V30 6940 H 658.799 3.63913 -1.65551 0
M  V30 6941 H 660.239 4.17078 -0.762998 0
M  V30 6942 C 658.698 3.33648 0.466991 0
M  V30 6943 O 659.228 3.72886 1.49395 0
M  V30 6944 N 657.434 2.86745 0.471761 0
M  V30 6945 H 656.981 2.55009 -0.364406 0
M  V30 6946 H 656.939 2.84446 1.33933 0
M  V30 6947 N 660.711 1.11618 1.11262 0
M  V30 6948 C 661.644 0.719995 2.16544 0
M  V30 6949 C 662.622 -0.28471 1.60088 0
M  V30 6950 O 663.806 -0.180693 1.87632 0
M  V30 6951 C 660.933 0.0643302 3.38639 0
M  V30 6952 C 659.979 1.03448 4.13764 0
M  V30 6953 S 660.812 2.55789 4.70459 0
M  V30 6954 C 661.968 1.91529 5.95875 0
M  V30 6955 H 662.201 1.61181 2.49816 0
M  V30 6956 H 659.734 0.934401 1.22916 0
M  V30 6957 H 661.692 -0.307609 4.09346 0
M  V30 6958 H 660.353 -0.804471 3.03623 0
M  V30 6959 H 659.546 0.523188 5.01277 0
M  V30 6960 H 659.148 1.34893 3.48826 0
M  V30 6961 H 661.44 1.25286 6.65815 0
M  V30 6962 H 662.383 2.77047 6.51652 0
M  V30 6963 H 662.791 1.37468 5.47506 0
M  V30 6964 N 662.189 -1.289 0.906776 0
M  V30 6965 C 663.099 -2.31256 0.394707 0
M  V30 6966 C 664.115 -1.66231 -0.514121 0
M  V30 6967 O 665.291 -1.97347 -0.401994 0
M  V30 6968 C 662.356 -3.44792 -0.363191 0
M  V30 6969 C 661.417 -4.25391 0.578012 0
M  V30 6970 C 660.65 -5.33506 -0.143811 0
M  V30 6971 O 660.873 -5.53786 -1.36665 0
M  V30 6972 O 659.807 -5.99673 0.5173 0
M  V30 6973 H 663.633 -2.77051 1.24405 0
M  V30 6974 H 661.218 -1.33466 0.671346 0
M  V30 6975 H 663.1 -4.139 -0.791503 0
M  V30 6976 H 661.775 -3.01093 -1.18848 0
M  V30 6977 H 660.682 -3.58899 1.05558 0
M  V30 6978 H 662.015 -4.72752 1.36992 0
M  V30 6979 N 663.667 -0.670007 -1.42649 0
M  V30 6980 C 664.599 0.0501746 -2.29145 0
M  V30 6981 C 665.612 0.770331 -1.43422 0
M  V30 6982 O 666.801 0.625288 -1.6719 0
M  V30 6983 C 663.901 1.09463 -3.20735 0
M  V30 6984 C 663.074 0.44926 -4.35087 0
M  V30 6985 C 662.133 1.39285 -5.07431 0
M  V30 6986 O 661.159 0.894997 -5.6212 0
M  V30 6987 N 662.361 2.72631 -5.12496 0
M  V30 6988 H 665.126 -0.692312 -2.91594 0
M  V30 6989 H 662.687 -0.514056 -1.53522 0
M  V30 6990 H 664.679 1.72705 -3.65999 0
M  V30 6991 H 663.249 1.73891 -2.59771 0
M  V30 6992 H 662.469 -0.362573 -3.92529 0
M  V30 6993 H 663.757 -0.000544776 -5.088 0
M  V30 6994 H 663.155 3.15623 -4.69467 0
M  V30 6995 H 661.712 3.31132 -5.61422 0
M  V30 6996 N 665.145 1.52092 -0.413018 0
M  V30 6997 C 666.394 2.01041 0.16287 0
M  V30 6998 C 666.707 1.30288 1.45892 0
M  V30 6999 O 667.913 1.70075 2.11629 0
M  V30 7000 C 666.369 3.58283 0.340806 0
M  V30 7001 C 665.977 4.37955 -0.943377 0
M  V30 7002 C 667.721 4.15452 0.871774 0
M  V30 7003 C 665.628 5.86847 -0.732417 0
M  V30 7004 H 664.558 0.751224 0.0646414 0
M  V30 7005 H 667.209 1.75404 -0.539059 0
M  V30 7006 H 665.591 3.80266 1.10516 0
M  V30 7007 H 666.765 4.2773 -1.71418 0
M  V30 7008 H 665.08 3.92122 -1.40105 0
M  V30 7009 H 667.677 5.24375 1.0457 0
M  V30 7010 H 668.02 3.73057 1.84755 0
M  V30 7011 H 668.553 3.97452 0.166377 0
M  V30 7012 H 665.292 6.33609 -1.67986 0
M  V30 7013 H 664.812 5.998 -0.000980058 0
M  V30 7014 H 666.491 6.45906 -0.376105 0
M  V30 7015 N 666.623 0.143563 1.56945 0
M  V30 7016 C 667.57 -0.797433 2.16586 0
M  V30 7017 C 668.54 -1.24654 1.09775 0
M  V30 7018 O 669.725 -1.31968 1.37801 0
M  V30 7019 C 666.865 -2.03253 2.78895 0
M  V30 7020 C 665.978 -1.62954 4.00087 0
M  V30 7021 C 665.113 -2.81617 4.50406 0
M  V30 7022 C 664.152 -2.37675 5.64072 0
M  V30 7023 N 663.289 -3.49335 6.09023 0
M  V30 7024 H 668.129 -0.282023 2.96662 0
M  V30 7025 H 665.666 -0.127494 1.46546 0
M  V30 7026 H 667.624 -2.75653 3.13163 0
M  V30 7027 H 666.254 -2.52211 2.01469 0
M  V30 7028 H 665.306 -0.803322 3.71821 0
M  V30 7029 H 666.618 -1.26679 4.82446 0
M  V30 7030 H 665.772 -3.62212 4.86711 0
M  V30 7031 H 664.511 -3.21134 3.67048 0
M  V30 7032 H 663.516 -1.55519 5.27346 0
M  V30 7033 H 664.741 -1.99247 6.49213 0
M  V30 7034 H 662.687 -3.8848 5.28601 0
M  V30 7035 H 662.604 -3.17064 6.86299 0
M  V30 7036 H 663.872 -4.30297 6.49973 0
M  V30 7037 N 668.101 -1.57061 -0.130224 0
M  V30 7038 C 669.064 -1.98593 -1.14426 0
M  V30 7039 C 670.064 -0.874584 -1.34936 0
M  V30 7040 O 671.254 -1.14086 -1.31643 0
M  V30 7041 C 668.386 -2.31639 -2.50112 0
M  V30 7042 H 669.579 -2.89374 -0.787561 0
M  V30 7043 H 667.132 -1.51756 -0.374146 0
M  V30 7044 H 667.867 -1.43703 -2.90723 0
M  V30 7045 H 667.652 -3.12684 -2.36583 0
M  V30 7046 H 669.142 -2.64551 -3.23114 0
M  V30 7047 N 669.579 0.400081 -1.52437 0
M  V30 7048 C 670.489 1.51253 -1.79331 0
M  V30 7049 C 671.505 1.60188 -0.679396 0
M  V30 7050 O 672.681 1.76733 -0.965791 0
M  V30 7051 C 669.746 2.869 -1.94652 0
M  V30 7052 C 668.807 2.87777 -3.18564 0
M  V30 7053 C 668.04 4.16954 -3.33145 0
M  V30 7054 O 668.263 5.11329 -2.52783 0
M  V30 7055 O 667.197 4.2487 -4.26343 0
M  V30 7056 H 671.023 1.31461 -2.73773 0
M  V30 7057 H 668.608 0.586834 -1.37392 0
M  V30 7058 H 670.49 3.67336 -2.065 0
M  V30 7059 H 669.165 3.06741 -1.034 0
M  V30 7060 H 668.072 2.06162 -3.12167 0
M  V30 7061 H 669.405 2.72886 -4.09627 0
M  V30 7062 N 671.057 1.43213 0.657864 0
M  V30 7063 C 672.004 1.48011 1.77092 0
M  V30 7064 C 672.974 0.330291 1.62783 0
M  V30 7065 O 674.159 0.536787 1.83094 0
M  V30 7066 C 671.299 1.40461 3.15222 0
M  V30 7067 C 670.412 2.65612 3.40697 0
M  V30 7068 C 669.547 2.50083 4.68649 0
M  V30 7069 C 668.586 3.70525 4.87214 0
M  V30 7070 N 667.723 3.53835 6.0642 0
M  V30 7071 H 672.563 2.43121 1.72326 0
M  V30 7072 H 670.1 1.20687 0.841013 0
M  V30 7073 H 672.058 1.34079 3.95068 0
M  V30 7074 H 670.688 0.489359 3.19069 0
M  V30 7075 H 669.74 2.82292 2.54982 0
M  V30 7076 H 671.052 3.5509 3.50303 0
M  V30 7077 H 670.206 2.41383 5.56614 0
M  V30 7078 H 668.945 1.58121 4.61356 0
M  V30 7079 H 667.95 3.79639 3.97686 0
M  V30 7080 H 669.175 4.63489 4.96341 0
M  V30 7081 H 667.121 2.64604 6.00267 0
M  V30 7082 H 667.038 4.36912 6.16963 0
M  V30 7083 H 668.306 3.48978 6.97019 0
M  V30 7084 N 672.536 -0.895792 1.29666 0
M  V30 7085 C 673.468 -2.00563 1.10937 0
M  V30 7086 C 674.481 -1.62705 0.055734 0
M  V30 7087 O 675.67 -1.7595 0.300656 0
M  V30 7088 C 672.77 -3.32262 0.667448 0
M  V30 7089 C 671.943 -3.98625 1.80047 0
M  V30 7090 C 671.002 -5.08617 1.3489 0
M  V30 7091 O 670.028 -5.30837 2.05429 0
M  V30 7092 N 671.23 -5.80076 0.221937 0
M  V30 7093 H 673.995 -2.17184 2.06522 0
M  V30 7094 H 671.556 -1.06822 1.21658 0
M  V30 7095 H 673.548 -4.03196 0.348586 0
M  V30 7096 H 672.118 -3.11985 -0.196055 0
M  V30 7097 H 671.338 -3.21005 2.28801 0
M  V30 7098 H 672.626 -4.39704 2.56003 0
M  V30 7099 H 672.024 -5.64514 -0.366084 0
M  V30 7100 H 670.581 -6.51789 -0.0375346 0
M  V30 7101 N 674.014 -1.12206 -1.10668 0
M  V30 7102 C 675.291 -0.787382 -1.79052 0
M  V30 7103 C 675.671 0.723267 -1.98323 0
M  V30 7104 O 675.019 1.6561 -1.57434 0
M  V30 7105 C 675.229 -1.55968 -3.1221 0
M  V30 7106 C 676.577 -1.74413 -3.87125 0
M  V30 7107 O 677.601 -1.5246 -3.21923 0
M  V30 7108 O 676.46 -2.10952 -5.04144 0
M  V30 7109 H 673.554 -0.286137 -0.775922 0
M  V30 7110 H 676.1 -1.22595 -1.1734 0
M  V30 7111 H 674.872 -2.58692 -2.93588 0
M  V30 7112 H 674.495 -1.1152 -3.8164 0
M  V30 7113 N 675.492 1.28418 -0.913599 0
M  V30 7114 C 676.739 1.94981 -0.546674 0
M  V30 7115 C 677.067 1.7192 0.909606 0
M  V30 7116 O 676.322 1.03314 1.66207 0
M  V30 7117 C 676.621 3.48283 -0.802099 0
M  V30 7118 C 676.287 3.91444 -2.2379 0
M  V30 7119 C 674.949 4.02939 -2.63046 0
M  V30 7120 C 677.301 4.13542 -3.17227 0
M  V30 7121 C 674.629 4.3391 -3.94891 0
M  V30 7122 C 676.981 4.45992 -4.48636 0
M  V30 7123 C 675.645 4.55698 -4.87746 0
M  V30 7124 H 674.915 0.713487 -0.200042 0
M  V30 7125 H 677.562 1.52756 -1.15489 0
M  V30 7126 H 675.867 3.91643 -0.111076 0
M  V30 7127 H 677.564 3.97903 -0.497375 0
M  V30 7128 H 674.154 3.83024 -1.9233 0
M  V30 7129 H 678.338 4.04114 -2.88107 0
M  V30 7130 H 673.594 4.39631 -4.24894 0
M  V30 7131 H 677.768 4.62038 -5.21051 0
M  V30 7132 H 675.395 4.79451 -5.89942 0
M  V30 7133 N 676.97 0.677563 1.42291 0
M  V30 7134 C 678.219 0.198173 2.00724 0
M  V30 7135 C 678.532 -1.20325 1.54211 0
M  V30 7136 O 679.738 -1.77916 2.05081 0
M  V30 7137 C 678.194 0.303432 3.58619 0
M  V30 7138 C 677.802 1.70909 4.14119 0
M  V30 7139 C 679.546 -0.117103 4.24338 0
M  V30 7140 C 677.453 1.76696 5.64387 0
M  V30 7141 H 676.383 0.070329 0.750713 0
M  V30 7142 H 679.034 0.843147 1.62982 0
M  V30 7143 H 677.416 -0.409482 3.93877 0
M  V30 7144 H 678.59 2.44931 3.90315 0
M  V30 7145 H 676.905 2.07771 3.6086 0
M  V30 7146 H 679.502 -0.0940471 5.34617 0
M  V30 7147 H 679.845 -1.15283 4.00019 0
M  V30 7148 H 680.378 0.5449 3.9405 0
M  V30 7149 H 677.117 2.7826 5.93508 0
M  V30 7150 H 676.637 1.07034 5.90173 0
M  V30 7151 H 678.316 1.52166 6.28852 0
M  V30 7152 N 678.448 -1.51871 0.421078 0
M  V30 7153 C 679.395 -2.27334 -0.398508 0
M  V30 7154 C 680.365 -1.30241 -1.03085 0
M  V30 7155 O 681.55 -1.59121 -1.05285 0
M  V30 7156 C 678.69 -3.10664 -1.50272 0
M  V30 7157 C 677.803 -4.2273 -0.890122 0
M  V30 7158 C 676.938 -4.93399 -1.96803 0
M  V30 7159 C 675.977 -5.97409 -1.333 0
M  V30 7160 N 675.114 -6.61548 -2.35156 0
M  V30 7161 H 679.954 -2.96938 0.251411 0
M  V30 7162 H 677.491 -1.46472 0.135825 0
M  V30 7163 H 679.449 -3.57292 -2.15403 0
M  V30 7164 H 678.079 -2.43207 -2.1225 0
M  V30 7165 H 677.131 -3.80186 -0.127537 0
M  V30 7166 H 678.443 -4.97302 -0.386349 0
M  V30 7167 H 677.597 -5.43491 -2.69633 0
M  V30 7168 H 676.336 -4.18421 -2.50549 0
M  V30 7169 H 675.341 -5.46624 -0.59008 0
M  V30 7170 H 676.566 -6.74335 -0.803076 0
M  V30 7171 H 674.512 -5.89394 -2.88012 0
M  V30 7172 H 674.429 -7.31832 -1.89624 0
M  V30 7173 H 675.697 -7.16276 -3.0752 0
M  V30 7174 N 679.926 -0.151884 -1.56866 0
M  V30 7175 C 681.154 0.504813 -2.00647 0
M  V30 7176 C 681.569 1.58098 -1.03201 0
M  V30 7177 O 680.926 1.82476 -0.0297814 0
M  V30 7178 C 680.977 1.10099 -3.44326 0
M  V30 7179 O 680.698 0.0678021 -4.38048 0
M  V30 7180 C 682.199 1.83782 -4.03409 0
M  V30 7181 H 679.419 0.130989 -0.65809 0
M  V30 7182 H 681.963 -0.247903 -2.02992 0
M  V30 7183 H 680.118 1.8043 -3.42817 0
M  V30 7184 H 680.532 0.505237 -5.22061 0
M  V30 7185 H 682.006 2.2078 -5.05925 0
M  V30 7186 H 682.483 2.72557 -3.44397 0
M  V30 7187 H 683.089 1.18138 -4.08563 0
M  V30 7188 N 681.404 1.57128 0.121893 0
M  V30 7189 C 682.65 1.84974 0.831418 0
M  V30 7190 C 682.983 0.737204 1.79663 0
M  V30 7191 O 682.258 -0.257199 1.92792 0
M  V30 7192 C 682.541 3.23397 1.58386 0
M  V30 7193 C 682.394 4.45246 0.638445 0
M  V30 7194 C 683.713 3.59355 2.54071 0
M  V30 7195 H 680.832 0.67282 0.300803 0
M  V30 7196 H 683.474 1.89759 0.0957587 0
M  V30 7197 H 681.624 3.19449 2.21098 0
M  V30 7198 H 683.296 4.61295 0.0203925 0
M  V30 7199 H 681.539 4.33771 -0.05023 0
M  V30 7200 H 682.21 5.38765 1.20151 0
M  V30 7201 H 684.686 3.64075 2.01465 0
M  V30 7202 H 683.562 4.57193 3.03752 0
M  V30 7203 H 683.823 2.86622 3.36601 0
M  V30 7204 N 682.882 -0.391992 1.52647 0
M  V30 7205 C 684.131 -1.13449 1.6677 0
M  V30 7206 C 684.444 -1.91203 0.412399 0
M  V30 7207 O 685.65 -2.68013 0.433707 0
M  V30 7208 C 684.106 -2.06577 2.9471 0
M  V30 7209 C 683.714 -1.3426 4.27409 0
M  V30 7210 C 685.458 -2.80981 3.18198 0
M  V30 7211 C 683.365 -2.26136 5.46458 0
M  V30 7212 H 682.295 -0.427211 0.621295 0
M  V30 7213 H 684.946 -0.397522 1.79142 0
M  V30 7214 H 683.328 -2.83898 2.76076 0
M  V30 7215 H 684.502 -0.621856 4.56585 0
M  V30 7216 H 682.817 -0.718279 4.10158 0
M  V30 7217 H 685.414 -3.49898 4.04321 0
M  V30 7218 H 685.757 -3.44891 2.33144 0
M  V30 7219 H 686.29 -2.10754 3.37383 0
M  V30 7220 H 683.029 -1.66846 6.33911 0
M  V30 7221 H 682.549 -2.96134 5.21598 0
M  V30 7222 H 684.228 -2.86286 5.80215 0
M  V30 7223 N 684.36 -1.4356 -0.65026 0
M  V30 7224 C 685.771 -1.40324 -1.2315 0
M  V30 7225 C 686.122 -0.108812 -1.95898 0
M  V30 7226 O 685.247 0.79163 -2.01401 0
M  V30 7227 C 685.842 -2.54195 -2.23987 0
M  V30 7228 C 684.401 -2.54215 -2.77582 0
M  V30 7229 C 683.548 -2.31752 -1.5227 0
M  V30 7230 H 686.499 -1.52418 -0.442095 0
M  V30 7231 H 686.52 -2.25854 -3.0622 0
M  V30 7232 H 686.032 -3.48392 -1.71011 0
M  V30 7233 H 684.133 -1.63907 -3.34612 0
M  V30 7234 H 684.246 -3.52081 -3.24925 0
M  V30 7235 H 682.61 -1.80476 -1.79723 0
M  V30 7236 H 683.393 -3.28037 -1.01225 0
M  V30 7237 N 685.838 0.888903 -1.30139 0
M  V30 7238 C 686.77 1.99972 -1.11999 0
M  V30 7239 C 687.783 1.62673 -0.0643619 0
M  V30 7240 O 688.972 1.75788 -0.309983 0
M  V30 7241 C 686.072 3.31904 -0.685059 0
M  V30 7242 C 685.245 3.97665 -1.82158 0
M  V30 7243 C 684.304 5.07894 -1.37585 0
M  V30 7244 O 683.33 5.2974 -2.08241 0
M  V30 7245 N 684.532 5.7995 -0.252697 0
M  V30 7246 H 687.297 2.16085 -2.07671 0
M  V30 7247 H 684.858 1.06175 -1.22223 0
M  V30 7248 H 686.85 4.03005 -0.369964 0
M  V30 7249 H 685.42 3.12084 0.179507 0
M  V30 7250 H 684.64 3.19787 -2.305 0
M  V30 7251 H 685.928 4.3834 -2.58332 0
M  V30 7252 H 685.326 5.647 0.336141 0
M  V30 7253 H 683.883 6.518 0.00296813 0
M  V30 7254 N 687.317 1.12792 1.10072 0
M  V30 7255 C 688.563 0.89679 1.82563 0
M  V30 7256 C 688.918 -0.571152 1.83727 0
M  V30 7257 O 688.211 -1.41697 1.28967 0
M  V30 7258 C 688.405 1.4102 3.28403 0
M  V30 7259 C 688.234 2.92652 3.41445 0
M  V30 7260 C 687.004 3.60928 3.53637 0
M  V30 7261 C 689.202 3.9063 3.34534 0
M  V30 7262 N 687.184 5.00638 3.55295 0
M  V30 7263 C 688.555 5.16492 3.42981 0
M  V30 7264 C 690.61 3.82989 3.18157 0
M  V30 7265 C 689.313 6.35609 3.3674 0
M  V30 7266 C 691.339 5.01633 3.13239 0
M  V30 7267 C 690.701 6.26355 3.22272 0
M  V30 7268 H 686.8 0.381482 0.682638 0
M  V30 7269 H 689.384 1.43491 1.31599 0
M  V30 7270 H 687.555 0.899077 3.77851 0
M  V30 7271 H 689.287 1.12075 3.88872 0
M  V30 7272 H 686.042 3.11429 3.56803 0
M  V30 7273 H 686.466 5.73521 3.59725 0
M  V30 7274 H 691.108 2.87454 3.10049 0
M  V30 7275 H 688.826 7.31407 3.43613 0
M  V30 7276 H 692.412 4.97454 3.01713 0
M  V30 7277 H 691.292 7.1662 3.18473 0
M  V30 7278 N 688.795 -1.27931 0.920396 0
M  V30 7279 C 689.705 -2.30824 0.419212 0
M  V30 7280 C 690.721 -1.66767 -0.496461 0
M  V30 7281 O 691.897 -1.97763 -0.38104 0
M  V30 7282 C 688.962 -3.45158 -0.326601 0
M  V30 7283 C 688.023 -4.24754 0.623098 0
M  V30 7284 C 687.256 -5.33629 -0.0872172 0
M  V30 7285 O 687.479 -5.55204 -1.30784 0
M  V30 7286 O 686.413 -5.99091 0.580875 0
M  V30 7287 H 690.239 -2.75716 1.27337 0
M  V30 7288 H 687.824 -1.32747 0.685465 0
M  V30 7289 H 689.706 -4.14716 -0.747559 0
M  V30 7290 H 688.381 -3.02336 -1.15648 0
M  V30 7291 H 687.288 -3.57759 1.09359 0
M  V30 7292 H 688.621 -4.71272 1.41998 0
M  V30 7293 N 690.273 -0.685099 -1.4193 0
M  V30 7294 C 691.183 -0.013404 -2.34596 0
M  V30 7295 C 692.199 0.777589 -1.55658 0
M  V30 7296 O 693.375 0.717553 -1.88184 0
M  V30 7297 C 690.44 0.919031 -3.34297 0
M  V30 7298 C 689.501 0.121417 -4.29128 0
M  V30 7299 C 688.734 1.00944 -5.24067 0
M  V30 7300 O 688.957 2.24898 -5.24192 0
M  V30 7301 O 687.891 0.464724 -6.00103 0
M  V30 7302 H 691.717 -0.776978 -2.93593 0
M  V30 7303 H 689.302 -0.445379 -1.42607 0
M  V30 7304 H 691.184 1.45402 -3.9552 0
M  V30 7305 H 689.859 1.66228 -2.77759 0
M  V30 7306 H 688.766 -0.45792 -3.71287 0
M  V30 7307 H 690.099 -0.582937 -4.88736 0
M  V30 7308 N 691.751 1.51645 -0.429126 0
M  V30 7309 C 692.683 2.25279 0.422124 0
M  V30 7310 C 693.696 1.28986 0.993299 0
M  V30 7311 O 694.885 1.54797 0.888836 0
M  V30 7312 C 691.985 2.98666 1.60162 0
M  V30 7313 C 691.158 4.2199 1.15078 0
M  V30 7314 C 690.217 4.78028 2.19946 0
M  V30 7315 O 689.243 5.40084 1.79716 0
M  V30 7316 N 690.445 4.61342 3.5234 0
M  V30 7317 H 693.21 2.98971 -0.208931 0
M  V30 7318 H 690.771 1.59838 -0.257568 0
M  V30 7319 H 692.763 3.33044 2.29922 0
M  V30 7320 H 691.333 2.28036 2.13818 0
M  V30 7321 H 690.553 3.932 0.280552 0
M  V30 7322 H 691.841 5.02037 0.826831 0
M  V30 7323 H 691.239 4.11894 3.87763 0
M  V30 7324 H 689.796 5.00104 4.18019 0
M  V30 7325 N 693.229 0.160201 1.56784 0
M  V30 7326 C 694.192 -0.760405 2.16219 0
M  V30 7327 C 695.192 -1.16595 1.10735 0
M  V30 7328 O 696.382 -1.08472 1.36306 0
M  V30 7329 C 693.514 -2.03358 2.73603 0
M  V30 7330 H 694.707 -0.243173 2.98912 0
M  V30 7331 H 692.26 -0.0893139 1.56045 0
M  V30 7332 H 692.995 -2.59416 1.94612 0
M  V30 7333 H 692.78 -1.75186 3.50788 0
M  V30 7334 H 694.27 -2.69081 3.19351 0
M  V30 7335 N 694.707 -1.5719 -0.113559 0
M  V30 7336 C 696.123 -1.52607 -0.467253 0
M  V30 7337 C 696.323 -0.874058 -1.81556 0
M  V30 7338 O 695.379 -0.458703 -2.48299 0
M  V30 7339 C 696.692 -2.97363 -0.446736 0
M  V30 7340 C 698.24 -3.08482 -0.529903 0
M  V30 7341 C 698.715 -4.54809 -0.539721 0
M  V30 7342 N 700.206 -4.59284 -0.601005 0
M  V30 7343 C 700.941 -5.69927 -0.630138 0
M  V30 7344 N 700.437 -6.90051 -0.616589 0
M  V30 7345 N 702.23 -5.5805 -0.673558 0
M  V30 7346 H 694.381 -1.97958 0.769819 0
M  V30 7347 H 696.644 -0.90428 0.284572 0
M  V30 7348 H 696.35 -3.48458 0.47643 0
M  V30 7349 H 696.224 -3.55086 -1.27254 0
M  V30 7350 H 698.611 -2.57386 -1.44349 0
M  V30 7351 H 698.692 -2.53744 0.323695 0
M  V30 7352 H 698.336 -5.06552 0.369843 0
M  V30 7353 H 698.266 -5.07364 -1.41028 0
M  V30 7354 H 700.757 -3.72822 -0.617419 0
M  V30 7355 H 701.07 -7.70132 -0.641592 0
M  V30 7356 H 699.415 -6.92543 -0.583927 0
M  V30 7357 H 702.606 -4.63112 -0.681544 0
M  V30 7358 H 702.779 -6.44286 -0.692794 0
M  V30 7359 N 696.185 0.383891 -1.52853 0
M  V30 7360 C 697.132 1.46924 -1.77995 0
M  V30 7361 C 698.102 1.53958 -0.623396 0
M  V30 7362 O 699.287 1.70134 -0.863657 0
M  V30 7363 C 696.427 2.84093 -1.95921 0
M  V30 7364 C 695.54 2.86171 -3.23621 0
M  V30 7365 C 694.675 4.14799 -3.31836 0
M  V30 7366 C 693.714 4.10948 -4.53639 0
M  V30 7367 N 692.851 5.31192 -4.59107 0
M  V30 7368 H 697.691 1.24786 -2.70615 0
M  V30 7369 H 695.228 0.605265 -1.34071 0
M  V30 7370 H 697.186 3.63755 -2.04299 0
M  V30 7371 H 695.816 3.04671 -1.06656 0
M  V30 7372 H 694.868 1.9885 -3.24288 0
M  V30 7373 H 696.18 2.79194 -4.13343 0
M  V30 7374 H 695.334 5.02867 -3.39425 0
M  V30 7375 H 694.073 4.24505 -2.40097 0
M  V30 7376 H 693.078 3.21268 -4.46169 0
M  V30 7377 H 694.303 4.0286 -5.467 0
M  V30 7378 H 692.249 5.41518 -3.70262 0
M  V30 7379 H 692.166 5.26311 -5.42708 0
M  V30 7380 H 693.434 6.21143 -4.70958 0
M  V30 7381 N 697.663 1.43903 0.642637 0
M  V30 7382 C 698.611 1.50164 1.77634 0
M  V30 7383 C 699.605 0.374294 1.65213 0
M  V30 7384 O 700.811 0.548748 1.71431 0
M  V30 7385 H 697.186 0.470974 0.586249 0
M  V30 7386 H 699.157 2.45603 1.69474 0
M  V30 7387 C 697.906 1.45196 3.15933 0
M  V30 7388 H 697.229 2.31253 3.26132 0
M  V30 7389 H 698.669 1.53638 3.95185 0
M  V30 7390 C 697.128 0.171043 3.36466 0
M  V30 7391 O 697.658 -0.763413 3.94379 0
M  V30 7392 N 695.864 0.077847 2.90496 0
M  V30 7393 H 695.411 0.8391 2.43551 0
M  V30 7394 H 695.369 -0.778473 3.0461 0
M  V30 7395 N 699.141 -0.881989 1.30609 0
M  V30 7396 C 700.389 -1.63082 1.19368 0
M  V30 7397 C 700.71 -1.93376 -0.251147 0
M  V30 7398 O 699.98 -1.5723 -1.16857 0
M  V30 7399 H 698.56 -0.604542 0.438791 0
M  V30 7400 H 701.222 -1.05658 1.63776 0
M  V30 7401 H 700.318 -2.57966 1.7567 0
M  V30 7402 N 700.619 -1.13374 -1.09472 0
M  V30 7403 C 701.549 -0.833268 -2.18126 0
M  V30 7404 C 702.53 0.207169 -1.68834 0
M  V30 7405 O 703.715 0.0662012 -1.94087 0
M  V30 7406 C 700.845 -0.297979 -3.46019 0
M  V30 7407 C 699.799 -1.27261 -4.08642 0
M  V30 7408 C 699.125 -0.597104 -5.31356 0
M  V30 7409 C 700.425 -2.63095 -4.51197 0
M  V30 7410 H 702.119 -1.74182 -2.43518 0
M  V30 7411 H 699.665 -0.838921 -1.17039 0
M  V30 7412 H 701.618 -0.0754444 -4.21332 0
M  V30 7413 H 700.342 0.645959 -3.20148 0
M  V30 7414 H 699.001 -1.48113 -3.35348 0
M  V30 7415 H 698.649 0.352293 -5.01765 0
M  V30 7416 H 698.349 -1.24734 -5.74208 0
M  V30 7417 H 699.873 -0.38384 -6.09392 0
M  V30 7418 H 701.287 -2.46214 -5.17737 0
M  V30 7419 H 699.684 -3.2429 -5.04932 0
M  V30 7420 H 700.754 -3.20793 -3.6362 0
M  V30 7421 N 702.098 1.27442 -0.927168 0
M  V30 7422 C 703.028 2.29256 -0.443188 0
M  V30 7423 C 704.009 1.62701 0.49624 0
M  V30 7424 O 705.194 1.90013 0.401105 0
M  V30 7425 C 702.324 3.45955 0.305366 0
M  V30 7426 C 701.278 4.24501 -0.546178 0
M  V30 7427 C 700.604 5.33671 0.331512 0
M  V30 7428 C 701.904 4.89921 -1.81037 0
M  V30 7429 H 703.598 2.69988 -1.29409 0
M  V30 7430 H 701.144 1.29792 -0.623705 0
M  V30 7431 H 703.097 4.1628 0.654885 0
M  V30 7432 H 701.821 3.04138 1.19029 0
M  V30 7433 H 700.48 3.55921 -0.878398 0
M  V30 7434 H 700.128 4.88096 1.21537 0
M  V30 7435 H 699.828 5.87131 -0.234746 0
M  V30 7436 H 701.352 6.0684 0.676614 0
M  V30 7437 H 702.766 5.52536 -1.52895 0
M  V30 7438 H 701.163 5.53436 -2.32009 0
M  V30 7439 H 702.233 4.13652 -2.53021 0
M  V30 7440 N 703.576 0.692616 1.41565 0
M  V30 7441 C 704.801 0.229776 2.06123 0
M  V30 7442 C 705.226 -1.11119 1.5177 0
M  V30 7443 O 704.584 -1.69498 0.643444 0
M  V30 7444 C 704.632 0.19469 3.60074 0
M  V30 7445 O 703.736 -0.831366 4.03933 0
M  V30 7446 H 703.077 0.113002 0.654314 0
M  V30 7447 H 705.607 0.946645 1.81383 0
M  V30 7448 H 705.617 0.0245487 4.07993 0
M  V30 7449 H 704.292 1.17339 3.99004 0
M  V30 7450 H 702.869 -0.630819 3.67526 0
M  V30 7451 N 705.054 -1.51416 0.437162 0
M  V30 7452 C 705.986 -2.255 -0.410171 0
M  V30 7453 C 706.999 -1.29511 -0.986444 0
M  V30 7454 O 708.188 -1.55266 -0.880614 0
M  V30 7455 C 705.288 -2.99511 -1.58575 0
M  V30 7456 C 704.461 -4.22595 -1.12839 0
M  V30 7457 C 703.52 -4.79187 -2.17407 0
M  V30 7458 O 702.546 -5.4103 -1.76849 0
M  V30 7459 N 703.748 -4.63204 -3.49889 0
M  V30 7460 H 706.513 -2.98856 0.224783 0
M  V30 7461 H 704.074 -1.59699 0.266041 0
M  V30 7462 H 706.066 -3.34258 -2.28152 0
M  V30 7463 H 704.636 -2.29167 -2.12606 0
M  V30 7464 H 703.856 -3.93344 -0.259695 0
M  V30 7465 H 705.144 -5.02468 -0.800196 0
M  V30 7466 H 704.542 -4.13945 -3.85573 0
M  V30 7467 H 703.099 -5.02313 -4.15361 0
M  V30 7468 O 706.571 -0.309557 -1.58506 0
M  V30 7469 H 707.262 0.253272 -1.92037 0
M  V30 END ATOM
M  V30 BEGIN BOND
M  V30 END BOND
M  V30 END CTAB
M  END
$$$$
