drugbank_target|P0AB87 L-fuculose phosphate aldolase (DB03026; DB04326)
 OpenBabel12092120033D

  0  0  0     0  0            999 V3000
M  V30 BEGIN CTAB
M  V30 COUNTS 3350 3384 0 0 0
M  V30 BEGIN ATOM
M  V30 1 H -0.908 1.98254 -0.117106 0
M  V30 2 N 0 1.576 0 0
M  V30 3 C 0.933 2.03868 1.02534 0
M  V30 4 C 1.911 0.928543 1.3348 0
M  V30 5 O 3.095 1.19667 1.45644 0
M  V30 6 C 0.222 2.43627 2.35294 0
M  V30 7 C -0.732 3.65373 2.2001 0
M  V30 8 S 0.101 5.13292 1.52614 0
M  V30 9 C 1.257 5.56322 2.86805 0
M  V30 10 H 1.49 2.90518 0.631377 0
M  V30 11 H -0.977 1.52953 0.210867 0
M  V30 12 H 0.981 2.67203 3.11629 0
M  V30 13 H -0.358 1.57376 2.7183 0
M  V30 14 H -1.165 3.90944 3.18086 0
M  V30 15 H -1.563 3.418 1.51819 0
M  V30 16 H 0.729 5.58782 3.83104 0
M  V30 17 H 1.672 6.56266 2.65933 0
M  V30 18 H 2.08 4.83886 2.90714 0
M  V30 19 N 1.4781 -0.272755 1.55222 0
M  V30 20 C 2.3881 -1.35918 1.91216 0
M  V30 21 C 3.4041 -1.54026 0.809436 0
M  V30 22 O 4.5801 -1.68148 1.10852 0
M  V30 23 C 1.6451 -2.69834 2.17693 0
M  V30 24 C 0.7061 -2.6047 3.41253 0
M  V30 25 C -0.0609 -3.88 3.66458 0
M  V30 26 O 0.1621 -4.88693 2.94169 0
M  V30 27 O -0.9039 -3.88189 4.59992 0
M  V30 28 H 2.9221 -1.0839 2.83699 0
M  V30 29 H 0.5071 -0.471301 1.41771 0
M  V30 30 H 2.3891 -3.49017 2.36147 0
M  V30 31 H 1.0641 -2.97148 1.28392 0
M  V30 32 H -0.0289 -1.79663 3.28134 0
M  V30 33 H 1.3041 -2.38106 4.30774 0
M  V30 34 N 2.9562 -1.48159 -0.537278 0
M  V30 35 C 4.3722 -1.34118 -0.865129 0
M  V30 36 C 4.5722 -0.346678 -1.98495 0
M  V30 37 O 3.6282 0.234715 -2.51407 0
M  V30 38 C 4.9412 -2.73963 -1.23954 0
M  V30 39 C 6.4892 -2.82397 -1.34984 0
M  V30 40 C 6.9642 -4.22928 -1.75772 0
M  V30 41 N 8.4552 -4.25566 -1.82887 0
M  V30 42 C 9.1902 -5.31235 -2.15817 0
M  V30 43 N 8.6862 -6.47189 -2.47222 0
M  V30 44 N 10.4792 -5.18624 -2.16761 0
M  V30 45 H 2.6302 -2.1144 0.201715 0
M  V30 46 H 4.8932 -0.947598 0.0275949 0
M  V30 47 H 4.5992 -3.48264 -0.490381 0
M  V30 48 H 4.4732 -3.0702 -2.19132 0
M  V30 49 H 6.8602 -2.08356 -2.08978 0
M  V30 50 H 6.9412 -2.5297 -0.379448 0
M  V30 51 H 6.5852 -4.97482 -1.02341 0
M  V30 52 H 6.5152 -4.49794 -2.73848 0
M  V30 53 H 9.0062 -3.41924 -1.60924 0
M  V30 54 H 9.3192 -7.23564 -2.71433 0
M  V30 55 H 7.6642 -6.50476 -2.44757 0
M  V30 56 H 10.8552 -4.27056 -1.91679 0
M  V30 57 H 11.0282 -6.01078 -2.42093 0
M  V30 58 N 4.4343 0.785586 -1.36625 0
M  V30 59 C 5.3823 1.91978 -1.31329 0
M  V30 60 C 6.3763 1.68162 -0.204416 0
M  V30 61 O 7.5823 1.76122 -0.371645 0
M  V30 62 H 3.9573 0.631087 -0.408942 0
M  V30 63 H 5.9283 1.93562 -2.27104 0
M  V30 64 C 4.6773 3.29055 -1.12329 0
M  V30 65 H 4.0003 3.4795 -1.96903 0
M  V30 66 H 5.4403 4.08756 -1.12671 0
M  V30 67 C 3.8993 3.36461 0.171861 0
M  V30 68 O 4.4293 3.84576 1.16035 0
M  V30 69 N 2.6353 2.89782 0.217846 0
M  V30 70 H 2.1823 2.50819 -0.587183 0
M  V30 71 H 2.1403 2.95119 1.08408 0
M  V30 72 N 5.9124 1.20967 1.01018 0
M  V30 73 C 6.8594 0.964281 2.09691 0
M  V30 74 C 7.8294 -0.107853 1.65749 0
M  V30 75 O 9.0144 0.0381987 1.90762 0
M  V30 76 C 6.1544 0.52943 3.41015 0
M  V30 77 C 5.2674 1.67043 3.98398 0
M  V30 78 C 4.4024 1.18525 5.17808 0
M  V30 79 C 3.4414 2.29892 5.67288 0
M  V30 80 N 2.5784 1.82546 6.77954 0
M  V30 81 H 7.4184 1.89463 2.30017 0
M  V30 82 H 4.9554 0.944289 1.1279 0
M  V30 83 H 6.9134 0.258588 4.16398 0
M  V30 84 H 5.5434 -0.363919 3.20742 0
M  V30 85 H 4.5954 2.05603 3.20049 0
M  V30 86 H 5.9074 2.50877 4.31117 0
M  V30 87 H 5.0614 0.870762 6.00419 0
M  V30 88 H 3.8004 0.316887 4.86669 0
M  V30 89 H 2.8054 2.6215 4.83278 0
M  V30 90 H 4.0304 3.17216 6.00459 0
M  V30 91 H 1.9764 0.980454 6.48632 0
M  V30 92 H 1.8934 2.59956 7.09901 0
M  V30 93 H 3.1614 1.54115 7.64113 0
M  V30 94 N 7.3905 -1.2043 1.01659 0
M  V30 95 C 8.3205 -2.25466 0.607226 0
M  V30 96 C 9.3015 -1.65853 -0.377716 0
M  V30 97 O 10.4865 -1.92409 -0.263149 0
M  V30 98 C 7.6165 -3.47256 -0.0552949 0
M  V30 99 C 6.5705 -4.19462 0.850632 0
M  V30 100 C 5.8965 -5.34673 0.0538859 0
M  V30 101 C 7.1965 -4.75603 2.15868 0
M  V30 102 H 8.8905 -2.59962 1.48526 0
M  V30 103 H 6.4365 -1.2496 0.715605 0
M  V30 104 H 8.3895 -4.19917 -0.353233 0
M  V30 105 H 7.1135 -3.11924 -0.968045 0
M  V30 106 H 5.7725 -3.48667 1.13257 0
M  V30 107 H 5.4205 -4.95585 -0.860514 0
M  V30 108 H 5.1205 -5.83913 0.657192 0
M  V30 109 H 6.6445 -6.10138 -0.237598 0
M  V30 110 H 8.0585 -5.40083 1.92311 0
M  V30 111 H 6.4555 -5.3528 2.71284 0
M  V30 112 H 7.5255 -3.94346 2.82169 0
M  V30 113 N 8.8686 -0.792821 -1.36206 0
M  V30 114 C 9.8316 -0.199459 -2.2833 0
M  V30 115 C 10.8316 0.605189 -1.48977 0
M  V30 116 O 12.0216 0.425685 -1.68919 0
M  V30 117 C 9.1536 0.723523 -3.33134 0
M  V30 118 H 10.3466 -1.01181 -2.82316 0
M  V30 119 H 7.8996 -0.562485 -1.45828 0
M  V30 120 H 8.6346 1.56008 -2.84309 0
M  V30 121 H 8.4196 0.148436 -3.91819 0
M  V30 122 H 9.9096 1.13344 -4.01924 0
M  V30 123 N 10.3467 1.47872 -0.545128 0
M  V30 124 C 11.7627 1.5829 -0.204032 0
M  V30 125 C 11.9627 1.54529 1.29317 0
M  V30 126 O 11.0187 1.44232 2.07252 0
M  V30 127 C 12.3317 2.89304 -0.819987 0
M  V30 128 C 13.8797 3.02864 -0.790105 0
M  V30 129 C 14.3547 4.3656 -1.38491 0
M  V30 130 N 15.8457 4.43165 -1.34755 0
M  V30 131 C 16.5807 5.45153 -1.77753 0
M  V30 132 N 16.0767 6.54016 -2.2855 0
M  V30 133 N 17.8697 5.36125 -1.68897 0
M  V30 134 H 10.0207 1.4856 -1.51802 0
M  V30 135 H 12.2837 0.706305 -0.632327 0
M  V30 136 H 11.9897 2.97757 -1.87173 0
M  V30 137 H 11.8637 3.75957 -0.305915 0
M  V30 138 H 14.2507 2.94014 0.252913 0
M  V30 139 H 14.3317 2.17782 -1.34181 0
M  V30 140 H 13.9757 4.46164 -2.42693 0
M  V30 141 H 13.9057 5.20353 -0.808754 0
M  V30 142 H 16.3967 3.65083 -0.975855 0
M  V30 143 H 16.7097 7.27994 -2.59314 0
M  V30 144 H 15.0547 6.54938 -2.32553 0
M  V30 145 H 18.2457 4.49975 -1.28998 0
M  V30 146 H 18.4187 6.15472 -2.02726 0
M  V30 147 N 11.8248 0.280983 1.55075 0
M  V30 148 C 12.7568 -0.637268 2.20163 0
M  V30 149 C 13.7698 -1.11298 1.18813 0
M  V30 150 O 14.9588 -1.03388 1.4551 0
M  V30 151 C 12.0588 -1.88199 2.81841 0
M  V30 152 C 11.2318 -1.55211 4.08936 0
M  V30 153 C 10.2908 -2.64991 4.54606 0
M  V30 154 O 9.3168 -2.30929 5.2025 0
M  V30 155 N 10.5188 -3.95161 4.25238 0
M  V30 156 H 13.2838 -0.0801694 2.99593 0
M  V30 157 H 10.8448 0.102329 1.61576 0
M  V30 158 H 12.8368 -2.60948 3.09335 0
M  V30 159 H 11.4068 -2.34799 2.06369 0
M  V30 160 H 10.6268 -0.658185 3.88666 0
M  V30 161 H 11.9148 -1.30681 4.91732 0
M  V30 162 H 11.3128 -4.25653 3.72607 0
M  V30 163 H 9.8698 -4.6427 4.5749 0
M  V30 164 N 13.3029 -1.57598 0.00835791 0
M  V30 165 C 14.5519 -1.90107 -0.673968 0
M  V30 166 C 14.8649 -0.884275 -1.7447 0
M  V30 167 O 16.0709 -1.09987 -2.48224 0
M  V30 168 C 14.5269 -3.37497 -1.24995 0
M  V30 169 C 14.1349 -4.47491 -0.2136 0
M  V30 170 C 15.8789 -3.79104 -1.90999 0
M  V30 171 C 13.7859 -5.85963 -0.80005 0
M  V30 172 H 12.7159 -0.709393 -0.255495 0
M  V30 173 H 15.3669 -1.83365 0.0702693 0
M  V30 174 H 13.7489 -3.39102 -2.04513 0
M  V30 175 H 14.9229 -4.57414 0.557596 0
M  V30 176 H 13.2379 -4.14956 0.346474 0
M  V30 177 H 15.8349 -4.79901 -2.35795 0
M  V30 178 H 16.1779 -3.1306 -2.74407 0
M  V30 179 H 16.7109 -3.79833 -1.18203 0
M  V30 180 H 13.4499 -6.555 -0.00456708 0
M  V30 181 H 12.9699 -5.79687 -1.54021 0
M  V30 182 H 14.6489 -6.33884 -1.29615 0
M  V30 183 N 14.781 0.264519 -1.55364 0
M  V30 184 C 16.03 0.992812 -1.75574 0
M  V30 185 C 16.343 1.87142 -0.568979 0
M  V30 186 O 17.549 2.63513 -0.653682 0
M  V30 187 C 16.005 1.81519 -3.10771 0
M  V30 188 C 15.613 0.984839 -4.37041 0
M  V30 189 C 17.357 2.53727 -3.40327 0
M  V30 190 C 15.264 1.80209 -5.63275 0
M  V30 191 H 14.194 0.374412 -0.65447 0
M  V30 192 H 16.845 0.248138 -1.81815 0
M  V30 193 H 15.227 2.60115 -2.98591 0
M  V30 194 H 16.401 0.242455 -4.60162 0
M  V30 195 H 14.716 0.37691 -4.14691 0
M  V30 196 H 17.313 3.15292 -4.3185 0
M  V30 197 H 17.656 3.24447 -2.60845 0
M  V30 198 H 18.189 1.82156 -3.53644 0
M  V30 199 H 14.928 1.13896 -6.45529 0
M  V30 200 H 14.448 2.52022 -5.44284 0
M  V30 201 H 16.127 2.37364 -6.01887 0
M  V30 202 N 16.2591 1.48442 0.529413 0
M  V30 203 C 17.5361 1.46978 1.29062 0
M  V30 204 C 17.9161 0.181769 2.10316 0
M  V30 205 O 17.2641 -0.836481 2.12639 0
M  V30 206 C 17.4741 2.7321 2.17157 0
M  V30 207 C 18.8221 3.21562 2.77278 0
M  V30 208 O 19.8461 2.74131 2.27444 0
M  V30 209 O 18.7051 4.04094 3.67927 0
M  V30 210 H 15.7991 0.587003 0.582543 0
M  V30 211 H 18.3451 1.60676 0.546021 0
M  V30 212 H 17.1171 3.58465 1.56903 0
M  V30 213 H 16.7401 2.62235 2.98862 0
M  V30 214 N 17.7372 -0.778329 1.37039 0
M  V30 215 C 18.9652 -1.56734 1.35063 0
M  V30 216 C 19.3802 -1.88686 -0.0655597 0
M  V30 217 O 18.7372 -1.5096 -1.02554 0
M  V30 218 C 18.7882 -2.88163 2.18276 0
M  V30 219 O 18.5092 -2.57583 3.54376 0
M  V30 220 C 20.0102 -3.82422 2.24206 0
M  V30 221 H 17.2302 -0.485778 0.462883 0
M  V30 222 H 19.7742 -0.965185 1.8029 0
M  V30 223 H 17.9292 -3.44818 1.76576 0
M  V30 224 H 18.3432 -3.41699 3.97922 0
M  V30 225 H 19.8172 -4.71667 2.86765 0
M  V30 226 H 20.2942 -4.21078 1.24861 0
M  V30 227 H 20.9002 -3.31697 2.6619 0
M  V30 228 N 19.2153 -1.21501 -1.00376 0
M  V30 229 C 20.4553 -1.04444 -1.75701 0
M  V30 230 C 20.8193 0.414644 -1.87469 0
M  V30 231 O 22.0203 0.705763 -2.59369 0
M  V30 232 C 20.2913 -1.72389 -3.13077 0
M  V30 233 S 21.8503 -1.70604 -4.04277 0
M  V30 234 H 18.6683 -0.374249 -0.604532 0
M  V30 235 H 21.2703 -1.54267 -1.20091 0
M  V30 236 H 19.9743 -2.77734 -3.02146 0
M  V30 237 H 19.5053 -1.22751 -3.73759 0
M  V30 238 H 21.5203 -0.748012 -4.9053 0
M  V30 239 N 20.6934 1.19889 -1.02296 0
M  V30 240 C 21.6234 2.25141 -0.619174 0
M  V30 241 C 22.6044 1.66051 0.368915 0
M  V30 242 O 23.7894 1.92546 0.252941 0
M  V30 243 C 20.9194 3.4728 0.0368783 0
M  V30 244 C 19.8734 4.19005 -0.872865 0
M  V30 245 C 19.1994 5.34637 -0.0822402 0
M  V30 246 C 20.4994 4.74452 -2.18387 0
M  V30 247 H 22.1934 2.59171 -1.49903 0
M  V30 248 H 19.7394 1.24579 -0.722222 0
M  V30 249 H 21.6924 4.20098 0.330958 0
M  V30 250 H 20.4164 3.12433 0.95149 0
M  V30 251 H 19.0754 3.48061 -1.15105 0
M  V30 252 H 18.7234 4.96034 0.83422 0
M  V30 253 H 18.4234 5.83557 -0.688149 0
M  V30 254 H 19.9474 6.10255 0.205238 0
M  V30 255 H 21.3614 5.39055 -1.95172 0
M  V30 256 H 19.7584 5.33834 -2.74119 0
M  V30 257 H 20.8284 3.92844 -2.84257 0
M  V30 258 N 22.1715 0.800033 1.35784 0
M  V30 259 C 23.0815 0.207204 2.33683 0
M  V30 260 C 24.0975 -0.64631 1.61551 0
M  V30 261 O 25.2735 -0.559604 1.93469 0
M  V30 262 C 22.3385 -0.639659 3.40748 0
M  V30 263 C 21.3995 0.233585 4.28664 0
M  V30 264 C 20.6325 -0.572954 5.30616 0
M  V30 265 O 20.8555 -1.80816 5.40982 0
M  V30 266 O 19.7895 0.0327285 6.01891 0
M  V30 267 H 23.6155 1.01692 2.86169 0
M  V30 268 H 21.2005 0.561691 1.38439 0
M  V30 269 H 23.0825 -1.12223 4.06182 0
M  V30 270 H 21.7575 -1.42708 2.90544 0
M  V30 271 H 20.6645 0.763147 3.66233 0
M  V30 272 H 21.9975 0.984784 4.82248 0
M  V30 273 N 23.6496 -1.47581 0.552962 0
M  V30 274 C 24.5826 -2.26883 -0.244857 0
M  V30 275 C 25.5606 -1.33784 -0.924147 0
M  V30 276 O 26.7446 -1.6316 -0.943981 0
M  V30 277 C 23.8716 -3.10695 -1.34856 0
M  V30 278 C 22.9176 -4.19339 -0.778268 0
M  V30 279 S 23.7506 -5.34207 0.37184 0
M  V30 280 C 24.9066 -6.21584 -0.733779 0
M  V30 281 H 25.1396 -2.94202 0.428087 0
M  V30 282 H 22.6726 -1.50628 0.339197 0
M  V30 283 H 24.6306 -3.59555 -1.98066 0
M  V30 284 H 23.2916 -2.42746 -1.99332 0
M  V30 285 H 22.4846 -4.77695 -1.60696 0
M  V30 286 H 22.0866 -3.73338 -0.222422 0
M  V30 287 H 24.3786 -6.57676 -1.62692 0
M  V30 288 H 25.3216 -7.07851 -0.187668 0
M  V30 289 H 25.7296 -5.55125 -1.02454 0
M  V30 290 N 25.1277 -0.289203 -1.54924 0
M  V30 291 C 26.3557 0.326463 -2.04308 0
M  V30 292 C 26.7707 1.48413 -1.16701 0
M  V30 293 O 26.1277 1.81507 -0.190087 0
M  V30 294 C 26.1787 0.794014 -3.52672 0
M  V30 295 O 25.8997 -0.317564 -4.36948 0
M  V30 296 C 27.4007 1.47605 -4.18004 0
M  V30 297 H 24.6207 0.0726272 -0.667058 0
M  V30 298 H 27.1647 -0.425401 -2.00026 0
M  V30 299 H 25.3197 1.49593 -3.57352 0
M  V30 300 H 25.7337 0.0443186 -5.24481 0
M  V30 301 H 27.2077 1.75447 -5.23376 0
M  V30 302 H 27.6847 2.41224 -3.67025 0
M  V30 303 H 28.2907 0.81762 -4.17367 0
M  V30 304 N 26.6058 1.57591 -0.0167156 0
M  V30 305 C 28.0218 1.55946 0.339557 0
M  V30 306 C 28.2218 1.02109 1.73713 0
M  V30 307 O 27.2778 0.662303 2.43659 0
M  V30 308 C 28.5908 3.00037 0.199499 0
M  V30 309 C 30.1388 3.11805 0.273193 0
M  V30 310 C 30.6138 4.57713 0.162068 0
M  V30 311 N 32.1048 4.6268 0.219444 0
M  V30 312 C 32.8398 5.73185 0.157054 0
M  V30 313 N 32.3358 6.92786 0.0442936 0
M  V30 314 N 34.1288 5.61707 0.21014 0
M  V30 315 H 26.2798 1.90921 -0.930758 0
M  V30 316 H 28.5428 0.877674 -0.358319 0
M  V30 317 H 28.2488 3.4333 -0.76273 0
M  V30 318 H 28.1228 3.64387 0.974786 0
M  V30 319 H 30.5098 2.68433 1.22587 0
M  V30 320 H 30.5908 2.50201 -0.532256 0
M  V30 321 H 30.2348 5.01763 -0.78714 0
M  V30 322 H 30.1648 5.17283 0.986222 0
M  V30 323 H 32.6558 3.76649 0.307246 0
M  V30 324 H 32.9688 7.728 0.00304069 0
M  V30 325 H 31.3138 6.94999 0.00968457 0
M  V30 326 H 34.5048 4.6716 0.296546 0
M  V30 327 H 34.6778 6.47807 0.158054 0
M  V30 328 N 28.0839 -0.256276 1.55502 0
M  V30 329 C 29.0139 -1.32102 1.92539 0
M  V30 330 C 29.9949 -1.50684 0.789194 0
M  V30 331 O 31.1799 -1.63449 1.04872 0
M  V30 332 C 28.3099 -2.67752 2.21192 0
M  V30 333 C 27.2639 -2.63878 3.36975 0
M  V30 334 C 26.5899 -4.03236 3.51147 0
M  V30 335 C 27.8899 -2.21682 4.72921 0
M  V30 336 H 29.5839 -1.01351 2.81724 0
M  V30 337 H 27.1299 -0.486105 1.35547 0
M  V30 338 H 29.0829 -3.42365 2.45691 0
M  V30 339 H 27.8069 -3.0012 1.28824 0
M  V30 340 H 26.4659 -1.91722 3.12471 0
M  V30 341 H 26.1139 -4.32854 2.56216 0
M  V30 342 H 25.8139 -4.01535 4.29003 0
M  V30 343 H 27.3379 -4.79563 3.77957 0
M  V30 344 H 28.7519 -2.86023 4.96854 0
M  V30 345 H 27.1489 -2.3111 5.53812 0
M  V30 346 H 28.2189 -1.16833 4.70615 0
M  V30 347 N 29.562 -1.4872 -0.521534 0
M  V30 348 C 30.81 -1.56857 -1.27437 0
M  V30 349 C 31.131 -0.247982 -1.93417 0
M  V30 350 O 30.401 0.731151 -1.81744 0
M  V30 351 H 28.981 -0.577885 -0.473347 0
M  V30 352 H 31.643 -1.85233 -0.606205 0
M  V30 353 H 30.739 -2.35402 -2.0492 0
M  V30 354 N 31.0401 0.771051 -1.3745 0
M  V30 355 C 31.9701 1.89827 -1.3597 0
M  V30 356 C 32.9511 1.68562 -0.228216 0
M  V30 357 O 34.1361 1.8941 -0.428675 0
M  V30 358 C 31.2661 3.2712 -1.16662 0
M  V30 359 C 30.2201 3.6295 -2.2683 0
M  V30 360 C 29.5461 4.98791 -1.92644 0
M  V30 361 C 30.8461 3.69627 -3.69017 0
M  V30 362 H 32.5401 1.91323 -2.30295 0
M  V30 363 H 30.0861 0.919082 -1.10855 0
M  V30 364 H 32.0391 4.05615 -1.14256 0
M  V30 365 H 30.7631 3.26059 -0.187926 0
M  V30 366 H 29.4221 2.86763 -2.28392 0
M  V30 367 H 29.0701 4.94271 -0.933021 0
M  V30 368 H 28.7701 5.23733 -2.66416 0
M  V30 369 H 30.2941 5.79685 -1.91826 0
M  V30 370 H 31.7081 4.38273 -3.69581 0
M  V30 371 H 30.1051 4.06067 -4.41848 0
M  V30 372 H 31.1751 2.70273 -4.02592 0
M  V30 373 N 32.5182 1.22032 0.997298 0
M  V30 374 C 33.4662 0.983634 2.10778 0
M  V30 375 C 34.4602 -0.0717564 1.69248 0
M  V30 376 O 35.6662 0.080304 1.79821 0
M  V30 377 H 32.0412 0.300877 0.689186 0
M  V30 378 H 34.0122 1.92606 2.27916 0
M  V30 379 C 32.7612 0.57326 3.42942 0
M  V30 380 H 32.0842 1.37702 3.75338 0
M  V30 381 H 33.5242 0.447031 4.21637 0
M  V30 382 C 31.9832 -0.7167 3.29188 0
M  V30 383 O 32.5132 -1.77027 3.60589 0
M  V30 384 N 30.7192 -0.686167 2.82383 0
M  V30 385 H 30.2662 0.171507 2.57028 0
M  V30 386 H 30.2242 -1.54955 2.73562 0
M  V30 387 N 33.9963 -1.19345 1.0293 0
M  V30 388 C 34.9283 -2.22036 0.56857 0
M  V30 389 C 35.9413 -1.58865 -0.355779 0
M  V30 390 O 37.1303 -1.77851 -0.152103 0
M  V30 391 C 34.2303 -3.38363 -0.190752 0
M  V30 392 C 33.4033 -4.31118 0.738643 0
M  V30 393 C 32.4623 -5.26194 0.0246497 0
M  V30 394 O 31.4883 -5.65461 0.651354 0
M  V30 395 N 32.6903 -5.66971 -1.24594 0
M  V30 396 H 35.4553 -2.6219 1.45177 0
M  V30 397 H 33.0163 -1.34015 0.908381 0
M  V30 398 H 35.0083 -3.98981 -0.677961 0
M  V30 399 H 33.5783 -2.96994 -0.975366 0
M  V30 400 H 32.7983 -3.68276 1.40593 0
M  V30 401 H 34.0863 -4.90001 1.37029 0
M  V30 402 H 33.4843 -5.37104 -1.77583 0
M  V30 403 H 32.0413 -6.2984 -1.67764 0
M  V30 404 N 35.4744 -0.807222 -1.35358 0
M  V30 405 C 36.7224 -0.387122 -1.98358 0
M  V30 406 C 37.0434 1.04942 -1.64354 0
M  V30 407 O 36.3134 1.72615 -0.926339 0
M  V30 408 H 34.8934 -0.140154 -0.733734 0
M  V30 409 H 37.5554 -1.0332 -1.6526 0
M  V30 410 H 36.6514 -0.493352 -3.08176 0
M  V30 411 N 36.9525 1.47285 -0.560781 0
M  V30 412 C 38.1805 2.06855 -0.0430262 0
M  V30 413 C 38.5955 1.41291 1.25229 0
M  V30 414 O 37.9525 0.510648 1.7521 0
M  V30 415 C 38.0035 3.61178 0.152518 0
M  V30 416 O 37.7245 4.24285 -1.0915 0
M  V30 417 C 39.2255 4.37624 0.707145 0
M  V30 418 H 36.4455 0.669319 -0.0474652 0
M  V30 419 H 38.9895 1.89237 -0.77521 0
M  V30 420 H 37.1445 3.78298 0.834843 0
M  V30 421 H 37.5585 5.16868 -0.891482 0
M  V30 422 H 39.0325 5.46271 0.793244 0
M  V30 423 H 39.5095 4.04152 1.71923 0
M  V30 424 H 40.1155 4.25257 0.0604027 0
M  V30 425 N 38.4306 0.297415 1.54768 0
M  V30 426 C 39.3936 -0.567375 2.22066 0
M  V30 427 C 40.3936 -1.06409 1.20556 0
M  V30 428 O 41.5836 -0.960691 1.45315 0
M  V30 429 C 38.7156 -1.78517 2.90421 0
M  V30 430 H 39.9086 0.0205534 2.99893 0
M  V30 431 H 37.4616 0.0482163 1.56226 0
M  V30 432 H 38.1966 -2.41303 2.16664 0
M  V30 433 H 37.9816 -1.43669 3.64831 0
M  V30 434 H 39.4716 -2.39964 3.41771 0
M  V30 435 N 39.9087 -1.5758 0.0250728 0
M  V30 436 C 41.1567 -1.91255 -0.653151 0
M  V30 437 C 41.4777 -0.901691 -1.729 0
M  V30 438 O 40.7477 0.0573785 -1.95816 0
M  V30 439 H 39.3277 -0.705942 -0.244243 0
M  V30 440 H 41.9897 -1.94767 0.0719209 0
M  V30 441 H 41.0857 -2.91752 -1.10847 0
M  V30 442 N 41.3868 0.248026 -1.55636 0
M  V30 443 C 42.3348 1.32683 -1.91045 0
M  V30 444 C 43.3288 1.49883 -0.789401 0
M  V30 445 O 44.5348 1.51371 -0.974007 0
M  V30 446 H 40.9098 0.444272 -0.606734 0
M  V30 447 H 42.8808 1.00085 -2.81115 0
M  V30 448 C 41.6298 2.6755 -2.22064 0
M  V30 449 H 40.9528 2.55114 -3.07826 0
M  V30 450 H 42.3928 3.41912 -2.50743 0
M  V30 451 C 40.8518 3.20556 -1.0366 0
M  V30 452 O 41.3818 4.00695 -0.284016 0
M  V30 453 N 39.5878 2.78568 -0.82753 0
M  V30 454 H 39.1348 2.1351 -1.44123 0
M  V30 455 H 39.0928 3.14378 -0.0369803 0
M  V30 456 N 42.8649 1.48995 0.513639 0
M  V30 457 C 44.1109 1.58076 1.27042 0
M  V30 458 C 44.4439 0.261026 1.92438 0
M  V30 459 O 43.7189 -0.734393 1.80103 0
M  V30 460 C 44.0019 2.73091 2.34719 0
M  V30 461 C 43.8549 4.14821 1.73907 0
M  V30 462 C 45.1739 2.83796 3.36375 0
M  V30 463 H 42.2929 0.575391 0.460536 0
M  V30 464 H 44.9349 1.81232 0.570516 0
M  V30 465 H 43.0849 2.53479 2.94416 0
M  V30 466 H 44.7569 4.45917 1.18135 0
M  V30 467 H 42.9999 4.21058 1.0437 0
M  V30 468 H 43.6709 4.91147 2.51949 0
M  V30 469 H 46.1469 3.01611 2.86653 0
M  V30 470 H 45.0229 3.65971 4.09093 0
M  V30 471 H 45.2839 1.92624 3.9793 0
M  V30 472 N 44.343 -0.763751 1.37857 0
M  V30 473 C 45.568 -1.55805 1.36893 0
M  V30 474 C 45.993 -1.88054 -0.0416135 0
M  V30 475 O 45.351 -1.49825 -1.02089 0
M  V30 476 C 45.399 -2.84012 2.22192 0
M  V30 477 O 44.503 -3.78732 1.63204 0
M  V30 478 H 43.844 -0.471638 0.46739 0
M  V30 479 H 46.374 -0.944657 1.81487 0
M  V30 480 H 46.384 -3.33037 2.35691 0
M  V30 481 H 45.059 -2.59869 3.24716 0
M  V30 482 H 43.636 -3.37402 1.58791 0
M  V30 483 N 45.8211 -1.22559 -0.990812 0
M  V30 484 C 47.0671 -1.05297 -1.73322 0
M  V30 485 C 47.4001 0.410655 -1.89808 0
M  V30 486 O 46.6751 1.30439 -1.44277 0
M  V30 487 C 46.9581 -1.76713 -3.13759 0
M  V30 488 C 46.8111 -3.30684 -3.04907 0
M  V30 489 C 48.1301 -1.52121 -4.12974 0
M  V30 490 H 45.2491 -0.38392 -0.629106 0
M  V30 491 H 47.8911 -1.50926 -1.15418 0
M  V30 492 H 46.0411 -1.37924 -3.63193 0
M  V30 493 H 47.7131 -3.7893 -2.63077 0
M  V30 494 H 45.9561 -3.60253 -2.41661 0
M  V30 495 H 46.6271 -3.75833 -4.04294 0
M  V30 496 H 49.1031 -1.85819 -3.72304 0
M  V30 497 H 47.9791 -2.04582 -5.0935 0
M  V30 498 H 48.2401 -0.454257 -4.3976 0
M  V30 499 N 47.2992 1.18797 -1.03562 0
M  V30 500 C 48.7152 1.40671 -0.753917 0
M  V30 501 C 48.9152 1.9043 0.658686 0
M  V30 502 O 47.9712 2.08538 1.42366 0
M  V30 503 C 49.2842 2.41192 -1.79574 0
M  V30 504 C 50.8322 2.54928 -1.81606 0
M  V30 505 C 51.3072 3.58709 -2.84766 0
M  V30 506 N 52.7982 3.66212 -2.83625 0
M  V30 507 C 53.5332 4.46225 -3.60098 0
M  V30 508 N 53.0292 5.29888 -4.46308 0
M  V30 509 N 54.8222 4.40939 -3.4861 0
M  V30 510 H 46.9732 0.848221 -1.94728 0
M  V30 511 H 49.2362 0.435081 -0.842264 0
M  V30 512 H 48.9422 2.11669 -2.80872 0
M  V30 513 H 48.8162 3.40467 -1.62365 0
M  V30 514 H 51.2032 2.83771 -0.809817 0
M  V30 515 H 51.2842 1.55784 -2.02891 0
M  V30 516 H 50.9282 3.30607 -3.85566 0
M  V30 517 H 50.8582 4.57519 -2.60737 0
M  V30 518 H 53.3492 3.06466 -2.21105 0
M  V30 519 H 53.6622 5.88078 -5.01382 0
M  V30 520 H 52.0072 5.29326 -4.50377 0
M  V30 521 H 55.1982 3.74624 -2.80668 0
M  V30 522 H 55.3712 5.03056 -4.08459 0
M  V30 523 N 48.7773 0.814389 1.34928 0
M  V30 524 C 50.0073 0.41054 2.0248 0
M  V30 525 C 50.4153 -0.985625 1.61499 0
M  V30 526 O 49.7583 -1.64781 0.811976 0
M  V30 527 C 49.8203 0.423384 3.56998 0
M  V30 528 C 49.4843 1.77141 4.21272 0
M  V30 529 C 50.4813 2.73093 4.42398 0
M  V30 530 C 48.1663 2.05755 4.58225 0
M  V30 531 C 50.1603 3.95838 4.9959 0
M  V30 532 C 47.8473 3.28762 5.1513 0
M  V30 533 C 48.8453 4.23621 5.35755 0
M  V30 534 O 48.5333 5.44456 5.91458 0
M  V30 535 H 48.2653 0.163997 0.655806 0
M  V30 536 H 50.8193 1.10155 1.73364 0
M  V30 537 H 49.0493 -0.324276 3.85338 0
M  V30 538 H 50.7383 0.0407683 4.0588 0
M  V30 539 H 51.5043 2.5228 4.14222 0
M  V30 540 H 47.3833 1.32727 4.4148 0
M  V30 541 H 50.9273 4.69891 5.15605 0
M  V30 542 H 46.8243 3.49443 5.42734 0
M  V30 543 H 47.5923 5.4586 6.09901 0
M  V30 544 N 50.2554 -1.46986 0.568584 0
M  V30 545 C 51.1874 -2.28233 -0.210337 0
M  V30 546 C 52.2004 -1.37682 -0.868767 0
M  V30 547 O 53.3894 -1.62406 -0.740705 0
M  V30 548 C 50.4894 -3.12293 -1.3163 0
M  V30 549 C 49.6624 -4.30878 -0.7525 0
M  V30 550 C 48.7214 -4.96445 -1.74439 0
M  V30 551 O 47.7474 -5.54482 -1.286 0
M  V30 552 N 48.9494 -4.92171 -3.07812 0
M  V30 553 H 51.7144 -2.95723 0.486648 0
M  V30 554 H 49.2754 -1.56742 0.405409 0
M  V30 555 H 51.2674 -3.53022 -1.97883 0
M  V30 556 H 49.8374 -2.46971 -1.91636 0
M  V30 557 H 49.0574 -3.94104 0.0871128 0
M  V30 558 H 50.3454 -5.07558 -0.35536 0
M  V30 559 H 49.7434 -4.46239 -3.47688 0
M  V30 560 H 48.3004 -5.36884 -3.69592 0
M  V30 561 N 51.7335 -0.305618 -1.54608 0
M  V30 562 C 53.0105 0.355652 -1.92339 0
M  V30 563 C 53.3905 1.71324 -1.23335 0
M  V30 564 O 52.7385 2.25473 -0.370702 0
M  V30 565 C 52.9485 0.46572 -3.45879 0
M  V30 566 C 54.2965 0.734426 -4.182 0
M  V30 567 O 55.3205 0.54935 -3.51938 0
M  V30 568 O 54.1795 1.09024 -5.35515 0
M  V30 569 H 51.2735 0.199666 -0.802535 0
M  V30 570 H 53.8195 -0.354017 -1.65966 0
M  V30 571 H 52.5915 -0.488461 -3.88239 0
M  V30 572 H 52.2145 1.22367 -3.78301 0
M  V30 573 N 53.2116 1.57565 -0.0334293 0
M  V30 574 C 54.4596 1.91598 0.642999 0
M  V30 575 C 54.7806 0.910847 1.7242 0
M  V30 576 O 54.0506 -0.0469931 1.95844 0
M  V30 577 H 52.6306 0.707228 0.240496 0
M  V30 578 H 55.2926 1.94726 -0.0822488 0
M  V30 579 H 54.3886 2.92336 1.09298 0
M  V30 580 N 54.6897 -0.239769 1.55765 0
M  V30 581 C 55.6227 -1.32356 1.85895 0
M  V30 582 C 56.6007 -1.46053 0.714662 0
M  V30 583 O 57.7847 -1.62154 0.961157 0
M  V30 584 C 54.9117 -2.6962 2.04994 0
M  V30 585 C 53.9577 -2.73036 3.27648 0
M  V30 586 S 54.7907 -2.28929 4.84099 0
M  V30 587 C 55.9467 -3.68103 5.06212 0
M  V30 588 H 56.1797 -1.06601 2.77531 0
M  V30 589 H 53.7127 -0.441112 1.47965 0
M  V30 590 H 55.6707 -3.48653 2.16682 0
M  V30 591 H 54.3317 -2.92609 1.14188 0
M  V30 592 H 53.5247 -3.7386 3.38 0
M  V30 593 H 53.1267 -2.02052 3.14723 0
M  V30 594 H 55.4187 -4.63656 4.93993 0
M  V30 595 H 56.3617 -3.6268 6.08168 0
M  V30 596 H 56.7697 -3.60947 4.34025 0
M  V30 597 N 56.1678 -1.49265 -0.50573 0
M  V30 598 C 57.0978 -1.68495 -1.61653 0
M  V30 599 C 58.0788 -0.53366 -1.61512 0
M  V30 600 O 59.2638 -0.76897 -1.78327 0
M  V30 601 C 56.3938 -1.74709 -3.00157 0
M  V30 602 C 55.3478 -2.89581 -3.15162 0
M  V30 603 C 54.6738 -2.80903 -4.5497 0
M  V30 604 C 55.9738 -4.30578 -2.95634 0
M  V30 605 H 57.6678 -2.61493 -1.45814 0
M  V30 606 H 55.2138 -1.25838 -0.70005 0
M  V30 607 H 57.1668 -1.86748 -3.77761 0
M  V30 608 H 55.8908 -0.783067 -3.17074 0
M  V30 609 H 54.5498 -2.77136 -2.39982 0
M  V30 610 H 54.1978 -1.82419 -4.68756 0
M  V30 611 H 53.8978 -3.57999 -4.65951 0
M  V30 612 H 55.4218 -2.94944 -5.34641 0
M  V30 613 H 56.8358 -4.4373 -3.63011 0
M  V30 614 H 55.2328 -5.0886 -3.18091 0
M  V30 615 H 56.3028 -4.45352 -1.91806 0
M  V30 616 N 57.6459 0.756429 -1.3826 0
M  V30 617 C 58.8949 1.51082 -1.3363 0
M  V30 618 C 59.2079 1.95467 0.0720068 0
M  V30 619 O 60.4139 2.7043 0.240834 0
M  V30 620 C 58.8699 2.72893 -2.34644 0
M  V30 621 C 58.4779 2.35544 -3.81081 0
M  V30 622 C 60.2219 3.50791 -2.39052 0
M  V30 623 C 58.1289 3.53948 -4.73787 0
M  V30 624 H 57.0589 0.56727 -0.49671 0
M  V30 625 H 59.7099 0.827147 -1.638 0
M  V30 626 H 58.0919 3.43227 -1.97513 0
M  V30 627 H 59.2659 1.72894 -4.27135 0
M  V30 628 H 57.5809 1.70786 -3.79764 0
M  V30 629 H 60.1779 4.38823 -3.05513 0
M  V30 630 H 60.5209 3.91745 -1.40861 0
M  V30 631 H 61.0539 2.87467 -2.74968 0
M  V30 632 H 57.7929 3.18064 -5.73163 0
M  V30 633 H 57.3129 4.15651 -4.32428 0
M  V30 634 H 58.9919 4.20566 -4.91663 0
M  V30 635 N 59.124 1.23083 0.984299 0
M  V30 636 C 60.352 1.08714 1.76037 0
M  V30 637 C 60.767 -0.361691 1.85303 0
M  V30 638 O 60.124 -1.25034 1.32939 0
M  V30 639 C 60.175 1.70206 3.18923 0
M  V30 640 O 59.896 3.09423 3.10144 0
M  V30 641 C 61.397 1.61227 4.12941 0
M  V30 642 H 58.617 0.380664 0.552572 0
M  V30 643 H 61.161 1.62853 1.23689 0
M  V30 644 H 59.316 1.20109 3.6831 0
M  V30 645 H 59.73 3.39188 4.00065 0
M  V30 646 H 61.204 2.08962 5.10919 0
M  V30 647 H 61.681 0.570375 4.35481 0
M  V30 648 H 62.287 2.10671 3.69456 0
M  V30 649 N 60.6021 -1.18246 1.0419 0
M  V30 650 C 62.0131 -1.69914 0.773698 0
M  V30 651 C 62.3641 -1.83085 -0.705297 0
M  V30 652 O 61.4891 -1.51123 -1.5489 0
M  V30 653 C 62.0841 -3.08619 1.39784 0
M  V30 654 C 60.6431 -3.57494 1.17792 0
M  V30 655 C 59.7901 -2.34013 1.48773 0
M  V30 656 H 62.7411 -1.02904 1.20816 0
M  V30 657 H 62.7621 -3.71958 0.801714 0
M  V30 658 H 62.2741 -2.99001 2.47426 0
M  V30 659 H 60.3751 -3.72406 0.120295 0
M  V30 660 H 60.4881 -4.40852 1.87581 0
M  V30 661 H 58.8521 -2.37986 0.907463 0
M  V30 662 H 59.6351 -2.27013 2.57527 0
M  V30 663 N 62.0802 -0.821533 -1.34494 0
M  V30 664 C 63.3082 -0.421884 -2.02553 0
M  V30 665 C 63.7232 0.971745 -1.61872 0
M  V30 666 O 63.0802 1.62864 -0.823496 0
M  V30 667 C 63.1312 -0.51285 -3.57844 0
M  V30 668 O 62.8522 -1.85155 -3.97051 0
M  V30 669 C 64.3532 -0.107921 -4.43169 0
M  V30 670 H 61.5732 -0.169482 -0.649243 0
M  V30 671 H 64.1172 -1.1093 -1.71798 0
M  V30 672 H 62.2722 0.126474 -3.87193 0
M  V30 673 H 62.6862 -1.82482 -4.91732 0
M  V30 674 H 64.1602 -0.222657 -5.51551 0
M  V30 675 H 64.6372 0.948401 -4.28838 0
M  V30 676 H 65.2432 -0.720989 -4.19144 0
M  V30 677 N 63.5583 1.46682 -0.576371 0
M  V30 678 C 64.8063 2.02013 -0.0594163 0
M  V30 679 C 65.1273 1.45101 1.30271 0
M  V30 680 O 64.3973 0.633317 1.8538 0
M  V30 681 H 62.9773 0.746759 -0.0189745 0
M  V30 682 H 65.6393 1.79862 -0.750717 0
M  V30 683 H 64.7353 3.12097 0.014345 0
M  V30 684 N 65.0364 0.313813 1.54444 0
M  V30 685 C 66.2854 -0.292519 1.99568 0
M  V30 686 C 66.5984 -1.54011 1.20582 0
M  V30 687 O 67.8044 -2.22183 1.56035 0
M  V30 688 C 66.2604 -0.571752 3.55329 0
M  V30 689 C 65.8684 0.658229 4.43138 0
M  V30 690 C 67.6124 -1.13857 4.08946 0
M  V30 691 C 65.5194 0.351439 5.90355 0
M  V30 692 H 64.4494 -0.113079 0.745472 0
M  V30 693 H 67.1004 0.424518 1.78522 0
M  V30 694 H 65.4824 -1.34872 3.72325 0
M  V30 695 H 66.6564 1.43403 4.37918 0
M  V30 696 H 64.9714 1.14458 4.0036 0
M  V30 697 H 67.5684 -1.38257 5.16516 0
M  V30 698 H 67.9114 -2.08489 3.6033 0
M  V30 699 H 68.4444 -0.423015 3.95544 0
M  V30 700 H 65.1834 1.26667 6.43145 0
M  V30 701 H 64.7034 -0.386842 5.98551 0
M  V30 702 H 66.3824 -0.0423134 6.46986 0
M  V30 703 N 66.5145 -1.57545 0.0417849 0
M  V30 704 C 67.9255 -1.80011 -0.495259 0
M  V30 705 C 68.2765 -0.953199 -1.71489 0
M  V30 706 O 67.4015 -0.167138 -2.15754 0
M  V30 707 C 67.9965 -3.26482 -0.905265 0
M  V30 708 C 66.5555 -3.499 -1.38734 0
M  V30 709 C 65.7025 -2.74979 -0.358056 0
M  V30 710 H 68.6535 -1.56425 0.267736 0
M  V30 711 H 68.6745 -3.36887 -1.76882 0
M  V30 712 H 68.1865 -3.88096 -0.017401 0
M  V30 713 H 66.2875 -2.93553 -2.29471 0
M  V30 714 H 66.4005 -4.58615 -1.38598 0
M  V30 715 H 64.7645 -2.40834 -0.828912 0
M  V30 716 H 65.5475 -3.39315 0.521561 0
M  V30 717 N 67.9926 0.231505 -1.5589 0
M  V30 718 C 69.2226 0.973092 -1.82248 0
M  V30 719 C 69.6306 1.78845 -0.617328 0
M  V30 720 O 68.9736 1.78752 0.423499 0
M  V30 721 C 69.0356 1.94732 -3.02192 0
M  V30 722 C 68.6996 1.31743 -4.37599 0
M  V30 723 C 69.6966 0.712238 -5.14998 0
M  V30 724 C 67.3816 1.33218 -4.84312 0
M  V30 725 C 69.3756 0.130195 -6.37267 0
M  V30 726 C 67.0626 0.746286 -6.06526 0
M  V30 727 C 68.0606 0.146337 -6.82843 0
M  V30 728 O 67.7486 -0.430465 -8.02747 0
M  V30 729 H 67.4806 0.29125 -0.61004 0
M  V30 730 H 70.0346 0.254915 -2.03812 0
M  V30 731 H 68.2646 2.70422 -2.76422 0
M  V30 732 H 69.9536 2.55362 -3.15508 0
M  V30 733 H 70.7196 0.69324 -4.8002 0
M  V30 734 H 66.5986 1.78854 -4.24891 0
M  V30 735 H 70.1426 -0.33871 -6.96777 0
M  V30 736 H 66.0396 0.762663 -6.40979 0
M  V30 737 H 66.8076 -0.323818 -8.17859 0
M  V30 738 N 69.4707 1.49531 0.497807 0
M  V30 739 C 70.3807 1.69176 1.62532 0
M  V30 740 C 71.3967 0.5744 1.64246 0
M  V30 741 O 72.5727 0.849497 1.82608 0
M  V30 742 C 69.6377 1.75695 2.98885 0
M  V30 743 C 68.6987 2.9929 3.07773 0
M  V30 744 C 67.9317 3.05488 4.37622 0
M  V30 745 O 68.1547 2.19192 5.26603 0
M  V30 746 O 67.0887 3.9798 4.51548 0
M  V30 747 H 70.9147 2.647 1.48887 0
M  V30 748 H 68.4997 1.3331 0.674441 0
M  V30 749 H 70.3817 1.82317 3.79919 0
M  V30 750 H 69.0567 0.8335 3.12785 0
M  V30 751 H 67.9637 2.98183 2.25915 0
M  V30 752 H 69.2967 3.91125 2.98801 0
M  V30 753 N 70.9488 -0.749086 1.3866 0
M  V30 754 C 71.8958 -1.86291 1.36251 0
M  V30 755 C 72.8658 -1.64578 0.224347 0
M  V30 756 O 74.0508 -1.86181 0.417279 0
M  V30 757 C 71.1908 -3.23644 1.19786 0
M  V30 758 C 70.3038 -3.57158 2.43027 0
M  V30 759 C 69.4388 -4.83838 2.19258 0
M  V30 760 C 68.4778 -5.10152 3.38247 0
M  V30 761 N 67.6148 -6.28029 3.13884 0
M  V30 762 H 72.4548 -1.87685 2.3147 0
M  V30 763 H 69.9918 -0.917287 1.14997 0
M  V30 764 H 71.9498 -4.0291 1.08254 0
M  V30 765 H 70.5798 -3.21566 0.282031 0
M  V30 766 H 69.6318 -2.72701 2.65214 0
M  V30 767 H 70.9438 -3.7253 3.31697 0
M  V30 768 H 70.0978 -5.71057 2.04888 0
M  V30 769 H 68.8368 -4.70614 1.2796 0
M  V30 770 H 67.8418 -4.21401 3.53131 0
M  V30 771 H 69.0668 -5.25271 4.30427 0
M  V30 772 H 67.0128 -6.1612 2.25238 0
M  V30 773 H 66.9298 -6.43922 3.96106 0
M  V30 774 H 68.1978 -7.18124 3.03179 0
M  V30 775 N 72.4269 -1.23603 -0.977757 0
M  V30 776 C 73.3569 -1.04401 -2.0886 0
M  V30 777 C 74.3379 0.0399052 -1.70053 0
M  V30 778 O 75.5229 -0.125246 -1.93796 0
M  V30 779 C 72.6529 -0.637269 -3.41403 0
M  V30 780 C 71.6069 -1.66883 -3.94124 0
M  V30 781 C 70.9329 -1.11745 -5.22893 0
M  V30 782 C 72.2329 -3.06247 -4.23096 0
M  V30 783 H 73.9269 -1.97316 -2.25182 0
M  V30 784 H 71.4729 -0.950096 -1.08209 0
M  V30 785 H 73.4259 -0.48998 -4.18542 0
M  V30 786 H 72.1499 0.327557 -3.24953 0
M  V30 787 H 70.8089 -1.80416 -3.19133 0
M  V30 788 H 70.4569 -0.143527 -5.02795 0
M  V30 789 H 70.1569 -1.80672 -5.59134 0
M  V30 790 H 71.6809 -0.982067 -6.02651 0
M  V30 791 H 73.0949 -2.96001 -4.90975 0
M  V30 792 H 71.4919 -3.72436 -4.70544 0
M  V30 793 H 72.5619 -3.55041 -3.30263 0
M  V30 794 N 73.905 1.17692 -1.04816 0
M  V30 795 C 75.133 1.91786 -0.776254 0
M  V30 796 C 75.548 1.76604 0.667577 0
M  V30 797 O 74.905 1.10067 1.45573 0
M  V30 798 C 74.956 3.42967 -1.14263 0
M  V30 799 O 74.677 3.57678 -2.52978 0
M  V30 800 C 76.178 4.34144 -0.896311 0
M  V30 801 H 73.398 0.608624 -0.282519 0
M  V30 802 H 75.942 1.49268 -1.39783 0
M  V30 803 H 74.097 3.83245 -0.565874 0
M  V30 804 H 74.511 4.51319 -2.67229 0
M  V30 805 H 75.985 5.38744 -1.20244 0
M  V30 806 H 76.462 4.38876 0.168636 0
M  V30 807 H 77.068 3.99574 -1.45672 0
M  V30 808 N 75.3831 0.828654 1.34056 0
M  V30 809 C 76.2931 0.256725 2.33191 0
M  V30 810 C 77.3091 -0.611898 1.62886 0
M  V30 811 O 78.4851 -0.51844 1.94613 0
M  V30 812 C 75.5501 -0.567238 3.42028 0
M  V30 813 C 74.6111 0.324458 4.28072 0
M  V30 814 C 73.8441 -0.460274 5.31712 0
M  V30 815 O 74.0671 -1.693 5.44696 0
M  V30 816 O 73.0011 0.160391 6.01686 0
M  V30 817 H 76.8271 1.07739 2.83947 0
M  V30 818 H 74.4121 0.59093 1.37217 0
M  V30 819 H 76.2941 -1.03582 4.08471 0
M  V30 820 H 74.9691 -1.36513 2.93506 0
M  V30 821 H 73.8761 0.840659 3.64532 0
M  V30 822 H 75.2091 1.08685 4.8005 0
M  V30 823 N 76.8612 -1.46375 0.584142 0
M  V30 824 C 78.0862 -2.07268 0.0740405 0
M  V30 825 C 78.5112 -1.42979 -1.22223 0
M  V30 826 O 77.8692 -0.514092 -1.73859 0
M  V30 827 C 77.9172 -3.60518 -0.0767769 0
M  V30 828 O 77.0212 -3.96533 -1.13292 0
M  V30 829 H 76.3622 -0.660961 0.0634524 0
M  V30 830 H 78.8922 -1.87991 0.807492 0
M  V30 831 H 78.9022 -4.07021 -0.282489 0
M  V30 832 H 77.5772 -4.06702 0.86986 0
M  V30 833 H 76.1542 -3.61738 -0.905553 0
M  V30 834 N 78.3393 -0.321999 -1.54275 0
M  V30 835 C 79.2893 0.560185 -2.21011 0
M  V30 836 C 80.2733 1.08283 -1.19011 0
M  V30 837 O 81.4653 1.02011 -1.44647 0
M  V30 838 C 78.5943 1.72137 -2.97025 0
M  V30 839 C 77.6803 1.21369 -4.06363 0
M  V30 840 N 78.0713 0.425566 -5.04007 0
M  V30 841 C 76.3693 1.49255 -4.20284 0
M  V30 842 C 77.0703 0.152601 -5.815 0
M  V30 843 N 76.0463 0.738294 -5.38563 0
M  V30 844 H 79.8483 -0.049265 -2.93859 0
M  V30 845 H 77.3623 -0.127779 -1.61897 0
M  V30 846 H 79.3593 2.36512 -3.43319 0
M  V30 847 H 78.0193 2.33431 -2.25699 0
M  V30 848 H 79.0303 0.068551 -5.17855 0
M  V30 849 H 75.7073 2.11145 -3.60172 0
M  V30 850 H 77.0973 -0.481764 -6.70171 0
M  V30 851 N 79.8174 1.5752 -0.0501392 0
M  V30 852 C 81.0664 1.91827 0.623328 0
M  V30 853 C 81.3794 0.930222 1.72065 0
M  V30 854 O 82.5854 1.1653 2.4522 0
M  V30 855 C 81.0414 3.40692 1.16003 0
M  V30 856 C 80.6494 4.479 0.0948811 0
M  V30 857 C 82.3934 3.84034 1.80881 0
M  V30 858 C 80.3004 5.87879 0.644411 0
M  V30 859 H 79.2304 0.715918 0.236596 0
M  V30 860 H 81.8814 1.83115 -0.118861 0
M  V30 861 H 80.2634 3.44405 1.9545 0
M  V30 862 H 81.4374 4.55775 -0.678675 0
M  V30 863 H 79.7524 4.13892 -0.45637 0
M  V30 864 H 82.3494 4.85984 2.22988 0
M  V30 865 H 82.6924 3.20225 2.6601 0
M  V30 866 H 83.2254 3.82833 1.0809 0
M  V30 867 H 79.9644 6.55282 -0.169229 0
M  V30 868 H 79.4844 5.83567 1.38598 0
M  V30 869 H 81.1634 6.37098 1.12763 0
M  V30 870 N 81.2955 -0.223234 1.56011 0
M  V30 871 C 82.5415 -0.949279 1.79211 0
M  V30 872 C 82.8745 -1.84054 0.619494 0
M  V30 873 O 82.1495 -1.90726 -0.381317 0
M  V30 874 C 82.4325 -1.78965 3.12479 0
M  V30 875 C 82.2855 -0.924997 4.40186 0
M  V30 876 C 83.6045 -2.76774 3.42175 0
M  V30 877 H 80.7235 -0.343676 0.651963 0
M  V30 878 H 83.3655 -0.218253 1.88742 0
M  V30 879 H 81.5155 -2.41291 3.04485 0
M  V30 880 H 83.1875 -0.318615 4.60198 0
M  V30 881 H 81.4305 -0.230344 4.33188 0
M  V30 882 H 82.1015 -1.54735 5.29869 0
M  V30 883 H 84.5775 -2.24584 3.50287 0
M  V30 884 H 83.4535 -3.32678 4.36597 0
M  V30 885 H 83.7145 -3.54429 2.64258 0
M  V30 886 N 82.7736 -1.49793 -0.48987 0
M  V30 887 C 84.0206 -1.59841 -1.24327 0
M  V30 888 C 84.3486 -0.290135 -1.92324 0
M  V30 889 O 83.6036 0.722749 -1.81865 0
M  V30 890 C 83.9026 -2.71488 -2.32441 0
M  V30 891 C 83.5686 -4.12614 -1.81826 0
M  V30 892 C 82.2306 -4.51017 -1.67742 0
M  V30 893 C 84.5826 -5.00892 -1.4407 0
M  V30 894 C 81.9106 -5.75459 -1.14297 0
M  V30 895 C 84.2626 -6.25863 -0.920742 0
M  V30 896 C 82.9266 -6.63086 -0.766383 0
M  V30 897 H 82.1966 -0.584899 -0.454944 0
M  V30 898 H 84.8436 -1.83663 -0.542215 0
M  V30 899 H 83.1486 -2.4168 -3.0838 0
M  V30 900 H 84.8456 -2.76469 -2.90458 0
M  V30 901 H 81.4356 -3.82307 -1.93751 0
M  V30 902 H 85.6196 -4.7187 -1.53794 0
M  V30 903 H 80.8756 -6.02989 -1.01068 0
M  V30 904 H 85.0496 -6.9364 -0.619448 0
M  V30 905 H 82.6766 -7.59393 -0.350083 0
M  V30 906 N 84.2517 0.741722 -1.39055 0
M  V30 907 C 85.5007 1.49656 -1.35225 0
M  V30 908 C 85.8137 1.95533 0.0512708 0
M  V30 909 O 87.0197 2.7067 0.212138 0
M  V30 910 C 85.4757 2.70389 -2.37525 0
M  V30 911 C 85.0837 2.31489 -3.83558 0
M  V30 912 C 86.8277 3.48236 -2.42759 0
M  V30 913 C 84.7347 3.48903 -4.77515 0
M  V30 914 H 83.6647 0.56197 -0.502699 0
M  V30 915 H 86.3157 0.809727 -1.64668 0
M  V30 916 H 84.6977 3.41113 -2.01142 0
M  V30 917 H 85.8717 1.68354 -4.28945 0
M  V30 918 H 84.1867 1.66749 -3.81554 0
M  V30 919 H 86.7837 4.35558 -3.1015 0
M  V30 920 H 87.1267 3.90229 -1.45008 0
M  V30 921 H 87.6597 2.84535 -2.78002 0
M  V30 922 H 84.3987 3.11966 -5.76504 0
M  V30 923 H 83.9187 4.11041 -4.36813 0
M  V30 924 H 85.5977 4.15328 -4.96096 0
M  V30 925 N 85.7298 1.2412 0.971189 0
M  V30 926 C 87.0068 0.986867 1.6888 0
M  V30 927 C 87.3868 -0.491857 2.0529 0
M  V30 928 O 86.7348 -1.46531 1.75331 0
M  V30 929 C 86.9448 1.9063 2.92338 0
M  V30 930 C 88.2928 2.17515 3.64654 0
M  V30 931 O 89.3168 1.88254 3.02388 0
M  V30 932 O 88.1758 2.6719 4.7673 0
M  V30 933 H 85.2698 0.372944 0.738134 0
M  V30 934 H 87.8158 1.35203 1.02559 0
M  V30 935 H 86.5878 2.90552 2.62097 0
M  V30 936 H 86.2108 1.54408 3.66393 0
M  V30 937 N 87.2079 -1.17134 1.05439 0
M  V30 938 C 88.4559 -1.87085 0.764429 0
M  V30 939 C 88.7769 -1.81584 -0.710787 0
M  V30 940 O 88.0469 -1.24349 -1.51374 0
M  V30 941 H 86.6269 -0.692627 0.279779 0
M  V30 942 H 89.2889 -1.42087 1.33406 0
M  V30 943 H 88.3849 -2.92759 1.0816 0
M  V30 944 N 88.686 -0.835752 -1.33615 0
M  V30 945 C 89.634 -0.255238 -2.31195 0
M  V30 946 C 90.628 0.61107 -1.57995 0
M  V30 947 O 91.834 0.500979 -1.72888 0
M  V30 948 H 88.209 -0.0638085 -0.749288 0
M  V30 949 H 90.18 -1.09283 -2.77669 0
M  V30 950 C 88.929 0.55754 -3.43201 0
M  V30 951 H 88.252 -0.0997553 -3.99676 0
M  V30 952 H 89.692 0.929622 -4.13683 0
M  V30 953 C 88.151 1.73515 -2.88781 0
M  V30 954 O 88.681 2.83376 -2.84712 0
M  V30 955 N 86.887 1.55603 -2.4543 0
M  V30 956 H 86.434 0.662354 -2.48939 0
M  V30 957 H 86.392 2.34545 -2.09371 0
M  V30 958 N 90.1641 1.46063 -0.591896 0
M  V30 959 C 91.4121 2.01938 -0.0808391 0
M  V30 960 C 91.7331 1.46475 1.28725 0
M  V30 961 O 91.0031 0.652944 1.84698 0
M  V30 962 H 89.5831 0.746516 -0.0268938 0
M  V30 963 H 92.2451 1.79055 -0.769752 0
M  V30 964 H 91.3411 3.12094 -0.0187578 0
M  V30 965 N 91.6422 0.330177 1.54103 0
M  V30 966 C 92.5892 -0.532762 2.24567 0
M  V30 967 C 93.5592 -1.10635 1.23892 0
M  V30 968 O 94.7442 -1.14546 1.5259 0
M  V30 969 C 91.8842 -1.6845 3.01195 0
M  V30 970 C 90.9972 -1.13951 4.167 0
M  V30 971 C 90.1322 -2.25746 4.80845 0
M  V30 972 C 89.1712 -1.6853 5.88442 0
M  V30 973 N 88.3082 -2.74014 6.46421 0
M  V30 974 H 93.1482 0.0746905 2.97906 0
M  V30 975 H 90.6852 0.048632 1.4702 0
M  V30 976 H 92.6432 -2.36234 3.43874 0
M  V30 977 H 91.2732 -2.26314 2.30178 0
M  V30 978 H 90.3252 -0.35301 3.78758 0
M  V30 979 H 91.6372 -0.680892 4.94131 0
M  V30 980 H 90.7912 -3.01422 5.26526 0
M  V30 981 H 89.5302 -2.74947 4.0281 0
M  V30 982 H 88.5352 -0.913543 5.42157 0
M  V30 983 H 89.7602 -1.20198 6.68378 0
M  V30 984 H 87.7062 -3.22494 5.71256 0
M  V30 985 H 87.6232 -2.32735 7.19285 0
M  V30 986 H 88.8912 -3.49499 6.96757 0
M  V30 987 N 93.1203 -1.57491 0.0584922 0
M  V30 988 C 94.0703 -2.08474 -0.923188 0
M  V30 989 C 95.0543 -0.991479 -1.26722 0
M  V30 990 O 96.2463 -1.25473 -1.24842 0
M  V30 991 C 93.3753 -2.6392 -2.19548 0
M  V30 992 C 92.4613 -3.80227 -1.87852 0
M  V30 993 N 92.8523 -4.89714 -1.26546 0
M  V30 994 C 91.1503 -3.89271 -2.17679 0
M  V30 995 C 91.8513 -5.70689 -1.12644 0
M  V30 996 N 90.8273 -5.18531 -1.63176 0
M  V30 997 H 94.6293 -2.90517 -0.444653 0
M  V30 998 H 92.1433 -1.61745 -0.145764 0
M  V30 999 H 94.1403 -2.98752 -2.9078 0
M  V30 1000 H 92.8003 -1.83318 -2.68001 0
M  V30 1001 H 93.8113 -5.09358 -0.936757 0
M  V30 1002 H 90.4883 -3.19623 -2.68602 0
M  V30 1003 H 91.8783 -6.6875 -0.6499 0
M  V30 1004 N 94.5984 0.214957 -1.56127 0
M  V30 1005 C 95.5084 1.28727 -1.96129 0
M  V30 1006 C 96.5244 1.50916 -0.866044 0
M  V30 1007 O 97.7004 1.63918 -1.17016 0
M  V30 1008 C 94.7654 2.61569 -2.27558 0
M  V30 1009 C 93.8264 2.47625 -3.50685 0
M  V30 1010 C 93.0594 3.74132 -3.80606 0
M  V30 1011 O 93.2824 4.77438 -3.12104 0
M  V30 1012 O 92.2164 3.70849 -4.74083 0
M  V30 1013 H 96.0424 0.977855 -2.87527 0
M  V30 1014 H 93.6274 0.418358 -1.43423 0
M  V30 1015 H 95.5094 3.40012 -2.48938 0
M  V30 1016 H 94.1844 2.92178 -1.39332 0
M  V30 1017 H 93.0914 1.67361 -3.34576 0
M  V30 1018 H 94.4244 2.21954 -4.39315 0
M  V30 1019 N 96.0765 1.50051 0.48192 0
M  V30 1020 C 96.9865 1.7089 1.60728 0
M  V30 1021 C 98.0025 0.591788 1.63627 0
M  V30 1022 O 99.1785 0.868817 1.81696 0
M  V30 1023 C 96.2435 1.78855 2.97005 0
M  V30 1024 C 95.3045 3.02537 3.04581 0
M  V30 1025 C 94.5375 3.10112 4.34357 0
M  V30 1026 O 94.7605 2.24765 5.24249 0
M  V30 1027 O 93.6945 4.02747 4.47301 0
M  V30 1028 H 97.5205 2.66264 1.46072 0
M  V30 1029 H 95.1055 1.34018 0.660264 0
M  V30 1030 H 96.9875 1.86336 3.77964 0
M  V30 1031 H 95.6625 0.866628 3.11883 0
M  V30 1032 H 94.5695 3.00563 2.22739 0
M  V30 1033 H 95.9025 3.94272 2.94636 0
M  V30 1034 N 97.5546 -0.734337 1.39446 0
M  V30 1035 C 98.8026 -1.49096 1.36436 0
M  V30 1036 C 99.1236 -1.94961 -0.0388255 0
M  V30 1037 O 98.3936 -1.69033 -0.990191 0
M  V30 1038 H 96.9736 -0.5531 0.502085 0
M  V30 1039 H 99.6356 -0.871725 1.74319 0
M  V30 1040 H 98.7316 -2.37276 2.02747 0
M  V30 1041 N 99.0327 -1.24633 -0.964593 0
M  V30 1042 C 99.9797 -1.04144 -2.05968 0
M  V30 1043 C 100.95 0.046262 -1.66036 0
M  V30 1044 O 102.135 -0.108972 -1.90489 0
M  V30 1045 C 99.2747 -0.65563 -3.38815 0
M  V30 1046 C 98.3877 -1.81714 -3.91923 0
M  V30 1047 C 97.5227 -1.37662 -5.13052 0
M  V30 1048 C 96.5617 -2.50788 -5.58365 0
M  V30 1049 N 95.6987 -2.07582 -6.70712 0
M  V30 1050 H 100.539 -1.9787 -2.22827 0
M  V30 1051 H 98.0757 -0.9855 -1.09208 0
M  V30 1052 H 100.034 -0.412954 -4.15151 0
M  V30 1053 H 98.6637 0.244627 -3.21872 0
M  V30 1054 H 97.7157 -2.1734 -3.12198 0
M  V30 1055 H 99.0277 -2.66705 -4.21509 0
M  V30 1056 H 98.1817 -1.093 -5.96773 0
M  V30 1057 H 96.9207 -0.497293 -4.85158 0
M  V30 1058 H 95.9257 -2.79906 -4.73215 0
M  V30 1059 H 97.1507 -3.39283 -5.88272 0
M  V30 1060 H 95.0967 -1.22051 -6.44546 0
M  V30 1061 H 95.0137 -2.86125 -6.99763 0
M  V30 1062 H 96.2817 -1.82369 -7.57867 0
M  V30 1063 N 100.511 1.16574 -1.06058 0
M  V30 1064 C 101.441 2.23057 -0.690488 0
M  V30 1065 C 102.422 1.67141 0.315901 0
M  V30 1066 O 103.607 1.93253 0.191556 0
M  V30 1067 C 100.737 3.47222 -0.073625 0
M  V30 1068 C 99.6908 4.16016 -1.00573 0
M  V30 1069 C 99.0168 5.34104 -0.252289 0
M  V30 1070 C 100.317 4.67264 -2.33371 0
M  V30 1071 H 102.011 2.54271 -1.58072 0
M  V30 1072 H 99.5568 1.22218 -0.76149 0
M  V30 1073 H 101.51 4.20939 0.19714 0
M  V30 1074 H 100.234 3.15302 0.85161 0
M  V30 1075 H 98.8928 3.44223 -1.2612 0
M  V30 1076 H 98.5408 4.98437 0.675988 0
M  V30 1077 H 98.2408 5.81072 -0.873455 0
M  V30 1078 H 99.7648 6.10599 0.0109857 0
M  V30 1079 H 101.179 5.32573 -2.12223 0
M  V30 1080 H 99.5758 5.24843 -2.90963 0
M  V30 1081 H 100.646 3.83602 -2.96611 0
M  V30 1082 N 101.989 0.842826 1.3317 0
M  V30 1083 C 103.4 0.496651 1.79973 0
M  V30 1084 C 103.751 -0.984641 1.69703 0
M  V30 1085 O 102.876 -1.76743 1.24863 0
M  V30 1086 C 103.471 0.894727 3.26772 0
M  V30 1087 C 102.03 0.600629 3.71577 0
M  V30 1088 C 101.177 1.10091 2.5451 0
M  V30 1089 H 104.128 1.03116 1.20635 0
M  V30 1090 H 104.149 0.206347 3.7994 0
M  V30 1091 H 103.661 1.97287 3.34215 0
M  V30 1092 H 101.762 -0.467284 3.69658 0
M  V30 1093 H 101.875 1.15863 4.64879 0
M  V30 1094 H 100.239 0.52162 2.49301 0
M  V30 1095 H 101.022 2.18591 2.64713 0
M  V30 1096 N 103.467 -1.45747 0.599634 0
M  V30 1097 C 104.692 -2.07178 0.0960198 0
M  V30 1098 C 105.117 -1.44268 -1.207 0
M  V30 1099 O 104.475 -0.532503 -1.73303 0
M  V30 1100 C 104.523 -3.60579 -0.0385348 0
M  V30 1101 O 103.627 -3.97713 -1.0908 0
M  V30 1102 H 102.968 -0.660251 0.0704593 0
M  V30 1103 H 105.498 -1.87124 0.827385 0
M  V30 1104 H 105.508 -4.07298 -0.239304 0
M  V30 1105 H 104.183 -4.05756 0.912947 0
M  V30 1106 H 102.76 -3.62678 -0.867135 0
M  V30 1107 N 104.945 -0.338344 -1.53925 0
M  V30 1108 C 106.17 0.263987 -2.05713 0
M  V30 1109 C 106.595 1.43847 -1.21201 0
M  V30 1110 O 105.953 1.79904 -0.224535 0
M  V30 1111 C 106.001 0.662 -3.54471 0
M  V30 1112 O 105.105 1.76265 -3.72833 0
M  V30 1113 H 104.446 0.0448722 -0.662482 0
M  V30 1114 H 106.976 -0.491048 -1.9862 0
M  V30 1115 H 106.986 0.940594 -3.9701 0
M  V30 1116 H 105.661 -0.196937 -4.15433 0
M  V30 1117 H 104.238 1.48173 -3.42198 0
M  V30 1118 N 106.423 1.57458 -0.0668435 0
M  V30 1119 C 107.333 2.15937 0.916975 0
M  V30 1120 C 108.349 1.12123 1.33058 0
M  V30 1121 O 109.525 1.44366 1.40429 0
M  V30 1122 C 106.59 2.70547 2.16807 0
M  V30 1123 C 105.651 3.89215 1.81135 0
M  V30 1124 C 104.884 4.41211 3.0028 0
M  V30 1125 O 105.107 3.92225 4.14144 0
M  V30 1126 O 104.041 5.32605 2.80384 0
M  V30 1127 H 107.867 3.00354 0.449561 0
M  V30 1128 H 105.452 1.48584 0.155949 0
M  V30 1129 H 107.334 3.0557 2.90181 0
M  V30 1130 H 106.009 1.89192 2.62656 0
M  V30 1131 H 104.916 3.59054 1.05028 0
M  V30 1132 H 106.249 4.71848 1.40073 0
M  V30 1133 N 107.901 -0.206675 1.56239 0
M  V30 1134 C 109.147 -0.925733 1.81113 0
M  V30 1135 C 109.502 -1.81368 0.642135 0
M  V30 1136 O 108.795 -1.88126 -0.363211 0
M  V30 1137 C 108.989 -1.78675 3.09532 0
M  V30 1138 C 108.818 -0.98365 4.3881 0
M  V30 1139 C 107.588 -0.672661 5.00803 0
M  V30 1140 C 109.786 -0.341847 5.13163 0
M  V30 1141 N 107.768 0.150283 6.13716 0
M  V30 1142 C 109.139 0.343815 6.19046 0
M  V30 1143 C 111.194 -0.256392 4.97239 0
M  V30 1144 C 109.897 1.10678 7.10734 0
M  V30 1145 C 111.923 0.493142 5.8934 0
M  V30 1146 C 111.285 1.16729 6.94661 0
M  V30 1147 H 107.384 -0.318524 0.714189 0
M  V30 1148 H 109.968 -0.195378 1.93717 0
M  V30 1149 H 108.139 -2.4888 2.98183 0
M  V30 1150 H 109.871 -2.44441 3.22538 0
M  V30 1151 H 106.626 -0.994294 4.63045 0
M  V30 1152 H 107.05 0.551026 6.74754 0
M  V30 1153 H 111.692 -0.763249 4.15854 0
M  V30 1154 H 109.41 1.6251 7.91591 0
M  V30 1155 H 112.996 0.560465 5.79094 0
M  V30 1156 H 111.876 1.738 7.64698 0
M  V30 1157 N 109.379 -1.50304 -0.473955 0
M  V30 1158 C 110.795 -1.37667 -0.807466 0
M  V30 1159 C 110.995 -0.430555 -1.96846 0
M  V30 1160 O 110.051 0.127874 -2.52176 0
M  V30 1161 C 111.364 -2.78974 -1.12223 0
M  V30 1162 C 112.912 -2.87868 -1.22885 0
M  V30 1163 C 113.387 -4.30003 -1.57676 0
M  V30 1164 N 114.878 -4.3294 -1.64673 0
M  V30 1165 C 115.613 -5.3991 -1.93091 0
M  V30 1166 N 115.109 -6.57092 -2.1955 0
M  V30 1167 N 116.902 -5.27351 -1.94569 0
M  V30 1168 H 109.053 -2.10394 0.291212 0
M  V30 1169 H 111.316 -0.945575 0.0677609 0
M  V30 1170 H 111.022 -3.50031 -0.342229 0
M  V30 1171 H 110.896 -3.16038 -2.05913 0
M  V30 1172 H 113.283 -2.17032 -1.99953 0
M  V30 1173 H 113.364 -2.54352 -0.271814 0
M  V30 1174 H 113.008 -5.01375 -0.81149 0
M  V30 1175 H 112.938 -4.61004 -2.54525 0
M  V30 1176 H 115.429 -3.48441 -1.46277 0
M  V30 1177 H 115.742 -7.34425 -2.405 0
M  V30 1178 H 114.087 -6.60272 -2.16948 0
M  V30 1179 H 117.278 -4.34801 -1.73394 0
M  V30 1180 H 117.451 -6.10805 -2.16381 0
M  V30 1181 N 110.857 0.726932 -1.39834 0
M  V30 1182 C 112.104 1.48664 -1.37496 0
M  V30 1183 C 112.432 1.94482 0.0264678 0
M  V30 1184 O 111.687 1.67692 1.00886 0
M  V30 1185 C 111.986 2.73495 -2.30077 0
M  V30 1186 C 111.652 2.46502 -3.77555 0
M  V30 1187 C 110.314 2.3885 -4.17737 0
M  V30 1188 C 112.666 2.23604 -4.70798 0
M  V30 1189 C 109.994 2.06352 -5.49214 0
M  V30 1190 C 112.346 1.92622 -6.02561 0
M  V30 1191 C 111.01 1.83444 -6.41798 0
M  V30 1192 H 110.28 0.544001 -0.503135 0
M  V30 1193 H 112.927 0.833657 -1.72402 0
M  V30 1194 H 111.232 3.43575 -1.88317 0
M  V30 1195 H 112.929 3.31549 -2.25558 0
M  V30 1196 H 109.519 2.5334 -3.45712 0
M  V30 1197 H 113.703 2.28479 -4.40581 0
M  V30 1198 H 108.959 1.97776 -5.78528 0
M  V30 1199 H 113.133 1.73914 -6.74334 0
M  V30 1200 H 110.76 1.58029 -7.43593 0
M  V30 1201 N 112.336 1.25143 0.95797 0
M  V30 1202 C 113.286 1.01924 2.0395 0
M  V30 1203 C 114.27 -0.0427175 1.60843 0
M  V30 1204 O 115.462 0.17221 1.7616 0
M  V30 1205 C 112.591 0.636373 3.3735 0
M  V30 1206 C 111.677 1.73492 3.8699 0
M  V30 1207 N 112.068 2.96945 4.0946 0
M  V30 1208 C 110.366 1.61467 4.15746 0
M  V30 1209 C 111.067 3.68228 4.50315 0
M  V30 1210 N 110.043 2.95833 4.56053 0
M  V30 1211 H 113.845 1.95653 2.19311 0
M  V30 1212 H 111.359 1.15413 1.14253 0
M  V30 1213 H 113.356 0.451233 4.14451 0
M  V30 1214 H 112.016 -0.293621 3.2337 0
M  V30 1215 H 113.027 3.33025 3.96629 0
M  V30 1216 H 109.704 0.753394 4.10646 0
M  V30 1217 H 111.094 4.74178 4.76031 0
M  V30 1218 N 113.814 -1.1601 1.06675 0
M  V30 1219 C 114.747 -2.1947 0.625168 0
M  V30 1220 C 115.725 -1.58699 -0.354041 0
M  V30 1221 O 116.909 -1.86669 -0.262098 0
M  V30 1222 C 114.036 -3.38598 -0.0829593 0
M  V30 1223 C 113.082 -4.1787 0.853611 0
M  V30 1224 S 113.915 -4.81135 2.35094 0
M  V30 1225 C 115.071 -6.03639 1.65441 0
M  V30 1226 H 115.304 -2.56587 1.50168 0
M  V30 1227 H 112.837 -1.26862 0.880078 0
M  V30 1228 H 114.795 -4.07621 -0.485288 0
M  V30 1229 H 113.456 -2.99839 -0.935716 0
M  V30 1230 H 112.649 -5.03078 0.304755 0
M  V30 1231 H 112.251 -3.54361 1.196 0
M  V30 1232 H 114.543 -6.70632 0.962201 0
M  V30 1233 H 115.486 -6.63081 2.48454 0
M  V30 1234 H 115.894 -5.52965 1.13534 0
M  V30 1235 N 115.292 -0.849877 -1.32721 0
M  V30 1236 C 116.255 -0.296122 -2.27279 0
M  V30 1237 C 117.255 0.541458 -1.5141 0
M  V30 1238 O 118.445 0.353658 -1.70572 0
M  V30 1239 C 115.577 0.581579 -3.35902 0
M  V30 1240 H 116.77 -1.13064 -2.77771 0
M  V30 1241 H 114.323 -0.62383 -1.43311 0
M  V30 1242 H 115.058 1.43809 -2.9067 0
M  V30 1243 H 114.843 -0.0178814 -3.92096 0
M  V30 1244 H 116.333 0.961951 -4.0637 0
M  V30 1245 N 116.77 1.45427 -0.607355 0
M  V30 1246 C 117.733 2.28974 0.101693 0
M  V30 1247 C 118.733 1.39754 0.795329 0
M  V30 1248 O 119.923 1.61878 0.643527 0
M  V30 1249 C 117.055 3.20768 1.15414 0
M  V30 1250 H 118.248 2.93147 -0.632844 0
M  V30 1251 H 115.801 1.51945 -0.366391 0
M  V30 1252 H 116.536 2.61395 1.91945 0
M  V30 1253 H 116.321 3.86489 0.66098 0
M  V30 1254 H 117.811 3.83589 1.65073 0
M  V30 1255 N 118.248 0.346503 1.53744 0
M  V30 1256 C 119.478 -0.250047 2.05081 0
M  V30 1257 C 119.886 -1.44529 1.22098 0
M  V30 1258 O 119.229 -1.81992 0.249917 0
M  V30 1259 C 119.291 -0.725934 3.52094 0
M  V30 1260 C 118.955 0.350053 4.55657 0
M  V30 1261 C 119.952 1.19372 5.0601 0
M  V30 1262 C 117.637 0.504827 4.99757 0
M  V30 1263 C 119.631 2.17768 5.99046 0
M  V30 1264 C 117.318 1.49218 5.92602 0
M  V30 1265 C 118.316 2.32706 6.42135 0
M  V30 1266 O 118.004 3.2976 7.33153 0
M  V30 1267 H 117.736 -0.0515469 0.674032 0
M  V30 1268 H 120.29 0.497559 1.99282 0
M  V30 1269 H 118.52 -1.52483 3.55367 0
M  V30 1270 H 120.209 -1.24336 3.86388 0
M  V30 1271 H 120.975 1.08525 4.72702 0
M  V30 1272 H 116.854 -0.135178 4.60802 0
M  V30 1273 H 120.398 2.82971 6.37631 0
M  V30 1274 H 116.295 1.6012 6.25325 0
M  V30 1275 H 117.063 3.25265 7.51096 0
M  V30 1276 N 119.726 -1.57421 0.075193 0
M  V30 1277 C 120.658 -2.09904 -0.920483 0
M  V30 1278 C 121.671 -1.03191 -1.25918 0
M  V30 1279 O 122.86 -1.30695 -1.21577 0
M  V30 1280 C 119.96 -2.54726 -2.23534 0
M  V30 1281 C 119.133 -3.8505 -2.07498 0
M  V30 1282 C 118.192 -4.15929 -3.22319 0
M  V30 1283 O 117.218 -4.85474 -2.9716 0
M  V30 1284 N 118.42 -3.69745 -4.47514 0
M  V30 1285 H 121.185 -2.95954 -0.472359 0
M  V30 1286 H 118.746 -1.61523 -0.110444 0
M  V30 1287 H 120.738 -2.72443 -2.9926 0
M  V30 1288 H 119.308 -1.73795 -2.59835 0
M  V30 1289 H 118.528 -3.76679 -1.16219 0
M  V30 1290 H 119.816 -4.70348 -1.94038 0
M  V30 1291 H 119.214 -3.13569 -4.7084 0
M  V30 1292 H 117.771 -3.92655 -5.20255 0
M  V30 1293 N 121.204 0.198386 -1.56346 0
M  V30 1294 C 122.429 0.939682 -1.84891 0
M  V30 1295 C 122.854 1.76202 -0.658369 0
M  V30 1296 O 122.212 1.76993 0.392851 0
M  V30 1297 C 122.26 1.81428 -3.11635 0
M  V30 1298 O 121.364 2.91265 -2.91956 0
M  V30 1299 H 120.705 0.264807 -0.608912 0
M  V30 1300 H 123.235 0.204695 -2.03573 0
M  V30 1301 H 123.245 2.21958 -3.42343 0
M  V30 1302 H 121.92 1.21004 -3.97908 0
M  V30 1303 H 120.497 2.54514 -2.72538 0
M  V30 1304 N 122.682 1.50554 0.465978 0
M  V30 1305 C 124.098 1.38093 0.800154 0
M  V30 1306 C 124.298 0.440988 1.96615 0
M  V30 1307 O 123.354 -0.114499 2.5224 0
M  V30 1308 C 124.667 2.79565 1.10742 0
M  V30 1309 C 126.215 2.88516 1.21357 0
M  V30 1310 C 126.69 4.30833 1.55393 0
M  V30 1311 N 128.181 4.33807 1.62375 0
M  V30 1312 C 128.916 5.40927 1.90225 0
M  V30 1313 N 128.412 6.58247 2.16062 0
M  V30 1314 N 130.205 5.28376 1.9177 0
M  V30 1315 H 122.356 2.10237 -0.302366 0
M  V30 1316 H 124.619 0.945203 -0.0727746 0
M  V30 1317 H 124.325 3.50208 0.323661 0
M  V30 1318 H 124.199 3.17125 2.04234 0
M  V30 1319 H 126.586 2.1809 1.98799 0
M  V30 1320 H 126.667 2.54492 0.258321 0
M  V30 1321 H 126.311 5.01799 0.784889 0
M  V30 1322 H 126.241 4.62347 2.52076 0
M  V30 1323 H 128.732 3.49212 1.44427 0
M  V30 1324 H 129.045 7.3569 2.36601 0
M  V30 1325 H 127.39 6.61413 2.13444 0
M  V30 1326 H 130.581 4.35715 1.71085 0
M  V30 1327 H 130.754 6.11944 2.13139 0
M  V30 1328 N 124.16 -0.719506 1.40217 0
M  V30 1329 C 125.571 -1.29848 1.34151 0
M  V30 1330 C 125.922 -1.96196 0.0131349 0
M  V30 1331 O 125.047 -1.973 -0.88892 0
M  V30 1332 C 125.642 -2.36118 2.42968 0
M  V30 1333 C 124.201 -2.8965 2.40374 0
M  V30 1334 C 123.348 -1.63393 2.24049 0
M  V30 1335 H 126.299 -0.51591 1.5008 0
M  V30 1336 H 126.32 -3.16871 2.10649 0
M  V30 1337 H 125.832 -1.878 3.39636 0
M  V30 1338 H 123.933 -3.42208 1.47392 0
M  V30 1339 H 124.046 -3.4171 3.35814 0
M  V30 1340 H 122.41 -1.88312 1.71495 0
M  V30 1341 H 123.193 -1.17104 3.2271 0
M  V30 1342 N 125.638 -1.25649 -0.95132 0
M  V30 1343 C 126.915 -1.01361 -1.67288 0
M  V30 1344 C 127.295 0.459135 -2.06046 0
M  V30 1345 O 126.643 1.43723 -1.7764 0
M  V30 1346 C 126.853 -1.95256 -2.89268 0
M  V30 1347 C 128.201 -2.23289 -3.61147 0
M  V30 1348 O 129.225 -1.93041 -2.99355 0
M  V30 1349 O 128.084 -2.74741 -4.72419 0
M  V30 1350 H 125.178 -0.38464 -0.732107 0
M  V30 1351 H 127.724 -1.36817 -1.00395 0
M  V30 1352 H 126.496 -2.94685 -2.57442 0
M  V30 1353 H 126.119 -1.60218 -3.6389 0
M  V30 1354 N 127.117 1.15442 -1.07289 0
M  V30 1355 C 128.08 2.18358 -0.696591 0
M  V30 1356 C 129.08 1.58637 0.262837 0
M  V30 1357 O 130.27 1.74145 0.0438809 0
M  V30 1358 C 127.402 3.4089 -0.0266151 0
M  V30 1359 H 128.595 2.53162 -1.60776 0
M  V30 1360 H 126.148 1.29893 -0.869342 0
M  V30 1361 H 126.883 3.11653 0.896822 0
M  V30 1362 H 126.668 3.85495 -0.716657 0
M  V30 1363 H 128.158 4.17009 0.222028 0
M  V30 1364 N 128.595 0.856903 1.32268 0
M  V30 1365 C 129.543 0.291987 2.3076 0
M  V30 1366 C 130.537 -0.585857 1.58947 0
M  V30 1367 O 131.743 -0.47341 1.73663 0
M  V30 1368 H 128.118 0.075721 0.748178 0
M  V30 1369 H 130.089 1.13687 2.75895 0
M  V30 1370 C 128.838 -0.502869 3.44044 0
M  V30 1371 H 128.161 0.163328 3.99466 0
M  V30 1372 H 129.601 -0.863691 4.1511 0
M  V30 1373 C 128.06 -1.68898 2.91505 0
M  V30 1374 O 128.59 -2.78811 2.89184 0
M  V30 1375 N 126.796 -1.51679 2.47875 0
M  V30 1376 H 126.343 -0.622666 2.49961 0
M  V30 1377 H 126.301 -2.31184 2.13076 0
M  V30 1378 N 130.073 -1.45103 0.615059 0
M  V30 1379 C 131.036 -2.29025 -0.0895485 0
M  V30 1380 C 132.036 -1.40174 -0.787906 0
M  V30 1381 O 133.226 -1.62217 -0.634933 0
M  V30 1382 C 130.358 -3.21376 -1.13711 0
M  V30 1383 H 131.551 -2.92807 0.648382 0
M  V30 1384 H 129.104 -1.51749 0.374444 0
M  V30 1385 H 129.839 -2.6241 -1.90556 0
M  V30 1386 H 129.624 -3.86834 -0.640475 0
M  V30 1387 H 131.114 -3.84459 -1.63036 0
M  V30 1388 N 131.551 -0.354651 -1.53558 0
M  V30 1389 C 132.797 0.238797 -2.01389 0
M  V30 1390 C 133.13 1.49309 -1.2418 0
M  V30 1391 O 132.405 1.91638 -0.332457 0
M  V30 1392 C 132.688 0.541771 -3.56001 0
M  V30 1393 C 132.541 -0.725388 -4.43912 0
M  V30 1394 C 133.86 1.34685 -4.18984 0
M  V30 1395 H 130.979 0.0853177 -0.732045 0
M  V30 1396 H 133.621 -0.477384 -1.83905 0
M  V30 1397 H 131.771 1.15189 -3.71031 0
M  V30 1398 H 133.443 -1.36313 -4.407 0
M  V30 1399 H 131.686 -1.34801 -4.12324 0
M  V30 1400 H 132.357 -0.468505 -5.50008 0
M  V30 1401 H 134.833 0.830837 -4.07721 0
M  V30 1402 H 133.709 1.52759 -5.27215 0
M  V30 1403 H 133.97 2.35221 -3.74331 0
M  V30 1404 N 133.029 1.57378 -0.0835403 0
M  V30 1405 C 134.275 1.94217 0.583733 0
M  V30 1406 C 134.608 0.964653 1.68547 0
M  V30 1407 O 133.883 -0.00422258 1.945 0
M  V30 1408 C 134.166 3.41253 1.14972 0
M  V30 1409 C 134.019 4.49768 0.0538277 0
M  V30 1410 C 135.338 3.89352 2.05166 0
M  V30 1411 H 132.457 0.706233 0.210724 0
M  V30 1412 H 135.099 1.89392 -0.1519 0
M  V30 1413 H 133.249 3.45496 1.77665 0
M  V30 1414 H 134.921 4.57641 -0.579851 0
M  V30 1415 H 133.164 4.29432 -0.614068 0
M  V30 1416 H 133.835 5.49817 0.490452 0
M  V30 1417 H 136.311 3.87189 1.52393 0
M  V30 1418 H 135.187 4.92822 2.41698 0
M  V30 1419 H 135.448 3.27973 2.96456 0
M  V30 1420 N 134.507 -0.190092 1.56449 0
M  V30 1421 C 135.457 -1.23977 1.91347 0
M  V30 1422 C 136.441 -1.40747 0.779693 0
M  V30 1423 O 137.633 -1.43033 1.04262 0
M  V30 1424 C 134.762 -2.58347 2.26079 0
M  V30 1425 C 133.848 -2.4535 3.45925 0
M  V30 1426 N 134.239 -2.02039 4.63696 0
M  V30 1427 C 132.537 -2.76229 3.50162 0
M  V30 1428 C 133.238 -2.01053 5.4585 0
M  V30 1429 N 132.214 -2.42747 4.8639 0
M  V30 1430 H 136.016 -0.896318 2.79899 0
M  V30 1431 H 133.53 -0.398496 1.57435 0
M  V30 1432 H 135.527 -3.34173 2.49267 0
M  V30 1433 H 134.187 -2.93512 1.38856 0
M  V30 1434 H 135.198 -1.7267 4.88268 0
M  V30 1435 H 131.875 -3.15556 2.73369 0
M  V30 1436 H 133.265 -1.69426 6.50188 0
M  V30 1437 N 135.985 -1.50799 -0.457987 0
M  V30 1438 C 136.933 -1.71162 -1.575 0
M  V30 1439 C 137.927 -0.577592 -1.59249 0
M  V30 1440 O 139.133 -0.758443 -1.63241 0
M  V30 1441 H 135.508 -0.540468 -0.522875 0
M  V30 1442 H 137.479 -2.64837 -1.37492 0
M  V30 1443 C 136.228 -1.83496 -2.95338 0
M  V30 1444 H 135.551 -2.70153 -2.94716 0
M  V30 1445 H 136.991 -2.01765 -3.72917 0
M  V30 1446 C 135.45 -0.589694 -3.31699 0
M  V30 1447 O 135.98 0.265163 -4.00824 0
M  V30 1448 N 134.186 -0.439845 -2.87252 0
M  V30 1449 H 133.733 -1.13655 -2.31172 0
M  V30 1450 H 133.691 0.392159 -3.11945 0
M  V30 1451 N 137.463 0.71206 -1.40597 0
M  V30 1452 C 138.413 1.81783 -1.37619 0
M  V30 1453 C 139.397 1.58896 -0.253162 0
M  V30 1454 O 140.589 1.70009 -0.492547 0
M  V30 1455 C 137.718 3.19944 -1.24462 0
M  V30 1456 C 136.804 3.48582 -2.4156 0
M  V30 1457 N 137.195 3.48016 -3.67041 0
M  V30 1458 C 135.493 3.79056 -2.35016 0
M  V30 1459 C 136.194 3.75096 -4.44609 0
M  V30 1460 N 135.17 3.94022 -3.74497 0
M  V30 1461 H 138.972 1.79683 -2.32575 0
M  V30 1462 H 136.486 0.91134 -1.34419 0
M  V30 1463 H 138.483 3.99133 -1.20411 0
M  V30 1464 H 137.143 3.23267 -0.304762 0
M  V30 1465 H 138.154 3.28782 -4.00153 0
M  V30 1466 H 134.831 3.89848 -1.49415 0
M  V30 1467 H 136.221 3.80934 -5.53479 0
M  V30 1468 N 138.941 1.26152 0.944643 0
M  V30 1469 C 139.904 1.07474 2.0244 0
M  V30 1470 C 140.904 0.0242064 1.60782 0
M  V30 1471 O 142.094 0.267302 1.72137 0
M  V30 1472 C 139.226 0.633956 3.34953 0
M  V30 1473 H 140.419 2.03336 2.20442 0
M  V30 1474 H 137.972 1.087 1.12312 0
M  V30 1475 H 138.707 -0.326811 3.22649 0
M  V30 1476 H 138.492 1.39247 3.66542 0
M  V30 1477 H 139.982 0.52501 4.14287 0
M  V30 1478 N 140.419 -1.14872 1.07899 0
M  V30 1479 C 141.665 -1.86064 0.806725 0
M  V30 1480 C 141.998 -1.82434 -0.665706 0
M  V30 1481 O 141.273 -1.25138 -1.48899 0
M  V30 1482 C 141.556 -3.34929 1.32267 0
M  V30 1483 C 141.409 -3.47161 2.86006 0
M  V30 1484 C 142.728 -4.29863 0.943717 0
M  V30 1485 H 139.847 -0.675591 0.294526 0
M  V30 1486 H 142.489 -1.34925 1.33773 0
M  V30 1487 H 140.639 -3.78611 0.870974 0
M  V30 1488 H 142.311 -3.12302 3.39507 0
M  V30 1489 H 140.554 -2.88539 3.23925 0
M  V30 1490 H 141.225 -4.51777 3.17177 0
M  V30 1491 H 143.701 -3.9417 1.33302 0
M  V30 1492 H 142.577 -5.32494 1.33198 0
M  V30 1493 H 142.838 -4.41846 -0.149796 0
M  V30 1494 N 141.898 -0.863906 -1.31812 0
M  V30 1495 C 142.848 -0.286898 -2.26188 0
M  V30 1496 C 143.832 0.572577 -1.50367 0
M  V30 1497 O 145.024 0.420447 -1.71934 0
M  V30 1498 C 142.153 0.515849 -3.39402 0
M  V30 1499 C 141.239 -0.356531 -4.22599 0
M  V30 1500 N 141.63 -1.44716 -4.84656 0
M  V30 1501 C 139.928 -0.147898 -4.45755 0
M  V30 1502 C 140.629 -1.98462 -5.46798 0
M  V30 1503 N 139.605 -1.28247 -5.28255 0
M  V30 1504 H 143.407 -1.12055 -2.717 0
M  V30 1505 H 140.921 -0.711012 -1.46008 0
M  V30 1506 H 142.918 0.945701 -4.06032 0
M  V30 1507 H 141.578 1.34718 -2.95434 0
M  V30 1508 H 142.589 -1.83008 -4.84488 0
M  V30 1509 H 139.266 0.647973 -4.12441 0
M  V30 1510 H 140.656 -2.89932 -6.06126 0
M  V30 1511 N 143.376 1.44774 -0.622745 0
M  V30 1512 C 144.616 2.04004 -0.127102 0
M  V30 1513 C 144.98 1.47862 1.22478 0
M  V30 1514 O 146.181 1.98541 1.81204 0
M  V30 1515 C 144.452 3.57247 -0.104429 0
M  V30 1516 S 146.011 4.37574 0.327814 0
M  V30 1517 H 142.829 0.708713 -0.0569776 0
M  V30 1518 H 145.431 1.77275 -0.824253 0
M  V30 1519 H 144.135 3.95616 -1.09159 0
M  V30 1520 H 143.666 3.88575 0.614236 0
M  V30 1521 H 145.681 4.70575 1.57395 0
M  V30 1522 N 144.854 0.36279 1.53368 0
M  V30 1523 C 146.082 -0.228613 2.05633 0
M  V30 1524 C 146.497 -1.42676 1.23649 0
M  V30 1525 O 145.854 -1.80394 0.27647 0
M  V30 1526 C 145.905 -0.624845 3.56059 0
M  V30 1527 O 145.626 0.525675 4.34935 0
M  V30 1528 C 147.127 -1.27493 4.24571 0
M  V30 1529 H 144.347 -0.0407183 0.669763 0
M  V30 1530 H 146.891 0.520352 1.97769 0
M  V30 1531 H 145.046 -1.32373 3.64083 0
M  V30 1532 H 145.46 0.205969 5.24095 0
M  V30 1533 H 146.934 -1.50277 5.31151 0
M  V30 1534 H 147.411 -2.23439 3.78116 0
M  V30 1535 H 148.017 -0.617558 4.20792 0
M  V30 1536 N 146.332 -1.57332 0.0918853 0
M  V30 1537 C 147.295 -2.12708 -0.85369 0
M  V30 1538 C 148.295 -1.05561 -1.213 0
M  V30 1539 O 149.485 -1.31461 -1.14296 0
M  V30 1540 C 146.617 -2.64503 -2.15061 0
M  V30 1541 H 147.81 -2.97573 -0.3729 0
M  V30 1542 H 145.363 -1.55509 -0.157072 0
M  V30 1543 H 146.098 -1.83149 -2.67632 0
M  V30 1544 H 145.883 -3.4284 -1.90272 0
M  V30 1545 H 147.373 -3.07351 -2.82711 0
M  V30 1546 N 147.81 0.181792 -1.56548 0
M  V30 1547 C 149.056 0.901431 -1.81665 0
M  V30 1548 C 149.389 1.82347 -0.668075 0
M  V30 1549 O 148.664 1.91669 0.330615 0
M  V30 1550 C 148.947 1.70618 -3.17115 0
M  V30 1551 C 148.8 0.807964 -4.42484 0
M  V30 1552 C 150.119 2.67605 -3.49393 0
M  V30 1553 H 147.238 0.32627 -0.660846 0
M  V30 1554 H 149.88 0.168134 -1.89255 0
M  V30 1555 H 148.03 2.33133 -3.10775 0
M  V30 1556 H 149.702 0.19649 -4.60881 0
M  V30 1557 H 147.945 0.115411 -4.33646 0
M  V30 1558 H 148.616 1.40632 -5.33785 0
M  V30 1559 H 151.092 2.15218 -3.56118 0
M  V30 1560 H 149.968 3.20985 -4.45264 0
M  V30 1561 H 150.229 3.47298 -2.73563 0
M  V30 1562 N 149.288 1.51039 0.449983 0
M  V30 1563 C 150.513 1.6715 1.22783 0
M  V30 1564 C 150.938 0.363081 1.84563 0
M  V30 1565 O 150.296 -0.675433 1.68249 0
M  V30 1566 C 150.344 2.77985 2.29689 0
M  V30 1567 O 149.448 2.40707 3.34864 0
M  V30 1568 H 148.789 0.557746 0.360299 0
M  V30 1569 H 151.319 1.97535 0.533005 0
M  V30 1570 H 151.329 3.01693 2.74673 0
M  V30 1571 H 150.004 3.72935 1.84098 0
M  V30 1572 H 148.581 2.27523 2.95445 0
M  V30 1573 N 150.766 -0.704594 1.40972 0
M  V30 1574 C 152.015 -1.46018 1.39146 0
M  V30 1575 C 152.328 -1.956 0.000589254 0
M  V30 1576 O 153.534 -2.71137 -0.1403 0
M  V30 1577 C 151.99 -2.63996 2.4461 0
M  V30 1578 C 151.598 -2.21238 3.89561 0
M  V30 1579 C 153.342 -3.41677 2.51907 0
M  V30 1580 C 151.249 -3.3612 4.86598 0
M  V30 1581 H 150.179 -0.548444 0.517422 0
M  V30 1582 H 152.83 -0.765784 1.66757 0
M  V30 1583 H 151.212 -3.3566 2.10115 0
M  V30 1584 H 152.386 -1.56923 4.33257 0
M  V30 1585 H 150.701 -1.56574 3.85841 0
M  V30 1586 H 153.298 -4.27182 3.2159 0
M  V30 1587 H 153.641 -3.86247 1.55303 0
M  V30 1588 H 154.174 -2.77064 2.85448 0
M  V30 1589 H 150.913 -2.96572 5.84573 0
M  V30 1590 H 150.433 -3.99315 4.47557 0
M  V30 1591 H 152.112 -4.02029 5.06934 0
M  V30 1592 N 152.244 -1.26651 -0.937939 0
M  V30 1593 C 153.174 -1.10993 -2.05433 0
M  V30 1594 C 154.155 -0.0142161 -1.70094 0
M  V30 1595 O 155.34 -0.186837 -1.93299 0
M  V30 1596 C 152.47 -0.745561 -3.39203 0
M  V30 1597 C 151.424 -1.79337 -3.88616 0
M  V30 1598 C 150.75 -1.28324 -5.19073 0
M  V30 1599 C 152.05 -3.19553 -4.13138 0
M  V30 1600 H 153.744 -2.0438 -2.1879 0
M  V30 1601 H 151.29 -0.984041 -1.05131 0
M  V30 1602 H 153.243 -0.622888 -4.16771 0
M  V30 1603 H 151.967 0.22401 -3.25831 0
M  V30 1604 H 150.626 -1.90477 -3.13231 0
M  V30 1605 H 150.274 -0.303414 -5.02084 0
M  V30 1606 H 149.974 -1.98369 -5.53103 0
M  V30 1607 H 151.498 -1.1733 -5.99221 0
M  V30 1608 H 152.912 -3.11471 -4.81309 0
M  V30 1609 H 151.309 -3.87218 -4.58457 0
M  V30 1610 H 152.379 -3.65368 -3.18801 0
M  V30 1611 N 153.722 1.14298 -1.08507 0
M  V30 1612 C 154.67 2.21483 -0.710483 0
M  V30 1613 C 155.664 1.66998 0.284234 0
M  V30 1614 O 156.87 1.79401 0.146692 0
M  V30 1615 H 153.245 0.721578 -0.211729 0
M  V30 1616 H 155.216 2.50348 -1.62384 0
M  V30 1617 C 153.965 3.4743 -0.137007 0
M  V30 1618 H 153.288 3.89686 -0.893592 0
M  V30 1619 H 154.728 4.2391 0.0872789 0
M  V30 1620 C 153.187 3.17548 1.12538 0
M  V30 1621 O 153.717 3.35437 2.21009 0
M  V30 1622 N 151.923 2.71499 1.03617 0
M  V30 1623 H 151.47 2.57143 0.153403 0
M  V30 1624 H 151.428 2.51881 1.88158 0
M  V30 1625 N 155.201 0.870884 1.31352 0
M  V30 1626 C 156.617 0.562932 1.49343 0
M  V30 1627 C 156.817 -0.902725 1.80148 0
M  V30 1628 O 155.873 -1.68484 1.88067 0
M  V30 1629 C 157.186 1.46393 2.62659 0
M  V30 1630 C 158.734 1.46607 2.76542 0
M  V30 1631 C 159.209 2.35266 3.92955 0
M  V30 1632 N 160.7 2.33151 4.00243 0
M  V30 1633 C 161.435 2.98471 4.89594 0
M  V30 1634 N 160.931 3.72964 5.8384 0
M  V30 1635 N 162.724 2.87775 4.82848 0
M  V30 1636 H 154.875 1.81923 1.09626 0
M  V30 1637 H 157.138 0.777934 0.541777 0
M  V30 1638 H 156.844 2.50689 2.46674 0
M  V30 1639 H 156.718 1.16314 3.58819 0
M  V30 1640 H 159.105 0.43069 2.9194 0
M  V30 1641 H 159.186 1.8071 1.81046 0
M  V30 1642 H 158.83 3.38881 3.78315 0
M  V30 1643 H 158.76 1.98487 4.87761 0
M  V30 1644 H 161.251 1.79006 3.32814 0
M  V30 1645 H 161.564 4.19932 6.4875 0
M  V30 1646 H 159.909 3.77073 5.83816 0
M  V30 1647 H 163.1 2.29116 4.08195 0
M  V30 1648 H 163.273 3.38961 5.52277 0
M  V30 1649 N 156.679 -1.44442 0.630414 0
M  V30 1650 C 157.904 -2.06927 0.139944 0
M  V30 1651 C 158.329 -1.46795 -1.17613 0
M  V30 1652 O 157.687 -0.569144 -1.72135 0
M  V30 1653 C 157.735 -3.6058 0.0379581 0
M  V30 1654 O 156.839 -3.99937 -1.0062 0
M  V30 1655 H 156.18 -0.658608 0.0844483 0
M  V30 1656 H 158.71 -1.85327 0.866891 0
M  V30 1657 H 158.72 -4.07714 -0.152856 0
M  V30 1658 H 157.395 -4.03728 0.998809 0
M  V30 1659 H 155.972 -3.64436 -0.79001 0
M  V30 1660 N 158.157 -0.370918 -1.53173 0
M  V30 1661 C 159.406 0.218249 -2.00516 0
M  V30 1662 C 159.719 1.49429 -1.26215 0
M  V30 1663 O 160.925 2.16239 -1.64174 0
M  V30 1664 C 159.381 0.43948 -3.57207 0
M  V30 1665 C 158.989 -0.822244 -4.4039 0
M  V30 1666 C 160.733 0.986012 -4.1289 0
M  V30 1667 C 158.64 -0.570304 -5.88644 0
M  V30 1668 H 157.57 0.0853333 -0.749156 0
M  V30 1669 H 160.221 -0.490483 -1.76823 0
M  V30 1670 H 158.603 1.20961 -3.77074 0
M  V30 1671 H 159.777 -1.59557 -4.32294 0
M  V30 1672 H 158.092 -1.29238 -3.95836 0
M  V30 1673 H 160.689 1.18991 -5.21292 0
M  V30 1674 H 161.032 1.94972 -3.6782 0
M  V30 1675 H 161.565 0.27592 -3.96842 0
M  V30 1676 H 158.304 -1.50449 -6.38001 0
M  V30 1677 H 157.824 0.164427 -5.99575 0
M  V30 1678 H 159.503 -0.19784 -6.46697 0
M  V30 1679 N 159.635 1.57281 -0.100228 0
M  V30 1680 C 161.046 1.81725 0.428107 0
M  V30 1681 C 161.397 1.01619 1.67833 0
M  V30 1682 O 160.522 0.247098 2.14985 0
M  V30 1683 C 161.117 3.29617 0.78347 0
M  V30 1684 C 159.676 3.54808 1.25653 0
M  V30 1685 C 158.823 2.76118 0.255752 0
M  V30 1686 H 161.774 1.55324 -0.325608 0
M  V30 1687 H 161.795 3.4322 1.64256 0
M  V30 1688 H 161.307 3.87893 -0.12665 0
M  V30 1689 H 159.408 3.01868 2.18418 0
M  V30 1690 H 159.521 4.63443 1.21482 0
M  V30 1691 H 157.885 2.43745 0.738956 0
M  V30 1692 H 158.668 3.37145 -0.647136 0
M  V30 1693 N 161.113 -0.173488 1.56642 0
M  V30 1694 C 162.076 -1.19859 1.95362 0
M  V30 1695 C 163.076 -1.37296 0.83704 0
M  V30 1696 O 164.266 -1.34739 1.10413 0
M  V30 1697 C 161.398 -2.56405 2.24654 0
M  V30 1698 H 162.591 -0.867062 2.87092 0
M  V30 1699 H 160.144 -0.415853 1.50666 0
M  V30 1700 H 160.879 -2.94576 1.35631 0
M  V30 1701 H 160.664 -2.45115 3.06041 0
M  V30 1702 H 162.154 -3.30287 2.5554 0
M  V30 1703 N 162.591 -1.51276 -0.441967 0
M  V30 1704 C 163.84 -1.6295 -1.18871 0
M  V30 1705 C 164.153 -0.349312 -1.92456 0
M  V30 1706 O 165.359 -0.345355 -2.69295 0
M  V30 1707 C 163.815 -2.87759 -2.16155 0
M  V30 1708 C 163.423 -4.22764 -1.48239 0
M  V30 1709 C 165.167 -3.08788 -2.91291 0
M  V30 1710 C 163.074 -5.38728 -2.4398 0
M  V30 1711 H 162.004 -0.606913 -0.447406 0
M  V30 1712 H 164.655 -1.77739 -0.456205 0
M  V30 1713 H 163.037 -2.66593 -2.92821 0
M  V30 1714 H 164.211 -4.54293 -0.771635 0
M  V30 1715 H 162.526 -4.07575 -0.852741 0
M  V30 1716 H 165.123 -3.92599 -3.63002 0
M  V30 1717 H 165.466 -2.21679 -3.5237 0
M  V30 1718 H 165.999 -3.30272 -2.21733 0
M  V30 1719 H 162.738 -6.28082 -1.87598 0
M  V30 1720 H 162.258 -5.1158 -3.13123 0
M  V30 1721 H 163.937 -5.70489 -3.05207 0
M  V30 1722 N 164.069 0.697108 -1.41344 0
M  V30 1723 C 165.019 1.80313 -1.39539 0
M  V30 1724 C 166.003 1.58618 -0.270001 0
M  V30 1725 O 167.195 1.69477 -0.510551 0
M  V30 1726 C 164.324 3.18606 -1.27848 0
M  V30 1727 C 163.41 3.46001 -2.45244 0
M  V30 1728 N 163.801 3.44103 -3.70711 0
M  V30 1729 C 162.099 3.76542 -2.39023 0
M  V30 1730 C 162.8 3.7036 -4.48563 0
M  V30 1731 N 161.776 3.90027 -3.78655 0
M  V30 1732 H 165.578 1.77207 -2.34468 0
M  V30 1733 H 163.092 0.897031 -1.35378 0
M  V30 1734 H 165.089 3.97833 -1.24637 0
M  V30 1735 H 163.749 3.22925 -0.339032 0
M  V30 1736 H 164.76 3.2452 -4.03618 0
M  V30 1737 H 161.437 3.88241 -1.53542 0
M  V30 1738 H 162.827 3.75042 -5.57488 0
M  V30 1739 N 165.547 1.27147 0.931209 0
M  V30 1740 C 166.777 1.15914 1.71019 0
M  V30 1741 C 167.185 -0.287112 1.87009 0
M  V30 1742 O 166.528 -1.20761 1.38429 0
M  V30 1743 C 166.59 1.76647 3.13107 0
M  V30 1744 C 166.254 3.25807 3.20467 0
M  V30 1745 C 167.251 4.22489 3.02983 0
M  V30 1746 C 164.936 3.66452 3.43538 0
M  V30 1747 C 166.93 5.57794 3.08454 0
M  V30 1748 C 164.617 5.01888 3.48643 0
M  V30 1749 C 165.615 5.97369 3.31119 0
M  V30 1750 O 165.303 7.30337 3.35952 0
M  V30 1751 H 165.035 0.404062 0.54195 0
M  V30 1752 H 167.589 1.68457 1.17521 0
M  V30 1753 H 165.819 1.18578 3.68071 0
M  V30 1754 H 167.508 1.60179 3.72958 0
M  V30 1755 H 168.274 3.92425 2.85004 0
M  V30 1756 H 164.153 2.92611 3.5623 0
M  V30 1757 H 167.697 6.32298 2.94694 0
M  V30 1758 H 163.594 5.31609 3.66145 0
M  V30 1759 H 164.362 7.38739 3.5243 0
M  V30 1760 N 167.025 -1.13721 1.09112 0
M  V30 1761 C 167.958 -2.18094 0.67158 0
M  V30 1762 C 168.936 -1.59414 -0.320299 0
M  V30 1763 O 170.12 -1.87183 -0.222444 0
M  V30 1764 C 167.247 -3.38698 -0.0111189 0
M  V30 1765 C 166.293 -4.15966 0.942055 0
M  V30 1766 S 167.126 -4.7604 2.45246 0
M  V30 1767 C 168.282 -5.99994 1.78208 0
M  V30 1768 H 168.515 -2.53344 1.55577 0
M  V30 1769 H 166.048 -1.24967 0.906789 0
M  V30 1770 H 168.006 -4.08559 -0.398716 0
M  V30 1771 H 166.667 -3.01756 -0.871905 0
M  V30 1772 H 165.86 -5.02318 0.411396 0
M  V30 1773 H 165.462 -3.51745 1.2709 0
M  V30 1774 H 167.754 -6.68441 1.10424 0
M  V30 1775 H 168.697 -6.57662 2.62463 0
M  V30 1776 H 169.105 -5.50432 1.25238 0
M  V30 1777 N 168.503 -0.877838 -1.30888 0
M  V30 1778 C 169.752 -0.488793 -1.95688 0
M  V30 1779 C 170.065 0.965485 -1.70111 0
M  V30 1780 O 171.271 1.46104 -2.28836 0
M  V30 1781 C 169.727 -0.823201 -3.50359 0
M  V30 1782 C 169.335 -2.29477 -3.84765 0
M  V30 1783 C 171.079 -0.503009 -4.21509 0
M  V30 1784 C 168.986 -2.57118 -5.32583 0
M  V30 1785 H 167.916 -0.179062 -0.732429 0
M  V30 1786 H 170.567 -1.07183 -1.48943 0
M  V30 1787 H 168.949 -0.169331 -3.95638 0
M  V30 1788 H 170.123 -2.99236 -3.5042 0
M  V30 1789 H 168.438 -2.58178 -3.267 0
M  V30 1790 H 171.035 -0.68665 -5.30273 0
M  V30 1791 H 171.378 0.557109 -4.12555 0
M  V30 1792 H 171.911 -1.11376 -3.8189 0
M  V30 1793 H 168.65 -3.61843 -5.4658 0
M  V30 1794 H 168.17 -1.91961 -5.68253 0
M  V30 1795 H 169.849 -2.42251 -5.99936 0
M  V30 1796 N 169.982 1.44106 -0.638065 0
M  V30 1797 C 170.945 2.29138 0.0531013 0
M  V30 1798 C 171.945 1.41409 0.765506 0
M  V30 1799 O 173.135 1.63206 0.609046 0
M  V30 1800 C 170.267 3.23144 1.08584 0
M  V30 1801 H 171.46 2.91739 -0.694883 0
M  V30 1802 H 169.013 1.51134 -0.398538 0
M  V30 1803 H 169.748 2.65408 1.86357 0
M  V30 1804 H 169.533 3.87804 0.578852 0
M  V30 1805 H 171.023 3.87004 1.56899 0
M  V30 1806 N 171.46 0.379036 1.52974 0
M  V30 1807 C 172.423 -0.448865 2.24762 0
M  V30 1808 C 173.423 -0.998689 1.26027 0
M  V30 1809 O 174.613 -0.882313 1.50203 0
M  V30 1810 C 171.745 -1.62872 2.99476 0
M  V30 1811 H 172.938 0.179491 2.99362 0
M  V30 1812 H 170.491 0.13096 1.5575 0
M  V30 1813 H 171.226 -2.29479 2.29151 0
M  V30 1814 H 171.011 -1.24128 3.71934 0
M  V30 1815 H 172.501 -2.2151 3.5401 0
M  V30 1816 N 172.938 -1.57226 0.108567 0
M  V30 1817 C 173.901 -2.13602 -0.831082 0
M  V30 1818 C 174.901 -1.06841 -1.20173 0
M  V30 1819 O 176.091 -1.32666 -1.12895 0
M  V30 1820 C 173.223 -2.66769 -2.12243 0
M  V30 1821 H 174.416 -2.97951 -0.341317 0
M  V30 1822 H 171.969 -1.55667 -0.14057 0
M  V30 1823 H 172.704 -1.85977 -2.65675 0
M  V30 1824 H 172.489 -3.44839 -1.86625 0
M  V30 1825 H 173.979 -3.10332 -2.79435 0
M  V30 1826 N 174.416 0.165178 -1.56732 0
M  V30 1827 C 175.664 0.879068 -1.8198 0
M  V30 1828 C 175.985 1.82514 -0.686561 0
M  V30 1829 O 175.255 1.93694 0.293146 0
M  V30 1830 H 173.835 0.327608 -0.671329 0
M  V30 1831 H 176.497 0.163526 -1.94213 0
M  V30 1832 H 175.593 1.45228 -2.76252 0
M  V30 1833 N 175.894 1.51508 0.433938 0
M  V30 1834 C 177.142 1.6402 1.18075 0
M  V30 1835 C 177.463 0.360328 1.91642 0
M  V30 1836 O 176.733 -0.623945 1.85698 0
M  V30 1837 H 175.313 0.6045 0.43885 0
M  V30 1838 H 177.975 1.88452 0.497178 0
M  V30 1839 H 177.071 2.46949 1.90847 0
M  V30 1840 N 177.372 -0.689602 1.41712 0
M  V30 1841 C 178.32 -1.82475 1.44242 0
M  V30 1842 C 179.314 -1.66354 0.319774 0
M  V30 1843 O 180.52 -1.73143 0.492089 0
M  V30 1844 H 176.895 -0.601416 0.451445 0
M  V30 1845 H 178.866 -1.77458 2.39899 0
M  V30 1846 C 177.615 -3.20535 1.3473 0
M  V30 1847 H 176.938 -3.33559 2.20405 0
M  V30 1848 H 178.378 -4.00023 1.40562 0
M  V30 1849 C 176.837 -3.36846 0.0603281 0
M  V30 1850 O 177.367 -3.91656 -0.892663 0
M  V30 1851 N 175.573 -2.90595 -0.0177039 0
M  V30 1852 H 175.12 -2.46178 0.758572 0
M  V30 1853 H 175.078 -3.01886 -0.878201 0
M  V30 1854 N 178.85 -1.27639 -0.924453 0
M  V30 1855 C 180.075 -1.17101 -1.71179 0
M  V30 1856 C 180.5 0.268134 -1.86179 0
M  V30 1857 O 179.858 1.19415 -1.36418 0
M  V30 1858 C 179.906 -1.86313 -3.08739 0
M  V30 1859 O 179.01 -1.16331 -3.95652 0
M  V30 1860 H 178.351 -0.407091 -0.524569 0
M  V30 1861 H 180.881 -1.68767 -1.15666 0
M  V30 1862 H 180.891 -1.938 -3.59034 0
M  V30 1863 H 179.566 -2.91001 -2.97138 0
M  V30 1864 H 178.143 -1.16935 -3.54091 0
M  V30 1865 N 180.328 1.1314 -1.09713 0
M  V30 1866 C 181.577 1.83838 -0.829851 0
M  V30 1867 C 181.89 1.84599 0.646728 0
M  V30 1868 O 183.096 2.51218 1.02965 0
M  V30 1869 C 181.552 3.30069 -1.43466 0
M  V30 1870 C 181.16 3.37688 -2.94399 0
M  V30 1871 C 182.904 4.05788 -1.24645 0
M  V30 1872 C 180.811 4.78209 -3.47952 0
M  V30 1873 H 179.741 0.68877 -0.306777 0
M  V30 1874 H 182.392 1.27448 -1.3202 0
M  V30 1875 H 180.774 3.8628 -0.871996 0
M  V30 1876 H 181.948 2.91456 -3.56918 0
M  V30 1877 H 180.263 2.75436 -3.12289 0
M  V30 1878 H 182.86 5.09535 -1.62107 0
M  V30 1879 H 183.203 4.15878 -0.187357 0
M  V30 1880 H 183.736 3.55915 -1.77678 0
M  V30 1881 H 180.475 4.73311 -4.53495 0
M  V30 1882 H 179.995 5.24924 -2.90198 0
M  V30 1883 H 181.674 5.47133 -3.45332 0
M  V30 1884 N 181.806 0.884767 1.30421 0
M  V30 1885 C 183.217 0.553656 1.78302 0
M  V30 1886 C 183.568 -0.930153 1.7275 0
M  V30 1887 O 182.693 -1.72681 1.30423 0
M  V30 1888 C 183.288 0.998234 3.2376 0
M  V30 1889 C 181.847 0.71854 3.69478 0
M  V30 1890 C 180.994 1.18132 2.50879 0
M  V30 1891 H 183.945 1.06901 1.17294 0
M  V30 1892 H 183.966 0.327118 3.79091 0
M  V30 1893 H 183.478 2.0782 3.27769 0
M  V30 1894 H 181.579 -0.349444 3.70958 0
M  V30 1895 H 181.692 1.30595 4.60958 0
M  V30 1896 H 180.056 0.600669 2.47516 0
M  V30 1897 H 180.839 2.26902 2.57624 0
M  V30 1898 N 183.284 -1.43765 0.645699 0
M  V30 1899 C 184.524 -2.03776 0.159542 0
M  V30 1900 C 184.888 -1.49792 -1.2011 0
M  V30 1901 O 186.089 -2.01398 -1.78023 0
M  V30 1902 C 184.36 -3.57036 0.161251 0
M  V30 1903 S 185.919 -4.3804 -0.258159 0
M  V30 1904 H 182.737 -0.707717 0.0682454 0
M  V30 1905 H 185.339 -1.75941 0.852352 0
M  V30 1906 H 184.043 -3.9383 1.15439 0
M  V30 1907 H 183.574 -3.89503 -0.552339 0
M  V30 1908 H 185.589 -4.7302 -1.49889 0
M  V30 1909 N 184.763 -0.387143 -1.52771 0
M  V30 1910 C 185.726 0.436939 -2.24997 0
M  V30 1911 C 186.726 0.991991 -1.26555 0
M  V30 1912 O 187.916 0.874335 -1.50669 0
M  V30 1913 C 185.048 1.61281 -3.00335 0
M  V30 1914 H 186.241 -0.195365 -2.99263 0
M  V30 1915 H 183.794 -0.139218 -1.55679 0
M  V30 1916 H 184.529 2.2826 -2.30364 0
M  V30 1917 H 184.314 1.22154 -3.72587 0
M  V30 1918 H 185.804 2.19629 -3.5518 0
M  V30 1919 N 186.241 1.57166 -0.116904 0
M  V30 1920 C 187.652 1.82169 0.408809 0
M  V30 1921 C 188.003 1.03393 1.66746 0
M  V30 1922 O 187.128 0.269886 2.1471 0
M  V30 1923 C 187.723 3.30429 0.748466 0
M  V30 1924 C 186.282 3.5612 1.21882 0
M  V30 1925 C 185.429 2.76374 0.226452 0
M  V30 1926 H 188.38 1.5497 -0.342063 0
M  V30 1927 H 188.401 3.44943 1.60607 0
M  V30 1928 H 187.913 3.87737 -0.167784 0
M  V30 1929 H 186.014 3.04168 2.15204 0
M  V30 1930 H 186.127 4.64705 1.16559 0
M  V30 1931 H 184.491 2.44515 0.713063 0
M  V30 1932 H 185.274 3.3644 -0.682859 0
M  V30 1933 N 187.719 -0.156864 1.56817 0
M  V30 1934 C 188.949 -0.885031 1.86684 0
M  V30 1935 C 189.357 -1.75696 0.701954 0
M  V30 1936 O 188.7 -1.80569 -0.337732 0
M  V30 1937 C 188.762 -1.80092 3.11138 0
M  V30 1938 C 188.426 -1.10714 4.43386 0
M  V30 1939 C 189.423 -0.465714 5.1781 0
M  V30 1940 C 187.108 -1.09959 4.90117 0
M  V30 1941 C 189.102 0.174002 6.37162 0
M  V30 1942 C 186.789 -0.456055 6.09396 0
M  V30 1943 C 187.787 0.179622 6.82764 0
M  V30 1944 O 187.475 0.812975 7.99779 0
M  V30 1945 H 187.207 -0.261813 0.623242 0
M  V30 1946 H 189.761 -0.157383 2.04796 0
M  V30 1947 H 187.991 -2.56926 2.89009 0
M  V30 1948 H 189.68 -2.40018 3.27332 0
M  V30 1949 H 190.446 -0.463427 4.82781 0
M  V30 1950 H 186.325 -1.58378 4.3294 0
M  V30 1951 H 189.869 0.670765 6.94368 0
M  V30 1952 H 185.766 -0.455975 6.43888 0
M  V30 1953 H 186.534 0.71366 8.15383 0
M  V30 1954 N 189.197 -1.51736 -0.425897 0
M  V30 1955 C 190.16 -1.73271 -1.50032 0
M  V30 1956 C 191.16 -0.602639 -1.4908 0
M  V30 1957 O 192.35 -0.87033 -1.509 0
M  V30 1958 C 189.482 -1.79969 -2.89523 0
M  V30 1959 H 190.675 -2.69172 -1.32237 0
M  V30 1960 H 188.228 -1.41899 -0.65532 0
M  V30 1961 H 188.963 -0.859241 -3.1271 0
M  V30 1962 H 188.748 -2.62109 -2.91619 0
M  V30 1963 H 190.238 -1.9843 -3.67444 0
M  V30 1964 N 190.675 0.682077 -1.42076 0
M  V30 1965 C 191.903 1.47057 -1.4554 0
M  V30 1966 C 192.318 1.8869 -0.0645779 0
M  V30 1967 O 191.675 1.57666 0.919115 0
M  V30 1968 C 191.726 2.72442 -2.37609 0
M  V30 1969 O 191.447 2.32559 -3.71279 0
M  V30 1970 C 192.948 3.66069 -2.50017 0
M  V30 1971 H 190.168 0.452737 -0.495248 0
M  V30 1972 H 192.712 0.838695 -1.8651 0
M  V30 1973 H 190.867 3.31835 -1.9991 0
M  V30 1974 H 191.281 3.13475 -4.20516 0
M  V30 1975 H 192.755 4.50792 -3.18576 0
M  V30 1976 H 193.232 4.11476 -1.53572 0
M  V30 1977 H 193.838 3.12572 -2.88407 0
M  V30 1978 N 192.153 1.28127 0.917671 0
M  V30 1979 C 193.4 1.15052 1.66641 0
M  V30 1980 C 193.728 -0.301677 1.92146 0
M  V30 1981 O 192.983 -1.23622 1.51711 0
M  V30 1982 C 193.282 1.89018 3.03327 0
M  V30 1983 C 192.948 3.38832 2.97496 0
M  V30 1984 C 191.61 3.79693 2.95613 0
M  V30 1985 C 193.962 4.34378 2.88036 0
M  V30 1986 C 191.29 5.14447 2.82066 0
M  V30 1987 C 193.642 5.69201 2.7603 0
M  V30 1988 C 192.306 6.09343 2.72502 0
M  V30 1989 H 191.576 0.421006 0.609783 0
M  V30 1990 H 194.223 1.58855 1.06945 0
M  V30 1991 H 192.528 1.37752 3.66785 0
M  V30 1992 H 194.225 1.76321 3.60156 0
M  V30 1993 H 190.815 3.06342 2.99754 0
M  V30 1994 H 194.999 4.03775 2.88581 0
M  V30 1995 H 190.255 5.44681 2.77728 0
M  V30 1996 H 194.429 6.42901 2.67678 0
M  V30 1997 H 192.056 7.13712 2.61762 0
M  V30 1998 N 193.631 -1.12557 1.10312 0
M  V30 1999 C 194.879 -1.83675 0.843091 0
M  V30 2000 C 195.2 -1.84435 -0.633131 0
M  V30 2001 O 194.47 -1.30657 -1.45964 0
M  V30 2002 H 193.05 -0.680138 0.308904 0
M  V30 2003 H 195.712 -1.36301 1.39313 0
M  V30 2004 H 194.808 -2.87908 1.2048 0
M  V30 2005 N 195.109 -0.891671 -1.2995 0
M  V30 2006 C 196.337 -0.52866 -2.00032 0
M  V30 2007 C 196.752 0.884574 -1.66795 0
M  V30 2008 O 196.109 1.5827 -0.908669 0
M  V30 2009 C 196.16 -0.701814 -3.54622 0
M  V30 2010 O 195.881 -2.05942 -3.86678 0
M  V30 2011 C 197.382 -0.342683 -4.41973 0
M  V30 2012 H 194.602 -0.203659 -0.639347 0
M  V30 2013 H 197.146 -1.19881 -1.65677 0
M  V30 2014 H 195.301 -0.0789468 -3.8732 0
M  V30 2015 H 195.715 -2.08291 -4.81368 0
M  V30 2016 H 197.189 -0.514709 -5.49595 0
M  V30 2017 H 197.666 0.71975 -4.33262 0
M  V30 2018 H 198.272 -0.942154 -4.14733 0
M  V30 2019 N 196.587 1.43421 -0.653314 0
M  V30 2020 C 198.003 1.56341 -0.320886 0
M  V30 2021 C 198.203 1.63696 1.17499 0
M  V30 2022 O 197.259 1.59208 1.95982 0
M  V30 2023 C 198.572 2.82424 -1.03233 0
M  V30 2024 C 200.12 2.96168 -1.01259 0
M  V30 2025 C 200.595 4.25084 -1.70492 0
M  V30 2026 N 202.086 4.31948 -1.67257 0
M  V30 2027 C 202.821 5.30466 -2.17701 0
M  V30 2028 N 202.317 6.35261 -2.76434 0
M  V30 2029 N 204.11 5.2212 -2.082 0
M  V30 2030 H 196.261 1.3689 -1.62403 0
M  V30 2031 H 198.524 0.657455 -0.682977 0
M  V30 2032 H 198.23 2.83053 -2.08744 0
M  V30 2033 H 198.104 3.72653 -0.583948 0
M  V30 2034 H 200.491 2.9508 0.0341235 0
M  V30 2035 H 200.572 2.07229 -1.49966 0
M  V30 2036 H 200.216 4.26932 -2.7512 0
M  V30 2037 H 200.146 5.1292 -1.19251 0
M  V30 2038 H 202.637 3.56838 -1.24398 0
M  V30 2039 H 202.95 7.06754 -3.12601 0
M  V30 2040 H 201.295 6.35884 -2.80495 0
M  V30 2041 H 204.486 4.39166 -1.62021 0
M  V30 2042 H 204.659 5.98739 -2.47822 0
M  V30 2043 N 198.065 0.39524 1.52563 0
M  V30 2044 C 198.975 -0.444232 2.30356 0
M  V30 2045 C 199.991 -1.06615 1.37511 0
M  V30 2046 O 201.167 -1.07067 1.70583 0
M  V30 2047 C 198.232 -1.55315 3.09964 0
M  V30 2048 C 197.293 -0.955734 4.18526 0
M  V30 2049 C 196.526 -2.01181 4.9433 0
M  V30 2050 O 196.749 -3.22781 4.70285 0
M  V30 2051 O 195.683 -1.62579 5.79527 0
M  V30 2052 H 199.509 0.189667 3.03107 0
M  V30 2053 H 197.094 0.1588 1.48554 0
M  V30 2054 H 198.976 -2.19724 3.59582 0
M  V30 2055 H 197.651 -2.17191 2.4002 0
M  V30 2056 H 196.558 -0.274743 3.7309 0
M  V30 2057 H 197.891 -0.381109 4.90722 0
M  V30 2058 N 199.544 -1.57102 0.125237 0
M  V30 2059 C 200.474 -2.18659 -0.819174 0
M  V30 2060 C 201.455 -1.12843 -1.27281 0
M  V30 2061 O 202.64 -1.41104 -1.33429 0
M  V30 2062 C 199.77 -2.79096 -2.06695 0
M  V30 2063 C 198.724 -3.90548 -1.75088 0
M  V30 2064 C 198.05 -4.37821 -3.06948 0
M  V30 2065 C 199.35 -5.12356 -1.01435 0
M  V30 2066 H 201.044 -2.9783 -0.306202 0
M  V30 2067 H 198.59 -1.4326 -0.145839 0
M  V30 2068 H 200.543 -3.2082 -2.73226 0
M  V30 2069 H 199.267 -1.97223 -2.60328 0
M  V30 2070 H 197.926 -3.49409 -1.10944 0
M  V30 2071 H 197.574 -3.52799 -3.58527 0
M  V30 2072 H 197.274 -5.12982 -2.86571 0
M  V30 2073 H 198.798 -4.822 -3.74587 0
M  V30 2074 H 200.212 -5.5106 -1.58132 0
M  V30 2075 H 198.609 -5.9314 -0.911319 0
M  V30 2076 H 199.679 -4.849 -0.00218681 0
M  V30 2077 N 201.022 0.148545 -1.56898 0
M  V30 2078 C 202.247 0.880385 -1.87787 0
M  V30 2079 C 202.672 1.74018 -0.714093 0
M  V30 2080 O 202.03 1.78153 0.336343 0
M  V30 2081 C 202.078 1.71422 -3.17249 0
M  V30 2082 O 201.182 2.8183 -3.01074 0
M  V30 2083 H 200.523 0.245301 -0.617028 0
M  V30 2084 H 203.053 0.139826 -2.04122 0
M  V30 2085 H 203.063 2.10954 -3.49231 0
M  V30 2086 H 201.738 1.08284 -4.01556 0
M  V30 2087 H 200.315 2.45715 -2.80497 0
M  V30 2088 N 202.5 1.5196 0.417844 0
M  V30 2089 C 203.41 1.77554 1.53336 0
M  V30 2090 C 204.426 0.660655 1.6097 0
M  V30 2091 O 205.602 0.945099 1.77848 0
M  V30 2092 C 202.667 1.91291 2.89152 0
M  V30 2093 C 201.728 3.15183 2.91475 0
M  V30 2094 C 200.961 3.28256 4.20813 0
M  V30 2095 O 201.184 2.46798 5.14244 0
M  V30 2096 O 200.118 4.21356 4.29817 0
M  V30 2097 H 203.944 2.7222 1.34647 0
M  V30 2098 H 201.529 1.36698 0.602828 0
M  V30 2099 H 203.411 2.02199 3.69721 0
M  V30 2100 H 202.086 0.998129 3.07927 0
M  V30 2101 H 200.993 3.09739 2.09791 0
M  V30 2102 H 202.326 4.06414 2.77648 0
M  V30 2103 N 203.978 -0.674533 1.42435 0
M  V30 2104 C 204.928 -1.7807 1.4239 0
M  V30 2105 C 205.912 -1.58169 0.295202 0
M  V30 2106 O 207.104 -1.68643 0.537449 0
M  V30 2107 C 204.233 -3.16532 1.32901 0
M  V30 2108 C 203.319 -3.42055 2.50717 0
M  V30 2109 N 203.71 -3.38162 3.76139 0
M  V30 2110 C 202.008 -3.72692 2.44983 0
M  V30 2111 C 202.709 -3.63177 4.54398 0
M  V30 2112 N 201.685 -3.83954 3.84812 0
M  V30 2113 H 205.487 -1.73454 2.37257 0
M  V30 2114 H 203.001 -0.875381 1.36788 0
M  V30 2115 H 204.998 -3.958 1.30951 0
M  V30 2116 H 203.658 -3.22345 0.390363 0
M  V30 2117 H 204.669 -3.18057 4.0873 0
M  V30 2118 H 201.346 -3.85749 1.59699 0
M  V30 2119 H 202.736 -3.66125 5.63384 0
M  V30 2120 N 205.456 -1.28612 -0.910864 0
M  V30 2121 C 206.702 -1.16106 -1.66274 0
M  V30 2122 C 207.035 0.289113 -1.92036 0
M  V30 2123 O 206.31 1.21 -1.52281 0
M  V30 2124 C 206.593 -1.96309 -3.01885 0
M  V30 2125 C 206.446 -3.49405 -2.8326 0
M  V30 2126 C 207.765 -1.78076 -4.02463 0
M  V30 2127 H 204.884 -0.423152 -0.603417 0
M  V30 2128 H 207.526 -1.57961 -1.05586 0
M  V30 2129 H 205.676 -1.60742 -3.53687 0
M  V30 2130 H 207.348 -3.94894 -2.38446 0
M  V30 2131 H 205.591 -3.74893 -2.18261 0
M  V30 2132 H 206.262 -4.00784 -3.79574 0
M  V30 2133 H 208.738 -2.0912 -3.59733 0
M  V30 2134 H 207.614 -2.36561 -4.95308 0
M  V30 2135 H 207.875 -0.733008 -4.35981 0
M  V30 2136 N 206.934 1.1197 -1.10907 0
M  V30 2137 C 207.897 2.16031 -0.765707 0
M  V30 2138 C 208.897 1.59393 0.212235 0
M  V30 2139 O 210.087 1.74196 -0.0115441 0
M  V30 2140 C 207.219 3.40632 -0.135053 0
M  V30 2141 H 208.412 2.47919 -1.68748 0
M  V30 2142 H 205.965 1.27061 -0.910226 0
M  V30 2143 H 206.7 3.14348 0.797218 0
M  V30 2144 H 206.485 3.8302 -0.838937 0
M  V30 2145 H 207.975 4.17505 0.0892469 0
M  V30 2146 N 208.412 0.89855 1.29475 0
M  V30 2147 C 209.342 0.39201 2.30186 0
M  V30 2148 C 210.323 -0.532359 1.61555 0
M  V30 2149 O 211.508 -0.443331 1.89072 0
M  V30 2150 C 208.638 -0.382353 3.45189 0
M  V30 2151 C 207.592 0.451483 4.25612 0
M  V30 2152 C 206.918 -0.450307 5.328 0
M  V30 2153 C 208.218 1.70079 4.93832 0
M  V30 2154 H 209.912 1.23362 2.72804 0
M  V30 2155 H 207.458 0.594638 1.31149 0
M  V30 2156 H 209.411 -0.747451 4.14718 0
M  V30 2157 H 208.135 -1.25774 3.01411 0
M  V30 2158 H 206.794 0.798897 3.57789 0
M  V30 2159 H 206.442 -1.32379 4.85268 0
M  V30 2160 H 206.142 0.103902 5.87508 0
M  V30 2161 H 207.666 -0.811623 6.05182 0
M  V30 2162 H 209.08 1.40549 5.55805 0
M  V30 2163 H 207.477 2.19623 5.58467 0
M  V30 2164 H 208.547 2.43744 4.19186 0
M  V30 2165 N 209.89 -1.43072 0.660911 0
M  V30 2166 C 210.853 -2.29194 -0.0166406 0
M  V30 2167 C 211.853 -1.42609 -0.742912 0
M  V30 2168 O 213.043 -1.64155 -0.583004 0
M  V30 2169 C 210.175 -3.24831 -1.0343 0
M  V30 2170 H 211.368 -2.90596 0.741208 0
M  V30 2171 H 208.921 -1.5048 0.422532 0
M  V30 2172 H 209.656 -2.68339 -1.82111 0
M  V30 2173 H 209.441 -3.88676 -0.517082 0
M  V30 2174 H 210.931 -3.89451 -1.50723 0
M  V30 2175 N 211.368 -0.403325 -1.52352 0
M  V30 2176 C 212.298 0.416205 -2.29761 0
M  V30 2177 C 213.279 1.05123 -1.33728 0
M  V30 2178 O 214.464 1.06134 -1.62632 0
M  V30 2179 C 211.594 1.53624 -3.11475 0
M  V30 2180 C 210.548 1.02653 -4.15507 0
M  V30 2181 C 209.874 2.23971 -4.85532 0
M  V30 2182 C 211.174 0.08463 -5.22231 0
M  V30 2183 H 212.868 -0.229701 -2.98518 0
M  V30 2184 H 210.414 -0.111913 -1.43564 0
M  V30 2185 H 212.367 2.1165 -3.64393 0
M  V30 2186 H 211.091 2.20994 -2.40477 0
M  V30 2187 H 209.75 0.46871 -3.63591 0
M  V30 2188 H 209.398 2.89883 -4.11068 0
M  V30 2189 H 209.098 1.90521 -5.55856 0
M  V30 2190 H 210.622 2.82614 -5.41259 0
M  V30 2191 H 212.036 0.573509 -5.70424 0
M  V30 2192 H 210.433 -0.160783 -5.99885 0
M  V30 2193 H 211.503 -0.86237 -4.7717 0
M  V30 2194 N 212.846 1.57033 -0.133567 0
M  V30 2195 C 213.793 2.16074 0.811208 0
M  V30 2196 C 214.763 1.08979 1.2535 0
M  V30 2197 O 215.948 1.36958 1.32843 0
M  V30 2198 C 213.088 2.77595 2.05024 0
M  V30 2199 C 212.201 3.99042 1.65498 0
M  V30 2200 C 211.336 4.48603 2.84479 0
M  V30 2201 C 210.375 5.62547 2.41262 0
M  V30 2202 N 209.512 6.06787 3.53206 0
M  V30 2203 H 214.352 2.96477 0.300906 0
M  V30 2204 H 211.889 1.46462 0.136822 0
M  V30 2205 H 213.847 3.11402 2.77642 0
M  V30 2206 H 212.477 1.99859 2.53488 0
M  V30 2207 H 211.529 3.71302 0.826981 0
M  V30 2208 H 212.841 4.81629 1.29748 0
M  V30 2209 H 211.995 4.84395 3.65303 0
M  V30 2210 H 210.734 3.64995 3.23465 0
M  V30 2211 H 209.739 5.26345 1.58874 0
M  V30 2212 H 210.964 6.47931 2.03377 0
M  V30 2213 H 208.91 5.26117 3.91838 0
M  V30 2214 H 208.827 6.84266 3.21427 0
M  V30 2215 H 210.095 6.4722 4.34427 0
M  V30 2216 N 214.325 -0.140222 1.56975 0
M  V30 2217 C 215.273 -1.19207 1.99731 0
M  V30 2218 C 216.267 -1.44089 0.890777 0
M  V30 2219 O 217.473 -1.44301 1.07597 0
M  V30 2220 H 213.848 -0.40142 0.635898 0
M  V30 2221 H 215.819 -0.804813 2.87342 0
M  V30 2222 C 214.568 -2.51617 2.39967 0
M  V30 2223 H 213.891 -2.33303 3.24669 0
M  V30 2224 H 215.331 -3.23827 2.73701 0
M  V30 2225 C 213.79 -3.12654 1.25496 0
M  V30 2226 O 214.32 -3.97786 0.559371 0
M  V30 2227 N 212.526 -2.72206 1.01746 0
M  V30 2228 H 212.073 -2.03074 1.58489 0
M  V30 2229 H 212.031 -3.13377 0.253461 0
M  V30 2230 N 215.803 -1.52179 -0.40978 0
M  V30 2231 C 217.219 -1.40968 -0.74835 0
M  V30 2232 C 217.419 -0.513657 -1.94843 0
M  V30 2233 O 216.475 0.0208026 -2.52491 0
M  V30 2234 C 217.788 -2.83483 -1.0029 0
M  V30 2235 C 219.336 -2.92821 -1.10565 0
M  V30 2236 C 219.811 -4.36303 -1.39296 0
M  V30 2237 N 221.302 -4.39535 -1.46162 0
M  V30 2238 C 222.037 -5.47614 -1.70018 0
M  V30 2239 N 221.533 -6.65812 -1.91483 0
M  V30 2240 N 223.326 -5.35129 -1.72027 0
M  V30 2241 H 215.477 -2.0897 0.380186 0
M  V30 2242 H 217.74 -0.94185 0.107805 0
M  V30 2243 H 217.446 -3.51168 -0.193461 0
M  V30 2244 H 217.32 -3.24487 -1.92323 0
M  V30 2245 H 219.707 -2.25318 -1.90568 0
M  V30 2246 H 219.788 -2.55276 -0.16369 0
M  V30 2247 H 219.432 -5.04366 -0.598109 0
M  V30 2248 H 219.362 -4.71385 -2.34743 0
M  V30 2249 H 221.853 -3.54332 -1.31367 0
M  V30 2250 H 222.166 -7.43964 -2.09134 0
M  V30 2251 H 220.511 -6.68879 -1.88749 0
M  V30 2252 H 223.702 -4.41764 -1.54796 0
M  V30 2253 H 223.875 -6.19433 -1.9028 0
M  V30 2254 N 217.281 0.66697 -1.42791 0
M  V30 2255 C 218.228 1.7803 -1.4688 0
M  V30 2256 C 219.198 1.6299 -0.319919 0
M  V30 2257 O 220.383 1.83432 -0.525118 0
M  V30 2258 C 217.523 3.1611 -1.38451 0
M  V30 2259 C 216.636 3.42381 -2.63437 0
M  V30 2260 C 215.771 4.70232 -2.47094 0
M  V30 2261 C 214.81 4.89564 -3.67415 0
M  V30 2262 N 213.947 6.08661 -3.49966 0
M  V30 2263 H 218.787 1.7387 -2.42019 0
M  V30 2264 H 216.324 0.84868 -1.20149 0
M  V30 2265 H 218.282 3.95914 -1.31561 0
M  V30 2266 H 216.912 3.19374 -0.469033 0
M  V30 2267 H 215.964 2.56774 -2.80662 0
M  V30 2268 H 217.276 3.52557 -3.52853 0
M  V30 2269 H 216.43 5.5814 -2.37834 0
M  V30 2270 H 215.169 4.62353 -1.5518 0
M  V30 2271 H 214.174 4.00096 -3.77099 0
M  V30 2272 H 215.399 4.99282 -4.6032 0
M  V30 2273 H 213.345 6.0194 -2.60776 0
M  V30 2274 H 213.262 6.19733 -4.32975 0
M  V30 2275 H 214.53 6.99226 -3.44532 0
M  V30 2276 N 218.759 1.29093 0.90403 0
M  V30 2277 C 219.722 1.1386 1.98919 0
M  V30 2278 C 220.722 0.0753457 1.60623 0
M  V30 2279 O 221.912 0.321931 1.71199 0
M  V30 2280 C 219.044 0.740198 3.32767 0
M  V30 2281 H 220.237 2.10246 2.13861 0
M  V30 2282 H 217.79 1.12218 1.08797 0
M  V30 2283 H 218.525 -0.223997 3.23525 0
M  V30 2284 H 218.31 1.50838 3.61926 0
M  V30 2285 H 219.8 0.656546 4.12407 0
M  V30 2286 N 220.237 -1.11381 1.11499 0
M  V30 2287 C 221.465 -1.86934 0.88675 0
M  V30 2288 C 221.88 -1.80195 -0.563476 0
M  V30 2289 O 221.237 -1.18367 -1.38908 0
M  V30 2290 C 221.288 -3.35722 1.34064 0
M  V30 2291 O 221.009 -3.4232 2.73401 0
M  V30 2292 C 222.51 -4.2818 1.14791 0
M  V30 2293 H 219.73 -0.591117 0.317523 0
M  V30 2294 H 222.274 -1.40865 1.48248 0
M  V30 2295 H 220.429 -3.79294 0.788355 0
M  V30 2296 H 220.843 -4.34971 2.93087 0
M  V30 2297 H 222.317 -5.30817 1.5145 0
M  V30 2298 H 222.794 -4.39113 0.0875279 0
M  V30 2299 H 223.4 -3.90402 1.68721 0
M  V30 2300 N 221.715 -0.905404 -1.28997 0
M  V30 2301 C 222.645 -0.404212 -2.29975 0
M  V30 2302 C 223.626 0.523784 -1.61835 0
M  V30 2303 O 224.811 0.433298 -1.89304 0
M  V30 2304 C 221.941 0.364042 -3.45387 0
M  V30 2305 C 220.895 -0.474048 -4.25367 0
M  V30 2306 C 220.221 0.422045 -5.33032 0
M  V30 2307 C 221.521 -1.72696 -4.92923 0
M  V30 2308 H 223.215 -1.24807 -2.72146 0
M  V30 2309 H 220.761 -0.601585 -1.30832 0
M  V30 2310 H 222.714 0.725447 -4.15109 0
M  V30 2311 H 221.438 1.24174 -3.02074 0
M  V30 2312 H 220.097 -0.81786 -3.57361 0
M  V30 2313 H 219.745 1.29804 -4.85963 0
M  V30 2314 H 219.445 -0.135057 -5.87445 0
M  V30 2315 H 220.969 0.779517 -6.05604 0
M  V30 2316 H 222.383 -1.43495 -5.55051 0
M  V30 2317 H 220.78 -2.22582 -5.57295 0
M  V30 2318 H 221.85 -2.45964 -4.17887 0
M  V30 2319 N 223.193 1.4272 -0.668489 0
M  V30 2320 C 224.123 2.335 -0.000100175 0
M  V30 2321 C 225.104 1.50328 0.795964 0
M  V30 2322 O 226.289 1.78949 0.754385 0
M  V30 2323 C 223.419 3.33874 0.956302 0
M  V30 2324 C 222.373 4.27152 0.269278 0
M  V30 2325 C 221.699 5.17684 1.33818 0
M  V30 2326 C 222.999 5.15373 -0.847805 0
M  V30 2327 H 224.693 2.89639 -0.758244 0
M  V30 2328 H 222.239 1.39269 -0.366079 0
M  V30 2329 H 224.192 3.9629 1.43292 0
M  V30 2330 H 222.916 2.76025 1.74579 0
M  V30 2331 H 221.575 3.66123 -0.187042 0
M  V30 2332 H 221.223 4.56165 2.1195 0
M  V30 2333 H 220.923 5.80918 0.883659 0
M  V30 2334 H 222.447 5.82974 1.81586 0
M  V30 2335 H 223.861 5.7151 -0.452681 0
M  V30 2336 H 222.258 5.87407 -1.22773 0
M  V30 2337 H 223.328 4.5415 -1.69929 0
M  V30 2338 N 224.671 0.411399 1.52136 0
M  V30 2339 C 225.603 -0.448386 2.24771 0
M  V30 2340 C 226.616 -1.00828 1.27818 0
M  V30 2341 O 227.805 -0.906841 1.53749 0
M  V30 2342 C 224.905 -1.63636 2.96777 0
M  V30 2343 C 224.078 -1.19995 4.20618 0
M  V30 2344 C 223.137 -2.25509 4.75428 0
M  V30 2345 O 222.163 -1.86007 5.3795 0
M  V30 2346 N 223.365 -3.577 4.57199 0
M  V30 2347 H 226.13 0.174025 2.99194 0
M  V30 2348 H 223.691 0.238897 1.60128 0
M  V30 2349 H 225.683 -2.33793 3.30338 0
M  V30 2350 H 224.253 -2.16465 2.25526 0
M  V30 2351 H 223.473 -0.326421 3.92846 0
M  V30 2352 H 224.761 -0.885365 5.01038 0
M  V30 2353 H 224.159 -3.92543 4.07341 0
M  V30 2354 H 222.716 -4.23827 4.95191 0
M  V30 2355 N 226.149 -1.5696 0.141893 0
M  V30 2356 C 227.099 -2.13074 -0.811383 0
M  V30 2357 C 228.083 -1.05726 -1.21288 0
M  V30 2358 O 229.275 -1.31914 -1.18015 0
M  V30 2359 C 226.404 -2.75186 -2.0525 0
M  V30 2360 C 225.49 -3.8965 -1.67432 0
M  V30 2361 N 225.881 -4.95733 -1.0041 0
M  V30 2362 C 224.179 -4.00262 -1.96739 0
M  V30 2363 C 224.88 -5.75858 -0.822345 0
M  V30 2364 N 223.856 -5.26452 -1.3546 0
M  V30 2365 H 227.658 -2.92465 -0.290031 0
M  V30 2366 H 225.172 -1.6229 -0.0598218 0
M  V30 2367 H 227.169 -3.13745 -2.74535 0
M  V30 2368 H 225.829 -1.97266 -2.57907 0
M  V30 2369 H 226.84 -5.13607 -0.665441 0
M  V30 2370 H 223.517 -3.33412 -2.51282 0
M  V30 2371 H 224.907 -6.71254 -0.294496 0
M  V30 2372 N 227.627 0.131896 -1.57047 0
M  V30 2373 C 228.577 1.1679 -1.95816 0
M  V30 2374 C 229.561 1.37756 -0.831393 0
M  V30 2375 O 230.753 1.39065 -1.09499 0
M  V30 2376 C 227.882 2.49778 -2.35512 0
M  V30 2377 C 226.968 2.32342 -3.54793 0
M  V30 2378 N 227.359 1.8469 -4.70875 0
M  V30 2379 C 225.657 2.63043 -3.60173 0
M  V30 2380 C 226.358 1.80656 -5.52936 0
M  V30 2381 N 225.334 2.24528 -4.95064 0
M  V30 2382 H 229.136 0.791818 -2.83033 0
M  V30 2383 H 226.65 0.339791 -1.58805 0
M  V30 2384 H 228.647 3.24692 -2.61498 0
M  V30 2385 H 227.307 2.88156 -1.49654 0
M  V30 2386 H 228.318 1.54429 -4.9434 0
M  V30 2387 H 224.995 3.05193 -2.84892 0
M  V30 2388 H 226.385 1.45178 -6.56028 0
M  V30 2389 N 229.106 1.52395 0.401703 0
M  V30 2390 C 230.354 1.66488 1.14569 0
M  V30 2391 C 230.675 0.400897 1.90835 0
M  V30 2392 O 229.945 -0.584415 1.8698 0
M  V30 2393 H 228.525 0.613672 0.425929 0
M  V30 2394 H 231.187 1.89464 0.457093 0
M  V30 2395 H 230.283 2.50942 1.85566 0
M  V30 2396 N 230.584 -0.659388 1.43143 0
M  V30 2397 C 231.514 -1.78422 1.50625 0
M  V30 2398 C 232.495 -1.66216 0.361443 0
M  V30 2399 O 233.68 -1.85404 0.577834 0
M  V30 2400 C 230.81 -3.16815 1.42287 0
M  V30 2401 C 229.764 -3.43777 2.54954 0
M  V30 2402 C 229.09 -4.81905 2.31671 0
M  V30 2403 C 230.39 -3.39134 3.97222 0
M  V30 2404 H 232.084 -1.72417 2.44771 0
M  V30 2405 H 229.63 -0.828084 1.17808 0
M  V30 2406 H 231.583 -3.95253 1.46127 0
M  V30 2407 H 230.307 -3.23534 0.446435 0
M  V30 2408 H 228.966 -2.67707 2.50457 0
M  V30 2409 H 228.614 -4.85294 1.32284 0
M  V30 2410 H 228.314 -5.00906 3.07192 0
M  V30 2411 H 229.838 -5.62609 2.37284 0
M  V30 2412 H 231.252 -4.07518 4.03239 0
M  V30 2413 H 229.649 -3.69671 4.72719 0
M  V30 2414 H 230.719 -2.37426 4.22797 0
M  V30 2415 N 232.062 -1.29571 -0.897171 0
M  V30 2416 C 233.311 -1.1706 -1.64256 0
M  V30 2417 C 233.624 0.276476 -1.93636 0
M  V30 2418 O 234.83 0.52294 -2.66416 0
M  V30 2419 C 233.286 -2.0475 -2.95982 0
M  V30 2420 C 232.894 -3.54295 -2.74187 0
M  V30 2421 C 234.638 -2.0097 -3.73914 0
M  V30 2422 C 232.545 -4.34081 -4.01656 0
M  V30 2423 H 231.475 -0.43452 -0.616205 0
M  V30 2424 H 234.126 -1.54229 -0.994268 0
M  V30 2425 H 232.508 -1.60452 -3.62038 0
M  V30 2426 H 233.682 -4.06662 -2.1671 0
M  V30 2427 H 231.997 -3.59773 -2.09648 0
M  V30 2428 H 234.594 -2.57838 -4.68427 0
M  V30 2429 H 234.937 -0.990273 -4.0435 0
M  V30 2430 H 235.47 -2.43325 -3.14703 0
M  V30 2431 H 232.209 -5.36671 -3.76384 0
M  V30 2432 H 231.729 -3.86483 -4.58684 0
M  V30 2433 H 233.408 -4.44877 -4.69781 0
M  V30 2434 N 233.54 1.10788 -1.12088 0
M  V30 2435 C 234.503 2.15207 -0.788577 0
M  V30 2436 C 235.503 1.59609 0.195317 0
M  V30 2437 O 236.693 1.74174 -0.0300193 0
M  V30 2438 C 233.825 3.4047 -0.171174 0
M  V30 2439 H 235.018 2.46116 -1.71368 0
M  V30 2440 H 232.571 1.26089 -0.923652 0
M  V30 2441 H 233.306 3.15176 0.763832 0
M  V30 2442 H 233.091 3.82109 -0.879514 0
M  V30 2443 H 234.581 4.17576 0.04496 0
M  V30 2444 N 235.018 0.912232 1.28515 0
M  V30 2445 C 236.258 0.551677 1.96814 0
M  V30 2446 C 236.622 -0.887825 1.7024 0
M  V30 2447 O 237.823 -1.35588 2.32098 0
M  V30 2448 C 236.094 0.850555 3.47132 0
M  V30 2449 S 237.653 0.59619 4.34731 0
M  V30 2450 H 234.471 0.204191 0.681049 0
M  V30 2451 H 237.073 1.17736 1.56072 0
M  V30 2452 H 235.777 1.8962 3.63968 0
M  V30 2453 H 235.308 0.213471 3.9282 0
M  V30 2454 H 237.323 -0.553154 4.93107 0
M  V30 2455 N 236.496 -1.42363 0.676048 0
M  V30 2456 C 237.406 -2.346 -0.00153389 0
M  V30 2457 C 238.422 -1.5516 -0.787485 0
M  V30 2458 O 239.598 -1.87723 -0.729521 0
M  V30 2459 C 236.663 -3.33705 -0.940298 0
M  V30 2460 C 235.724 -4.29042 -0.148739 0
M  V30 2461 C 234.957 -5.23413 -1.04279 0
M  V30 2462 O 235.18 -5.22749 -2.28232 0
M  V30 2463 O 234.114 -5.99795 -0.502925 0
M  V30 2464 H 237.94 -2.94082 0.758268 0
M  V30 2465 H 235.525 -1.42888 0.436289 0
M  V30 2466 H 237.407 -3.94586 -1.47917 0
M  V30 2467 H 236.082 -2.76695 -1.67993 0
M  V30 2468 H 234.989 -3.71571 0.43427 0
M  V30 2469 H 236.322 -4.89097 0.551805 0
M  V30 2470 N 237.974 -0.419461 -1.51915 0
M  V30 2471 C 239.22 0.153166 -2.02221 0
M  V30 2472 C 239.553 1.43907 -1.30401 0
M  V30 2473 O 238.828 1.90055 -0.413438 0
M  V30 2474 C 239.111 0.390291 -3.57979 0
M  V30 2475 C 238.964 -0.913014 -4.40436 0
M  V30 2476 C 240.283 1.16794 -4.2432 0
M  V30 2477 H 237.402 0.0541924 -0.735005 0
M  V30 2478 H 240.044 -0.554955 -1.81715 0
M  V30 2479 H 238.194 0.993491 -3.75582 0
M  V30 2480 H 239.866 -1.54882 -4.34522 0
M  V30 2481 H 238.109 -1.52168 -4.06236 0
M  V30 2482 H 238.78 -0.701361 -5.47526 0
M  V30 2483 H 241.256 0.657161 -4.10878 0
M  V30 2484 H 240.132 1.3026 -5.3322 0
M  V30 2485 H 240.393 2.19132 -3.83971 0
M  V30 2486 N 239.452 1.56882 -0.150215 0
M  V30 2487 C 240.4 2.18214 0.805313 0
M  V30 2488 C 241.394 1.14006 1.25296 0
M  V30 2489 O 242.6 1.3225 1.22107 0
M  V30 2490 H 238.975 0.698762 0.277913 0
M  V30 2491 H 240.946 2.97231 0.263862 0
M  V30 2492 C 239.695 2.82065 2.03309 0
M  V30 2493 H 239.018 3.61968 1.69763 0
M  V30 2494 H 240.458 3.28477 2.68103 0
M  V30 2495 C 238.917 1.80739 2.84315 0
M  V30 2496 O 239.447 1.27983 3.80767 0
M  V30 2497 N 237.653 1.4997 2.48913 0
M  V30 2498 H 237.2 1.93062 1.70542 0
M  V30 2499 H 237.158 0.824217 3.03404 0
M  V30 2500 N 240.93 -0.123565 1.57115 0
M  V30 2501 C 241.86 -1.15309 2.03042 0
M  V30 2502 C 242.841 -1.43454 0.914061 0
M  V30 2503 O 244.026 -1.53973 1.18347 0
M  V30 2504 C 241.156 -2.48043 2.43089 0
M  V30 2505 C 240.11 -2.3437 3.58127 0
M  V30 2506 C 239.436 -3.72026 3.84059 0
M  V30 2507 C 240.736 -1.80804 4.90007 0
M  V30 2508 H 242.43 -0.771102 2.893 0
M  V30 2509 H 239.976 -0.369479 1.39179 0
M  V30 2510 H 241.929 -3.20311 2.73823 0
M  V30 2511 H 240.653 -2.88122 1.53796 0
M  V30 2512 H 239.312 -1.64551 3.27595 0
M  V30 2513 H 238.96 -4.09582 2.91979 0
M  V30 2514 H 238.66 -3.63732 4.6149 0
M  V30 2515 H 240.184 -4.45806 4.1724 0
M  V30 2516 H 241.598 -2.42886 5.19307 0
M  V30 2517 H 239.995 -1.83343 5.71407 0
M  V30 2518 H 241.065 -0.76528 4.78823 0
M  V30 2519 N 242.408 -1.52605 -0.393616 0
M  V30 2520 C 243.318 -1.79971 -1.50492 0
M  V30 2521 C 244.334 -0.686181 -1.59899 0
M  V30 2522 O 245.51 -0.973274 -1.76322 0
M  V30 2523 C 242.575 -1.95867 -2.86072 0
M  V30 2524 C 241.636 -3.19781 -2.86424 0
M  V30 2525 C 240.869 -3.34909 -4.15538 0
M  V30 2526 O 241.092 -2.54948 -5.10253 0
M  V30 2527 O 240.026 -4.28141 -4.23059 0
M  V30 2528 H 243.852 -2.74328 -1.30299 0
M  V30 2529 H 241.437 -1.3764 -0.581005 0
M  V30 2530 H 243.319 -2.08056 -3.66457 0
M  V30 2531 H 241.994 -1.04699 -3.063 0
M  V30 2532 H 240.901 -3.13038 -2.04837 0
M  V30 2533 H 242.234 -4.1078 -2.71147 0
M  V30 2534 N 243.887 0.651787 -1.4349 0
M  V30 2535 C 244.834 1.76462 -1.4876 0
M  V30 2536 C 245.804 1.62641 -0.337189 0
M  V30 2537 O 246.989 1.82864 -0.544544 0
M  V30 2538 C 244.129 3.14623 -1.41796 0
M  V30 2539 C 243.242 3.39568 -2.67053 0
M  V30 2540 C 242.377 4.67585 -2.52068 0
M  V30 2541 C 241.416 4.85639 -3.72587 0
M  V30 2542 N 240.553 6.04915 -3.56402 0
M  V30 2543 H 245.393 1.71293 -2.43849 0
M  V30 2544 H 242.93 0.835889 -1.21043 0
M  V30 2545 H 244.888 3.94496 -1.35753 0
M  V30 2546 H 243.518 3.18859 -0.50288 0
M  V30 2547 H 242.57 2.53783 -2.8337 0
M  V30 2548 H 243.882 3.48795 -3.56572 0
M  V30 2549 H 243.036 5.55586 -2.4374 0
M  V30 2550 H 241.775 4.60681 -1.60075 0
M  V30 2551 H 240.78 3.96073 -3.81321 0
M  V30 2552 H 242.005 4.94372 -4.65589 0
M  V30 2553 H 239.951 5.9914 -2.67146 0
M  V30 2554 H 239.868 6.15106 -4.39524 0
M  V30 2555 H 241.136 6.95533 -3.51929 0
M  V30 2556 N 245.365 1.30045 0.890287 0
M  V30 2557 C 246.328 1.15963 1.977 0
M  V30 2558 C 247.328 0.0923777 1.60534 0
M  V30 2559 O 248.518 0.340071 1.70848 0
M  V30 2560 C 245.65 0.775451 3.31963 0
M  V30 2561 H 246.843 2.12502 2.11619 0
M  V30 2562 H 244.396 1.13366 1.07601 0
M  V30 2563 H 245.131 -0.189671 3.23745 0
M  V30 2564 H 244.916 1.54668 3.60306 0
M  V30 2565 H 246.406 0.700251 4.11687 0
M  V30 2566 N 246.843 -1.10192 1.12674 0
M  V30 2567 C 247.773 -2.18652 0.819362 0
M  V30 2568 C 248.754 -1.68698 -0.217915 0
M  V30 2569 O 249.939 -1.94041 -0.0785581 0
M  V30 2570 C 247.069 -3.46202 0.27594 0
M  V30 2571 C 246.023 -4.09444 1.24656 0
M  V30 2572 C 245.349 -5.31725 0.563258 0
M  V30 2573 C 246.649 -4.52863 2.60217 0
M  V30 2574 H 248.343 -2.44622 1.72628 0
M  V30 2575 H 245.889 -1.17571 0.831451 0
M  V30 2576 H 247.842 -4.21372 0.0486149 0
M  V30 2577 H 246.566 -3.1973 -0.666331 0
M  V30 2578 H 245.225 -3.36284 1.45974 0
M  V30 2579 H 244.873 -5.0153 -0.384235 0
M  V30 2580 H 244.573 -5.74991 1.21075 0
M  V30 2581 H 246.097 -6.09624 0.34503 0
M  V30 2582 H 247.511 -5.19294 2.42913 0
M  V30 2583 H 245.908 -5.06986 3.21068 0
M  V30 2584 H 246.978 -3.65656 3.18471 0
M  V30 2585 N 248.321 -0.919034 -1.28029 0
M  V30 2586 C 249.567 -0.565221 -1.95389 0
M  V30 2587 C 249.922 0.882325 -1.70976 0
M  V30 2588 O 249.215 1.61988 -1.02325 0
M  V30 2589 C 249.409 -0.816855 -3.4794 0
M  V30 2590 C 249.238 -2.28731 -3.87185 0
M  V30 2591 C 248.008 -2.93841 -4.11079 0
M  V30 2592 C 250.206 -3.26415 -3.97439 0
M  V30 2593 N 248.188 -4.31129 -4.37037 0
M  V30 2594 C 249.559 -4.48884 -4.27672 0
M  V30 2595 C 251.614 -3.21742 -3.79982 0
M  V30 2596 C 250.317 -5.67268 -4.42266 0
M  V30 2597 C 252.343 -4.39431 -3.95796 0
M  V30 2598 C 251.705 -5.60675 -4.26407 0
M  V30 2599 H 247.804 -0.256797 -0.738633 0
M  V30 2600 H 250.388 -1.18386 -1.54573 0
M  V30 2601 H 248.559 -0.227445 -3.87733 0
M  V30 2602 H 250.291 -0.426542 -4.02446 0
M  V30 2603 H 247.046 -2.44547 -4.05578 0
M  V30 2604 H 247.47 -5.02127 -4.5409 0
M  V30 2605 H 252.112 -2.29079 -3.55363 0
M  V30 2606 H 249.83 -6.60406 -4.65714 0
M  V30 2607 H 253.416 -4.37323 -3.83719 0
M  V30 2608 H 252.296 -6.50223 -4.38383 0
M  V30 2609 N 249.799 1.42003 -0.683588 0
M  V30 2610 C 250.729 2.33487 -0.024866 0
M  V30 2611 C 251.71 1.51163 0.779975 0
M  V30 2612 O 252.895 1.79739 0.735362 0
M  V30 2613 C 250.025 3.3487 0.920836 0
M  V30 2614 C 248.979 4.27414 0.223958 0
M  V30 2615 C 248.305 5.19074 1.2832 0
M  V30 2616 C 249.605 5.14445 -0.90242 0
M  V30 2617 H 251.299 2.88819 -0.788921 0
M  V30 2618 H 248.845 1.38873 -0.38083 0
M  V30 2619 H 250.798 3.97787 1.39081 0
M  V30 2620 H 249.522 2.77861 1.71642 0
M  V30 2621 H 248.181 3.65904 -0.225864 0
M  V30 2622 H 247.829 4.58387 2.071 0
M  V30 2623 H 247.529 5.81822 0.821995 0
M  V30 2624 H 249.053 5.84867 1.75392 0
M  V30 2625 H 250.467 5.70998 -0.513272 0
M  V30 2626 H 248.864 5.86072 -1.28997 0
M  V30 2627 H 249.934 4.52322 -1.74737 0
M  V30 2628 N 251.277 0.427512 1.51691 0
M  V30 2629 C 252.24 -0.377132 2.26076 0
M  V30 2630 C 253.24 -0.958089 1.29141 0
M  V30 2631 O 254.43 -0.83408 1.52934 0
M  V30 2632 C 251.562 -1.53262 3.04506 0
M  V30 2633 H 252.755 0.27464 2.9864 0
M  V30 2634 H 250.308 0.180445 1.55255 0
M  V30 2635 H 251.043 -2.22072 2.36335 0
M  V30 2636 H 250.828 -1.12232 3.75694 0
M  V30 2637 H 252.318 -2.10135 3.60878 0
M  V30 2638 N 252.755 -1.56801 0.158532 0
M  V30 2639 C 253.705 -2.13923 -0.788738 0
M  V30 2640 C 254.689 -1.07006 -1.2016 0
M  V30 2641 O 255.881 -1.33159 -1.1661 0
M  V30 2642 C 253.01 -2.77348 -2.02319 0
M  V30 2643 C 252.096 -3.91404 -1.6329 0
M  V30 2644 N 252.487 -4.9677 -0.951463 0
M  V30 2645 C 250.785 -4.02326 -1.92482 0
M  V30 2646 C 251.486 -5.76698 -0.761221 0
M  V30 2647 N 250.462 -5.27859 -1.29869 0
M  V30 2648 H 254.264 -2.92757 -0.258995 0
M  V30 2649 H 251.778 -1.62344 -0.0426055 0
M  V30 2650 H 253.775 -3.16639 -2.71192 0
M  V30 2651 H 252.435 -1.99991 -2.558 0
M  V30 2652 H 253.446 -5.14284 -0.610928 0
M  V30 2653 H 250.123 -3.36059 -2.47732 0
M  V30 2654 H 251.513 -6.71529 -0.223284 0
M  V30 2655 N 254.233 0.115231 -1.57178 0
M  V30 2656 C 255.143 1.15994 -2.03918 0
M  V30 2657 C 256.159 1.45103 -0.960268 0
M  V30 2658 O 257.335 1.56144 -1.27204 0
M  V30 2659 C 254.4 2.46568 -2.43732 0
M  V30 2660 C 253.461 2.24822 -3.65723 0
M  V30 2661 C 252.694 3.4917 -4.03629 0
M  V30 2662 O 252.917 4.56623 -3.41835 0
M  V30 2663 O 251.851 3.39949 -4.96708 0
M  V30 2664 H 255.677 0.793019 -2.93164 0
M  V30 2665 H 253.262 0.3263 -1.45793 0
M  V30 2666 H 255.144 3.23492 -2.70057 0
M  V30 2667 H 253.819 2.82726 -1.57631 0
M  V30 2668 H 252.726 1.45744 -3.44542 0
M  V30 2669 H 254.059 1.93566 -4.52541 0
M  V30 2670 N 255.711 1.52812 0.385517 0
M  V30 2671 C 256.957 1.68275 1.13188 0
M  V30 2672 C 257.29 0.423179 1.89533 0
M  V30 2673 O 256.565 -0.579113 1.85679 0
M  V30 2674 C 256.848 2.92001 2.1073 0
M  V30 2675 C 256.701 4.28067 1.38125 0
M  V30 2676 C 258.02 3.11283 3.11113 0
M  V30 2677 H 255.139 0.612352 0.410115 0
M  V30 2678 H 257.781 1.85415 0.414869 0
M  V30 2679 H 255.931 2.77519 2.71874 0
M  V30 2680 H 257.603 4.54324 0.799187 0
M  V30 2681 H 255.846 4.28388 0.683092 0
M  V30 2682 H 256.517 5.10733 2.09417 0
M  V30 2683 H 258.993 3.2482 2.6006 0
M  V30 2684 H 257.869 3.99325 3.76605 0
M  V30 2685 H 258.13 2.25656 3.80173 0
M  V30 2686 N 257.189 -0.644168 1.43834 0
M  V30 2687 C 258.099 -1.78563 1.52159 0
M  V30 2688 C 259.115 -1.69147 0.408069 0
M  V30 2689 O 260.291 -1.90156 0.663524 0
M  V30 2690 C 257.356 -3.14888 1.45073 0
M  V30 2691 C 256.417 -3.36034 2.6717 0
M  V30 2692 C 255.65 -4.65855 2.60413 0
M  V30 2693 O 255.873 -5.45805 1.65689 0
M  V30 2694 O 254.807 -4.88918 3.5106 0
M  V30 2695 H 258.633 -1.74494 2.48567 0
M  V30 2696 H 256.218 -0.80378 1.25935 0
M  V30 2697 H 258.1 -3.96179 1.43597 0
M  V30 2698 H 256.775 -3.19528 0.518037 0
M  V30 2699 H 255.682 -2.54472 2.74217 0
M  V30 2700 H 257.015 -3.36247 3.59442 0
M  V30 2701 N 258.668 -1.30515 -0.883378 0
M  V30 2702 C 259.914 -1.19607 -1.63774 0
M  V30 2703 C 260.247 0.248314 -1.92606 0
M  V30 2704 O 259.522 1.17742 -1.54813 0
M  V30 2705 C 259.805 -2.02669 -2.97653 0
M  V30 2706 C 259.658 -3.55335 -2.75784 0
M  V30 2707 C 260.977 -1.86573 -3.98596 0
M  V30 2708 H 258.096 -0.435856 -0.594305 0
M  V30 2709 H 260.738 -1.60165 -1.02212 0
M  V30 2710 H 258.888 -1.68208 -3.50197 0
M  V30 2711 H 260.56 -3.99863 -2.30016 0
M  V30 2712 H 258.803 -3.79438 -2.1026 0
M  V30 2713 H 259.474 -4.08745 -3.70988 0
M  V30 2714 H 261.95 -2.16703 -3.55217 0
M  V30 2715 H 260.826 -2.47014 -4.90179 0
M  V30 2716 H 261.087 -0.825321 -4.34328 0
M  V30 2717 N 260.146 1.09593 -1.13257 0
M  V30 2718 C 261.076 2.18214 -0.830946 0
M  V30 2719 C 262.057 1.68812 0.208966 0
M  V30 2720 O 263.242 1.9408 0.0682666 0
M  V30 2721 C 260.372 3.46051 -0.294296 0
M  V30 2722 C 259.326 4.08778 -1.26826 0
M  V30 2723 C 258.652 5.31419 -0.591449 0
M  V30 2724 C 259.952 4.51476 -2.62615 0
M  V30 2725 H 261.646 2.43703 -1.73923 0
M  V30 2726 H 259.192 1.17128 -0.837675 0
M  V30 2727 H 261.145 4.2134 -0.0709606 0
M  V30 2728 H 259.869 3.20079 0.649366 0
M  V30 2729 H 258.528 3.35505 -1.47756 0
M  V30 2730 H 258.176 5.01727 0.357633 0
M  V30 2731 H 257.876 5.74341 -1.24123 0
M  V30 2732 H 259.4 6.09433 -0.377355 0
M  V30 2733 H 260.814 5.17999 -2.45663 0
M  V30 2734 H 259.211 5.05277 -3.23752 0
M  V30 2735 H 260.281 3.63962 -3.20406 0
M  V30 2736 N 261.624 0.925811 1.2754 0
M  V30 2737 C 262.587 0.428129 2.25166 0
M  V30 2738 C 263.587 -0.452261 1.54309 0
M  V30 2739 O 264.777 -0.253608 1.72344 0
M  V30 2740 C 261.909 -0.384749 3.38722 0
M  V30 2741 H 263.102 1.29066 2.70706 0
M  V30 2742 H 260.655 0.706323 1.3943 0
M  V30 2743 H 261.39 -1.26618 2.98561 0
M  V30 2744 H 261.175 0.246454 3.91325 0
M  V30 2745 H 262.665 -0.723389 4.11287 0
M  V30 2746 N 263.102 -1.41638 0.69111 0
M  V30 2747 C 264.034 -2.29194 -0.0161523 0
M  V30 2748 C 265.047 -1.44549 -0.748955 0
M  V30 2749 O 266.236 -1.681 -0.6004 0
M  V30 2750 C 263.336 -3.22325 -1.0469 0
M  V30 2751 C 262.509 -4.35706 -0.384621 0
M  V30 2752 C 261.568 -5.09443 -1.31737 0
M  V30 2753 O 260.594 -5.63386 -0.811451 0
M  V30 2754 N 261.796 -5.16487 -2.64993 0
M  V30 2755 H 264.561 -2.90534 0.735523 0
M  V30 2756 H 262.122 -1.52742 0.53679 0
M  V30 2757 H 264.114 -3.68522 -1.67252 0
M  V30 2758 H 262.684 -2.62323 -1.70015 0
M  V30 2759 H 261.904 -3.91948 0.420804 0
M  V30 2760 H 263.192 -5.08743 0.0760765 0
M  V30 2761 H 262.59 -4.741 -3.08619 0
M  V30 2762 H 261.147 -5.66276 -3.22761 0
M  V30 2763 N 264.58 -0.43555 -1.51462 0
M  V30 2764 C 265.51 0.367376 -2.30592 0
M  V30 2765 C 266.491 1.02263 -1.35928 0
M  V30 2766 O 267.676 1.02661 -1.64847 0
M  V30 2767 C 264.806 1.46983 -3.14664 0
M  V30 2768 C 263.76 0.938161 -4.17591 0
M  V30 2769 C 263.086 2.13622 -4.90173 0
M  V30 2770 C 264.386 -0.0261621 -5.22293 0
M  V30 2771 H 266.08 -0.292969 -2.97963 0
M  V30 2772 H 263.626 -0.14234 -1.43295 0
M  V30 2773 H 265.579 2.03873 -3.688 0
M  V30 2774 H 264.303 2.15843 -2.4511 0
M  V30 2775 H 262.962 0.391481 -3.64504 0
M  V30 2776 H 262.61 2.81098 -4.17124 0
M  V30 2777 H 262.31 1.78688 -5.59772 0
M  V30 2778 H 263.834 2.7107 -5.47132 0
M  V30 2779 H 265.248 0.452384 -5.71512 0
M  V30 2780 H 263.645 -0.287992 -5.99409 0
M  V30 2781 H 264.715 -0.963391 -4.75233 0
M  V30 2782 N 266.058 1.56714 -0.166846 0
M  V30 2783 C 267.288 2.00828 0.48494 0
M  V30 2784 C 267.696 1.04612 1.57648 0
M  V30 2785 O 267.039 0.0383201 1.8366 0
M  V30 2786 C 267.101 3.4137 1.12723 0
M  V30 2787 C 266.765 4.56654 0.177886 0
M  V30 2788 C 267.762 5.16402 -0.60207 0
M  V30 2789 C 265.447 5.02244 0.0750139 0
M  V30 2790 C 267.441 6.20167 -1.47215 0
M  V30 2791 C 265.128 6.05859 -0.798649 0
M  V30 2792 C 266.126 6.64691 -1.57082 0
M  V30 2793 O 265.814 7.66297 -2.42989 0
M  V30 2794 H 265.546 0.663587 0.128953 0
M  V30 2795 H 268.1 2.03692 -0.264365 0
M  V30 2796 H 266.33 3.35406 1.92457 0
M  V30 2797 H 268.019 3.69466 1.68076 0
M  V30 2798 H 268.785 4.82065 -0.53274 0
M  V30 2799 H 264.664 4.56167 0.665812 0
M  V30 2800 H 268.208 6.66016 -2.07531 0
M  V30 2801 H 264.105 6.39621 -0.869199 0
M  V30 2802 H 264.873 7.83601 -2.36455 0
M  V30 2803 N 267.536 -0.106894 1.57237 0
M  V30 2804 C 268.466 -1.13148 2.04254 0
M  V30 2805 C 269.447 -1.42476 0.929224 0
M  V30 2806 O 270.632 -1.52709 1.19973 0
M  V30 2807 C 267.762 -2.4545 2.45706 0
M  V30 2808 C 266.716 -2.30558 3.60592 0
M  V30 2809 C 266.042 -3.67931 3.87983 0
M  V30 2810 C 267.342 -1.75597 4.91897 0
M  V30 2811 H 269.036 -0.740374 2.90101 0
M  V30 2812 H 266.582 -0.354696 1.39563 0
M  V30 2813 H 268.535 -3.17389 2.77205 0
M  V30 2814 H 267.259 -2.86475 1.56843 0
M  V30 2815 H 265.918 -1.61067 3.29322 0
M  V30 2816 H 265.566 -4.06462 2.96306 0
M  V30 2817 H 265.266 -3.58817 4.65322 0
M  V30 2818 H 266.79 -4.41356 4.21945 0
M  V30 2819 H 268.204 -2.37364 5.21854 0
M  V30 2820 H 266.601 -1.77272 5.73319 0
M  V30 2821 H 267.671 -0.714451 4.79608 0
M  V30 2822 N 269.014 -1.53014 -0.377408 0
M  V30 2823 C 270.242 -1.72515 -1.14219 0
M  V30 2824 C 270.657 -0.448735 -1.8339 0
M  V30 2825 O 270.014 0.577592 -1.73119 0
M  V30 2826 C 270.065 -2.8826 -2.18148 0
M  V30 2827 O 269.786 -4.10962 -1.51795 0
M  V30 2828 C 271.287 -3.19536 -3.07264 0
M  V30 2829 H 268.507 -0.577301 -0.342001 0
M  V30 2830 H 271.051 -1.99712 -0.439935 0
M  V30 2831 H 269.206 -2.63492 -2.83991 0
M  V30 2832 H 269.62 -4.75693 -2.20945 0
M  V30 2833 H 271.094 -4.03959 -3.76193 0
M  V30 2834 H 271.571 -2.34403 -3.71419 0
M  V30 2835 H 272.177 -3.46186 -2.47053 0
M  V30 2836 N 270.492 0.636531 -1.44174 0
M  V30 2837 C 271.72 1.42353 -1.50144 0
M  V30 2838 C 272.135 1.88389 -0.124575 0
M  V30 2839 O 271.492 1.6051 0.868489 0
M  V30 2840 C 271.543 2.64744 -2.46156 0
M  V30 2841 O 271.264 2.20629 -3.7849 0
M  V30 2842 C 272.765 3.57929 -2.61537 0
M  V30 2843 H 269.985 0.436752 -0.5094 0
M  V30 2844 H 272.529 0.778933 -1.89084 0
M  V30 2845 H 270.684 3.25307 -2.10366 0
M  V30 2846 H 271.098 2.99938 -4.30276 0
M  V30 2847 H 272.572 4.40428 -3.32757 0
M  V30 2848 H 273.049 4.06382 -1.66585 0
M  V30 2849 H 273.655 3.03238 -2.98206 0
M  V30 2850 N 271.97 1.30982 0.876444 0
M  V30 2851 C 272.9 1.20668 1.99903 0
M  V30 2852 C 273.881 0.095354 1.69833 0
M  V30 2853 O 275.066 0.27885 1.92188 0
M  V30 2854 C 272.196 0.90655 3.3526 0
M  V30 2855 C 271.15 1.97675 3.79617 0
M  V30 2856 C 270.476 1.52943 5.1236 0
M  V30 2857 C 271.776 3.389 3.97422 0
M  V30 2858 H 273.47 2.14586 2.0879 0
M  V30 2859 H 271.016 1.03308 1.00317 0
M  V30 2860 H 272.969 0.821025 4.13324 0
M  V30 2861 H 271.693 -0.0682969 3.26529 0
M  V30 2862 H 270.352 2.05205 3.03787 0
M  V30 2863 H 270 0.54262 5.00065 0
M  V30 2864 H 269.7 2.24532 5.43009 0
M  V30 2865 H 271.224 1.45786 5.92941 0
M  V30 2866 H 272.638 3.34081 4.659 0
M  V30 2867 H 271.035 4.0865 4.3946 0
M  V30 2868 H 272.105 3.80163 3.01006 0
M  V30 2869 N 273.449 -1.08991 1.13837 0
M  V30 2870 C 274.412 -2.13925 0.822715 0
M  V30 2871 C 275.412 -1.599 -0.1699 0
M  V30 2872 O 276.602 -1.74104 0.0577251 0
M  V30 2873 C 273.734 -3.40155 0.225318 0
M  V30 2874 H 274.927 -2.43358 1.75262 0
M  V30 2875 H 272.48 -1.24603 0.943594 0
M  V30 2876 H 273.215 -3.16352 -0.713594 0
M  V30 2877 H 273 -3.80661 0.940193 0
M  V30 2878 H 274.49 -4.17594 0.0214784 0
M  V30 2879 N 274.927 -0.932562 -1.27047 0
M  V30 2880 C 276.176 -0.571351 -1.93439 0
M  V30 2881 C 276.489 0.892467 -1.74053 0
M  V30 2882 O 277.695 1.36267 -2.34826 0
M  V30 2883 C 276.151 -0.97106 -3.46552 0
M  V30 2884 C 275.759 -2.4559 -3.74686 0
M  V30 2885 C 277.503 -0.681333 -4.18997 0
M  V30 2886 C 275.41 -2.79475 -5.21198 0
M  V30 2887 H 274.34 -0.209966 -0.724176 0
M  V30 2888 H 276.991 -1.13403 -1.44263 0
M  V30 2889 H 275.373 -0.336983 -3.94564 0
M  V30 2890 H 276.547 -3.13829 -3.37414 0
M  V30 2891 H 274.862 -2.71802 -3.15456 0
M  V30 2892 H 277.459 -0.910939 -5.26883 0
M  V30 2893 H 277.802 0.381628 -4.14547 0
M  V30 2894 H 278.335 -1.27473 -3.76823 0
M  V30 2895 H 275.074 -3.847 -5.30741 0
M  V30 2896 H 274.594 -2.1589 -5.596 0
M  V30 2897 H 276.273 -2.67478 -5.89122 0
M  V30 2898 N 276.405 1.4127 -0.698611 0
M  V30 2899 C 277.633 2.05503 -0.239992 0
M  V30 2900 C 278.048 1.52584 1.11191 0
M  V30 2901 O 277.405 0.675323 1.69545 0
M  V30 2902 C 277.456 3.60987 -0.192429 0
M  V30 2903 O 277.177 4.1195 -1.49094 0
M  V30 2904 C 278.678 4.42371 0.28681 0
M  V30 2905 H 275.898 0.661748 -0.111045 0
M  V30 2906 H 278.442 1.80987 -0.95205 0
M  V30 2907 H 276.597 3.84533 0.470472 0
M  V30 2908 H 277.011 5.06018 -1.38007 0
M  V30 2909 H 278.485 5.51344 0.26896 0
M  V30 2910 H 278.962 4.18699 1.32619 0
M  V30 2911 H 279.568 4.23897 -0.345201 0
M  V30 2912 N 277.883 0.443576 1.51229 0
M  V30 2913 C 279.16 -0.181038 1.9476 0
M  V30 2914 C 279.54 -1.59523 1.38259 0
M  V30 2915 O 278.888 -2.2122 0.572198 0
M  V30 2916 C 279.098 -0.152422 3.48667 0
M  V30 2917 C 280.446 -0.354923 4.23114 0
M  V30 2918 O 281.47 -0.230257 3.55455 0
M  V30 2919 O 280.329 -0.603674 5.43156 0
M  V30 2920 H 277.423 -0.1266 0.817252 0
M  V30 2921 H 279.969 0.502004 1.62105 0
M  V30 2922 H 278.741 0.836022 3.82265 0
M  V30 2923 H 278.364 -0.878107 3.87782 0
M  V30 2924 N 279.361 -1.56624 0.175154 0
M  V30 2925 C 280.772 -1.83561 -0.340916 0
M  V30 2926 C 281.123 -1.09511 -1.62794 0
M  V30 2927 O 280.248 -0.349389 -2.13561 0
M  V30 2928 C 280.843 -3.32979 -0.625313 0
M  V30 2929 C 279.402 -3.60399 -1.08581 0
M  V30 2930 C 278.549 -2.77024 -0.123722 0
M  V30 2931 H 281.5 -1.53593 0.399344 0
M  V30 2932 H 281.521 -3.50666 -1.47694 0
M  V30 2933 H 281.033 -3.86847 0.311575 0
M  V30 2934 H 279.134 -3.11945 -2.03767 0
M  V30 2935 H 279.247 -4.68711 -0.992317 0
M  V30 2936 H 277.611 -2.46993 -0.621821 0
M  V30 2937 H 278.394 -3.33674 0.807256 0
M  V30 2938 N 280.839 0.0985539 -1.57292 0
M  V30 2939 C 282.085 0.803867 -1.86188 0
M  V30 2940 C 282.418 1.78549 -0.763794 0
M  V30 2941 O 281.693 1.93153 0.22855 0
M  V30 2942 C 281.976 1.53568 -3.25713 0
M  V30 2943 C 281.829 0.572277 -4.46145 0
M  V30 2944 C 283.148 2.48708 -3.63087 0
M  V30 2945 H 280.267 0.290781 -0.677211 0
M  V30 2946 H 282.909 0.0675783 -1.8988 0
M  V30 2947 H 281.059 2.16332 -3.22696 0
M  V30 2948 H 282.731 -0.0480894 -4.61275 0
M  V30 2949 H 280.974 -0.114618 -4.33649 0
M  V30 2950 H 281.645 1.12139 -5.40489 0
M  V30 2951 H 284.121 1.96039 -3.67026 0
M  V30 2952 H 282.997 2.96932 -4.61652 0
M  V30 2953 H 283.258 3.32309 -2.91588 0
M  V30 2954 N 282.317 1.53212 0.369288 0
M  V30 2955 C 283.728 1.60943 0.946276 0
M  V30 2956 C 284.079 0.47452 1.90375 0
M  V30 2957 O 283.204 -0.399597 2.12679 0
M  V30 2958 C 283.799 2.91715 1.72302 0
M  V30 2959 C 282.358 3.01792 2.24941 0
M  V30 2960 C 281.505 2.56211 1.06072 0
M  V30 2961 H 284.456 1.58007 0.148198 0
M  V30 2962 H 284.477 2.79309 2.58393 0
M  V30 2963 H 283.989 3.74295 1.0259 0
M  V30 2964 H 282.09 2.23791 2.97906 0
M  V30 2965 H 282.203 4.06803 2.53077 0
M  V30 2966 H 280.567 2.10998 1.4266 0
M  V30 2967 H 281.35 3.41206 0.378639 0
M  V30 2968 N 283.795 -0.628877 1.44509 0
M  V30 2969 C 285.041 -1.39045 1.47629 0
M  V30 2970 C 285.374 -1.93892 0.109343 0
M  V30 2971 O 284.649 -1.7379 -0.87334 0
M  V30 2972 C 284.932 -2.55408 2.53848 0
M  V30 2973 C 284.785 -2.05896 3.99909 0
M  V30 2974 C 286.104 -3.5759 2.56549 0
M  V30 2975 H 283.223 -0.504232 0.537512 0
M  V30 2976 H 285.865 -0.710854 1.76201 0
M  V30 2977 H 284.015 -3.13384 2.29615 0
M  V30 2978 H 285.687 -1.52734 4.35282 0
M  V30 2979 H 283.93 -1.37061 4.11578 0
M  V30 2980 H 284.601 -2.89681 4.69882 0
M  V30 2981 H 287.077 -3.09419 2.78207 0
M  V30 2982 H 285.953 -4.36527 3.32769 0
M  V30 2983 H 286.214 -4.11808 1.60832 0
M  V30 2984 N 285.273 -1.31445 -0.869486 0
M  V30 2985 C 286.203 -1.21727 -1.99261 0
M  V30 2986 C 287.184 -0.104359 -1.6978 0
M  V30 2987 O 288.369 -0.289038 -1.92037 0
M  V30 2988 C 285.499 -0.924317 -3.34774 0
M  V30 2989 C 284.453 -1.99685 -3.78563 0
M  V30 2990 C 283.779 -1.55658 -5.11541 0
M  V30 2991 C 285.079 -3.41003 -3.95619 0
M  V30 2992 H 286.773 -2.1569 -2.07649 0
M  V30 2993 H 284.319 -1.03839 -0.997675 0
M  V30 2994 H 286.272 -0.842934 -4.12883 0
M  V30 2995 H 284.996 0.0509793 -3.2656 0
M  V30 2996 H 283.655 -2.06813 -3.02694 0
M  V30 2997 H 283.303 -0.569132 -4.9977 0
M  V30 2998 H 283.003 -2.27409 -5.41811 0
M  V30 2999 H 284.527 -1.48928 -5.92159 0
M  V30 3000 H 285.941 -3.36547 -4.64122 0
M  V30 3001 H 284.338 -4.10975 -4.37286 0
M  V30 3002 H 285.408 -3.81754 -2.98985 0
M  V30 3003 N 286.751 1.08385 -1.14413 0
M  V30 3004 C 287.976 1.85057 -0.936413 0
M  V30 3005 C 288.401 1.81055 0.509971 0
M  V30 3006 O 287.759 1.1958 1.36273 0
M  V30 3007 C 287.807 3.30505 -1.44217 0
M  V30 3008 O 286.911 4.07491 -0.634409 0
M  V30 3009 H 286.252 0.573425 -0.334784 0
M  V30 3010 H 288.782 1.36799 -1.52142 0
M  V30 3011 H 288.792 3.81348 -1.45043 0
M  V30 3012 H 287.467 3.32734 -2.49522 0
M  V30 3013 H 286.044 3.66368 -0.694902 0
M  V30 3014 N 288.23 0.939286 1.26551 0
M  V30 3015 C 289.507 0.5038 1.89001 0
M  V30 3016 C 289.887 -1.01854 1.84903 0
M  V30 3017 O 289.235 -1.87773 1.30206 0
M  V30 3018 C 289.445 1.063 3.32417 0
M  V30 3019 C 290.793 1.13051 4.09273 0
M  V30 3020 O 291.817 1.01345 3.41479 0
M  V30 3021 O 290.676 1.31233 5.30509 0
M  V30 3022 H 287.77 0.163897 0.810597 0
M  V30 3023 H 290.316 1.03173 1.34735 0
M  V30 3024 H 289.088 2.10665 3.29752 0
M  V30 3025 H 288.711 0.517408 3.94219 0
M  V30 3026 N 289.708 -1.40897 0.706093 0
M  V30 3027 C 290.618 -2.3455 0.0482286 0
M  V30 3028 C 291.634 -1.56796 -0.754396 0
M  V30 3029 O 292.81 -1.89228 -0.689538 0
M  V30 3030 C 289.875 -3.35625 -0.869303 0
M  V30 3031 C 288.936 -4.29261 -0.0576994 0
M  V30 3032 C 288.169 -5.25508 -0.931531 0
M  V30 3033 O 288.392 -5.27472 -2.17092 0
M  V30 3034 O 287.326 -6.00727 -0.375587 0
M  V30 3035 H 291.152 -2.92407 0.820476 0
M  V30 3036 H 288.737 -1.4193 0.4665 0
M  V30 3037 H 290.619 -3.97635 -1.39514 0
M  V30 3038 H 289.294 -2.80196 -1.62086 0
M  V30 3039 H 288.201 -3.70566 0.512988 0
M  V30 3040 H 289.534 -4.87817 0.655426 0
M  V30 3041 N 291.186 -0.45159 -1.50991 0
M  V30 3042 C 292.096 0.358431 -2.31846 0
M  V30 3043 C 293.112 1.01438 -1.41373 0
M  V30 3044 O 294.288 1.00663 -1.74439 0
M  V30 3045 C 291.353 1.43704 -3.15515 0
M  V30 3046 C 290.414 0.799742 -4.21785 0
M  V30 3047 C 289.647 1.82696 -5.01456 0
M  V30 3048 O 289.87 3.05105 -4.81941 0
M  V30 3049 O 288.804 1.40958 -5.85162 0
M  V30 3050 H 292.63 -0.302032 -3.02194 0
M  V30 3051 H 290.215 -0.213825 -1.47862 0
M  V30 3052 H 292.097 2.06227 -3.67489 0
M  V30 3053 H 290.772 2.08133 -2.47916 0
M  V30 3054 H 289.679 0.136084 -3.73852 0
M  V30 3055 H 291.012 0.198718 -4.91799 0
M  V30 3056 N 292.664 1.56529 -0.183458 0
M  V30 3057 C 293.913 1.96419 0.458511 0
M  V30 3058 C 294.226 1.0727 1.63562 0
M  V30 3059 O 295.432 1.36893 2.34462 0
M  V30 3060 C 293.888 3.49298 0.867122 0
M  V30 3061 C 293.496 4.47092 -0.285057 0
M  V30 3062 C 295.24 3.97983 1.47683 0
M  V30 3063 C 293.147 5.91225 0.143862 0
M  V30 3064 H 292.077 0.733394 0.175071 0
M  V30 3065 H 294.728 1.81448 -0.273624 0
M  V30 3066 H 293.11 3.59731 1.65559 0
M  V30 3067 H 294.284 4.48383 -1.0625 0
M  V30 3068 H 292.599 4.08535 -0.805503 0
M  V30 3069 H 295.196 5.03134 1.80999 0
M  V30 3070 H 295.539 3.41618 2.37914 0
M  V30 3071 H 296.072 3.90617 0.752562 0
M  V30 3072 H 292.811 6.5149 -0.723974 0
M  V30 3073 H 292.331 5.93214 0.886413 0
M  V30 3074 H 294.01 6.44362 0.583628 0
M  V30 3075 N 294.142 -0.090211 1.57342 0
M  V30 3076 C 295.105 -1.09335 2.01441 0
M  V30 3077 C 296.105 -1.32666 0.908641 0
M  V30 3078 O 297.295 -1.28697 1.174 0
M  V30 3079 C 294.427 -2.44136 2.3793 0
M  V30 3080 H 295.62 -0.713662 2.91285 0
M  V30 3081 H 293.173 -0.335404 1.52659 0
M  V30 3082 H 293.908 -2.86972 1.51055 0
M  V30 3083 H 293.693 -2.28548 3.18603 0
M  V30 3084 H 295.183 -3.16277 2.72688 0
M  V30 3085 N 295.62 -1.53406 -0.361157 0
M  V30 3086 C 296.866 -1.70054 -1.10496 0
M  V30 3087 C 297.199 -0.453278 -1.88836 0
M  V30 3088 O 296.474 0.5495 -1.86576 0
M  V30 3089 C 296.757 -2.95317 -2.06058 0
M  V30 3090 C 296.61 -4.3021 -1.31298 0
M  V30 3091 C 297.929 -3.16193 -3.06121 0
M  V30 3092 H 295.048 -0.618799 -0.400321 0
M  V30 3093 H 297.69 -1.86052 -0.385318 0
M  V30 3094 H 295.84 -2.81809 -2.67425 0
M  V30 3095 H 297.512 -4.55538 -0.726807 0
M  V30 3096 H 295.755 -4.29421 -0.614853 0
M  V30 3097 H 296.426 -5.14 -2.01265 0
M  V30 3098 H 298.902 -3.28916 -2.5486 0
M  V30 3099 H 297.778 -4.05266 -3.70204 0
M  V30 3100 H 298.039 -2.31676 -3.76535 0
M  V30 3101 N 297.098 0.621204 -1.44841 0
M  V30 3102 C 298.344 1.3826 -1.48365 0
M  V30 3103 C 298.677 1.93831 -0.119624 0
M  V30 3104 O 297.952 1.74251 0.864111 0
M  V30 3105 C 298.235 2.54058 -2.55199 0
M  V30 3106 C 298.088 2.03772 -4.00995 0
M  V30 3107 C 299.407 3.56225 -2.58442 0
M  V30 3108 H 296.526 0.501374 -0.540179 0
M  V30 3109 H 299.168 0.7015 -1.76576 0
M  V30 3110 H 297.318 3.12162 -2.31274 0
M  V30 3111 H 298.99 1.50423 -4.36086 0
M  V30 3112 H 297.233 1.34876 -4.12299 0
M  V30 3113 H 297.904 2.87185 -4.71411 0
M  V30 3114 H 300.38 3.07939 -2.79844 0
M  V30 3115 H 299.256 4.34756 -3.3508 0
M  V30 3116 H 299.517 4.10949 -1.63013 0
M  V30 3117 N 298.576 1.31904 0.862503 0
M  V30 3118 C 299.506 1.22782 1.98612 0
M  V30 3119 C 300.487 0.113362 1.69722 0
M  V30 3120 O 301.672 0.299218 1.91881 0
M  V30 3121 C 298.802 0.942058 3.34279 0
M  V30 3122 C 297.756 2.0169 3.77499 0
M  V30 3123 C 297.082 1.58369 5.10709 0
M  V30 3124 C 298.382 3.43096 3.93805 0
M  V30 3125 H 300.076 2.16788 2.06502 0
M  V30 3126 H 297.622 1.04366 0.992154 0
M  V30 3127 H 299.575 0.864818 4.1243 0
M  V30 3128 H 298.299 -0.0336603 3.26583 0
M  V30 3129 H 296.958 2.08416 3.01593 0
M  V30 3130 H 296.606 0.595628 4.99461 0
M  V30 3131 H 296.306 2.30279 5.40597 0
M  V30 3132 H 297.83 1.52067 5.91361 0
M  V30 3133 H 299.244 3.39003 4.62331 0
M  V30 3134 H 297.641 4.13288 4.35101 0
M  V30 3135 H 298.711 3.83334 2.96957 0
M  V30 3136 N 300.054 -1.07777 1.14986 0
M  V30 3137 C 300.964 -2.18404 0.856546 0
M  V30 3138 C 301.98 -1.73211 -0.165485 0
M  V30 3139 O 303.156 -2.01399 0.00755219 0
M  V30 3140 C 300.221 -3.44977 0.34526 0
M  V30 3141 C 299.282 -4.0476 1.43065 0
M  V30 3142 C 298.515 -5.25291 0.943663 0
M  V30 3143 O 298.738 -5.70004 -0.212426 0
M  V30 3144 O 297.672 -5.76638 1.72547 0
M  V30 3145 H 301.498 -2.45978 1.78125 0
M  V30 3146 H 299.083 -1.17033 0.928631 0
M  V30 3147 H 300.965 -4.21348 0.0663671 0
M  V30 3148 H 299.64 -3.18965 -0.551631 0
M  V30 3149 H 298.547 -3.29949 1.76309 0
M  V30 3150 H 299.88 -4.35035 2.30229 0
M  V30 3151 N 301.532 -0.945985 -1.26051 0
M  V30 3152 C 302.479 -0.45809 -2.26208 0
M  V30 3153 C 303.449 0.484816 -1.58867 0
M  V30 3154 O 304.634 0.399969 -1.86561 0
M  V30 3155 C 301.774 0.266131 -3.44072 0
M  V30 3156 C 300.887 -0.713005 -4.26075 0
M  V30 3157 C 300.022 0.0329013 -5.3119 0
M  V30 3158 C 299.061 -0.93774 -6.04874 0
M  V30 3159 N 298.198 -0.223274 -7.01745 0
M  V30 3160 H 303.038 -1.3171 -2.67313 0
M  V30 3161 H 300.575 -0.66069 -1.31428 0
M  V30 3162 H 302.533 0.702514 -4.11243 0
M  V30 3163 H 301.163 1.08925 -3.03867 0
M  V30 3164 H 300.215 -1.26789 -3.58648 0
M  V30 3165 H 301.527 -1.45406 -4.77136 0
M  V30 3166 H 300.681 0.528335 -6.04395 0
M  V30 3167 H 299.42 0.806801 -4.8098 0
M  V30 3168 H 298.425 -1.44425 -5.30492 0
M  V30 3169 H 299.65 -1.71172 -6.57173 0
M  V30 3170 H 297.596 0.532046 -6.53839 0
M  V30 3171 H 297.513 -0.90357 -7.50581 0
M  V30 3172 H 298.781 0.250907 -7.79096 0
M  V30 3173 N 303.011 1.40521 -0.713556 0
M  V30 3174 C 304.258 2.00923 -0.25219 0
M  V30 3175 C 304.586 1.56571 1.15395 0
M  V30 3176 O 303.841 0.775874 1.79663 0
M  V30 3177 C 304.14 3.56317 -0.278 0
M  V30 3178 C 303.806 4.20246 -1.63415 0
M  V30 3179 C 302.468 4.37422 -2.00538 0
M  V30 3180 C 304.82 4.55923 -2.52554 0
M  V30 3181 C 302.148 4.87558 -3.2635 0
M  V30 3182 C 304.5 5.07458 -3.77716 0
M  V30 3183 C 303.164 5.22843 -4.14959 0
M  V30 3184 H 302.434 0.735231 -0.0922829 0
M  V30 3185 H 305.081 1.68161 -0.916188 0
M  V30 3186 H 303.386 3.88976 0.469567 0
M  V30 3187 H 305.083 4.00883 0.0967819 0
M  V30 3188 H 301.673 4.07263 -1.33546 0
M  V30 3189 H 305.857 4.42291 -2.25149 0
M  V30 3190 H 301.113 4.97654 -3.55176 0
M  V30 3191 H 305.287 5.34041 -4.4696 0
M  V30 3192 H 302.914 5.61454 -5.12516 0
M  V30 3193 N 304.489 0.459591 1.5075 0
M  V30 3194 C 305.436 -0.340524 2.28274 0
M  V30 3195 C 306.406 -0.997371 1.32822 0
M  V30 3196 O 307.591 -1.01202 1.61749 0
M  V30 3197 C 304.731 -1.42317 3.14388 0
M  V30 3198 C 303.844 -0.782251 4.24859 0
M  V30 3199 C 302.979 -1.84182 4.98247 0
M  V30 3200 C 302.018 -1.18053 6.00608 0
M  V30 3201 N 301.155 -2.18244 6.67319 0
M  V30 3202 H 305.995 0.326899 2.96202 0
M  V30 3203 H 303.532 0.173057 1.46078 0
M  V30 3204 H 305.49 -2.06241 3.62658 0
M  V30 3205 H 304.12 -2.05992 2.4853 0
M  V30 3206 H 303.172 -0.0307404 3.80388 0
M  V30 3207 H 304.484 -0.259663 4.98124 0
M  V30 3208 H 303.638 -2.55714 5.50177 0
M  V30 3209 H 302.377 -2.39819 4.24662 0
M  V30 3210 H 301.382 -0.450776 5.47949 0
M  V30 3211 H 302.607 -0.631202 6.7616 0
M  V30 3212 H 300.553 -2.72919 5.96533 0
M  V30 3213 H 300.47 -1.70938 7.36421 0
M  V30 3214 H 301.738 -2.89191 7.23871 0
M  V30 3215 N 305.967 -1.56429 0.191757 0
M  V30 3216 C 307.195 -2.01867 -0.453586 0
M  V30 3217 C 307.61 -1.07191 -1.5542 0
M  V30 3218 O 306.967 -0.0762108 -1.82341 0
M  V30 3219 C 307.018 -3.47017 -1.013 0
M  V30 3220 O 306.739 -4.38078 0.0437005 0
M  V30 3221 C 308.24 -4.07956 -1.73456 0
M  V30 3222 H 305.46 -0.661211 -0.114199 0
M  V30 3223 H 308.004 -2.02295 0.299483 0
M  V30 3224 H 306.159 -3.47298 -1.71647 0
M  V30 3225 H 306.573 -5.23178 -0.372212 0
M  V30 3226 H 308.047 -5.1138 -2.07833 0
M  V30 3227 H 308.524 -3.51222 -2.63704 0
M  V30 3228 H 309.13 -4.11437 -1.07702 0
M  V30 3229 N 307.445 0.0818655 -1.57387 0
M  V30 3230 C 308.675 0.794954 -1.90694 0
M  V30 3231 C 309.083 1.72147 -0.784982 0
M  V30 3232 O 308.426 1.81974 0.251196 0
M  V30 3233 C 308.488 1.65042 -3.19376 0
M  V30 3234 C 308.152 0.894337 -4.48164 0
M  V30 3235 C 309.149 0.21813 -5.19442 0
M  V30 3236 C 306.834 0.864495 -4.94805 0
M  V30 3237 C 308.828 -0.477802 -6.35607 0
M  V30 3238 C 306.515 0.164785 -6.10878 0
M  V30 3239 C 307.513 -0.505173 -6.81129 0
M  V30 3240 O 307.201 -1.19363 -7.94989 0
M  V30 3241 H 306.933 0.231779 -0.635023 0
M  V30 3242 H 309.487 0.059493 -2.05314 0
M  V30 3243 H 307.717 2.42844 -3.00938 0
M  V30 3244 H 309.406 2.24127 -3.38411 0
M  V30 3245 H 310.172 0.232558 -4.84442 0
M  V30 3246 H 306.051 1.37542 -4.40004 0
M  V30 3247 H 309.595 -1.00129 -6.90377 0
M  V30 3248 H 305.492 0.148249 -6.4533 0
M  V30 3249 H 306.26 -1.10188 -8.11049 0
M  V30 3250 N 308.923 1.53595 0.353017 0
M  V30 3251 C 310.171 1.70049 1.09215 0
M  V30 3252 C 310.492 0.461406 1.89463 0
M  V30 3253 O 309.762 -0.524633 1.88744 0
M  V30 3254 H 308.342 0.626912 0.40619 0
M  V30 3255 H 311.004 1.90822 0.396585 0
M  V30 3256 H 310.1 2.56718 1.77488 0
M  V30 3257 N 310.401 -0.613514 1.45168 0
M  V30 3258 C 311.331 -1.7354 1.56225 0
M  V30 3259 C 312.312 -1.64981 0.41414 0
M  V30 3260 O 313.497 -1.83472 0.636526 0
M  V30 3261 C 310.627 -3.12128 1.52295 0
M  V30 3262 C 309.581 -3.35491 2.65762 0
M  V30 3263 C 308.907 -4.74291 2.46885 0
M  V30 3264 C 310.207 -3.26325 4.0781 0
M  V30 3265 H 311.901 -1.64543 2.50132 0
M  V30 3266 H 309.447 -0.790185 1.20383 0
M  V30 3267 H 311.4 -3.90404 1.58628 0
M  V30 3268 H 310.124 -3.2195 0.549139 0
M  V30 3269 H 308.783 -2.59603 2.58847 0
M  V30 3270 H 308.431 -4.80839 1.47657 0
M  V30 3271 H 308.131 -4.9088 3.22972 0
M  V30 3272 H 309.655 -5.54775 2.55063 0
M  V30 3273 H 311.069 -3.94483 4.16 0
M  V30 3274 H 309.466 -3.54445 4.8424 0
M  V30 3275 H 310.536 -2.23855 4.30136 0
M  V30 3276 N 311.879 -1.3236 -0.855495 0
M  V30 3277 C 313.295 -1.11332 -1.14356 0
M  V30 3278 C 313.495 0.106751 -2.01217 0
M  V30 3279 O 312.551 0.791891 -2.39761 0
M  V30 3280 C 313.864 -2.39237 -1.82171 0
M  V30 3281 C 315.412 -2.44986 -1.9481 0
M  V30 3282 C 315.887 -3.7281 -2.66039 0
M  V30 3283 N 317.378 -3.73787 -2.73565 0
M  V30 3284 C 318.113 -4.69394 -3.29327 0
M  V30 3285 N 317.609 -5.75367 -3.85907 0
M  V30 3286 N 319.402 -4.56893 -3.27423 0
M  V30 3287 H 311.553 -2.10586 -0.277027 0
M  V30 3288 H 313.816 -0.929701 -0.185364 0
M  V30 3289 H 313.522 -3.28431 -1.25802 0
M  V30 3290 H 313.396 -2.50134 -2.82335 0
M  V30 3291 H 315.783 -1.56252 -2.50338 0
M  V30 3292 H 315.864 -2.38043 -0.936448 0
M  V30 3293 H 315.508 -4.61918 -2.11174 0
M  V30 3294 H 315.438 -3.77024 -3.67642 0
M  V30 3295 H 317.929 -2.97189 -2.33424 0
M  V30 3296 H 318.242 -6.44378 -4.26611 0
M  V30 3297 H 316.587 -5.79123 -3.84242 0
M  V30 3298 H 319.778 -3.73269 -2.82467 0
M  V30 3299 H 319.951 -5.31577 -3.7058 0
M  V30 3300 N 313.357 1.07166 -1.15556 0
M  V30 3301 C 314.606 1.79181 -0.926132 0
M  V30 3302 C 314.919 1.87768 0.547967 0
M  V30 3303 O 316.125 2.56323 0.895036 0
M  V30 3304 C 314.581 3.22 -1.60761 0
M  V30 3305 C 314.189 3.21607 -3.11886 0
M  V30 3306 C 315.933 3.9861 -1.4598 0
M  V30 3307 C 313.84 4.59092 -3.72812 0
M  V30 3308 H 312.77 0.67154 -0.342856 0
M  V30 3309 H 315.421 1.2027 -1.3859 0
M  V30 3310 H 313.803 3.81115 -1.07553 0
M  V30 3311 H 314.977 2.72127 -3.71865 0
M  V30 3312 H 313.292 2.58495 -3.2645 0
M  V30 3313 H 315.889 5.00225 -1.88888 0
M  V30 3314 H 316.232 4.143 -0.407541 0
M  V30 3315 H 316.765 3.45996 -1.96295 0
M  V30 3316 H 313.504 4.48606 -4.77946 0
M  V30 3317 H 313.024 5.08803 -3.17616 0
M  V30 3318 H 314.703 5.28059 -3.73848 0
M  V30 3319 N 314.835 0.952656 1.25548 0
M  V30 3320 C 315.745 0.47782 2.29682 0
M  V30 3321 C 316.761 -0.453859 1.67977 0
M  V30 3322 O 317.937 -0.330587 1.98668 0
M  V30 3323 C 315.002 -0.238655 3.45878 0
M  V30 3324 C 314.063 0.730994 4.23031 0
M  V30 3325 C 313.296 0.0486165 5.33678 0
M  V30 3326 O 313.519 -1.16612 5.58353 0
M  V30 3327 O 312.453 0.733152 5.97418 0
M  V30 3328 H 316.279 1.34312 2.72386 0
M  V30 3329 H 313.864 0.719026 1.30959 0
M  V30 3330 H 315.746 -0.641774 4.16484 0
M  V30 3331 H 314.421 -1.07916 3.05181 0
M  V30 3332 H 313.328 1.18428 3.5486 0
M  V30 3333 H 314.661 1.53946 4.67506 0
M  V30 3334 N 316.313 -1.40141 0.720998 0
M  V30 3335 C 317.223 -2.34486 0.0731031 0
M  V30 3336 C 318.239 -1.57587 -0.737723 0
M  V30 3337 O 319.415 -1.89949 -0.669429 0
M  V30 3338 C 316.48 -3.36528 -0.833656 0
M  V30 3339 C 315.541 -4.29298 -0.0121673 0
M  V30 3340 C 314.774 -5.26466 -0.875742 0
M  V30 3341 O 314.997 -5.29745 -2.11485 0
M  V30 3342 O 313.931 -6.01092 -0.31185 0
M  V30 3343 H 317.757 -2.9152 0.851444 0
M  V30 3344 H 315.342 -1.41427 0.481527 0
M  V30 3345 H 317.224 -3.99093 -1.35289 0
M  V30 3346 H 315.899 -2.81899 -1.59105 0
M  V30 3347 H 314.806 -3.70001 0.552262 0
M  V30 3348 H 316.139 -4.87094 0.707129 0
M  V30 3349 O 317.83 -0.609464 -1.49559 0
M  V30 3350 H 318.521 -0.121877 -1.93316 0
M  V30 END ATOM
M  V30 BEGIN BOND
M  V30 END BOND
M  V30 END CTAB
M  END
$$$$
