drugbank_target|P0ABE7 Soluble cytochrome b562 (DB02182; DB08440)
 OpenBabel12092120033D

  0  0  0     0  0            999 V3000
M  V30 BEGIN CTAB
M  V30 COUNTS 1988 1999 0 0 0
M  V30 BEGIN ATOM
M  V30 1 H -0.908 1.98254 -0.117106 0
M  V30 2 N 0 1.576 0 0
M  V30 3 C 0.933 2.03868 1.02534 0
M  V30 4 C 1.911 0.928543 1.3348 0
M  V30 5 O 3.095 1.19667 1.45644 0
M  V30 6 C 0.222 2.43627 2.35294 0
M  V30 7 C -0.732 3.65373 2.2001 0
M  V30 8 S 0.101 5.13292 1.52614 0
M  V30 9 C 1.257 5.56322 2.86805 0
M  V30 10 H 1.49 2.90518 0.631377 0
M  V30 11 H -0.977 1.52953 0.210867 0
M  V30 12 H 0.981 2.67203 3.11629 0
M  V30 13 H -0.358 1.57376 2.7183 0
M  V30 14 H -1.165 3.90944 3.18086 0
M  V30 15 H -1.563 3.418 1.51819 0
M  V30 16 H 0.729 5.58782 3.83104 0
M  V30 17 H 1.672 6.56266 2.65933 0
M  V30 18 H 2.08 4.83886 2.90714 0
M  V30 19 N 1.4781 -0.272755 1.55222 0
M  V30 20 C 2.8941 -0.619959 1.47067 0
M  V30 21 C 3.0941 -1.895 0.684978 0
M  V30 22 O 2.1501 -2.51675 0.203931 0
M  V30 23 C 3.4631 -0.746693 2.91282 0
M  V30 24 C 5.0111 -0.840731 3.01497 0
M  V30 25 C 5.4861 -0.99924 4.46967 0
M  V30 26 N 6.9771 -1.06476 4.50796 0
M  V30 27 C 7.7121 -1.20621 5.6057 0
M  V30 28 N 7.2081 -1.31483 6.80209 0
M  V30 29 N 9.0011 -1.23733 5.48312 0
M  V30 30 H 1.1521 0.564606 2.04758 0
M  V30 31 H 3.4151 0.191177 0.928523 0
M  V30 32 H 3.1211 0.119753 3.51496 0
M  V30 33 H 2.9951 -1.6269 3.40311 0
M  V30 34 H 5.3821 -1.69764 2.41379 0
M  V30 35 H 5.4631 0.0640874 2.5572 0
M  V30 36 H 5.1071 -0.146984 5.07687 0
M  V30 37 H 5.0371 -1.91871 4.90401 0
M  V30 38 H 7.5281 -0.993196 3.64615 0
M  V30 39 H 7.8411 -1.42111 7.59621 0
M  V30 40 H 6.1861 -1.28487 6.8302 0
M  V30 41 H 9.3771 -1.14877 4.53785 0
M  V30 42 H 9.5501 -1.34412 6.33906 0
M  V30 43 N 2.9562 -1.48159 -0.537278 0
M  V30 44 C 3.9032 -1.62138 -1.64256 0
M  V30 45 C 4.8732 -0.463668 -1.59497 0
M  V30 46 O 6.0582 -0.686241 -1.78032 0
M  V30 47 C 3.1982 -1.66028 -3.02537 0
M  V30 48 C 2.3112 -2.92855 -3.17585 0
M  V30 49 C 1.4462 -2.87952 -4.46382 0
M  V30 50 C 0.4852 -4.09516 -4.54932 0
M  V30 51 N -0.3778 -4.02733 -5.75109 0
M  V30 52 H 4.4622 -2.56529 -1.51647 0
M  V30 53 H 1.9992 -1.27224 -0.738414 0
M  V30 54 H 3.9572 -1.66265 -3.82638 0
M  V30 55 H 2.5872 -0.751331 -3.13934 0
M  V30 56 H 1.6392 -3.02395 -2.30784 0
M  V30 57 H 2.9512 -3.82822 -3.19764 0
M  V30 58 H 2.1052 -2.8655 -5.34765 0
M  V30 59 H 0.8442 -1.95702 -4.46712 0
M  V30 60 H -0.1508 -4.11201 -3.64957 0
M  V30 61 H 1.0742 -5.02917 -4.56346 0
M  V30 62 H -0.9798 -3.13299 -5.76351 0
M  V30 63 H -1.0628 -4.86397 -5.78752 0
M  V30 64 H 0.2052 -4.05379 -6.65799 0
M  V30 65 N 4.4343 0.785586 -1.36625 0
M  V30 66 C 5.6593 1.57963 -1.34397 0
M  V30 67 C 6.0843 1.87964 0.071526 0
M  V30 68 O 5.4423 1.48182 1.0446 0
M  V30 69 C 5.4903 2.87511 -2.17646 0
M  V30 70 O 4.5943 3.81281 -1.57158 0
M  V30 71 H 3.9353 0.479014 -0.459828 0
M  V30 72 H 6.4653 0.973411 -1.79961 0
M  V30 73 H 6.4753 3.36745 -2.30362 0
M  V30 74 H 5.1503 2.65002 -3.20541 0
M  V30 75 H 3.7273 3.39885 -1.53403 0
M  V30 76 N 5.9124 1.20967 1.01018 0
M  V30 77 C 6.8424 0.988272 2.11555 0
M  V30 78 C 7.8234 -0.0849778 1.69888 0
M  V30 79 O 9.0084 0.0738202 1.9406 0
M  V30 80 C 6.1384 0.546528 3.42973 0
M  V30 81 C 5.0924 1.56375 3.9841 0
M  V30 82 C 4.4184 0.97842 5.25672 0
M  V30 83 C 5.7184 2.94922 4.31066 0
M  V30 84 H 7.4124 1.91276 2.30334 0
M  V30 85 H 4.9584 0.921073 1.1069 0
M  V30 86 H 6.9114 0.378839 4.19694 0
M  V30 87 H 5.6354 -0.413598 3.23971 0
M  V30 88 H 4.2944 1.71891 3.23804 0
M  V30 89 H 3.9424 0.0101688 5.02999 0
M  V30 90 H 3.6424 1.65784 5.63728 0
M  V30 91 H 5.1664 0.821939 6.05043 0
M  V30 92 H 6.5804 2.8288 4.9865 0
M  V30 93 H 4.9774 3.5983 4.80253 0
M  V30 94 H 6.0474 3.4616 3.39561 0
M  V30 95 N 7.3905 -1.2043 1.01659 0
M  V30 96 C 8.3205 -2.25466 0.607226 0
M  V30 97 C 9.3015 -1.65853 -0.377716 0
M  V30 98 O 10.4865 -1.92409 -0.263149 0
M  V30 99 C 7.6165 -3.47256 -0.0552949 0
M  V30 100 C 6.5705 -4.19462 0.850632 0
M  V30 101 C 5.8965 -5.34673 0.0538859 0
M  V30 102 C 7.1965 -4.75603 2.15868 0
M  V30 103 H 8.8905 -2.59962 1.48526 0
M  V30 104 H 6.4365 -1.2496 0.715605 0
M  V30 105 H 8.3895 -4.19917 -0.353233 0
M  V30 106 H 7.1135 -3.11924 -0.968045 0
M  V30 107 H 5.7725 -3.48667 1.13257 0
M  V30 108 H 5.4205 -4.95585 -0.860514 0
M  V30 109 H 5.1205 -5.83913 0.657192 0
M  V30 110 H 6.6445 -6.10138 -0.237598 0
M  V30 111 H 8.0585 -5.40083 1.92311 0
M  V30 112 H 6.4555 -5.3528 2.71284 0
M  V30 113 H 7.5255 -3.94346 2.82169 0
M  V30 114 N 8.8686 -0.792821 -1.36206 0
M  V30 115 C 9.8316 -0.199459 -2.2833 0
M  V30 116 C 10.8316 0.605189 -1.48977 0
M  V30 117 O 12.0216 0.425685 -1.68919 0
M  V30 118 C 9.1536 0.723523 -3.33134 0
M  V30 119 H 10.3466 -1.01181 -2.82316 0
M  V30 120 H 7.8996 -0.562485 -1.45828 0
M  V30 121 H 8.6346 1.56008 -2.84309 0
M  V30 122 H 8.4196 0.148436 -3.91819 0
M  V30 123 H 9.9096 1.13344 -4.01924 0
M  V30 124 N 10.3467 1.47872 -0.545128 0
M  V30 125 C 11.5957 2.01695 -0.0145033 0
M  V30 126 C 11.9087 1.42609 1.33873 0
M  V30 127 O 13.1147 1.88021 1.95858 0
M  V30 128 C 11.5707 3.59892 0.0245068 0
M  V30 129 C 11.1787 4.27966 -1.32475 0
M  V30 130 C 12.9227 4.21507 0.50316 0
M  V30 131 C 10.8297 5.78136 -1.2455 0
M  V30 132 H 9.7597 0.753998 -0.00165172 0
M  V30 133 H 12.4107 1.69985 -0.691175 0
M  V30 134 H 10.7927 3.88509 0.766575 0
M  V30 135 H 11.9667 4.11003 -2.08357 0
M  V30 136 H 10.2817 3.78286 -1.74036 0
M  V30 137 H 12.8787 5.31538 0.580656 0
M  V30 138 H 13.2217 3.87855 1.51243 0
M  V30 139 H 13.7547 3.97376 -0.183681 0
M  V30 140 H 10.4937 6.16388 -2.23039 0
M  V30 141 H 10.0137 5.97469 -0.528282 0
M  V30 142 H 11.6927 6.40099 -0.942488 0
M  V30 143 N 11.8248 0.280983 1.55075 0
M  V30 144 C 12.7548 -0.597469 2.25727 0
M  V30 145 C 13.7358 -1.15417 1.24952 0
M  V30 146 O 14.9208 -1.18722 1.53684 0
M  V30 147 C 12.0508 -1.7789 2.98283 0
M  V30 148 C 11.0048 -1.35347 4.06036 0
M  V30 149 C 10.3308 -2.61846 4.66198 0
M  V30 150 C 11.6308 -0.499354 5.19907 0
M  V30 151 H 13.3248 -0.00824265 2.99399 0
M  V30 152 H 10.8708 -0.0025244 1.44 0
M  V30 153 H 12.8238 -2.39937 3.46422 0
M  V30 154 H 11.5478 -2.39405 2.22155 0
M  V30 155 H 10.2068 -0.756156 3.58717 0
M  V30 156 H 9.8548 -3.21632 3.86732 0
M  V30 157 H 9.5548 -2.3409 5.38958 0
M  V30 158 H 11.0788 -3.24732 5.1709 0
M  V30 159 H 12.4928 -1.02498 5.64063 0
M  V30 160 H 10.8898 -0.316424 5.99265 0
M  V30 161 H 11.9598 0.480459 4.82514 0
M  V30 162 N 13.3029 -1.57598 0.00835791 0
M  V30 163 C 14.2659 -2.07884 -0.965242 0
M  V30 164 C 15.2659 -0.989825 -1.26725 0
M  V30 165 O 16.4559 -1.25218 -1.21104 0
M  V30 166 C 13.5879 -2.52731 -2.28779 0
M  V30 167 H 14.7809 -2.95178 -0.530112 0
M  V30 168 H 12.3339 -1.54458 -0.239283 0
M  V30 169 H 13.0689 -1.68705 -2.76964 0
M  V30 170 H 12.8539 -3.32272 -2.08177 0
M  V30 171 H 14.3439 -2.91933 -2.98605 0
M  V30 172 N 14.781 0.264519 -1.55364 0
M  V30 173 C 16.027 0.99646 -1.76631 0
M  V30 174 C 16.36 1.85632 -0.570478 0
M  V30 175 O 15.635 1.89647 0.43175 0
M  V30 176 C 15.918 1.87187 -3.07625 0
M  V30 177 C 15.771 1.04138 -4.37579 0
M  V30 178 C 17.09 2.85749 -3.34717 0
M  V30 179 H 14.209 0.360841 -0.642622 0
M  V30 180 H 16.851 0.268218 -1.88097 0
M  V30 181 H 15.001 2.49279 -2.9798 0
M  V30 182 H 16.673 0.440517 -4.59192 0
M  V30 183 H 14.916 0.345115 -4.32425 0
M  V30 184 H 15.587 1.68729 -5.2558 0
M  V30 185 H 18.063 2.33793 -3.4421 0
M  V30 186 H 16.939 3.44136 -4.27623 0
M  V30 187 H 17.2 3.61311 -2.54768 0
M  V30 188 N 16.2591 1.48442 0.529413 0
M  V30 189 C 17.4841 1.60406 1.31471 0
M  V30 190 C 17.9091 0.264738 1.86228 0
M  V30 191 O 17.2671 -0.763668 1.64432 0
M  V30 192 C 17.3151 2.65419 2.44101 0
M  V30 193 O 16.4191 2.22618 3.47153 0
M  V30 194 H 15.7601 0.537863 0.389357 0
M  V30 195 H 18.2901 1.94432 0.636965 0
M  V30 196 H 18.3001 2.86709 2.90279 0
M  V30 197 H 16.9751 3.62652 2.03608 0
M  V30 198 H 15.5521 2.11543 3.0709 0
M  V30 199 N 17.7372 -0.778329 1.37039 0
M  V30 200 C 18.9622 -1.57248 1.35233 0
M  V30 201 C 19.3872 -1.87999 -0.0615568 0
M  V30 202 O 18.7452 -1.48734 -1.03672 0
M  V30 203 C 18.7932 -2.86353 2.19167 0
M  V30 204 O 17.8972 -3.80442 1.59178 0
M  V30 205 H 17.2382 -0.476569 0.462362 0
M  V30 206 H 19.7682 -0.963853 1.80474 0
M  V30 207 H 19.7782 -3.35519 2.32145 0
M  V30 208 H 18.4532 -2.63299 3.21942 0
M  V30 209 H 17.0302 -3.39067 1.55203 0
M  V30 210 N 19.2153 -1.21501 -1.00376 0
M  V30 211 C 20.1453 -0.999478 -2.11028 0
M  V30 212 C 21.1263 0.0759671 -1.6993 0
M  V30 213 O 22.3113 -0.0841106 -1.94018 0
M  V30 214 C 19.4413 -0.564709 -3.42678 0
M  V30 215 C 18.3953 -1.58486 -3.97576 0
M  V30 216 C 17.7213 -1.00628 -5.25146 0
M  V30 217 C 19.0213 -2.97204 -4.29496 0
M  V30 218 H 20.7153 -1.92495 -2.29317 0
M  V30 219 H 18.2613 -0.92693 -1.102 0
M  V30 220 H 20.2143 -0.401091 -4.19487 0
M  V30 221 H 18.9383 0.396411 -3.24185 0
M  V30 222 H 17.5973 -1.73606 -3.22888 0
M  V30 223 H 17.2453 -0.0368439 -5.02987 0
M  V30 224 H 16.9453 -1.68771 -5.62841 0
M  V30 225 H 18.4693 -0.854015 -6.04598 0
M  V30 226 H 19.8833 -2.8552 -4.97143 0
M  V30 227 H 18.2803 -3.62372 -4.78338 0
M  V30 228 H 19.3503 -3.47956 -3.3772 0
M  V30 229 N 20.6934 1.19889 -1.02296 0
M  V30 230 C 21.9394 1.89701 -0.717033 0
M  V30 231 C 22.2724 1.7905 0.751989 0
M  V30 232 O 21.5474 1.17891 1.547 0
M  V30 233 C 21.8304 3.40858 -1.16136 0
M  V30 234 C 21.6834 3.60411 -2.69117 0
M  V30 235 C 23.0024 4.33876 -0.737549 0
M  V30 236 H 20.1214 0.688874 -0.261957 0
M  V30 237 H 22.7634 1.41154 -1.27183 0
M  V30 238 H 20.9134 3.82335 -0.689342 0
M  V30 239 H 22.5854 3.28145 -3.2422 0
M  V30 240 H 20.8284 3.03665 -3.0979 0
M  V30 241 H 21.4994 4.66396 -2.95261 0
M  V30 242 H 23.9754 4.00081 -1.14344 0
M  V30 243 H 22.8514 5.38242 -1.0764 0
M  V30 244 H 23.1124 4.40628 0.360436 0
M  V30 245 N 22.1715 0.800033 1.35784 0
M  V30 246 C 23.4185 0.377342 1.98953 0
M  V30 247 C 23.7465 -1.05378 1.6348 0
M  V30 248 O 23.0015 -1.74459 0.886707 0
M  V30 249 C 23.3005 0.500276 3.53881 0
M  V30 250 C 22.9665 1.89375 4.09204 0
M  V30 251 C 21.6285 2.27499 4.24025 0
M  V30 252 C 23.9805 2.8057 4.39238 0
M  V30 253 C 21.3085 3.562 4.66195 0
M  V30 254 C 23.6605 4.0871 4.82844 0
M  V30 255 C 22.3245 4.46843 4.95871 0
M  V30 256 H 21.5945 0.138079 0.728021 0
M  V30 257 H 24.2415 1.01955 1.62103 0
M  V30 258 H 22.5465 -0.225405 3.91151 0
M  V30 259 H 24.2435 0.154097 4.00704 0
M  V30 260 H 20.8335 1.58753 3.98115 0
M  V30 261 H 25.0175 2.52367 4.27346 0
M  V30 262 H 20.2735 3.85602 4.74469 0
M  V30 263 H 24.4475 4.79481 5.05046 0
M  V30 264 H 22.0745 5.46623 5.28306 0
M  V30 265 N 23.6496 -1.47581 0.552962 0
M  V30 266 C 24.8746 -2.07378 0.0300593 0
M  V30 267 C 25.2996 -1.40355 -1.25229 0
M  V30 268 O 24.6576 -0.477099 -1.7491 0
M  V30 269 C 24.7056 -3.60274 -0.153231 0
M  V30 270 O 23.8096 -3.94041 -1.21678 0
M  V30 271 H 23.1506 -0.662158 0.0494182 0
M  V30 272 H 25.6806 -1.89662 0.767434 0
M  V30 273 H 25.6906 -4.0633 -0.368761 0
M  V30 274 H 24.3656 -4.08455 0.783397 0
M  V30 275 H 22.9426 -3.59735 -0.982079 0
M  V30 276 N 25.1277 -0.289203 -1.54924 0
M  V30 277 C 26.3527 0.329299 -2.04769 0
M  V30 278 C 26.7777 1.4763 -1.16564 0
M  V30 279 O 26.1357 1.80527 -0.167186 0
M  V30 280 C 26.1837 0.774438 -3.52186 0
M  V30 281 O 25.2877 1.88038 -3.67036 0
M  V30 282 H 24.6287 0.0659259 -0.660719 0
M  V30 283 H 27.1587 -0.42761 -2.00082 0
M  V30 284 H 27.1687 1.06642 -3.93816 0
M  V30 285 H 25.8437 -0.0646707 -4.1585 0
M  V30 286 H 24.4207 1.58985 -3.3731 0
M  V30 287 N 26.6058 1.57591 -0.0167156 0
M  V30 288 C 27.5688 2.08393 0.954204 0
M  V30 289 C 28.5688 0.996531 1.26198 0
M  V30 290 O 29.7588 1.25858 1.20438 0
M  V30 291 C 26.8908 2.5394 2.27436 0
M  V30 292 H 28.0838 2.95455 0.514451 0
M  V30 293 H 25.6368 1.54582 0.231089 0
M  V30 294 H 26.3718 1.70171 2.76066 0
M  V30 295 H 26.1568 3.33371 2.06412 0
M  V30 296 H 27.6468 2.93512 2.97053 0
M  V30 297 N 28.0839 -0.256276 1.55502 0
M  V30 298 C 29.3089 -1.00766 1.81276 0
M  V30 299 C 29.7339 -1.78524 0.59252 0
M  V30 300 O 29.0919 -1.75413 -0.45827 0
M  V30 301 C 29.1399 -1.92869 3.04687 0
M  V30 302 O 28.2439 -3.019 2.80945 0
M  V30 303 H 27.5849 -0.287224 0.598664 0
M  V30 304 H 30.1149 -0.280109 2.02674 0
M  V30 305 H 30.1249 -2.34511 3.33869 0
M  V30 306 H 28.7999 -1.35689 3.93143 0
M  V30 307 H 27.3769 -2.64454 2.62904 0
M  V30 308 N 29.562 -1.4872 -0.521534 0
M  V30 309 C 30.809 -1.57168 -1.27689 0
M  V30 310 C 31.137 -0.249275 -1.92896 0
M  V30 311 O 30.392 0.761162 -1.80291 0
M  V30 312 C 30.691 -2.66497 -2.38148 0
M  V30 313 C 30.357 -4.08664 -1.90538 0
M  V30 314 C 29.019 -4.47357 -1.77271 0
M  V30 315 C 31.371 -4.97724 -1.54663 0
M  V30 316 C 28.699 -5.72905 -1.26478 0
M  V30 317 C 31.051 -6.2377 -1.05329 0
M  V30 318 C 29.715 -6.61311 -0.906861 0
M  V30 319 H 28.985 -0.575117 -0.467249 0
M  V30 320 H 31.632 -1.82472 -0.581051 0
M  V30 321 H 29.937 -2.35085 -3.13437 0
M  V30 322 H 31.634 -2.70246 -2.96257 0
M  V30 323 H 28.224 -3.78111 -2.01816 0
M  V30 324 H 32.408 -4.68501 -1.63768 0
M  V30 325 H 27.664 -6.00709 -1.13835 0
M  V30 326 H 31.838 -6.9217 -0.76644 0
M  V30 327 H 29.465 -7.5848 -0.511083 0
M  V30 328 N 31.0401 0.771051 -1.3745 0
M  V30 329 C 32.0031 1.86598 -1.33093 0
M  V30 330 C 33.0031 1.59076 -0.234845 0
M  V30 331 O 34.1931 1.67145 -0.490732 0
M  V30 332 C 31.3251 3.23747 -1.06773 0
M  V30 333 H 32.5181 1.91873 -2.30488 0
M  V30 334 H 30.0711 0.970876 -1.2249 0
M  V30 335 H 30.8061 3.24148 -0.099129 0
M  V30 336 H 30.5911 3.45115 -1.86112 0
M  V30 337 H 32.0811 4.03824 -1.06377 0
M  V30 338 N 32.5182 1.22032 0.997298 0
M  V30 339 C 33.4812 0.987909 2.06816 0
M  V30 340 C 34.4812 -0.0440084 1.6074 0
M  V30 341 O 35.6712 0.194053 1.73116 0
M  V30 342 C 32.8032 0.49132 3.37341 0
M  V30 343 H 33.9962 1.93803 2.28868 0
M  V30 344 H 31.5492 1.03838 1.16822 0
M  V30 345 H 32.2842 -0.463364 3.20973 0
M  V30 346 H 32.0692 1.23575 3.72118 0
M  V30 347 H 33.5592 0.348824 4.16141 0
M  V30 348 N 33.9963 -1.19345 1.0293 0
M  V30 349 C 35.2733 -1.84811 0.640642 0
M  V30 350 C 35.6533 -1.91855 -0.88062 0
M  V30 351 O 35.0013 -1.43587 -1.7775 0
M  V30 352 C 35.2113 -3.23755 1.30321 0
M  V30 353 C 36.5593 -3.99912 1.42673 0
M  V30 354 O 37.5833 -3.33155 1.26041 0
M  V30 355 O 36.4423 -5.19494 1.6967 0
M  V30 356 H 33.5363 -0.796443 0.222726 0
M  V30 357 H 36.0823 -1.26831 1.12748 0
M  V30 358 H 34.8543 -3.13466 2.34211 0
M  V30 359 H 34.4773 -3.89381 0.804261 0
M  V30 360 N 35.4744 -0.807222 -1.35358 0
M  V30 361 C 36.4044 -0.232509 -2.3234 0
M  V30 362 C 37.3854 0.642386 -1.57504 0
M  V30 363 O 38.5704 0.572526 -1.85569 0
M  V30 364 C 35.7004 0.619238 -3.41735 0
M  V30 365 C 34.6544 -0.157215 -4.27711 0
M  V30 366 C 33.9804 0.816273 -5.28433 0
M  V30 367 C 35.2804 -1.35656 -5.04376 0
M  V30 368 H 36.9744 -1.04276 -2.80654 0
M  V30 369 H 34.5204 -0.50288 -1.34934 0
M  V30 370 H 36.4734 1.03137 -4.08584 0
M  V30 371 H 35.1974 1.46239 -2.92031 0
M  V30 372 H 33.8564 -0.550525 -3.62443 0
M  V30 373 H 33.5044 1.65494 -4.74996 0
M  V30 374 H 33.2044 0.301067 -5.86828 0
M  V30 375 H 34.7284 1.22659 -5.98153 0
M  V30 376 H 36.1424 -1.01927 -5.64166 0
M  V30 377 H 34.5394 -1.8063 -5.7227 0
M  V30 378 H 35.6094 -2.14288 -4.34981 0
M  V30 379 N 36.9525 1.47285 -0.560781 0
M  V30 380 C 37.8625 2.33846 0.187954 0
M  V30 381 C 38.8785 1.48412 0.908293 0
M  V30 382 O 40.0545 1.81332 0.876388 0
M  V30 383 C 37.1195 3.25178 1.2025 0
M  V30 384 C 36.1805 4.26504 0.489208 0
M  V30 385 C 35.4135 5.13472 1.45542 0
M  V30 386 O 35.6365 5.02959 2.6905 0
M  V30 387 O 34.5705 5.93902 0.977963 0
M  V30 388 H 38.3965 2.99177 -0.522177 0
M  V30 389 H 35.9815 1.45903 -0.321364 0
M  V30 390 H 37.8635 3.81584 1.78805 0
M  V30 391 H 36.5385 2.6247 1.89449 0
M  V30 392 H 35.4455 3.73847 -0.137627 0
M  V30 393 H 36.7785 4.91935 -0.161399 0
M  V30 394 N 38.4306 0.297415 1.54768 0
M  V30 395 C 39.7076 -0.365847 1.92148 0
M  V30 396 C 40.0876 -1.71975 1.22424 0
M  V30 397 O 39.4356 -2.25666 0.358739 0
M  V30 398 C 39.6456 -0.484056 3.45627 0
M  V30 399 C 40.9936 -0.756594 4.17805 0
M  V30 400 O 42.0176 -0.568007 3.51642 0
M  V30 401 O 40.8766 -1.11863 5.34929 0
M  V30 402 H 37.9706 -0.203919 0.801465 0
M  V30 403 H 40.5166 0.34521 1.66152 0
M  V30 404 H 39.2886 0.467865 3.88493 0
M  V30 405 H 38.9116 -1.24372 3.77647 0
M  V30 406 N 39.9087 -1.5758 0.0250728 0
M  V30 407 C 40.8567 -2.11125 -0.97617 0
M  V30 408 C 41.8507 -1.03689 -1.33959 0
M  V30 409 O 43.0567 -1.22128 -1.3223 0
M  V30 410 H 39.4317 -0.674468 -0.332561 0
M  V30 411 H 41.4027 -2.94194 -0.499223 0
M  V30 412 C 40.1517 -2.65017 -2.2508 0
M  V30 413 H 39.4747 -3.47333 -1.9799 0
M  V30 414 H 40.9147 -3.06133 -2.93357 0
M  V30 415 C 39.3737 -1.57574 -2.97779 0
M  V30 416 O 39.9037 -0.973203 -3.89733 0
M  V30 417 N 38.1097 -1.29716 -2.60043 0
M  V30 418 H 37.6567 -1.789 -1.85345 0
M  V30 419 H 37.6147 -0.58051 -3.08994 0
M  V30 420 N 41.3868 0.248026 -1.55636 0
M  V30 421 C 42.3198 1.3334 -1.85191 0
M  V30 422 C 43.2978 1.46429 -0.706906 0
M  V30 423 O 44.4818 1.62662 -0.952544 0
M  V30 424 C 41.6088 2.70703 -2.03562 0
M  V30 425 C 40.6548 2.7477 -3.26196 0
M  V30 426 S 41.4878 2.31493 -4.82878 0
M  V30 427 C 42.6438 3.70783 -5.04253 0
M  V30 428 H 42.8768 1.08072 -2.76962 0
M  V30 429 H 40.4098 0.448952 -1.47729 0
M  V30 430 H 42.3678 3.49798 -2.1483 0
M  V30 431 H 41.0288 2.9321 -1.12635 0
M  V30 432 H 40.2218 3.75648 -3.36013 0
M  V30 433 H 39.8238 2.03719 -3.13647 0
M  V30 434 H 42.1158 4.6627 -4.91527 0
M  V30 435 H 43.0588 3.65901 -6.06236 0
M  V30 436 H 43.4668 3.63244 -4.32105 0
M  V30 437 N 42.8649 1.48995 0.513639 0
M  V30 438 C 43.7749 1.67443 1.64317 0
M  V30 439 C 44.7909 0.556947 1.64846 0
M  V30 440 O 45.9669 0.830082 1.83498 0
M  V30 441 C 43.0319 1.72515 3.00732 0
M  V30 442 C 42.0929 2.96009 3.1093 0
M  V30 443 C 41.3259 3.00829 4.40837 0
M  V30 444 O 41.5489 2.13594 5.28898 0
M  V30 445 O 40.4829 3.93168 4.55744 0
M  V30 446 H 44.3089 2.63106 1.51687 0
M  V30 447 H 41.8939 1.32588 0.688543 0
M  V30 448 H 43.7759 1.78277 3.81831 0
M  V30 449 H 42.4509 0.800278 3.13651 0
M  V30 450 H 41.3579 2.9577 2.29065 0
M  V30 451 H 42.6909 3.87934 3.02933 0
M  V30 452 N 44.343 -0.763751 1.37857 0
M  V30 453 C 45.571 -1.55293 1.36718 0
M  V30 454 C 45.986 -1.88745 -0.0455434 0
M  V30 455 O 45.343 -1.52039 -1.00947 0
M  V30 456 C 45.394 -2.85831 2.2132 0
M  V30 457 O 45.115 -2.5381 3.57089 0
M  V30 458 C 46.616 -3.80023 2.28249 0
M  V30 459 H 43.836 -0.480841 0.468009 0
M  V30 460 H 46.38 -0.946009 1.81303 0
M  V30 461 H 44.535 -3.42926 1.80223 0
M  V30 462 H 44.949 -3.37459 4.01524 0
M  V30 463 H 46.423 -4.68599 2.91752 0
M  V30 464 H 46.9 -4.1973 1.2932 0
M  V30 465 H 47.506 -3.28855 2.69693 0
M  V30 466 N 45.8211 -1.22559 -0.990812 0
M  V30 467 C 46.7511 -1.0218 -2.09956 0
M  V30 468 C 47.7321 0.0579394 -1.70001 0
M  V30 469 O 48.9171 -0.104684 -1.93918 0
M  V30 470 C 46.0471 -0.601023 -3.4206 0
M  V30 471 C 45.0011 -1.62694 -3.95872 0
M  V30 472 C 44.3271 -1.06193 -5.24049 0
M  V30 473 C 45.6271 -3.01743 -4.2632 0
M  V30 474 H 47.3211 -1.94916 -2.27262 0
M  V30 475 H 44.8671 -0.938566 -1.09211 0
M  V30 476 H 46.8201 -0.445561 -4.19038 0
M  V30 477 H 45.5441 0.362005 -3.24588 0
M  V30 478 H 44.2031 -1.77021 -3.21028 0
M  V30 479 H 43.8511 -0.0901903 -5.02919 0
M  V30 480 H 43.5511 -1.74732 -5.61019 0
M  V30 481 H 45.0751 -0.918092 -6.03658 0
M  V30 482 H 46.4891 -2.90777 -4.94087 0
M  V30 483 H 44.8861 -3.67425 -4.74467 0
M  V30 484 H 45.9561 -3.51518 -3.34011 0
M  V30 485 N 47.2992 1.18797 -1.03562 0
M  V30 486 C 48.2472 2.24297 -0.615905 0
M  V30 487 C 49.2412 1.65643 0.354808 0
M  V30 488 O 50.4472 1.78618 0.22265 0
M  V30 489 H 46.8222 0.729909 -0.180934 0
M  V30 490 H 48.7932 2.5701 -1.5162 0
M  V30 491 C 47.5422 3.47698 0.0104735 0
M  V30 492 H 46.8652 3.93125 -0.727509 0
M  V30 493 H 48.3052 4.23159 0.266995 0
M  V30 494 C 46.7642 3.12489 1.25905 0
M  V30 495 O 47.2942 3.25761 2.35038 0
M  V30 496 N 45.5002 2.6686 1.15039 0
M  V30 497 H 45.0472 2.56261 0.262328 0
M  V30 498 H 45.0052 2.43674 1.98672 0
M  V30 499 N 48.7773 0.814389 1.34928 0
M  V30 500 C 50.0543 0.321363 1.92942 0
M  V30 501 C 50.4343 -1.19014 1.74353 0
M  V30 502 O 49.7823 -1.99328 1.11716 0
M  V30 503 C 49.9923 0.741323 3.41036 0
M  V30 504 C 51.3403 0.735266 4.18185 0
M  V30 505 O 52.3643 0.68336 3.49584 0
M  V30 506 O 51.2233 0.800703 5.40602 0
M  V30 507 H 48.3173 0.0858893 0.822528 0
M  V30 508 H 50.8633 0.898609 1.43955 0
M  V30 509 H 49.6353 1.78276 3.4833 0
M  V30 510 H 49.2583 0.139307 3.97356 0
M  V30 511 N 50.2554 -1.46986 0.568584 0
M  V30 512 C 51.2034 -2.31858 -0.185649 0
M  V30 513 C 52.1974 -1.43624 -0.898249 0
M  V30 514 O 53.4034 -1.60327 -0.818242 0
M  V30 515 H 49.7784 -0.747866 -0.0787399 0
M  V30 516 H 51.7494 -2.93303 0.549191 0
M  V30 517 C 50.4984 -3.26513 -1.19519 0
M  V30 518 H 49.8214 -3.94377 -0.656285 0
M  V30 519 H 51.2614 -3.88707 -1.6936 0
M  V30 520 C 49.7204 -2.50847 -2.24894 0
M  V30 521 O 50.2504 -2.26119 -3.32014 0
M  V30 522 N 48.4564 -2.11656 -1.99124 0
M  V30 523 H 48.0034 -2.31966 -1.12024 0
M  V30 524 H 47.9614 -1.61347 -2.69842 0
M  V30 525 N 51.7335 -0.305618 -1.54608 0
M  V30 526 C 52.6635 0.561482 -2.26649 0
M  V30 527 C 53.6445 1.13415 -1.26772 0
M  V30 528 O 54.8295 1.16262 -1.55553 0
M  V30 529 C 51.9595 1.73122 -3.01075 0
M  V30 530 C 50.9135 1.2887 -4.08138 0
M  V30 531 C 50.2395 2.54396 -4.70305 0
M  V30 532 C 51.5395 0.416578 -5.20636 0
M  V30 533 H 53.2335 -0.0393902 -2.99374 0
M  V30 534 H 50.7795 -0.020385 -1.43986 0
M  V30 535 H 52.7325 2.34396 -3.50195 0
M  V30 536 H 51.4565 2.3584 -2.25936 0
M  V30 537 H 50.1155 0.698991 -3.59875 0
M  V30 538 H 49.7635 3.15439 -3.918 0
M  V30 539 H 49.4635 2.25486 -5.42614 0
M  V30 540 H 50.9875 3.16464 -5.2219 0
M  V30 541 H 52.4015 0.935116 -5.65622 0
M  V30 542 H 50.7985 0.221046 -5.99693 0
M  V30 543 H 51.8685 -0.557162 -4.81688 0
M  V30 544 N 53.2116 1.57565 -0.0334293 0
M  V30 545 C 54.1586 2.10478 0.946981 0
M  V30 546 C 55.1286 1.00787 1.32027 0
M  V30 547 O 56.3136 1.28232 1.41284 0
M  V30 548 C 53.4536 2.63994 2.22263 0
M  V30 549 C 52.5666 3.87709 1.90541 0
M  V30 550 C 51.7016 4.29604 3.12433 0
M  V30 551 C 50.7406 5.46065 2.76549 0
M  V30 552 N 49.8776 5.83096 3.9108 0
M  V30 553 H 54.7176 2.93963 0.488846 0
M  V30 554 H 52.2546 1.45296 0.22969 0
M  V30 555 H 54.2126 2.93114 2.96884 0
M  V30 556 H 52.8426 1.83333 2.65685 0
M  V30 557 H 51.8946 3.65291 1.06144 0
M  V30 558 H 53.2066 4.72403 1.60116 0
M  V30 559 H 52.3606 4.60182 3.9537 0
M  V30 560 H 51.0996 3.43685 3.46023 0
M  V30 561 H 50.1046 5.15176 1.92026 0
M  V30 562 H 51.3296 6.33685 2.44171 0
M  V30 563 H 49.2756 5.00132 4.24504 0
M  V30 564 H 49.1926 6.6244 3.64293 0
M  V30 565 H 50.4606 6.18282 4.74708 0
M  V30 566 N 54.6897 -0.239769 1.55765 0
M  V30 567 C 55.9357 -0.968234 1.78194 0
M  V30 568 C 56.2687 -1.84701 0.599938 0
M  V30 569 O 55.5437 -1.9031 -0.401524 0
M  V30 570 C 55.8267 -1.8227 3.10564 0
M  V30 571 C 55.6797 -0.971633 4.3918 0
M  V30 572 C 56.9987 -2.80388 3.39221 0
M  V30 573 H 54.1177 -0.350572 0.648281 0
M  V30 574 H 56.7597 -0.238259 1.885 0
M  V30 575 H 54.9097 -2.44507 3.01908 0
M  V30 576 H 56.5817 -0.367408 4.59835 0
M  V30 577 H 54.8247 -0.276276 4.32919 0
M  V30 578 H 55.4957 -1.60346 5.28198 0
M  V30 579 H 57.9717 -2.28287 3.47885 0
M  V30 580 H 56.8477 -3.3729 4.33044 0
M  V30 581 H 57.1087 -3.57212 2.60484 0
M  V30 582 N 56.1678 -1.49265 -0.50573 0
M  V30 583 C 57.4168 -1.57761 -1.25675 0
M  V30 584 C 57.7298 -0.267371 -1.93764 0
M  V30 585 O 58.9358 -0.230827 -2.70517 0
M  V30 586 C 57.3918 -2.78332 -2.28165 0
M  V30 587 C 56.9998 -4.16096 -1.66037 0
M  V30 588 C 58.7438 -2.96155 -3.04125 0
M  V30 589 C 56.6508 -5.27895 -2.6661 0
M  V30 590 H 55.5808 -0.587391 -0.472745 0
M  V30 591 H 58.2318 -1.75644 -0.53118 0
M  V30 592 H 56.6138 -2.53934 -3.03865 0
M  V30 593 H 57.7878 -4.50612 -0.963622 0
M  V30 594 H 56.1028 -4.03591 -1.02484 0
M  V30 595 H 58.6998 -3.76849 -3.79327 0
M  V30 596 H 59.0428 -2.06534 -3.61455 0
M  V30 597 H 59.5758 -3.2057 -2.35541 0
M  V30 598 H 56.3148 -6.1956 -2.14068 0
M  V30 599 H 55.8348 -4.97839 -3.34539 0
M  V30 600 H 57.5138 -5.57031 -3.29129 0
M  V30 601 N 57.6459 0.756429 -1.3826 0
M  V30 602 C 58.5559 1.9009 -1.37488 0
M  V30 603 C 59.5719 1.71855 -0.272366 0
M  V30 604 O 60.7479 1.94827 -0.510318 0
M  V30 605 C 57.8129 3.25421 -1.19592 0
M  V30 606 C 56.8739 3.56202 -2.39622 0
M  V30 607 C 56.1069 4.85075 -2.2257 0
M  V30 608 O 56.3299 5.57246 -1.21793 0
M  V30 609 O 55.2639 5.15269 -3.11098 0
M  V30 610 H 59.0899 1.93695 -2.33914 0
M  V30 611 H 56.6749 0.901313 -1.1915 0
M  V30 612 H 58.5569 4.06337 -1.11661 0
M  V30 613 H 57.2319 3.22634 -0.262486 0
M  V30 614 H 56.1389 2.75458 -2.53128 0
M  V30 615 H 57.4719 3.63747 -3.31586 0
M  V30 616 N 59.124 1.23083 0.984299 0
M  V30 617 C 60.071 1.00854 2.07598 0
M  V30 618 C 61.041 -0.0726709 1.65941 0
M  V30 619 O 62.226 0.0786535 1.90638 0
M  V30 620 C 59.366 0.601645 3.39815 0
M  V30 621 C 58.479 1.75456 3.94765 0
M  V30 622 C 57.614 1.29482 5.15177 0
M  V30 623 C 56.653 2.41873 5.62284 0
M  V30 624 N 55.79 1.96885 6.73929 0
M  V30 625 H 60.63 1.943 2.25946 0
M  V30 626 H 58.167 0.968001 1.10762 0
M  V30 627 H 60.125 0.346854 4.15756 0
M  V30 628 H 58.755 -0.295803 3.21442 0
M  V30 629 H 57.807 2.12346 3.15616 0
M  V30 630 H 59.119 2.59965 4.25699 0
M  V30 631 H 58.273 0.997923 5.98437 0
M  V30 632 H 57.012 0.420046 4.85888 0
M  V30 633 H 56.017 2.72342 4.77608 0
M  V30 634 H 57.242 3.29881 5.93595 0
M  V30 635 H 55.188 1.11782 6.46406 0
M  V30 636 H 55.105 2.74956 7.04227 0
M  V30 637 H 56.373 1.70289 7.60672 0
M  V30 638 N 60.6021 -1.18246 1.0419 0
M  V30 639 C 61.5651 -2.20128 0.638452 0
M  V30 640 C 62.5651 -1.57885 -0.304805 0
M  V30 641 O 63.7551 -1.73967 -0.0900369 0
M  V30 642 C 60.8871 -3.4084 -0.0637751 0
M  V30 643 H 62.0801 -2.57336 1.54007 0
M  V30 644 H 59.6331 -1.32152 0.834598 0
M  V30 645 H 60.3681 -3.09166 -0.979136 0
M  V30 646 H 60.1531 -3.8726 0.614198 0
M  V30 647 H 61.6431 -4.16274 -0.332512 0
M  V30 648 N 62.0802 -0.821533 -1.34494 0
M  V30 649 C 63.3572 -0.33159 -1.92769 0
M  V30 650 C 63.7372 1.18088 -1.74981 0
M  V30 651 O 63.0852 1.98733 -1.12772 0
M  V30 652 C 63.2952 -0.759398 -3.40638 0
M  V30 653 C 64.6432 -0.757433 -4.1779 0
M  V30 654 O 65.6672 -0.70189 -3.49216 0
M  V30 655 O 64.5262 -0.829361 -5.4017 0
M  V30 656 H 61.6202 -0.0902502 -0.822061 0
M  V30 657 H 64.1662 -0.906231 -1.43477 0
M  V30 658 H 62.9382 -1.8012 -3.47379 0
M  V30 659 H 62.5612 -0.160378 -3.97276 0
M  V30 660 N 63.5583 1.46682 -0.576371 0
M  V30 661 C 64.5063 2.31953 0.17335 0
M  V30 662 C 65.5003 1.44098 0.89062 0
M  V30 663 O 66.7063 1.60759 0.809728 0
M  V30 664 H 63.0813 0.748273 0.0747727 0
M  V30 665 H 65.0523 2.93007 -0.564738 0
M  V30 666 C 63.8013 3.27142 1.17786 0
M  V30 667 H 63.1243 3.94719 0.635361 0
M  V30 668 H 64.5643 3.896 1.67296 0
M  V30 669 C 63.0233 2.52036 2.23561 0
M  V30 670 O 63.5533 2.27877 3.3081 0
M  V30 671 N 61.7593 2.12709 1.97998 0
M  V30 672 H 61.3063 2.32557 1.10792 0
M  V30 673 H 61.2643 1.62776 2.68982 0
M  V30 674 N 65.0364 0.313813 1.54444 0
M  V30 675 C 65.9994 -0.54379 2.22656 0
M  V30 676 C 66.9994 -1.05124 1.21678 0
M  V30 677 O 68.1894 -0.945225 1.46325 0
M  V30 678 C 65.3214 -1.75427 2.92298 0
M  V30 679 H 66.5144 0.0523599 2.99854 0
M  V30 680 H 64.0674 0.0647834 1.56166 0
M  V30 681 H 64.8024 -2.38991 2.19211 0
M  V30 682 H 64.5874 -1.39791 3.66334 0
M  V30 683 H 66.0774 -2.36325 3.44297 0
M  V30 684 N 66.5145 -1.57545 0.0417849 0
M  V30 685 C 67.4775 -2.09885 -0.92093 0
M  V30 686 C 68.4775 -1.01648 -1.24596 0
M  V30 687 O 69.6675 -1.27759 -1.1842 0
M  V30 688 C 66.7995 -2.57527 -2.23367 0
M  V30 689 H 67.9925 -2.96236 -0.467382 0
M  V30 690 H 65.5455 -1.5493 -0.206467 0
M  V30 691 H 66.2805 -1.74542 -2.73323 0
M  V30 692 H 66.0655 -3.36613 -2.01083 0
M  V30 693 H 67.5555 -2.98201 -2.92346 0
M  V30 694 N 67.9926 0.231505 -1.5589 0
M  V30 695 C 68.9246 1.31006 -1.8807 0
M  V30 696 C 69.9376 1.43539 -0.768145 0
M  V30 697 O 71.1266 1.44614 -1.04638 0
M  V30 698 C 68.2266 2.68688 -2.06543 0
M  V30 699 C 67.3996 2.78228 -3.37502 0
M  V30 700 C 66.4586 3.96857 -3.4553 0
M  V30 701 O 65.4846 3.85662 -4.18633 0
M  V30 702 N 66.6866 5.1072 -2.75944 0
M  V30 703 H 69.4516 1.03731 -2.81176 0
M  V30 704 H 67.0126 0.421573 -1.56315 0
M  V30 705 H 69.0046 3.46412 -2.09239 0
M  V30 706 H 67.5746 2.88605 -1.20109 0
M  V30 707 H 66.7946 1.87059 -3.46991 0
M  V30 708 H 68.0826 2.81564 -4.23791 0
M  V30 709 H 67.4806 5.2271 -2.16311 0
M  V30 710 H 66.0376 5.86523 -2.84314 0
M  V30 711 N 69.4707 1.49531 0.497807 0
M  V30 712 C 70.7167 1.59415 1.25358 0
M  V30 713 C 71.0497 0.281422 1.9215 0
M  V30 714 O 70.3247 -0.715249 1.80871 0
M  V30 715 C 70.6077 2.75566 2.3181 0
M  V30 716 C 70.4607 4.16642 1.69498 0
M  V30 717 C 71.7797 2.87347 3.33346 0
M  V30 718 H 68.8987 0.580244 0.454408 0
M  V30 719 H 71.5407 1.81827 0.551262 0
M  V30 720 H 69.6907 2.56587 2.91711 0
M  V30 721 H 71.3627 4.47145 1.13399 0
M  V30 722 H 69.6057 4.22141 0.998978 0
M  V30 723 H 70.2767 4.93792 2.46725 0
M  V30 724 H 72.7527 3.04634 2.83438 0
M  V30 725 H 71.6287 3.70289 4.05188 0
M  V30 726 H 71.8897 1.96834 3.95865 0
M  V30 727 N 70.9488 -0.749086 1.3866 0
M  V30 728 C 71.8958 -1.86291 1.36251 0
M  V30 729 C 72.8658 -1.64578 0.224347 0
M  V30 730 O 74.0508 -1.86181 0.417279 0
M  V30 731 C 71.1908 -3.23644 1.19786 0
M  V30 732 C 70.3038 -3.57158 2.43027 0
M  V30 733 C 69.4388 -4.83838 2.19258 0
M  V30 734 C 68.4778 -5.10152 3.38247 0
M  V30 735 N 67.6148 -6.28029 3.13884 0
M  V30 736 H 72.4548 -1.87685 2.3147 0
M  V30 737 H 69.9918 -0.917287 1.14997 0
M  V30 738 H 71.9498 -4.0291 1.08254 0
M  V30 739 H 70.5798 -3.21566 0.282031 0
M  V30 740 H 69.6318 -2.72701 2.65214 0
M  V30 741 H 70.9438 -3.7253 3.31697 0
M  V30 742 H 70.0978 -5.71057 2.04888 0
M  V30 743 H 68.8368 -4.70614 1.2796 0
M  V30 744 H 67.8418 -4.21401 3.53131 0
M  V30 745 H 69.0668 -5.25271 4.30427 0
M  V30 746 H 67.0128 -6.1612 2.25238 0
M  V30 747 H 66.9298 -6.43922 3.96106 0
M  V30 748 H 68.1978 -7.18124 3.03179 0
M  V30 749 N 72.4269 -1.23603 -0.977757 0
M  V30 750 C 73.7039 -0.977897 -1.69401 0
M  V30 751 C 74.0839 0.502738 -2.05026 0
M  V30 752 O 73.4319 1.47459 -1.74551 0
M  V30 753 C 73.6419 -1.89077 -2.93345 0
M  V30 754 C 74.9899 -2.15579 -3.65802 0
M  V30 755 O 76.0139 -1.86648 -3.03383 0
M  V30 756 O 74.8729 -2.64658 -4.78141 0
M  V30 757 H 71.9669 -0.369025 -0.740101 0
M  V30 758 H 74.5129 -1.34657 -1.03274 0
M  V30 759 H 73.2849 -2.89158 -2.63634 0
M  V30 760 H 72.9079 -1.52463 -3.67207 0
M  V30 761 N 73.905 1.17692 -1.04816 0
M  V30 762 C 74.868 2.19787 -0.650117 0
M  V30 763 C 75.868 1.58044 0.296427 0
M  V30 764 O 77.058 1.74012 0.0808097 0
M  V30 765 C 74.19 3.40869 0.0456987 0
M  V30 766 H 75.383 2.56516 -1.5537 0
M  V30 767 H 72.936 1.31708 -0.841594 0
M  V30 768 H 73.671 3.09681 0.962726 0
M  V30 769 H 73.456 3.86928 -0.634727 0
M  V30 770 H 74.946 4.16445 0.310432 0
M  V30 771 N 75.3831 0.828654 1.34056 0
M  V30 772 C 76.3131 0.269443 2.3194 0
M  V30 773 C 77.2941 -0.617247 1.58506 0
M  V30 774 O 78.4791 -0.542931 1.86456 0
M  V30 775 C 75.6091 -0.564793 3.42677 0
M  V30 776 C 74.5631 0.225241 4.27407 0
M  V30 777 C 73.8891 -0.7321 5.29664 0
M  V30 778 C 75.1891 1.43663 5.02154 0
M  V30 779 H 76.8831 1.08728 2.7896 0
M  V30 780 H 74.4291 0.524283 1.34117 0
M  V30 781 H 76.3821 -0.966233 4.10173 0
M  V30 782 H 75.1061 -1.41574 2.9432 0
M  V30 783 H 73.7651 0.608117 3.61521 0
M  V30 784 H 73.4131 -1.57916 4.77568 0
M  V30 785 H 73.1131 -0.20767 5.87233 0
M  V30 786 H 74.6371 -1.13128 6.00029 0
M  V30 787 H 76.0511 1.1089 5.62473 0
M  V30 788 H 74.4481 1.89711 5.69324 0
M  V30 789 H 75.5181 2.21181 4.31517 0
M  V30 790 N 76.8612 -1.46375 0.584142 0
M  V30 791 C 78.0892 -2.06761 0.0759296 0
M  V30 792 C 78.5042 -1.43266 -1.22965 0
M  V30 793 O 77.8612 -0.538458 -1.74376 0
M  V30 794 C 77.9122 -3.61375 -0.0950384 0
M  V30 795 O 77.6332 -4.22495 1.15887 0
M  V30 796 C 79.1342 -4.38693 -0.637434 0
M  V30 797 H 76.3542 -0.668479 0.0581075 0
M  V30 798 H 78.8982 -1.8798 0.805218 0
M  V30 799 H 77.0532 -3.79578 -0.774554 0
M  V30 800 H 77.4672 -5.15385 0.973598 0
M  V30 801 H 78.9412 -5.47464 -0.706237 0
M  V30 802 H 79.4182 -4.06836 -1.65472 0
M  V30 803 H 80.0242 -4.25299 0.00725967 0
M  V30 804 N 78.3393 -0.321999 -1.54275 0
M  V30 805 C 79.2863 0.544664 -2.24281 0
M  V30 806 C 80.2563 1.1129 -1.23303 0
M  V30 807 O 81.4413 1.15354 -1.51981 0
M  V30 808 C 78.5813 1.70045 -3.00298 0
M  V30 809 C 77.6943 1.16159 -4.1609 0
M  V30 810 C 76.8293 2.28293 -4.79641 0
M  V30 811 C 75.8683 1.71648 -5.8754 0
M  V30 812 N 75.0053 2.77438 -6.44959 0
M  V30 813 H 79.8453 -0.0588907 -2.97942 0
M  V30 814 H 77.3823 -0.0408345 -1.47043 0
M  V30 815 H 79.3403 2.38054 -3.42616 0
M  V30 816 H 77.9703 2.27531 -2.28975 0
M  V30 817 H 77.0223 0.373092 -3.78566 0
M  V30 818 H 78.3343 0.707087 -4.93763 0
M  V30 819 H 77.4883 3.0421 -5.2492 0
M  V30 820 H 76.2273 2.77079 -4.01346 0
M  V30 821 H 75.2323 0.942282 -5.41665 0
M  V30 822 H 76.4573 1.23741 -6.67731 0
M  V30 823 H 74.4033 3.25519 -5.69538 0
M  V30 824 H 74.3203 2.36547 -7.1804 0
M  V30 825 H 75.5883 3.53189 -6.94894 0
M  V30 826 N 79.8174 1.5752 -0.0501392 0
M  V30 827 C 80.7504 2.07026 0.959962 0
M  V30 828 C 81.7284 0.970539 1.30458 0
M  V30 829 O 82.9124 1.2424 1.41763 0
M  V30 830 C 80.0394 2.5099 2.27424 0
M  V30 831 C 79.0854 3.72188 2.08275 0
M  V30 832 S 79.9184 5.17888 1.36207 0
M  V30 833 C 81.0744 5.65165 2.6896 0
M  V30 834 H 81.3074 2.9238 0.538631 0
M  V30 835 H 78.8404 1.53547 0.162099 0
M  V30 836 H 80.7984 2.76982 3.02971 0
M  V30 837 H 79.4594 1.65944 2.66686 0
M  V30 838 H 78.6524 4.00866 3.05487 0
M  V30 839 H 78.2544 3.46457 1.40868 0
M  V30 840 H 80.5464 5.70687 3.65133 0
M  V30 841 H 81.4894 6.64394 2.4492 0
M  V30 842 H 81.8974 4.9289 2.75172 0
M  V30 843 N 81.2955 -0.223234 1.56011 0
M  V30 844 C 82.7115 -0.572856 1.48965 0
M  V30 845 C 82.9115 -1.87225 0.74492 0
M  V30 846 O 81.9675 -2.50899 0.283896 0
M  V30 847 C 83.2805 -0.653646 2.9351 0
M  V30 848 C 84.8285 -0.744386 3.0402 0
M  V30 849 C 85.3035 -0.856535 4.49919 0
M  V30 850 N 86.7945 -0.9208 4.53955 0
M  V30 851 C 87.5295 -1.02726 5.64123 0
M  V30 852 N 87.0255 -1.09777 6.84047 0
M  V30 853 N 88.8185 -1.06226 5.51971 0
M  V30 854 H 80.9695 0.629462 2.02858 0
M  V30 855 H 83.2325 0.220621 0.921971 0
M  V30 856 H 82.9385 0.231518 3.50937 0
M  V30 857 H 82.8125 -1.51781 3.45315 0
M  V30 858 H 85.1995 -1.61999 2.46658 0
M  V30 859 H 85.2805 0.14541 2.55386 0
M  V30 860 H 84.9245 0.0146069 5.07898 0
M  V30 861 H 84.8545 -1.76172 4.96257 0
M  V30 862 H 87.3455 -0.876694 3.6759 0
M  V30 863 H 87.6585 -1.17872 7.63758 0
M  V30 864 H 86.0035 -1.06693 6.86762 0
M  V30 865 H 89.1945 -1.00382 4.5721 0
M  V30 866 H 89.3675 -1.14177 6.37862 0
M  V30 867 N 82.7736 -1.49793 -0.48987 0
M  V30 868 C 83.7366 -1.66752 -1.57246 0
M  V30 869 C 84.7366 -0.538867 -1.51502 0
M  V30 870 O 85.9266 -0.805545 -1.54456 0
M  V30 871 C 83.0586 -1.67528 -2.96896 0
M  V30 872 H 84.2516 -2.63321 -1.43534 0
M  V30 873 H 81.8046 -1.38992 -0.714914 0
M  V30 874 H 82.5396 -0.725837 -3.16073 0
M  V30 875 H 82.3246 -2.49504 -3.02473 0
M  V30 876 H 83.8146 -1.82667 -3.7553 0
M  V30 877 N 84.2517 0.741722 -1.39055 0
M  V30 878 C 85.2147 1.83733 -1.37021 0
M  V30 879 C 86.2147 1.58542 -0.268534 0
M  V30 880 O 87.4047 1.66067 -0.526076 0
M  V30 881 C 84.5367 3.2141 -1.13617 0
M  V30 882 H 85.7297 1.86941 -2.34506 0
M  V30 883 H 83.2827 0.944676 -1.24521 0
M  V30 884 H 84.0177 3.23865 -0.167863 0
M  V30 885 H 83.8027 3.4109 -1.93391 0
M  V30 886 H 85.2927 4.01477 -1.14918 0
M  V30 887 N 85.7298 1.2412 0.971189 0
M  V30 888 C 86.6928 1.03156 2.04674 0
M  V30 889 C 87.6928 -0.00990322 1.60797 0
M  V30 890 O 88.8828 0.230729 1.72665 0
M  V30 891 C 86.0148 0.562765 3.36223 0
M  V30 892 H 87.2078 1.98614 2.24705 0
M  V30 893 H 84.7608 1.06293 1.14593 0
M  V30 894 H 85.4958 -0.395176 3.21883 0
M  V30 895 H 85.2808 1.31441 3.69413 0
M  V30 896 H 86.7708 0.437015 4.15307 0
M  V30 897 N 87.2079 -1.17134 1.05439 0
M  V30 898 C 88.1379 -2.2342 0.678649 0
M  V30 899 C 89.1189 -1.66971 -0.32476 0
M  V30 900 O 90.3039 -1.93149 -0.201802 0
M  V30 901 C 87.4339 -3.47256 0.0552099 0
M  V30 902 C 86.3879 -4.16543 0.98365 0
M  V30 903 C 85.7139 -5.34231 0.223961 0
M  V30 904 C 87.0139 -4.68495 2.3089 0
M  V30 905 H 88.7079 -2.55105 1.56722 0
M  V30 906 H 86.2539 -1.2262 0.754998 0
M  V30 907 H 88.2069 -4.20828 -0.21946 0
M  V30 908 H 86.9309 -3.14846 -0.868319 0
M  V30 909 H 85.5899 -3.44887 1.24293 0
M  V30 910 H 85.2379 -4.98071 -0.702412 0
M  V30 911 H 84.9379 -5.81527 0.842627 0
M  V30 912 H 86.4619 -6.10585 -0.0433671 0
M  V30 913 H 87.8759 -5.33691 2.09396 0
M  V30 914 H 86.2729 -5.26379 2.88176 0
M  V30 915 H 87.3429 -3.85169 2.94572 0
M  V30 916 N 88.686 -0.835752 -1.33615 0
M  V30 917 C 89.963 -0.352017 -1.92406 0
M  V30 918 C 90.343 1.16225 -1.76224 0
M  V30 919 O 89.691 1.97526 -1.14873 0
M  V30 920 C 89.901 -0.795485 -3.39813 0
M  V30 921 C 91.249 -0.801703 -4.16963 0
M  V30 922 O 92.273 -0.738889 -3.48452 0
M  V30 923 O 91.132 -0.886607 -5.3926 0
M  V30 924 H 88.226 -0.0989641 -0.821057 0
M  V30 925 H 90.772 -0.921397 -1.42507 0
M  V30 926 H 89.544 -1.83795 -3.45449 0
M  V30 927 H 89.167 -0.202505 -3.97084 0
M  V30 928 N 90.1641 1.46063 -0.591896 0
M  V30 929 C 91.1271 2.28854 0.125973 0
M  V30 930 C 92.1271 1.38903 0.810107 0
M  V30 931 O 93.3171 1.61186 0.66066 0
M  V30 932 C 90.4491 3.19526 1.1881 0
M  V30 933 H 91.6421 2.93802 -0.601717 0
M  V30 934 H 89.1951 1.52325 -0.350254 0
M  V30 935 H 89.9301 2.59345 1.94707 0
M  V30 936 H 89.7151 3.85766 0.701936 0
M  V30 937 H 91.2051 3.81817 1.69132 0
M  V30 938 N 91.6422 0.330177 1.54103 0
M  V30 939 C 92.5742 -0.566902 2.22079 0
M  V30 940 C 93.5872 -1.07462 1.22294 0
M  V30 941 O 94.7762 -0.987065 1.48726 0
M  V30 942 C 91.8762 -1.79138 2.87685 0
M  V30 943 C 91.0492 -1.42123 4.13666 0
M  V30 944 C 90.1082 -2.50394 4.62806 0
M  V30 945 O 89.1342 -2.14261 5.27334 0
M  V30 946 N 90.3362 -3.81433 4.37595 0
M  V30 947 H 93.1012 0.0151844 2.99696 0
M  V30 948 H 90.6622 0.153681 1.61169 0
M  V30 949 H 92.6542 -2.50975 3.1748 0
M  V30 950 H 91.2242 -2.28115 2.13734 0
M  V30 951 H 90.4442 -0.534201 3.90564 0
M  V30 952 H 91.7322 -1.14971 4.9564 0
M  V30 953 H 91.1302 -4.13584 3.8596 0
M  V30 954 H 89.6872 -4.4948 4.72029 0
M  V30 955 N 93.1203 -1.57491 0.0584922 0
M  V30 956 C 94.0673 -2.11958 -0.913376 0
M  V30 957 C 95.0373 -1.02875 -1.30407 0
M  V30 958 O 96.2223 -1.30464 -1.39226 0
M  V30 959 C 93.3623 -2.67497 -2.18035 0
M  V30 960 C 92.4753 -3.90691 -1.84349 0
M  V30 961 C 91.6103 -4.3452 -3.05559 0
M  V30 962 C 90.6493 -5.50395 -2.67827 0
M  V30 963 N 89.7863 -5.89244 -3.81754 0
M  V30 964 H 94.6263 -2.94704 -0.442017 0
M  V30 965 H 92.1633 -1.45643 -0.206545 0
M  V30 966 H 94.1213 -2.978 -2.92183 0
M  V30 967 H 92.7513 -1.87537 -2.62735 0
M  V30 968 H 91.8033 -3.66934 -1.00319 0
M  V30 969 H 93.1153 -4.7489 -1.5258 0
M  V30 970 H 92.2693 -4.66414 -3.87998 0
M  V30 971 H 91.0083 -3.49147 -3.40511 0
M  V30 972 H 90.0133 -5.18165 -1.83806 0
M  V30 973 H 91.2383 -6.3749 -2.34059 0
M  V30 974 H 89.1843 -5.06823 -4.16493 0
M  V30 975 H 89.1013 -6.68151 -3.53708 0
M  V30 976 H 90.3693 -6.25756 -4.64811 0
M  V30 977 N 94.5984 0.214957 -1.56127 0
M  V30 978 C 95.5614 1.24997 -1.92116 0
M  V30 979 C 96.5614 1.39467 -0.800344 0
M  V30 980 O 97.7514 1.37619 -1.06802 0
M  V30 981 C 94.8834 2.62271 -2.17777 0
M  V30 982 H 96.0764 0.942875 -2.84693 0
M  V30 983 H 93.6294 0.455654 -1.49511 0
M  V30 984 H 94.3644 2.98068 -1.27773 0
M  V30 985 H 94.1494 2.53143 -2.99434 0
M  V30 986 H 95.6394 3.36946 -2.46693 0
M  V30 987 N 96.0765 1.50051 0.48192 0
M  V30 988 C 97.3045 1.64237 1.25832 0
M  V30 989 C 97.7195 0.321336 1.86045 0
M  V30 990 O 97.0765 -0.695478 1.68729 0
M  V30 991 C 97.1275 2.72548 2.37487 0
M  V30 992 O 96.8485 3.99529 1.79745 0
M  V30 993 C 98.3495 2.9761 3.28547 0
M  V30 994 H 95.5695 0.55237 0.380957 0
M  V30 995 H 98.1135 1.96207 0.576467 0
M  V30 996 H 96.2685 2.43303 3.01467 0
M  V30 997 H 96.6825 4.59342 2.5319 0
M  V30 998 H 98.1565 3.77084 4.03127 0
M  V30 999 H 98.6335 2.0826 3.86684 0
M  V30 1000 H 99.2395 3.28345 2.70314 0
M  V30 1001 N 97.5546 -0.734337 1.39446 0
M  V30 1002 C 98.9656 -1.31264 1.32766 0
M  V30 1003 C 99.3166 -1.96198 -0.00767497 0
M  V30 1004 O 98.4416 -1.96346 -0.909796 0
M  V30 1005 C 99.0366 -2.38682 2.4045 0
M  V30 1006 C 97.5956 -2.92184 2.37288 0
M  V30 1007 C 96.7426 -1.6576 2.22304 0
M  V30 1008 H 99.6936 -0.531799 1.49525 0
M  V30 1009 H 99.7146 -3.19087 2.07276 0
M  V30 1010 H 99.2266 -1.91392 3.37625 0
M  V30 1011 H 97.3276 -3.43752 1.43754 0
M  V30 1012 H 97.4406 -3.45253 3.3217 0
M  V30 1013 H 95.8046 -1.9012 1.69489 0
M  V30 1014 H 96.5876 -1.20521 3.21449 0
M  V30 1015 N 99.0327 -1.24633 -0.964593 0
M  V30 1016 C 100.444 -1.08045 -1.5226 0
M  V30 1017 C 100.795 0.347116 -1.93105 0
M  V30 1018 O 99.9197 1.23588 -1.77637 0
M  V30 1019 C 100.515 -1.95514 -2.76695 0
M  V30 1020 C 99.0737 -1.8314 -3.28841 0
M  V30 1021 C 98.2207 -1.90262 -2.01732 0
M  V30 1022 H 101.172 -1.38064 -0.782553 0
M  V30 1023 H 101.193 -1.48925 -3.50145 0
M  V30 1024 H 100.705 -2.99407 -2.46936 0
M  V30 1025 H 98.8057 -0.82092 -3.63444 0
M  V30 1026 H 98.9187 -2.67406 -3.97531 0
M  V30 1027 H 97.2827 -1.34027 -2.16584 0
M  V30 1028 H 98.0657 -2.9574 -1.74334 0
M  V30 1029 N 100.511 1.16574 -1.06058 0
M  V30 1030 C 101.458 2.20883 -0.669263 0
M  V30 1031 C 102.428 1.62729 0.332918 0
M  V30 1032 O 103.613 1.895 0.222346 0
M  V30 1033 C 100.753 3.45049 -0.0593572 0
M  V30 1034 C 99.8658 4.17458 -1.11143 0
M  V30 1035 C 99.0008 5.29135 -0.467916 0
M  V30 1036 C 98.0398 5.93343 -1.50369 0
M  V30 1037 N 97.1768 6.96516 -0.883706 0
M  V30 1038 H 102.017 2.53709 -1.5632 0
M  V30 1039 H 99.5538 1.24616 -0.781625 0
M  V30 1040 H 101.512 4.16033 0.311771 0
M  V30 1041 H 100.142 3.12781 0.797992 0
M  V30 1042 H 99.1938 3.45101 -1.60029 0
M  V30 1043 H 100.506 4.61307 -1.89731 0
M  V30 1044 H 99.6598 6.06684 -0.0436871 0
M  V30 1045 H 98.3988 4.86443 0.349864 0
M  V30 1046 H 97.4038 5.14517 -1.93784 0
M  V30 1047 H 98.6288 6.38114 -2.32352 0
M  V30 1048 H 96.5748 6.55943 -0.086595 0
M  V30 1049 H 96.4918 7.38723 -1.607 0
M  V30 1050 H 97.7598 7.77993 -0.484543 0
M  V30 1051 N 101.989 0.842826 1.3317 0
M  V30 1052 C 102.919 0.294028 2.31641 0
M  V30 1053 C 103.9 -0.600401 1.59151 0
M  V30 1054 O 105.085 -0.523124 1.87022 0
M  V30 1055 C 102.215 -0.528416 3.43257 0
M  V30 1056 C 101.169 0.27056 4.27144 0
M  V30 1057 C 100.495 -0.675881 5.30411 0
M  V30 1058 C 101.795 1.48981 5.00602 0
M  V30 1059 H 103.489 1.11681 2.77791 0
M  V30 1060 H 101.035 0.538478 1.33553 0
M  V30 1061 H 102.988 -0.922674 4.11175 0
M  V30 1062 H 101.712 -1.38445 2.95805 0
M  V30 1063 H 100.371 0.646427 3.60856 0
M  V30 1064 H 100.019 -1.52842 4.79216 0
M  V30 1065 H 99.7189 -0.145374 5.8742 0
M  V30 1066 H 101.243 -1.06757 6.01195 0
M  V30 1067 H 102.657 1.16849 5.61266 0
M  V30 1068 H 101.054 1.95739 5.6728 0
M  V30 1069 H 102.124 2.25746 4.29147 0
M  V30 1070 N 103.467 -1.45747 0.599634 0
M  V30 1071 C 104.377 -2.34262 -0.125888 0
M  V30 1072 C 105.393 -1.50768 -0.868625 0
M  V30 1073 O 106.569 -1.83592 -0.828003 0
M  V30 1074 C 103.634 -3.28252 -1.11587 0
M  V30 1075 C 102.695 -4.27651 -0.375956 0
M  V30 1076 C 101.928 -5.1715 -1.31877 0
M  V30 1077 O 102.151 -5.09916 -2.55621 0
M  V30 1078 O 101.085 -5.96286 -0.820157 0
M  V30 1079 H 104.911 -2.97688 0.601315 0
M  V30 1080 H 102.496 -1.44999 0.359934 0
M  V30 1081 H 104.378 -3.86191 -1.68626 0
M  V30 1082 H 103.053 -2.67401 -1.82424 0
M  V30 1083 H 101.96 -3.7335 0.236698 0
M  V30 1084 H 103.293 -4.91334 0.29177 0
M  V30 1085 N 104.945 -0.338344 -1.53925 0
M  V30 1086 C 106.222 0.314774 -1.93051 0
M  V30 1087 C 106.602 1.68669 -1.26941 0
M  V30 1088 O 105.95 2.24636 -0.418445 0
M  V30 1089 C 106.16 0.392249 -3.46789 0
M  V30 1090 C 107.508 0.645554 -4.19664 0
M  V30 1091 O 108.532 0.474575 -3.53024 0
M  V30 1092 O 107.391 0.976408 -5.37707 0
M  V30 1093 H 104.485 0.182598 -0.80659 0
M  V30 1094 H 107.031 -0.389141 -1.65178 0
M  V30 1095 H 105.803 -0.570702 -3.87116 0
M  V30 1096 H 105.426 1.14316 -3.80812 0
M  V30 1097 N 106.423 1.57458 -0.0668435 0
M  V30 1098 C 107.37 2.12439 0.902122 0
M  V30 1099 C 108.34 1.03565 1.2986 0
M  V30 1100 O 109.525 1.312 1.38532 0
M  V30 1101 C 106.665 2.6865 2.16614 0
M  V30 1102 C 105.778 3.91663 1.82274 0
M  V30 1103 C 104.913 4.36134 3.0325 0
M  V30 1104 C 103.952 5.51808 2.64904 0
M  V30 1105 N 103.089 5.9126 3.78624 0
M  V30 1106 H 107.929 2.94934 0.426382 0
M  V30 1107 H 105.466 1.4575 0.198819 0
M  V30 1108 H 107.424 2.99346 2.90599 0
M  V30 1109 H 106.054 1.88928 2.61737 0
M  V30 1110 H 105.106 3.6746 0.983719 0
M  V30 1111 H 106.418 4.75693 1.50059 0
M  V30 1112 H 105.572 4.68465 3.85519 0
M  V30 1113 H 104.311 3.50948 3.38655 0
M  V30 1114 H 103.316 5.19133 1.81055 0
M  V30 1115 H 104.541 6.38722 2.30675 0
M  V30 1116 H 102.487 5.09024 4.138 0
M  V30 1117 H 102.404 6.70018 3.5016 0
M  V30 1118 H 103.672 6.28212 4.61486 0
M  V30 1119 N 107.901 -0.206675 1.56239 0
M  V30 1120 C 109.126 -0.949474 1.8439 0
M  V30 1121 C 109.551 -1.76549 0.649016 0
M  V30 1122 O 108.909 -1.76782 -0.402231 0
M  V30 1123 C 108.957 -1.83078 3.10668 0
M  V30 1124 O 108.061 -2.9281 2.90407 0
M  V30 1125 H 107.402 -0.268033 0.607499 0
M  V30 1126 H 109.932 -0.215488 2.03462 0
M  V30 1127 H 109.942 -2.2377 3.41161 0
M  V30 1128 H 108.617 -1.23112 3.97261 0
M  V30 1129 H 107.194 -2.55956 2.71184 0
M  V30 1130 N 109.379 -1.50304 -0.473955 0
M  V30 1131 C 110.79 -1.54042 -1.0549 0
M  V30 1132 C 111.141 -0.342248 -1.93192 0
M  V30 1133 O 110.266 0.545157 -2.09421 0
M  V30 1134 C 110.861 -2.79152 -1.91989 0
M  V30 1135 C 109.42 -2.8558 -2.45196 0
M  V30 1136 C 108.567 -2.48295 -1.2347 0
M  V30 1137 H 111.518 -1.5661 -0.256693 0
M  V30 1138 H 111.539 -2.60845 -2.7702 0
M  V30 1139 H 111.051 -3.66339 -1.28131 0
M  V30 1140 H 109.152 -2.02738 -3.12615 0
M  V30 1141 H 109.265 -3.88403 -2.80499 0
M  V30 1142 H 107.629 -2.00669 -1.56856 0
M  V30 1143 H 108.412 -3.37787 -0.612789 0
M  V30 1144 N 110.857 0.726932 -1.39834 0
M  V30 1145 C 112.134 1.47902 -1.28001 0
M  V30 1146 C 112.514 2.1083 0.106789 0
M  V30 1147 O 111.862 1.99242 1.11869 0
M  V30 1148 C 112.072 2.52392 -2.41038 0
M  V30 1149 C 113.42 3.18546 -2.80737 0
M  V30 1150 O 114.444 2.62708 -2.40547 0
M  V30 1151 O 113.303 4.19604 -3.50135 0
M  V30 1152 H 110.397 0.657163 -0.502062 0
M  V30 1153 H 112.943 0.760071 -1.51727 0
M  V30 1154 H 111.715 2.04329 -3.33715 0
M  V30 1155 H 111.338 3.31837 -2.19021 0
M  V30 1156 N 112.336 1.25143 0.95797 0
M  V30 1157 C 113.561 1.12521 1.74223 0
M  V30 1158 C 113.986 -0.317402 1.85403 0
M  V30 1159 O 113.344 -1.2299 1.33204 0
M  V30 1160 C 113.392 1.78062 3.1357 0
M  V30 1161 O 112.496 1.058 3.98598 0
M  V30 1162 H 111.837 0.39304 0.535178 0
M  V30 1163 H 114.367 1.65641 1.201 0
M  V30 1164 H 114.377 1.84213 3.64046 0
M  V30 1165 H 113.052 2.83021 3.04749 0
M  V30 1166 H 111.629 1.07506 3.57067 0
M  V30 1167 N 113.814 -1.1601 1.06675 0
M  V30 1168 C 115.225 -1.68235 0.809565 0
M  V30 1169 C 115.576 -1.8454 -0.666303 0
M  V30 1170 O 114.701 -1.54374 -1.5165 0
M  V30 1171 C 115.296 -3.05585 1.46299 0
M  V30 1172 C 113.855 -3.54915 1.25349 0
M  V30 1173 C 113.002 -2.30804 1.53703 0
M  V30 1174 H 115.953 -1.00318 1.22971 0
M  V30 1175 H 115.974 -3.70174 0.880431 0
M  V30 1176 H 115.486 -2.93686 2.53713 0
M  V30 1177 H 113.587 -3.72067 0.199261 0
M  V30 1178 H 113.7 -4.36774 1.9689 0
M  V30 1179 H 112.064 -2.36007 0.957739 0
M  V30 1180 H 112.847 -2.21499 2.62284 0
M  V30 1181 N 115.292 -0.849877 -1.32721 0
M  V30 1182 C 116.202 -0.293791 -2.32753 0
M  V30 1183 C 117.218 0.585906 -1.63839 0
M  V30 1184 O 118.394 0.487413 -1.95413 0
M  V30 1185 C 115.459 0.512752 -3.42887 0
M  V30 1186 C 114.52 -0.39252 -4.27502 0
M  V30 1187 C 113.753 0.375625 -5.32377 0
M  V30 1188 O 113.976 1.60613 -5.4732 0
M  V30 1189 O 112.91 -0.256094 -6.01355 0
M  V30 1190 H 116.736 -1.12242 -2.82197 0
M  V30 1191 H 114.321 -0.612685 -1.36259 0
M  V30 1192 H 116.203 0.970704 -4.10067 0
M  V30 1193 H 114.878 1.31826 -2.95641 0
M  V30 1194 H 113.785 -0.898547 -3.63149 0
M  V30 1195 H 115.118 -1.16309 -4.7826 0
M  V30 1196 N 116.77 1.45427 -0.607355 0
M  V30 1197 C 117.703 2.27635 0.160482 0
M  V30 1198 C 118.681 1.37122 0.873857 0
M  V30 1199 O 119.865 1.66551 0.882775 0
M  V30 1200 C 116.992 3.15486 1.23231 0
M  V30 1201 C 116.038 4.21939 0.622097 0
M  V30 1202 S 116.871 5.32459 -0.569852 0
M  V30 1203 C 118.027 6.23879 0.502577 0
M  V30 1204 H 118.26 2.9241 -0.536983 0
M  V30 1205 H 115.793 1.49265 -0.394868 0
M  V30 1206 H 117.751 3.66659 1.84585 0
M  V30 1207 H 116.412 2.49977 1.90185 0
M  V30 1208 H 115.605 4.8333 1.42856 0
M  V30 1209 H 115.207 3.73906 0.0837063 0
M  V30 1210 H 117.499 6.63261 1.38171 0
M  V30 1211 H 118.442 7.0806 -0.0751759 0
M  V30 1212 H 118.85 5.58545 0.8178 0
M  V30 1213 N 118.248 0.346503 1.53744 0
M  V30 1214 C 119.195 -0.508914 2.25119 0
M  V30 1215 C 120.165 -1.09315 1.25058 0
M  V30 1216 O 121.35 -1.12921 1.53797 0
M  V30 1217 C 118.49 -1.65246 3.02965 0
M  V30 1218 C 117.603 -1.09525 4.17886 0
M  V30 1219 C 116.738 -2.20634 4.83212 0
M  V30 1220 C 115.777 -1.62279 5.90196 0
M  V30 1221 N 114.914 -2.67143 6.49291 0
M  V30 1222 H 119.754 0.106283 2.9781 0
M  V30 1223 H 117.291 0.0642227 1.4696 0
M  V30 1224 H 119.249 -2.32574 3.4636 0
M  V30 1225 H 117.879 -2.2386 2.32565 0
M  V30 1226 H 116.931 -0.312818 3.79112 0
M  V30 1227 H 118.243 -0.628444 4.94825 0
M  V30 1228 H 117.397 -2.95821 5.29693 0
M  V30 1229 H 116.136 -2.70659 4.05703 0
M  V30 1230 H 115.141 -0.855989 5.43096 0
M  V30 1231 H 116.366 -1.13102 6.69615 0
M  V30 1232 H 114.312 -3.16417 5.74645 0
M  V30 1233 H 114.229 -2.25093 7.21713 0
M  V30 1234 H 115.497 -3.4209 7.00425 0
M  V30 1235 N 119.726 -1.57421 0.075193 0
M  V30 1236 C 121.003 -1.85029 -0.634329 0
M  V30 1237 C 121.383 -0.968305 -1.87582 0
M  V30 1238 O 120.731 -0.0354749 -2.28472 0
M  V30 1239 C 120.941 -3.35286 -0.968742 0
M  V30 1240 C 122.289 -4.02875 -1.34077 0
M  V30 1241 O 123.313 -3.40051 -1.06037 0
M  V30 1242 O 122.172 -5.13691 -1.86506 0
M  V30 1243 H 119.266 -0.7645 -0.315387 0
M  V30 1244 H 121.812 -1.69366 0.106382 0
M  V30 1245 H 120.584 -3.91203 -0.0871376 0
M  V30 1246 H 120.207 -3.56223 -1.7661 0
M  V30 1247 N 121.204 0.198386 -1.56346 0
M  V30 1248 C 122.451 0.919286 -1.80431 0
M  V30 1249 C 122.779 1.83393 -0.647866 0
M  V30 1250 O 122.034 1.92236 0.366556 0
M  V30 1251 C 122.333 1.77031 -3.10475 0
M  V30 1252 C 121.999 1.00693 -4.39513 0
M  V30 1253 C 120.661 0.796145 -4.74568 0
M  V30 1254 C 123.013 0.469559 -5.19081 0
M  V30 1255 C 120.341 0.0364588 -5.86689 0
M  V30 1256 C 122.693 -0.2769 -6.31994 0
M  V30 1257 C 121.357 -0.49873 -6.65634 0
M  V30 1258 H 120.627 0.336391 -0.660244 0
M  V30 1259 H 123.274 0.185872 -1.90596 0
M  V30 1260 H 121.579 2.5723 -2.95533 0
M  V30 1261 H 123.276 2.33065 -3.26315 0
M  V30 1262 H 119.866 1.18122 -4.12001 0
M  V30 1263 H 124.05 0.619816 -4.92414 0
M  V30 1264 H 119.306 -0.145412 -6.11227 0
M  V30 1265 H 123.48 -0.700684 -6.92866 0
M  V30 1266 H 121.107 -1.0893 -7.52355 0
M  V30 1267 N 122.682 1.50554 0.465978 0
M  V30 1268 C 124.098 1.38093 0.800154 0
M  V30 1269 C 124.298 0.440988 1.96615 0
M  V30 1270 O 123.354 -0.114499 2.5224 0
M  V30 1271 C 124.667 2.79565 1.10742 0
M  V30 1272 C 126.215 2.88516 1.21357 0
M  V30 1273 C 126.69 4.30833 1.55393 0
M  V30 1274 N 128.181 4.33807 1.62375 0
M  V30 1275 C 128.916 5.40927 1.90225 0
M  V30 1276 N 128.412 6.58247 2.16062 0
M  V30 1277 N 130.205 5.28376 1.9177 0
M  V30 1278 H 122.356 2.10237 -0.302366 0
M  V30 1279 H 124.619 0.945203 -0.0727746 0
M  V30 1280 H 124.325 3.50208 0.323661 0
M  V30 1281 H 124.199 3.17125 2.04234 0
M  V30 1282 H 126.586 2.1809 1.98799 0
M  V30 1283 H 126.667 2.54492 0.258321 0
M  V30 1284 H 126.311 5.01799 0.784889 0
M  V30 1285 H 126.241 4.62347 2.52076 0
M  V30 1286 H 128.732 3.49212 1.44427 0
M  V30 1287 H 129.045 7.3569 2.36601 0
M  V30 1288 H 127.39 6.61413 2.13444 0
M  V30 1289 H 130.581 4.35715 1.71085 0
M  V30 1290 H 130.754 6.11944 2.13139 0
M  V30 1291 N 124.16 -0.719506 1.40217 0
M  V30 1292 C 125.11 -1.8251 1.36653 0
M  V30 1293 C 126.094 -1.59028 0.244732 0
M  V30 1294 O 127.286 -1.70268 0.483524 0
M  V30 1295 C 124.415 -3.20599 1.22763 0
M  V30 1296 C 123.501 -3.49858 2.39708 0
M  V30 1297 N 123.892 -3.49957 3.6519 0
M  V30 1298 C 122.19 -3.80297 2.33002 0
M  V30 1299 C 122.891 -3.77449 4.42614 0
M  V30 1300 N 121.867 -3.96002 3.72402 0
M  V30 1301 H 125.669 -1.80914 2.31619 0
M  V30 1302 H 123.183 -0.918455 1.33933 0
M  V30 1303 H 125.18 -3.99766 1.18292 0
M  V30 1304 H 123.84 -3.23424 0.287614 0
M  V30 1305 H 124.851 -3.309 3.98404 0
M  V30 1306 H 121.528 -3.90635 1.47346 0
M  V30 1307 H 122.918 -3.83863 5.51451 0
M  V30 1308 N 125.638 -1.25649 -0.95132 0
M  V30 1309 C 126.886 -1.10375 -1.69298 0
M  V30 1310 C 127.207 0.355339 -1.91735 0
M  V30 1311 O 126.477 1.25188 -1.50681 0
M  V30 1312 H 125.057 -0.405461 -0.627384 0
M  V30 1313 H 127.719 -1.57823 -1.14358 0
M  V30 1314 H 126.815 -1.61465 -2.67087 0
M  V30 1315 N 127.117 1.15442 -1.07289 0
M  V30 1316 C 128.364 1.86213 -0.795668 0
M  V30 1317 C 128.692 1.82291 0.678238 0
M  V30 1318 O 127.947 1.24057 1.51355 0
M  V30 1319 C 128.246 3.3489 -1.24834 0
M  V30 1320 C 127.912 3.59007 -2.72809 0
M  V30 1321 C 126.574 3.65298 -3.13227 0
M  V30 1322 C 128.926 3.68762 -3.68326 0
M  V30 1323 C 126.254 3.78854 -4.4798 0
M  V30 1324 C 128.606 3.83842 -5.0284 0
M  V30 1325 C 127.27 3.88378 -5.4288 0
M  V30 1326 H 126.54 0.681403 -0.291155 0
M  V30 1327 H 129.187 1.36435 -1.34379 0
M  V30 1328 H 127.492 3.8687 -0.619595 0
M  V30 1329 H 129.189 3.88052 -1.01076 0
M  V30 1330 H 125.779 3.5475 -2.40521 0
M  V30 1331 H 129.963 3.63202 -3.38227 0
M  V30 1332 H 125.219 3.80623 -4.78472 0
M  V30 1333 H 129.393 3.90332 -5.76727 0
M  V30 1334 H 127.02 3.98635 -6.47298 0
M  V30 1335 N 128.595 0.856903 1.32268 0
M  V30 1336 C 129.872 0.382583 1.91822 0
M  V30 1337 C 130.252 -1.13407 1.78051 0
M  V30 1338 O 129.6 -1.95673 1.18001 0
M  V30 1339 C 129.81 0.849446 3.38505 0
M  V30 1340 C 131.158 0.867936 4.15634 0
M  V30 1341 O 132.182 0.794232 3.47232 0
M  V30 1342 O 131.041 0.972286 5.37781 0
M  V30 1343 H 128.135 0.112014 0.819379 0
M  V30 1344 H 130.681 0.943952 1.41024 0
M  V30 1345 H 129.453 1.89267 3.42482 0
M  V30 1346 H 129.076 0.265652 3.96712 0
M  V30 1347 N 130.073 -1.45103 0.615059 0
M  V30 1348 C 131.322 -2.01396 0.110718 0
M  V30 1349 C 131.635 -1.48834 -1.26916 0
M  V30 1350 O 132.841 -1.97152 -1.86664 0
M  V30 1351 C 131.297 -3.59599 0.14723 0
M  V30 1352 C 130.905 -4.21158 1.52743 0
M  V30 1353 C 132.649 -4.23428 -0.30148 0
M  V30 1354 C 130.556 -5.71535 1.51992 0
M  V30 1355 H 129.486 -0.753061 0.0376241 0
M  V30 1356 H 132.137 -1.66494 0.77149 0
M  V30 1357 H 130.519 -3.91724 -0.580339 0
M  V30 1358 H 131.693 -4.00594 2.2773 0
M  V30 1359 H 130.008 -3.69552 1.91886 0
M  V30 1360 H 132.605 -5.33703 -0.326392 0
M  V30 1361 H 132.948 -3.94629 -1.32565 0
M  V30 1362 H 133.481 -3.96047 0.373065 0
M  V30 1363 H 130.22 -6.05044 2.52193 0
M  V30 1364 H 129.74 -5.94268 0.81274 0
M  V30 1365 H 131.419 -6.34873 1.24681 0
M  V30 1366 N 131.551 -0.354651 -1.53558 0
M  V30 1367 C 132.481 0.489091 -2.2832 0
M  V30 1368 C 133.462 1.09324 -1.30316 0
M  V30 1369 O 134.647 1.11255 -1.59173 0
M  V30 1370 C 131.777 1.63456 -3.0643 0
M  V30 1371 C 130.731 1.1582 -4.12031 0
M  V30 1372 C 130.057 2.39305 -4.7816 0
M  V30 1373 C 131.357 0.250731 -5.21698 0
M  V30 1374 H 133.051 -0.134614 -2.99097 0
M  V30 1375 H 130.597 -0.0661826 -1.43848 0
M  V30 1376 H 132.55 2.23136 -3.57475 0
M  V30 1377 H 131.274 2.28533 -2.33325 0
M  V30 1378 H 129.933 0.584146 -3.61916 0
M  V30 1379 H 129.581 3.02814 -4.01637 0
M  V30 1380 H 129.281 2.08109 -5.49513 0
M  V30 1381 H 130.805 2.99691 -5.31994 0
M  V30 1382 H 132.219 0.754695 -5.68311 0
M  V30 1383 H 130.616 0.0301468 -6.00092 0
M  V30 1384 H 131.686 -0.710125 -4.79672 0
M  V30 1385 N 133.029 1.57378 -0.0835403 0
M  V30 1386 C 134.275 1.94217 0.583733 0
M  V30 1387 C 134.608 0.964653 1.68547 0
M  V30 1388 O 133.883 -0.00422258 1.945 0
M  V30 1389 C 134.166 3.41253 1.14972 0
M  V30 1390 C 134.019 4.49768 0.0538277 0
M  V30 1391 C 135.338 3.89352 2.05166 0
M  V30 1392 H 132.457 0.706233 0.210724 0
M  V30 1393 H 135.099 1.89392 -0.1519 0
M  V30 1394 H 133.249 3.45496 1.77665 0
M  V30 1395 H 134.921 4.57641 -0.579851 0
M  V30 1396 H 133.164 4.29432 -0.614068 0
M  V30 1397 H 133.835 5.49817 0.490452 0
M  V30 1398 H 136.311 3.87189 1.52393 0
M  V30 1399 H 135.187 4.92822 2.41698 0
M  V30 1400 H 135.448 3.27973 2.96456 0
M  V30 1401 N 134.507 -0.190092 1.56449 0
M  V30 1402 C 135.755 -0.907908 1.80559 0
M  V30 1403 C 136.076 -1.83583 0.657438 0
M  V30 1404 O 135.346 -1.93203 -0.323924 0
M  V30 1405 H 133.926 -0.338247 0.666032 0
M  V30 1406 H 136.588 -0.194403 1.93928 0
M  V30 1407 H 135.684 -1.49604 2.73907 0
M  V30 1408 N 135.985 -1.50799 -0.457987 0
M  V30 1409 C 136.917 -1.66786 -1.57211 0
M  V30 1410 C 137.93 -0.548962 -1.53265 0
M  V30 1411 O 139.119 -0.8226 -1.58416 0
M  V30 1412 C 136.219 -1.64834 -2.96113 0
M  V30 1413 C 135.392 -2.92971 -3.24787 0
M  V30 1414 C 134.451 -2.83485 -4.43309 0
M  V30 1415 O 133.477 -3.5744 -4.42973 0
M  V30 1416 N 134.679 -1.97929 -5.45714 0
M  V30 1417 H 137.444 -2.62889 -1.43909 0
M  V30 1418 H 135.005 -1.48427 -0.646617 0
M  V30 1419 H 136.997 -1.56084 -3.7339 0
M  V30 1420 H 135.567 -0.764118 -3.03117 0
M  V30 1421 H 134.787 -3.15749 -2.36 0
M  V30 1422 H 136.075 -3.77834 -3.40762 0
M  V30 1423 H 135.473 -1.37182 -5.48815 0
M  V30 1424 H 134.03 -1.95073 -6.21924 0
M  V30 1425 N 137.463 0.71206 -1.40597 0
M  V30 1426 C 138.712 1.46754 -1.38369 0
M  V30 1427 C 139.025 1.95598 0.0097839 0
M  V30 1428 O 140.231 2.71059 0.154677 0
M  V30 1429 C 138.687 2.65289 -2.43207 0
M  V30 1430 C 138.295 2.23301 -3.88382 0
M  V30 1431 C 140.039 3.43008 -2.50091 0
M  V30 1432 C 137.946 3.38696 -4.84808 0
M  V30 1433 H 136.876 0.55118 -0.514506 0
M  V30 1434 H 139.527 0.774616 -1.66349 0
M  V30 1435 H 137.909 3.36769 -2.08332 0
M  V30 1436 H 139.083 1.59218 -4.32419 0
M  V30 1437 H 137.398 1.58618 -3.85006 0
M  V30 1438 H 139.995 4.28881 -3.1932 0
M  V30 1439 H 140.338 3.87065 -1.53253 0
M  V30 1440 H 140.871 2.78574 -2.83974 0
M  V30 1441 H 137.61 2.99668 -5.82992 0
M  V30 1442 H 137.13 4.01683 -4.45433 0
M  V30 1443 H 138.809 4.04712 -5.04794 0
M  V30 1444 N 138.941 1.26152 0.944643 0
M  V30 1445 C 140.218 1.02247 1.66748 0
M  V30 1446 C 140.598 -0.448202 2.06287 0
M  V30 1447 O 139.946 -1.42779 1.78399 0
M  V30 1448 C 140.156 1.96788 2.88228 0
M  V30 1449 C 141.504 2.25201 3.59958 0
M  V30 1450 O 142.528 1.94626 2.98327 0
M  V30 1451 O 141.387 2.77242 4.70956 0
M  V30 1452 H 138.481 0.388517 0.730057 0
M  V30 1453 H 141.027 1.37348 0.99668 0
M  V30 1454 H 139.799 2.96047 2.55875 0
M  V30 1455 H 139.422 1.62145 3.63035 0
M  V30 1456 N 140.419 -1.14872 1.07899 0
M  V30 1457 C 141.696 -1.81928 0.71845 0
M  V30 1458 C 142.076 -1.95417 -0.798455 0
M  V30 1459 O 141.424 -1.50997 -1.715 0
M  V30 1460 C 141.634 -3.17937 1.43935 0
M  V30 1461 C 142.982 -3.93501 1.59506 0
M  V30 1462 O 144.006 -3.27509 1.40058 0
M  V30 1463 O 142.865 -5.1183 1.91551 0
M  V30 1464 H 139.959 -0.78628 0.256305 0
M  V30 1465 H 142.505 -1.21934 1.18026 0
M  V30 1466 H 141.277 -3.0325 2.47295 0
M  V30 1467 H 140.9 -3.85619 0.968687 0
M  V30 1468 N 141.898 -0.863906 -1.31812 0
M  V30 1469 C 142.861 -0.320212 -2.26952 0
M  V30 1470 C 143.861 0.525369 -1.51975 0
M  V30 1471 O 145.051 0.335547 -1.70938 0
M  V30 1472 C 142.183 0.545919 -3.365 0
M  V30 1473 H 143.376 -1.16004 -2.76556 0
M  V30 1474 H 140.929 -0.638995 -1.42641 0
M  V30 1475 H 141.664 1.40718 -2.92179 0
M  V30 1476 H 141.449 -0.0594674 -3.92055 0
M  V30 1477 H 142.939 0.918796 -4.07367 0
M  V30 1478 N 143.376 1.44774 -0.622745 0
M  V30 1479 C 144.306 2.33382 0.0741861 0
M  V30 1480 C 145.287 1.47719 0.843387 0
M  V30 1481 O 146.472 1.76458 0.810934 0
M  V30 1482 C 143.602 3.30663 1.06204 0
M  V30 1483 C 142.556 4.26079 0.405037 0
M  V30 1484 C 141.882 5.13165 1.5022 0
M  V30 1485 C 143.182 5.1781 -0.683414 0
M  V30 1486 H 144.876 2.91905 -0.665713 0
M  V30 1487 H 142.422 1.40363 -0.321587 0
M  V30 1488 H 144.375 3.9153 1.55827 0
M  V30 1489 H 143.099 2.70331 1.83272 0
M  V30 1490 H 141.758 3.66532 -0.0704683 0
M  V30 1491 H 141.406 4.49191 2.26355 0
M  V30 1492 H 141.106 5.77812 1.06803 0
M  V30 1493 H 142.63 5.76902 2.00041 0
M  V30 1494 H 144.044 5.72661 -0.270631 0
M  V30 1495 H 142.441 5.91015 -1.04023 0
M  V30 1496 H 143.511 4.59326 -1.55395 0
M  V30 1497 N 144.854 0.36279 1.53368 0
M  V30 1498 C 145.801 -0.485008 2.25646 0
M  V30 1499 C 146.771 -1.07982 1.2621 0
M  V30 1500 O 147.956 -1.11284 1.54986 0
M  V30 1501 C 145.096 -1.62023 3.04701 0
M  V30 1502 C 144.209 -1.05086 4.19024 0
M  V30 1503 C 143.344 -2.15496 4.85525 0
M  V30 1504 C 142.383 -1.5601 5.91884 0
M  V30 1505 N 141.52 -2.60241 6.52088 0
M  V30 1506 H 146.36 0.137864 2.97681 0
M  V30 1507 H 143.897 0.0798061 1.46883 0
M  V30 1508 H 145.855 -2.28887 3.48807 0
M  V30 1509 H 144.485 -2.2138 2.34927 0
M  V30 1510 H 143.537 -0.27259 3.79422 0
M  V30 1511 H 144.849 -0.575926 4.95464 0
M  V30 1512 H 144.003 -2.90186 5.32801 0
M  V30 1513 H 142.742 -2.66341 4.08551 0
M  V30 1514 H 141.747 -0.798338 5.43973 0
M  V30 1515 H 142.972 -1.05994 6.70777 0
M  V30 1516 H 140.918 -3.10304 5.77968 0
M  V30 1517 H 140.835 -2.17426 7.24059 0
M  V30 1518 H 142.103 -3.34641 7.04014 0
M  V30 1519 N 146.332 -1.57332 0.0918853 0
M  V30 1520 C 147.262 -2.16872 -0.865371 0
M  V30 1521 C 148.243 -1.10118 -1.29646 0
M  V30 1522 O 149.428 -1.38242 -1.36392 0
M  V30 1523 C 146.558 -2.74649 -2.12569 0
M  V30 1524 C 145.512 -3.86747 -1.83333 0
M  V30 1525 C 144.838 -4.31212 -3.16166 0
M  V30 1526 C 146.138 -5.10089 -1.1228 0
M  V30 1527 H 147.832 -2.97114 -0.369307 0
M  V30 1528 H 145.378 -1.42918 -0.176194 0
M  V30 1529 H 147.331 -3.14952 -2.7997 0
M  V30 1530 H 146.055 -1.91657 -2.64452 0
M  V30 1531 H 144.714 -3.46978 -1.18331 0
M  V30 1532 H 144.362 -3.45115 -3.6593 0
M  V30 1533 H 144.062 -5.06788 -2.97388 0
M  V30 1534 H 145.586 -4.74146 -3.84731 0
M  V30 1535 H 147 -5.47582 -1.69785 0
M  V30 1536 H 145.397 -5.91073 -1.03693 0
M  V30 1537 H 146.467 -4.84786 -0.105041 0
M  V30 1538 N 147.81 0.181792 -1.56548 0
M  V30 1539 C 148.773 1.20894 -1.94724 0
M  V30 1540 C 149.773 1.37738 -0.829747 0
M  V30 1541 O 150.963 1.35323 -1.09697 0
M  V30 1542 C 148.095 2.57593 -2.23291 0
M  V30 1543 H 149.288 0.882275 -2.86629 0
M  V30 1544 H 146.841 0.423838 -1.50444 0
M  V30 1545 H 147.576 2.95291 -1.34067 0
M  V30 1546 H 147.361 2.46735 -3.04736 0
M  V30 1547 H 148.851 3.31637 -2.53785 0
M  V30 1548 N 149.288 1.51039 0.449983 0
M  V30 1549 C 150.236 1.71995 1.5659 0
M  V30 1550 C 151.23 0.586029 1.5894 0
M  V30 1551 O 152.436 0.76709 1.62837 0
M  V30 1552 H 148.811 0.543233 0.520001 0
M  V30 1553 H 150.782 2.65562 1.36085 0
M  V30 1554 C 149.531 1.8506 2.9436 0
M  V30 1555 H 148.854 2.71712 2.93279 0
M  V30 1556 H 150.294 2.0374 3.71842 0
M  V30 1557 C 148.753 0.607277 3.31382 0
M  V30 1558 O 149.283 -0.243903 4.00959 0
M  V30 1559 N 147.489 0.455073 2.87015 0
M  V30 1560 H 147.036 1.14879 2.30566 0
M  V30 1561 H 146.994 -0.375611 3.12148 0
M  V30 1562 N 150.766 -0.704594 1.40972 0
M  V30 1563 C 151.676 -1.84856 1.44448 0
M  V30 1564 C 152.692 -1.70726 0.335961 0
M  V30 1565 O 153.868 -1.92799 0.582276 0
M  V30 1566 C 150.933 -3.20758 1.31587 0
M  V30 1567 C 149.994 -3.47063 2.52677 0
M  V30 1568 C 149.227 -4.76481 2.4042 0
M  V30 1569 O 149.45 -5.52341 1.42391 0
M  V30 1570 O 148.384 -5.03367 3.30007 0
M  V30 1571 H 152.21 -1.8488 2.40942 0
M  V30 1572 H 149.795 -0.85647 1.22413 0
M  V30 1573 H 151.677 -4.01913 1.26665 0
M  V30 1574 H 150.352 -3.21438 0.382049 0
M  V30 1575 H 149.259 -2.65873 2.63177 0
M  V30 1576 H 150.592 -3.5119 3.44858 0
M  V30 1577 N 152.244 -1.26651 -0.937939 0
M  V30 1578 C 153.492 -1.12165 -1.68118 0
M  V30 1579 C 153.813 0.334983 -1.92101 0
M  V30 1580 O 153.083 1.23583 -1.52 0
M  V30 1581 H 151.663 -0.412093 -0.623048 0
M  V30 1582 H 154.325 -1.59027 -1.12678 0
M  V30 1583 H 153.421 -1.64289 -2.6536 0
M  V30 1584 N 153.722 1.14298 -1.08507 0
M  V30 1585 C 154.669 2.19414 -0.715965 0
M  V30 1586 C 155.639 1.63399 0.298326 0
M  V30 1587 O 156.824 1.89929 0.182101 0
M  V30 1588 C 153.964 3.44845 -0.132534 0
M  V30 1589 C 153.077 4.15007 -1.19973 0
M  V30 1590 C 152.212 5.28024 -0.580048 0
M  V30 1591 C 151.251 5.9002 -1.62921 0
M  V30 1592 N 150.388 6.94485 -1.03125 0
M  V30 1593 H 155.228 2.50336 -1.61666 0
M  V30 1594 H 152.765 1.2293 -0.807882 0
M  V30 1595 H 154.723 4.16601 0.223454 0
M  V30 1596 H 153.353 3.14403 0.731467 0
M  V30 1597 H 152.405 3.41629 -1.67313 0
M  V30 1598 H 153.717 4.57178 -1.99473 0
M  V30 1599 H 152.871 6.06455 -0.172364 0
M  V30 1600 H 151.61 4.87076 0.246603 0
M  V30 1601 H 150.615 5.10291 -2.04654 0
M  V30 1602 H 151.84 6.33042 -2.45835 0
M  V30 1603 H 149.786 6.55612 -0.225711 0
M  V30 1604 H 149.703 7.35148 -1.76334 0
M  V30 1605 H 150.971 7.7679 -0.649458 0
M  V30 1606 N 155.201 0.870884 1.31352 0
M  V30 1607 C 156.447 0.482987 1.96965 0
M  V30 1608 C 156.78 -0.962462 1.68672 0
M  V30 1609 O 156.055 -1.6779 0.98371 0
M  V30 1610 C 156.338 0.741752 3.52378 0
M  V30 1611 C 156.191 2.2368 3.9024 0
M  V30 1612 C 157.51 0.208838 4.39604 0
M  V30 1613 H 154.629 0.176955 0.715441 0
M  V30 1614 H 157.271 1.09229 1.55464 0
M  V30 1615 H 155.421 0.223149 3.87859 0
M  V30 1616 H 157.093 2.82273 3.64856 0
M  V30 1617 H 155.336 2.70901 3.38814 0
M  V30 1618 H 156.007 2.3685 4.98604 0
M  V30 1619 H 158.483 0.652529 4.10952 0
M  V30 1620 H 157.359 0.419336 5.47296 0
M  V30 1621 H 157.62 -0.889275 4.33064 0
M  V30 1622 N 156.679 -1.44442 0.630414 0
M  V30 1623 C 157.626 -2.30678 -0.0749355 0
M  V30 1624 C 158.596 -1.4344 -0.837502 0
M  V30 1625 O 159.781 -1.72343 -0.818684 0
M  V30 1626 C 156.921 -3.28706 -1.05103 0
M  V30 1627 C 156.034 -4.31046 -0.286954 0
M  V30 1628 C 155.169 -5.16167 -1.2548 0
M  V30 1629 C 154.208 -6.10216 -0.479843 0
M  V30 1630 N 153.345 -6.88039 -1.39811 0
M  V30 1631 H 158.185 -2.90454 0.666386 0
M  V30 1632 H 155.722 -1.43107 0.340404 0
M  V30 1633 H 157.68 -3.84027 -1.63031 0
M  V30 1634 H 156.31 -2.70632 -1.75949 0
M  V30 1635 H 155.362 -3.78203 0.408243 0
M  V30 1636 H 156.674 -4.97794 0.316657 0
M  V30 1637 H 155.828 -5.76002 -1.90544 0
M  V30 1638 H 154.567 -4.49491 -1.89233 0
M  V30 1639 H 153.572 -5.49491 0.184295 0
M  V30 1640 H 154.797 -6.78928 0.152965 0
M  V30 1641 H 152.743 -6.24032 -2.02287 0
M  V30 1642 H 152.66 -7.51223 -0.848508 0
M  V30 1643 H 153.928 -7.52397 -2.03762 0
M  V30 1644 N 158.157 -0.370918 -1.53173 0
M  V30 1645 C 159.067 0.480823 -2.2962 0
M  V30 1646 C 160.083 1.08789 -1.35798 0
M  V30 1647 O 161.259 1.09768 -1.68858 0
M  V30 1648 C 158.324 1.60227 -3.07454 0
M  V30 1649 C 157.385 1.0222 -4.16953 0
M  V30 1650 C 156.618 2.0902 -4.91066 0
M  V30 1651 O 156.841 3.30222 -4.65091 0
M  V30 1652 O 155.775 1.71778 -5.76867 0
M  V30 1653 H 159.601 -0.141421 -3.03371 0
M  V30 1654 H 157.186 -0.135146 -1.48787 0
M  V30 1655 H 159.068 2.25417 -3.56041 0
M  V30 1656 H 157.743 2.20982 -2.36535 0
M  V30 1657 H 156.65 0.334064 -3.72605 0
M  V30 1658 H 157.983 0.459131 -4.90054 0
M  V30 1659 N 159.635 1.57281 -0.100228 0
M  V30 1660 C 160.598 2.13158 0.842398 0
M  V30 1661 C 161.598 1.06202 1.20738 0
M  V30 1662 O 162.788 1.32066 1.13597 0
M  V30 1663 C 159.92 2.65639 2.13655 0
M  V30 1664 H 161.113 2.97766 0.357114 0
M  V30 1665 H 158.666 1.5559 0.148823 0
M  V30 1666 H 159.401 1.84566 2.66657 0
M  V30 1667 H 159.186 3.43844 1.88451 0
M  V30 1668 H 160.676 3.08846 2.81077 0
M  V30 1669 N 161.113 -0.173488 1.56642 0
M  V30 1670 C 162.045 -1.23935 1.92802 0
M  V30 1671 C 163.058 -1.40589 0.820889 0
M  V30 1672 O 164.247 -1.40631 1.09933 0
M  V30 1673 C 161.347 -2.60837 2.16373 0
M  V30 1674 C 160.52 -2.6551 3.47596 0
M  V30 1675 C 159.579 -3.8376 3.60021 0
M  V30 1676 O 158.605 -3.69859 4.32658 0
M  V30 1677 N 159.807 -5.00127 2.94709 0
M  V30 1678 H 162.572 -0.932236 2.84832 0
M  V30 1679 H 160.133 -0.363268 1.57772 0
M  V30 1680 H 162.125 -3.38407 2.21952 0
M  V30 1681 H 160.695 -2.83948 1.30738 0
M  V30 1682 H 159.915 -1.74052 3.53694 0
M  V30 1683 H 161.203 -2.65641 4.33949 0
M  V30 1684 H 160.601 -5.14322 2.35563 0
M  V30 1685 H 159.158 -5.75567 3.05886 0
M  V30 1686 N 162.591 -1.51276 -0.441967 0
M  V30 1687 C 163.554 -1.7167 -1.51862 0
M  V30 1688 C 164.554 -0.586793 -1.49711 0
M  V30 1689 O 165.744 -0.854276 -1.51815 0
M  V30 1690 C 162.876 -1.76889 -2.91416 0
M  V30 1691 H 164.069 -2.67754 -1.35084 0
M  V30 1692 H 161.622 -1.41196 -0.670333 0
M  V30 1693 H 162.357 -0.826026 -3.13604 0
M  V30 1694 H 162.142 -2.59001 -2.94382 0
M  V30 1695 H 163.632 -1.94522 -3.69528 0
M  V30 1696 N 164.069 0.697108 -1.41344 0
M  V30 1697 C 165.032 1.79281 -1.42797 0
M  V30 1698 C 166.032 1.57607 -0.318837 0
M  V30 1699 O 167.222 1.64309 -0.578642 0
M  V30 1700 C 164.354 3.17632 -1.23785 0
M  V30 1701 H 165.547 1.79385 -2.40335 0
M  V30 1702 H 163.1 0.904582 -1.27464 0
M  V30 1703 H 163.835 3.23167 -0.270814 0
M  V30 1704 H 163.62 3.34765 -2.04144 0
M  V30 1705 H 165.11 3.97617 -1.27633 0
M  V30 1706 N 165.547 1.27147 0.931209 0
M  V30 1707 C 166.51 1.09615 2.01289 0
M  V30 1708 C 167.51 0.0412581 1.60747 0
M  V30 1709 O 168.7 0.285545 1.71844 0
M  V30 1710 C 165.832 0.669447 3.34262 0
M  V30 1711 H 167.025 2.05662 2.18273 0
M  V30 1712 H 164.578 1.09885 1.11153 0
M  V30 1713 H 165.313 -0.292572 3.22978 0
M  V30 1714 H 165.098 1.43127 3.65044 0
M  V30 1715 H 166.588 0.568921 4.13706 0
M  V30 1716 N 167.025 -1.13721 1.09112 0
M  V30 1717 C 167.935 -2.22638 0.73957 0
M  V30 1718 C 168.951 -1.72091 -0.257068 0
M  V30 1719 O 170.127 -2.01155 -0.0992154 0
M  V30 1720 C 167.192 -3.46322 0.16191 0
M  V30 1721 C 166.253 -4.11775 1.21408 0
M  V30 1722 C 165.486 -5.29555 0.663891 0
M  V30 1723 O 165.709 -5.68077 -0.514274 0
M  V30 1724 O 164.643 -5.84973 1.41738 0
M  V30 1725 H 168.469 -2.55074 1.64836 0
M  V30 1726 H 166.054 -1.21791 0.865289 0
M  V30 1727 H 167.936 -4.21107 -0.157073 0
M  V30 1728 H 166.611 -3.15593 -0.719932 0
M  V30 1729 H 165.518 -3.3883 1.58571 0
M  V30 1730 H 166.851 -4.46627 2.06845 0
M  V30 1731 N 168.503 -0.877838 -1.30888 0
M  V30 1732 C 169.435 -0.296607 -2.27273 0
M  V30 1733 C 170.448 0.544799 -1.53414 0
M  V30 1734 O 171.637 0.365511 -1.74718 0
M  V30 1735 C 168.737 0.597481 -3.33592 0
M  V30 1736 C 167.91 -0.213251 -4.3688 0
M  V30 1737 C 166.969 0.610208 -5.2265 0
M  V30 1738 O 165.995 0.035441 -5.69189 0
M  V30 1739 N 167.197 1.92071 -5.47804 0
M  V30 1740 H 169.962 -1.12492 -2.77787 0
M  V30 1741 H 167.523 -0.740105 -1.43993 0
M  V30 1742 H 169.515 1.15425 -3.87891 0
M  V30 1743 H 168.085 1.32647 -2.83061 0
M  V30 1744 H 167.305 -0.951466 -3.82545 0
M  V30 1745 H 168.593 -0.769262 -5.02951 0
M  V30 1746 H 167.991 2.4107 -5.11763 0
M  V30 1747 H 166.548 2.42508 -6.05007 0
M  V30 1748 N 169.982 1.44106 -0.638065 0
M  V30 1749 C 170.912 2.33448 0.0494287 0
M  V30 1750 C 171.893 1.48606 0.827672 0
M  V30 1751 O 173.078 1.77308 0.792173 0
M  V30 1752 C 170.208 3.31771 1.02691 0
M  V30 1753 C 169.162 4.26485 0.359823 0
M  V30 1754 C 168.488 5.14729 1.44769 0
M  V30 1755 C 169.788 5.17056 -0.738296 0
M  V30 1756 H 171.482 2.91183 -0.696636 0
M  V30 1757 H 169.028 1.40014 -0.336456 0
M  V30 1758 H 170.981 3.93161 1.51666 0
M  V30 1759 H 169.705 2.7226 1.80395 0
M  V30 1760 H 168.364 3.66437 -0.10934 0
M  V30 1761 H 168.012 4.51566 2.21578 0
M  V30 1762 H 167.712 5.78913 1.00668 0
M  V30 1763 H 169.236 5.78991 1.93911 0
M  V30 1764 H 170.65 5.72342 -0.331354 0
M  V30 1765 H 169.047 5.89879 -1.10286 0
M  V30 1766 H 170.117 4.57652 -1.60258 0
M  V30 1767 N 171.46 0.379036 1.52974 0
M  V30 1768 C 172.407 -0.461048 2.26148 0
M  V30 1769 C 173.377 -1.06637 1.27349 0
M  V30 1770 O 174.562 -1.09633 1.56157 0
M  V30 1771 C 171.702 -1.58782 3.06402 0
M  V30 1772 C 170.815 -1.00636 4.20115 0
M  V30 1773 C 169.95 -2.10334 4.87784 0
M  V30 1774 C 168.989 -1.49724 5.93506 0
M  V30 1775 N 168.126 -2.5331 6.54812 0
M  V30 1776 H 172.966 0.169429 2.97518 0
M  V30 1777 H 170.503 0.0953806 1.4679 0
M  V30 1778 H 172.461 -2.25174 3.51215 0
M  V30 1779 H 171.091 -2.18876 2.37261 0
M  V30 1780 H 170.143 -0.232332 3.7969 0
M  V30 1781 H 171.455 -0.523343 4.96047 0
M  V30 1782 H 170.609 -2.84519 5.35849 0
M  V30 1783 H 169.348 -2.61992 4.11353 0
M  V30 1784 H 168.353 -0.740598 5.44789 0
M  V30 1785 H 169.578 -0.988732 6.71864 0
M  V30 1786 H 167.524 -3.04156 5.81227 0
M  V30 1787 H 167.441 -2.09734 7.26325 0
M  V30 1788 H 168.709 -3.27155 7.07524 0
M  V30 1789 N 172.938 -1.57226 0.108567 0
M  V30 1790 C 174.166 -1.99179 -0.559954 0
M  V30 1791 C 174.581 -0.988022 -1.60884 0
M  V30 1792 O 173.938 0.0205512 -1.82488 0
M  V30 1793 C 173.989 -3.41159 -1.19552 0
M  V30 1794 O 173.71 -4.37694 -0.188577 0
M  V30 1795 C 175.211 -3.98188 -1.94837 0
M  V30 1796 H 172.431 -0.654228 -0.149088 0
M  V30 1797 H 174.975 -2.03598 0.19183 0
M  V30 1798 H 173.13 -3.37711 -1.89815 0
M  V30 1799 H 173.544 -5.20469 -0.649014 0
M  V30 1800 H 175.018 -4.99644 -2.34648 0
M  V30 1801 H 175.495 -3.3675 -2.81951 0
M  V30 1802 H 176.101 -4.0515 -1.2936 0
M  V30 1803 N 174.416 0.165178 -1.56732 0
M  V30 1804 C 175.644 0.896218 -1.86482 0
M  V30 1805 C 176.059 1.75555 -0.694675 0
M  V30 1806 O 175.416 1.79379 0.33607 0
M  V30 1807 C 175.467 1.76792 -3.1532 0
M  V30 1808 O 175.188 0.943239 -4.27825 0
M  V30 1809 C 176.689 2.6081 -3.58459 0
M  V30 1810 H 173.909 0.260064 -0.618553 0
M  V30 1811 H 176.453 0.163428 -2.03846 0
M  V30 1812 H 174.608 2.45398 -2.99764 0
M  V30 1813 H 175.022 1.53998 -5.01383 0
M  V30 1814 H 176.496 3.17579 -4.51495 0
M  V30 1815 H 176.973 3.35977 -2.82872 0
M  V30 1816 H 177.579 1.97526 -3.76648 0
M  V30 1817 N 175.894 1.51508 0.433938 0
M  V30 1818 C 177.31 1.39759 0.770682 0
M  V30 1819 C 177.51 0.482594 1.95636 0
M  V30 1820 O 176.566 -0.0609691 2.52426 0
M  V30 1821 C 177.879 2.81851 1.04787 0
M  V30 1822 C 179.427 2.91025 1.1521 0
M  V30 1823 C 179.902 4.34032 1.46219 0
M  V30 1824 N 181.393 4.37154 1.53136 0
M  V30 1825 C 182.128 5.4484 1.78709 0
M  V30 1826 N 181.624 6.62682 2.02051 0
M  V30 1827 N 183.417 5.32324 1.80519 0
M  V30 1828 H 175.568 2.09548 -0.346892 0
M  V30 1829 H 177.831 0.943446 -0.0928074 0
M  V30 1830 H 177.537 3.50815 0.249304 0
M  V30 1831 H 177.411 3.21386 1.97461 0
M  V30 1832 H 179.798 2.22257 1.94128 0
M  V30 1833 H 179.879 2.54983 0.204281 0
M  V30 1834 H 179.523 5.03351 0.678274 0
M  V30 1835 H 179.453 4.6759 2.42212 0
M  V30 1836 H 181.944 3.52197 1.36987 0
M  V30 1837 H 182.257 7.40543 2.20943 0
M  V30 1838 H 180.602 6.65791 1.99366 0
M  V30 1839 H 183.793 4.39246 1.61805 0
M  V30 1840 H 183.966 6.16328 2.00111 0
M  V30 1841 N 177.372 -0.689602 1.41712 0
M  V30 1842 C 178.32 -1.82475 1.44242 0
M  V30 1843 C 179.314 -1.66354 0.319774 0
M  V30 1844 O 180.52 -1.73143 0.492089 0
M  V30 1845 H 176.895 -0.601416 0.451445 0
M  V30 1846 H 178.866 -1.77458 2.39899 0
M  V30 1847 C 177.615 -3.20535 1.3473 0
M  V30 1848 H 176.938 -3.33559 2.20405 0
M  V30 1849 H 178.378 -4.00023 1.40562 0
M  V30 1850 C 176.837 -3.36846 0.0603281 0
M  V30 1851 O 177.367 -3.91656 -0.892663 0
M  V30 1852 N 175.573 -2.90595 -0.0177039 0
M  V30 1853 H 175.12 -2.46178 0.758572 0
M  V30 1854 H 175.078 -3.01886 -0.878201 0
M  V30 1855 N 178.85 -1.27639 -0.924453 0
M  V30 1856 C 179.813 -1.10681 -2.00705 0
M  V30 1857 C 180.813 -0.0497823 -1.60723 0
M  V30 1858 O 182.003 -0.294654 -1.7169 0
M  V30 1859 C 179.135 -0.687164 -3.33902 0
M  V30 1860 H 180.328 -2.06817 -2.17179 0
M  V30 1861 H 177.881 -1.10473 -1.10569 0
M  V30 1862 H 178.616 0.275439 -3.23128 0
M  V30 1863 H 178.401 -1.45061 -3.6428 0
M  V30 1864 H 179.891 -0.590853 -4.13399 0
M  V30 1865 N 180.328 1.1314 -1.09713 0
M  V30 1866 C 181.558 1.88048 -0.855656 0
M  V30 1867 C 181.966 1.79537 0.596919 0
M  V30 1868 O 181.309 1.16196 1.42282 0
M  V30 1869 C 181.371 3.38314 -1.21589 0
M  V30 1870 C 181.035 3.70605 -2.67397 0
M  V30 1871 C 182.032 3.69596 -3.65643 0
M  V30 1872 C 179.717 4.0017 -3.03593 0
M  V30 1873 C 181.711 3.977 -4.9811 0
M  V30 1874 C 179.398 4.27935 -4.36251 0
M  V30 1875 C 180.396 4.26685 -5.33318 0
M  V30 1876 O 180.084 4.53767 -6.63589 0
M  V30 1877 H 179.816 0.60208 -0.307368 0
M  V30 1878 H 182.37 1.44128 -1.46343 0
M  V30 1879 H 180.6 3.82752 -0.551177 0
M  V30 1880 H 182.289 3.94552 -0.953083 0
M  V30 1881 H 183.055 3.46826 -3.39023 0
M  V30 1882 H 178.934 4.00289 -2.2867 0
M  V30 1883 H 182.478 3.9664 -5.73866 0
M  V30 1884 H 178.375 4.50178 -4.62613 0
M  V30 1885 H 179.143 4.71422 -6.69107 0
M  V30 1886 N 181.806 0.884767 1.30421 0
M  V30 1887 C 182.756 0.322846 2.25703 0
M  V30 1888 C 183.74 -0.548582 1.51259 0
M  V30 1889 O 184.932 -0.39304 1.72581 0
M  V30 1890 C 182.061 -0.461787 3.4018 0
M  V30 1891 C 181.147 0.423717 4.21978 0
M  V30 1892 N 181.538 1.52408 4.82292 0
M  V30 1893 C 179.836 0.218795 4.45463 0
M  V30 1894 C 180.537 2.07136 5.43571 0
M  V30 1895 N 179.513 1.36635 5.26148 0
M  V30 1896 H 183.315 1.16363 2.69883 0
M  V30 1897 H 180.829 0.73415 1.44859 0
M  V30 1898 H 182.826 -0.880985 4.07485 0
M  V30 1899 H 181.486 -1.30001 2.9754 0
M  V30 1900 H 182.497 1.90693 4.81515 0
M  V30 1901 H 179.174 -0.582275 4.1342 0
M  V30 1902 H 180.564 2.99538 6.01437 0
M  V30 1903 N 183.284 -1.43765 0.645699 0
M  V30 1904 C 184.216 -2.29027 -0.0890605 0
M  V30 1905 C 185.229 -1.42093 -0.794563 0
M  V30 1906 O 186.418 -1.66104 -0.653575 0
M  V30 1907 C 183.518 -3.18831 -1.14891 0
M  V30 1908 C 182.691 -4.34261 -0.523043 0
M  V30 1909 C 181.75 -5.04994 -1.47878 0
M  V30 1910 O 180.776 -5.6052 -0.990277 0
M  V30 1911 N 181.978 -5.07795 -2.81291 0
M  V30 1912 H 184.743 -2.92727 0.64272 0
M  V30 1913 H 182.304 -1.54373 0.487924 0
M  V30 1914 H 184.296 -3.63015 -1.78892 0
M  V30 1915 H 182.866 -2.56782 -1.78275 0
M  V30 1916 H 182.086 -3.93088 0.295896 0
M  V30 1917 H 183.374 -5.08728 -0.0858147 0
M  V30 1918 H 182.772 -4.64042 -3.23546 0
M  V30 1919 H 181.329 -5.55721 -3.40614 0
M  V30 1920 N 184.763 -0.387143 -1.52771 0
M  V30 1921 C 185.71 0.449048 -2.26389 0
M  V30 1922 C 186.68 1.05961 -1.27912 0
M  V30 1923 O 187.865 1.08804 -1.56737 0
M  V30 1924 C 185.005 1.57155 -3.0724 0
M  V30 1925 C 184.118 0.984066 -4.20643 0
M  V30 1926 C 183.253 2.07745 -4.88892 0
M  V30 1927 C 182.292 1.46574 -5.94292 0
M  V30 1928 N 181.429 2.49834 -6.56146 0
M  V30 1929 H 186.269 -0.185205 -2.97424 0
M  V30 1930 H 183.806 -0.103164 -1.46738 0
M  V30 1931 H 185.764 2.23309 -3.52405 0
M  V30 1932 H 184.394 2.17615 -2.38419 0
M  V30 1933 H 183.446 0.212193 -3.79808 0
M  V30 1934 H 184.758 0.497029 -4.96318 0
M  V30 1935 H 183.912 2.81673 -5.3735 0
M  V30 1936 H 182.651 2.59807 -4.12737 0
M  V30 1937 H 181.656 0.711696 -5.45174 0
M  V30 1938 H 182.881 0.953088 -6.72379 0
M  V30 1939 H 180.827 3.0107 -5.82832 0
M  V30 1940 H 180.744 2.05879 -7.27427 0
M  V30 1941 H 182.012 3.23399 -7.09249 0
M  V30 1942 N 186.241 1.57166 -0.116904 0
M  V30 1943 C 187.471 1.99184 0.548586 0
M  V30 1944 C 187.879 0.995436 1.60897 0
M  V30 1945 O 187.222 -0.0201293 1.83689 0
M  V30 1946 C 187.284 3.37611 1.23526 0
M  V30 1947 C 186.948 4.55857 0.323077 0
M  V30 1948 C 187.945 5.18056 -0.437476 0
M  V30 1949 C 185.63 5.01751 0.234761 0
M  V30 1950 C 187.624 6.24536 -1.2741 0
M  V30 1951 C 185.311 6.08093 -0.605496 0
M  V30 1952 C 186.309 6.69352 -1.35856 0
M  V30 1953 O 185.997 7.7364 -2.18487 0
M  V30 1954 H 185.729 0.659148 0.149999 0
M  V30 1955 H 188.283 2.0443 -0.199428 0
M  V30 1956 H 186.513 3.29113 2.0303 0
M  V30 1957 H 188.202 3.63932 1.79745 0
M  V30 1958 H 188.968 4.83516 -0.379105 0
M  V30 1959 H 184.847 4.53817 0.810601 0
M  V30 1960 H 188.391 6.72281 -1.86237 0
M  V30 1961 H 184.288 6.42063 -0.665268 0
M  V30 1962 H 185.056 7.90727 -2.11406 0
M  V30 1963 N 187.719 -0.156864 1.56817 0
M  V30 1964 C 189.135 -0.50916 1.5126 0
M  V30 1965 C 189.335 -1.83897 0.823658 0
M  V30 1966 O 188.391 -2.49469 0.390055 0
M  V30 1967 C 189.704 -0.52857 2.96018 0
M  V30 1968 C 191.252 -0.614771 3.06903 0
M  V30 1969 C 191.727 -0.664938 4.53147 0
M  V30 1970 N 193.218 -0.727433 4.57452 0
M  V30 1971 C 193.953 -0.787067 5.67973 0
M  V30 1972 N 193.449 -0.806649 6.88088 0
M  V30 1973 N 195.242 -0.827195 5.5598 0
M  V30 1974 H 187.393 0.714935 2.00006 0
M  V30 1975 H 189.656 0.259526 0.911784 0
M  V30 1976 H 189.362 0.380154 3.49639 0
M  V30 1977 H 189.236 -1.36998 3.51442 0
M  V30 1978 H 191.623 -1.51392 2.53307 0
M  V30 1979 H 191.704 0.253597 2.5454 0
M  V30 1980 H 191.348 0.230011 5.07379 0
M  V30 1981 H 191.278 -1.54966 5.03282 0
M  V30 1982 H 193.769 -0.719998 3.70978 0
M  V30 1983 H 194.082 -0.853727 7.6807 0
M  V30 1984 H 192.427 -0.774687 6.90669 0
M  V30 1985 H 195.618 -0.808998 4.61056 0
M  V30 1986 H 195.791 -0.870206 6.4213 0
M  V30 1987 O 189.236 -1.58657 -0.301679 0
M  V30 1988 H 189.927 -1.6887 -0.948812 0
M  V30 END ATOM
M  V30 BEGIN BOND
M  V30 END BOND
M  V30 END CTAB
M  END
$$$$
