drugbank_target|P0ABA0 ATP synthase subunit b (DB03091)
 OpenBabel12092120033D

  0  0  0     0  0            999 V3000
M  V30 BEGIN CTAB
M  V30 COUNTS 2478 2486 0 0 0
M  V30 BEGIN ATOM
M  V30 1 H -0.908 1.98254 -0.117106 0
M  V30 2 N 0 1.576 0 0
M  V30 3 C 0.933 2.03868 1.02534 0
M  V30 4 C 1.911 0.928543 1.3348 0
M  V30 5 O 3.095 1.19667 1.45644 0
M  V30 6 C 0.222 2.43627 2.35294 0
M  V30 7 C -0.732 3.65373 2.2001 0
M  V30 8 S 0.101 5.13292 1.52614 0
M  V30 9 C 1.257 5.56322 2.86805 0
M  V30 10 H 1.49 2.90518 0.631377 0
M  V30 11 H -0.977 1.52953 0.210867 0
M  V30 12 H 0.981 2.67203 3.11629 0
M  V30 13 H -0.358 1.57376 2.7183 0
M  V30 14 H -1.165 3.90944 3.18086 0
M  V30 15 H -1.563 3.418 1.51819 0
M  V30 16 H 0.729 5.58782 3.83104 0
M  V30 17 H 1.672 6.56266 2.65933 0
M  V30 18 H 2.08 4.83886 2.90714 0
M  V30 19 N 1.4781 -0.272755 1.55222 0
M  V30 20 C 2.4261 -1.35705 1.88909 0
M  V30 21 C 3.4201 -1.5112 0.765456 0
M  V30 22 O 4.6261 -1.52901 0.949802 0
M  V30 23 H 1.0011 -0.453868 0.59959 0
M  V30 24 H 2.9721 -1.04544 2.79487 0
M  V30 25 C 1.7211 -2.71049 2.17779 0
M  V30 26 H 1.0441 -2.59979 3.03728 0
M  V30 27 H 2.4841 -3.45858 2.45272 0
M  V30 28 C 0.9431 -3.22165 0.985473 0
M  V30 29 O 1.4731 -4.01096 0.220233 0
M  V30 30 N -0.3209 -2.7985 0.783108 0
M  V30 31 H -0.7739 -2.15775 1.40708 0
M  V30 32 H -0.8159 -3.14397 -0.0130392 0
M  V30 33 N 2.9562 -1.48159 -0.537278 0
M  V30 34 C 3.8862 -1.65029 -1.6519 0
M  V30 35 C 4.8672 -0.499281 -1.62607 0
M  V30 36 O 6.0522 -0.730972 -1.79918 0
M  V30 37 C 3.1822 -1.68303 -3.03795 0
M  V30 38 C 2.1362 -2.8283 -3.21234 0
M  V30 39 C 1.4622 -2.71189 -4.60826 0
M  V30 40 C 2.7622 -4.24211 -3.04701 0
M  V30 41 H 4.4562 -2.58341 -1.51328 0
M  V30 42 H 2.0022 -1.24325 -0.726585 0
M  V30 43 H 3.9552 -1.78693 -3.81637 0
M  V30 44 H 2.6792 -0.715635 -3.18663 0
M  V30 45 H 1.3382 -2.71983 -2.45807 0
M  V30 46 H 0.9862 -1.72435 -4.7252 0
M  V30 47 H 0.6862 -3.48035 -4.7344 0
M  V30 48 H 2.2102 -2.83537 -5.40777 0
M  V30 49 H 3.6242 -4.3593 -3.72341 0
M  V30 50 H 2.0212 -5.01998 -3.28813 0
M  V30 51 H 3.0912 -4.41184 -2.01209 0
M  V30 52 N 4.4343 0.785586 -1.36625 0
M  V30 53 C 5.3823 1.91978 -1.31329 0
M  V30 54 C 6.3763 1.68162 -0.204416 0
M  V30 55 O 7.5823 1.76122 -0.371645 0
M  V30 56 H 3.9573 0.631087 -0.408942 0
M  V30 57 H 5.9283 1.93562 -2.27104 0
M  V30 58 C 4.6773 3.29055 -1.12329 0
M  V30 59 H 4.0003 3.4795 -1.96903 0
M  V30 60 H 5.4403 4.08756 -1.12671 0
M  V30 61 C 3.8993 3.36461 0.171861 0
M  V30 62 O 4.4293 3.84576 1.16035 0
M  V30 63 N 2.6353 2.89782 0.217846 0
M  V30 64 H 2.1823 2.50819 -0.587183 0
M  V30 65 H 2.1403 2.95119 1.08408 0
M  V30 66 N 5.9124 1.20967 1.01018 0
M  V30 67 C 6.8754 0.965918 2.07853 0
M  V30 68 C 7.8754 -0.0610545 1.60684 0
M  V30 69 O 9.0654 0.175681 1.73312 0
M  V30 70 C 6.1974 0.455513 3.37843 0
M  V30 71 H 7.3904 1.91365 2.3091 0
M  V30 72 H 4.9434 1.02594 1.17916 0
M  V30 73 H 5.6784 -0.497381 3.20463 0
M  V30 74 H 5.4634 1.19622 3.73407 0
M  V30 75 H 6.9534 0.304667 4.16487 0
M  V30 76 N 7.3905 -1.2043 1.01659 0
M  V30 77 C 8.6185 -1.93777 0.725132 0
M  V30 78 C 9.0335 -1.74772 -0.714166 0
M  V30 79 O 8.3905 -1.06169 -1.4844 0
M  V30 80 C 8.4415 -3.45876 1.05129 0
M  V30 81 O 8.1625 -3.6426 2.43406 0
M  V30 82 C 9.6635 -4.36368 0.780891 0
M  V30 83 H 6.8835 -0.615901 0.266284 0
M  V30 84 H 9.4275 -1.52922 1.35776 0
M  V30 85 H 7.5825 -3.8461 0.464065 0
M  V30 86 H 7.9965 -4.58246 2.55169 0
M  V30 87 H 9.4705 -5.41743 1.05918 0
M  V30 88 H 9.9475 -4.38275 -0.284937 0
M  V30 89 H 10.5535 -4.03296 1.35027 0
M  V30 90 N 8.8686 -0.792821 -1.36206 0
M  V30 91 C 10.1176 -0.363353 -1.984 0
M  V30 92 C 10.4306 1.07172 -1.63626 0
M  V30 93 O 11.6366 1.60362 -2.19081 0
M  V30 94 C 10.0926 -0.59872 -3.54885 0
M  V30 95 C 9.7006 -2.04543 -3.9858 0
M  V30 96 C 11.4446 -0.233926 -4.23855 0
M  V30 97 C 9.3516 -2.22727 -5.47856 0
M  V30 98 H 8.2816 -0.13212 -0.742334 0
M  V30 99 H 10.9326 -0.974935 -1.55458 0
M  V30 100 H 9.3146 0.0826222 -3.95914 0
M  V30 101 H 10.4886 -2.76345 -3.68741 0
M  V30 102 H 8.8036 -2.36879 -3.42458 0
M  V30 103 H 11.4006 -0.348027 -5.33566 0
M  V30 104 H 11.7436 0.818351 -4.08177 0
M  V30 105 H 12.2766 -0.868639 -3.882 0
M  V30 106 H 9.0156 -3.2635 -5.68486 0
M  V30 107 H 8.5356 -1.55434 -5.7931 0
M  V30 108 H 10.2146 -2.03607 -6.14128 0
M  V30 109 N 10.3467 1.47872 -0.545128 0
M  V30 110 C 11.2767 2.32661 0.197793 0
M  V30 111 C 12.2577 1.43041 0.920504 0
M  V30 112 O 13.4427 1.71912 0.90333 0
M  V30 113 C 10.5727 3.24569 1.23582 0
M  V30 114 C 9.5267 4.23333 0.630323 0
M  V30 115 C 8.8527 5.0448 1.77211 0
M  V30 116 C 10.1527 5.20704 -0.407974 0
M  V30 117 H 11.8467 2.95024 -0.510045 0
M  V30 118 H 9.3927 1.4187 -0.246731 0
M  V30 119 H 11.3457 3.8272 1.76362 0
M  V30 120 H 10.0697 2.60236 1.97344 0
M  V30 121 H 8.7287 3.6639 0.123922 0
M  V30 122 H 8.3767 4.36561 2.49847 0
M  V30 123 H 8.0767 5.71339 1.37281 0
M  V30 124 H 9.6007 5.65487 2.3034 0
M  V30 125 H 11.0147 5.7329 0.033305 0
M  V30 126 H 9.4117 5.95699 -0.725486 0
M  V30 127 H 10.4817 4.66917 -1.30828 0
M  V30 128 N 11.8248 0.280983 1.55075 0
M  V30 129 C 13.0728 -0.333455 1.9933 0
M  V30 130 C 13.3938 -1.55937 1.17085 0
M  V30 131 O 12.6638 -1.94143 0.261805 0
M  V30 132 H 11.2438 -0.126197 0.736263 0
M  V30 133 H 13.9058 0.387678 1.91005 0
M  V30 134 H 13.0018 -0.619292 3.05894 0
M  V30 135 N 13.3029 -1.57598 0.00835791 0
M  V30 136 C 14.2349 -2.05811 -1.00868 0
M  V30 137 C 15.2479 -0.977579 -1.30182 0
M  V30 138 O 16.4369 -1.25421 -1.27011 0
M  V30 139 C 13.5369 -2.45016 -2.34137 0
M  V30 140 C 12.7099 -3.75903 -2.23643 0
M  V30 141 C 11.7689 -4.01884 -3.3967 0
M  V30 142 O 10.7949 -4.72433 -3.17483 0
M  V30 143 N 11.9969 -3.50432 -4.62793 0
M  V30 144 H 14.7619 -2.93684 -0.597458 0
M  V30 145 H 12.3229 -1.60909 -0.178852 0
M  V30 146 H 14.3149 -2.59506 -3.10546 0
M  V30 147 H 12.8849 -1.62618 -2.66972 0
M  V30 148 H 12.1049 -3.7141 -1.32091 0
M  V30 149 H 13.3929 -4.61695 -2.13812 0
M  V30 150 H 12.7909 -2.93317 -4.83716 0
M  V30 151 H 11.3479 -3.70236 -5.3644 0
M  V30 152 N 14.781 0.264519 -1.55364 0
M  V30 153 C 15.744 1.31046 -1.88042 0
M  V30 154 C 16.744 1.41943 -0.755569 0
M  V30 155 O 17.934 1.40947 -1.02369 0
M  V30 156 C 15.066 2.69067 -2.09323 0
M  V30 157 H 16.259 1.03297 -2.81549 0
M  V30 158 H 13.812 0.502989 -1.47986 0
M  V30 159 H 14.547 3.01982 -1.18226 0
M  V30 160 H 14.332 2.62542 -2.91229 0
M  V30 161 H 15.822 3.44623 -2.35848 0
M  V30 162 N 16.2591 1.48442 0.529413 0
M  V30 163 C 17.5081 1.55742 1.28169 0
M  V30 164 C 17.8211 0.236511 1.94165 0
M  V30 165 O 19.0271 0.187761 2.7085 0
M  V30 166 C 17.4831 2.74667 2.32564 0
M  V30 167 C 17.0911 4.13402 1.72636 0
M  V30 168 C 18.8351 2.9128 3.08798 0
M  V30 169 C 16.7421 5.23587 2.74975 0
M  V30 170 H 15.6721 0.579796 0.48203 0
M  V30 171 H 18.3231 1.74776 0.559056 0
M  V30 172 H 16.7051 2.49067 3.07866 0
M  V30 173 H 17.8791 4.49022 1.03519 0
M  V30 174 H 16.1941 4.0191 1.08892 0
M  V30 175 H 18.7911 3.70767 3.85274 0
M  V30 176 H 19.1341 2.00757 3.64695 0
M  V30 177 H 19.6671 3.16782 2.40611 0
M  V30 178 H 16.4061 6.16076 2.23897 0
M  V30 179 H 15.9261 4.92454 3.42417 0
M  V30 180 H 17.6051 5.51724 3.37949 0
M  V30 181 N 17.7372 -0.778329 1.37039 0
M  V30 182 C 18.7002 -1.87301 1.32102 0
M  V30 183 C 19.7002 -1.59198 0.226405 0
M  V30 184 O 20.8902 -1.67403 0.481861 0
M  V30 185 C 18.0222 -3.24309 1.05055 0
M  V30 186 H 19.2152 -1.93093 2.29467 0
M  V30 187 H 16.7682 -0.977358 1.21973 0
M  V30 188 H 17.5032 -3.24196 0.0819373 0
M  V30 189 H 17.2882 -3.46098 1.84279 0
M  V30 190 H 18.7782 -4.04382 1.04234 0
M  V30 191 N 19.2153 -1.21501 -1.00376 0
M  V30 192 C 20.4623 -1.03299 -1.74171 0
M  V30 193 C 20.7903 0.433326 -1.89612 0
M  V30 194 O 20.0453 1.33779 -1.42834 0
M  V30 195 C 20.3443 -1.67673 -3.15627 0
M  V30 196 C 20.0103 -3.17533 -3.2013 0
M  V30 197 C 18.6723 -3.58427 -3.21067 0
M  V30 198 C 21.0243 -4.13504 -3.17275 0
M  V30 199 C 18.3523 -4.93794 -3.16835 0
M  V30 200 C 20.7043 -5.48834 -3.14585 0
M  V30 201 C 19.3683 -5.89123 -3.13831 0
M  V30 202 H 18.6383 -0.377999 -0.637336 0
M  V30 203 H 21.2853 -1.51111 -1.17634 0
M  V30 204 H 19.5903 -1.12158 -3.75404 0
M  V30 205 H 21.2873 -1.51091 -3.71446 0
M  V30 206 H 17.8773 -2.84965 -3.20145 0
M  V30 207 H 22.0613 -3.82936 -3.15711 0
M  V30 208 H 17.3173 -5.24255 -3.1459 0
M  V30 209 H 21.4913 -6.22934 -3.1133 0
M  V30 210 H 19.1183 -6.93984 -3.10307 0
M  V30 211 N 20.6934 1.19889 -1.02296 0
M  V30 212 C 21.9394 1.89701 -0.717033 0
M  V30 213 C 22.2724 1.7905 0.751989 0
M  V30 214 O 21.5474 1.17891 1.547 0
M  V30 215 C 21.8304 3.40858 -1.16136 0
M  V30 216 C 21.6834 3.60411 -2.69117 0
M  V30 217 C 23.0024 4.33876 -0.737549 0
M  V30 218 H 20.1214 0.688874 -0.261957 0
M  V30 219 H 22.7634 1.41154 -1.27183 0
M  V30 220 H 20.9134 3.82335 -0.689342 0
M  V30 221 H 22.5854 3.28145 -3.2422 0
M  V30 222 H 20.8284 3.03665 -3.0979 0
M  V30 223 H 21.4994 4.66396 -2.95261 0
M  V30 224 H 23.9754 4.00081 -1.14344 0
M  V30 225 H 22.8514 5.38242 -1.0764 0
M  V30 226 H 23.1124 4.40628 0.360436 0
M  V30 227 N 22.1715 0.800033 1.35784 0
M  V30 228 C 23.1015 0.220184 2.3246 0
M  V30 229 C 24.0825 -0.65073 1.57161 0
M  V30 230 O 25.2675 -0.582359 1.85263 0
M  V30 231 C 22.3975 -0.637353 3.41402 0
M  V30 232 C 21.3515 0.134531 4.27789 0
M  V30 233 C 20.6775 -0.844285 5.27992 0
M  V30 234 C 21.9775 1.32979 5.05088 0
M  V30 235 H 23.6715 1.02787 2.81203 0
M  V30 236 H 21.2175 0.495717 1.35199 0
M  V30 237 H 23.1705 -1.05302 4.08031 0
M  V30 238 H 21.8945 -1.47785 2.91251 0
M  V30 239 H 20.5535 0.531296 3.6273 0
M  V30 240 H 20.2015 -1.68011 4.74111 0
M  V30 241 H 19.9015 -0.332184 5.8666 0
M  V30 242 H 21.4255 -1.2583 5.97494 0
M  V30 243 H 22.8395 0.98934 5.64699 0
M  V30 244 H 21.2365 1.77593 5.7322 0
M  V30 245 H 22.3065 2.11978 4.36111 0
M  V30 246 N 23.6496 -1.47581 0.552962 0
M  V30 247 C 24.8966 -2.02482 0.0273243 0
M  V30 248 C 25.2246 -1.42776 -1.32081 0
M  V30 249 O 24.4796 -0.571393 -1.87173 0
M  V30 250 C 24.7786 -3.57199 -0.119728 0
M  V30 251 C 24.4446 -4.35804 1.15697 0
M  V30 252 C 23.1066 -4.57 1.50681 0
M  V30 253 C 25.4586 -4.81167 2.00319 0
M  V30 254 C 22.7866 -5.20807 2.70142 0
M  V30 255 C 25.1386 -5.46293 3.18978 0
M  V30 256 C 23.8026 -5.65722 3.54281 0
M  V30 257 H 23.0726 -0.740933 0.00999866 0
M  V30 258 H 25.7196 -1.77302 0.72362 0
M  V30 259 H 24.0246 -3.81348 -0.89896 0
M  V30 260 H 25.7216 -3.97324 -0.541718 0
M  V30 261 H 22.3116 -4.19582 0.874561 0
M  V30 262 H 26.4956 -4.64574 1.74599 0
M  V30 263 H 21.7516 -5.34045 2.97668 0
M  V30 264 H 25.9256 -5.80407 3.84838 0
M  V30 265 H 23.5526 -6.14936 4.46942 0
M  V30 266 N 25.1277 -0.289203 -1.54924 0
M  V30 267 C 26.3737 0.323998 -2.00195 0
M  V30 268 C 26.7067 1.54441 -1.17735 0
M  V30 269 O 25.9817 1.92875 -0.250878 0
M  V30 270 C 26.2647 0.692276 -3.53383 0
M  V30 271 C 26.1177 -0.536457 -4.46589 0
M  V30 272 C 27.4367 1.52335 -4.12895 0
M  V30 273 H 24.5557 0.116289 -0.727768 0
M  V30 274 H 27.1977 -0.398954 -1.85764 0
M  V30 275 H 25.3477 1.30822 -3.65811 0
M  V30 276 H 27.0197 -1.17499 -4.46085 0
M  V30 277 H 25.2627 -1.17192 -4.1767 0
M  V30 278 H 25.9337 -0.234806 -5.515 0
M  V30 279 H 28.4097 1.00302 -4.0383 0
M  V30 280 H 27.2857 1.74982 -5.20262 0
M  V30 281 H 27.5467 2.50886 -3.64018 0
M  V30 282 N 26.6058 1.57591 -0.0167156 0
M  V30 283 C 27.5358 2.12496 0.967858 0
M  V30 284 C 28.5168 1.03807 1.34752 0
M  V30 285 O 29.7018 1.31577 1.42833 0
M  V30 286 C 26.8318 2.64194 2.25431 0
M  V30 287 C 25.7858 3.77559 2.01576 0
M  V30 288 C 25.1118 4.15636 3.36379 0
M  V30 289 C 26.4118 5.04151 1.36489 0
M  V30 290 H 28.1058 2.95013 0.510643 0
M  V30 291 H 25.6518 1.41915 0.244181 0
M  V30 292 H 27.6048 3.01236 2.94678 0
M  V30 293 H 26.3288 1.78821 2.73296 0
M  V30 294 H 24.9878 3.40937 1.34751 0
M  V30 295 H 24.6358 3.27263 3.81979 0
M  V30 296 H 24.3358 4.92022 3.21229 0
M  V30 297 H 25.8598 4.5525 4.06915 0
M  V30 298 H 27.2738 5.38857 1.95718 0
M  V30 299 H 25.6708 5.85453 1.31776 0
M  V30 300 H 26.7408 4.83733 0.336219 0
M  V30 301 N 28.0839 -0.256276 1.55502 0
M  V30 302 C 29.3309 -0.985619 1.76895 0
M  V30 303 C 29.6589 -1.85671 0.579355 0
M  V30 304 O 28.9139 -1.90744 -0.437651 0
M  V30 305 C 29.2129 -1.88432 3.03691 0
M  V30 306 C 28.8789 -1.16936 4.35473 0
M  V30 307 C 27.5409 -0.97173 4.71286 0
M  V30 308 C 29.8929 -0.661889 5.1698 0
M  V30 309 C 27.2209 -0.254179 5.86149 0
M  V30 310 C 29.5729 0.042149 6.32586 0
M  V30 311 C 28.2369 0.25134 6.67027 0
M  V30 312 H 27.5069 -0.360663 0.647304 0
M  V30 313 H 30.1539 -0.256483 1.89775 0
M  V30 314 H 28.4589 -2.68021 2.85783 0
M  V30 315 H 30.1559 -2.45015 3.1744 0
M  V30 316 H 26.7459 -1.33332 4.07333 0
M  V30 317 H 30.9299 -0.802145 4.89775 0
M  V30 318 H 26.1859 -0.0815408 6.11346 0
M  V30 319 H 30.3599 0.443049 6.94989 0
M  V30 320 H 27.9869 0.809314 7.5588 0
M  V30 321 N 29.562 -1.4872 -0.521534 0
M  V30 322 C 30.802 -1.58771 -1.28729 0
M  V30 323 C 31.166 -0.259394 -1.9024 0
M  V30 324 O 32.367 -0.234942 -2.67771 0
M  V30 325 C 30.638 -2.70039 -2.34124 0
M  V30 326 S 32.197 -2.9991 -3.20312 0
M  V30 327 H 29.015 -0.560251 -0.437767 0
M  V30 328 H 31.617 -1.86283 -0.593188 0
M  V30 329 H 30.321 -3.65101 -1.87429 0
M  V30 330 H 29.852 -2.44455 -3.08229 0
M  V30 331 H 31.867 -2.39855 -4.34378 0
M  V30 332 N 31.0401 0.771051 -1.3745 0
M  V30 333 C 31.9731 1.89166 -1.27638 0
M  V30 334 C 32.9511 1.61842 -0.156782 0
M  V30 335 O 34.1351 1.85569 -0.331111 0
M  V30 336 C 31.2621 3.24405 -0.973621 0
M  V30 337 C 30.3081 3.70638 -2.1102 0
M  V30 338 S 31.1411 3.84228 -3.73 0
M  V30 339 C 32.2971 5.22313 -3.44876 0
M  V30 340 H 32.5301 1.972 -2.22485 0
M  V30 341 H 30.0631 0.932224 -1.23081 0
M  V30 342 H 32.0211 4.02514 -0.805766 0
M  V30 343 H 30.6821 3.14071 -0.0426279 0
M  V30 344 H 29.8751 4.68685 -1.85338 0
M  V30 345 H 29.4771 2.99632 -2.23822 0
M  V30 346 H 31.7691 6.07505 -2.99908 0
M  V30 347 H 32.7121 5.53008 -4.42253 0
M  V30 348 H 33.1201 4.90284 -2.79789 0
M  V30 349 N 32.5182 1.22032 0.997298 0
M  V30 350 C 33.4652 0.986467 2.08656 0
M  V30 351 C 34.4352 -0.0902671 1.65855 0
M  V30 352 O 35.6202 0.0584294 1.90711 0
M  V30 353 C 32.7602 0.565569 3.40434 0
M  V30 354 C 31.8732 1.71259 3.96604 0
M  V30 355 C 31.0082 1.24011 5.16522 0
M  V30 356 C 30.0472 2.35896 5.64818 0
M  V30 357 N 29.1842 1.89726 6.7598 0
M  V30 358 H 34.0242 1.91892 2.27994 0
M  V30 359 H 31.5612 0.956199 1.11782 0
M  V30 360 H 33.5192 0.302738 4.161 0
M  V30 361 H 32.1492 -0.329879 3.2111 0
M  V30 362 H 31.2012 2.08986 3.17851 0
M  V30 363 H 32.5132 2.55436 4.28432 0
M  V30 364 H 31.6672 0.934395 5.99461 0
M  V30 365 H 30.4062 0.368487 4.86306 0
M  V30 366 H 29.4112 2.67261 4.8047 0
M  V30 367 H 30.6362 3.23567 5.97061 0
M  V30 368 H 28.5822 1.0492 6.47555 0
M  V30 369 H 28.4992 2.67471 7.07103 0
M  V30 370 H 29.7672 1.62211 7.62435 0
M  V30 371 N 33.9963 -1.19345 1.0293 0
M  V30 372 C 35.2263 -1.92717 0.744563 0
M  V30 373 C 35.6343 -1.75751 -0.700579 0
M  V30 374 O 34.9773 -1.07703 -1.48815 0
M  V30 375 C 35.0393 -3.44828 1.01657 0
M  V30 376 C 34.7033 -3.85564 2.45335 0
M  V30 377 C 35.7003 -3.90286 3.43472 0
M  V30 378 C 33.3853 -4.1719 2.79746 0
M  V30 379 C 35.3793 -4.26065 4.74075 0
M  V30 380 C 33.0663 -4.52642 4.10559 0
M  V30 381 C 34.0643 -4.57054 5.07534 0
M  V30 382 O 33.7523 -4.91685 6.36004 0
M  V30 383 H 33.4843 -0.618977 0.271742 0
M  V30 384 H 36.0383 -1.52415 1.37691 0
M  V30 385 H 34.2683 -3.85314 0.327084 0
M  V30 386 H 35.9573 -3.99437 0.721427 0
M  V30 387 H 36.7233 -3.66002 3.18225 0
M  V30 388 H 32.6023 -4.1294 2.04943 0
M  V30 389 H 36.1463 -4.29423 5.49765 0
M  V30 390 H 32.0433 -4.76383 4.35579 0
M  V30 391 H 32.8113 -5.09631 6.40483 0
M  V30 392 N 35.4744 -0.807222 -1.35358 0
M  V30 393 C 36.7204 -0.388463 -1.99045 0
M  V30 394 C 37.0534 1.04184 -1.63888 0
M  V30 395 O 36.3284 1.72292 -0.902535 0
M  V30 396 C 36.6114 -0.572783 -3.55515 0
M  V30 397 C 36.4644 -2.04807 -4.00468 0
M  V30 398 C 37.7834 0.00114064 -4.401 0
M  V30 399 H 34.9024 -0.142619 -0.723069 0
M  V30 400 H 37.5444 -1.01687 -1.60498 0
M  V30 401 H 35.6944 -0.0378425 -3.88482 0
M  V30 402 H 37.3664 -2.64544 -3.77908 0
M  V30 403 H 35.6094 -2.54427 -3.51353 0
M  V30 404 H 36.2804 -2.12792 -5.09337 0
M  V30 405 H 38.7564 -0.455716 -4.13597 0
M  V30 406 H 37.6324 -0.157737 -5.48673 0
M  V30 407 H 37.8934 1.09488 -4.28328 0
M  V30 408 N 36.9525 1.47285 -0.560781 0
M  V30 409 C 38.1985 2.03347 -0.0463654 0
M  V30 410 C 38.5535 1.42702 1.2905 0
M  V30 411 O 37.8465 0.574619 1.8278 0
M  V30 412 C 38.0405 3.57258 0.100784 0
M  V30 413 C 37.8695 4.32827 -1.22027 0
M  V30 414 C 36.6395 4.72588 -1.78854 0
M  V30 415 C 38.8375 4.67739 -2.13834 0
M  V30 416 N 36.8195 5.32816 -3.04927 0
M  V30 417 C 38.1905 5.28307 -3.24487 0
M  V30 418 C 40.2455 4.49667 -2.13784 0
M  V30 419 C 38.9485 5.72711 -4.35194 0
M  V30 420 C 40.9745 4.95073 -3.23506 0
M  V30 421 C 40.3365 5.55693 -4.32879 0
M  V30 422 H 36.4355 0.779755 -0.0592166 0
M  V30 423 H 39.0195 1.79723 -0.748857 0
M  V30 424 H 37.1905 3.80642 0.772404 0
M  V30 425 H 38.9225 3.9996 0.617589 0
M  V30 426 H 35.6775 4.54656 -1.32609 0
M  V30 427 H 36.1015 5.67471 -3.69197 0
M  V30 428 H 40.7435 4.02154 -1.30507 0
M  V30 429 H 38.4615 6.19214 -5.1923 0
M  V30 430 H 42.0475 4.82859 -3.24559 0
M  V30 431 H 40.9275 5.90188 -5.1638 0
M  V30 432 N 38.4306 0.297415 1.54768 0
M  V30 433 C 39.8416 -0.195947 1.85669 0
M  V30 434 C 40.1926 -1.53707 1.21937 0
M  V30 435 O 39.3176 -2.10164 0.515754 0
M  V30 436 C 39.9126 -0.362318 3.36857 0
M  V30 437 C 38.4716 -0.799901 3.67802 0
M  V30 438 C 37.6186 0.0938578 2.77141 0
M  V30 439 H 40.5696 0.518538 1.4999 0
M  V30 440 H 40.5906 -1.19745 3.61167 0
M  V30 441 H 40.1026 0.613921 3.83214 0
M  V30 442 H 38.2036 -1.78682 3.26961 0
M  V30 443 H 38.3166 -0.621773 4.75048 0
M  V30 444 H 36.6806 -0.426254 2.51108 0
M  V30 445 H 37.4636 1.06639 3.26318 0
M  V30 446 N 39.9087 -1.5758 0.0250728 0
M  V30 447 C 41.3197 -1.79476 -0.514323 0
M  V30 448 C 41.6707 -0.934956 -1.72491 0
M  V30 449 O 40.7957 -0.144245 -2.15919 0
M  V30 450 C 41.3907 -3.25503 -0.939842 0
M  V30 451 C 39.9497 -3.48408 -1.42438 0
M  V30 452 C 39.0967 -2.74583 -0.387201 0
M  V30 453 H 42.0477 -1.567 0.25113 0
M  V30 454 H 42.0687 -3.34992 -1.80445 0
M  V30 455 H 41.5807 -3.88056 -0.0585628 0
M  V30 456 H 39.6817 -2.91103 -2.32572 0
M  V30 457 H 39.7947 -4.57119 -1.43455 0
M  V30 458 H 38.1587 -2.39942 -0.854409 0
M  V30 459 H 38.9417 -3.39849 0.485543 0
M  V30 460 N 41.3868 0.248026 -1.55636 0
M  V30 461 C 42.3168 1.31079 -1.93237 0
M  V30 462 C 43.2978 1.50264 -0.797174 0
M  V30 463 O 44.4828 1.62891 -1.05737 0
M  V30 464 C 41.6128 2.66575 -2.22609 0
M  V30 465 C 40.5668 2.62087 -3.3837 0
M  V30 466 C 39.8928 4.01369 -3.53281 0
M  V30 467 C 41.1928 2.19171 -4.7409 0
M  V30 468 H 42.8868 0.998556 -2.82257 0
M  V30 469 H 40.4328 0.47891 -1.35803 0
M  V30 470 H 42.3858 3.41057 -2.47503 0
M  V30 471 H 41.1098 2.99432 -1.30414 0
M  V30 472 H 39.7688 1.90063 -3.13483 0
M  V30 473 H 39.4168 4.31489 -2.58508 0
M  V30 474 H 39.1168 3.99254 -4.31127 0
M  V30 475 H 40.6408 4.77552 -3.80495 0
M  V30 476 H 42.0548 2.83384 -4.98363 0
M  V30 477 H 40.4518 2.2817 -5.5503 0
M  V30 478 H 41.5218 1.14336 -4.71227 0
M  V30 479 N 42.8649 1.48995 0.513639 0
M  V30 480 C 43.7979 1.59319 1.63379 0
M  V30 481 C 44.7759 0.442816 1.56454 0
M  V30 482 O 45.9599 0.656655 1.76693 0
M  V30 483 C 43.0869 1.5364 3.01848 0
M  V30 484 C 42.1329 2.7372 3.27078 0
M  V30 485 S 42.9659 4.35528 3.1157 0
M  V30 486 C 44.1219 4.32473 4.52458 0
M  V30 487 H 44.3549 2.54079 1.54374 0
M  V30 488 H 41.8879 1.3773 0.697849 0
M  V30 489 H 43.8459 1.51049 3.81699 0
M  V30 490 H 42.5069 0.601898 3.08279 0
M  V30 491 H 41.6999 2.6593 4.28132 0
M  V30 492 H 41.3019 2.73657 2.54927 0
M  V30 493 H 43.5939 4.03414 5.44301 0
M  V30 494 H 44.5369 5.33762 4.65299 0
M  V30 495 H 44.9449 3.62718 4.32546 0
M  V30 496 N 44.343 -0.763751 1.37857 0
M  V30 497 C 45.306 -1.85889 1.34081 0
M  V30 498 C 46.306 -1.58949 0.243277 0
M  V30 499 O 47.496 -1.66882 0.499589 0
M  V30 500 C 44.628 -3.23176 1.08489 0
M  V30 501 H 45.821 -1.90648 2.31502 0
M  V30 502 H 43.374 -0.964367 1.23003 0
M  V30 503 H 44.109 -3.24091 0.116318 0
M  V30 504 H 43.894 -3.44124 1.8794 0
M  V30 505 H 45.384 -4.03254 1.08517 0
M  V30 506 N 45.8211 -1.22559 -0.990812 0
M  V30 507 C 46.7841 -0.998863 -2.0629 0
M  V30 508 C 47.7841 0.0354834 -1.60761 0
M  V30 509 O 48.9741 -0.203231 -1.7301 0
M  V30 510 C 46.1061 -0.509203 -3.37076 0
M  V30 511 H 47.2991 -1.95014 -2.27837 0
M  V30 512 H 44.8521 -1.04456 -1.16269 0
M  V30 513 H 45.5871 0.446335 -3.21214 0
M  V30 514 H 45.3721 -1.25547 -3.71457 0
M  V30 515 H 46.8621 -0.370888 -4.1595 0
M  V30 516 N 47.2992 1.18797 -1.03562 0
M  V30 517 C 48.5482 1.87978 -0.731235 0
M  V30 518 C 48.8612 1.80911 0.743671 0
M  V30 519 O 50.0672 2.45407 1.16137 0
M  V30 520 C 48.5232 3.3721 -1.25768 0
M  V30 521 C 48.1312 3.52818 -2.76085 0
M  V30 522 C 49.8752 4.11825 -1.0296 0
M  V30 523 C 47.7822 4.9598 -3.22114 0
M  V30 524 H 46.7122 0.704063 -0.269835 0
M  V30 525 H 49.3632 1.34266 -1.25079 0
M  V30 526 H 47.7452 3.90359 -0.666011 0
M  V30 527 H 48.9192 3.09965 -3.40966 0
M  V30 528 H 47.2342 2.91602 -2.97249 0
M  V30 529 H 49.8312 5.17411 -1.34869 0
M  V30 530 H 50.1742 4.16287 0.0333546 0
M  V30 531 H 50.7072 3.64833 -1.58562 0
M  V30 532 H 47.4462 4.96684 -4.27768 0
M  V30 533 H 46.9662 5.39569 -2.61965 0
M  V30 534 H 48.6452 5.6467 -3.15844 0
M  V30 535 N 48.7773 0.814389 1.34928 0
M  V30 536 C 49.6873 0.231978 2.3345 0
M  V30 537 C 50.7033 -0.629139 1.62228 0
M  V30 538 O 51.8793 -0.539052 1.94052 0
M  V30 539 C 48.9443 -0.603482 3.41407 0
M  V30 540 C 48.0053 0.279037 4.28392 0
M  V30 541 C 47.2383 -0.516643 5.31193 0
M  V30 542 O 47.4613 -1.75068 5.4287 0
M  V30 543 O 46.3953 0.0965652 6.01823 0
M  V30 544 H 50.2213 1.04721 2.85074 0
M  V30 545 H 47.8063 0.576343 1.37836 0
M  V30 546 H 49.6883 -1.07908 4.0735 0
M  V30 547 H 48.3633 -1.39618 2.92042 0
M  V30 548 H 47.2703 0.801948 3.65403 0
M  V30 549 H 48.6033 1.03588 4.81176 0
M  V30 550 N 50.2554 -1.46986 0.568584 0
M  V30 551 C 51.2024 -2.30153 -0.172707 0
M  V30 552 C 52.1724 -1.39759 -0.897586 0
M  V30 553 O 53.3574 -1.68716 -0.891044 0
M  V30 554 C 50.4974 -3.23952 -1.1895 0
M  V30 555 C 49.6104 -4.29441 -0.469517 0
M  V30 556 C 48.7454 -5.1038 -1.47259 0
M  V30 557 C 47.7844 -6.07632 -0.738225 0
M  V30 558 N 46.9214 -6.8149 -1.68868 0
M  V30 559 H 51.7614 -2.93019 0.542596 0
M  V30 560 H 49.2984 -1.44422 0.279401 0
M  V30 561 H 51.2564 -3.76767 -1.79173 0
M  V30 562 H 49.8864 -2.62926 -1.87269 0
M  V30 563 H 48.9384 -3.79594 0.247467 0
M  V30 564 H 50.2504 -4.98689 0.105241 0
M  V30 565 H 49.4044 -5.67402 -2.14803 0
M  V30 566 H 48.1434 -4.4106 -2.08128 0
M  V30 567 H 47.1484 -5.49778 -0.0489293 0
M  V30 568 H 48.3734 -6.78966 -0.135129 0
M  V30 569 H 46.3194 -6.14891 -2.28573 0
M  V30 570 H 46.2364 -7.46948 -1.16636 0
M  V30 571 H 47.5044 -7.43078 -2.3549 0
M  V30 572 N 51.7335 -0.305618 -1.54608 0
M  V30 573 C 53.1495 0.0476228 -1.59529 0
M  V30 574 C 53.3495 1.52025 -1.32252 0
M  V30 575 O 52.4055 2.27368 -1.09818 0
M  V30 576 C 53.7185 -0.354471 -2.98603 0
M  V30 577 C 55.2665 -0.303622 -3.11524 0
M  V30 578 C 55.7415 -0.680608 -4.52915 0
M  V30 579 N 57.2325 -0.63332 -4.5885 0
M  V30 580 C 57.9675 -0.897432 -5.66334 0
M  V30 581 N 57.4635 -1.22775 -6.81834 0
M  V30 582 N 59.2565 -0.824186 -5.56025 0
M  V30 583 H 51.4075 -1.2653 -1.70599 0
M  V30 584 H 53.6705 -0.513291 -0.797017 0
M  V30 585 H 53.3765 -1.3798 -3.23503 0
M  V30 586 H 53.2505 0.289568 -3.76087 0
M  V30 587 H 55.6375 0.712472 -2.8637 0
M  V30 588 H 55.7185 -0.982348 -2.36185 0
M  V30 589 H 55.3625 -1.69453 -4.78799 0
M  V30 590 H 55.2925 0.0202385 -5.26596 0
M  V30 591 H 57.7835 -0.389138 -3.75891 0
M  V30 592 H 58.0965 -1.41513 -7.59733 0
M  V30 593 H 56.4415 -1.26583 -6.83375 0
M  V30 594 H 59.6325 -0.565748 -4.64669 0
M  V30 595 H 59.8055 -1.03338 -6.39707 0
M  V30 596 N 53.2116 1.57565 -0.0334293 0
M  V30 597 C 54.1436 2.0739 0.975811 0
M  V30 598 C 55.1566 0.998166 1.2861 0
M  V30 599 O 56.3456 1.27426 1.25 0
M  V30 600 C 53.4456 2.4871 2.30209 0
M  V30 601 C 52.6186 3.79413 2.17634 0
M  V30 602 C 51.6776 4.07237 3.33233 0
M  V30 603 O 50.7036 4.77425 3.09927 0
M  V30 604 N 51.9056 3.5775 4.5716 0
M  V30 605 H 54.6706 2.94598 0.55066 0
M  V30 606 H 52.2316 1.61173 0.15323 0
M  V30 607 H 54.2236 2.64413 3.06378 0
M  V30 608 H 52.7936 1.66845 2.64351 0
M  V30 609 H 52.0136 3.73465 1.26165 0
M  V30 610 H 53.3016 4.65038 2.0644 0
M  V30 611 H 52.6996 3.00976 4.78989 0
M  V30 612 H 51.2566 3.78724 5.30482 0
M  V30 613 N 54.6897 -0.239769 1.55765 0
M  V30 614 C 55.6367 -1.29696 1.90913 0
M  V30 615 C 56.6067 -1.47478 0.764164 0
M  V30 616 O 57.7917 -1.61345 1.01845 0
M  V30 617 C 54.9317 -2.64598 2.21544 0
M  V30 618 C 54.0447 -2.54765 3.48882 0
M  V30 619 C 53.1797 -3.82069 3.69049 0
M  V30 620 C 52.2187 -3.66883 4.89963 0
M  V30 621 N 51.3557 -4.86094 5.06614 0
M  V30 622 H 56.1957 -0.990224 2.81067 0
M  V30 623 H 53.7327 -0.477684 1.39128 0
M  V30 624 H 55.6907 -3.43132 2.3731 0
M  V30 625 H 54.3207 -2.93405 1.34585 0
M  V30 626 H 53.3727 -1.67763 3.41409 0
M  V30 627 H 54.6847 -2.39457 4.37563 0
M  V30 628 H 53.8387 -4.69046 3.84812 0
M  V30 629 H 52.5777 -4.00282 2.78614 0
M  V30 630 H 51.5827 -2.78289 4.74168 0
M  V30 631 H 52.8077 -3.50157 5.81865 0
M  V30 632 H 50.7537 -5.04655 4.19117 0
M  V30 633 H 50.6707 -4.73443 5.89396 0
M  V30 634 H 51.9387 -5.74549 5.26795 0
M  V30 635 N 56.1678 -1.49265 -0.50573 0
M  V30 636 C 57.0778 -1.68312 -1.63427 0
M  V30 637 C 58.0938 -0.565682 -1.64548 0
M  V30 638 O 59.2698 -0.839801 -1.83055 0
M  V30 639 C 56.3348 -1.74107 -2.99813 0
M  V30 640 C 55.3958 -2.97653 -3.09356 0
M  V30 641 C 54.6288 -3.03163 -4.39236 0
M  V30 642 O 54.8518 -2.16396 -5.27758 0
M  V30 643 O 53.7858 -3.9558 -4.53652 0
M  V30 644 H 57.6118 -2.63907 -1.50289 0
M  V30 645 H 55.1968 -1.32951 -0.681502 0
M  V30 646 H 57.0788 -1.803 -3.80881 0
M  V30 647 H 55.7538 -0.816901 -3.13223 0
M  V30 648 H 54.6608 -2.96981 -2.27493 0
M  V30 649 H 55.9938 -3.89535 -3.00871 0
M  V30 650 N 57.6459 0.756429 -1.3826 0
M  V30 651 C 58.8949 1.51082 -1.3363 0
M  V30 652 C 59.2079 1.95467 0.0720068 0
M  V30 653 O 60.4139 2.7043 0.240834 0
M  V30 654 C 58.8699 2.72893 -2.34644 0
M  V30 655 C 58.4779 2.35544 -3.81081 0
M  V30 656 C 60.2219 3.50791 -2.39052 0
M  V30 657 C 58.1289 3.53948 -4.73787 0
M  V30 658 H 57.0589 0.56727 -0.49671 0
M  V30 659 H 59.7099 0.827147 -1.638 0
M  V30 660 H 58.0919 3.43227 -1.97513 0
M  V30 661 H 59.2659 1.72894 -4.27135 0
M  V30 662 H 57.5809 1.70786 -3.79764 0
M  V30 663 H 60.1779 4.38823 -3.05513 0
M  V30 664 H 60.5209 3.91745 -1.40861 0
M  V30 665 H 61.0539 2.87467 -2.74968 0
M  V30 666 H 57.7929 3.18064 -5.73163 0
M  V30 667 H 57.3129 4.15651 -4.32428 0
M  V30 668 H 58.9919 4.20566 -4.91663 0
M  V30 669 N 59.124 1.23083 0.984299 0
M  V30 670 C 60.087 1.00979 2.05757 0
M  V30 671 C 61.087 -0.0269573 1.60777 0
M  V30 672 O 62.277 0.212403 1.729 0
M  V30 673 C 59.409 0.527072 3.36801 0
M  V30 674 H 60.602 1.9622 2.26799 0
M  V30 675 H 58.155 1.05072 1.15714 0
M  V30 676 H 58.89 -0.429294 3.21446 0
M  V30 677 H 58.675 1.27515 3.70786 0
M  V30 678 H 60.165 0.392942 4.15747 0
M  V30 679 N 60.6021 -1.18246 1.0419 0
M  V30 680 C 61.8791 -1.84121 0.660208 0
M  V30 681 C 62.2591 -1.92778 -0.860221 0
M  V30 682 O 61.6071 -1.45464 -1.76217 0
M  V30 683 C 61.8171 -3.22355 1.33747 0
M  V30 684 C 63.1651 -3.98376 1.46906 0
M  V30 685 O 64.1891 -3.31799 1.29568 0
M  V30 686 O 63.0481 -5.17665 1.75171 0
M  V30 687 H 60.1421 -0.794036 0.231161 0
M  V30 688 H 62.6881 -1.25628 1.14087 0
M  V30 689 H 61.4601 -3.10964 2.37522 0
M  V30 690 H 61.0831 -3.88506 0.845515 0
M  V30 691 N 62.0802 -0.821533 -1.34494 0
M  V30 692 C 63.3282 -0.408139 -1.97936 0
M  V30 693 C 63.6492 1.03193 -1.65457 0
M  V30 694 O 62.9192 1.71622 -0.944595 0
M  V30 695 H 61.4992 -0.147928 -0.732206 0
M  V30 696 H 64.1612 -1.05067 -1.64155 0
M  V30 697 H 63.2572 -0.52601 -3.07635 0
M  V30 698 N 63.5583 1.46682 -0.576371 0
M  V30 699 C 64.4883 2.33028 0.148397 0
M  V30 700 C 65.4693 1.44961 0.889956 0
M  V30 701 O 66.6543 1.73789 0.866662 0
M  V30 702 C 63.7843 3.27117 1.1667 0
M  V30 703 C 62.7383 4.24575 0.540386 0
M  V30 704 C 62.0643 5.08126 1.6647 0
M  V30 705 C 63.3643 5.19722 -0.518331 0
M  V30 706 H 65.0583 2.93875 -0.572509 0
M  V30 707 H 62.6043 1.41315 -0.276768 0
M  V30 708 H 64.5573 3.86374 1.68204 0
M  V30 709 H 63.2813 2.64364 1.9178 0
M  V30 710 H 61.9403 3.66571 0.0461769 0
M  V30 711 H 61.5883 4.41762 2.40531 0
M  V30 712 H 61.2883 5.74122 1.25131 0
M  V30 713 H 62.8123 5.70246 2.18293 0
M  V30 714 H 64.2263 5.73232 -0.0883058 0
M  V30 715 H 62.6233 5.94026 -0.851679 0
M  V30 716 H 63.6933 4.64037 -1.40703 0
M  V30 717 N 65.0364 0.313813 1.54444 0
M  V30 718 C 65.9994 -0.54379 2.22656 0
M  V30 719 C 66.9994 -1.05124 1.21678 0
M  V30 720 O 68.1894 -0.945225 1.46325 0
M  V30 721 C 65.3214 -1.75427 2.92298 0
M  V30 722 H 66.5144 0.0523599 2.99854 0
M  V30 723 H 64.0674 0.0647834 1.56166 0
M  V30 724 H 64.8024 -2.38991 2.19211 0
M  V30 725 H 64.5874 -1.39791 3.66334 0
M  V30 726 H 66.0774 -2.36325 3.44297 0
M  V30 727 N 66.5145 -1.57545 0.0417849 0
M  V30 728 C 67.7395 -1.97035 -0.647455 0
M  V30 729 C 68.1645 -0.918775 -1.64135 0
M  V30 730 O 67.5225 0.119006 -1.80909 0
M  V30 731 C 67.5705 -3.35609 -1.31905 0
M  V30 732 O 66.6745 -3.3287 -2.43457 0
M  V30 733 H 66.0155 -0.64211 -0.169086 0
M  V30 734 H 68.5455 -2.04318 0.107399 0
M  V30 735 H 68.5555 -3.72126 -1.67291 0
M  V30 736 H 67.2305 -4.11685 -0.590586 0
M  V30 737 H 65.8075 -3.08087 -2.10088 0
M  V30 738 N 67.9926 0.231505 -1.5589 0
M  V30 739 C 68.9556 1.27028 -1.90779 0
M  V30 740 C 69.9556 1.40308 -0.785507 0
M  V30 741 O 71.1456 1.38744 -1.05336 0
M  V30 742 C 68.2776 2.64566 -2.14983 0
M  V30 743 H 69.4706 0.973017 -2.83677 0
M  V30 744 H 67.0236 0.471486 -1.49019 0
M  V30 745 H 67.7586 2.99406 -1.24604 0
M  V30 746 H 67.5436 2.56305 -2.96732 0
M  V30 747 H 69.0336 3.39543 -2.43105 0
M  V30 748 N 69.4707 1.49531 0.497807 0
M  V30 749 C 70.3807 1.69176 1.62532 0
M  V30 750 C 71.3967 0.5744 1.64246 0
M  V30 751 O 72.5727 0.849497 1.82608 0
M  V30 752 C 69.6377 1.75695 2.98885 0
M  V30 753 C 68.6987 2.9929 3.07773 0
M  V30 754 C 67.9317 3.05488 4.37622 0
M  V30 755 O 68.1547 2.19192 5.26603 0
M  V30 756 O 67.0887 3.9798 4.51548 0
M  V30 757 H 70.9147 2.647 1.48887 0
M  V30 758 H 68.4997 1.3331 0.674441 0
M  V30 759 H 70.3817 1.82317 3.79919 0
M  V30 760 H 69.0567 0.8335 3.12785 0
M  V30 761 H 67.9637 2.98183 2.25915 0
M  V30 762 H 69.2967 3.91125 2.98801 0
M  V30 763 N 70.9488 -0.749086 1.3866 0
M  V30 764 C 72.3648 -1.05276 1.19955 0
M  V30 765 C 72.5648 -2.01435 0.05134 0
M  V30 766 O 71.6208 -2.45232 -0.60147 0
M  V30 767 C 72.9338 -1.62853 2.52783 0
M  V30 768 C 74.4818 -1.75002 2.59506 0
M  V30 769 C 74.9568 -2.35991 3.92521 0
M  V30 770 N 76.4478 -2.43416 3.94085 0
M  V30 771 C 77.1828 -2.91511 4.9377 0
M  V30 772 N 76.6788 -3.39608 6.03853 0
M  V30 773 N 78.4718 -2.90592 4.81157 0
M  V30 774 H 70.6228 -0.111066 2.12109 0
M  V30 775 H 72.8858 -0.111901 0.941373 0
M  V30 776 H 72.5918 -0.99664 3.37283 0
M  V30 777 H 72.4658 -2.61854 2.715 0
M  V30 778 H 74.8528 -2.37317 1.75398 0
M  V30 779 H 74.9338 -0.74693 2.44652 0
M  V30 780 H 74.5778 -1.74308 4.77053 0
M  V30 781 H 74.5078 -3.3695 4.04688 0
M  V30 782 H 76.9988 -2.09405 3.14576 0
M  V30 783 H 77.3118 -3.74775 6.75843 0
M  V30 784 H 75.6568 -3.37653 6.07466 0
M  V30 785 H 78.8478 -2.52332 3.94267 0
M  V30 786 H 79.0208 -3.27762 5.58996 0
M  V30 787 N 72.4269 -1.23603 -0.977757 0
M  V30 788 C 73.3899 -1.02069 -2.05218 0
M  V30 789 C 74.3899 0.0184305 -1.60789 0
M  V30 790 O 75.5799 -0.221569 -1.72785 0
M  V30 791 C 72.7119 -0.544926 -3.36517 0
M  V30 792 H 73.9049 -1.9742 -2.25755 0
M  V30 793 H 71.4579 -1.05684 -1.15155 0
M  V30 794 H 72.1929 0.412241 -3.21669 0
M  V30 795 H 71.9779 -1.2948 -3.70105 0
M  V30 796 H 73.4679 -0.414985 -4.15533 0
M  V30 797 N 73.905 1.17692 -1.04816 0
M  V30 798 C 74.855 2.1952 -0.616042 0
M  V30 799 C 75.839 1.57147 0.345485 0
M  V30 800 O 77.031 1.76245 0.163325 0
M  V30 801 C 74.16 3.43298 0.0116917 0
M  V30 802 C 73.246 4.12777 -0.973435 0
M  V30 803 N 73.637 4.5814 -2.14339 0
M  V30 804 C 71.935 4.38747 -0.80108 0
M  V30 805 C 72.636 5.11713 -2.7663 0
M  V30 806 N 71.612 5.03686 -2.04453 0
M  V30 807 H 75.414 2.52293 -1.5075 0
M  V30 808 H 72.928 1.3398 -0.917776 0
M  V30 809 H 74.925 4.15519 0.339006 0
M  V30 810 H 73.585 3.12018 0.898593 0
M  V30 811 H 74.596 4.52349 -2.52191 0
M  V30 812 H 71.273 4.17485 0.0350934 0
M  V30 813 H 72.663 5.56962 -3.75823 0
M  V30 814 N 75.3831 0.828654 1.34056 0
M  V30 815 C 76.3301 0.252567 2.29414 0
M  V30 816 C 77.3001 -0.62588 1.53857 0
M  V30 817 O 78.4851 -0.566312 1.82202 0
M  V30 818 C 75.6251 -0.574831 3.40279 0
M  V30 819 C 74.7381 0.326499 4.30764 0
M  V30 820 C 73.8731 -0.511016 5.28736 0
M  V30 821 C 72.9121 0.389342 6.1086 0
M  V30 822 N 72.0491 -0.409439 7.00905 0
M  V30 823 H 76.8891 1.07108 2.78086 0
M  V30 824 H 74.4261 0.539677 1.36843 0
M  V30 825 H 76.3841 -1.06992 4.03248 0
M  V30 826 H 75.0141 -1.35841 2.92826 0
M  V30 827 H 74.0661 0.939837 3.68607 0
M  V30 828 H 75.3781 1.01857 4.88289 0
M  V30 829 H 74.5321 -1.07035 5.97184 0
M  V30 830 H 73.2711 -1.23657 4.71763 0
M  V30 831 H 72.2761 0.960769 5.4134 0
M  V30 832 H 73.5011 1.1131 6.69916 0
M  V30 833 H 71.4471 -1.11856 6.46393 0
M  V30 834 H 71.3641 0.224126 7.55668 0
M  V30 835 H 72.6321 -0.951336 7.73673 0
M  V30 836 N 76.8612 -1.46375 0.584142 0
M  V30 837 C 78.1382 -1.956 0.0033388 0
M  V30 838 C 78.5182 -1.52679 -1.45782 0
M  V30 839 O 77.8662 -0.77816 -2.14842 0
M  V30 840 C 78.0762 -3.48551 0.176891 0
M  V30 841 C 79.4242 -4.24576 0.0454609 0
M  V30 842 O 80.4482 -3.56043 0.105801 0
M  V30 843 O 79.3072 -5.46427 -0.0890376 0
M  V30 844 H 76.4012 -0.825547 -0.0490066 0
M  V30 845 H 78.9472 -1.56652 0.65256 0
M  V30 846 H 77.7192 -3.72683 1.1926 0
M  V30 847 H 77.3422 -3.94332 -0.508695 0
M  V30 848 N 78.3393 -0.321999 -1.54275 0
M  V30 849 C 79.2693 0.537411 -2.27231 0
M  V30 850 C 80.2503 1.12064 -1.27968 0
M  V30 851 O 81.4353 1.14606 -1.56777 0
M  V30 852 C 78.5653 1.69919 -3.02894 0
M  V30 853 C 77.5193 1.24534 -4.09482 0
M  V30 854 C 76.8453 2.49394 -4.72977 0
M  V30 855 C 78.1453 0.361335 -5.21049 0
M  V30 856 H 79.8393 -0.0711406 -2.99315 0
M  V30 857 H 77.3853 -0.0356555 -1.43956 0
M  V30 858 H 79.3383 2.30668 -3.52662 0
M  V30 859 H 78.0623 2.33431 -2.28424 0
M  V30 860 H 76.7213 0.660782 -3.60596 0
M  V30 861 H 76.3693 3.11265 -3.95124 0
M  V30 862 H 76.0693 2.19718 -5.44975 0
M  V30 863 H 77.5933 3.10908 -5.25517 0
M  V30 864 H 79.0073 0.875072 -5.66582 0
M  V30 865 H 77.4043 0.157428 -5.99893 0
M  V30 866 H 78.4743 -0.60822 -4.8107 0
M  V30 867 N 79.8174 1.5752 -0.0501392 0
M  V30 868 C 81.0944 1.83996 0.663685 0
M  V30 869 C 81.4744 0.938339 1.89099 0
M  V30 870 O 80.8224 -0.00087759 2.285 0
M  V30 871 C 81.0324 3.33702 1.02196 0
M  V30 872 C 82.3804 4.00691 1.40469 0
M  V30 873 O 83.4044 3.38321 1.11433 0
M  V30 874 O 82.2634 5.10658 1.94654 0
M  V30 875 H 79.3574 0.759385 0.32751 0
M  V30 876 H 81.9034 1.69514 -0.0794238 0
M  V30 877 H 80.6754 3.91015 0.149364 0
M  V30 878 H 80.2984 3.53368 1.82255 0
M  V30 879 N 81.2955 -0.223234 1.56011 0
M  V30 880 C 82.2255 -1.27988 1.95298 0
M  V30 881 C 83.2065 -1.48976 0.820979 0
M  V30 882 O 84.3915 -1.61188 1.08315 0
M  V30 883 C 81.5215 -2.63 2.26822 0
M  V30 884 C 80.4755 -2.56671 3.42497 0
M  V30 885 C 79.8015 -3.95697 3.59622 0
M  V30 886 C 81.1015 -2.11601 4.77517 0
M  V30 887 H 82.7955 -0.953525 2.8381 0
M  V30 888 H 80.3415 -0.457244 1.36548 0
M  V30 889 H 82.2945 -3.37077 2.52898 0
M  V30 890 H 81.0185 -2.9732 1.35161 0
M  V30 891 H 79.6775 -1.85051 3.16467 0
M  V30 892 H 79.3255 -4.27322 2.6534 0
M  V30 893 H 79.0255 -3.92345 4.37424 0
M  V30 894 H 80.5495 -4.71438 3.88044 0
M  V30 895 H 81.9635 -2.7542 5.02809 0
M  V30 896 H 80.3605 -2.19311 5.5859 0
M  V30 897 H 81.4305 -1.06824 4.72987 0
M  V30 898 N 82.7736 -1.49793 -0.48987 0
M  V30 899 C 83.7366 -1.66752 -1.57246 0
M  V30 900 C 84.7366 -0.538867 -1.51502 0
M  V30 901 O 85.9266 -0.805545 -1.54456 0
M  V30 902 C 83.0586 -1.67528 -2.96896 0
M  V30 903 H 84.2516 -2.63321 -1.43534 0
M  V30 904 H 81.8046 -1.38992 -0.714914 0
M  V30 905 H 82.5396 -0.725837 -3.16073 0
M  V30 906 H 82.3246 -2.49504 -3.02473 0
M  V30 907 H 83.8146 -1.82667 -3.7553 0
M  V30 908 N 84.2517 0.741722 -1.39055 0
M  V30 909 C 85.1987 1.85566 -1.37237 0
M  V30 910 C 86.1687 1.64457 -0.233072 0
M  V30 911 O 87.3537 1.85957 -0.427147 0
M  V30 912 C 84.4937 3.23004 -1.215 0
M  V30 913 C 83.6067 3.55864 -2.44918 0
M  V30 914 C 82.7417 4.82669 -2.21821 0
M  V30 915 C 81.7807 5.08351 -3.40948 0
M  V30 916 N 80.9177 6.26356 -3.17211 0
M  V30 917 H 85.7577 1.86455 -2.32462 0
M  V30 918 H 83.2947 0.911176 -1.15482 0
M  V30 919 H 85.2527 4.02331 -1.10389 0
M  V30 920 H 83.8827 3.21411 -0.29908 0
M  V30 921 H 82.9347 2.7129 -2.66657 0
M  V30 922 H 84.2467 3.70765 -3.33668 0
M  V30 923 H 83.4007 5.69962 -2.07914 0
M  V30 924 H 82.1397 4.69929 -1.30454 0
M  V30 925 H 81.1447 4.19522 -3.55361 0
M  V30 926 H 82.3697 5.22981 -4.33207 0
M  V30 927 H 80.3157 6.14917 -2.28502 0
M  V30 928 H 80.2327 6.41813 -3.99515 0
M  V30 929 H 81.5007 7.16506 -3.06984 0
M  V30 930 N 85.7298 1.2412 0.971189 0
M  V30 931 C 86.6928 1.03156 2.04674 0
M  V30 932 C 87.6928 -0.00990322 1.60797 0
M  V30 933 O 88.8828 0.230729 1.72665 0
M  V30 934 C 86.0148 0.562765 3.36223 0
M  V30 935 H 87.2078 1.98614 2.24705 0
M  V30 936 H 84.7608 1.06293 1.14593 0
M  V30 937 H 85.4958 -0.395176 3.21883 0
M  V30 938 H 85.2808 1.31441 3.69413 0
M  V30 939 H 86.7708 0.437015 4.15307 0
M  V30 940 N 87.2079 -1.17134 1.05439 0
M  V30 941 C 88.4329 -1.91913 0.786396 0
M  V30 942 C 88.8579 -1.7643 -0.652234 0
M  V30 943 O 88.2159 -1.08372 -1.45345 0
M  V30 944 C 88.2639 -3.40921 1.17497 0
M  V30 945 O 87.3679 -4.11244 0.308589 0
M  V30 946 H 86.7089 -0.598215 0.288158 0
M  V30 947 H 89.2389 -1.48457 1.4079 0
M  V30 948 H 89.2489 -3.91668 1.14281 0
M  V30 949 H 87.9239 -3.5151 2.22292 0
M  V30 950 H 86.5009 -3.70731 0.40157 0
M  V30 951 N 88.686 -0.835752 -1.33615 0
M  V30 952 C 89.649 -0.272 -2.2758 0
M  V30 953 C 90.649 0.557487 -1.50827 0
M  V30 954 O 91.839 0.37173 -1.70188 0
M  V30 955 C 88.971 0.617173 -3.35267 0
M  V30 956 H 90.164 -1.10111 -2.78954 0
M  V30 957 H 87.717 -0.608594 -1.43965 0
M  V30 958 H 88.452 1.46884 -2.89129 0
M  V30 959 H 88.237 0.0237066 -3.92093 0
M  V30 960 H 89.727 1.005 -4.05326 0
M  V30 961 N 90.1641 1.46063 -0.591896 0
M  V30 962 C 91.3921 2.06717 -0.0868936 0
M  V30 963 C 91.8071 1.43916 1.22203 0
M  V30 964 O 91.1641 0.547698 1.74088 0
M  V30 965 C 91.2151 3.6142 0.0758725 0
M  V30 966 O 90.9361 4.21874 -1.18126 0
M  V30 967 C 92.4371 4.39025 0.61416 0
M  V30 968 H 89.6571 0.668162 -0.0616518 0
M  V30 969 H 92.2011 1.8755 -0.815175 0
M  V30 970 H 90.3561 3.79983 0.754413 0
M  V30 971 H 90.7701 5.14861 -1.00092 0
M  V30 972 H 92.2441 5.4783 0.677193 0
M  V30 973 H 92.7211 4.07708 1.63312 0
M  V30 974 H 93.3271 4.2529 -0.0298142 0
M  V30 975 N 91.6422 0.330177 1.54103 0
M  V30 976 C 92.9192 -0.325007 1.92881 0
M  V30 977 C 93.2992 -1.6934 1.26045 0
M  V30 978 O 92.6472 -2.24855 0.406526 0
M  V30 979 C 92.8572 -0.410634 3.46576 0
M  V30 980 C 94.2052 -0.667801 4.19316 0
M  V30 981 O 95.2292 -0.49329 3.52768 0
M  V30 982 O 94.0882 -1.00491 5.37181 0
M  V30 983 H 91.1822 -0.186873 0.80561 0
M  V30 984 H 93.7282 0.380376 1.65382 0
M  V30 985 H 92.5002 0.550164 3.87413 0
M  V30 986 H 92.1232 -1.16333 3.802 0
M  V30 987 N 93.1203 -1.57491 0.0584922 0
M  V30 988 C 94.0523 -2.08916 -0.942694 0
M  V30 989 C 95.0653 -1.0185 -1.27006 0
M  V30 990 O 96.2543 -1.29398 -1.22957 0
M  V30 991 C 93.3543 -2.52341 -2.26224 0
M  V30 992 C 92.5273 -3.82827 -2.1157 0
M  V30 993 C 91.5863 -4.12487 -3.26712 0
M  V30 994 O 90.6123 -4.82295 -3.02292 0
M  V30 995 N 91.8143 -3.64978 -4.5141 0
M  V30 996 H 94.5793 -2.95437 -0.503722 0
M  V30 997 H 92.1403 -1.61397 -0.12757 0
M  V30 998 H 94.1323 -2.69254 -3.02133 0
M  V30 999 H 92.7023 -1.7103 -2.61663 0
M  V30 1000 H 91.9223 -3.75425 -1.20208 0
M  V30 1001 H 93.2103 -4.68263 -1.99015 0
M  V30 1002 H 92.6083 -3.08558 -4.7414 0
M  V30 1003 H 91.1653 -3.87115 -5.2439 0
M  V30 1004 N 94.5984 0.214957 -1.56127 0
M  V30 1005 C 95.5284 1.2695 -1.95974 0
M  V30 1006 C 96.5094 1.48539 -0.828868 0
M  V30 1007 O 97.6944 1.60611 -1.09168 0
M  V30 1008 C 94.8244 2.61794 -2.28214 0
M  V30 1009 C 93.7784 2.54851 -3.43853 0
M  V30 1010 C 93.1044 3.93785 -3.61715 0
M  V30 1011 C 94.4044 2.09065 -4.78632 0
M  V30 1012 H 96.0984 0.93846 -2.84312 0
M  V30 1013 H 93.6444 0.449996 -1.36788 0
M  V30 1014 H 95.5974 3.35731 -2.54682 0
M  V30 1015 H 94.3214 2.96599 -1.36736 0
M  V30 1016 H 92.9804 1.8337 -3.17444 0
M  V30 1017 H 92.6284 4.25908 -2.67602 0
M  V30 1018 H 92.3284 3.90019 -4.39498 0
M  V30 1019 H 93.8524 4.69374 -3.90539 0
M  V30 1020 H 95.2664 2.7275 -5.04262 0
M  V30 1021 H 93.6634 2.16346 -5.59745 0
M  V30 1022 H 94.7334 1.04315 -4.73547 0
M  V30 1023 N 96.0765 1.50051 0.48192 0
M  V30 1024 C 97.0235 1.68122 1.58125 0
M  V30 1025 C 97.9935 0.522545 1.57666 0
M  V30 1026 O 99.1785 0.751844 1.75362 0
M  V30 1027 C 96.3185 1.77142 2.96167 0
M  V30 1028 C 95.4315 3.0444 3.06497 0
M  V30 1029 C 94.5665 3.04321 4.35387 0
M  V30 1030 C 93.6055 4.26118 4.3942 0
M  V30 1031 N 92.7425 4.238 5.59766 0
M  V30 1032 H 97.5825 2.6198 1.42022 0
M  V30 1033 H 95.1195 1.29877 0.690687 0
M  V30 1034 H 97.0775 1.80352 3.76203 0
M  V30 1035 H 95.7075 0.867329 3.1093 0
M  V30 1036 H 94.7595 3.10752 2.19402 0
M  V30 1037 H 96.0715 3.94426 3.05336 0
M  V30 1038 H 95.2255 3.062 5.23762 0
M  V30 1039 H 93.9645 2.12147 4.39141 0
M  V30 1040 H 92.9695 4.24463 3.49444 0
M  V30 1041 H 94.1945 5.19507 4.37366 0
M  V30 1042 H 92.1405 3.34474 5.64326 0
M  V30 1043 H 92.0575 5.07542 5.60301 0
M  V30 1044 H 93.3255 4.2981 6.50295 0
M  V30 1045 N 97.5546 -0.734337 1.39446 0
M  V30 1046 C 98.5016 -1.84835 1.38219 0
M  V30 1047 C 99.4716 -1.64331 0.24179 0
M  V30 1048 O 100.657 -1.85728 0.437002 0
M  V30 1049 C 97.7966 -3.22355 1.23212 0
M  V30 1050 C 96.9096 -3.5456 2.46801 0
M  V30 1051 C 96.0446 -4.81485 2.24377 0
M  V30 1052 C 95.0836 -5.06536 3.43639 0
M  V30 1053 N 94.2206 -6.24665 3.20528 0
M  V30 1054 H 99.0606 -1.85219 2.33448 0
M  V30 1055 H 96.5976 -0.905039 1.15963 0
M  V30 1056 H 98.5556 -4.0174 1.12522 0
M  V30 1057 H 97.1856 -3.21248 0.316121 0
M  V30 1058 H 96.2376 -2.69872 2.68092 0
M  V30 1059 H 97.5496 -3.6899 3.3563 0
M  V30 1060 H 96.7036 -5.68852 2.10933 0
M  V30 1061 H 95.4426 -4.6923 1.32944 0
M  V30 1062 H 94.4476 -4.17632 3.5758 0
M  V30 1063 H 95.6726 -5.20676 4.35974 0
M  V30 1064 H 93.6186 -6.13696 2.3176 0
M  V30 1065 H 93.5356 -6.39685 4.02913 0
M  V30 1066 H 94.8036 -7.14868 3.10779 0
M  V30 1067 N 99.0327 -1.24633 -0.964593 0
M  V30 1068 C 99.9957 -1.0424 -2.04124 0
M  V30 1069 C 100.996 0.00137563 -1.608 0
M  V30 1070 O 102.186 -0.239883 -1.7254 0
M  V30 1071 C 99.3177 -0.580588 -3.3592 0
M  V30 1072 H 100.511 -1.99803 -2.23649 0
M  V30 1073 H 98.0637 -1.06899 -1.14027 0
M  V30 1074 H 98.7987 0.3781 -3.22088 0
M  V30 1075 H 98.5837 -1.33398 -3.6871 0
M  V30 1076 H 100.074 -0.459034 -4.15069 0
M  V30 1077 N 100.511 1.16574 -1.06058 0
M  V30 1078 C 101.458 2.20883 -0.669263 0
M  V30 1079 C 102.428 1.62729 0.332918 0
M  V30 1080 O 103.613 1.895 0.222346 0
M  V30 1081 C 100.753 3.45049 -0.0593572 0
M  V30 1082 C 99.8658 4.17458 -1.11143 0
M  V30 1083 C 99.0008 5.29135 -0.467916 0
M  V30 1084 C 98.0398 5.93343 -1.50369 0
M  V30 1085 N 97.1768 6.96516 -0.883706 0
M  V30 1086 H 102.017 2.53709 -1.5632 0
M  V30 1087 H 99.5538 1.24616 -0.781625 0
M  V30 1088 H 101.512 4.16033 0.311771 0
M  V30 1089 H 100.142 3.12781 0.797992 0
M  V30 1090 H 99.1938 3.45101 -1.60029 0
M  V30 1091 H 100.506 4.61307 -1.89731 0
M  V30 1092 H 99.6598 6.06684 -0.0436871 0
M  V30 1093 H 98.3988 4.86443 0.349864 0
M  V30 1094 H 97.4038 5.14517 -1.93784 0
M  V30 1095 H 98.6288 6.38114 -2.32352 0
M  V30 1096 H 96.5748 6.55943 -0.086595 0
M  V30 1097 H 96.4918 7.38723 -1.607 0
M  V30 1098 H 97.7598 7.77993 -0.484543 0
M  V30 1099 N 101.989 0.842826 1.3317 0
M  V30 1100 C 102.952 0.284065 2.27433 0
M  V30 1101 C 103.952 -0.54948 1.5112 0
M  V30 1102 O 105.142 -0.362699 1.70382 0
M  V30 1103 C 102.274 -0.599384 3.35589 0
M  V30 1104 H 103.467 1.11589 2.78366 0
M  V30 1105 H 101.02 0.616221 1.4364 0
M  V30 1106 H 101.755 -1.45349 2.89904 0
M  V30 1107 H 101.54 -0.00291266 3.921 0
M  V30 1108 H 103.03 -0.983488 4.05854 0
M  V30 1109 N 103.467 -1.45747 0.599634 0
M  V30 1110 C 104.377 -2.34262 -0.125888 0
M  V30 1111 C 105.393 -1.50768 -0.868625 0
M  V30 1112 O 106.569 -1.83592 -0.828003 0
M  V30 1113 C 103.634 -3.28252 -1.11587 0
M  V30 1114 C 102.695 -4.27651 -0.375956 0
M  V30 1115 C 101.928 -5.1715 -1.31877 0
M  V30 1116 O 102.151 -5.09916 -2.55621 0
M  V30 1117 O 101.085 -5.96286 -0.820157 0
M  V30 1118 H 104.911 -2.97688 0.601315 0
M  V30 1119 H 102.496 -1.44999 0.359934 0
M  V30 1120 H 104.378 -3.86191 -1.68626 0
M  V30 1121 H 103.053 -2.67401 -1.82424 0
M  V30 1122 H 101.96 -3.7335 0.236698 0
M  V30 1123 H 103.293 -4.91334 0.29177 0
M  V30 1124 N 104.945 -0.338344 -1.53925 0
M  V30 1125 C 105.908 0.508299 -2.23493 0
M  V30 1126 C 106.908 1.03175 -1.23335 0
M  V30 1127 O 108.098 0.921826 -1.47811 0
M  V30 1128 C 105.23 1.70754 -2.95052 0
M  V30 1129 H 106.423 -0.100058 -2.99733 0
M  V30 1130 H 103.976 -0.0896198 -1.56043 0
M  V30 1131 H 104.711 2.35474 -2.22986 0
M  V30 1132 H 104.496 1.33946 -3.68512 0
M  V30 1133 H 105.986 2.30818 -3.48013 0
M  V30 1134 N 106.423 1.57458 -0.0668435 0
M  V30 1135 C 107.355 2.09413 0.931601 0
M  V30 1136 C 108.368 1.02522 1.26464 0
M  V30 1137 O 109.557 1.30049 1.22269 0
M  V30 1138 C 106.657 2.53537 2.24882 0
M  V30 1139 C 105.83 3.83944 2.09537 0
M  V30 1140 C 104.889 4.14214 3.2452 0
M  V30 1141 O 103.915 4.83891 2.9973 0
M  V30 1142 N 105.117 3.67367 4.49469 0
M  V30 1143 H 107.882 2.95699 0.488048 0
M  V30 1144 H 105.443 1.61462 0.119009 0
M  V30 1145 H 107.435 2.70853 3.00701 0
M  V30 1146 H 106.005 1.72415 2.60753 0
M  V30 1147 H 105.225 3.76057 1.18215 0
M  V30 1148 H 106.513 4.69312 1.96529 0
M  V30 1149 H 105.911 3.11068 4.72497 0
M  V30 1150 H 104.468 3.89891 5.2233 0
M  V30 1151 N 107.901 -0.206675 1.56239 0
M  V30 1152 C 109.147 -0.930218 1.80208 0
M  V30 1153 C 109.48 -1.83387 0.638981 0
M  V30 1154 O 108.755 -1.91119 -0.361066 0
M  V30 1155 C 109.038 -1.75641 3.1436 0
M  V30 1156 C 108.891 -0.878257 4.41142 0
M  V30 1157 C 110.21 -2.73129 3.45092 0
M  V30 1158 H 107.329 -0.336742 0.655571 0
M  V30 1159 H 109.971 -0.198222 1.88963 0
M  V30 1160 H 108.121 -2.38048 3.07027 0
M  V30 1161 H 109.793 -0.269787 4.6051 0
M  V30 1162 H 108.036 -0.184385 4.33408 0
M  V30 1163 H 108.707 -1.49106 5.3148 0
M  V30 1164 H 111.183 -2.20856 3.52649 0
M  V30 1165 H 110.059 -3.28028 4.40101 0
M  V30 1166 H 110.32 -3.51606 2.68003 0
M  V30 1167 N 109.379 -1.50304 -0.473955 0
M  V30 1168 C 110.628 -1.60392 -1.22301 0
M  V30 1169 C 110.941 -0.308411 -1.93153 0
M  V30 1170 O 112.147 -0.288156 -2.69966 0
M  V30 1171 C 110.603 -2.83109 -2.2221 0
M  V30 1172 C 110.211 -4.19524 -1.57173 0
M  V30 1173 C 111.955 -3.0254 -2.97775 0
M  V30 1174 C 109.862 -5.33431 -2.55353 0
M  V30 1175 H 108.792 -0.597286 -0.460179 0
M  V30 1176 H 111.443 -1.76731 -0.493803 0
M  V30 1177 H 109.825 -2.60322 -2.9841 0
M  V30 1178 H 110.999 -4.52554 -0.867824 0
M  V30 1179 H 109.314 -4.05674 -0.939002 0
M  V30 1180 H 111.911 -3.84811 -3.71248 0
M  V30 1181 H 112.254 -2.14154 -3.56992 0
M  V30 1182 H 112.787 -3.25494 -2.28688 0
M  V30 1183 H 109.526 -6.23962 -2.00878 0
M  V30 1184 H 109.046 -5.04823 -3.23904 0
M  V30 1185 H 110.725 -5.63887 -3.17239 0
M  V30 1186 N 110.857 0.726932 -1.39834 0
M  V30 1187 C 112.106 1.48214 -1.36805 0
M  V30 1188 C 112.419 1.95576 0.0305291 0
M  V30 1189 O 113.625 2.7088 0.183417 0
M  V30 1190 C 112.081 2.67854 -2.40379 0
M  V30 1191 C 111.689 2.27408 -3.85992 0
M  V30 1192 C 113.433 3.45641 -2.46439 0
M  V30 1193 C 111.34 3.43819 -4.81189 0
M  V30 1194 H 110.27 0.556606 -0.508631 0
M  V30 1195 H 112.921 0.792216 -1.65518 0
M  V30 1196 H 111.303 3.3896 -2.04749 0
M  V30 1197 H 112.477 1.63795 -4.30706 0
M  V30 1198 H 110.792 1.62692 -3.83302 0
M  V30 1199 H 113.389 4.32244 -3.14753 0
M  V30 1200 H 113.732 3.88669 -1.49139 0
M  V30 1201 H 114.265 2.8157 -2.81004 0
M  V30 1202 H 111.004 3.05834 -5.79781 0
M  V30 1203 H 110.524 4.06385 -4.41148 0
M  V30 1204 H 112.203 4.10043 -5.00474 0
M  V30 1205 N 112.336 1.25143 0.95797 0
M  V30 1206 C 113.246 1.06968 2.08794 0
M  V30 1207 C 114.262 0.00773911 1.73998 0
M  V30 1208 O 115.438 0.207972 2.00323 0
M  V30 1209 C 112.503 0.68691 3.39827 0
M  V30 1210 C 111.564 1.82641 3.88511 0
M  V30 1211 C 110.797 1.46181 5.1329 0
M  V30 1212 O 111.02 0.355971 5.69288 0
M  V30 1213 O 109.954 2.29085 5.566 0
M  V30 1214 H 113.78 2.01723 2.27027 0
M  V30 1215 H 111.365 1.04051 1.07209 0
M  V30 1216 H 113.247 0.485417 4.18595 0
M  V30 1217 H 111.922 -0.231417 3.22872 0
M  V30 1218 H 110.829 2.08274 3.10762 0
M  V30 1219 H 112.162 2.72386 4.09959 0
M  V30 1220 N 113.814 -1.1601 1.06675 0
M  V30 1221 C 114.746 -2.20115 0.638921 0
M  V30 1222 C 115.759 -1.59916 -0.305057 0
M  V30 1223 O 116.948 -1.78245 -0.0954446 0
M  V30 1224 C 114.048 -3.38798 -0.0830083 0
M  V30 1225 C 113.221 -4.2855 0.875426 0
M  V30 1226 C 112.28 -5.25849 0.192042 0
M  V30 1227 O 111.306 -5.63102 0.830921 0
M  V30 1228 N 112.508 -5.70648 -1.06493 0
M  V30 1229 H 115.273 -2.57439 1.53444 0
M  V30 1230 H 112.834 -1.31057 0.950557 0
M  V30 1231 H 114.826 -4.00936 -0.550685 0
M  V30 1232 H 113.396 -2.99947 -0.880386 0
M  V30 1233 H 112.616 -3.63617 1.52238 0
M  V30 1234 H 113.904 -4.85393 1.52548 0
M  V30 1235 H 113.302 -5.42482 -1.60405 0
M  V30 1236 H 111.859 -6.34859 -1.47641 0
M  V30 1237 N 115.292 -0.849877 -1.32721 0
M  V30 1238 C 116.255 -0.296122 -2.27279 0
M  V30 1239 C 117.255 0.541458 -1.5141 0
M  V30 1240 O 118.445 0.353658 -1.70572 0
M  V30 1241 C 115.577 0.581579 -3.35902 0
M  V30 1242 H 116.77 -1.13064 -2.77771 0
M  V30 1243 H 114.323 -0.62383 -1.43311 0
M  V30 1244 H 115.058 1.43809 -2.9067 0
M  V30 1245 H 114.843 -0.0178814 -3.92096 0
M  V30 1246 H 116.333 0.961951 -4.0637 0
M  V30 1247 N 116.77 1.45427 -0.607355 0
M  V30 1248 C 117.718 2.32269 0.12411 0
M  V30 1249 C 118.712 1.45955 0.859854 0
M  V30 1250 O 119.918 1.6244 0.775447 0
M  V30 1251 H 116.293 0.749691 0.0588839 0
M  V30 1252 H 118.264 2.91743 -0.626762 0
M  V30 1253 C 117.013 3.29567 1.1082 0
M  V30 1254 H 116.336 3.95978 0.551492 0
M  V30 1255 H 117.776 3.93061 1.58995 0
M  V30 1256 C 116.235 2.56722 2.18164 0
M  V30 1257 O 116.765 2.34842 3.25902 0
M  V30 1258 N 114.971 2.16861 1.93442 0
M  V30 1259 H 114.518 2.34855 1.05834 0
M  V30 1260 H 114.476 1.68444 2.65469 0
M  V30 1261 N 118.248 0.346503 1.53744 0
M  V30 1262 C 119.195 -0.508914 2.25119 0
M  V30 1263 C 120.165 -1.09315 1.25058 0
M  V30 1264 O 121.35 -1.12921 1.53797 0
M  V30 1265 C 118.49 -1.65246 3.02965 0
M  V30 1266 C 117.603 -1.09525 4.17886 0
M  V30 1267 C 116.738 -2.20634 4.83212 0
M  V30 1268 C 115.777 -1.62279 5.90196 0
M  V30 1269 N 114.914 -2.67143 6.49291 0
M  V30 1270 H 119.754 0.106283 2.9781 0
M  V30 1271 H 117.291 0.0642227 1.4696 0
M  V30 1272 H 119.249 -2.32574 3.4636 0
M  V30 1273 H 117.879 -2.2386 2.32565 0
M  V30 1274 H 116.931 -0.312818 3.79112 0
M  V30 1275 H 118.243 -0.628444 4.94825 0
M  V30 1276 H 117.397 -2.95821 5.29693 0
M  V30 1277 H 116.136 -2.70659 4.05703 0
M  V30 1278 H 115.141 -0.855989 5.43096 0
M  V30 1279 H 116.366 -1.13102 6.69615 0
M  V30 1280 H 114.312 -3.16417 5.74645 0
M  V30 1281 H 114.229 -2.25093 7.21713 0
M  V30 1282 H 115.497 -3.4209 7.00425 0
M  V30 1283 N 119.726 -1.57421 0.075193 0
M  V30 1284 C 121.142 -1.57099 -0.281444 0
M  V30 1285 C 121.342 -1.08486 -1.69803 0
M  V30 1286 O 120.398 -0.752279 -2.41033 0
M  V30 1287 C 121.711 -3.00571 -0.0880041 0
M  V30 1288 C 123.259 -3.12605 -0.157281 0
M  V30 1289 C 123.734 -4.57999 0.0079207 0
M  V30 1290 N 125.225 -4.63176 -0.0475725 0
M  V30 1291 C 125.96 -5.73373 0.0557876 0
M  V30 1292 N 125.456 -6.92473 0.21286 0
M  V30 1293 N 127.249 -5.621 -0.00152098 0
M  V30 1294 H 119.4 -1.87335 1.00098 0
M  V30 1295 H 121.663 -0.86377 0.390646 0
M  V30 1296 H 121.369 -3.40262 0.889629 0
M  V30 1297 H 121.243 -3.67754 -0.838875 0
M  V30 1298 H 123.63 -2.72798 -1.1254 0
M  V30 1299 H 123.711 -2.48053 0.62475 0
M  V30 1300 H 123.355 -4.98496 0.972824 0
M  V30 1301 H 123.285 -5.20586 -0.793556 0
M  V30 1302 H 125.776 -3.7753 -0.167244 0
M  V30 1303 H 126.089 -7.72279 0.283781 0
M  V30 1304 H 124.434 -6.94556 0.248267 0
M  V30 1305 H 127.625 -4.67938 -0.122958 0
M  V30 1306 H 127.798 -6.47948 0.0824844 0
M  V30 1307 N 121.204 0.198386 -1.56346 0
M  V30 1308 C 122.62 0.549085 -1.49857 0
M  V30 1309 C 122.82 1.86016 -0.774611 0
M  V30 1310 O 121.876 2.50416 -0.323776 0
M  V30 1311 C 123.189 0.606868 -2.94512 0
M  V30 1312 C 124.737 0.695925 -3.05165 0
M  V30 1313 C 125.212 0.784848 -4.51225 0
M  V30 1314 N 126.703 0.848463 -4.55363 0
M  V30 1315 C 127.438 0.937378 -5.65686 0
M  V30 1316 N 126.934 0.9888 -6.85707 0
M  V30 1317 N 128.727 0.974312 -5.53592 0
M  V30 1318 H 120.878 -0.661655 -2.01831 0
M  V30 1319 H 123.141 -0.235261 -0.918344 0
M  V30 1320 H 122.847 -0.28732 -3.50524 0
M  V30 1321 H 122.721 1.46268 -3.47686 0
M  V30 1322 H 125.108 1.58055 -2.49204 0
M  V30 1323 H 125.189 -0.186022 -2.55123 0
M  V30 1324 H 124.833 -0.0954072 -5.0781 0
M  V30 1325 H 124.763 1.68255 -4.98997 0
M  V30 1326 H 127.254 0.818103 -3.68938 0
M  V30 1327 H 127.567 1.05707 -7.65536 0
M  V30 1328 H 125.912 0.957534 -6.88372 0
M  V30 1329 H 129.103 0.930954 -4.58749 0
M  V30 1330 H 129.276 1.04015 -6.39597 0
M  V30 1331 N 122.682 1.50554 0.465978 0
M  V30 1332 C 123.907 1.65838 1.24549 0
M  V30 1333 C 124.332 0.343486 1.84937 0
M  V30 1334 O 123.69 -0.69324 1.67523 0
M  V30 1335 C 123.738 2.75533 2.32624 0
M  V30 1336 O 122.842 2.37142 3.37398 0
M  V30 1337 H 122.183 0.553893 0.366194 0
M  V30 1338 H 124.713 1.96959 0.553927 0
M  V30 1339 H 124.723 2.98763 2.77857 0
M  V30 1340 H 123.398 3.70962 1.88043 0
M  V30 1341 H 121.975 2.24377 2.97841 0
M  V30 1342 N 124.16 -0.719506 1.40217 0
M  V30 1343 C 125.092 -1.84428 1.36084 0
M  V30 1344 C 126.105 -1.60597 0.266913 0
M  V30 1345 O 127.294 -1.70544 0.526983 0
M  V30 1346 C 124.394 -3.20757 1.094 0
M  V30 1347 C 123.567 -3.71817 2.30372 0
M  V30 1348 C 122.626 -4.86748 1.99907 0
M  V30 1349 O 121.652 -4.99603 2.72737 0
M  V30 1350 N 122.854 -5.7226 0.974635 0
M  V30 1351 H 125.619 -1.88473 2.33019 0
M  V30 1352 H 123.18 -0.900885 1.3452 0
M  V30 1353 H 125.172 -3.95235 0.870116 0
M  V30 1354 H 123.742 -3.11884 0.211452 0
M  V30 1355 H 122.962 -2.88514 2.68614 0
M  V30 1356 H 124.25 -4.02666 3.11026 0
M  V30 1357 H 123.648 -5.6448 0.371368 0
M  V30 1358 H 122.205 -6.46739 0.810656 0
M  V30 1359 N 125.638 -1.25649 -0.95132 0
M  V30 1360 C 126.887 -1.09988 -1.69073 0
M  V30 1361 C 127.2 0.358355 -1.92289 0
M  V30 1362 O 128.406 0.635466 -2.63958 0
M  V30 1363 C 126.862 -1.92012 -3.044 0
M  V30 1364 C 126.47 -3.42347 -2.88968 0
M  V30 1365 C 128.214 -1.8493 -3.82101 0
M  V30 1366 C 126.121 -4.16655 -4.19705 0
M  V30 1367 H 125.051 -0.407993 -0.63408 0
M  V30 1368 H 127.702 -1.49873 -1.05879 0
M  V30 1369 H 126.084 -1.44952 -3.68517 0
M  V30 1370 H 127.258 -3.97104 -2.33762 0
M  V30 1371 H 125.573 -3.50557 -2.24719 0
M  V30 1372 H 128.17 -2.37739 -4.78941 0
M  V30 1373 H 128.513 -0.817883 -4.08187 0
M  V30 1374 H 129.046 -2.29758 -3.2474 0
M  V30 1375 H 125.785 -5.20224 -3.98807 0
M  V30 1376 H 125.305 -3.66681 -4.74663 0
M  V30 1377 H 126.984 -4.24551 -4.88227 0
M  V30 1378 N 127.117 1.15442 -1.07289 0
M  V30 1379 C 128.047 2.22312 -0.714107 0
M  V30 1380 C 129.028 1.67467 0.298155 0
M  V30 1381 O 130.213 1.93445 0.171048 0
M  V30 1382 C 127.343 3.47124 -0.110448 0
M  V30 1383 C 126.297 4.14926 -1.04979 0
M  V30 1384 C 125.623 5.33807 -0.308924 0
M  V30 1385 C 126.923 4.64762 -2.38314 0
M  V30 1386 H 128.617 2.5258 -1.6076 0
M  V30 1387 H 126.163 1.21404 -0.77441 0
M  V30 1388 H 128.116 4.21124 0.152482 0
M  V30 1389 H 126.84 3.16187 0.81812 0
M  V30 1390 H 125.499 3.42866 -1.29764 0
M  V30 1391 H 125.147 4.99126 0.623084 0
M  V30 1392 H 124.847 5.80113 -0.935036 0
M  V30 1393 H 126.371 6.10576 -0.0537771 0
M  V30 1394 H 127.785 5.30292 -2.1786 0
M  V30 1395 H 126.182 5.21728 -2.96514 0
M  V30 1396 H 127.252 3.80434 -3.00663 0
M  V30 1397 N 128.595 0.856903 1.32268 0
M  V30 1398 C 129.872 0.382583 1.91822 0
M  V30 1399 C 130.252 -1.13407 1.78051 0
M  V30 1400 O 129.6 -1.95673 1.18001 0
M  V30 1401 C 129.81 0.849446 3.38505 0
M  V30 1402 C 131.158 0.867936 4.15634 0
M  V30 1403 O 132.182 0.794232 3.47232 0
M  V30 1404 O 131.041 0.972286 5.37781 0
M  V30 1405 H 128.135 0.112014 0.819379 0
M  V30 1406 H 130.681 0.943952 1.41024 0
M  V30 1407 H 129.453 1.89267 3.42482 0
M  V30 1408 H 129.076 0.265652 3.96712 0
M  V30 1409 N 130.073 -1.45103 0.615059 0
M  V30 1410 C 130.983 -2.34382 -0.101034 0
M  V30 1411 C 131.999 -1.51681 -0.852585 0
M  V30 1412 O 133.175 -1.8446 -0.808484 0
M  V30 1413 C 130.24 -3.29417 -1.08099 0
M  V30 1414 C 129.301 -4.28025 -0.330577 0
M  V30 1415 C 128.534 -5.1852 -1.26385 0
M  V30 1416 O 128.757 -5.12598 -2.50198 0
M  V30 1417 O 127.691 -5.97122 -0.756866 0
M  V30 1418 H 131.517 -2.97033 0.632855 0
M  V30 1419 H 129.102 -1.4461 0.375293 0
M  V30 1420 H 130.984 -3.87958 -1.6452 0
M  V30 1421 H 129.659 -2.69321 -1.79577 0
M  V30 1422 H 128.566 -3.73078 0.276283 0
M  V30 1423 H 129.899 -4.90997 0.343866 0
M  V30 1424 N 131.551 -0.354651 -1.53558 0
M  V30 1425 C 132.514 0.484566 -2.24019 0
M  V30 1426 C 133.514 1.01861 -1.24422 0
M  V30 1427 O 134.704 0.906097 -1.4878 0
M  V30 1428 C 131.836 1.67615 -2.96847 0
M  V30 1429 H 133.029 -0.131843 -2.9961 0
M  V30 1430 H 130.582 -0.106165 -1.55939 0
M  V30 1431 H 131.317 2.33095 -2.25471 0
M  V30 1432 H 131.102 1.30029 -3.69912 0
M  V30 1433 H 132.592 2.27114 -3.50441 0
M  V30 1434 N 133.029 1.57378 -0.0835403 0
M  V30 1435 C 133.976 2.13384 0.879539 0
M  V30 1436 C 134.946 1.04936 1.28754 0
M  V30 1437 O 136.131 1.32662 1.37133 0
M  V30 1438 C 133.271 2.70932 2.13752 0
M  V30 1439 C 132.384 3.93575 1.7811 0
M  V30 1440 C 131.519 4.39326 2.98607 0
M  V30 1441 C 130.558 5.54587 2.59037 0
M  V30 1442 N 129.695 5.95243 3.72331 0
M  V30 1443 H 134.535 2.9537 0.395076 0
M  V30 1444 H 132.072 1.45953 0.183349 0
M  V30 1445 H 134.03 3.02411 2.87408 0
M  V30 1446 H 132.66 1.91693 2.59718 0
M  V30 1447 H 131.712 3.68483 0.94469 0
M  V30 1448 H 133.024 4.77258 1.45005 0
M  V30 1449 H 132.178 4.72528 3.80529 0
M  V30 1450 H 130.917 3.5452 3.34913 0
M  V30 1451 H 129.922 5.21024 1.75539 0
M  V30 1452 H 131.147 6.41133 2.23887 0
M  V30 1453 H 129.093 5.13385 4.08378 0
M  V30 1454 H 129.01 6.73694 3.43034 0
M  V30 1455 H 130.278 6.33072 4.54797 0
M  V30 1456 N 134.507 -0.190092 1.56449 0
M  V30 1457 C 135.47 -1.21925 1.9408 0
M  V30 1458 C 136.47 -1.38176 0.822431 0
M  V30 1459 O 137.66 -1.35903 1.08977 0
M  V30 1460 C 134.792 -2.58773 2.21922 0
M  V30 1461 H 135.985 -0.897464 2.86157 0
M  V30 1462 H 133.538 -0.43181 1.50217 0
M  V30 1463 H 134.273 -2.95998 1.32499 0
M  V30 1464 H 134.058 -2.48348 3.03424 0
M  V30 1465 H 135.548 -3.32978 2.52022 0
M  V30 1466 N 135.985 -1.50799 -0.457987 0
M  V30 1467 C 136.895 -1.73426 -1.57989 0
M  V30 1468 C 137.911 -0.617745 -1.62665 0
M  V30 1469 O 139.087 -0.897614 -1.80291 0
M  V30 1470 C 136.152 -1.83557 -2.94122 0
M  V30 1471 C 135.213 -3.07345 -2.99729 0
M  V30 1472 C 134.446 -3.16983 -4.29368 0
M  V30 1473 O 134.669 -2.33077 -5.20607 0
M  V30 1474 O 133.603 -4.09812 -4.40837 0
M  V30 1475 H 137.429 -2.68555 -1.41817 0
M  V30 1476 H 135.014 -1.35052 -0.638859 0
M  V30 1477 H 136.896 -1.92326 -3.74952 0
M  V30 1478 H 135.571 -0.916137 -3.10465 0
M  V30 1479 H 134.478 -3.04068 -2.1793 0
M  V30 1480 H 135.811 -3.9891 -2.88326 0
M  V30 1481 N 137.463 0.71206 -1.40597 0
M  V30 1482 C 138.426 1.80785 -1.40888 0
M  V30 1483 C 139.426 1.57937 -0.302103 0
M  V30 1484 O 140.616 1.64913 -0.561182 0
M  V30 1485 C 137.748 3.18927 -1.20409 0
M  V30 1486 H 138.941 1.81924 -2.38419 0
M  V30 1487 H 136.494 0.91805 -1.26497 0
M  V30 1488 H 137.229 3.23436 -0.236522 0
M  V30 1489 H 137.014 3.36911 -2.00582 0
M  V30 1490 H 138.504 3.98949 -1.23408 0
M  V30 1491 N 138.941 1.26152 0.944643 0
M  V30 1492 C 139.851 1.09176 2.07648 0
M  V30 1493 C 140.867 0.0261935 1.7398 0
M  V30 1494 O 142.043 0.229208 2.00091 0
M  V30 1495 C 139.108 0.722915 3.39079 0
M  V30 1496 C 138.169 1.86752 3.86552 0
M  V30 1497 C 137.402 1.51617 5.11711 0
M  V30 1498 O 137.625 0.416331 5.68879 0
M  V30 1499 O 136.559 2.34975 5.54139 0
M  V30 1500 H 140.385 2.0412 2.24875 0
M  V30 1501 H 137.97 1.05182 1.061 0
M  V30 1502 H 139.852 0.529787 4.18056 0
M  V30 1503 H 138.527 -0.197159 3.23099 0
M  V30 1504 H 137.434 2.11558 3.08535 0
M  V30 1505 H 138.767 2.76719 4.07047 0
M  V30 1506 N 140.419 -1.14872 1.07899 0
M  V30 1507 C 141.351 -2.19425 0.662231 0
M  V30 1508 C 142.364 -1.60231 -0.288079 0
M  V30 1509 O 143.553 -1.78336 -0.076534 0
M  V30 1510 C 140.653 -3.38867 -0.0470695 0
M  V30 1511 C 139.826 -4.27597 0.920831 0
M  V30 1512 C 138.885 -5.25616 0.247805 0
M  V30 1513 O 137.911 -5.62189 0.890599 0
M  V30 1514 N 139.113 -5.71746 -1.00435 0
M  V30 1515 H 141.878 -2.55797 1.56166 0
M  V30 1516 H 139.439 -1.30042 0.964404 0
M  V30 1517 H 141.431 -4.01497 -0.50813 0
M  V30 1518 H 140.001 -3.00864 -0.848523 0
M  V30 1519 H 139.221 -3.61982 1.56087 0
M  V30 1520 H 140.509 -4.83748 1.57688 0
M  V30 1521 H 139.907 -5.44153 -1.54642 0
M  V30 1522 H 138.464 -6.36389 -1.40899 0
M  V30 1523 N 141.898 -0.863906 -1.31812 0
M  V30 1524 C 142.808 -0.318461 -2.32428 0
M  V30 1525 C 143.824 0.568496 -1.64451 0
M  V30 1526 O 145 0.46666 -1.95919 0
M  V30 1527 C 142.065 0.476355 -3.43412 0
M  V30 1528 C 141.126 -0.43784 -4.27061 0
M  V30 1529 C 140.359 0.319138 -5.32745 0
M  V30 1530 O 140.582 1.54799 -5.48993 0
M  V30 1531 O 139.516 -0.319861 -6.01049 0
M  V30 1532 H 143.342 -1.15229 -2.80991 0
M  V30 1533 H 140.927 -0.627103 -1.35602 0
M  V30 1534 H 142.809 0.927156 -4.11074 0
M  V30 1535 H 141.484 1.28683 -2.97022 0
M  V30 1536 H 140.391 -0.937013 -3.62175 0
M  V30 1537 H 141.724 -1.21375 -4.77 0
M  V30 1538 N 143.376 1.44774 -0.622745 0
M  V30 1539 C 144.792 1.56986 -0.287652 0
M  V30 1540 C 144.992 1.61167 1.20944 0
M  V30 1541 O 144.048 1.55015 1.99315 0
M  V30 1542 C 145.361 2.84551 -0.972188 0
M  V30 1543 C 146.909 2.9825 -0.949536 0
M  V30 1544 C 147.384 4.28605 -1.61437 0
M  V30 1545 N 148.875 4.35399 -1.58057 0
M  V30 1546 C 149.61 5.34964 -2.064 0
M  V30 1547 N 149.106 6.40981 -2.62897 0
M  V30 1548 N 150.899 5.26419 -1.97078 0
M  V30 1549 H 143.05 1.40304 -1.59463 0
M  V30 1550 H 145.313 0.671794 -0.668878 0
M  V30 1551 H 145.019 2.87417 -2.02693 0
M  V30 1552 H 144.893 3.73807 -0.504771 0
M  V30 1553 H 147.28 2.94941 0.0967067 0
M  V30 1554 H 147.361 2.10364 -1.45536 0
M  V30 1555 H 147.005 4.32672 -2.66002 0
M  V30 1556 H 146.935 5.15334 -1.08344 0
M  V30 1557 H 149.426 3.59397 -1.16801 0
M  V30 1558 H 149.739 7.13225 -2.97539 0
M  V30 1559 H 148.084 6.4169 -2.66943 0
M  V30 1560 H 151.275 4.42504 -1.52669 0
M  V30 1561 H 151.448 6.03861 -2.35066 0
M  V30 1562 N 144.854 0.36279 1.53368 0
M  V30 1563 C 146.082 -0.228613 2.05633 0
M  V30 1564 C 146.497 -1.42676 1.23649 0
M  V30 1565 O 145.854 -1.80394 0.27647 0
M  V30 1566 C 145.905 -0.624845 3.56059 0
M  V30 1567 O 145.626 0.525675 4.34935 0
M  V30 1568 C 147.127 -1.27493 4.24571 0
M  V30 1569 H 144.347 -0.0407183 0.669763 0
M  V30 1570 H 146.891 0.520352 1.97769 0
M  V30 1571 H 145.046 -1.32373 3.64083 0
M  V30 1572 H 145.46 0.205969 5.24095 0
M  V30 1573 H 146.934 -1.50277 5.31151 0
M  V30 1574 H 147.411 -2.23439 3.78116 0
M  V30 1575 H 148.017 -0.617558 4.20792 0
M  V30 1576 N 146.332 -1.57332 0.0918853 0
M  V30 1577 C 147.279 -2.13847 -0.868211 0
M  V30 1578 C 148.249 -1.05618 -1.28196 0
M  V30 1579 O 149.434 -1.33387 -1.36427 0
M  V30 1580 C 146.574 -2.72062 -2.12312 0
M  V30 1581 C 145.687 -3.94514 -1.7602 0
M  V30 1582 C 144.822 -4.40903 -2.96273 0
M  V30 1583 C 143.861 -5.55953 -2.56092 0
M  V30 1584 N 142.998 -5.97209 -3.69169 0
M  V30 1585 H 147.838 -2.95575 -0.379406 0
M  V30 1586 H 145.375 -1.46048 -0.175606 0
M  V30 1587 H 147.333 -3.03931 -2.858 0
M  V30 1588 H 145.963 -1.93068 -2.58698 0
M  V30 1589 H 145.015 -3.68979 -0.925135 0
M  V30 1590 H 146.327 -4.7802 -1.42472 0
M  V30 1591 H 145.481 -4.74539 -3.78018 0
M  V30 1592 H 144.22 -3.56291 -3.33029 0
M  V30 1593 H 143.225 -5.21948 -1.72773 0
M  V30 1594 H 144.45 -6.42311 -2.20484 0
M  V30 1595 H 142.396 -5.15543 -4.05649 0
M  V30 1596 H 142.313 -6.75504 -3.39456 0
M  V30 1597 H 143.581 -6.35475 -4.51434 0
M  V30 1598 N 147.81 0.181792 -1.56548 0
M  V30 1599 C 149.059 0.898348 -1.8059 0
M  V30 1600 C 149.372 1.83862 -0.667379 0
M  V30 1601 O 150.578 2.59678 -0.792446 0
M  V30 1602 C 149.034 1.64791 -3.19956 0
M  V30 1603 C 148.642 0.751789 -4.41647 0
M  V30 1604 C 150.386 2.35331 -3.53298 0
M  V30 1605 C 148.293 1.50098 -5.72035 0
M  V30 1606 H 147.223 0.339194 -0.673397 0
M  V30 1607 H 149.874 0.151413 -1.82874 0
M  V30 1608 H 148.256 2.43921 -3.11959 0
M  V30 1609 H 149.43 -0.0018076 -4.608 0
M  V30 1610 H 147.745 0.156562 -4.16106 0
M  V30 1611 H 150.342 2.91958 -4.47956 0
M  V30 1612 H 150.685 3.10164 -2.77676 0
M  V30 1613 H 151.218 1.63154 -3.62803 0
M  V30 1614 H 147.957 0.795175 -6.50659 0
M  V30 1615 H 147.477 2.22817 -5.56878 0
M  V30 1616 H 149.156 2.05125 -6.13622 0
M  V30 1617 N 149.288 1.51039 0.449983 0
M  V30 1618 C 150.534 1.63322 1.20223 0
M  V30 1619 C 150.867 0.34241 1.91158 0
M  V30 1620 O 150.142 -0.657344 1.83055 0
M  V30 1621 C 150.425 2.82801 2.22925 0
M  V30 1622 C 150.278 4.21823 1.56157 0
M  V30 1623 C 151.597 2.97807 3.24035 0
M  V30 1624 H 148.716 0.594407 0.435718 0
M  V30 1625 H 151.358 1.83489 0.493136 0
M  V30 1626 H 149.508 2.65738 2.834 0
M  V30 1627 H 151.18 4.50526 0.991162 0
M  V30 1628 H 149.423 4.25105 0.864172 0
M  V30 1629 H 150.094 5.01391 2.30891 0
M  V30 1630 H 152.57 3.13497 2.73603 0
M  V30 1631 H 151.446 3.82992 3.93202 0
M  V30 1632 H 151.707 2.09328 3.89402 0
M  V30 1633 N 150.766 -0.704594 1.40972 0
M  V30 1634 C 151.729 -1.80035 1.41845 0
M  V30 1635 C 152.729 -1.57774 0.310474 0
M  V30 1636 O 153.919 -1.64613 0.56992 0
M  V30 1637 C 151.051 -3.18284 1.22098 0
M  V30 1638 H 152.244 -1.80658 2.3938 0
M  V30 1639 H 149.797 -0.911329 1.26982 0
M  V30 1640 H 150.532 -3.23306 0.253672 0
M  V30 1641 H 150.317 -3.35843 2.02366 0
M  V30 1642 H 151.807 -3.98289 1.25522 0
M  V30 1643 N 152.244 -1.26651 -0.937939 0
M  V30 1644 C 153.176 -1.04283 -2.04102 0
M  V30 1645 C 154.189 -0.00221014 -1.628 0
M  V30 1646 O 155.378 -0.242645 -1.76843 0
M  V30 1647 C 152.478 -0.557846 -3.34277 0
M  V30 1648 C 151.651 -1.66843 -4.04329 0
M  V30 1649 C 150.71 -1.18095 -5.12777 0
M  V30 1650 O 149.736 -1.87865 -5.37304 0
M  V30 1651 N 150.938 -0.0311006 -5.80492 0
M  V30 1652 H 153.703 -1.9927 -2.23856 0
M  V30 1653 H 151.264 -1.1808 -1.10764 0
M  V30 1654 H 153.256 -0.215836 -4.04124 0
M  V30 1655 H 151.826 0.298523 -3.11171 0
M  V30 1656 H 151.046 -2.18123 -3.28353 0
M  V30 1657 H 152.334 -2.41408 -4.47883 0
M  V30 1658 H 151.732 0.551486 -5.63005 0
M  V30 1659 H 150.289 0.251809 -6.51313 0
M  V30 1660 N 153.722 1.14298 -1.08507 0
M  V30 1661 C 154.685 2.17607 -0.719711 0
M  V30 1662 C 155.685 1.58907 0.245997 0
M  V30 1663 O 156.875 1.74181 0.0254081 0
M  V30 1664 C 154.007 3.40842 -0.0627695 0
M  V30 1665 H 155.2 2.51443 -1.63452 0
M  V30 1666 H 152.753 1.28963 -0.88307 0
M  V30 1667 H 153.488 3.12587 0.863716 0
M  V30 1668 H 153.273 3.84713 -0.757504 0
M  V30 1669 H 154.763 4.17221 0.177786 0
M  V30 1670 N 155.201 0.870884 1.31352 0
M  V30 1671 C 156.133 0.28455 2.27427 0
M  V30 1672 C 157.146 -0.552927 1.53123 0
M  V30 1673 O 158.335 -0.374771 1.74521 0
M  V30 1674 C 155.435 -0.615164 3.3327 0
M  V30 1675 C 154.608 0.190079 4.36987 0
M  V30 1676 C 153.667 -0.637917 5.22319 0
M  V30 1677 O 152.693 -0.065626 5.69162 0
M  V30 1678 N 153.895 -1.94973 5.46778 0
M  V30 1679 H 156.66 1.11017 2.7838 0
M  V30 1680 H 154.221 0.732458 1.44384 0
M  V30 1681 H 156.213 -1.1748 3.87273 0
M  V30 1682 H 154.783 -1.34146 2.82354 0
M  V30 1683 H 154.003 0.931165 3.83044 0
M  V30 1684 H 155.291 0.742579 5.03352 0
M  V30 1685 H 154.689 -2.4378 5.10478 0
M  V30 1686 H 153.246 -2.45713 6.03712 0
M  V30 1687 N 156.679 -1.44442 0.630414 0
M  V30 1688 C 157.642 -2.29107 -0.0652523 0
M  V30 1689 C 158.642 -1.41002 -0.772995 0
M  V30 1690 O 159.832 -1.62881 -0.617692 0
M  V30 1691 C 156.964 -3.22564 -1.10296 0
M  V30 1692 H 158.157 -2.92103 0.679401 0
M  V30 1693 H 155.71 -1.51343 0.390517 0
M  V30 1694 H 156.445 -2.64416 -1.87762 0
M  V30 1695 H 156.23 -3.87491 -0.59941 0
M  V30 1696 H 157.72 -3.86167 -1.5895 0
M  V30 1697 N 158.157 -0.370918 -1.53173 0
M  V30 1698 C 159.067 0.480823 -2.2962 0
M  V30 1699 C 160.083 1.08789 -1.35798 0
M  V30 1700 O 161.259 1.09768 -1.68858 0
M  V30 1701 C 158.324 1.60227 -3.07454 0
M  V30 1702 C 157.385 1.0222 -4.16953 0
M  V30 1703 C 156.618 2.0902 -4.91066 0
M  V30 1704 O 156.841 3.30222 -4.65091 0
M  V30 1705 O 155.775 1.71778 -5.76867 0
M  V30 1706 H 159.601 -0.141421 -3.03371 0
M  V30 1707 H 157.186 -0.135146 -1.48787 0
M  V30 1708 H 159.068 2.25417 -3.56041 0
M  V30 1709 H 157.743 2.20982 -2.36535 0
M  V30 1710 H 156.65 0.334064 -3.72605 0
M  V30 1711 H 157.983 0.459131 -4.90054 0
M  V30 1712 N 159.635 1.57281 -0.100228 0
M  V30 1713 C 160.884 1.93713 0.561984 0
M  V30 1714 C 161.197 0.984492 1.69018 0
M  V30 1715 O 162.403 1.24273 2.41389 0
M  V30 1716 C 160.859 3.4421 1.05106 0
M  V30 1717 C 160.467 4.47975 -0.0476628 0
M  V30 1718 C 162.211 3.89595 1.68571 0
M  V30 1719 C 160.118 5.89631 0.457055 0
M  V30 1720 H 159.048 0.723082 0.2137 0
M  V30 1721 H 161.699 1.82644 -0.177057 0
M  V30 1722 H 160.081 3.50449 1.84395 0
M  V30 1723 H 161.255 4.53385 -0.823333 0
M  V30 1724 H 159.57 4.1223 -0.587816 0
M  V30 1725 H 162.167 4.92832 2.07414 0
M  V30 1726 H 162.51 3.28526 2.55688 0
M  V30 1727 H 163.043 3.86078 0.958562 0
M  V30 1728 H 159.782 6.54411 -0.377616 0
M  V30 1729 H 159.302 5.87681 1.19962 0
M  V30 1730 H 160.981 6.40363 0.92437 0
M  V30 1731 N 161.113 -0.173488 1.56642 0
M  V30 1732 C 162.023 -1.23482 1.99473 0
M  V30 1733 C 163.039 -1.48567 0.905752 0
M  V30 1734 O 164.215 -1.60758 1.21321 0
M  V30 1735 C 161.28 -2.55444 2.34413 0
M  V30 1736 C 160.341 -2.38241 3.57127 0
M  V30 1737 C 159.574 -3.63909 3.90392 0
M  V30 1738 O 159.797 -4.68996 3.24653 0
M  V30 1739 O 158.731 -3.58149 4.83749 0
M  V30 1740 H 162.557 -0.901279 2.90018 0
M  V30 1741 H 160.142 -0.380185 1.44482 0
M  V30 1742 H 162.024 -3.33292 2.57865 0
M  V30 1743 H 160.699 -2.88382 1.4703 0
M  V30 1744 H 159.606 -1.58431 3.38896 0
M  V30 1745 H 160.939 -2.10228 4.45045 0
M  V30 1746 N 162.591 -1.51276 -0.441967 0
M  V30 1747 C 163.554 -1.7167 -1.51862 0
M  V30 1748 C 164.554 -0.586793 -1.49711 0
M  V30 1749 O 165.744 -0.854276 -1.51815 0
M  V30 1750 C 162.876 -1.76889 -2.91416 0
M  V30 1751 H 164.069 -2.67754 -1.35084 0
M  V30 1752 H 161.622 -1.41196 -0.670333 0
M  V30 1753 H 162.357 -0.826026 -3.13604 0
M  V30 1754 H 162.142 -2.59001 -2.94382 0
M  V30 1755 H 163.632 -1.94522 -3.69528 0
M  V30 1756 N 164.069 0.697108 -1.41344 0
M  V30 1757 C 164.979 1.84088 -1.45427 0
M  V30 1758 C 165.995 1.70545 -0.34501 0
M  V30 1759 O 167.171 1.92488 -0.592492 0
M  V30 1760 C 164.236 3.20056 -1.33286 0
M  V30 1761 C 163.297 3.45718 -2.54514 0
M  V30 1762 C 162.53 4.75199 -2.42944 0
M  V30 1763 O 162.753 5.51579 -1.45318 0
M  V30 1764 O 161.687 5.0161 -3.32672 0
M  V30 1765 H 165.513 1.836 -2.41919 0
M  V30 1766 H 163.098 0.849966 -1.22866 0
M  V30 1767 H 164.98 4.01236 -1.28794 0
M  V30 1768 H 163.655 3.2123 -0.39909 0
M  V30 1769 H 162.562 2.64474 -2.64583 0
M  V30 1770 H 163.895 3.49356 -3.46715 0
M  V30 1771 N 165.547 1.27147 0.931209 0
M  V30 1772 C 166.963 1.04475 1.20653 0
M  V30 1773 C 167.163 -0.223885 2.00252 0
M  V30 1774 O 166.219 -0.930332 2.34736 0
M  V30 1775 C 167.532 2.28209 1.95809 0
M  V30 1776 C 169.08 2.33211 2.08762 0
M  V30 1777 C 169.555 3.56665 2.87323 0
M  V30 1778 N 171.046 3.57201 2.94892 0
M  V30 1779 C 171.781 4.49395 3.56134 0
M  V30 1780 N 171.277 5.51889 4.18796 0
M  V30 1781 N 173.07 4.37026 3.53504 0
M  V30 1782 H 165.221 2.08612 0.399333 0
M  V30 1783 H 167.484 0.917312 0.239253 0
M  V30 1784 H 167.19 3.20538 1.44736 0
M  V30 1785 H 167.064 2.33247 2.96438 0
M  V30 1786 H 169.451 1.41391 2.59023 0
M  V30 1787 H 169.532 2.32178 1.07364 0
M  V30 1788 H 169.176 4.4882 2.37746 0
M  V30 1789 H 169.106 3.54948 3.88998 0
M  V30 1790 H 171.597 2.83074 2.50354 0
M  V30 1791 H 171.91 6.18409 4.63454 0
M  V30 1792 H 170.255 5.55735 4.17353 0
M  V30 1793 H 173.446 3.56166 3.03749 0
M  V30 1794 H 173.619 5.09067 4.00942 0
M  V30 1795 N 167.025 -1.13721 1.09112 0
M  V30 1796 C 167.972 -2.19031 0.727591 0
M  V30 1797 C 168.942 -1.63555 -0.289656 0
M  V30 1798 O 170.127 -1.90023 -0.172026 0
M  V30 1799 C 167.267 -3.4477 0.15082 0
M  V30 1800 C 166.38 -4.14365 1.22172 0
M  V30 1801 C 165.515 -5.27709 0.608042 0
M  V30 1802 C 164.554 -5.89147 1.66047 0
M  V30 1803 N 163.691 -6.93929 1.06806 0
M  V30 1804 H 168.531 -2.49475 1.62991 0
M  V30 1805 H 166.068 -1.22499 0.81439 0
M  V30 1806 H 168.026 -4.16714 -0.201358 0
M  V30 1807 H 166.656 -3.14787 -0.714783 0
M  V30 1808 H 165.708 -3.40737 1.69122 0
M  V30 1809 H 167.02 -4.56114 2.01895 0
M  V30 1810 H 166.174 -6.06355 0.204523 0
M  V30 1811 H 164.913 -4.872 -0.220769 0
M  V30 1812 H 163.918 -5.09198 2.07357 0
M  V30 1813 H 165.143 -6.31729 2.49189 0
M  V30 1814 H 163.089 -6.55483 0.260476 0
M  V30 1815 H 163.006 -7.34202 1.8023 0
M  V30 1816 H 164.274 -7.76434 0.690644 0
M  V30 1817 N 168.503 -0.877838 -1.30888 0
M  V30 1818 C 169.919 -0.570844 -1.49042 0
M  V30 1819 C 170.119 0.893159 -1.80624 0
M  V30 1820 O 169.175 1.67485 -1.88958 0
M  V30 1821 C 170.488 -1.47784 -2.61878 0
M  V30 1822 C 172.036 -1.48071 -2.75761 0
M  V30 1823 C 172.511 -2.37347 -3.91702 0
M  V30 1824 N 174.002 -2.35271 -3.99001 0
M  V30 1825 C 174.737 -3.01063 -4.88004 0
M  V30 1826 N 174.233 -3.76055 -5.81854 0
M  V30 1827 N 176.026 -2.90332 -4.81315 0
M  V30 1828 H 168.177 -1.82502 -1.0866 0
M  V30 1829 H 170.44 -0.780797 -0.537644 0
M  V30 1830 H 170.146 -2.51993 -2.45341 0
M  V30 1831 H 170.02 -1.18215 -3.58197 0
M  V30 1832 H 172.407 -0.446166 -2.91708 0
M  V30 1833 H 172.488 -1.81668 -1.80085 0
M  V30 1834 H 172.132 -3.40883 -3.76512 0
M  V30 1835 H 172.062 -2.01071 -4.86701 0
M  V30 1836 H 174.553 -1.80768 -3.3186 0
M  V30 1837 H 174.866 -4.23366 -6.46514 0
M  V30 1838 H 173.211 -3.80163 -5.81808 0
M  V30 1839 H 176.402 -2.31278 -4.06974 0
M  V30 1840 H 176.575 -3.41885 -5.50471 0
M  V30 1841 N 169.982 1.44106 -0.638065 0
M  V30 1842 C 170.945 2.29138 0.0531013 0
M  V30 1843 C 171.945 1.41409 0.765506 0
M  V30 1844 O 173.135 1.63206 0.609046 0
M  V30 1845 C 170.267 3.23144 1.08584 0
M  V30 1846 H 171.46 2.91739 -0.694883 0
M  V30 1847 H 169.013 1.51134 -0.398538 0
M  V30 1848 H 169.748 2.65408 1.86357 0
M  V30 1849 H 169.533 3.87804 0.578852 0
M  V30 1850 H 171.023 3.87004 1.56899 0
M  V30 1851 N 171.46 0.379036 1.52974 0
M  V30 1852 C 172.876 0.0285448 1.59574 0
M  V30 1853 C 173.076 -1.45542 1.39355 0
M  V30 1854 O 172.132 -2.2187 1.20541 0
M  V30 1855 C 173.445 0.496535 2.96572 0
M  V30 1856 C 174.993 0.451909 3.0972 0
M  V30 1857 C 175.468 0.895924 4.49152 0
M  V30 1858 N 176.959 0.851522 4.55306 0
M  V30 1859 C 177.694 1.16661 5.61407 0
M  V30 1860 N 177.19 1.55166 6.752 0
M  V30 1861 N 178.983 1.08853 5.51459 0
M  V30 1862 H 171.134 1.34525 1.64367 0
M  V30 1863 H 173.397 0.550733 0.771619 0
M  V30 1864 H 173.103 1.53258 3.16552 0
M  V30 1865 H 172.977 -0.109802 3.7704 0
M  V30 1866 H 175.364 -0.575029 2.89443 0
M  V30 1867 H 175.445 1.09392 2.3123 0
M  V30 1868 H 175.089 1.92104 4.70168 0
M  V30 1869 H 175.019 0.23103 5.26093 0
M  V30 1870 H 177.51 0.568038 3.73606 0
M  V30 1871 H 177.823 1.776 7.52116 0
M  V30 1872 H 176.168 1.59044 6.76557 0
M  V30 1873 H 179.359 0.786803 4.6144 0
M  V30 1874 H 179.532 1.33742 6.34048 0
M  V30 1875 N 172.938 -1.57226 0.108567 0
M  V30 1876 C 173.848 -2.18292 -0.859401 0
M  V30 1877 C 174.864 -1.15612 -1.30038 0
M  V30 1878 O 176.04 -1.48039 -1.36552 0
M  V30 1879 C 173.105 -2.762 -2.09558 0
M  V30 1880 C 172.166 -3.93881 -1.70752 0
M  V30 1881 C 171.399 -4.49018 -2.88477 0
M  V30 1882 O 171.622 -4.03068 -4.036 0
M  V30 1883 O 170.556 -5.39852 -2.66164 0
M  V30 1884 H 174.382 -3.01441 -0.369769 0
M  V30 1885 H 171.967 -1.48945 -0.1165 0
M  V30 1886 H 173.849 -3.13156 -2.81978 0
M  V30 1887 H 172.524 -1.96089 -2.57548 0
M  V30 1888 H 171.431 -3.61713 -0.954714 0
M  V30 1889 H 172.764 -4.75396 -1.27513 0
M  V30 1890 N 174.416 0.165178 -1.56732 0
M  V30 1891 C 175.326 1.22423 -2.00125 0
M  V30 1892 C 176.342 1.48084 -0.913619 0
M  V30 1893 O 177.518 1.60112 -1.22172 0
M  V30 1894 C 174.583 2.54197 -2.35764 0
M  V30 1895 C 173.644 2.36343 -3.58386 0
M  V30 1896 C 172.877 3.61834 -3.92316 0
M  V30 1897 O 173.1 4.67267 -3.27135 0
M  V30 1898 O 172.034 3.55579 -4.85641 0
M  V30 1899 H 175.86 0.885886 -2.90492 0
M  V30 1900 H 173.445 0.372518 -1.44681 0
M  V30 1901 H 175.327 3.3192 -2.59629 0
M  V30 1902 H 174.002 2.87598 -1.48557 0
M  V30 1903 H 172.909 1.56632 -3.39731 0
M  V30 1904 H 174.242 2.07865 -4.46154 0
M  V30 1905 N 175.894 1.51508 0.433938 0
M  V30 1906 C 176.824 1.76016 1.53429 0
M  V30 1907 C 177.805 0.610112 1.58782 0
M  V30 1908 O 178.99 0.853177 1.74455 0
M  V30 1909 C 176.12 1.88831 2.9148 0
M  V30 1910 C 175.074 3.04288 3.00987 0
M  V30 1911 C 174.4 3.0229 4.4105 0
M  V30 1912 C 175.7 4.44193 2.74754 0
M  V30 1913 H 177.394 2.68152 1.33171 0
M  V30 1914 H 174.94 1.29035 0.639214 0
M  V30 1915 H 176.893 2.04559 3.6842 0
M  V30 1916 H 175.617 0.933455 3.12976 0
M  V30 1917 H 174.276 2.8827 2.26486 0
M  V30 1918 H 173.924 2.04576 4.59519 0
M  V30 1919 H 173.624 3.79822 4.4834 0
M  V30 1920 H 175.148 3.20116 5.1996 0
M  V30 1921 H 176.562 4.60544 3.41426 0
M  V30 1922 H 174.959 5.23457 2.9345 0
M  V30 1923 H 176.029 4.53996 1.70339 0
M  V30 1924 N 177.372 -0.689602 1.41712 0
M  V30 1925 C 178.788 -1.00093 1.24312 0
M  V30 1926 C 178.988 -2.01036 0.136729 0
M  V30 1927 O 178.044 -2.47562 -0.496918 0
M  V30 1928 C 179.357 -1.51985 2.59463 0
M  V30 1929 C 180.905 -1.63838 2.66695 0
M  V30 1930 C 181.38 -2.1913 4.02177 0
M  V30 1931 N 182.871 -2.26483 4.04054 0
M  V30 1932 C 183.606 -2.70306 5.0569 0
M  V30 1933 N 183.102 -3.13691 6.17713 0
M  V30 1934 N 184.895 -2.69923 4.9305 0
M  V30 1935 H 177.046 -0.0210029 2.1239 0
M  V30 1936 H 179.309 -0.0718733 0.945272 0
M  V30 1937 H 179.015 -0.85269 3.41207 0
M  V30 1938 H 178.889 -2.50103 2.82362 0
M  V30 1939 H 181.276 -2.29664 1.85306 0
M  V30 1940 H 181.357 -0.642492 2.476 0
M  V30 1941 H 181.001 -1.53918 4.84016 0
M  V30 1942 H 180.931 -3.19482 4.18615 0
M  V30 1943 H 183.422 -1.95874 3.23174 0
M  V30 1944 H 183.735 -3.45773 6.9113 0
M  V30 1945 H 182.08 -3.11585 6.21241 0
M  V30 1946 H 185.271 -2.35382 4.04614 0
M  V30 1947 H 185.444 -3.03758 5.72394 0
M  V30 1948 N 178.85 -1.27639 -0.924453 0
M  V30 1949 C 179.797 -1.10644 -2.0255 0
M  V30 1950 C 180.767 -0.00658438 -1.66099 0
M  V30 1951 O 181.952 -0.16952 -1.90045 0
M  V30 1952 C 179.092 -0.76309 -3.36557 0
M  V30 1953 C 178.205 -1.94091 -3.85944 0
M  V30 1954 C 177.34 -1.53914 -5.08413 0
M  V30 1955 C 176.379 -2.68425 -5.50104 0
M  V30 1956 N 175.516 -2.28815 -6.63768 0
M  V30 1957 H 180.356 -2.04858 -2.16419 0
M  V30 1958 H 177.893 -1.01974 -1.06017 0
M  V30 1959 H 179.851 -0.544822 -4.13627 0
M  V30 1960 H 178.481 0.142102 -3.22487 0
M  V30 1961 H 177.533 -2.27162 -3.05125 0
M  V30 1962 H 178.845 -2.7998 -4.12811 0
M  V30 1963 H 177.999 -1.28231 -5.92994 0
M  V30 1964 H 176.738 -0.651391 -4.8333 0
M  V30 1965 H 175.743 -2.94819 -4.64071 0
M  V30 1966 H 176.968 -3.57826 -5.7718 0
M  V30 1967 H 174.914 -1.42495 -6.40337 0
M  V30 1968 H 174.831 -3.08242 -6.90306 0
M  V30 1969 H 176.099 -2.06387 -7.51681 0
M  V30 1970 N 180.328 1.1314 -1.09713 0
M  V30 1971 C 181.26 2.18343 -0.697056 0
M  V30 1972 C 182.273 1.60669 0.262551 0
M  V30 1973 O 183.462 1.78435 0.0481527 0
M  V30 1974 C 180.562 3.38899 -0.00684728 0
M  V30 1975 C 179.735 4.26078 -0.988741 0
M  V30 1976 C 178.794 5.25155 -0.331394 0
M  V30 1977 O 177.82 5.60701 -0.979926 0
M  V30 1978 N 179.022 5.73271 0.913261 0
M  V30 1979 H 181.787 2.5328 -1.60216 0
M  V30 1980 H 179.348 1.28491 -0.984971 0
M  V30 1981 H 181.34 4.02255 0.444191 0
M  V30 1982 H 179.91 3.02175 0.800551 0
M  V30 1983 H 179.13 3.59453 -1.61826 0
M  V30 1984 H 180.418 4.81178 -1.65364 0
M  V30 1985 H 179.816 5.46544 1.45966 0
M  V30 1986 H 178.373 6.3855 1.30757 0
M  V30 1987 N 181.806 0.884767 1.30421 0
M  V30 1988 C 183.052 0.503851 1.96441 0
M  V30 1989 C 183.385 -0.944518 1.69684 0
M  V30 1990 O 182.66 -1.66737 1.00145 0
M  V30 1991 C 182.943 0.779085 3.51571 0
M  V30 1992 C 182.796 2.27807 3.87846 0
M  V30 1993 C 184.115 0.255452 4.39358 0
M  V30 1994 H 181.234 0.184533 0.713524 0
M  V30 1995 H 183.876 1.10872 1.54297 0
M  V30 1996 H 182.026 0.264274 3.876 0
M  V30 1997 H 183.698 2.86127 3.61841 0
M  V30 1998 H 181.941 2.74479 3.35922 0
M  V30 1999 H 182.612 2.42125 4.96064 0
M  V30 2000 H 185.088 0.696079 4.10236 0
M  V30 2001 H 183.964 0.477361 5.4682 0
M  V30 2002 H 184.225 -0.843293 4.33983 0
M  V30 2003 N 183.284 -1.43765 0.645699 0
M  V30 2004 C 184.247 -2.29163 -0.0409488 0
M  V30 2005 C 185.247 -1.41813 -0.757996 0
M  V30 2006 O 186.437 -1.63527 -0.600382 0
M  V30 2007 C 183.569 -3.23716 -1.06869 0
M  V30 2008 H 184.762 -2.91366 0.710345 0
M  V30 2009 H 182.315 -1.5092 0.406547 0
M  V30 2010 H 183.05 -2.66393 -1.84947 0
M  V30 2011 H 182.835 -3.88105 -0.558277 0
M  V30 2012 H 184.325 -3.87831 -1.54845 0
M  V30 2013 N 184.763 -0.387143 -1.52771 0
M  V30 2014 C 186.012 0.19697 -2.00736 0
M  V30 2015 C 186.325 1.48082 -1.27793 0
M  V30 2016 O 187.531 2.14485 -1.66458 0
M  V30 2017 C 185.987 0.401568 -3.57653 0
M  V30 2018 C 185.595 -0.868907 -4.39493 0
M  V30 2019 C 187.339 0.942164 -4.13912 0
M  V30 2020 C 185.246 -0.632705 -5.88006 0
M  V30 2021 H 184.176 0.0773827 -0.750019 0
M  V30 2022 H 186.827 -0.50921 -1.76293 0
M  V30 2023 H 185.209 1.16954 -3.78335 0
M  V30 2024 H 186.383 -1.64133 -4.30577 0
M  V30 2025 H 184.698 -1.33429 -3.94443 0
M  V30 2026 H 187.295 1.13455 -5.22525 0
M  V30 2027 H 187.638 1.9106 -3.69867 0
M  V30 2028 H 188.171 0.233814 -3.97112 0
M  V30 2029 H 184.91 -1.57208 -6.36369 0
M  V30 2030 H 184.43 0.100825 -5.99715 0
M  V30 2031 H 186.109 -0.26642 -6.46451 0
M  V30 2032 N 186.241 1.57166 -0.116904 0
M  V30 2033 C 187.171 2.18222 0.830759 0
M  V30 2034 C 188.152 1.12167 1.27877 0
M  V30 2035 O 189.337 1.40394 1.34176 0
M  V30 2036 C 186.467 2.77996 2.08172 0
M  V30 2037 C 185.421 3.89614 1.77157 0
M  V30 2038 C 184.747 4.36187 3.09265 0
M  V30 2039 C 186.047 5.1181 1.04151 0
M  V30 2040 H 187.741 2.97664 0.321992 0
M  V30 2041 H 185.287 1.4318 0.153434 0
M  V30 2042 H 187.24 3.19366 2.74924 0
M  V30 2043 H 185.964 1.9584 2.6137 0
M  V30 2044 H 184.623 3.48816 1.12796 0
M  V30 2045 H 184.271 3.50893 3.60393 0
M  V30 2046 H 183.971 5.11455 2.89288 0
M  V30 2047 H 185.495 4.80207 3.77139 0
M  V30 2048 H 186.909 5.50214 1.61052 0
M  V30 2049 H 185.306 5.92648 0.942762 0
M  V30 2050 H 186.376 4.84892 0.0279022 0
M  V30 2051 N 187.719 -0.156864 1.56817 0
M  V30 2052 C 188.682 -1.17781 1.96622 0
M  V30 2053 C 189.682 -1.36401 0.851555 0
M  V30 2054 O 190.872 -1.33561 1.11836 0
M  V30 2055 C 188.004 -2.54008 2.27361 0
M  V30 2056 H 189.197 -0.836564 2.87996 0
M  V30 2057 H 186.75 -0.39985 1.51099 0
M  V30 2058 H 187.485 -2.9312 1.38748 0
M  V30 2059 H 187.27 -2.41856 3.08623 0
M  V30 2060 H 188.76 -3.27558 2.59029 0
M  V30 2061 N 189.197 -1.51736 -0.425897 0
M  V30 2062 C 190.443 -1.65214 -1.1761 0
M  V30 2063 C 190.776 -0.372778 -1.90589 0
M  V30 2064 O 190.051 0.628139 -1.84078 0
M  V30 2065 C 190.334 -2.86312 -2.18398 0
M  V30 2066 C 190.187 -4.24254 -1.49426 0
M  V30 2067 C 191.506 -3.02925 -3.19256 0
M  V30 2068 H 188.625 -0.601263 -0.426206 0
M  V30 2069 H 191.267 -1.8425 -0.463882 0
M  V30 2070 H 189.417 -2.70213 -2.79137 0
M  V30 2071 H 191.089 -4.52046 -0.919362 0
M  V30 2072 H 189.332 -4.26426 -0.796432 0
M  V30 2073 H 190.003 -5.05001 -2.22885 0
M  V30 2074 H 192.479 -3.1781 -2.68581 0
M  V30 2075 H 191.355 -3.89199 -3.8706 0
M  V30 2076 H 191.616 -2.15497 -3.86023 0
M  V30 2077 N 190.675 0.682077 -1.42076 0
M  V30 2078 C 191.638 1.77756 -1.44691 0
M  V30 2079 C 192.638 1.5726 -0.335535 0
M  V30 2080 O 193.828 1.63686 -0.596037 0
M  V30 2081 C 190.96 3.16301 -1.27146 0
M  V30 2082 H 192.153 1.76826 -2.42224 0
M  V30 2083 H 189.706 0.891012 -1.28416 0
M  V30 2084 H 190.441 3.22862 -0.305075 0
M  V30 2085 H 190.226 3.32581 -2.07683 0
M  V30 2086 H 191.716 3.96241 -1.31843 0
M  V30 2087 N 192.153 1.28127 0.917671 0
M  V30 2088 C 193.401 1.14825 1.66312 0
M  V30 2089 C 193.722 -0.304379 1.9261 0
M  V30 2090 O 192.992 -1.21149 1.53947 0
M  V30 2091 H 191.572 0.421953 0.616413 0
M  V30 2092 H 194.234 1.608 1.10134 0
M  V30 2093 H 193.33 1.68489 2.62712 0
M  V30 2094 N 193.631 -1.12557 1.10312 0
M  V30 2095 C 194.594 -2.16434 0.75424 0
M  V30 2096 C 195.594 -1.59278 -0.220685 0
M  V30 2097 O 196.784 -1.742 0.00230591 0
M  V30 2098 C 193.916 -3.40699 0.116987 0
M  V30 2099 H 195.109 -2.48811 1.67431 0
M  V30 2100 H 192.662 -1.27542 0.903475 0
M  V30 2101 H 193.397 -3.13921 -0.813877 0
M  V30 2102 H 193.182 -3.83459 0.818613 0
M  V30 2103 H 194.672 -4.17451 -0.111387 0
M  V30 2104 N 195.109 -0.891671 -1.2995 0
M  V30 2105 C 196.019 -0.367691 -2.31701 0
M  V30 2106 C 197.035 0.533486 -1.6562 0
M  V30 2107 O 198.211 0.424997 -1.96865 0
M  V30 2108 C 195.276 0.403406 -3.44345 0
M  V30 2109 C 194.337 -0.528328 -4.26037 0
M  V30 2110 C 193.57 0.206063 -5.33302 0
M  V30 2111 O 193.793 1.43119 -5.52153 0
M  V30 2112 O 192.727 -0.447281 -6.00236 0
M  V30 2113 H 196.553 -1.21163 -2.78484 0
M  V30 2114 H 194.138 -0.655725 -1.34241 0
M  V30 2115 H 196.02 0.839753 -4.12948 0
M  V30 2116 H 194.695 1.22354 -2.99685 0
M  V30 2117 H 193.602 -1.01362 -3.60106 0
M  V30 2118 H 194.935 -1.31465 -4.74318 0
M  V30 2119 N 196.587 1.43421 -0.653314 0
M  V30 2120 C 197.534 2.30768 0.0382271 0
M  V30 2121 C 198.504 1.44755 0.814576 0
M  V30 2122 O 199.689 1.73624 0.791162 0
M  V30 2123 C 196.829 3.30336 0.998599 0
M  V30 2124 C 195.942 4.31448 0.218342 0
M  V30 2125 C 195.077 5.18098 1.17252 0
M  V30 2126 C 194.116 6.10902 0.382702 0
M  V30 2127 N 193.253 6.90176 1.28848 0
M  V30 2128 H 198.093 2.89357 -0.712511 0
M  V30 2129 H 195.63 1.42548 -0.363128 0
M  V30 2130 H 197.588 3.86572 1.56901 0
M  V30 2131 H 196.218 2.73397 1.71621 0
M  V30 2132 H 195.27 3.77506 -0.46836 0
M  V30 2133 H 196.582 4.97227 -0.395812 0
M  V30 2134 H 195.736 5.7896 1.81356 0
M  V30 2135 H 194.475 4.52444 1.82058 0
M  V30 2136 H 193.48 5.49128 -0.27169 0
M  V30 2137 H 194.705 6.78598 -0.260957 0
M  V30 2138 H 192.651 6.27171 1.92334 0
M  V30 2139 H 192.568 7.52478 0.728887 0
M  V30 2140 H 193.836 7.55543 1.91766 0
M  V30 2141 N 198.065 0.39524 1.52563 0
M  V30 2142 C 199.314 -0.186321 2.00838 0
M  V30 2143 C 199.627 -1.47402 1.28577 0
M  V30 2144 O 200.833 -2.13599 1.67593 0
M  V30 2145 C 199.289 -0.382595 3.57861 0
M  V30 2146 C 198.897 0.892202 4.39026 0
M  V30 2147 C 200.641 -0.9202 4.14406 0
M  V30 2148 C 198.548 0.66388 5.87662 0
M  V30 2149 H 197.478 -0.0734041 0.750418 0
M  V30 2150 H 200.129 0.518552 1.76021 0
M  V30 2151 H 198.511 -1.14946 3.7895 0
M  V30 2152 H 199.685 1.66414 4.29701 0
M  V30 2153 H 198 1.35519 3.9373 0
M  V30 2154 H 200.597 -1.10683 5.23119 0
M  V30 2155 H 200.94 -1.89096 3.70875 0
M  V30 2156 H 201.473 -0.212751 3.97231 0
M  V30 2157 H 198.212 1.6058 6.35527 0
M  V30 2158 H 197.732 -0.0690193 5.9976 0
M  V30 2159 H 199.411 0.300699 6.46301 0
M  V30 2160 N 199.544 -1.57102 0.125237 0
M  V30 2161 C 200.793 -1.94582 -0.531095 0
M  V30 2162 C 201.106 -1.01126 -1.6743 0
M  V30 2163 O 202.312 -1.28097 -2.39381 0
M  V30 2164 C 200.768 -3.45839 -0.996164 0
M  V30 2165 C 200.376 -4.47842 0.118926 0
M  V30 2166 C 202.12 -3.92227 -1.62352 0
M  V30 2167 C 200.027 -5.90284 -0.363192 0
M  V30 2168 H 198.957 -0.726391 -0.20217 0
M  V30 2169 H 201.608 -1.82339 0.206092 0
M  V30 2170 H 199.99 -3.53338 -1.78796 0
M  V30 2171 H 201.164 -4.52018 0.895358 0
M  V30 2172 H 199.479 -4.11243 0.653324 0
M  V30 2173 H 202.076 -4.96069 -1.99548 0
M  V30 2174 H 202.419 -3.32552 -2.50429 0
M  V30 2175 H 202.952 -3.87554 -0.897019 0
M  V30 2176 H 199.691 -6.53728 0.481679 0
M  V30 2177 H 199.211 -5.89515 -1.10597 0
M  V30 2178 H 200.89 -6.41752 -0.822377 0
M  V30 2179 N 201.022 0.148545 -1.56898 0
M  V30 2180 C 201.932 1.20293 -2.01412 0
M  V30 2181 C 202.948 1.47107 -0.929273 0
M  V30 2182 O 204.124 1.58807 -1.23863 0
M  V30 2183 C 201.189 2.51682 -2.38447 0
M  V30 2184 C 200.25 2.32529 -3.60872 0
M  V30 2185 C 199.483 3.57653 -3.96132 0
M  V30 2186 O 199.706 4.63771 -3.32073 0
M  V30 2187 O 198.64 3.50408 -4.89385 0
M  V30 2188 H 202.466 0.855025 -2.91416 0
M  V30 2189 H 200.051 0.357151 -1.45068 0
M  V30 2190 H 201.933 3.29147 -2.63135 0
M  V30 2191 H 200.608 2.86006 -1.51599 0
M  V30 2192 H 199.515 1.53019 -3.41373 0
M  V30 2193 H 200.848 2.03121 -4.48333 0
M  V30 2194 N 202.5 1.5196 0.417844 0
M  V30 2195 C 203.916 1.40569 0.755816 0
M  V30 2196 C 204.116 0.503316 1.95113 0
M  V30 2197 O 203.172 -0.0341925 2.52477 0
M  V30 2198 C 204.485 2.82947 1.01791 0
M  V30 2199 C 206.033 2.92231 1.12116 0
M  V30 2200 C 206.508 4.35559 1.41608 0
M  V30 2201 N 207.999 4.38753 1.48491 0
M  V30 2202 C 208.734 5.46705 1.7292 0
M  V30 2203 N 208.23 6.64788 1.95011 0
M  V30 2204 N 210.023 5.34209 1.74863 0
M  V30 2205 H 202.174 2.09168 -0.369098 0
M  V30 2206 H 204.437 0.942409 -0.102809 0
M  V30 2207 H 204.143 3.5106 0.212081 0
M  V30 2208 H 204.017 3.23462 1.94042 0
M  V30 2209 H 206.404 2.24304 1.9176 0
M  V30 2210 H 206.485 2.55185 0.177225 0
M  V30 2211 H 206.129 5.04042 0.624848 0
M  V30 2212 H 206.059 4.70133 2.37239 0
M  V30 2213 H 208.55 3.5363 1.33244 0
M  V30 2214 H 208.863 7.42845 2.13076 0
M  V30 2215 H 207.208 6.67869 1.92293 0
M  V30 2216 H 210.399 4.40937 1.57137 0
M  V30 2217 H 210.572 6.18415 1.93563 0
M  V30 2218 N 203.978 -0.674533 1.42435 0
M  V30 2219 C 205.203 -1.46784 1.46524 0
M  V30 2220 C 205.628 -1.87938 0.078066 0
M  V30 2221 O 204.986 -1.56014 -0.92354 0
M  V30 2222 C 205.034 -2.69307 2.39805 0
M  V30 2223 O 204.138 -3.67587 1.86959 0
M  V30 2224 H 203.479 -0.440959 0.496439 0
M  V30 2225 H 206.009 -0.827326 1.87127 0
M  V30 2226 H 206.019 -3.17374 2.56393 0
M  V30 2227 H 204.694 -2.38692 3.40586 0
M  V30 2228 H 203.271 -3.2662 1.79927 0
M  V30 2229 N 205.456 -1.28612 -0.910864 0
M  V30 2230 C 206.702 -1.16106 -1.66274 0
M  V30 2231 C 207.035 0.289113 -1.92036 0
M  V30 2232 O 206.31 1.21 -1.52281 0
M  V30 2233 C 206.593 -1.96309 -3.01885 0
M  V30 2234 C 206.446 -3.49405 -2.8326 0
M  V30 2235 C 207.765 -1.78076 -4.02463 0
M  V30 2236 H 204.884 -0.423152 -0.603417 0
M  V30 2237 H 207.526 -1.57961 -1.05586 0
M  V30 2238 H 205.676 -1.60742 -3.53687 0
M  V30 2239 H 207.348 -3.94894 -2.38446 0
M  V30 2240 H 205.591 -3.74893 -2.18261 0
M  V30 2241 H 206.262 -4.00784 -3.79574 0
M  V30 2242 H 208.738 -2.0912 -3.59733 0
M  V30 2243 H 207.614 -2.36561 -4.95308 0
M  V30 2244 H 207.875 -0.733008 -4.35981 0
M  V30 2245 N 206.934 1.1197 -1.10907 0
M  V30 2246 C 208.211 1.79959 -0.766432 0
M  V30 2247 C 208.591 1.97466 0.746363 0
M  V30 2248 O 207.939 1.55491 1.67436 0
M  V30 2249 C 208.149 3.14009 -1.52314 0
M  V30 2250 C 209.497 3.89134 -1.69883 0
M  V30 2251 O 210.521 3.2368 -1.48692 0
M  V30 2252 O 209.38 5.06572 -2.05054 0
M  V30 2253 H 206.474 0.779208 -0.277062 0
M  V30 2254 H 209.02 1.18762 -1.21217 0
M  V30 2255 H 207.792 2.96587 -2.55249 0
M  V30 2256 H 207.415 3.82915 -1.07059 0
M  V30 2257 N 208.412 0.89855 1.29475 0
M  V30 2258 C 209.322 0.379974 2.31502 0
M  V30 2259 C 210.338 -0.524695 1.659 0
M  V30 2260 O 211.514 -0.414551 1.97087 0
M  V30 2261 C 208.579 -0.385138 3.44554 0
M  V30 2262 C 207.64 0.550914 4.2575 0
M  V30 2263 C 206.873 -0.177778 5.33404 0
M  V30 2264 O 207.096 -1.40189 5.52904 0
M  V30 2265 O 206.03 0.479106 5.9999 0
M  V30 2266 H 209.856 1.22639 2.77837 0
M  V30 2267 H 207.441 0.662834 1.33891 0
M  V30 2268 H 209.323 -0.817841 4.13388 0
M  V30 2269 H 207.998 -1.20763 3.0033 0
M  V30 2270 H 206.905 1.03271 3.59564 0
M  V30 2271 H 208.238 1.33979 4.73614 0
M  V30 2272 N 209.89 -1.43072 0.660911 0
M  V30 2273 C 210.853 -2.29194 -0.0166406 0
M  V30 2274 C 211.853 -1.42609 -0.742912 0
M  V30 2275 O 213.043 -1.64155 -0.583004 0
M  V30 2276 C 210.175 -3.24831 -1.0343 0
M  V30 2277 H 211.368 -2.90596 0.741208 0
M  V30 2278 H 208.921 -1.5048 0.422532 0
M  V30 2279 H 209.656 -2.68339 -1.82111 0
M  V30 2280 H 209.441 -3.88676 -0.517082 0
M  V30 2281 H 210.931 -3.89451 -1.50723 0
M  V30 2282 N 211.368 -0.403325 -1.52352 0
M  V30 2283 C 212.331 0.413051 -2.25447 0
M  V30 2284 C 213.331 0.978513 -1.276 0
M  V30 2285 O 214.521 0.858305 -1.51587 0
M  V30 2286 C 211.653 1.58087 -3.02029 0
M  V30 2287 H 212.846 -0.227094 -2.99039 0
M  V30 2288 H 210.399 -0.155722 -1.55522 0
M  V30 2289 H 211.134 2.25804 -2.32772 0
M  V30 2290 H 210.919 1.18195 -3.73861 0
M  V30 2291 H 212.409 2.1585 -3.57489 0
M  V30 2292 N 212.846 1.57033 -0.133567 0
M  V30 2293 C 213.794 2.17348 0.828412 0
M  V30 2294 C 214.788 1.12671 1.26498 0
M  V30 2295 O 215.994 1.30947 1.23502 0
M  V30 2296 H 212.369 0.695775 0.285309 0
M  V30 2297 H 214.34 2.96935 0.295372 0
M  V30 2298 C 213.089 2.79893 2.06289 0
M  V30 2299 H 212.412 3.60147 1.73592 0
M  V30 2300 H 213.852 3.25615 2.71572 0
M  V30 2301 C 212.311 1.77713 2.86216 0
M  V30 2302 O 212.841 1.23937 3.82103 0
M  V30 2303 N 211.047 1.47321 2.50489 0
M  V30 2304 H 210.594 1.91243 1.7258 0
M  V30 2305 H 210.552 0.79199 3.04261 0
M  V30 2306 N 214.325 -0.140222 1.56975 0
M  V30 2307 C 215.55 -0.870414 1.88251 0
M  V30 2308 C 215.975 -1.73637 0.723312 0
M  V30 2309 O 215.333 -1.78329 -0.32689 0
M  V30 2310 C 215.381 -1.69737 3.18154 0
M  V30 2311 O 214.485 -2.80229 3.02565 0
M  V30 2312 H 213.826 -0.242025 0.61832 0
M  V30 2313 H 216.356 -0.128999 2.04193 0
M  V30 2314 H 216.366 -2.09099 3.50345 0
M  V30 2315 H 215.041 -1.06152 4.02125 0
M  V30 2316 H 213.618 -2.44224 2.81796 0
M  V30 2317 N 215.803 -1.52179 -0.40978 0
M  V30 2318 C 217.08 -1.56769 -1.16974 0
M  V30 2319 C 217.46 -0.348322 -2.08206 0
M  V30 2320 O 216.808 0.664862 -2.18613 0
M  V30 2321 C 217.018 -2.89603 -1.9476 0
M  V30 2322 C 218.366 -3.42579 -2.50849 0
M  V30 2323 O 219.39 -2.91338 -2.04941 0
M  V30 2324 O 218.249 -4.32054 -3.34652 0
M  V30 2325 H 215.343 -0.631439 -0.534054 0
M  V30 2326 H 217.889 -1.64507 -0.416613 0
M  V30 2327 H 216.661 -3.698 -1.27921 0
M  V30 2328 H 216.284 -2.85155 -2.77079 0
M  V30 2329 N 217.281 0.66697 -1.42791 0
M  V30 2330 C 218.53 1.42278 -1.42968 0
M  V30 2331 C 218.843 1.9553 -0.0524489 0
M  V30 2332 O 220.049 2.71414 0.068363 0
M  V30 2333 C 218.505 2.57418 -2.51524 0
M  V30 2334 C 218.113 2.10832 -3.9529 0
M  V30 2335 C 219.857 3.34878 -2.60877 0
M  V30 2336 C 217.764 3.23101 -4.95338 0
M  V30 2337 H 216.694 0.534533 -0.531781 0
M  V30 2338 H 219.345 0.721302 -1.68729 0
M  V30 2339 H 217.727 3.29971 -2.18941 0
M  V30 2340 H 218.901 1.4538 -4.37266 0
M  V30 2341 H 217.216 1.46289 -3.89857 0
M  V30 2342 H 219.813 4.18505 -3.32802 0
M  V30 2343 H 220.156 3.81993 -1.6549 0
M  V30 2344 H 220.689 2.69398 -2.92693 0
M  V30 2345 H 217.428 2.80969 -5.9223 0
M  V30 2346 H 216.948 3.87309 -4.57987 0
M  V30 2347 H 218.627 3.88447 -5.17415 0
M  V30 2348 N 218.759 1.29093 0.90403 0
M  V30 2349 C 220.005 1.16986 1.65656 0
M  V30 2350 C 220.338 -0.278925 1.92186 0
M  V30 2351 O 219.613 -1.2019 1.5292 0
M  V30 2352 C 219.896 1.97908 3.0084 0
M  V30 2353 C 219.749 3.50903 2.81403 0
M  V30 2354 C 221.068 1.80208 4.01513 0
M  V30 2355 H 218.187 0.426346 0.601164 0
M  V30 2356 H 220.829 1.58518 1.04747 0
M  V30 2357 H 218.979 1.62616 3.52829 0
M  V30 2358 H 220.651 3.96153 2.36348 0
M  V30 2359 H 218.894 3.76045 2.1627 0
M  V30 2360 H 219.565 4.02791 3.77443 0
M  V30 2361 H 222.041 2.11025 3.58619 0
M  V30 2362 H 220.917 2.39184 4.94047 0
M  V30 2363 H 221.178 0.756119 4.35586 0
M  V30 2364 N 220.237 -1.11381 1.11499 0
M  V30 2365 C 221.514 -1.7955 0.775965 0
M  V30 2366 C 221.894 -1.97859 -0.73588 0
M  V30 2367 O 221.242 -1.56376 -1.66609 0
M  V30 2368 C 221.452 -3.13196 1.53977 0
M  V30 2369 C 222.8 -3.88227 1.71944 0
M  V30 2370 O 223.824 -3.22887 1.50407 0
M  V30 2371 O 222.683 -5.05477 2.07738 0
M  V30 2372 H 219.777 -0.777728 0.28119 0
M  V30 2373 H 222.323 -1.18118 1.21845 0
M  V30 2374 H 221.095 -2.95229 2.56818 0
M  V30 2375 H 220.718 -3.82342 1.09088 0
M  V30 2376 N 221.715 -0.905404 -1.28997 0
M  V30 2377 C 222.662 -0.385892 -2.27551 0
M  V30 2378 C 223.632 0.535113 -1.57244 0
M  V30 2379 O 224.817 0.459119 -1.85194 0
M  V30 2380 C 221.957 0.375461 -3.43051 0
M  V30 2381 C 221.07 -0.577092 -4.28128 0
M  V30 2382 C 220.205 0.201879 -5.30816 0
M  V30 2383 C 219.244 -0.744829 -6.07551 0
M  V30 2384 N 218.381 9.42587e-05 -7.021 0
M  V30 2385 H 223.221 -1.23139 -2.71368 0
M  V30 2386 H 220.758 -0.618542 -1.33463 0
M  V30 2387 H 222.716 0.832992 -4.088 0
M  V30 2388 H 221.346 1.18537 -3.00248 0
M  V30 2389 H 220.398 -1.15315 -3.62501 0
M  V30 2390 H 221.71 -1.30152 -4.8152 0
M  V30 2391 H 220.864 0.720351 -6.02408 0
M  V30 2392 H 219.603 0.959413 -4.7817 0
M  V30 2393 H 218.608 -1.27475 -5.34818 0
M  V30 2394 H 219.833 -1.50178 -6.62286 0
M  V30 2395 H 217.779 0.739791 -6.51815 0
M  V30 2396 H 217.696 -0.664321 -7.53076 0
M  V30 2397 H 218.964 0.498644 -7.77903 0
M  V30 2398 N 223.193 1.4272 -0.668489 0
M  V30 2399 C 224.123 2.335 -0.000100175 0
M  V30 2400 C 225.104 1.50328 0.795964 0
M  V30 2401 O 226.289 1.78949 0.754385 0
M  V30 2402 C 223.419 3.33874 0.956302 0
M  V30 2403 C 222.373 4.27152 0.269278 0
M  V30 2404 C 221.699 5.17684 1.33818 0
M  V30 2405 C 222.999 5.15373 -0.847805 0
M  V30 2406 H 224.693 2.89639 -0.758244 0
M  V30 2407 H 222.239 1.39269 -0.366079 0
M  V30 2408 H 224.192 3.9629 1.43292 0
M  V30 2409 H 222.916 2.76025 1.74579 0
M  V30 2410 H 221.575 3.66123 -0.187042 0
M  V30 2411 H 221.223 4.56165 2.1195 0
M  V30 2412 H 220.923 5.80918 0.883659 0
M  V30 2413 H 222.447 5.82974 1.81586 0
M  V30 2414 H 223.861 5.7151 -0.452681 0
M  V30 2415 H 222.258 5.87407 -1.22773 0
M  V30 2416 H 223.328 4.5415 -1.69929 0
M  V30 2417 N 224.671 0.411399 1.52136 0
M  V30 2418 C 225.917 -0.163888 2.02137 0
M  V30 2419 C 226.25 -1.44597 1.29636 0
M  V30 2420 O 225.525 -1.90272 0.403353 0
M  V30 2421 C 225.808 -0.40927 3.57767 0
M  V30 2422 C 225.661 0.889643 4.40914 0
M  V30 2423 C 226.98 -1.19042 4.23694 0
M  V30 2424 H 224.099 -0.0580896 0.734707 0
M  V30 2425 H 226.741 0.54531 1.82007 0
M  V30 2426 H 224.891 -1.0134 3.7505 0
M  V30 2427 H 226.563 1.52575 4.35337 0
M  V30 2428 H 224.806 1.50011 4.07037 0
M  V30 2429 H 225.477 0.672314 5.4789 0
M  V30 2430 H 227.953 -0.678942 4.10524 0
M  V30 2431 H 226.829 -1.33086 5.32522 0
M  V30 2432 H 227.09 -2.21166 3.82803 0
M  V30 2433 N 226.149 -1.5696 0.141893 0
M  V30 2434 C 227.112 -2.15316 -0.785587 0
M  V30 2435 C 228.112 -1.09366 -1.1788 0
M  V30 2436 O 229.302 -1.35031 -1.10056 0
M  V30 2437 C 226.434 -2.71211 -2.06537 0
M  V30 2438 H 227.627 -2.98608 -0.278041 0
M  V30 2439 H 225.18 -1.5593 -0.107519 0
M  V30 2440 H 225.915 -1.91571 -2.6167 0
M  V30 2441 H 225.7 -3.4872 -1.79268 0
M  V30 2442 H 227.19 -3.16189 -2.72789 0
M  V30 2443 N 227.627 0.131896 -1.57047 0
M  V30 2444 C 228.537 1.1815 -2.02676 0
M  V30 2445 C 229.553 1.46113 -0.944824 0
M  V30 2446 O 230.729 1.57485 -1.25541 0
M  V30 2447 C 227.794 2.49139 -2.41103 0
M  V30 2448 C 226.855 2.28688 -3.63318 0
M  V30 2449 C 226.088 3.53431 -3.99903 0
M  V30 2450 O 226.311 4.60223 -3.36973 0
M  V30 2451 O 225.245 3.45198 -4.93074 0
M  V30 2452 H 229.071 0.824069 -2.92306 0
M  V30 2453 H 226.656 0.341745 -1.45439 0
M  V30 2454 H 228.538 3.26338 -2.66611 0
M  V30 2455 H 227.213 2.84382 -1.54624 0
M  V30 2456 H 226.12 1.4939 -3.42977 0
M  V30 2457 H 227.453 1.98355 -4.50462 0
M  V30 2458 N 229.106 1.52395 0.401703 0
M  V30 2459 C 230.036 1.79231 1.49661 0
M  V30 2460 C 231.017 0.643654 1.57452 0
M  V30 2461 O 232.202 0.889989 1.72606 0
M  V30 2462 C 229.332 1.94971 2.87409 0
M  V30 2463 C 228.286 3.10604 2.94465 0
M  V30 2464 C 227.612 3.11577 4.34538 0
M  V30 2465 C 228.912 4.49921 2.6527 0
M  V30 2466 H 230.606 2.70917 1.27454 0
M  V30 2467 H 228.152 1.30362 0.6117 0
M  V30 2468 H 230.105 2.12328 3.63999 0
M  V30 2469 H 228.829 0.999632 3.10926 0
M  V30 2470 H 227.488 2.93009 2.20321 0
M  V30 2471 H 227.136 2.14277 4.55076 0
M  V30 2472 H 226.836 3.89247 4.40183 0
M  V30 2473 H 228.36 3.31073 5.13053 0
M  V30 2474 H 229.774 4.67683 3.31581 0
M  V30 2475 H 228.171 5.29564 2.82281 0
M  V30 2476 H 229.241 4.57507 1.60671 0
M  V30 2477 O 230.623 -0.547609 1.51933 0
M  V30 2478 H 231.314 -1.20275 1.51834 0
M  V30 END ATOM
M  V30 BEGIN BOND
M  V30 END BOND
M  V30 END CTAB
M  END
$$$$
