drugbank_target|P0ACJ8 cAMP-activated global transcriptional regulator CRP (DB02527)
 OpenBabel12092120033D

  0  0  0     0  0            999 V3000
M  V30 BEGIN CTAB
M  V30 COUNTS 3363 3389 0 0 0
M  V30 BEGIN ATOM
M  V30 1 H -0.908 1.98254 -0.117106 0
M  V30 2 N 0 1.576 0 0
M  V30 3 C 0.933 2.03868 1.02534 0
M  V30 4 C 1.911 0.928543 1.3348 0
M  V30 5 O 3.095 1.19667 1.45644 0
M  V30 6 C 0.222 2.43627 2.35294 0
M  V30 7 C -0.732 3.65373 2.2001 0
M  V30 8 S 0.101 5.13292 1.52614 0
M  V30 9 C 1.257 5.56322 2.86805 0
M  V30 10 H 1.49 2.90518 0.631377 0
M  V30 11 H -0.977 1.52953 0.210867 0
M  V30 12 H 0.981 2.67203 3.11629 0
M  V30 13 H -0.358 1.57376 2.7183 0
M  V30 14 H -1.165 3.90944 3.18086 0
M  V30 15 H -1.563 3.418 1.51819 0
M  V30 16 H 0.729 5.58782 3.83104 0
M  V30 17 H 1.672 6.56266 2.65933 0
M  V30 18 H 2.08 4.83886 2.90714 0
M  V30 19 N 1.4781 -0.272755 1.55222 0
M  V30 20 C 2.7241 -1.00581 1.761 0
M  V30 21 C 3.0571 -1.85932 0.560625 0
M  V30 22 O 2.3321 -1.89416 -0.441801 0
M  V30 23 C 2.6151 -1.88816 3.06628 0
M  V30 24 C 2.4681 -1.06457 4.37021 0
M  V30 25 C 3.7871 -2.8752 3.33197 0
M  V30 26 H 0.9061 -0.364244 0.640699 0
M  V30 27 H 3.5481 -0.278189 1.87952 0
M  V30 28 H 1.6981 -2.50856 2.96654 0
M  V30 29 H 3.3701 -0.464863 4.58952 0
M  V30 30 H 1.6131 -0.368043 4.32236 0
M  V30 31 H 2.2841 -1.71514 5.24678 0
M  V30 32 H 4.7601 -2.35615 3.42965 0
M  V30 33 H 3.6361 -3.46399 4.25792 0
M  V30 34 H 3.8971 -3.62657 2.52849 0
M  V30 35 N 2.9562 -1.48159 -0.537278 0
M  V30 36 C 3.8862 -1.65029 -1.6519 0
M  V30 37 C 4.8672 -0.499281 -1.62607 0
M  V30 38 O 6.0522 -0.730972 -1.79918 0
M  V30 39 C 3.1822 -1.68303 -3.03795 0
M  V30 40 C 2.1362 -2.8283 -3.21234 0
M  V30 41 C 1.4622 -2.71189 -4.60826 0
M  V30 42 C 2.7622 -4.24211 -3.04701 0
M  V30 43 H 4.4562 -2.58341 -1.51328 0
M  V30 44 H 2.0022 -1.24325 -0.726585 0
M  V30 45 H 3.9552 -1.78693 -3.81637 0
M  V30 46 H 2.6792 -0.715635 -3.18663 0
M  V30 47 H 1.3382 -2.71983 -2.45807 0
M  V30 48 H 0.9862 -1.72435 -4.7252 0
M  V30 49 H 0.6862 -3.48035 -4.7344 0
M  V30 50 H 2.2102 -2.83537 -5.40777 0
M  V30 51 H 3.6242 -4.3593 -3.72341 0
M  V30 52 H 2.0212 -5.01998 -3.28813 0
M  V30 53 H 3.0912 -4.41184 -2.01209 0
M  V30 54 N 4.4343 0.785586 -1.36625 0
M  V30 55 C 5.6823 1.54057 -1.30808 0
M  V30 56 C 6.0033 1.94683 0.111157 0
M  V30 57 O 5.2733 1.65241 1.05224 0
M  V30 58 H 3.8533 0.571354 -0.481211 0
M  V30 59 H 6.5153 0.935821 -1.70963 0
M  V30 60 H 5.6113 2.44637 -1.93801 0
M  V30 61 N 5.9124 1.20967 1.01018 0
M  V30 62 C 6.8594 0.964281 2.09691 0
M  V30 63 C 7.8294 -0.107853 1.65749 0
M  V30 64 O 9.0144 0.0381987 1.90762 0
M  V30 65 C 6.1544 0.52943 3.41015 0
M  V30 66 C 5.2674 1.67043 3.98398 0
M  V30 67 C 4.4024 1.18525 5.17808 0
M  V30 68 C 3.4414 2.29892 5.67288 0
M  V30 69 N 2.5784 1.82546 6.77954 0
M  V30 70 H 7.4184 1.89463 2.30017 0
M  V30 71 H 4.9554 0.944289 1.1279 0
M  V30 72 H 6.9134 0.258588 4.16398 0
M  V30 73 H 5.5434 -0.363919 3.20742 0
M  V30 74 H 4.5954 2.05603 3.20049 0
M  V30 75 H 5.9074 2.50877 4.31117 0
M  V30 76 H 5.0614 0.870762 6.00419 0
M  V30 77 H 3.8004 0.316887 4.86669 0
M  V30 78 H 2.8054 2.6215 4.83278 0
M  V30 79 H 4.0304 3.17216 6.00459 0
M  V30 80 H 1.9764 0.980454 6.48632 0
M  V30 81 H 1.8934 2.59956 7.09901 0
M  V30 82 H 3.1614 1.54115 7.64113 0
M  V30 83 N 7.3905 -1.2043 1.01659 0
M  V30 84 C 8.8015 -1.71517 0.737482 0
M  V30 85 C 9.1525 -1.81547 -0.743973 0
M  V30 86 O 8.2775 -1.47803 -1.58061 0
M  V30 87 C 8.8725 -3.11515 1.33206 0
M  V30 88 C 7.4315 -3.59912 1.10183 0
M  V30 89 C 6.5785 -2.37116 1.43776 0
M  V30 90 H 9.5295 -1.05444 1.18606 0
M  V30 91 H 9.5505 -3.73575 0.722636 0
M  V30 92 H 9.0625 -3.04182 2.41028 0
M  V30 93 H 7.1635 -3.72577 0.0412756 0
M  V30 94 H 7.2765 -4.44731 1.78188 0
M  V30 95 H 5.6405 -2.39857 0.856778 0
M  V30 96 H 6.4235 -2.32424 2.52654 0
M  V30 97 N 8.8686 -0.792821 -1.36206 0
M  V30 98 C 9.8006 -0.151469 -2.28699 0
M  V30 99 C 10.8136 0.641262 -1.49638 0
M  V30 100 O 12.0026 0.475885 -1.72039 0
M  V30 101 C 9.1026 0.808424 -3.29117 0
M  V30 102 C 8.2756 0.0650202 -4.37352 0
M  V30 103 C 7.3346 0.941358 -5.17711 0
M  V30 104 O 6.3606 0.397352 -5.67811 0
M  V30 105 N 7.5626 2.2652 -5.3448 0
M  V30 106 H 10.3276 -0.945982 -2.84379 0
M  V30 107 H 7.8886 -0.647032 -1.48409 0
M  V30 108 H 9.8806 1.3986 -3.79765 0
M  V30 109 H 8.4506 1.5038 -2.74052 0
M  V30 110 H 7.6706 -0.706255 -3.87822 0
M  V30 111 H 8.9586 -0.447847 -5.06825 0
M  V30 112 H 8.3566 2.73128 -4.95396 0
M  V30 113 H 6.9136 2.80493 -5.88359 0
M  V30 114 N 10.3467 1.47872 -0.545128 0
M  V30 115 C 11.5747 2.06889 -0.021084 0
M  V30 116 C 11.9897 1.39955 1.2672 0
M  V30 117 O 11.3467 0.492036 1.75742 0
M  V30 118 C 11.3977 3.60996 0.190817 0
M  V30 119 O 11.1187 4.25419 -1.04644 0
M  V30 120 C 12.6197 4.36849 0.753521 0
M  V30 121 H 9.8397 0.669785 -0.0403635 0
M  V30 122 H 12.3837 1.90049 -0.755095 0
M  V30 123 H 10.5387 3.77391 0.87492 0
M  V30 124 H 10.9527 5.17785 -0.836611 0
M  V30 125 H 12.4267 5.45399 0.851139 0
M  V30 126 H 12.9037 4.02306 1.762 0
M  V30 127 H 13.5097 4.25169 0.105503 0
M  V30 128 N 11.8248 0.280983 1.55075 0
M  V30 129 C 13.1018 -0.386207 1.91749 0
M  V30 130 C 13.4818 -1.73264 1.20594 0
M  V30 131 O 12.8298 -2.26034 0.334784 0
M  V30 132 C 13.0398 -0.520687 3.45094 0
M  V30 133 C 14.3878 -0.800865 4.16979 0
M  V30 134 O 15.4118 -0.605271 3.5102 0
M  V30 135 O 14.2708 -1.1753 5.33712 0
M  V30 136 H 11.3648 -0.212408 0.799257 0
M  V30 137 H 13.9108 0.327568 1.66509 0
M  V30 138 H 12.6828 0.426633 3.88967 0
M  V30 139 H 12.3058 -1.2837 3.76307 0
M  V30 140 N 13.3029 -1.57598 0.00835791 0
M  V30 141 C 14.7139 -1.7892 -0.53333 0
M  V30 142 C 15.0649 -0.916609 -1.73473 0
M  V30 143 O 14.1899 -0.121336 -2.1606 0
M  V30 144 C 14.7849 -3.24488 -0.974313 0
M  V30 145 C 13.3439 -3.46878 -1.46125 0
M  V30 146 C 12.4909 -2.74157 -0.416302 0
M  V30 147 H 15.4419 -1.56958 0.234495 0
M  V30 148 H 15.4629 -3.3306 -1.83988 0
M  V30 149 H 14.9749 -3.87972 -0.099718 0
M  V30 150 H 13.0759 -2.8862 -2.35646 0
M  V30 151 H 13.1889 -4.55572 -1.48295 0
M  V30 152 H 11.5529 -2.39022 -0.87981 0
M  V30 153 H 12.3359 -3.40345 0.44947 0
M  V30 154 N 14.781 0.264519 -1.55364 0
M  V30 155 C 16.009 1.013 -1.80405 0
M  V30 156 C 16.424 1.79618 -0.581622 0
M  V30 157 O 15.781 1.76879 0.449468 0
M  V30 158 C 15.832 1.96487 -3.03439 0
M  V30 159 O 15.553 1.21341 -4.20961 0
M  V30 160 C 17.054 2.83079 -3.41147 0
M  V30 161 H 14.274 0.298875 -0.600762 0
M  V30 162 H 16.818 0.292736 -2.02394 0
M  V30 163 H 14.973 2.63965 -2.83551 0
M  V30 164 H 15.387 1.85573 -4.90574 0
M  V30 165 H 16.861 3.4565 -4.30384 0
M  V30 166 H 17.338 3.53286 -2.60932 0
M  V30 167 H 17.944 2.2108 -3.63323 0
M  V30 168 N 16.2591 1.48442 0.529413 0
M  V30 169 C 17.1891 1.65902 1.64313 0
M  V30 170 C 18.1701 0.507897 1.6234 0
M  V30 171 O 19.3551 0.740503 1.79528 0
M  V30 172 C 16.4851 1.69911 3.02898 0
M  V30 173 C 15.4391 2.8453 3.19729 0
M  V30 174 C 14.7651 2.73629 4.59381 0
M  V30 175 C 16.0651 4.25821 3.02447 0
M  V30 176 H 17.7591 2.5914 1.49955 0
M  V30 177 H 15.3051 1.24709 0.719982 0
M  V30 178 H 17.2581 1.80715 3.80684 0
M  V30 179 H 15.9821 0.732524 3.18279 0
M  V30 180 H 14.6411 2.73283 2.44361 0
M  V30 181 H 14.2891 1.74938 4.71599 0
M  V30 182 H 13.9891 3.50541 4.71588 0
M  V30 183 H 15.5131 2.86401 5.39265 0
M  V30 184 H 16.9271 4.37898 3.70024 0
M  V30 185 H 15.3241 5.03735 3.26146 0
M  V30 186 H 16.3941 4.42244 1.98867 0
M  V30 187 N 17.7372 -0.778329 1.37039 0
M  V30 188 C 18.6472 -1.92253 1.34446 0
M  V30 189 C 19.6632 -1.72267 0.244991 0
M  V30 190 O 20.8392 -1.95615 0.479258 0
M  V30 191 C 17.9042 -3.27282 1.144 0
M  V30 192 C 16.9652 -3.59969 2.33925 0
M  V30 193 C 16.1982 -4.88555 2.14825 0
M  V30 194 O 16.4212 -5.59113 1.12912 0
M  V30 195 O 15.3552 -5.20153 3.02861 0
M  V30 196 H 19.1812 -1.97392 2.30803 0
M  V30 197 H 16.7662 -0.920154 1.17701 0
M  V30 198 H 18.6482 -4.08062 1.05182 0
M  V30 199 H 17.3232 -3.23011 0.211124 0
M  V30 200 H 16.2302 -2.7945 2.48714 0
M  V30 201 H 17.5632 -3.68976 3.25757 0
M  V30 202 N 19.2153 -1.21501 -1.00376 0
M  V30 203 C 20.4613 -1.04457 -1.74529 0
M  V30 204 C 20.8163 0.417386 -1.87818 0
M  V30 205 O 20.1093 1.30556 -1.40234 0
M  V30 206 C 20.3033 -1.67673 -3.15627 0
M  V30 207 C 20.1323 -3.19865 -3.16096 0
M  V30 208 C 18.9023 -3.88915 -3.22604 0
M  V30 209 C 21.1003 -4.16936 -3.01112 0
M  V30 210 N 19.0823 -5.28284 -3.12712 0
M  V30 211 C 20.4533 -5.43066 -2.99131 0
M  V30 212 C 22.5083 -4.07968 -2.85423 0
M  V30 213 C 21.2113 -6.6126 -2.83068 0
M  V30 214 C 23.2373 -5.258 -2.70718 0
M  V30 215 C 22.5993 -6.50842 -2.69414 0
M  V30 216 H 18.6983 -0.436584 -0.648782 0
M  V30 217 H 21.2823 -1.53875 -1.19293 0
M  V30 218 H 19.4533 -1.20822 -3.6913 0
M  V30 219 H 21.1853 -1.43824 -3.78281 0
M  V30 220 H 17.9403 -3.39847 -3.2985 0
M  V30 221 H 18.3643 -6.01284 -3.11105 0
M  V30 222 H 23.0063 -3.1209 -2.85236 0
M  V30 223 H 20.7243 -7.57298 -2.82002 0
M  V30 224 H 24.3103 -5.20683 -2.59577 0
M  V30 225 H 23.1903 -7.40485 -2.5817 0
M  V30 226 N 20.6934 1.19889 -1.02296 0
M  V30 227 C 21.9404 1.8942 -0.715972 0
M  V30 228 C 22.2684 1.79251 0.754944 0
M  V30 229 O 21.5234 1.17526 1.56481 0
M  V30 230 C 21.8224 3.39883 -1.10518 0
M  V30 231 C 21.4884 3.70254 -2.57337 0
M  V30 232 C 20.1504 3.78254 -2.97452 0
M  V30 233 C 22.5024 3.84052 -3.52354 0
M  V30 234 C 19.8304 3.97514 -4.31509 0
M  V30 235 C 22.1824 4.04824 -4.86108 0
M  V30 236 C 20.8464 4.11054 -5.25919 0
M  V30 237 H 20.1164 0.693138 -0.261993 0
M  V30 238 H 22.7634 1.42012 -1.28472 0
M  V30 239 H 21.0684 3.8915 -0.454953 0
M  V30 240 H 22.7654 3.9199 -0.845261 0
M  V30 241 H 19.3554 3.64632 -2.25258 0
M  V30 242 H 23.5394 3.77221 -3.22518 0
M  V30 243 H 18.7954 4.00574 -4.61898 0
M  V30 244 H 22.9694 4.14442 -5.59653 0
M  V30 245 H 20.5964 4.2573 -6.29808 0
M  V30 246 N 22.1715 0.800033 1.35784 0
M  V30 247 C 23.1015 0.220184 2.3246 0
M  V30 248 C 24.0825 -0.65073 1.57161 0
M  V30 249 O 25.2675 -0.582359 1.85263 0
M  V30 250 C 22.3975 -0.637353 3.41402 0
M  V30 251 C 21.3515 0.134531 4.27789 0
M  V30 252 C 20.6775 -0.844285 5.27992 0
M  V30 253 C 21.9775 1.32979 5.05088 0
M  V30 254 H 23.6715 1.02787 2.81203 0
M  V30 255 H 21.2175 0.495717 1.35199 0
M  V30 256 H 23.1705 -1.05302 4.08031 0
M  V30 257 H 21.8945 -1.47785 2.91251 0
M  V30 258 H 20.5535 0.531296 3.6273 0
M  V30 259 H 20.2015 -1.68011 4.74111 0
M  V30 260 H 19.9015 -0.332184 5.8666 0
M  V30 261 H 21.4255 -1.2583 5.97494 0
M  V30 262 H 22.8395 0.98934 5.64699 0
M  V30 263 H 21.2365 1.77593 5.7322 0
M  V30 264 H 22.3065 2.11978 4.36111 0
M  V30 265 N 23.6496 -1.47581 0.552962 0
M  V30 266 C 24.8746 -2.07378 0.0300593 0
M  V30 267 C 25.2996 -1.40355 -1.25229 0
M  V30 268 O 24.6576 -0.477099 -1.7491 0
M  V30 269 C 24.7056 -3.60274 -0.153231 0
M  V30 270 O 23.8096 -3.94041 -1.21678 0
M  V30 271 H 23.1506 -0.662158 0.0494182 0
M  V30 272 H 25.6806 -1.89662 0.767434 0
M  V30 273 H 25.6906 -4.0633 -0.368761 0
M  V30 274 H 24.3656 -4.08455 0.783397 0
M  V30 275 H 22.9426 -3.59735 -0.982079 0
M  V30 276 N 25.1277 -0.289203 -1.54924 0
M  V30 277 C 26.0777 0.606939 -2.19773 0
M  V30 278 C 27.0617 1.10783 -1.16687 0
M  V30 279 O 28.2537 1.05057 -1.4245 0
M  V30 280 C 25.3827 1.78398 -2.93307 0
M  V30 281 C 24.4687 1.29961 -4.03697 0
M  V30 282 N 24.8597 0.532377 -5.0299 0
M  V30 283 C 23.1577 1.58136 -4.17024 0
M  V30 284 C 23.8587 0.275912 -5.81045 0
M  V30 285 N 22.8347 0.852365 -5.36876 0
M  V30 286 H 26.6367 0.0130779 -2.93897 0
M  V30 287 H 24.1507 -0.09341 -1.62131 0
M  V30 288 H 26.1477 2.43741 -3.38225 0
M  V30 289 H 24.8077 2.38166 -2.20697 0
M  V30 290 H 25.8187 0.17838 -5.17593 0
M  V30 291 H 22.4957 2.18738 -3.55612 0
M  V30 292 H 23.8857 -0.339502 -6.71042 0
M  V30 293 N 26.6058 1.57591 -0.0167156 0
M  V30 294 C 27.8458 1.93145 0.668902 0
M  V30 295 C 28.2098 0.892406 1.7 0
M  V30 296 O 29.4108 1.13373 2.43721 0
M  V30 297 C 27.6818 3.33678 1.28039 0
M  V30 298 S 29.2408 3.91142 1.9888 0
M  V30 299 H 26.0588 0.67593 0.220545 0
M  V30 300 H 28.6608 1.95347 -0.0774105 0
M  V30 301 H 27.3648 4.07126 0.517339 0
M  V30 302 H 26.8958 3.3489 2.06427 0
M  V30 303 H 28.9108 3.73571 3.26587 0
M  V30 304 N 28.0839 -0.256276 1.55502 0
M  V30 305 C 29.0339 -1.31981 1.85916 0
M  V30 306 C 30.0179 -1.43927 0.719296 0
M  V30 307 O 31.2099 -1.47326 0.981019 0
M  V30 308 C 28.3389 -2.67703 2.14918 0
M  V30 309 C 27.4249 -2.59801 3.35208 0
M  V30 310 N 27.8159 -2.21524 4.54709 0
M  V30 311 C 26.1139 -2.90832 3.38131 0
M  V30 312 C 26.8149 -2.24024 5.36832 0
M  V30 313 N 25.7909 -2.63158 4.75656 0
M  V30 314 H 29.5929 -1.01423 2.75845 0
M  V30 315 H 27.1069 -0.464911 1.55603 0
M  V30 316 H 29.1039 -3.44445 2.34869 0
M  V30 317 H 27.7639 -2.99137 1.26282 0
M  V30 318 H 28.7749 -1.93223 4.80505 0
M  V30 319 H 25.4519 -3.26867 2.59739 0
M  V30 320 H 26.8419 -1.9685 6.42417 0
M  V30 321 N 29.562 -1.4872 -0.521534 0
M  V30 322 C 30.811 -1.56419 -1.27341 0
M  V30 323 C 31.124 -0.246805 -1.94037 0
M  V30 324 O 32.33 -0.202122 -2.70747 0
M  V30 325 C 30.786 -2.75896 -2.31105 0
M  V30 326 C 30.394 -4.14311 -1.70441 0
M  V30 327 C 32.138 -2.92913 -3.07249 0
M  V30 328 C 30.045 -5.25038 -2.72194 0
M  V30 329 H 28.975 -0.582344 -0.478949 0
M  V30 330 H 31.626 -1.75071 -0.549779 0
M  V30 331 H 30.008 -2.50697 -3.06541 0
M  V30 332 H 31.182 -4.49564 -1.01136 0
M  V30 333 H 29.497 -4.02482 -1.06759 0
M  V30 334 H 32.094 -3.72805 -3.83302 0
M  V30 335 H 32.437 -2.02689 -3.63625 0
M  V30 336 H 32.97 -3.18054 -2.38928 0
M  V30 337 H 29.709 -6.17255 -2.20627 0
M  V30 338 H 29.229 -4.94263 -3.39801 0
M  V30 339 H 30.908 -5.53508 -3.35019 0
M  V30 340 N 31.0401 0.771051 -1.3745 0
M  V30 341 C 31.9901 1.87456 -1.29785 0
M  V30 342 C 32.9741 1.59827 -0.185541 0
M  V30 343 O 34.1661 1.71945 -0.419997 0
M  V30 344 C 31.2951 3.24935 -1.1078 0
M  V30 345 C 30.3811 3.58514 -2.26558 0
M  V30 346 N 30.7721 3.6327 -3.5195 0
M  V30 347 C 29.0701 3.88683 -2.18727 0
M  V30 348 C 29.7711 3.93616 -4.283 0
M  V30 349 N 28.7471 4.09551 -3.57448 0
M  V30 350 H 32.5491 1.89386 -2.24745 0
M  V30 351 H 30.0631 0.967531 -1.30432 0
M  V30 352 H 32.0601 4.03881 -1.03374 0
M  V30 353 H 30.7201 3.24268 -0.16738 0
M  V30 354 H 31.7311 3.45458 -3.85848 0
M  V30 355 H 28.4081 3.95834 -1.32746 0
M  V30 356 H 29.7981 4.04066 -5.36824 0
M  V30 357 N 32.5182 1.22032 0.997298 0
M  V30 358 C 33.4652 0.986467 2.08656 0
M  V30 359 C 34.4352 -0.0902671 1.65855 0
M  V30 360 O 35.6202 0.0584294 1.90711 0
M  V30 361 C 32.7602 0.565569 3.40434 0
M  V30 362 C 31.8732 1.71259 3.96604 0
M  V30 363 C 31.0082 1.24011 5.16522 0
M  V30 364 C 30.0472 2.35896 5.64818 0
M  V30 365 N 29.1842 1.89726 6.7598 0
M  V30 366 H 34.0242 1.91892 2.27994 0
M  V30 367 H 31.5612 0.956199 1.11782 0
M  V30 368 H 33.5192 0.302738 4.161 0
M  V30 369 H 32.1492 -0.329879 3.2111 0
M  V30 370 H 31.2012 2.08986 3.17851 0
M  V30 371 H 32.5132 2.55436 4.28432 0
M  V30 372 H 31.6672 0.934395 5.99461 0
M  V30 373 H 30.4062 0.368487 4.86306 0
M  V30 374 H 29.4112 2.67261 4.8047 0
M  V30 375 H 30.6362 3.23567 5.97061 0
M  V30 376 H 28.5822 1.0492 6.47555 0
M  V30 377 H 28.4992 2.67471 7.07103 0
M  V30 378 H 29.7672 1.62211 7.62435 0
M  V30 379 N 33.9963 -1.19345 1.0293 0
M  V30 380 C 35.2263 -1.92717 0.744563 0
M  V30 381 C 35.6343 -1.75751 -0.700579 0
M  V30 382 O 34.9773 -1.07703 -1.48815 0
M  V30 383 C 35.0393 -3.44828 1.01657 0
M  V30 384 C 34.7033 -3.85564 2.45335 0
M  V30 385 C 35.7003 -3.90286 3.43472 0
M  V30 386 C 33.3853 -4.1719 2.79746 0
M  V30 387 C 35.3793 -4.26065 4.74075 0
M  V30 388 C 33.0663 -4.52642 4.10559 0
M  V30 389 C 34.0643 -4.57054 5.07534 0
M  V30 390 O 33.7523 -4.91685 6.36004 0
M  V30 391 H 33.4843 -0.618977 0.271742 0
M  V30 392 H 36.0383 -1.52415 1.37691 0
M  V30 393 H 34.2683 -3.85314 0.327084 0
M  V30 394 H 35.9573 -3.99437 0.721427 0
M  V30 395 H 36.7233 -3.66002 3.18225 0
M  V30 396 H 32.6023 -4.1294 2.04943 0
M  V30 397 H 36.1463 -4.29423 5.49765 0
M  V30 398 H 32.0433 -4.76383 4.35579 0
M  V30 399 H 32.8113 -5.09631 6.40483 0
M  V30 400 N 35.4744 -0.807222 -1.35358 0
M  V30 401 C 36.8854 -0.44876 -1.81226 0
M  V30 402 C 37.2364 1.02929 -1.67033 0
M  V30 403 O 36.3614 1.79991 -1.20133 0
M  V30 404 C 36.9564 -0.807774 -3.2903 0
M  V30 405 C 35.5154 -0.501901 -3.73039 0
M  V30 406 C 34.6624 -1.03304 -2.57339 0
M  V30 407 H 37.6134 -0.998808 -1.23327 0
M  V30 408 H 37.6344 -0.10554 -3.80354 0
M  V30 409 H 37.1464 -1.88357 -3.39328 0
M  V30 410 H 35.2474 0.565128 -3.68289 0
M  V30 411 H 35.3604 -1.03497 -4.67787 0
M  V30 412 H 33.7244 -0.455339 -2.50597 0
M  V30 413 H 34.5074 -2.11496 -2.70415 0
M  V30 414 N 36.9525 1.47285 -0.560781 0
M  V30 415 C 38.1775 2.07359 -0.0410566 0
M  V30 416 C 38.6025 1.41017 1.24483 0
M  V30 417 O 37.9605 0.486368 1.74654 0
M  V30 418 C 38.0085 3.6035 0.134123 0
M  V30 419 O 37.1125 3.94681 1.19587 0
M  V30 420 H 36.4535 0.661887 -0.0529291 0
M  V30 421 H 38.9835 1.89252 -0.777482 0
M  V30 422 H 38.9935 4.0652 0.347207 0
M  V30 423 H 37.6685 4.08034 -0.805047 0
M  V30 424 H 36.2455 3.60251 0.962987 0
M  V30 425 N 38.4306 0.297415 1.54768 0
M  V30 426 C 39.3776 -0.580276 2.23386 0
M  V30 427 C 40.3476 -1.13238 1.21517 0
M  V30 428 O 41.5326 -1.17757 1.50126 0
M  V30 429 C 38.6726 -1.74801 2.97555 0
M  V30 430 C 37.7856 -1.22764 4.1419 0
M  V30 431 C 36.9206 -2.35895 4.75949 0
M  V30 432 C 35.9596 -1.80974 5.84735 0
M  V30 433 N 35.0966 -2.87664 6.40464 0
M  V30 434 H 39.9366 0.0114833 2.97998 0
M  V30 435 H 37.4736 0.0174361 1.4709 0
M  V30 436 H 39.4316 -2.43475 3.38786 0
M  V30 437 H 38.0616 -2.31145 2.25326 0
M  V30 438 H 37.1136 -0.433271 3.77924 0
M  V30 439 H 38.4256 -0.785551 4.92575 0
M  V30 440 H 37.5796 -3.12523 5.20014 0
M  V30 441 H 36.3186 -2.83429 3.96887 0
M  V30 442 H 35.3236 -1.02834 5.40097 0
M  V30 443 H 36.5486 -1.34348 6.65678 0
M  V30 444 H 34.4946 -3.34538 5.64287 0
M  V30 445 H 34.4116 -2.4794 7.14186 0
M  V30 446 H 35.6796 -3.642 6.89187 0
M  V30 447 N 39.9087 -1.5758 0.0250728 0
M  V30 448 C 41.1337 -1.96337 -0.668317 0
M  V30 449 C 41.5587 -0.901314 -1.651 0
M  V30 450 O 40.9167 0.138187 -1.80773 0
M  V30 451 C 40.9647 -3.34191 -1.35457 0
M  V30 452 O 40.0687 -3.30269 -2.46974 0
M  V30 453 H 39.4097 -0.640281 -0.175887 0
M  V30 454 H 41.9397 -2.0442 0.0857224 0
M  V30 455 H 41.9497 -3.70331 -1.71228 0
M  V30 456 H 40.6247 -4.11036 -0.634218 0
M  V30 457 H 39.2017 -3.05841 -2.13344 0
M  V30 458 N 41.3868 0.248026 -1.55636 0
M  V30 459 C 42.6148 0.993808 -1.81469 0
M  V30 460 C 43.0298 1.78991 -0.60064 0
M  V30 461 O 42.3868 1.77345 0.430682 0
M  V30 462 C 42.4378 1.93258 -3.05506 0
M  V30 463 O 42.1588 1.16869 -4.22224 0
M  V30 464 C 43.6598 2.79444 -3.4413 0
M  V30 465 H 40.8798 0.292486 -0.603898 0
M  V30 466 H 43.4238 0.271253 -2.02693 0
M  V30 467 H 41.5788 2.60943 -2.86335 0
M  V30 468 H 41.9928 1.80359 -4.92515 0
M  V30 469 H 43.4668 3.41066 -4.34026 0
M  V30 470 H 43.9438 3.50499 -2.64665 0
M  V30 471 H 44.5498 2.17214 -3.65648 0
M  V30 472 N 42.8649 1.48995 0.513639 0
M  V30 473 C 43.7949 1.67636 1.62544 0
M  V30 474 C 44.7759 0.525087 1.61793 0
M  V30 475 O 45.9609 0.759502 1.78732 0
M  V30 476 C 43.0909 1.73114 3.01079 0
M  V30 477 C 42.0449 2.87905 3.16693 0
M  V30 478 C 41.3709 2.78486 4.56453 0
M  V30 479 C 42.6709 4.29005 2.97913 0
M  V30 480 H 44.3649 2.60716 1.47198 0
M  V30 481 H 41.9109 1.25465 0.706714 0
M  V30 482 H 43.8639 1.84742 3.78746 0
M  V30 483 H 42.5879 0.766241 3.17484 0
M  V30 484 H 41.2469 2.75859 2.41448 0
M  V30 485 H 40.8949 1.7993 4.69717 0
M  V30 486 H 40.5949 3.55523 4.67843 0
M  V30 487 H 42.1189 2.92104 5.36197 0
M  V30 488 H 43.5329 4.41798 3.65359 0
M  V30 489 H 41.9299 5.07166 3.20785 0
M  V30 490 H 42.9999 4.44329 1.94165 0
M  V30 491 N 44.343 -0.763751 1.37857 0
M  V30 492 C 45.592 -1.51789 1.32827 0
M  V30 493 C 45.905 -1.95426 -0.0823719 0
M  V30 494 O 47.111 -2.70298 -0.255172 0
M  V30 495 C 45.567 -2.74133 2.33193 0
M  V30 496 C 45.175 -2.37562 3.79827 0
M  V30 497 C 46.919 -3.52054 2.37188 0
M  V30 498 C 44.826 -3.56456 4.71904 0
M  V30 499 H 43.756 -0.569896 0.493695 0
M  V30 500 H 46.407 -0.835822 1.63359 0
M  V30 501 H 44.789 -3.4427 1.9569 0
M  V30 502 H 45.963 -1.75157 4.26212 0
M  V30 503 H 44.278 -1.72798 3.78853 0
M  V30 504 H 46.875 -4.40437 3.03182 0
M  V30 505 H 47.218 -3.92486 1.38782 0
M  V30 506 H 47.751 -2.88921 2.7344 0
M  V30 507 H 44.49 -3.21099 5.71468 0
M  V30 508 H 44.01 -4.17938 4.30218 0
M  V30 509 H 45.689 -4.23168 4.89426 0
M  V30 510 N 45.8211 -1.22559 -0.990812 0
M  V30 511 C 46.7711 -0.964807 -2.0658 0
M  V30 512 C 47.7551 0.0853472 -1.60673 0
M  V30 513 O 48.9471 -0.125443 -1.76555 0
M  V30 514 C 46.0761 -0.546707 -3.38919 0
M  V30 515 C 45.1621 -1.6317 -3.91454 0
M  V30 516 N 45.5531 -2.85985 -4.17189 0
M  V30 517 C 43.8511 -1.50387 -4.19881 0
M  V30 518 C 44.5521 -3.56159 -4.59919 0
M  V30 519 N 43.5281 -2.83637 -4.63736 0
M  V30 520 H 47.3301 -1.89769 -2.24421 0
M  V30 521 H 44.8441 -1.12343 -1.17273 0
M  V30 522 H 46.8411 -0.34119 -4.15502 0
M  V30 523 H 45.5011 0.379254 -3.22478 0
M  V30 524 H 46.5121 -3.22392 -4.05319 0
M  V30 525 H 43.1891 -0.644254 -4.12499 0
M  V30 526 H 44.5791 -4.6139 -4.88435 0
M  V30 527 N 47.2992 1.18797 -1.03562 0
M  V30 528 C 48.2312 2.21731 -0.580337 0
M  V30 529 C 49.2442 1.59051 0.347349 0
M  V30 530 O 50.4332 1.77929 0.142669 0
M  V30 531 C 47.5332 3.38459 0.172805 0
M  V30 532 C 46.7062 4.3072 -0.761496 0
M  V30 533 C 45.7652 5.26174 -0.0525547 0
M  V30 534 O 44.7912 5.65108 -0.681333 0
M  V30 535 N 45.9932 5.67624 1.21586 0
M  V30 536 H 48.7582 2.61417 -1.46565 0
M  V30 537 H 46.3192 1.33531 -0.915476 0
M  V30 538 H 48.3112 3.99335 0.656793 0
M  V30 539 H 46.8812 2.97507 0.959602 0
M  V30 540 H 46.1012 3.67525 -1.42544 0
M  V30 541 H 47.3892 4.89267 -1.39626 0
M  V30 542 H 46.7872 5.38038 1.74732 0
M  V30 543 H 45.3442 6.30721 1.64421 0
M  V30 544 N 48.7773 0.814389 1.34928 0
M  V30 545 C 50.0253 0.397636 1.9815 0
M  V30 546 C 50.3463 -1.04069 1.64908 0
M  V30 547 O 49.6163 -1.72121 0.93548 0
M  V30 548 H 48.1963 0.144043 0.732981 0
M  V30 549 H 50.8583 1.04195 1.6471 0
M  V30 550 H 49.9543 0.509688 3.0791 0
M  V30 551 N 50.2554 -1.46986 0.568584 0
M  V30 552 C 51.1654 -2.33942 -0.17555 0
M  V30 553 C 52.1814 -1.48891 -0.90041 0
M  V30 554 O 53.3574 -1.81794 -0.86676 0
M  V30 555 C 50.4224 -3.25811 -1.18524 0
M  V30 556 C 49.4834 -4.26757 -0.466582 0
M  V30 557 C 48.7164 -5.14236 -1.42817 0
M  V30 558 O 48.9394 -5.04379 -2.66379 0
M  V30 559 O 47.8734 -5.94412 -0.946453 0
M  V30 560 H 51.6994 -2.98896 0.538036 0
M  V30 561 H 49.2844 -1.4573 0.329097 0
M  V30 562 H 51.1664 -3.82527 -1.76779 0
M  V30 563 H 49.8414 -2.63471 -1.88055 0
M  V30 564 H 48.7484 -3.73769 0.157451 0
M  V30 565 H 50.0814 -4.91843 0.187485 0
M  V30 566 N 51.7335 -0.305618 -1.54608 0
M  V30 567 C 52.6805 0.568421 -2.23691 0
M  V30 568 C 53.6505 1.12592 -1.22116 0
M  V30 569 O 54.8355 1.16959 -1.50749 0
M  V30 570 C 51.9755 1.7322 -2.98477 0
M  V30 571 C 51.0885 1.20566 -4.14835 0
M  V30 572 C 50.2235 2.33368 -4.77193 0
M  V30 573 C 49.2625 1.7787 -5.85686 0
M  V30 574 N 48.3995 2.84263 -6.4198 0
M  V30 575 H 53.2395 -0.0272867 -2.97988 0
M  V30 576 H 50.7765 -0.0252363 -1.47078 0
M  V30 577 H 52.7345 2.41675 -3.40072 0
M  V30 578 H 51.3645 2.29947 -2.26548 0
M  V30 579 H 50.4165 0.413223 -3.78149 0
M  V30 580 H 51.7285 0.759417 -4.92985 0
M  V30 581 H 50.8825 3.09761 -5.21664 0
M  V30 582 H 49.6215 2.8132 -3.98385 0
M  V30 583 H 48.6265 0.99968 -5.40635 0
M  V30 584 H 49.8515 1.30816 -6.66381 0
M  V30 585 H 47.7975 3.31541 -5.66053 0
M  V30 586 H 47.7145 2.44149 -7.15491 0
M  V30 587 H 48.9825 3.6054 -6.91109 0
M  V30 588 N 53.2116 1.57565 -0.0334293 0
M  V30 589 C 54.1746 2.09393 0.932048 0
M  V30 590 C 55.1746 1.00986 1.25134 0
M  V30 591 O 56.3646 1.27129 1.19096 0
M  V30 592 C 53.4966 2.56338 2.2473 0
M  V30 593 H 54.6896 2.95984 0.483085 0
M  V30 594 H 52.2426 1.54819 0.21468 0
M  V30 595 H 52.9776 1.7309 2.74245 0
M  V30 596 H 52.7626 3.35542 2.02865 0
M  V30 597 H 54.2526 2.96646 2.93923 0
M  V30 598 N 54.6897 -0.239769 1.55765 0
M  V30 599 C 55.5997 -1.31831 1.94056 0
M  V30 600 C 56.6157 -1.52275 0.841925 0
M  V30 601 O 57.7917 -1.65759 1.14394 0
M  V30 602 C 54.8567 -2.65156 2.23368 0
M  V30 603 C 53.9177 -2.53173 3.46701 0
M  V30 604 C 53.1507 -3.8014 3.74606 0
M  V30 605 O 53.3737 -4.82343 3.04469 0
M  V30 606 O 52.3077 -3.78344 4.68123 0
M  V30 607 H 56.1337 -1.02347 2.85935 0
M  V30 608 H 53.7187 -0.441123 1.42739 0
M  V30 609 H 55.6007 -3.43929 2.43497 0
M  V30 610 H 54.2757 -2.94358 1.34666 0
M  V30 611 H 53.1827 -1.72662 3.31871 0
M  V30 612 H 54.5157 -2.28915 4.35728 0
M  V30 613 N 56.1678 -1.49265 -0.50573 0
M  V30 614 C 57.3958 -1.62215 -1.28429 0
M  V30 615 C 57.8108 -0.291697 -1.86533 0
M  V30 616 O 57.1678 0.722233 -1.67601 0
M  V30 617 C 57.2188 -2.68735 -2.41793 0
M  V30 618 O 56.9398 -3.96619 -1.86078 0
M  V30 619 C 58.4408 -2.92346 -3.3324 0
M  V30 620 H 55.6608 -0.546239 -0.389697 0
M  V30 621 H 58.2048 -1.95265 -0.607609 0
M  V30 622 H 56.3598 -2.38476 -3.053 0
M  V30 623 H 56.7738 -4.55256 -2.60465 0
M  V30 624 H 58.2478 -3.70623 -4.09075 0
M  V30 625 H 58.7248 -2.02081 -3.89948 0
M  V30 626 H 59.3308 -3.24003 -2.75503 0
M  V30 627 N 57.6459 0.756429 -1.3826 0
M  V30 628 C 58.5759 1.88374 -1.37976 0
M  V30 629 C 59.5569 1.68311 -0.246082 0
M  V30 630 O 60.7419 1.88944 -0.44874 0
M  V30 631 C 57.8719 3.25864 -1.20125 0
M  V30 632 C 56.8259 3.60523 -2.30666 0
M  V30 633 C 56.1519 4.9672 -1.97923 0
M  V30 634 C 57.4519 3.65692 -3.72916 0
M  V30 635 H 59.1459 1.88869 -2.32312 0
M  V30 636 H 56.6919 0.907272 -1.11824 0
M  V30 637 H 58.6449 4.0438 -1.18552 0
M  V30 638 H 57.3689 3.25841 -0.222498 0
M  V30 639 H 56.0279 2.84324 -2.3142 0
M  V30 640 H 55.6759 4.93253 -0.985393 0
M  V30 641 H 55.3759 5.20878 -2.71955 0
M  V30 642 H 56.8999 5.77618 -1.97964 0
M  V30 643 H 58.3139 4.34328 -3.74208 0
M  V30 644 H 56.7109 4.01358 -4.4613 0
M  V30 645 H 57.7809 2.65987 -4.05436 0
M  V30 646 N 59.124 1.23083 0.984299 0
M  V30 647 C 60.354 1.08556 1.75781 0
M  V30 648 C 60.762 -0.366171 1.85623 0
M  V30 649 O 60.105 -1.26524 1.33182 0
M  V30 650 C 60.167 1.63208 3.20318 0
M  V30 651 C 59.831 3.11922 3.33997 0
M  V30 652 C 60.828 4.09259 3.2063 0
M  V30 653 C 58.513 3.51552 3.58771 0
M  V30 654 C 60.507 5.4421 3.31835 0
M  V30 655 C 58.194 4.86649 3.69616 0
M  V30 656 C 59.192 5.82787 3.56157 0
M  V30 657 O 58.88 7.15431 3.66626 0
M  V30 658 H 58.612 0.380713 0.5586 0
M  V30 659 H 61.166 1.63321 1.2456 0
M  V30 660 H 59.396 1.0286 3.72769 0
M  V30 661 H 61.085 1.44216 3.79416 0
M  V30 662 H 61.851 3.79984 3.01392 0
M  V30 663 H 57.73 2.77239 3.6832 0
M  V30 664 H 61.274 6.1923 3.21247 0
M  V30 665 H 57.171 5.15601 3.88363 0
M  V30 666 H 57.939 7.23127 3.83445 0
M  V30 667 N 60.6021 -1.18246 1.0419 0
M  V30 668 C 61.8321 -1.91916 0.764961 0
M  V30 669 C 62.2401 -1.76485 -0.681898 0
M  V30 670 O 61.5831 -1.09275 -1.47664 0
M  V30 671 C 61.6451 -3.4373 1.05309 0
M  V30 672 C 61.3091 -3.8294 2.4941 0
M  V30 673 C 62.3061 -3.86621 3.47592 0
M  V30 674 C 59.9911 -4.142 2.84155 0
M  V30 675 C 61.9851 -4.21013 4.78568 0
M  V30 676 C 59.6721 -4.48262 4.15337 0
M  V30 677 C 60.6701 -4.51645 5.12353 0
M  V30 678 O 60.3581 -4.84911 6.41183 0
M  V30 679 H 60.0901 -0.61606 0.278292 0
M  V30 680 H 62.6441 -1.50947 1.39299 0
M  V30 681 H 60.8741 -3.84946 0.367933 0
M  V30 682 H 62.5631 -3.9865 0.763752 0
M  V30 683 H 63.3291 -3.62607 3.22089 0
M  V30 684 H 59.2081 -4.10743 2.09311 0
M  V30 685 H 62.7521 -4.23568 5.54289 0
M  V30 686 H 58.6491 -4.71737 4.40607 0
M  V30 687 H 59.4171 -5.02809 6.45852 0
M  V30 688 N 62.0802 -0.821533 -1.34494 0
M  V30 689 C 63.3292 -0.405355 -1.97585 0
M  V30 690 C 63.6422 1.03677 -1.65863 0
M  V30 691 O 64.8482 1.55679 -2.22433 0
M  V30 692 C 63.3042 -0.673861 -3.53535 0
M  V30 693 C 62.9122 -2.12951 -3.94152 0
M  V30 694 C 64.6562 -0.32378 -4.23263 0
M  V30 695 C 62.5632 -2.34298 -5.43009 0
M  V30 696 H 61.4932 -0.147836 -0.739365 0
M  V30 697 H 64.1442 -1.00769 -1.53355 0
M  V30 698 H 62.5262 -0.00137554 -3.96 0
M  V30 699 H 63.7002 -2.84104 -3.62797 0
M  V30 700 H 62.0152 -2.44089 -3.37356 0
M  V30 701 H 64.6122 -0.461126 -5.32708 0
M  V30 702 H 64.9552 0.731586 -4.09821 0
M  V30 703 H 65.4882 -0.950786 -3.8627 0
M  V30 704 H 62.2272 -3.38335 -5.61435 0
M  V30 705 H 61.7472 -1.67687 -5.75883 0
M  V30 706 H 63.4262 -2.16588 -6.09671 0
M  V30 707 N 63.5583 1.46682 -0.576371 0
M  V30 708 C 64.8043 2.02712 -0.0596221 0
M  V30 709 C 65.1373 1.44765 1.29448 0
M  V30 710 O 64.4123 0.610355 1.84675 0
M  V30 711 C 64.6953 3.60098 0.0129503 0
M  V30 712 C 64.5483 4.28441 -1.3696 0
M  V30 713 C 65.8673 4.34224 0.71678 0
M  V30 714 H 62.9863 0.736637 -0.0231407 0
M  V30 715 H 65.6283 1.74898 -0.742351 0
M  V30 716 H 63.7783 3.83926 0.594378 0
M  V30 717 H 65.4503 4.15896 -1.9957 0
M  V30 718 H 63.6933 3.8805 -1.93907 0
M  V30 719 H 64.3643 5.3716 -1.27135 0
M  V30 720 H 66.8403 4.15503 0.222908 0
M  V30 721 H 65.7163 5.43936 0.73657 0
M  V30 722 H 65.9773 4.04823 1.77682 0
M  V30 723 N 65.0364 0.313813 1.54444 0
M  V30 724 C 65.9834 -0.55655 2.23989 0
M  V30 725 C 66.9534 -1.11943 1.22711 0
M  V30 726 O 68.1384 -1.16158 1.51367 0
M  V30 727 C 65.2784 -1.71635 2.99392 0
M  V30 728 C 64.3914 -1.18364 4.15468 0
M  V30 729 C 63.5264 -2.30834 4.78424 0
M  V30 730 C 62.5654 -1.74762 5.86622 0
M  V30 731 N 61.7024 -2.80855 6.43479 0
M  V30 732 H 66.5424 0.0430893 2.97969 0
M  V30 733 H 64.0794 0.0330359 1.47063 0
M  V30 734 H 66.0374 -2.39868 3.41349 0
M  V30 735 H 64.6674 -2.28742 2.27765 0
M  V30 736 H 63.7194 -0.393163 3.78363 0
M  V30 737 H 65.0314 -0.733262 4.93381 0
M  V30 738 H 64.1854 -3.0699 5.23299 0
M  V30 739 H 62.9244 -2.79204 3.99871 0
M  V30 740 H 61.9294 -0.970995 5.41158 0
M  V30 741 H 63.1544 -1.2728 6.67066 0
M  V30 742 H 61.1004 -3.28535 5.67804 0
M  V30 743 H 61.0174 -2.40351 7.16776 0
M  V30 744 H 62.2854 -3.5687 6.93011 0
M  V30 745 N 66.5145 -1.57545 0.0417849 0
M  V30 746 C 67.7625 -1.91937 -0.632829 0
M  V30 747 C 68.0835 -0.919978 -1.71934 0
M  V30 748 O 67.3535 0.0366064 -1.95866 0
M  V30 749 H 65.9335 -0.708493 -0.236742 0
M  V30 750 H 68.5955 -1.9468 0.0925745 0
M  V30 751 H 67.6915 -2.92912 -1.07746 0
M  V30 752 N 67.9926 0.231505 -1.5589 0
M  V30 753 C 69.2176 0.978689 -1.82856 0
M  V30 754 C 69.6426 1.77559 -0.620846 0
M  V30 755 O 69.0006 1.76119 0.430305 0
M  V30 756 C 69.0486 1.87997 -3.07716 0
M  V30 757 O 68.1526 2.97393 -2.85712 0
M  V30 758 H 67.4936 0.277663 -0.603158 0
M  V30 759 H 70.0236 0.24783 -2.03093 0
M  V30 760 H 70.0336 2.2917 -3.37558 0
M  V30 761 H 68.7086 1.29417 -3.95252 0
M  V30 762 H 67.2856 2.60238 -2.67078 0
M  V30 763 N 69.4707 1.49531 0.497807 0
M  V30 764 C 70.7167 1.59415 1.25358 0
M  V30 765 C 71.0497 0.281422 1.9215 0
M  V30 766 O 70.3247 -0.715249 1.80871 0
M  V30 767 C 70.6077 2.75566 2.3181 0
M  V30 768 C 70.4607 4.16642 1.69498 0
M  V30 769 C 71.7797 2.87347 3.33346 0
M  V30 770 H 68.8987 0.580244 0.454408 0
M  V30 771 H 71.5407 1.81827 0.551262 0
M  V30 772 H 69.6907 2.56587 2.91711 0
M  V30 773 H 71.3627 4.47145 1.13399 0
M  V30 774 H 69.6057 4.22141 0.998978 0
M  V30 775 H 70.2767 4.93792 2.46725 0
M  V30 776 H 72.7527 3.04634 2.83438 0
M  V30 777 H 71.6287 3.70289 4.05188 0
M  V30 778 H 71.8897 1.96834 3.95865 0
M  V30 779 N 70.9488 -0.749086 1.3866 0
M  V30 780 C 71.9118 -1.84457 1.36045 0
M  V30 781 C 72.9118 -1.58682 0.260122 0
M  V30 782 O 74.1018 -1.66343 0.517261 0
M  V30 783 C 71.2338 -3.22008 1.11911 0
M  V30 784 H 72.4268 -1.88182 2.33512 0
M  V30 785 H 69.9798 -0.951266 1.24019 0
M  V30 786 H 70.7148 -3.2395 0.150686 0
M  V30 787 H 70.4998 -3.42111 1.91579 0
M  V30 788 H 71.9898 -4.0208 1.12788 0
M  V30 789 N 72.4269 -1.23603 -0.977757 0
M  V30 790 C 73.6729 -1.07129 -1.72195 0
M  V30 791 C 74.0059 0.390501 -1.90233 0
M  V30 792 O 73.2809 1.28902 -1.45653 0
M  V30 793 C 73.5639 -1.80031 -3.11867 0
M  V30 794 C 73.4169 -3.33899 -3.01383 0
M  V30 795 C 74.7359 -1.56492 -4.11337 0
M  V30 796 H 71.8549 -0.390571 -0.624999 0
M  V30 797 H 74.4969 -1.52142 -1.13811 0
M  V30 798 H 72.6469 -1.41768 -3.6171 0
M  V30 799 H 74.3189 -3.81699 -2.59043 0
M  V30 800 H 72.5619 -3.62796 -2.37827 0
M  V30 801 H 73.2329 -3.801 -4.00285 0
M  V30 802 H 75.7089 -1.89757 -3.70313 0
M  V30 803 H 74.5849 -2.09973 -5.07151 0
M  V30 804 H 74.8459 -0.500874 -4.39254 0
M  V30 805 N 73.905 1.17692 -1.04816 0
M  V30 806 C 74.835 2.23777 -0.666791 0
M  V30 807 C 75.816 1.66796 0.33361 0
M  V30 808 O 77.001 1.93039 0.212042 0
M  V30 809 C 74.131 3.47281 -0.0367933 0
M  V30 810 C 73.085 4.17059 -0.961546 0
M  V30 811 C 72.411 5.34342 -0.195626 0
M  V30 812 C 73.711 4.69713 -2.28402 0
M  V30 813 H 75.405 2.55933 -1.55367 0
M  V30 814 H 72.951 1.23019 -0.748484 0
M  V30 815 H 74.904 4.20706 0.241775 0
M  V30 816 H 73.628 3.14381 0.885004 0
M  V30 817 H 72.287 3.45541 -1.22462 0
M  V30 818 H 71.935 4.97692 0.728816 0
M  V30 819 H 71.635 5.81966 -0.811775 0
M  V30 820 H 73.159 6.10553 0.0757473 0
M  V30 821 H 74.573 5.34794 -2.06563 0
M  V30 822 H 72.97 5.279 -2.8538 0
M  V30 823 H 74.04 3.86726 -2.92525 0
M  V30 824 N 75.3831 0.828654 1.34056 0
M  V30 825 C 76.6321 0.415828 1.97367 0
M  V30 826 C 76.9451 -1.02796 1.6641 0
M  V30 827 O 78.1511 -1.54497 2.23255 0
M  V30 828 C 76.6071 0.692601 3.53173 0
M  V30 829 C 76.2151 2.15038 3.93017 0
M  V30 830 C 77.9591 0.346222 4.23086 0
M  V30 831 C 75.8661 2.37174 5.41758 0
M  V30 832 H 74.7961 0.151755 0.738571 0
M  V30 833 H 77.4471 1.01581 1.52819 0
M  V30 834 H 75.8291 0.0223764 3.95994 0
M  V30 835 H 77.0031 2.86024 3.61285 0
M  V30 836 H 75.3181 2.45875 3.36057 0
M  V30 837 H 77.9151 0.48937 5.32456 0
M  V30 838 H 78.2581 -0.709842 4.10204 0
M  V30 839 H 78.7911 0.971258 3.85761 0
M  V30 840 H 75.5301 3.41308 5.59633 0
M  V30 841 H 75.0501 1.70738 5.74986 0
M  V30 842 H 76.7291 2.19818 6.08514 0
M  V30 843 N 76.8612 -1.46375 0.584142 0
M  V30 844 C 77.8082 -2.30323 -0.148286 0
M  V30 845 C 78.7782 -1.40703 -0.882713 0
M  V30 846 O 79.9632 -1.69651 -0.873099 0
M  V30 847 C 77.1032 -3.25196 -1.15507 0
M  V30 848 C 76.2162 -4.29915 -0.423943 0
M  V30 849 C 75.3512 -5.11914 -1.41838 0
M  V30 850 C 74.3902 -6.08381 -0.673736 0
M  V30 851 N 73.5272 -6.83242 -1.6163 0
M  V30 852 H 78.3672 -2.92427 0.573644 0
M  V30 853 H 75.9042 -1.44118 0.294703 0
M  V30 854 H 77.8622 -3.78646 -1.75166 0
M  V30 855 H 76.4922 -2.64898 -1.8447 0
M  V30 856 H 75.5442 -3.7931 0.287714 0
M  V30 857 H 76.8562 -4.98549 0.158128 0
M  V30 858 H 76.0102 -5.69648 -2.08773 0
M  V30 859 H 74.7492 -4.43243 -2.03438 0
M  V30 860 H 73.7542 -5.49799 0.00938483 0
M  V30 861 H 74.9792 -6.79071 -0.0631082 0
M  V30 862 H 72.9252 -6.1728 -2.22038 0
M  V30 863 H 72.8422 -7.48144 -1.08707 0
M  V30 864 H 74.1102 -7.45534 -2.27596 0
M  V30 865 N 78.3393 -0.321999 -1.54275 0
M  V30 866 C 79.6163 0.335232 -1.92706 0
M  V30 867 C 79.9963 1.70006 -1.25145 0
M  V30 868 O 79.3443 2.25067 -0.394596 0
M  V30 869 C 79.5543 0.429008 -3.46353 0
M  V30 870 C 80.9023 0.690029 -4.18956 0
M  V30 871 O 81.9263 0.511992 -3.52501 0
M  V30 872 O 80.7853 1.03338 -5.36641 0
M  V30 873 H 77.8793 0.191143 -0.804608 0
M  V30 874 H 80.4253 -0.3716 -1.65581 0
M  V30 875 H 79.1973 -0.529611 -3.87699 0
M  V30 876 H 78.8203 1.18348 -3.79578 0
M  V30 877 N 79.8174 1.5752 -0.0501392 0
M  V30 878 C 80.7274 2.14952 0.939827 0
M  V30 879 C 81.7434 1.10706 1.34239 0
M  V30 880 O 82.9194 1.42869 1.41952 0
M  V30 881 C 79.9844 2.68232 2.19665 0
M  V30 882 C 79.0454 3.87272 1.85253 0
M  V30 883 C 78.2784 4.38002 3.04943 0
M  V30 884 O 78.5014 3.87811 4.18281 0
M  V30 885 O 77.4354 5.29602 2.86017 0
M  V30 886 H 81.2614 2.9986 0.481392 0
M  V30 887 H 78.8464 1.4841 0.171699 0
M  V30 888 H 80.7284 3.02475 2.93406 0
M  V30 889 H 79.4034 1.86395 2.64648 0
M  V30 890 H 78.3104 3.5792 1.0883 0
M  V30 891 H 79.6434 4.70336 1.4507 0
M  V30 892 N 81.2955 -0.223234 1.56011 0
M  V30 893 C 82.2055 -1.29766 1.95443 0
M  V30 894 C 83.2215 -1.51373 0.858028 0
M  V30 895 O 84.3975 -1.64536 1.16146 0
M  V30 896 C 81.4625 -2.62772 2.26167 0
M  V30 897 C 80.5235 -2.49482 3.49367 0
M  V30 898 C 79.7565 -3.76145 3.78616 0
M  V30 899 O 79.9795 -4.79087 3.09568 0
M  V30 900 O 78.9135 -3.73358 4.72109 0
M  V30 901 H 82.7395 -0.99309 2.87004 0
M  V30 902 H 80.3245 -0.425958 1.43199 0
M  V30 903 H 82.2065 -3.41327 2.47131 0
M  V30 904 H 80.8815 -2.92913 1.37781 0
M  V30 905 H 79.7885 -1.69133 3.33684 0
M  V30 906 H 81.1215 -2.2428 4.38131 0
M  V30 907 N 82.7736 -1.49793 -0.48987 0
M  V30 908 C 84.0216 -1.59525 -1.24081 0
M  V30 909 C 84.3426 -0.288953 -1.92847 0
M  V30 910 O 83.6126 0.692436 -1.83254 0
M  V30 911 H 82.1926 -0.587796 -0.460983 0
M  V30 912 H 84.8546 -1.86477 -0.566778 0
M  V30 913 H 83.9506 -2.39696 -1.99881 0
M  V30 914 N 84.2517 0.741722 -1.39055 0
M  V30 915 C 85.1987 1.85566 -1.37237 0
M  V30 916 C 86.1687 1.64457 -0.233072 0
M  V30 917 O 87.3537 1.85957 -0.427147 0
M  V30 918 C 84.4937 3.23004 -1.215 0
M  V30 919 C 83.6067 3.55864 -2.44918 0
M  V30 920 C 82.7417 4.82669 -2.21821 0
M  V30 921 C 81.7807 5.08351 -3.40948 0
M  V30 922 N 80.9177 6.26356 -3.17211 0
M  V30 923 H 85.7577 1.86455 -2.32462 0
M  V30 924 H 83.2947 0.911176 -1.15482 0
M  V30 925 H 85.2527 4.02331 -1.10389 0
M  V30 926 H 83.8827 3.21411 -0.29908 0
M  V30 927 H 82.9347 2.7129 -2.66657 0
M  V30 928 H 84.2467 3.70765 -3.33668 0
M  V30 929 H 83.4007 5.69962 -2.07914 0
M  V30 930 H 82.1397 4.69929 -1.30454 0
M  V30 931 H 81.1447 4.19522 -3.55361 0
M  V30 932 H 82.3697 5.22981 -4.33207 0
M  V30 933 H 80.3157 6.14917 -2.28502 0
M  V30 934 H 80.2327 6.41813 -3.99515 0
M  V30 935 H 81.5007 7.16506 -3.06984 0
M  V30 936 N 85.7298 1.2412 0.971189 0
M  V30 937 C 86.6398 1.04747 2.09917 0
M  V30 938 C 87.6558 -0.0107162 1.73997 0
M  V30 939 O 88.8318 0.186714 2.00533 0
M  V30 940 C 85.8968 0.650828 3.40537 0
M  V30 941 C 84.9578 1.7851 3.90426 0
M  V30 942 C 84.1908 1.40729 5.14812 0
M  V30 943 O 84.4138 0.29557 5.69634 0
M  V30 944 O 83.3478 2.23168 5.58999 0
M  V30 945 H 87.1738 1.99304 2.29154 0
M  V30 946 H 84.7588 1.02908 1.08307 0
M  V30 947 H 86.6408 0.440992 4.19086 0
M  V30 948 H 85.3158 -0.265649 3.22608 0
M  V30 949 H 84.2228 2.04966 3.12953 0
M  V30 950 H 85.5558 2.68023 4.12825 0
M  V30 951 N 87.2079 -1.17134 1.05439 0
M  V30 952 C 88.1409 -2.2012 0.601855 0
M  V30 953 C 89.1189 -1.58314 -0.370854 0
M  V30 954 O 90.3029 -1.8638 -0.281882 0
M  V30 955 C 87.4299 -3.38491 -0.118868 0
M  V30 956 C 86.4759 -4.18752 0.809242 0
M  V30 957 S 87.3089 -4.83602 2.29977 0
M  V30 958 C 88.4649 -6.0536 1.59029 0
M  V30 959 H 88.6979 -2.58165 1.47438 0
M  V30 960 H 86.2309 -1.27788 0.866573 0
M  V30 961 H 88.1889 -4.07084 -0.528495 0
M  V30 962 H 86.8499 -2.98829 -0.967465 0
M  V30 963 H 86.0429 -5.03373 0.251379 0
M  V30 964 H 85.6449 -3.5561 1.15835 0
M  V30 965 H 87.9369 -6.71615 0.891017 0
M  V30 966 H 88.8799 -6.65679 2.41407 0
M  V30 967 H 89.2879 -5.54138 1.07663 0
M  V30 968 N 88.686 -0.835752 -1.33615 0
M  V30 969 C 89.935 -0.426289 -1.97144 0
M  V30 970 C 90.248 1.01912 -1.66953 0
M  V30 971 O 91.454 1.53311 -2.24072 0
M  V30 972 C 89.91 -0.711321 -3.52801 0
M  V30 973 C 89.518 -2.1712 -3.91871 0
M  V30 974 C 91.262 -0.368654 -4.22896 0
M  V30 975 C 89.169 -2.40044 -5.40493 0
M  V30 976 H 88.099 -0.15567 -0.737755 0
M  V30 977 H 90.75 -1.0239 -1.52278 0
M  V30 978 H 89.132 -0.0433766 -3.95976 0
M  V30 979 H 90.306 -2.87936 -3.59763 0
M  V30 980 H 88.621 -2.47654 -3.34749 0
M  V30 981 H 91.218 -0.517601 -5.32189 0
M  V30 982 H 91.561 0.688078 -4.10574 0
M  V30 983 H 92.094 -0.991702 -3.8524 0
M  V30 984 H 88.833 -3.44271 -5.57815 0
M  V30 985 H 88.353 -1.73785 -5.74072 0
M  V30 986 H 90.032 -2.23042 -6.0734 0
M  V30 987 N 90.1641 1.46063 -0.591896 0
M  V30 988 C 91.0941 2.33172 0.123673 0
M  V30 989 C 92.0751 1.45897 0.87453 0
M  V30 990 O 93.2601 1.74698 0.848181 0
M  V30 991 C 90.3901 3.28336 1.13194 0
M  V30 992 C 89.3441 4.25124 0.495324 0
M  V30 993 C 88.6701 5.09863 1.61071 0
M  V30 994 C 89.9701 5.19143 -0.573425 0
M  V30 995 H 91.6641 2.93252 -0.603646 0
M  V30 996 H 89.2101 1.41014 -0.291741 0
M  V30 997 H 91.1631 3.88137 1.64097 0
M  V30 998 H 89.8871 2.66383 1.88965 0
M  V30 999 H 88.5461 3.66599 0.00729452 0
M  V30 1000 H 88.1941 4.44288 2.35832 0
M  V30 1001 H 87.8941 5.75417 1.19035 0
M  V30 1002 H 89.4181 5.72529 2.12233 0
M  V30 1003 H 90.8321 5.73106 -0.1491 0
M  V30 1004 H 89.2291 5.93089 -0.914636 0
M  V30 1005 H 90.2991 4.62519 -1.45617 0
M  V30 1006 N 91.6422 0.330177 1.54103 0
M  V30 1007 C 92.8672 -0.274893 2.0557 0
M  V30 1008 C 93.2922 -1.44487 1.20437 0
M  V30 1009 O 92.6502 -1.80021 0.214991 0
M  V30 1010 C 92.6982 -0.68079 3.54115 0
M  V30 1011 O 91.8022 -1.7824 3.71893 0
M  V30 1012 H 91.1432 -0.0483849 0.662235 0
M  V30 1013 H 93.6732 0.480508 1.98878 0
M  V30 1014 H 93.6832 -0.961635 3.96505 0
M  V30 1015 H 92.3582 0.174903 4.15532 0
M  V30 1016 H 90.9352 -1.49985 3.41407 0
M  V30 1017 N 93.1203 -1.57491 0.0584922 0
M  V30 1018 C 94.3503 -1.9701 -0.622134 0
M  V30 1019 C 94.7583 -0.935034 -1.6448 0
M  V30 1020 O 94.1013 0.0882904 -1.83488 0
M  V30 1021 C 94.1633 -3.32794 -1.35972 0
M  V30 1022 C 93.8273 -4.54343 -0.492043 0
M  V30 1023 C 94.8243 -5.19323 0.244901 0
M  V30 1024 C 92.5093 -5.00534 -0.420821 0
M  V30 1025 C 94.5033 -6.28835 1.04143 0
M  V30 1026 C 92.1903 -6.09921 0.379389 0
M  V30 1027 C 93.1883 -6.73933 1.10919 0
M  V30 1028 O 92.8763 -7.81216 1.89623 0
M  V30 1029 H 92.6083 -0.653127 -0.174359 0
M  V30 1030 H 95.1623 -2.05029 0.123418 0
M  V30 1031 H 93.3923 -3.21351 -2.15105 0
M  V30 1032 H 95.0813 -3.5701 -1.93129 0
M  V30 1033 H 95.8473 -4.8459 0.19939 0
M  V30 1034 H 91.7263 -4.50496 -0.978474 0
M  V30 1035 H 95.2703 -6.7873 1.61157 0
M  V30 1036 H 91.1673 -6.44089 0.426512 0
M  V30 1037 H 91.9353 -7.98029 1.81913 0
M  V30 1038 N 94.5984 0.214957 -1.56127 0
M  V30 1039 C 95.5284 1.2695 -1.95974 0
M  V30 1040 C 96.5094 1.48539 -0.828868 0
M  V30 1041 O 97.6944 1.60611 -1.09168 0
M  V30 1042 C 94.8244 2.61794 -2.28214 0
M  V30 1043 C 93.7784 2.54851 -3.43853 0
M  V30 1044 C 93.1044 3.93785 -3.61715 0
M  V30 1045 C 94.4044 2.09065 -4.78632 0
M  V30 1046 H 96.0984 0.93846 -2.84312 0
M  V30 1047 H 93.6444 0.449996 -1.36788 0
M  V30 1048 H 95.5974 3.35731 -2.54682 0
M  V30 1049 H 94.3214 2.96599 -1.36736 0
M  V30 1050 H 92.9804 1.8337 -3.17444 0
M  V30 1051 H 92.6284 4.25908 -2.67602 0
M  V30 1052 H 92.3284 3.90019 -4.39498 0
M  V30 1053 H 93.8524 4.69374 -3.90539 0
M  V30 1054 H 95.2664 2.7275 -5.04262 0
M  V30 1055 H 93.6634 2.16346 -5.59745 0
M  V30 1056 H 94.7334 1.04315 -4.73547 0
M  V30 1057 N 96.0765 1.50051 0.48192 0
M  V30 1058 C 97.0245 1.68635 1.60203 0
M  V30 1059 C 98.0185 0.552184 1.60148 0
M  V30 1060 O 99.2245 0.732377 1.64427 0
M  V30 1061 H 95.5995 0.532081 0.531407 0
M  V30 1062 H 97.5705 2.62616 1.41688 0
M  V30 1063 C 96.3195 1.78775 2.9822 0
M  V30 1064 H 95.6425 2.6543 2.98976 0
M  V30 1065 H 97.0825 1.95806 3.7608 0
M  V30 1066 C 95.5415 0.536849 3.32595 0
M  V30 1067 O 96.0715 -0.328897 4.00351 0
M  V30 1068 N 94.2775 0.394091 2.87915 0
M  V30 1069 H 93.8245 1.09962 2.32951 0
M  V30 1070 H 93.7825 -0.441737 3.11281 0
M  V30 1071 N 97.5546 -0.734337 1.39446 0
M  V30 1072 C 98.4866 -1.85861 1.34121 0
M  V30 1073 C 99.4996 -1.60871 0.249864 0
M  V30 1074 O 100.689 -1.71093 0.508865 0
M  V30 1075 C 97.7886 -3.21899 1.05991 0
M  V30 1076 C 96.9616 -3.74239 2.26415 0
M  V30 1077 C 96.0206 -4.88841 1.94733 0
M  V30 1078 O 95.0466 -5.02468 2.67422 0
M  V30 1079 N 96.2486 -5.73261 0.913884 0
M  V30 1080 H 99.0136 -1.90934 2.31007 0
M  V30 1081 H 96.5746 -0.915102 1.33557 0
M  V30 1082 H 98.5666 -3.96136 0.828147 0
M  V30 1083 H 97.1366 -3.12091 0.178361 0
M  V30 1084 H 96.3566 -2.91347 2.65539 0
M  V30 1085 H 97.6446 -4.05942 3.06738 0
M  V30 1086 H 97.0426 -5.64842 0.311476 0
M  V30 1087 H 95.5996 -6.47563 0.742015 0
M  V30 1088 N 99.0327 -1.24633 -0.964593 0
M  V30 1089 C 100.281 -1.08573 -1.70459 0
M  V30 1090 C 100.602 0.375655 -1.91347 0
M  V30 1091 O 99.8717 1.26779 -1.49345 0
M  V30 1092 H 98.4517 -0.398784 -0.631649 0
M  V30 1093 H 101.114 -1.56601 -1.16026 0
M  V30 1094 H 100.21 -1.58623 -2.68785 0
M  V30 1095 N 100.511 1.16574 -1.06058 0
M  V30 1096 C 101.788 1.83048 -0.689416 0
M  V30 1097 C 102.168 1.94122 0.829443 0
M  V30 1098 O 101.516 1.48249 1.7388 0
M  V30 1099 C 101.726 3.20186 -1.38859 0
M  V30 1100 C 103.074 3.95989 -1.53226 0
M  V30 1101 O 104.098 3.29696 -1.3483 0
M  V30 1102 O 102.957 5.14813 -1.83384 0
M  V30 1103 H 100.051 0.790258 -0.243764 0
M  V30 1104 H 102.597 1.23797 -1.16071 0
M  V30 1105 H 101.369 3.07146 -2.4244 0
M  V30 1106 H 100.992 3.87112 -0.907216 0
M  V30 1107 N 101.989 0.842826 1.3317 0
M  V30 1108 C 103.236 0.440447 1.97652 0
M  V30 1109 C 103.564 -1.00123 1.6675 0
M  V30 1110 O 102.819 -1.7155 0.941761 0
M  V30 1111 C 103.118 0.612607 3.52111 0
M  V30 1112 C 102.784 2.02297 4.02972 0
M  V30 1113 C 101.446 2.40874 4.16573 0
M  V30 1114 C 103.798 2.94402 4.30089 0
M  V30 1115 C 101.126 3.70852 4.54627 0
M  V30 1116 C 103.478 4.23865 4.69597 0
M  V30 1117 C 102.142 4.62392 4.81404 0
M  V30 1118 H 101.412 0.161171 0.72326 0
M  V30 1119 H 104.059 1.07061 1.58777 0
M  V30 1120 H 102.364 -0.100849 3.9167 0
M  V30 1121 H 104.061 0.2815 4.00011 0
M  V30 1122 H 100.651 1.71338 3.92863 0
M  V30 1123 H 104.835 2.65835 4.19101 0
M  V30 1124 H 100.091 4.00501 4.61962 0
M  V30 1125 H 104.265 4.95306 4.89536 0
M  V30 1126 H 101.892 5.63154 5.10648 0
M  V30 1127 N 103.467 -1.45747 0.599634 0
M  V30 1128 C 104.716 -2.01502 0.0893511 0
M  V30 1129 C 105.029 -1.4748 -1.28488 0
M  V30 1130 O 106.235 -1.95161 -1.88745 0
M  V30 1131 C 104.691 -3.59735 0.109082 0
M  V30 1132 C 104.299 -4.22754 1.48267 0
M  V30 1133 C 106.043 -4.23085 -0.346374 0
M  V30 1134 C 103.95 -5.73115 1.45921 0
M  V30 1135 H 102.88 -0.753417 0.0296347 0
M  V30 1136 H 105.531 -1.67303 0.753788 0
M  V30 1137 H 103.913 -3.91087 -0.621854 0
M  V30 1138 H 105.087 -4.02987 2.23468 0
M  V30 1139 H 103.402 -3.71567 1.87955 0
M  V30 1140 H 105.999 -5.33327 -0.38298 0
M  V30 1141 H 106.342 -3.93201 -1.36743 0
M  V30 1142 H 106.875 -3.9642 0.331038 0
M  V30 1143 H 103.614 -6.07685 2.45762 0
M  V30 1144 H 103.134 -5.95097 0.749665 0
M  V30 1145 H 104.813 -6.3616 1.17941 0
M  V30 1146 N 104.945 -0.338344 -1.53925 0
M  V30 1147 C 106.193 0.259245 -2.0043 0
M  V30 1148 C 106.514 1.51484 -1.22791 0
M  V30 1149 O 105.784 1.93037 -0.33368 0
M  V30 1150 H 104.364 0.0987845 -0.740439 0
M  V30 1151 H 107.026 -0.458302 -1.89435 0
M  V30 1152 H 106.122 0.505334 -3.07982 0
M  V30 1153 N 106.423 1.57458 -0.0668435 0
M  V30 1154 C 107.333 2.15937 0.916975 0
M  V30 1155 C 108.349 1.12123 1.33058 0
M  V30 1156 O 109.525 1.44366 1.40429 0
M  V30 1157 C 106.59 2.70547 2.16807 0
M  V30 1158 C 105.651 3.89215 1.81135 0
M  V30 1159 C 104.884 4.41211 3.0028 0
M  V30 1160 O 105.107 3.92225 4.14144 0
M  V30 1161 O 104.041 5.32605 2.80384 0
M  V30 1162 H 107.867 3.00354 0.449561 0
M  V30 1163 H 105.452 1.48584 0.155949 0
M  V30 1164 H 107.334 3.0557 2.90181 0
M  V30 1165 H 106.009 1.89192 2.62656 0
M  V30 1166 H 104.916 3.59054 1.05028 0
M  V30 1167 H 106.249 4.71848 1.40073 0
M  V30 1168 N 107.901 -0.206675 1.56239 0
M  V30 1169 C 108.831 -1.25909 1.96645 0
M  V30 1170 C 109.812 -1.48097 0.836734 0
M  V30 1171 O 110.997 -1.6003 1.10019 0
M  V30 1172 C 108.127 -2.6058 2.29599 0
M  V30 1173 C 107.081 -2.53024 3.452 0
M  V30 1174 C 106.407 -3.91861 3.63798 0
M  V30 1175 C 107.707 -2.06524 4.79734 0
M  V30 1176 H 109.401 -0.923369 2.84806 0
M  V30 1177 H 106.947 -0.442735 1.37025 0
M  V30 1178 H 108.9 -3.34375 2.56459 0
M  V30 1179 H 107.624 -2.95869 1.38307 0
M  V30 1180 H 106.283 -1.81684 3.18412 0
M  V30 1181 H 105.931 -4.24483 2.69857 0
M  V30 1182 H 105.631 -3.87683 4.4156 0
M  V30 1183 H 107.155 -4.67296 3.93022 0
M  V30 1184 H 108.569 -2.70072 5.05702 0
M  V30 1185 H 106.966 -2.13374 5.60885 0
M  V30 1186 H 108.036 -1.01802 4.74093 0
M  V30 1187 N 109.379 -1.50304 -0.473955 0
M  V30 1188 C 110.627 -1.60832 -1.22382 0
M  V30 1189 C 110.948 -0.30939 -1.9253 0
M  V30 1190 O 110.218 0.67296 -1.83978 0
M  V30 1191 H 108.798 -0.592652 -0.454723 0
M  V30 1192 H 111.46 -1.87068 -0.546968 0
M  V30 1193 H 110.556 -2.41803 -1.97327 0
M  V30 1194 N 110.857 0.726932 -1.39834 0
M  V30 1195 C 111.787 1.85405 -1.41941 0
M  V30 1196 C 112.768 1.67751 -0.281728 0
M  V30 1197 O 113.953 1.8795 -0.488717 0
M  V30 1198 C 111.083 3.23243 -1.2701 0
M  V30 1199 C 110.037 3.55549 -2.38262 0
M  V30 1200 C 109.363 4.9241 -2.08415 0
M  V30 1201 C 110.663 3.577 -3.80589 0
M  V30 1202 H 112.357 1.83899 -2.36266 0
M  V30 1203 H 109.903 0.883349 -1.13723 0
M  V30 1204 H 111.856 4.01775 -1.27103 0
M  V30 1205 H 110.58 3.25296 -0.291564 0
M  V30 1206 H 109.239 2.79351 -2.37399 0
M  V30 1207 H 108.887 4.91052 -1.0898 0
M  V30 1208 H 108.587 5.14992 -2.82943 0
M  V30 1209 H 110.111 5.73289 -2.10171 0
M  V30 1210 H 111.525 4.26293 -3.83337 0
M  V30 1211 H 109.922 3.91804 -4.54543 0
M  V30 1212 H 110.992 2.57328 -4.10987 0
M  V30 1213 N 112.336 1.25143 0.95797 0
M  V30 1214 C 113.583 1.09692 1.70217 0
M  V30 1215 C 113.911 -0.362654 1.91089 0
M  V30 1216 O 113.166 -1.28386 1.47701 0
M  V30 1217 C 113.465 1.79272 3.09187 0
M  V30 1218 C 113.131 3.29196 3.08125 0
M  V30 1219 C 111.793 3.70096 3.07543 0
M  V30 1220 C 114.145 4.24995 3.0171 0
M  V30 1221 C 111.473 5.05213 2.9829 0
M  V30 1222 C 113.825 5.60132 2.93999 0
M  V30 1223 C 112.489 6.00365 2.9175 0
M  V30 1224 H 111.759 0.401393 0.622868 0
M  V30 1225 H 114.406 1.55372 1.11945 0
M  V30 1226 H 112.711 1.26014 3.70982 0
M  V30 1227 H 114.408 1.64773 3.65583 0
M  V30 1228 H 110.998 2.96651 3.09348 0
M  V30 1229 H 115.182 3.9439 3.01281 0
M  V30 1230 H 110.438 5.35569 2.94916 0
M  V30 1231 H 114.612 6.3406 2.87996 0
M  V30 1232 H 112.239 7.05023 2.84336 0
M  V30 1233 N 113.814 -1.1601 1.06675 0
M  V30 1234 C 114.724 -2.24156 0.692179 0
M  V30 1235 C 115.74 -1.71507 -0.293513 0
M  V30 1236 O 116.916 -2.009 -0.141861 0
M  V30 1237 C 113.981 -3.46587 0.0884131 0
M  V30 1238 C 113.042 -4.14257 1.12646 0
M  V30 1239 C 112.275 -5.30844 0.551416 0
M  V30 1240 O 112.498 -5.66858 -0.634656 0
M  V30 1241 O 111.432 -5.87848 1.29298 0
M  V30 1242 H 115.258 -2.58513 1.59388 0
M  V30 1243 H 112.843 -1.23599 0.83926 0
M  V30 1244 H 114.725 -4.20679 -0.246361 0
M  V30 1245 H 113.4 -3.13994 -0.786712 0
M  V30 1246 H 112.307 -3.42118 1.51348 0
M  V30 1247 H 113.64 -4.50914 1.97325 0
M  V30 1248 N 115.292 -0.849877 -1.32721 0
M  V30 1249 C 116.202 -0.293791 -2.32753 0
M  V30 1250 C 117.218 0.585906 -1.63839 0
M  V30 1251 O 118.394 0.487413 -1.95413 0
M  V30 1252 C 115.459 0.512752 -3.42887 0
M  V30 1253 C 114.52 -0.39252 -4.27502 0
M  V30 1254 C 113.753 0.375625 -5.32377 0
M  V30 1255 O 113.976 1.60613 -5.4732 0
M  V30 1256 O 112.91 -0.256094 -6.01355 0
M  V30 1257 H 116.736 -1.12242 -2.82197 0
M  V30 1258 H 114.321 -0.612685 -1.36259 0
M  V30 1259 H 116.203 0.970704 -4.10067 0
M  V30 1260 H 114.878 1.31826 -2.95641 0
M  V30 1261 H 113.785 -0.898547 -3.63149 0
M  V30 1262 H 115.118 -1.16309 -4.7826 0
M  V30 1263 N 116.77 1.45427 -0.607355 0
M  V30 1264 C 118.018 2.01841 -0.102253 0
M  V30 1265 C 118.339 1.47832 1.27164 0
M  V30 1266 O 117.609 0.672497 1.83995 0
M  V30 1267 H 116.189 0.746188 -0.0348101 0
M  V30 1268 H 118.851 1.78229 -0.7887 0
M  V30 1269 H 117.947 3.12057 -0.0518585 0
M  V30 1270 N 118.248 0.346503 1.53744 0
M  V30 1271 C 119.18 -0.543316 2.22667 0
M  V30 1272 C 120.193 -1.06159 1.23427 0
M  V30 1273 O 121.382 -0.971235 1.49764 0
M  V30 1274 C 118.482 -1.76076 2.89569 0
M  V30 1275 C 117.655 -1.37727 4.15151 0
M  V30 1276 C 116.714 -2.45471 4.65436 0
M  V30 1277 O 115.74 -2.08655 5.29577 0
M  V30 1278 N 116.942 -3.7677 4.41616 0
M  V30 1279 H 119.707 0.0469703 2.99663 0
M  V30 1280 H 117.268 0.170766 1.60997 0
M  V30 1281 H 119.26 -2.47593 3.20125 0
M  V30 1282 H 117.83 -2.25835 2.16142 0
M  V30 1283 H 117.05 -0.492746 3.91108 0
M  V30 1284 H 118.338 -1.09708 4.96832 0
M  V30 1285 H 117.736 -4.09467 3.90325 0
M  V30 1286 H 116.293 -4.44448 4.7677 0
M  V30 1287 N 119.726 -1.57421 0.075193 0
M  V30 1288 C 120.636 -2.1642 -0.905511 0
M  V30 1289 C 121.652 -1.12828 -1.32461 0
M  V30 1290 O 122.828 -1.45109 -1.39661 0
M  V30 1291 C 119.893 -2.71693 -2.15369 0
M  V30 1292 C 118.954 -3.90171 -1.79068 0
M  V30 1293 C 118.187 -4.42798 -2.97936 0
M  V30 1294 O 118.41 -3.94416 -4.12058 0
M  V30 1295 O 117.344 -5.34085 -2.77555 0
M  V30 1296 H 121.17 -3.00588 -0.433626 0
M  V30 1297 H 118.755 -1.48664 -0.148067 0
M  V30 1298 H 120.637 -3.07104 -2.88557 0
M  V30 1299 H 119.312 -1.90582 -2.61649 0
M  V30 1300 H 118.219 -3.59606 -1.03122 0
M  V30 1301 H 119.552 -4.72584 -1.37569 0
M  V30 1302 N 121.204 0.198386 -1.56346 0
M  V30 1303 C 122.62 0.549085 -1.49857 0
M  V30 1304 C 122.82 1.86016 -0.774611 0
M  V30 1305 O 121.876 2.50416 -0.323776 0
M  V30 1306 C 123.189 0.606868 -2.94512 0
M  V30 1307 C 124.737 0.695925 -3.05165 0
M  V30 1308 C 125.212 0.784848 -4.51225 0
M  V30 1309 N 126.703 0.848463 -4.55363 0
M  V30 1310 C 127.438 0.937378 -5.65686 0
M  V30 1311 N 126.934 0.9888 -6.85707 0
M  V30 1312 N 128.727 0.974312 -5.53592 0
M  V30 1313 H 120.878 -0.661655 -2.01831 0
M  V30 1314 H 123.141 -0.235261 -0.918344 0
M  V30 1315 H 122.847 -0.28732 -3.50524 0
M  V30 1316 H 122.721 1.46268 -3.47686 0
M  V30 1317 H 125.108 1.58055 -2.49204 0
M  V30 1318 H 125.189 -0.186022 -2.55123 0
M  V30 1319 H 124.833 -0.0954072 -5.0781 0
M  V30 1320 H 124.763 1.68255 -4.98997 0
M  V30 1321 H 127.254 0.818103 -3.68938 0
M  V30 1322 H 127.567 1.05707 -7.65536 0
M  V30 1323 H 125.912 0.957534 -6.88372 0
M  V30 1324 H 129.103 0.930954 -4.58749 0
M  V30 1325 H 129.276 1.04015 -6.39597 0
M  V30 1326 N 122.682 1.50554 0.465978 0
M  V30 1327 C 123.907 1.65838 1.24549 0
M  V30 1328 C 124.332 0.343486 1.84937 0
M  V30 1329 O 123.69 -0.69324 1.67523 0
M  V30 1330 C 123.738 2.75533 2.32624 0
M  V30 1331 O 122.842 2.37142 3.37398 0
M  V30 1332 H 122.183 0.553893 0.366194 0
M  V30 1333 H 124.713 1.96959 0.553927 0
M  V30 1334 H 124.723 2.98763 2.77857 0
M  V30 1335 H 123.398 3.70962 1.88043 0
M  V30 1336 H 121.975 2.24377 2.97841 0
M  V30 1337 N 124.16 -0.719506 1.40217 0
M  V30 1338 C 125.123 -1.8153 1.39927 0
M  V30 1339 C 126.123 -1.58095 0.293723 0
M  V30 1340 O 127.313 -1.65209 0.552429 0
M  V30 1341 C 124.445 -3.19561 1.18716 0
M  V30 1342 H 125.638 -1.83186 2.37451 0
M  V30 1343 H 123.191 -0.924746 1.26008 0
M  V30 1344 H 123.926 -3.23557 0.219366 0
M  V30 1345 H 123.711 -3.3797 1.98793 0
M  V30 1346 H 125.201 -3.99598 1.21291 0
M  V30 1347 N 125.638 -1.25649 -0.95132 0
M  V30 1348 C 126.884 -1.11766 -1.69941 0
M  V30 1349 C 127.239 0.33735 -1.89419 0
M  V30 1350 O 126.532 1.24491 -1.45645 0
M  V30 1351 C 126.726 -1.80909 -3.08231 0
M  V30 1352 C 126.555 -3.32984 -3.02245 0
M  V30 1353 C 125.325 -4.02247 -3.05819 0
M  V30 1354 C 127.523 -4.29332 -2.83157 0
M  V30 1355 N 125.505 -5.41072 -2.90024 0
M  V30 1356 C 126.876 -5.55265 -2.75828 0
M  V30 1357 C 128.931 -4.19707 -2.67863 0
M  V30 1358 C 127.634 -6.72671 -2.54767 0
M  V30 1359 C 129.66 -5.36809 -2.48173 0
M  V30 1360 C 129.022 -6.61683 -2.41567 0
M  V30 1361 H 125.121 -0.463708 -0.629682 0
M  V30 1362 H 127.705 -1.58796 -1.12659 0
M  V30 1363 H 125.876 -1.36369 -3.63673 0
M  V30 1364 H 127.608 -1.59739 -3.71841 0
M  V30 1365 H 124.363 -3.53531 -3.15139 0
M  V30 1366 H 124.787 -6.13938 -2.85323 0
M  V30 1367 H 129.429 -3.23907 -2.71743 0
M  V30 1368 H 127.147 -7.68577 -2.49629 0
M  V30 1369 H 130.733 -5.31224 -2.37259 0
M  V30 1370 H 129.613 -7.50768 -2.26531 0
M  V30 1371 N 127.117 1.15442 -1.07289 0
M  V30 1372 C 128.363 1.86489 -0.796846 0
M  V30 1373 C 128.696 1.82078 0.675371 0
M  V30 1374 O 127.971 1.24346 1.4956 0
M  V30 1375 C 128.254 3.35626 -1.30489 0
M  V30 1376 C 128.107 3.48673 -2.84161 0
M  V30 1377 C 129.426 4.30357 -0.920907 0
M  V30 1378 H 126.545 0.677144 -0.290939 0
M  V30 1379 H 129.187 1.35633 -1.33056 0
M  V30 1380 H 127.337 3.79068 -0.850883 0
M  V30 1381 H 129.009 3.14099 -3.37846 0
M  V30 1382 H 127.252 2.90253 -3.22391 0
M  V30 1383 H 127.923 4.53453 -3.14777 0
M  V30 1384 H 130.399 3.94871 -1.3121 0
M  V30 1385 H 129.275 5.33193 -1.30372 0
M  V30 1386 H 129.536 4.4176 0.173226 0
M  V30 1387 N 128.595 0.856903 1.32268 0
M  V30 1388 C 130.011 0.547061 1.49931 0
M  V30 1389 C 130.211 -0.921781 1.7918 0
M  V30 1390 O 129.267 -1.70469 1.8627 0
M  V30 1391 C 130.58 1.43599 2.64196 0
M  V30 1392 C 132.128 1.43665 2.78081 0
M  V30 1393 C 132.603 2.31085 3.95428 0
M  V30 1394 N 134.094 2.28893 4.02694 0
M  V30 1395 C 134.829 2.93262 4.92732 0
M  V30 1396 N 134.325 3.66751 5.87763 0
M  V30 1397 N 136.118 2.82638 4.85873 0
M  V30 1398 H 128.269 1.8075 1.11549 0
M  V30 1399 H 130.532 0.772144 0.549997 0
M  V30 1400 H 130.238 2.48058 2.49319 0
M  V30 1401 H 130.112 1.12502 3.60032 0
M  V30 1402 H 132.499 0.399701 2.92381 0
M  V30 1403 H 132.58 1.7878 1.82952 0
M  V30 1404 H 132.224 3.34849 3.81888 0
M  V30 1405 H 132.154 1.93302 4.89839 0
M  V30 1406 H 134.645 1.75466 3.34694 0
M  V30 1407 H 134.958 4.13027 6.53168 0
M  V30 1408 H 133.303 3.70859 5.87783 0
M  V30 1409 H 136.494 2.24774 4.10602 0
M  V30 1410 H 136.667 3.33084 5.55841 0
M  V30 1411 N 130.073 -1.45103 0.615059 0
M  V30 1412 C 131.036 -2.29025 -0.0895485 0
M  V30 1413 C 132.036 -1.40174 -0.787906 0
M  V30 1414 O 133.226 -1.62217 -0.634933 0
M  V30 1415 C 130.358 -3.21376 -1.13711 0
M  V30 1416 H 131.551 -2.92807 0.648382 0
M  V30 1417 H 129.104 -1.51749 0.374444 0
M  V30 1418 H 129.839 -2.6241 -1.90556 0
M  V30 1419 H 129.624 -3.86834 -0.640475 0
M  V30 1420 H 131.114 -3.84459 -1.63036 0
M  V30 1421 N 131.551 -0.354651 -1.53558 0
M  V30 1422 C 132.498 0.496968 -2.25386 0
M  V30 1423 C 133.468 1.0865 -1.25636 0
M  V30 1424 O 134.653 1.12104 -1.54394 0
M  V30 1425 C 131.793 1.63637 -3.03837 0
M  V30 1426 C 130.906 1.07307 -4.18461 0
M  V30 1427 C 130.041 2.18068 -4.84376 0
M  V30 1428 C 129.08 1.59147 -5.91049 0
M  V30 1429 N 128.217 2.63695 -6.50699 0
M  V30 1430 H 133.057 -0.122075 -2.9775 0
M  V30 1431 H 130.594 -0.0720154 -1.46924 0
M  V30 1432 H 132.552 2.30734 -3.47589 0
M  V30 1433 H 131.182 2.22623 -2.33749 0
M  V30 1434 H 130.234 0.292708 -3.79272 0
M  V30 1435 H 131.546 0.602193 -4.95152 0
M  V30 1436 H 130.7 2.93007 -5.31255 0
M  V30 1437 H 129.439 2.68504 -4.07133 0
M  V30 1438 H 128.444 0.827175 -5.43542 0
M  V30 1439 H 129.669 1.09549 -6.70206 0
M  V30 1440 H 127.615 3.13365 -5.76315 0
M  V30 1441 H 127.532 2.21263 -7.22896 0
M  V30 1442 H 128.8 3.3837 -7.02229 0
M  V30 1443 N 133.029 1.57378 -0.0835403 0
M  V30 1444 C 134.257 1.98263 0.59157 0
M  V30 1445 C 134.672 0.962302 1.62435 0
M  V30 1446 O 134.029 -0.049581 1.82433 0
M  V30 1447 C 134.08 3.39214 1.24965 0
M  V30 1448 O 133.801 4.37339 0.258186 0
M  V30 1449 C 135.302 3.95038 2.01147 0
M  V30 1450 H 132.522 0.651773 0.159477 0
M  V30 1451 H 135.066 2.03878 -0.159415 0
M  V30 1452 H 133.221 3.34649 1.95164 0
M  V30 1453 H 133.635 5.19371 0.731734 0
M  V30 1454 H 135.109 4.95848 2.42567 0
M  V30 1455 H 135.586 3.32222 2.87272 0
M  V30 1456 H 136.192 4.0304 1.35789 0
M  V30 1457 N 134.507 -0.190092 1.56449 0
M  V30 1458 C 135.47 -1.21925 1.9408 0
M  V30 1459 C 136.47 -1.38176 0.822431 0
M  V30 1460 O 137.66 -1.35903 1.08977 0
M  V30 1461 C 134.792 -2.58773 2.21922 0
M  V30 1462 H 135.985 -0.897464 2.86157 0
M  V30 1463 H 133.538 -0.43181 1.50217 0
M  V30 1464 H 134.273 -2.95998 1.32499 0
M  V30 1465 H 134.058 -2.48348 3.03424 0
M  V30 1466 H 135.548 -3.32978 2.52022 0
M  V30 1467 N 135.985 -1.50799 -0.457987 0
M  V30 1468 C 137.225 -1.64088 -1.21879 0
M  V30 1469 C 137.589 -0.339848 -1.88968 0
M  V30 1470 O 138.79 -0.348301 -2.66534 0
M  V30 1471 C 137.061 -2.79726 -2.2246 0
M  V30 1472 S 138.62 -3.13225 -3.07303 0
M  V30 1473 H 135.438 -0.578314 -0.41361 0
M  V30 1474 H 138.04 -1.88632 -0.513645 0
M  V30 1475 H 136.744 -3.72722 -1.71775 0
M  V30 1476 H 136.275 -2.57308 -2.97584 0
M  V30 1477 H 138.29 -2.58062 -4.23814 0
M  V30 1478 N 137.463 0.71206 -1.40597 0
M  V30 1479 C 138.373 1.8562 -1.43466 0
M  V30 1480 C 139.389 1.70902 -0.326902 0
M  V30 1481 O 140.565 1.93105 -0.572043 0
M  V30 1482 C 137.63 3.21451 -1.29884 0
M  V30 1483 C 136.691 3.48398 -2.50833 0
M  V30 1484 C 135.924 4.77749 -2.3789 0
M  V30 1485 O 136.147 5.53089 -1.39459 0
M  V30 1486 O 135.081 5.05111 -3.27333 0
M  V30 1487 H 138.907 1.86155 -2.39958 0
M  V30 1488 H 136.492 0.86295 -1.21957 0
M  V30 1489 H 138.374 4.02579 -1.24531 0
M  V30 1490 H 137.049 3.21636 -0.364997 0
M  V30 1491 H 135.956 2.67265 -2.61763 0
M  V30 1492 H 137.289 3.53014 -3.4299 0
M  V30 1493 N 138.941 1.26152 0.944643 0
M  V30 1494 C 140.187 1.11657 1.69294 0
M  V30 1495 C 140.52 -0.339926 1.91202 0
M  V30 1496 O 139.795 -1.24994 1.49019 0
M  V30 1497 C 140.078 1.88236 3.06984 0
M  V30 1498 C 139.931 3.41772 2.92424 0
M  V30 1499 C 141.25 1.67343 4.07043 0
M  V30 1500 H 138.369 0.407004 0.614424 0
M  V30 1501 H 141.011 1.55106 1.09737 0
M  V30 1502 H 139.161 1.51308 3.57824 0
M  V30 1503 H 140.833 3.88433 2.48832 0
M  V30 1504 H 139.076 3.68974 2.28124 0
M  V30 1505 H 139.747 3.90579 3.90067 0
M  V30 1506 H 142.223 1.99509 3.65151 0
M  V30 1507 H 141.099 2.23346 5.01406 0
M  V30 1508 H 141.36 0.617158 4.37771 0
M  V30 1509 N 140.419 -1.14872 1.07899 0
M  V30 1510 C 141.382 -2.17986 0.708161 0
M  V30 1511 C 142.382 -1.58775 -0.25442 0
M  V30 1512 O 143.572 -1.74166 -0.034645 0
M  V30 1513 C 140.704 -3.40871 0.0446929 0
M  V30 1514 H 141.897 -2.52306 1.62116 0
M  V30 1515 H 139.45 -1.2943 0.876218 0
M  V30 1516 H 140.185 -3.12124 -0.880281 0
M  V30 1517 H 139.97 -3.8511 0.737091 0
M  V30 1518 H 141.46 -4.17121 -0.19991 0
M  V30 1519 N 141.898 -0.863906 -1.31812 0
M  V30 1520 C 142.808 -0.318461 -2.32428 0
M  V30 1521 C 143.824 0.568496 -1.64451 0
M  V30 1522 O 145 0.46666 -1.95919 0
M  V30 1523 C 142.065 0.476355 -3.43412 0
M  V30 1524 C 141.126 -0.43784 -4.27061 0
M  V30 1525 C 140.359 0.319138 -5.32745 0
M  V30 1526 O 140.582 1.54799 -5.48993 0
M  V30 1527 O 139.516 -0.319861 -6.01049 0
M  V30 1528 H 143.342 -1.15229 -2.80991 0
M  V30 1529 H 140.927 -0.627103 -1.35602 0
M  V30 1530 H 142.809 0.927156 -4.11074 0
M  V30 1531 H 141.484 1.28683 -2.97022 0
M  V30 1532 H 140.391 -0.937013 -3.62175 0
M  V30 1533 H 141.724 -1.21375 -4.77 0
M  V30 1534 N 143.376 1.44774 -0.622745 0
M  V30 1535 C 144.625 2.01334 -0.121397 0
M  V30 1536 C 144.938 1.49505 1.26125 0
M  V30 1537 O 146.144 1.98139 1.85616 0
M  V30 1538 C 144.6 3.59516 -0.166298 0
M  V30 1539 C 144.208 4.20342 -1.54974 0
M  V30 1540 C 145.952 4.23582 0.279021 0
M  V30 1541 C 143.859 5.70721 -1.55021 0
M  V30 1542 H 142.789 0.752851 -0.0416172 0
M  V30 1543 H 145.44 1.66083 -0.780309 0
M  V30 1544 H 143.822 3.92027 0.559557 0
M  V30 1545 H 144.996 3.99381 -2.29851 0
M  V30 1546 H 143.311 3.68529 -1.93843 0
M  V30 1547 H 145.908 5.33868 0.298083 0
M  V30 1548 H 146.251 3.95327 1.30471 0
M  V30 1549 H 146.784 3.95843 -0.394063 0
M  V30 1550 H 143.523 6.03698 -2.55399 0
M  V30 1551 H 143.043 5.93829 -0.844245 0
M  V30 1552 H 144.722 6.34203 -1.28047 0
M  V30 1553 N 144.854 0.36279 1.53368 0
M  V30 1554 C 146.079 -0.231226 2.06107 0
M  V30 1555 C 146.504 -1.419 1.23474 0
M  V30 1556 O 145.862 -1.79524 0.253128 0
M  V30 1557 C 145.91 -0.605523 3.5548 0
M  V30 1558 O 145.014 -1.70312 3.7559 0
M  V30 1559 H 144.355 -0.034327 0.663112 0
M  V30 1560 H 146.885 0.522584 1.97814 0
M  V30 1561 H 146.895 -0.877314 3.98456 0
M  V30 1562 H 145.57 0.263004 4.15068 0
M  V30 1563 H 144.147 -1.4271 3.44512 0
M  V30 1564 N 146.332 -1.57332 0.0918853 0
M  V30 1565 C 147.562 -1.98286 -0.580205 0
M  V30 1566 C 147.97 -0.969713 -1.6246 0
M  V30 1567 O 147.313 0.0493501 -1.83634 0
M  V30 1568 C 147.375 -3.35603 -1.28882 0
M  V30 1569 C 147.039 -4.55285 -0.395559 0
M  V30 1570 C 148.036 -5.18687 0.355002 0
M  V30 1571 C 145.721 -5.01314 -0.314556 0
M  V30 1572 C 147.715 -6.26484 1.17458 0
M  V30 1573 C 145.402 -6.08979 0.508677 0
M  V30 1574 C 146.4 -6.71429 1.2519 0
M  V30 1575 O 146.088 -7.77018 2.06151 0
M  V30 1576 H 145.82 -0.656678 -0.160466 0
M  V30 1577 H 148.374 -2.04721 0.16688 0
M  V30 1578 H 146.604 -3.25842 -2.08241 0
M  V30 1579 H 148.293 -3.61026 -1.85512 0
M  V30 1580 H 149.059 -4.84058 0.302134 0
M  V30 1581 H 144.938 -4.5247 -0.882697 0
M  V30 1582 H 148.482 -6.75159 1.75518 0
M  V30 1583 H 144.379 -6.4304 0.563037 0
M  V30 1584 H 145.147 -7.93991 1.98799 0
M  V30 1585 N 147.81 0.181792 -1.56548 0
M  V30 1586 C 148.757 1.22521 -1.95595 0
M  V30 1587 C 149.727 1.4454 -0.818373 0
M  V30 1588 O 150.912 1.57454 -1.07763 0
M  V30 1589 C 148.052 2.56193 -2.31212 0
M  V30 1590 C 147.165 2.41641 -3.58097 0
M  V30 1591 C 146.3 3.68108 -3.82975 0
M  V30 1592 C 145.339 3.48445 -5.03242 0
M  V30 1593 N 144.476 4.66956 -5.24306 0
M  V30 1594 H 149.316 0.885226 -2.84548 0
M  V30 1595 H 146.853 0.425718 -1.40805 0
M  V30 1596 H 148.811 3.34088 -2.49882 0
M  V30 1597 H 147.441 2.88208 -1.45382 0
M  V30 1598 H 146.493 1.54976 -3.474 0
M  V30 1599 H 147.805 2.23052 -4.46149 0
M  V30 1600 H 146.959 4.54441 -4.01956 0
M  V30 1601 H 145.698 3.89666 -2.93278 0
M  V30 1602 H 144.703 2.60499 -4.8417 0
M  V30 1603 H 145.928 3.2832 -5.9446 0
M  V30 1604 H 143.874 4.88752 -4.37559 0
M  V30 1605 H 143.791 4.51242 -6.06561 0
M  V30 1606 H 145.059 5.54602 -5.47756 0
M  V30 1607 N 149.288 1.51039 0.449983 0
M  V30 1608 C 150.235 1.71439 1.54523 0
M  V30 1609 C 151.205 0.555871 1.56522 0
M  V30 1610 O 152.39 0.788871 1.73728 0
M  V30 1611 C 149.53 1.83384 2.92343 0
M  V30 1612 C 148.643 3.10873 2.9997 0
M  V30 1613 C 147.778 3.13488 4.28834 0
M  V30 1614 C 146.817 4.35343 4.30282 0
M  V30 1615 N 145.954 4.35579 5.5065 0
M  V30 1616 H 150.794 2.64934 1.36433 0
M  V30 1617 H 148.331 1.31312 0.662982 0
M  V30 1618 H 150.289 1.88291 3.72293 0
M  V30 1619 H 148.919 0.933086 3.0902 0
M  V30 1620 H 147.971 3.15336 2.12761 0
M  V30 1621 H 149.283 4.00814 2.96901 0
M  V30 1622 H 148.437 3.17241 5.17149 0
M  V30 1623 H 147.176 2.21414 4.34543 0
M  V30 1624 H 146.181 4.3178 3.40362 0
M  V30 1625 H 147.406 5.28668 4.26248 0
M  V30 1626 H 145.352 3.46369 5.57104 0
M  V30 1627 H 145.269 5.19313 5.49409 0
M  V30 1628 H 146.537 4.43507 6.41032 0
M  V30 1629 N 150.766 -0.704594 1.40972 0
M  V30 1630 C 152.013 -1.46458 1.39844 0
M  V30 1631 C 152.341 -1.94499 0.00447594 0
M  V30 1632 O 151.596 -1.69275 -0.982057 0
M  V30 1633 C 151.895 -2.698 2.34399 0
M  V30 1634 C 151.561 -2.40464 3.81429 0
M  V30 1635 C 150.223 -2.32174 4.21484 0
M  V30 1636 C 152.575 -2.16086 4.74296 0
M  V30 1637 C 149.903 -1.97589 5.52427 0
M  V30 1638 C 152.255 -1.83011 6.05549 0
M  V30 1639 C 150.919 -1.7321 6.44635 0
M  V30 1640 H 150.189 -0.535927 0.511725 0
M  V30 1641 H 152.836 -0.806124 1.73706 0
M  V30 1642 H 151.141 -3.40536 1.93759 0
M  V30 1643 H 152.838 -3.27919 2.30804 0
M  V30 1644 H 149.428 -2.47808 3.49699 0
M  V30 1645 H 153.612 -2.2144 4.4416 0
M  V30 1646 H 148.868 -1.88547 5.81601 0
M  V30 1647 H 153.042 -1.63164 6.77016 0
M  V30 1648 H 150.669 -1.46179 7.46013 0
M  V30 1649 N 152.244 -1.26651 -0.937939 0
M  V30 1650 C 153.66 -1.03834 -1.21205 0
M  V30 1651 C 153.86 0.234502 -2.00131 0
M  V30 1652 O 152.916 0.942767 -2.3424 0
M  V30 1653 C 154.229 -2.27167 -1.97017 0
M  V30 1654 C 155.777 -2.32101 -2.09996 0
M  V30 1655 C 156.252 -3.55136 -2.8921 0
M  V30 1656 N 157.743 -3.55632 -2.96783 0
M  V30 1657 C 158.478 -4.475 -3.58512 0
M  V30 1658 N 157.974 -5.4966 -4.21717 0
M  V30 1659 N 159.767 -4.35145 -3.55816 0
M  V30 1660 H 151.918 -2.08398 -0.410391 0
M  V30 1661 H 154.181 -0.916031 -0.244114 0
M  V30 1662 H 153.887 -3.19765 -1.46434 0
M  V30 1663 H 153.761 -2.31672 -2.97671 0
M  V30 1664 H 156.148 -1.40015 -2.59769 0
M  V30 1665 H 156.229 -2.31605 -1.08594 0
M  V30 1666 H 155.873 -4.47553 -2.40123 0
M  V30 1667 H 155.803 -3.5288 -3.90875 0
M  V30 1668 H 158.294 -2.81743 -2.51852 0
M  V30 1669 H 158.607 -6.15943 -4.66727 0
M  V30 1670 H 156.952 -5.53514 -4.20294 0
M  V30 1671 H 160.143 -3.5455 -3.05634 0
M  V30 1672 H 160.316 -5.06934 -4.03636 0
M  V30 1673 N 153.722 1.14298 -1.08507 0
M  V30 1674 C 154.654 2.1907 -0.673859 0
M  V30 1675 C 155.667 1.60381 0.279577 0
M  V30 1676 O 156.856 1.78374 0.0670754 0
M  V30 1677 C 153.956 3.38888 0.0290979 0
M  V30 1678 C 153.129 4.27103 -0.943494 0
M  V30 1679 C 152.188 5.25477 -0.275676 0
M  V30 1680 O 151.214 5.61709 -0.920401 0
M  V30 1681 N 152.416 5.7227 0.974013 0
M  V30 1682 H 155.181 2.54965 -1.57521 0
M  V30 1683 H 152.742 1.29528 -0.971287 0
M  V30 1684 H 154.734 4.01761 0.48683 0
M  V30 1685 H 153.304 3.01309 0.832555 0
M  V30 1686 H 152.524 3.61149 -1.58004 0
M  V30 1687 H 153.812 4.82905 -1.60251 0
M  V30 1688 H 153.21 5.44965 1.51755 0
M  V30 1689 H 151.767 6.37127 1.37522 0
M  V30 1690 N 155.201 0.870884 1.31352 0
M  V30 1691 C 156.131 0.343096 2.30966 0
M  V30 1692 C 157.112 -0.566507 1.60389 0
M  V30 1693 O 158.297 -0.483336 1.88089 0
M  V30 1694 C 155.427 -0.455487 3.443 0
M  V30 1695 C 154.381 0.361103 4.26474 0
M  V30 1696 C 153.707 -0.563221 5.31725 0
M  V30 1697 C 155.007 1.59566 4.97329 0
M  V30 1698 H 156.701 1.17548 2.75359 0
M  V30 1699 H 154.247 0.566686 1.32381 0
M  V30 1700 H 156.2 -0.83525 4.13039 0
M  V30 1701 H 154.924 -1.32139 2.98675 0
M  V30 1702 H 153.583 0.722825 3.59403 0
M  V30 1703 H 153.231 -1.42643 4.82351 0
M  V30 1704 H 152.931 -0.0207409 5.87596 0
M  V30 1705 H 154.455 -0.939808 6.03324 0
M  V30 1706 H 155.869 1.28728 5.58661 0
M  V30 1707 H 154.266 2.07728 5.63 0
M  V30 1708 H 155.336 2.34798 4.24262 0
M  V30 1709 N 156.679 -1.44442 0.630414 0
M  V30 1710 C 157.928 -2.01267 0.132073 0
M  V30 1711 C 158.241 -1.50172 -1.25331 0
M  V30 1712 O 159.447 -1.9912 -1.84562 0
M  V30 1713 C 157.903 -3.59422 0.185362 0
M  V30 1714 C 157.511 -4.19514 1.57201 0
M  V30 1715 C 159.255 -4.23724 -0.256553 0
M  V30 1716 C 157.162 -5.69891 1.58045 0
M  V30 1717 H 156.092 -0.752619 0.0456092 0
M  V30 1718 H 158.743 -1.65666 0.789106 0
M  V30 1719 H 157.125 -3.92318 -0.538759 0
M  V30 1720 H 158.299 -3.98156 2.31966 0
M  V30 1721 H 156.614 -3.67496 1.95795 0
M  V30 1722 H 159.211 -5.34019 -0.269767 0
M  V30 1723 H 159.554 -3.96013 -1.28372 0
M  V30 1724 H 160.087 -3.95629 0.41505 0
M  V30 1725 H 156.826 -6.02336 2.58597 0
M  V30 1726 H 156.346 -5.93373 0.875725 0
M  V30 1727 H 158.025 -6.33515 1.31408 0
M  V30 1728 N 158.157 -0.370918 -1.53173 0
M  V30 1729 C 159.089 0.507823 -2.23503 0
M  V30 1730 C 160.102 1.04182 -1.251 0
M  V30 1731 O 161.291 0.947286 -1.5129 0
M  V30 1732 C 158.391 1.71447 -2.92334 0
M  V30 1733 C 157.564 1.31105 -4.17289 0
M  V30 1734 C 156.623 2.38035 -4.69282 0
M  V30 1735 O 155.649 2.00204 -5.32829 0
M  V30 1736 N 156.851 3.69697 -4.47554 0
M  V30 1737 H 159.616 -0.0946382 -2.99551 0
M  V30 1738 H 157.177 -0.196358 -1.60705 0
M  V30 1739 H 159.169 2.42469 -3.24023 0
M  V30 1740 H 157.739 2.22368 -2.19707 0
M  V30 1741 H 156.959 0.430462 -3.91843 0
M  V30 1742 H 158.247 1.0179 -4.98514 0
M  V30 1743 H 157.645 4.03205 -3.9679 0
M  V30 1744 H 156.202 4.36807 -4.8378 0
M  V30 1745 N 159.635 1.57281 -0.100228 0
M  V30 1746 C 160.881 1.94826 0.563101 0
M  V30 1747 C 161.214 0.982475 1.67514 0
M  V30 1748 O 160.489 0.0164069 1.94493 0
M  V30 1749 C 160.772 3.42453 1.11346 0
M  V30 1750 C 160.625 4.498 0.00612081 0
M  V30 1751 C 161.944 3.91506 2.01024 0
M  V30 1752 H 159.063 0.708428 0.203221 0
M  V30 1753 H 161.705 1.8922 -0.171979 0
M  V30 1754 H 159.855 3.47361 1.7399 0
M  V30 1755 H 161.527 4.57 -0.628357 0
M  V30 1756 H 159.77 4.28756 -0.659581 0
M  V30 1757 H 160.441 5.50306 0.432109 0
M  V30 1758 H 162.917 3.88784 1.48278 0
M  V30 1759 H 161.793 4.95358 2.36457 0
M  V30 1760 H 162.054 3.31099 2.92961 0
M  V30 1761 N 161.113 -0.173488 1.56642 0
M  V30 1762 C 162.061 -1.23417 1.97157 0
M  V30 1763 C 163.055 -1.45946 0.860013 0
M  V30 1764 O 164.261 -1.46551 1.04512 0
M  V30 1765 H 160.636 -0.414818 0.62724 0
M  V30 1766 H 162.607 -0.865582 2.8557 0
M  V30 1767 C 161.356 -2.5665 2.34576 0
M  V30 1768 H 160.679 -2.40137 3.19647 0
M  V30 1769 H 162.119 -3.2956 2.6677 0
M  V30 1770 C 160.578 -3.15245 1.18836 0
M  V30 1771 O 161.108 -3.98883 0.474869 0
M  V30 1772 N 159.314 -2.74303 0.959497 0
M  V30 1773 H 158.861 -2.0639 1.54146 0
M  V30 1774 H 158.819 -3.13844 0.186932 0
M  V30 1775 N 162.591 -1.51276 -0.441967 0
M  V30 1776 C 164.002 -1.56244 -1.02199 0
M  V30 1777 C 164.353 -0.383149 -1.92422 0
M  V30 1778 O 163.478 0.500613 -2.1053 0
M  V30 1779 C 164.073 -2.83162 -1.86024 0
M  V30 1780 C 162.632 -2.90716 -2.39084 0
M  V30 1781 C 161.779 -2.50858 -1.18175 0
M  V30 1782 H 164.73 -1.5712 -0.223416 0
M  V30 1783 H 164.751 -2.66663 -2.71425 0
M  V30 1784 H 164.263 -3.68974 -1.20331 0
M  V30 1785 H 162.364 -2.09323 -3.08244 0
M  V30 1786 H 162.477 -3.94266 -2.72198 0
M  V30 1787 H 160.841 -2.03951 -1.52565 0
M  V30 1788 H 161.624 -3.3901 -0.541001 0
M  V30 1789 N 164.069 0.697108 -1.41344 0
M  V30 1790 C 165.346 1.45154 -1.31109 0
M  V30 1791 C 165.726 2.11009 0.0620449 0
M  V30 1792 O 165.074 2.01571 1.07618 0
M  V30 1793 C 165.284 2.47223 -2.46337 0
M  V30 1794 C 166.632 3.1252 -2.87431 0
M  V30 1795 O 167.656 2.57547 -2.46065 0
M  V30 1796 O 166.515 4.12083 -3.58957 0
M  V30 1797 H 163.609 0.646365 -0.515889 0
M  V30 1798 H 166.155 0.727716 -1.53305 0
M  V30 1799 H 164.927 1.97204 -3.37974 0
M  V30 1800 H 164.55 3.27116 -2.2601 0
M  V30 1801 N 165.547 1.27147 0.931209 0
M  V30 1802 C 166.796 1.12664 1.67302 0
M  V30 1803 C 167.109 -0.327718 1.92835 0
M  V30 1804 O 168.315 -0.593392 2.64936 0
M  V30 1805 C 166.771 1.9683 3.01307 0
M  V30 1806 C 166.379 3.46901 2.83485 0
M  V30 1807 C 168.123 1.90985 3.79111 0
M  V30 1808 C 166.03 4.23279 4.13024 0
M  V30 1809 H 164.96 0.41803 0.627509 0
M  V30 1810 H 167.611 1.51539 1.03481 0
M  V30 1811 H 165.993 1.50797 3.66164 0
M  V30 1812 H 167.167 4.00773 2.27415 0
M  V30 1813 H 165.482 3.54088 2.19113 0
M  V30 1814 H 168.079 2.45328 4.75098 0
M  V30 1815 H 168.422 0.882718 4.06834 0
M  V30 1816 H 168.955 2.34895 3.21044 0
M  V30 1817 H 165.694 5.26503 3.90481 0
M  V30 1818 H 165.214 3.74186 4.6877 0
M  V30 1819 H 166.893 4.32265 4.81411 0
M  V30 1820 N 167.025 -1.13721 1.09112 0
M  V30 1821 C 167.955 -2.21148 0.749385 0
M  V30 1822 C 168.936 -1.6792 -0.271475 0
M  V30 1823 O 170.121 -1.93693 -0.140251 0
M  V30 1824 C 167.251 -3.46905 0.165659 0
M  V30 1825 C 166.205 -4.13203 1.11567 0
M  V30 1826 C 165.531 -5.33248 0.393809 0
M  V30 1827 C 166.831 -4.60912 2.45678 0
M  V30 1828 H 168.525 -2.4999 1.64758 0
M  V30 1829 H 166.071 -1.20156 0.793626 0
M  V30 1830 H 168.024 -4.21313 -0.085466 0
M  V30 1831 H 166.748 -3.17449 -0.767714 0
M  V30 1832 H 165.407 -3.40758 1.35202 0
M  V30 1833 H 165.055 -5.00054 -0.543599 0
M  V30 1834 H 164.755 -5.78552 1.02721 0
M  V30 1835 H 166.279 -6.10413 0.150908 0
M  V30 1836 H 167.693 -5.26759 2.26269 0
M  V30 1837 H 166.09 -5.16944 3.04776 0
M  V30 1838 H 167.16 -3.75603 3.06677 0
M  V30 1839 N 168.503 -0.877838 -1.30888 0
M  V30 1840 C 169.436 -0.283995 -2.26426 0
M  V30 1841 C 170.414 0.591361 -1.51465 0
M  V30 1842 O 171.598 0.54304 -1.80509 0
M  V30 1843 C 168.725 0.597129 -3.33395 0
M  V30 1844 C 167.771 -0.207937 -4.25993 0
M  V30 1845 S 168.604 -1.59158 -5.11301 0
M  V30 1846 C 169.76 -0.716791 -6.21782 0
M  V30 1847 H 169.993 -1.09383 -2.76446 0
M  V30 1848 H 167.526 -0.676828 -1.38775 0
M  V30 1849 H 169.484 1.09978 -3.95493 0
M  V30 1850 H 168.145 1.38099 -2.82113 0
M  V30 1851 H 167.338 0.464163 -5.01858 0
M  V30 1852 H 166.94 -0.642963 -3.68432 0
M  V30 1853 H 169.232 0.0692833 -6.77465 0
M  V30 1854 H 170.175 -1.44682 -6.93161 0
M  V30 1855 H 170.583 -0.280855 -5.63801 0
M  V30 1856 N 169.982 1.44106 -0.638065 0
M  V30 1857 C 171.398 1.56672 -0.304286 0
M  V30 1858 C 171.598 1.6244 1.19228 0
M  V30 1859 O 170.654 1.57121 1.9766 0
M  V30 1860 C 171.967 2.83503 -1.00231 0
M  V30 1861 C 173.515 2.97226 -0.981116 0
M  V30 1862 C 173.99 4.26868 -1.65974 0
M  V30 1863 N 175.481 4.33698 -1.62666 0
M  V30 1864 C 176.216 5.32745 -2.12063 0
M  V30 1865 N 175.712 6.38157 -2.6968 0
M  V30 1866 N 177.505 5.24299 -2.02651 0
M  V30 1867 H 169.656 1.38605 -1.60942 0
M  V30 1868 H 171.919 0.664661 -0.675965 0
M  V30 1869 H 171.625 2.85251 -2.0573 0
M  V30 1870 H 171.499 3.73251 -0.54439 0
M  V30 1871 H 173.886 2.95027 0.0654188 0
M  V30 1872 H 173.967 2.08808 -1.47759 0
M  V30 1873 H 173.611 4.29826 -2.70576 0
M  V30 1874 H 173.541 5.14156 -1.13804 0
M  V30 1875 H 176.032 3.58138 -1.20606 0
M  V30 1876 H 176.345 7.10029 -3.05087 0
M  V30 1877 H 174.69 6.38823 -2.73734 0
M  V30 1878 H 177.881 4.4086 -1.57353 0
M  V30 1879 H 178.054 6.01334 -2.41457 0
M  V30 1880 N 171.46 0.379036 1.52974 0
M  V30 1881 C 172.39 -0.452706 2.29069 0
M  V30 1882 C 173.371 -1.07237 1.32039 0
M  V30 1883 O 174.556 -1.08708 1.60923 0
M  V30 1884 C 171.686 -1.5856 3.08992 0
M  V30 1885 C 170.64 -1.0925 4.13822 0
M  V30 1886 C 169.966 -2.31668 4.81907 0
M  V30 1887 C 171.266 -0.167702 5.22031 0
M  V30 1888 H 172.96 0.182181 2.98845 0
M  V30 1889 H 170.506 0.0890592 1.43724 0
M  V30 1890 H 172.459 -2.1742 3.6098 0
M  V30 1891 H 171.183 -2.24792 2.36931 0
M  V30 1892 H 169.842 -0.526494 3.628 0
M  V30 1893 H 169.49 -2.96386 4.06404 0
M  V30 1894 H 169.19 -1.9934 5.52754 0
M  V30 1895 H 170.714 -2.91189 5.36695 0
M  V30 1896 H 172.128 -0.664186 5.6944 0
M  V30 1897 H 170.525 0.0653265 6.00064 0
M  V30 1898 H 171.595 0.786347 4.78482 0
M  V30 1899 N 172.938 -1.57226 0.108567 0
M  V30 1900 C 174.163 -1.99604 -0.563303 0
M  V30 1901 C 174.588 -0.987563 -1.6009 0
M  V30 1902 O 173.946 0.0421687 -1.81251 0
M  V30 1903 C 173.994 -3.40902 -1.17552 0
M  V30 1904 O 173.098 -3.42896 -2.2912 0
M  V30 1905 H 172.439 -0.648704 -0.1417 0
M  V30 1906 H 174.969 -2.03679 0.193961 0
M  V30 1907 H 174.979 -3.78886 -1.51357 0
M  V30 1908 H 173.654 -4.1382 -0.415445 0
M  V30 1909 H 172.231 -3.1672 -1.96832 0
M  V30 1910 N 174.416 0.165178 -1.56732 0
M  V30 1911 C 175.379 1.18822 -1.95995 0
M  V30 1912 C 176.379 1.3685 -0.84431 0
M  V30 1913 O 177.569 1.34152 -1.11126 0
M  V30 1914 C 174.701 2.5521 -2.26011 0
M  V30 1915 H 175.894 0.851825 -2.87548 0
M  V30 1916 H 173.447 0.407857 -1.50885 0
M  V30 1917 H 174.182 2.93852 -1.37191 0
M  V30 1918 H 173.967 2.43489 -3.07336 0
M  V30 1919 H 175.457 3.28927 -2.57288 0
M  V30 1920 N 175.894 1.51508 0.433938 0
M  V30 1921 C 176.826 1.69266 1.54537 0
M  V30 1922 C 177.839 0.573276 1.52373 0
M  V30 1923 O 179.028 0.847698 1.57087 0
M  V30 1924 C 176.128 1.69524 2.93453 0
M  V30 1925 C 175.301 2.98101 3.20085 0
M  V30 1926 C 174.36 2.90502 4.38742 0
M  V30 1927 O 173.386 3.64442 4.3723 0
M  V30 1928 N 174.588 2.06586 5.42496 0
M  V30 1929 H 177.353 2.65145 1.39708 0
M  V30 1930 H 174.914 1.49437 0.622922 0
M  V30 1931 H 176.906 1.62004 3.70859 0
M  V30 1932 H 175.476 0.812245 3.01863 0
M  V30 1933 H 174.696 3.19464 2.30947 0
M  V30 1934 H 175.984 3.83207 3.34708 0
M  V30 1935 H 175.382 1.45896 5.46563 0
M  V30 1936 H 173.939 2.04943 6.18742 0
M  V30 1937 N 177.372 -0.689602 1.41712 0
M  V30 1938 C 178.305 -1.81403 1.3845 0
M  V30 1939 C 179.283 -1.60653 0.250874 0
M  V30 1940 O 180.467 -1.83323 0.43874 0
M  V30 1941 C 177.594 -3.18176 1.1611 0
M  V30 1942 C 176.64 -3.57705 2.3227 0
M  V30 1943 S 177.473 -3.61827 3.94767 0
M  V30 1944 C 178.629 -5.01318 3.74742 0
M  V30 1945 H 178.862 -1.83893 2.33603 0
M  V30 1946 H 176.395 -0.858878 1.28307 0
M  V30 1947 H 178.353 -3.97132 1.03907 0
M  V30 1948 H 177.014 -3.13288 0.225668 0
M  V30 1949 H 176.207 -4.57082 2.12349 0
M  V30 1950 H 175.809 -2.86073 2.40911 0
M  V30 1951 H 178.101 -5.88986 3.34817 0
M  V30 1952 H 179.044 -5.26283 4.73743 0
M  V30 1953 H 179.452 -4.73138 3.07898 0
M  V30 1954 N 178.85 -1.27639 -0.924453 0
M  V30 1955 C 179.813 -1.10681 -2.00705 0
M  V30 1956 C 180.813 -0.0497823 -1.60723 0
M  V30 1957 O 182.003 -0.294654 -1.7169 0
M  V30 1958 C 179.135 -0.687164 -3.33902 0
M  V30 1959 H 180.328 -2.06817 -2.17179 0
M  V30 1960 H 177.881 -1.10473 -1.10569 0
M  V30 1961 H 178.616 0.275439 -3.23128 0
M  V30 1962 H 178.401 -1.45061 -3.6428 0
M  V30 1963 H 179.891 -0.590853 -4.13399 0
M  V30 1964 N 180.328 1.1314 -1.09713 0
M  V30 1965 C 181.744 1.36477 -0.827423 0
M  V30 1966 C 181.944 1.93654 0.556817 0
M  V30 1967 O 181 2.15791 1.31112 0
M  V30 1968 C 182.313 2.31334 -1.92106 0
M  V30 1969 C 183.861 2.44943 -1.94864 0
M  V30 1970 C 184.336 3.4311 -3.0338 0
M  V30 1971 N 185.827 3.50662 -3.02639 0
M  V30 1972 C 186.562 4.2651 -3.83246 0
M  V30 1973 N 186.058 5.05485 -4.73768 0
M  V30 1974 N 187.851 4.2184 -3.71493 0
M  V30 1975 H 180.002 0.743807 -1.9895 0
M  V30 1976 H 182.265 0.389823 -0.864143 0
M  V30 1977 H 181.971 1.96483 -2.91698 0
M  V30 1978 H 181.845 3.31381 -1.80184 0
M  V30 1979 H 184.232 2.79079 -0.959099 0
M  V30 1980 H 184.313 1.4481 -2.10864 0
M  V30 1981 H 183.957 3.09704 -4.02549 0
M  V30 1982 H 183.887 4.43055 -2.84622 0
M  V30 1983 H 186.378 2.94315 -2.37039 0
M  V30 1984 H 186.691 5.60675 -5.3185 0
M  V30 1985 H 185.036 5.04708 -4.77802 0
M  V30 1986 H 188.227 3.5922 -3.00131 0
M  V30 1987 H 188.4 4.80697 -4.3455 0
M  V30 1988 N 181.806 0.884767 1.30421 0
M  V30 1989 C 183.222 0.57874 1.48737 0
M  V30 1990 C 183.422 -0.883567 1.81095 0
M  V30 1991 O 182.478 -1.6648 1.89844 0
M  V30 1992 C 183.791 1.49171 2.61091 0
M  V30 1993 C 185.339 1.49532 2.74971 0
M  V30 1994 C 185.814 2.39421 3.90438 0
M  V30 1995 N 187.305 2.37383 3.97748 0
M  V30 1996 C 188.04 3.03647 4.86401 0
M  V30 1997 N 187.536 3.79136 5.79852 0
M  V30 1998 N 189.329 2.9288 4.79768 0
M  V30 1999 H 181.48 1.83075 1.0769 0
M  V30 2000 H 183.743 0.783637 0.533495 0
M  V30 2001 H 183.449 2.53291 2.44001 0
M  V30 2002 H 183.323 1.20113 3.57565 0
M  V30 2003 H 185.71 0.46163 2.91467 0
M  V30 2004 H 185.791 1.8262 1.79119 0
M  V30 2005 H 185.435 3.42874 3.74699 0
M  V30 2006 H 185.365 2.03649 4.85628 0
M  V30 2007 H 187.856 1.82525 3.30897 0
M  V30 2008 H 188.169 4.26789 6.4426 0
M  V30 2009 H 186.514 3.83243 5.79784 0
M  V30 2010 H 189.705 2.33433 4.05742 0
M  V30 2011 H 189.878 3.448 5.4865 0
M  V30 2012 N 183.284 -1.43765 0.645699 0
M  V30 2013 C 184.214 -2.33471 -0.0370477 0
M  V30 2014 C 185.195 -1.49042 -0.819779 0
M  V30 2015 O 186.38 -1.77726 -0.782758 0
M  V30 2016 C 183.51 -3.32311 -1.0093 0
M  V30 2017 C 182.464 -4.2667 -0.337201 0
M  V30 2018 C 181.79 -5.1549 -1.42037 0
M  V30 2019 C 183.09 -5.16657 0.765706 0
M  V30 2020 H 184.784 -2.90809 0.712069 0
M  V30 2021 H 182.33 -1.39834 0.343876 0
M  V30 2022 H 184.283 -3.9396 -1.49578 0
M  V30 2023 H 183.007 -2.73213 -1.78948 0
M  V30 2024 H 181.666 -3.66374 0.128771 0
M  V30 2025 H 181.314 -4.52735 -2.1918 0
M  V30 2026 H 181.014 -5.79438 -0.975966 0
M  V30 2027 H 182.538 -5.80012 -1.90838 0
M  V30 2028 H 183.952 -5.72158 0.361702 0
M  V30 2029 H 182.349 -5.89286 1.13413 0
M  V30 2030 H 183.419 -4.56796 1.62683 0
M  V30 2031 N 184.763 -0.387143 -1.52771 0
M  V30 2032 C 185.695 0.484089 -2.2403 0
M  V30 2033 C 186.708 1.02849 -1.26198 0
M  V30 2034 O 187.897 0.931186 -1.52286 0
M  V30 2035 C 184.997 1.68337 -2.94136 0
M  V30 2036 C 184.17 1.26672 -4.18656 0
M  V30 2037 C 183.229 2.33045 -4.7178 0
M  V30 2038 O 182.255 1.94541 -5.34923 0
M  V30 2039 N 183.457 3.64929 -4.5145 0
M  V30 2040 H 186.222 -0.126404 -2.99433 0
M  V30 2041 H 183.783 -0.213392 -1.60488 0
M  V30 2042 H 185.775 2.39019 -3.26577 0
M  V30 2043 H 184.345 2.20025 -2.22053 0
M  V30 2044 H 183.565 0.388878 -3.92277 0
M  V30 2045 H 184.853 0.964964 -4.99566 0
M  V30 2046 H 184.251 3.98974 -4.01044 0
M  V30 2047 H 182.808 4.31651 -4.88386 0
M  V30 2048 N 186.241 1.57166 -0.116904 0
M  V30 2049 C 187.487 1.95412 0.542405 0
M  V30 2050 C 187.82 1.00019 1.66463 0
M  V30 2051 O 187.095 0.0370346 1.94465 0
M  V30 2052 C 187.378 3.43615 1.07708 0
M  V30 2053 C 187.231 4.49781 -0.0415868 0
M  V30 2054 C 188.55 3.93616 1.96861 0
M  V30 2055 H 185.669 0.710543 0.195696 0
M  V30 2056 H 188.311 1.89027 -0.192038 0
M  V30 2057 H 186.461 3.49187 1.70296 0
M  V30 2058 H 188.133 4.56308 -0.676793 0
M  V30 2059 H 186.376 4.28033 -0.705019 0
M  V30 2060 H 187.047 5.50733 0.373717 0
M  V30 2061 H 189.523 3.90335 1.44146 0
M  V30 2062 H 188.399 4.97838 2.3119 0
M  V30 2063 H 188.66 3.34188 2.89432 0
M  V30 2064 N 187.719 -0.156864 1.56817 0
M  V30 2065 C 188.947 -0.886316 1.86955 0
M  V30 2066 C 189.362 -1.75185 0.703975 0
M  V30 2067 O 188.719 -1.79555 -0.326552 0
M  V30 2068 C 188.77 -1.75117 3.16253 0
M  V30 2069 O 188.491 -0.920537 4.2832 0
M  V30 2070 C 189.992 -2.58905 3.59837 0
M  V30 2071 H 187.212 -0.25678 0.619923 0
M  V30 2072 H 189.756 -0.152615 2.0393 0
M  V30 2073 H 187.911 -2.43805 3.01062 0
M  V30 2074 H 188.325 -1.51337 5.02192 0
M  V30 2075 H 189.799 -3.1518 4.53172 0
M  V30 2076 H 190.276 -3.34472 2.84649 0
M  V30 2077 H 190.882 -1.95526 3.7769 0
M  V30 2078 N 189.197 -1.51736 -0.425897 0
M  V30 2079 C 190.422 -1.69082 -1.20108 0
M  V30 2080 C 190.847 -0.392398 -1.83962 0
M  V30 2081 O 190.205 0.64858 -1.69302 0
M  V30 2082 C 190.253 -2.81604 -2.25237 0
M  V30 2083 O 189.357 -2.46004 -3.30992 0
M  V30 2084 H 188.698 -0.563408 -0.35138 0
M  V30 2085 H 191.228 -1.98358 -0.501512 0
M  V30 2086 H 191.238 -3.06025 -2.69838 0
M  V30 2087 H 189.913 -3.75817 -1.78142 0
M  V30 2088 H 188.49 -2.32195 -2.91787 0
M  V30 2089 N 190.675 0.682077 -1.42076 0
M  V30 2090 C 191.585 1.82535 -1.47371 0
M  V30 2091 C 192.601 1.7017 -0.363079 0
M  V30 2092 O 193.777 1.91848 -0.612875 0
M  V30 2093 C 190.842 3.18624 -1.36674 0
M  V30 2094 C 189.903 3.42999 -2.58167 0
M  V30 2095 C 189.136 4.72595 -2.4797 0
M  V30 2096 O 189.359 5.50006 -1.5116 0
M  V30 2097 O 188.293 4.98054 -3.37974 0
M  V30 2098 H 192.119 1.81023 -2.43853 0
M  V30 2099 H 189.704 0.836887 -1.2376 0
M  V30 2100 H 191.586 3.99847 -1.33043 0
M  V30 2101 H 190.261 3.20789 -0.433138 0
M  V30 2102 H 189.168 2.61653 -2.67373 0
M  V30 2103 H 190.501 3.45659 -3.50401 0
M  V30 2104 N 192.153 1.28127 0.917671 0
M  V30 2105 C 193.1 1.11717 2.0196 0
M  V30 2106 C 194.07 0.0153929 1.66093 0
M  V30 2107 O 195.255 0.179596 1.89953 0
M  V30 2108 C 192.395 0.780927 3.36148 0
M  V30 2109 C 191.508 1.96135 3.84909 0
M  V30 2110 C 190.643 1.56609 5.0759 0
M  V30 2111 C 189.682 2.71339 5.48673 0
M  V30 2112 N 188.819 2.32332 6.62545 0
M  V30 2113 H 193.659 2.06003 2.15329 0
M  V30 2114 H 191.196 1.02535 1.05475 0
M  V30 2115 H 193.154 0.56675 4.13333 0
M  V30 2116 H 191.784 -0.124998 3.22558 0
M  V30 2117 H 190.836 2.28777 3.03916 0
M  V30 2118 H 192.148 2.82165 4.1132 0
M  V30 2119 H 191.302 1.31374 5.92305 0
M  V30 2120 H 190.041 0.677014 4.82978 0
M  V30 2121 H 189.046 2.97276 4.62501 0
M  V30 2122 H 190.271 3.60882 5.75274 0
M  V30 2123 H 188.217 1.45889 6.39572 0
M  V30 2124 H 188.134 3.11899 6.88662 0
M  V30 2125 H 189.402 2.10371 7.50576 0
M  V30 2126 N 193.631 -1.12557 1.10312 0
M  V30 2127 C 194.877 -1.84311 0.846011 0
M  V30 2128 C 195.21 -1.83805 -0.626859 0
M  V30 2129 O 194.485 -1.28268 -1.46211 0
M  V30 2130 C 194.768 -3.32048 1.39341 0
M  V30 2131 C 194.621 -3.41016 2.93305 0
M  V30 2132 C 195.94 -4.27764 1.03468 0
M  V30 2133 H 193.059 -0.669192 0.30879 0
M  V30 2134 H 195.701 -1.32057 1.36605 0
M  V30 2135 H 193.851 -3.76678 0.951087 0
M  V30 2136 H 195.523 -3.05031 3.46055 0
M  V30 2137 H 193.766 -2.81603 3.29973 0
M  V30 2138 H 194.437 -4.44948 3.26689 0
M  V30 2139 H 196.913 -3.91253 1.41633 0
M  V30 2140 H 195.789 -5.29549 1.44463 0
M  V30 2141 H 196.05 -4.42064 -0.0560404 0
M  V30 2142 N 195.109 -0.891671 -1.2995 0
M  V30 2143 C 196.357 -0.512486 -1.95494 0
M  V30 2144 C 196.678 0.942776 -1.70695 0
M  V30 2145 O 195.948 1.66374 -1.03424 0
M  V30 2146 H 194.528 -0.186533 -0.723336 0
M  V30 2147 H 197.19 -1.13621 -1.58355 0
M  V30 2148 H 196.286 -0.688342 -3.04415 0
M  V30 2149 N 196.587 1.43421 -0.653314 0
M  V30 2150 C 197.535 2.32546 0.0501531 0
M  V30 2151 C 198.529 1.48617 0.812985 0
M  V30 2152 O 199.735 1.64825 0.723375 0
M  V30 2153 H 196.11 0.751185 0.0350032 0
M  V30 2154 H 198.081 2.89602 -0.719261 0
M  V30 2155 C 196.83 3.32925 1.00279 0
M  V30 2156 H 196.153 3.97532 0.425236 0
M  V30 2157 H 197.593 3.9792 1.46409 0
M  V30 2158 C 196.052 2.63532 2.09886 0
M  V30 2159 O 196.582 2.45092 3.18265 0
M  V30 2160 N 194.788 2.22905 1.86445 0
M  V30 2161 H 194.335 2.38103 0.98309 0
M  V30 2162 H 194.293 1.76805 2.59976 0
M  V30 2163 N 198.065 0.39524 1.52563 0
M  V30 2164 C 198.995 -0.428384 2.29537 0
M  V30 2165 C 199.976 -1.05831 1.33169 0
M  V30 2166 O 201.161 -1.06995 1.62067 0
M  V30 2167 C 198.291 -1.55274 3.10656 0
M  V30 2168 C 197.245 -1.04855 4.14957 0
M  V30 2169 C 196.571 -2.26543 4.84337 0
M  V30 2170 C 197.871 -0.112324 5.22179 0
M  V30 2171 H 199.565 0.213867 2.98635 0
M  V30 2172 H 197.111 0.104298 1.43622 0
M  V30 2173 H 199.064 -2.1358 3.63265 0
M  V30 2174 H 197.788 -2.22266 2.39302 0
M  V30 2175 H 196.447 -0.487985 3.63338 0
M  V30 2176 H 196.095 -2.92059 4.09525 0
M  V30 2177 H 195.795 -1.93466 5.54837 0
M  V30 2178 H 197.319 -2.85481 5.39753 0
M  V30 2179 H 198.733 -0.603752 5.70112 0
M  V30 2180 H 197.13 0.128968 5.99961 0
M  V30 2181 H 198.2 0.837052 4.77621 0
M  V30 2182 N 199.544 -1.57102 0.125237 0
M  V30 2183 C 200.507 -2.14471 -0.80838 0
M  V30 2184 C 201.507 -1.0811 -1.19033 0
M  V30 2185 O 202.697 -1.33856 -1.11482 0
M  V30 2186 C 199.829 -2.69005 -2.09402 0
M  V30 2187 H 201.022 -2.98297 -0.309696 0
M  V30 2188 H 198.575 -1.55807 -0.124051 0
M  V30 2189 H 199.31 -1.88785 -2.63687 0
M  V30 2190 H 199.095 -3.46799 -1.82957 0
M  V30 2191 H 200.585 -3.13278 -2.76128 0
M  V30 2192 N 201.022 0.148545 -1.56898 0
M  V30 2193 C 202.269 0.861418 -1.83264 0
M  V30 2194 C 202.597 1.81239 -0.705883 0
M  V30 2195 O 201.852 1.93305 0.305212 0
M  V30 2196 C 202.151 1.67064 -3.1595 0
M  V30 2197 C 201.817 0.866591 -4.42494 0
M  V30 2198 C 200.479 0.644762 -4.76861 0
M  V30 2199 C 202.831 0.30418 -5.20312 0
M  V30 2200 C 200.159 -0.15021 -5.86508 0
M  V30 2201 C 202.511 -0.477824 -6.30793 0
M  V30 2202 C 201.175 -0.710244 -6.63711 0
M  V30 2203 H 200.445 0.315215 -0.670612 0
M  V30 2204 H 203.092 0.125142 -1.91091 0
M  V30 2205 H 201.397 2.47698 -3.03567 0
M  V30 2206 H 203.094 2.22566 -3.33565 0
M  V30 2207 H 199.684 1.04955 -4.15551 0
M  V30 2208 H 203.868 0.462844 -4.94137 0
M  V30 2209 H 199.124 -0.339796 -6.10455 0
M  V30 2210 H 203.298 -0.92076 -6.90286 0
M  V30 2211 H 200.925 -1.3281 -7.48509 0
M  V30 2212 N 202.5 1.5196 0.417844 0
M  V30 2213 C 203.43 1.77634 1.51554 0
M  V30 2214 C 204.411 0.626918 1.58126 0
M  V30 2215 O 205.596 0.871632 1.7354 0
M  V30 2216 C 202.726 1.91911 2.8946 0
M  V30 2217 C 201.68 3.07463 2.97743 0
M  V30 2218 C 201.006 3.06951 4.37819 0
M  V30 2219 C 202.306 4.47082 2.70027 0
M  V30 2220 H 204 2.6955 1.3032 0
M  V30 2221 H 201.546 1.29706 0.625492 0
M  V30 2222 H 203.499 2.08455 3.6623 0
M  V30 2223 H 202.223 0.966598 3.11969 0
M  V30 2224 H 200.882 2.90656 2.23416 0
M  V30 2225 H 200.53 2.09438 4.57323 0
M  V30 2226 H 200.23 3.84556 4.44286 0
M  V30 2227 H 201.754 3.25613 5.16535 0
M  V30 2228 H 203.168 4.6414 3.36522 0
M  V30 2229 H 201.565 5.2654 2.87881 0
M  V30 2230 H 202.635 4.55777 1.65514 0
M  V30 2231 N 203.978 -0.674533 1.42435 0
M  V30 2232 C 205.255 -1.4305 1.33402 0
M  V30 2233 C 205.635 -2.11081 -0.0284674 0
M  V30 2234 O 204.983 -2.03257 -1.04397 0
M  V30 2235 C 205.193 -2.43272 2.50239 0
M  V30 2236 C 206.541 -3.07907 2.92367 0
M  V30 2237 O 207.565 -2.53599 2.50132 0
M  V30 2238 O 206.424 -4.0632 3.65467 0
M  V30 2239 H 203.518 -0.638076 0.526106 0
M  V30 2240 H 206.064 -0.703235 1.54443 0
M  V30 2241 H 204.836 -1.91803 3.41068 0
M  V30 2242 H 204.459 -3.23479 2.31186 0
M  V30 2243 N 205.456 -1.28612 -0.910864 0
M  V30 2244 C 206.702 -1.16106 -1.66274 0
M  V30 2245 C 207.035 0.289113 -1.92036 0
M  V30 2246 O 206.31 1.21 -1.52281 0
M  V30 2247 C 206.593 -1.96309 -3.01885 0
M  V30 2248 C 206.446 -3.49405 -2.8326 0
M  V30 2249 C 207.765 -1.78076 -4.02463 0
M  V30 2250 H 204.884 -0.423152 -0.603417 0
M  V30 2251 H 207.526 -1.57961 -1.05586 0
M  V30 2252 H 205.676 -1.60742 -3.53687 0
M  V30 2253 H 207.348 -3.94894 -2.38446 0
M  V30 2254 H 205.591 -3.74893 -2.18261 0
M  V30 2255 H 206.262 -4.00784 -3.79574 0
M  V30 2256 H 208.738 -2.0912 -3.59733 0
M  V30 2257 H 207.614 -2.36561 -4.95308 0
M  V30 2258 H 207.875 -0.733008 -4.35981 0
M  V30 2259 N 206.934 1.1197 -1.10907 0
M  V30 2260 C 208.162 1.87402 -0.876824 0
M  V30 2261 C 208.577 1.79894 0.573025 0
M  V30 2262 O 207.934 1.17629 1.39534 0
M  V30 2263 C 207.985 3.36428 -1.32282 0
M  V30 2264 O 207.706 3.43765 -2.71582 0
M  V30 2265 C 209.207 4.28783 -1.12518 0
M  V30 2266 H 206.427 0.592793 -0.314384 0
M  V30 2267 H 208.971 1.41649 -1.47499 0
M  V30 2268 H 207.126 3.79706 -0.768229 0
M  V30 2269 H 207.54 4.3652 -2.90776 0
M  V30 2270 H 209.014 5.31613 -1.48633 0
M  V30 2271 H 209.491 4.39153 -0.0642394 0
M  V30 2272 H 210.097 3.91291 -1.66648 0
M  V30 2273 N 208.412 0.89855 1.29475 0
M  V30 2274 C 209.66 0.522847 1.9522 0
M  V30 2275 C 209.981 -0.93371 1.71192 0
M  V30 2276 O 209.251 -1.65823 1.04305 0
M  V30 2277 H 207.831 0.190366 0.722336 0
M  V30 2278 H 210.493 1.14459 1.5775 0
M  V30 2279 H 209.589 0.704476 3.04045 0
M  V30 2280 N 209.89 -1.43072 0.660911 0
M  V30 2281 C 211.306 -1.56169 0.329173 0
M  V30 2282 C 211.506 -1.64317 -1.16629 0
M  V30 2283 O 210.562 -1.60245 -1.95135 0
M  V30 2284 C 211.875 -2.81873 1.04729 0
M  V30 2285 C 213.423 -2.95627 1.02828 0
M  V30 2286 C 213.898 -4.24174 1.72744 0
M  V30 2287 N 215.389 -4.31055 1.69545 0
M  V30 2288 C 216.124 -5.29304 2.20511 0
M  V30 2289 N 215.62 -6.33786 2.79799 0
M  V30 2290 N 217.413 -5.21008 2.10966 0
M  V30 2291 H 209.564 -1.36027 1.63127 0
M  V30 2292 H 211.827 -0.653823 0.686454 0
M  V30 2293 H 211.533 -2.81942 2.10242 0
M  V30 2294 H 211.407 -3.72338 0.603702 0
M  V30 2295 H 213.794 -2.95094 -0.0184742 0
M  V30 2296 H 213.875 -2.06431 1.51063 0
M  V30 2297 H 213.519 -4.25467 2.7738 0
M  V30 2298 H 213.449 -5.1228 1.2197 0
M  V30 2299 H 215.94 -3.56174 1.26288 0
M  V30 2300 H 216.253 -7.05086 3.16344 0
M  V30 2301 H 214.598 -6.34387 2.83863 0
M  V30 2302 H 217.789 -4.38301 1.64347 0
M  V30 2303 H 217.962 -5.97416 2.50993 0
M  V30 2304 N 211.368 -0.403325 -1.52352 0
M  V30 2305 C 212.617 0.175668 -2.00934 0
M  V30 2306 C 212.93 1.46718 -1.29356 0
M  V30 2307 O 214.136 2.12708 -1.68724 0
M  V30 2308 C 212.592 0.363612 -3.58058 0
M  V30 2309 C 212.2 -0.915472 -4.38547 0
M  V30 2310 C 213.944 0.89821 -4.14888 0
M  V30 2311 C 211.851 -0.695035 -5.87302 0
M  V30 2312 H 210.781 0.0694234 -0.750797 0
M  V30 2313 H 213.432 -0.527879 -1.75743 0
M  V30 2314 H 211.814 1.12935 -3.79555 0
M  V30 2315 H 212.988 -1.68691 -4.28812 0
M  V30 2316 H 211.303 -1.37606 -3.93006 0
M  V30 2317 H 213.9 1.07907 -5.23699 0
M  V30 2318 H 214.243 1.87126 -3.71873 0
M  V30 2319 H 214.776 0.191681 -3.97338 0
M  V30 2320 H 211.515 -1.63948 -6.34666 0
M  V30 2321 H 211.035 0.0372116 -5.99788 0
M  V30 2322 H 212.714 -0.33497 -6.46132 0
M  V30 2323 N 212.846 1.57033 -0.133567 0
M  V30 2324 C 213.809 2.14897 0.796995 0
M  V30 2325 C 214.809 1.0874 1.18458 0
M  V30 2326 O 215.999 1.34446 1.1077 0
M  V30 2327 C 213.131 2.70112 2.07973 0
M  V30 2328 H 214.324 2.98457 0.293873 0
M  V30 2329 H 211.877 1.55871 0.115787 0
M  V30 2330 H 212.612 1.9018 2.62682 0
M  V30 2331 H 212.397 3.47764 1.81115 0
M  V30 2332 H 213.887 3.14738 2.74462 0
M  V30 2333 N 214.325 -0.140222 1.56975 0
M  V30 2334 C 215.257 -1.19818 1.95388 0
M  V30 2335 C 216.27 -1.38816 0.850525 0
M  V30 2336 O 217.459 -1.38267 1.12891 0
M  V30 2337 C 214.559 -2.56189 2.21857 0
M  V30 2338 C 213.732 -2.58077 3.5315 0
M  V30 2339 C 212.791 -3.76037 3.6808 0
M  V30 2340 O 211.817 -3.60598 4.40406 0
M  V30 2341 N 213.019 -4.93763 3.05251 0
M  V30 2342 H 215.784 -0.871609 2.86746 0
M  V30 2343 H 213.345 -0.32972 1.58507 0
M  V30 2344 H 215.337 -3.33623 2.2908 0
M  V30 2345 H 213.907 -2.81111 1.36731 0
M  V30 2346 H 213.127 -1.6651 3.57307 0
M  V30 2347 H 214.415 -2.56377 4.39486 0
M  V30 2348 H 213.813 -5.09209 2.46419 0
M  V30 2349 H 212.37 -5.68949 3.18026 0
M  V30 2350 N 215.803 -1.52179 -0.40978 0
M  V30 2351 C 217.031 -1.70054 -1.17853 0
M  V30 2352 C 217.446 -0.409735 -1.843 0
M  V30 2353 O 216.803 0.614183 -1.71855 0
M  V30 2354 C 216.854 -2.83568 -2.24213 0
M  V30 2355 O 216.575 -4.0765 -1.60478 0
M  V30 2356 C 218.076 -3.12947 -3.13973 0
M  V30 2357 H 215.296 -0.569917 -0.354169 0
M  V30 2358 H 217.84 -1.98734 -0.482198 0
M  V30 2359 H 215.995 -2.57409 -2.89516 0
M  V30 2360 H 216.409 -4.70899 -2.30986 0
M  V30 2361 H 217.883 -3.95889 -3.84677 0
M  V30 2362 H 218.36 -2.26472 -3.76307 0
M  V30 2363 H 218.966 -3.40868 -2.5434 0
M  V30 2364 N 217.281 0.66697 -1.42791 0
M  V30 2365 C 218.211 1.79218 -1.49677 0
M  V30 2366 C 219.192 1.66405 -0.352623 0
M  V30 2367 O 220.377 1.85708 -0.567993 0
M  V30 2368 C 217.507 3.17565 -1.40605 0
M  V30 2369 C 216.461 3.45124 -2.53127 0
M  V30 2370 C 215.787 4.83127 -2.29112 0
M  V30 2371 C 217.087 3.41236 -3.95418 0
M  V30 2372 H 218.781 1.73713 -2.43853 0
M  V30 2373 H 216.327 0.83432 -1.17367 0
M  V30 2374 H 218.28 3.96022 -1.44029 0
M  V30 2375 H 217.004 3.23767 -0.429271 0
M  V30 2376 H 215.663 2.69031 -2.49034 0
M  V30 2377 H 215.311 4.85988 -1.29709 0
M  V30 2378 H 215.011 5.02528 -3.04531 0
M  V30 2379 H 216.535 5.63859 -2.34297 0
M  V30 2380 H 217.949 4.09651 -4.01073 0
M  V30 2381 H 216.346 3.72173 -4.70752 0
M  V30 2382 H 217.416 2.39665 -4.21532 0
M  V30 2383 N 218.759 1.29093 0.90403 0
M  V30 2384 C 219.689 1.16401 2.02418 0
M  V30 2385 C 220.67 0.0593085 1.69997 0
M  V30 2386 O 221.855 0.238021 1.92736 0
M  V30 2387 C 218.985 0.835233 3.37107 0
M  V30 2388 C 217.939 1.89578 3.83724 0
M  V30 2389 C 217.265 1.42041 5.15489 0
M  V30 2390 C 218.565 3.30394 4.04521 0
M  V30 2391 H 220.259 2.10109 2.13295 0
M  V30 2392 H 217.805 1.01157 1.02486 0
M  V30 2393 H 219.758 0.733169 4.14973 0
M  V30 2394 H 218.482 -0.137543 3.2631 0
M  V30 2395 H 217.141 1.98715 3.08071 0
M  V30 2396 H 216.789 0.436426 5.01103 0
M  V30 2397 H 216.489 2.12964 5.4765 0
M  V30 2398 H 218.013 1.33176 5.959 0
M  V30 2399 H 219.427 3.24123 4.72882 0
M  V30 2400 H 217.824 3.99237 4.48029 0
M  V30 2401 H 218.894 3.73692 3.09002 0
M  V30 2402 N 220.237 -1.11381 1.11499 0
M  V30 2403 C 221.185 -2.19522 0.768956 0
M  V30 2404 C 222.179 -1.67693 -0.239857 0
M  V30 2405 O 223.385 -1.79727 -0.0990755 0
M  V30 2406 H 219.76 -0.715711 0.230786 0
M  V30 2407 H 221.731 -2.45954 1.68964 0
M  V30 2408 C 220.48 -3.46945 0.229073 0
M  V30 2409 H 219.803 -3.8718 0.996596 0
M  V30 2410 H 221.243 -4.23993 0.0251441 0
M  V30 2411 C 219.702 -3.2042 -1.04079 0
M  V30 2412 O 220.232 -3.41178 -2.12038 0
M  V30 2413 N 218.438 -2.74151 -0.963823 0
M  V30 2414 H 217.985 -2.57459 -0.0851722 0
M  V30 2415 H 217.943 -2.56781 -1.81414 0
M  V30 2416 N 221.715 -0.905404 -1.28997 0
M  V30 2417 C 222.645 -0.404212 -2.29975 0
M  V30 2418 C 223.626 0.523784 -1.61835 0
M  V30 2419 O 224.811 0.433298 -1.89304 0
M  V30 2420 C 221.941 0.364042 -3.45387 0
M  V30 2421 C 220.895 -0.474048 -4.25367 0
M  V30 2422 C 220.221 0.422045 -5.33032 0
M  V30 2423 C 221.521 -1.72696 -4.92923 0
M  V30 2424 H 223.215 -1.24807 -2.72146 0
M  V30 2425 H 220.761 -0.601585 -1.30832 0
M  V30 2426 H 222.714 0.725447 -4.15109 0
M  V30 2427 H 221.438 1.24174 -3.02074 0
M  V30 2428 H 220.097 -0.81786 -3.57361 0
M  V30 2429 H 219.745 1.29804 -4.85963 0
M  V30 2430 H 219.445 -0.135057 -5.87445 0
M  V30 2431 H 220.969 0.779517 -6.05604 0
M  V30 2432 H 222.383 -1.43495 -5.55051 0
M  V30 2433 H 220.78 -2.22582 -5.57295 0
M  V30 2434 H 221.85 -2.45964 -4.17887 0
M  V30 2435 N 223.193 1.4272 -0.668489 0
M  V30 2436 C 224.156 2.292 0.00448567 0
M  V30 2437 C 225.156 1.43001 0.735339 0
M  V30 2438 O 226.346 1.64461 0.57429 0
M  V30 2439 C 223.478 3.25375 1.01705 0
M  V30 2440 H 224.671 2.90199 -0.756608 0
M  V30 2441 H 222.224 1.50254 -0.430506 0
M  V30 2442 H 222.959 2.69301 1.80686 0
M  V30 2443 H 222.744 3.88944 0.496463 0
M  V30 2444 H 224.234 3.90245 1.48655 0
M  V30 2445 N 224.671 0.411399 1.52136 0
M  V30 2446 C 225.618 -0.412975 2.27075 0
M  V30 2447 C 226.588 -1.03912 1.29582 0
M  V30 2448 O 227.773 -1.06296 1.58448 0
M  V30 2449 C 224.913 -1.52247 3.09701 0
M  V30 2450 C 224.026 -0.917021 4.22155 0
M  V30 2451 C 223.161 -1.9994 4.92135 0
M  V30 2452 C 222.2 -1.37101 5.96548 0
M  V30 2453 N 221.337 -2.39364 6.60038 0
M  V30 2454 H 226.177 0.232499 2.97092 0
M  V30 2455 H 223.714 0.126496 1.46555 0
M  V30 2456 H 225.672 -2.17674 3.55913 0
M  V30 2457 H 224.302 -2.13794 2.41851 0
M  V30 2458 H 223.354 -0.151742 3.80097 0
M  V30 2459 H 224.666 -0.418006 4.97045 0
M  V30 2460 H 223.82 -2.73088 5.41763 0
M  V30 2461 H 222.559 -2.53208 4.16818 0
M  V30 2462 H 221.564 -0.624873 5.46237 0
M  V30 2463 H 222.789 -0.845998 6.7381 0
M  V30 2464 H 220.735 -2.91759 5.87548 0
M  V30 2465 H 220.652 -1.9428 7.3061 0
M  V30 2466 H 221.92 -3.12074 7.14304 0
M  V30 2467 N 226.149 -1.5696 0.141893 0
M  V30 2468 C 227.081 -2.13619 -0.830627 0
M  V30 2469 C 228.094 -1.08439 -1.21428 0
M  V30 2470 O 229.283 -1.35734 -1.15925 0
M  V30 2471 C 226.383 -2.63978 -2.12529 0
M  V30 2472 C 225.556 -3.93504 -1.9098 0
M  V30 2473 C 224.615 -4.29225 -3.04388 0
M  V30 2474 O 223.641 -4.97641 -2.76302 0
M  V30 2475 N 224.843 -3.88393 -4.31429 0
M  V30 2476 H 227.608 -2.97691 -0.34641 0
M  V30 2477 H 225.169 -1.61846 -0.0418375 0
M  V30 2478 H 227.161 -2.84891 -2.87436 0
M  V30 2479 H 225.731 -1.84659 -2.52229 0
M  V30 2480 H 224.951 -3.81269 -1.00139 0
M  V30 2481 H 226.239 -4.78154 -1.73914 0
M  V30 2482 H 225.637 -3.33257 -4.57117 0
M  V30 2483 H 224.194 -4.14368 -5.03133 0
M  V30 2484 N 227.627 0.131896 -1.57047 0
M  V30 2485 C 229.038 0.690407 -1.73465 0
M  V30 2486 C 229.389 1.8094 -0.758629 0
M  V30 2487 O 228.514 2.16282 0.0713813 0
M  V30 2488 C 229.109 1.25916 -3.14532 0
M  V30 2489 C 227.668 1.76409 -3.32501 0
M  V30 2490 C 226.815 0.658579 -2.69366 0
M  V30 2491 H 229.766 -0.0939144 -1.58422 0
M  V30 2492 H 229.787 2.12892 -3.15369 0
M  V30 2493 H 229.299 0.444515 -3.85546 0
M  V30 2494 H 227.4 2.60391 -2.66509 0
M  V30 2495 H 227.513 1.88241 -4.4057 0
M  V30 2496 H 225.877 1.08899 -2.30246 0
M  V30 2497 H 226.66 -0.14487 -3.42994 0
M  V30 2498 N 229.106 1.52395 0.401703 0
M  V30 2499 C 230.383 1.57387 1.16141 0
M  V30 2500 C 230.763 0.359359 2.08019 0
M  V30 2501 O 230.111 -0.65326 2.18963 0
M  V30 2502 C 230.321 2.90631 1.93221 0
M  V30 2503 C 231.669 3.43904 2.49028 0
M  V30 2504 O 232.693 2.92421 2.03393 0
M  V30 2505 O 231.552 4.33823 3.32356 0
M  V30 2506 H 228.646 0.634262 0.530698 0
M  V30 2507 H 231.192 1.64725 0.407883 0
M  V30 2508 H 229.964 3.70473 1.25958 0
M  V30 2509 H 229.587 2.8662 2.75563 0
M  V30 2510 N 230.584 -0.659388 1.43143 0
M  V30 2511 C 231.547 -1.75432 1.47501 0
M  V30 2512 C 232.547 -1.56707 0.360512 0
M  V30 2513 O 233.737 -1.62717 0.622002 0
M  V30 2514 C 230.869 -3.14239 1.32162 0
M  V30 2515 H 232.062 -1.7295 2.45006 0
M  V30 2516 H 229.615 -0.870469 1.29817 0
M  V30 2517 H 230.35 -3.22336 0.356401 0
M  V30 2518 H 230.135 -3.29235 2.12948 0
M  V30 2519 H 231.625 -3.94094 1.3813 0
M  V30 2520 N 232.062 -1.29571 -0.897171 0
M  V30 2521 C 232.995 -1.0924 -2.00354 0
M  V30 2522 C 233.973 -0.00354011 -1.626 0
M  V30 2523 O 235.157 -0.15473 -1.87864 0
M  V30 2524 C 232.284 -0.66352 -3.32137 0
M  V30 2525 C 231.33 -1.75146 -3.88878 0
M  V30 2526 S 232.163 -3.35124 -4.17674 0
M  V30 2527 C 233.319 -2.9411 -5.52494 0
M  V30 2528 H 233.552 -2.02907 -2.17292 0
M  V30 2529 H 231.085 -1.13746 -1.04408 0
M  V30 2530 H 233.043 -0.422791 -4.08317 0
M  V30 2531 H 231.704 0.253588 -3.13075 0
M  V30 2532 H 230.897 -1.40337 -4.84068 0
M  V30 2533 H 230.499 -1.94584 -3.19395 0
M  V30 2534 H 232.791 -2.41312 -6.33068 0
M  V30 2535 H 233.734 -3.88161 -5.9223 0
M  V30 2536 H 234.142 -2.32332 -5.14473 0
M  V30 2537 N 233.54 1.10788 -1.12088 0
M  V30 2538 C 234.768 1.86461 -0.896651 0
M  V30 2539 C 235.183 1.80492 0.553912 0
M  V30 2540 O 234.54 1.19102 1.38278 0
M  V30 2541 C 234.591 3.35006 -1.35843 0
M  V30 2542 O 234.312 3.40866 -2.75213 0
M  V30 2543 C 235.813 4.27565 -1.1706 0
M  V30 2544 H 233.033 0.589425 -0.320654 0
M  V30 2545 H 235.577 1.40076 -1.48993 0
M  V30 2546 H 233.732 3.7887 -0.808458 0
M  V30 2547 H 234.146 4.33411 -2.9539 0
M  V30 2548 H 235.62 5.30007 -1.54263 0
M  V30 2549 H 236.097 4.3906 -0.110814 0
M  V30 2550 H 236.703 3.89501 -1.70789 0
M  V30 2551 N 235.018 0.912232 1.28515 0
M  V30 2552 C 235.968 0.370649 2.24967 0
M  V30 2553 C 236.952 -0.516375 1.52389 0
M  V30 2554 O 238.144 -0.356345 1.73376 0
M  V30 2555 C 235.273 -0.389526 3.41083 0
M  V30 2556 C 234.359 0.51313 4.20984 0
M  V30 2557 N 234.75 1.62604 4.78951 0
M  V30 2558 C 233.048 0.313235 4.44899 0
M  V30 2559 C 233.749 2.18619 5.39055 0
M  V30 2560 N 232.725 1.47765 5.23132 0
M  V30 2561 H 236.527 1.22061 2.67354 0
M  V30 2562 H 234.041 0.764712 1.43269 0
M  V30 2563 H 236.038 -0.794353 4.09262 0
M  V30 2564 H 234.698 -1.2366 3.0023 0
M  V30 2565 H 235.709 2.00864 4.77362 0
M  V30 2566 H 232.386 -0.494452 4.14562 0
M  V30 2567 H 233.776 3.12228 5.94948 0
M  V30 2568 N 236.496 -1.42363 0.676048 0
M  V30 2569 C 237.907 -1.84649 0.275948 0
M  V30 2570 C 238.258 -1.56588 -1.18214 0
M  V30 2571 O 237.383 -1.02634 -1.90513 0
M  V30 2572 C 237.978 -3.35178 0.494053 0
M  V30 2573 C 236.537 -3.76109 0.148061 0
M  V30 2574 C 235.684 -2.65931 0.785891 0
M  V30 2575 H 238.635 -1.32192 0.878121 0
M  V30 2576 H 238.656 -3.79655 -0.25343 0
M  V30 2577 H 238.168 -3.55571 1.55535 0
M  V30 2578 H 236.269 -3.61323 -0.909742 0
M  V30 2579 H 236.382 -4.7546 0.589454 0
M  V30 2580 H 234.746 -2.53773 0.217113 0
M  V30 2581 H 235.529 -2.89146 1.85067 0
M  V30 2582 N 237.974 -0.419461 -1.51915 0
M  V30 2583 C 239.251 0.211999 -1.94448 0
M  V30 2584 C 239.631 1.61703 -1.35703 0
M  V30 2585 O 238.979 2.22102 -0.536931 0
M  V30 2586 C 239.189 0.207872 -3.4838 0
M  V30 2587 C 240.537 0.422192 -4.22496 0
M  V30 2588 O 241.561 0.286778 -3.55044 0
M  V30 2589 O 240.42 0.690009 -5.42126 0
M  V30 2590 H 237.514 0.139586 -0.815135 0
M  V30 2591 H 240.06 -0.476151 -1.62883 0
M  V30 2592 H 238.832 -0.775102 -3.83546 0
M  V30 2593 H 238.455 0.939688 -3.86336 0
M  V30 2594 N 239.452 1.56882 -0.150215 0
M  V30 2595 C 240.7 1.9584 0.499105 0
M  V30 2596 C 241.021 1.03623 1.65188 0
M  V30 2597 O 240.291 0.0984084 1.95653 0
M  V30 2598 H 238.871 0.723119 0.187373 0
M  V30 2599 H 241.533 1.9358 -0.226466 0
M  V30 2600 H 240.629 2.99638 0.873122 0
M  V30 2601 N 240.93 -0.123565 1.57115 0
M  V30 2602 C 241.863 -1.18202 1.95201 0
M  V30 2603 C 242.841 -1.40349 0.821031 0
M  V30 2604 O 244.025 -1.54578 1.07879 0
M  V30 2605 C 241.152 -2.53671 2.24429 0
M  V30 2606 C 240.198 -2.4798 3.46999 0
M  V30 2607 S 241.031 -1.92389 4.99747 0
M  V30 2608 C 242.187 -3.2954 5.32123 0
M  V30 2609 H 242.42 -0.857212 2.84674 0
M  V30 2610 H 239.953 -0.33014 1.50829 0
M  V30 2611 H 241.911 -3.3162 2.41947 0
M  V30 2612 H 240.572 -2.83332 1.35579 0
M  V30 2613 H 239.765 -3.47758 3.64801 0
M  V30 2614 H 239.367 -1.7815 3.28844 0
M  V30 2615 H 241.659 -4.25736 5.27025 0
M  V30 2616 H 242.602 -3.16569 6.33395 0
M  V30 2617 H 243.01 -3.27758 4.59603 0
M  V30 2618 N 242.408 -1.52605 -0.393616 0
M  V30 2619 C 243.34 -1.73303 -1.49995 0
M  V30 2620 C 244.353 -0.613473 -1.50799 0
M  V30 2621 O 245.542 -0.889049 -1.54784 0
M  V30 2622 C 242.642 -1.77245 -2.88855 0
M  V30 2623 C 241.815 -3.06483 -3.12069 0
M  V30 2624 C 240.874 -3.02033 -4.30886 0
M  V30 2625 O 239.9 -3.75907 -4.27414 0
M  V30 2626 N 241.102 -2.20897 -5.36828 0
M  V30 2627 H 243.867 -2.68756 -1.32629 0
M  V30 2628 H 241.428 -1.51036 -0.583083 0
M  V30 2629 H 243.42 -1.7178 -3.66434 0
M  V30 2630 H 241.99 -0.891993 -2.99603 0
M  V30 2631 H 241.21 -3.25474 -2.22396 0
M  V30 2632 H 242.498 -3.91947 -3.2443 0
M  V30 2633 H 241.896 -1.60336 -5.42502 0
M  V30 2634 H 240.453 -2.21275 -6.13091 0
M  V30 2635 N 243.887 0.651787 -1.4349 0
M  V30 2636 C 245.136 1.40754 -1.44469 0
M  V30 2637 C 245.449 1.95463 -0.0731845 0
M  V30 2638 O 246.655 2.71471 0.0395721 0
M  V30 2639 C 245.111 2.54735 -2.5424 0
M  V30 2640 C 244.719 2.06628 -3.97504 0
M  V30 2641 C 246.463 3.32092 -2.64414 0
M  V30 2642 C 244.37 3.17829 -4.98737 0
M  V30 2643 H 243.3 0.528862 -0.53742 0
M  V30 2644 H 245.951 0.703365 -1.69485 0
M  V30 2645 H 244.333 3.2763 -2.22428 0
M  V30 2646 H 245.507 1.40734 -4.38783 0
M  V30 2647 H 243.822 1.42146 -3.91387 0
M  V30 2648 H 246.419 4.14952 -3.37223 0
M  V30 2649 H 246.762 3.80217 -1.69532 0
M  V30 2650 H 247.295 2.66279 -2.95534 0
M  V30 2651 H 244.034 2.74671 -5.95177 0
M  V30 2652 H 243.554 3.82429 -4.62069 0
M  V30 2653 H 245.233 3.82937 -5.21505 0
M  V30 2654 N 245.365 1.30045 0.890287 0
M  V30 2655 C 246.312 1.15976 1.99545 0
M  V30 2656 C 247.282 0.0506202 1.66023 0
M  V30 2657 O 248.467 0.219847 1.89529 0
M  V30 2658 C 245.607 0.852054 3.34416 0
M  V30 2659 C 244.72 2.04255 3.80662 0
M  V30 2660 C 243.855 1.6734 5.04154 0
M  V30 2661 C 242.894 2.82916 5.42794 0
M  V30 2662 N 242.031 2.46333 6.57468 0
M  V30 2663 H 246.871 2.10524 2.10911 0
M  V30 2664 H 244.408 1.04749 1.03276 0
M  V30 2665 H 246.366 0.654296 4.12037 0
M  V30 2666 H 244.996 -0.0565502 3.2275 0
M  V30 2667 H 244.048 2.35172 2.98995 0
M  V30 2668 H 245.36 2.90826 4.05242 0
M  V30 2669 H 244.514 1.43908 5.89386 0
M  V30 2670 H 243.253 0.779308 4.81433 0
M  V30 2671 H 242.258 3.0702 4.56091 0
M  V30 2672 H 243.483 3.73004 5.6749 0
M  V30 2673 H 241.429 1.59423 6.36334 0
M  V30 2674 H 241.346 3.26436 6.81891 0
M  V30 2675 H 242.614 2.26244 7.45945 0
M  V30 2676 N 246.843 -1.10192 1.12674 0
M  V30 2677 C 248.092 -1.81573 0.8783 0
M  V30 2678 C 248.405 -1.86249 -0.597557 0
M  V30 2679 O 249.611 -2.5386 -0.962681 0
M  V30 2680 C 248.067 -3.26149 1.52167 0
M  V30 2681 C 247.675 -3.29763 3.03249 0
M  V30 2682 C 249.419 -4.0234 1.3536 0
M  V30 2683 C 247.326 -4.68815 3.60508 0
M  V30 2684 H 246.256 -0.680394 0.324931 0
M  V30 2685 H 248.907 -1.23902 1.35353 0
M  V30 2686 H 247.289 -3.83832 0.974104 0
M  V30 2687 H 248.463 -2.8189 3.6452 0
M  V30 2688 H 246.778 -2.67059 3.19481 0
M  V30 2689 H 249.375 -5.05058 1.75559 0
M  V30 2690 H 249.718 -4.15235 0.297554 0
M  V30 2691 H 250.251 -3.51079 1.87052 0
M  V30 2692 H 246.99 -4.61121 4.65884 0
M  V30 2693 H 246.51 -5.17045 3.04014 0
M  V30 2694 H 248.189 -5.37785 3.59717 0
M  V30 2695 N 248.321 -0.919034 -1.28029 0
M  V30 2696 C 249.549 -0.570971 -1.98866 0
M  V30 2697 C 249.964 0.848996 -1.68634 0
M  V30 2698 O 249.321 1.56307 -0.942036 0
M  V30 2699 C 249.372 -0.776876 -3.53054 0
M  V30 2700 O 249.093 -2.14097 -3.82222 0
M  V30 2701 C 250.594 -0.436356 -4.41147 0
M  V30 2702 H 247.814 -0.217175 -0.634883 0
M  V30 2703 H 250.358 -1.23368 -1.63097 0
M  V30 2704 H 248.513 -0.161085 -3.87065 0
M  V30 2705 H 248.927 -2.18455 -4.76841 0
M  V30 2706 H 250.401 -0.63117 -5.4838 0
M  V30 2707 H 250.878 0.627686 -4.34692 0
M  V30 2708 H 251.484 -1.02991 -4.12641 0
M  V30 2709 N 249.799 1.42003 -0.683588 0
M  V30 2710 C 251.215 1.55625 -0.353976 0
M  V30 2711 C 251.415 1.66151 1.14 0
M  V30 2712 O 250.471 1.63329 1.92561 0
M  V30 2713 C 251.784 2.80171 -1.092 0
M  V30 2714 C 253.332 2.93954 -1.07518 0
M  V30 2715 C 253.807 4.21372 -1.79471 0
M  V30 2716 N 255.298 4.28303 -1.76381 0
M  V30 2717 C 256.033 5.25729 -2.28904 0
M  V30 2718 N 255.529 6.29254 -2.89846 0
M  V30 2719 N 257.322 5.17586 -2.19228 0
M  V30 2720 H 249.473 1.33415 -1.6527 0
M  V30 2721 H 251.736 0.64282 -0.696769 0
M  V30 2722 H 251.442 2.78561 -2.14701 0
M  V30 2723 H 251.316 3.7133 -0.662862 0
M  V30 2724 H 253.703 2.95086 -0.028475 0
M  V30 2725 H 253.784 2.04002 -1.54328 0
M  V30 2726 H 253.428 4.21001 -2.84114 0
M  V30 2727 H 253.358 5.10275 -1.30104 0
M  V30 2728 H 255.849 3.54119 -1.31939 0
M  V30 2729 H 256.162 6.99964 -3.27522 0
M  V30 2730 H 254.507 6.29791 -2.93919 0
M  V30 2731 H 257.698 4.35631 -1.71299 0
M  V30 2732 H 257.871 5.93348 -2.60466 0
M  V30 2733 N 251.277 0.427512 1.51691 0
M  V30 2734 C 252.209 -0.424521 2.25234 0
M  V30 2735 C 253.222 -0.994671 1.2888 0
M  V30 2736 O 254.411 -0.890483 1.54702 0
M  V30 2737 C 251.511 -1.60479 2.98496 0
M  V30 2738 C 250.684 -1.15527 4.21868 0
M  V30 2739 C 249.743 -2.20454 4.77793 0
M  V30 2740 O 248.769 -1.8029 5.39893 0
M  V30 2741 N 249.971 -3.52831 4.60967 0
M  V30 2742 H 252.736 0.205749 2.98993 0
M  V30 2743 H 250.297 0.255867 1.59865 0
M  V30 2744 H 252.289 -2.30276 3.32799 0
M  V30 2745 H 250.859 -2.14061 2.27809 0
M  V30 2746 H 250.079 -0.284736 3.9317 0
M  V30 2747 H 251.367 -0.832173 5.01949 0
M  V30 2748 H 250.765 -3.88201 4.11481 0
M  V30 2749 H 249.322 -4.18551 4.99658 0
M  V30 2750 N 252.755 -1.56801 0.158532 0
M  V30 2751 C 253.665 -2.20916 -0.789518 0
M  V30 2752 C 254.681 -1.1969 -1.26294 0
M  V30 2753 O 255.857 -1.52308 -1.31773 0
M  V30 2754 C 252.922 -2.82727 -2.00665 0
M  V30 2755 C 251.983 -3.99114 -1.58134 0
M  V30 2756 C 251.216 -4.57968 -2.74045 0
M  V30 2757 O 251.439 -4.15704 -3.90572 0
M  V30 2758 O 250.373 -5.48047 -2.48855 0
M  V30 2759 H 254.199 -3.02464 -0.273681 0
M  V30 2760 H 251.784 -1.4924 -0.0690548 0
M  V30 2761 H 253.666 -3.21968 -2.71872 0
M  V30 2762 H 252.341 -2.04184 -2.51179 0
M  V30 2763 H 251.248 -3.64567 -0.839155 0
M  V30 2764 H 252.581 -4.79212 -1.12325 0
M  V30 2765 N 254.233 0.115231 -1.57178 0
M  V30 2766 C 255.482 0.820945 -1.84237 0
M  V30 2767 C 255.795 1.80866 -0.744761 0
M  V30 2768 O 257.001 2.56083 -0.901871 0
M  V30 2769 C 255.457 1.51072 -3.26658 0
M  V30 2770 C 255.065 0.563795 -4.44438 0
M  V30 2771 C 256.809 2.20134 -3.62962 0
M  V30 2772 C 254.716 1.25701 -5.77887 0
M  V30 2773 H 253.646 0.310328 -0.687177 0
M  V30 2774 H 256.297 0.0737134 -1.83352 0
M  V30 2775 H 254.679 2.30471 -3.22024 0
M  V30 2776 H 255.853 -0.197247 -4.60378 0
M  V30 2777 H 254.168 -0.0200638 -4.16395 0
M  V30 2778 H 256.765 2.72696 -4.59936 0
M  V30 2779 H 257.108 2.98107 -2.90582 0
M  V30 2780 H 257.641 1.47619 -3.69396 0
M  V30 2781 H 254.38 0.518493 -6.53446 0
M  V30 2782 H 253.9 1.98997 -5.65827 0
M  V30 2783 H 255.579 1.78915 -6.2177 0
M  V30 2784 N 255.711 1.52812 0.385517 0
M  V30 2785 C 256.959 1.67694 1.12797 0
M  V30 2786 C 257.28 0.421115 1.90399 0
M  V30 2787 O 256.55 -0.564551 1.87589 0
M  V30 2788 H 255.13 0.618155 0.419396 0
M  V30 2789 H 257.792 1.89938 0.436972 0
M  V30 2790 H 256.888 2.52896 1.82894 0
M  V30 2791 N 257.189 -0.644168 1.43834 0
M  V30 2792 C 258.121 -1.76955 1.45669 0
M  V30 2793 C 259.134 -1.58956 0.351666 0
M  V30 2794 O 260.323 -1.6751 0.616644 0
M  V30 2795 C 257.423 -3.14507 1.26248 0
M  V30 2796 C 256.596 -3.59083 2.49757 0
M  V30 2797 C 255.655 -4.75467 2.25427 0
M  V30 2798 O 254.681 -4.84444 2.98836 0
M  V30 2799 N 255.883 -5.66289 1.27661 0
M  V30 2800 H 258.648 -1.75856 2.42682 0
M  V30 2801 H 256.209 -0.828312 1.39106 0
M  V30 2802 H 258.201 -3.90067 1.0784 0
M  V30 2803 H 256.771 -3.10325 0.376478 0
M  V30 2804 H 255.991 -2.7387 2.8353 0
M  V30 2805 H 257.279 -3.85613 3.31934 0
M  V30 2806 H 256.677 -5.61718 0.670064 0
M  V30 2807 H 255.234 -6.41533 1.15234 0
M  V30 2808 N 258.668 -1.30515 -0.883378 0
M  V30 2809 C 259.917 -1.18795 -1.63005 0
M  V30 2810 C 260.23 0.255923 -1.93919 0
M  V30 2811 O 261.436 0.494654 -2.66956 0
M  V30 2812 C 259.892 -2.07878 -2.93794 0
M  V30 2813 C 259.5 -3.57184 -2.70414 0
M  V30 2814 C 261.244 -2.04924 -3.71761 0
M  V30 2815 C 259.151 -4.38317 -3.97029 0
M  V30 2816 H 258.081 -0.441031 -0.611562 0
M  V30 2817 H 260.732 -1.55275 -0.977854 0
M  V30 2818 H 259.114 -1.64283 -3.60315 0
M  V30 2819 H 260.288 -4.08937 -2.12384 0
M  V30 2820 H 258.603 -3.61976 -2.0582 0
M  V30 2821 H 261.2 -2.62792 -4.65665 0
M  V30 2822 H 261.543 -1.0331 -4.03277 0
M  V30 2823 H 262.076 -2.46649 -3.12104 0
M  V30 2824 H 258.815 -5.40632 -3.70671 0
M  V30 2825 H 258.335 -3.91326 -4.54559 0
M  V30 2826 H 260.014 -4.49834 -4.65036 0
M  V30 2827 N 260.146 1.09593 -1.13257 0
M  V30 2828 C 261.392 1.82003 -0.89458 0
M  V30 2829 C 261.725 1.85402 0.577906 0
M  V30 2830 O 261 1.32099 1.42759 0
M  V30 2831 C 261.283 3.28237 -1.48096 0
M  V30 2832 C 261.136 3.3312 -3.02244 0
M  V30 2833 C 262.455 4.24871 -1.14774 0
M  V30 2834 H 259.574 0.66077 -0.326424 0
M  V30 2835 H 262.216 1.28389 -1.40058 0
M  V30 2836 H 260.366 3.74024 -1.05062 0
M  V30 2837 H 262.038 2.95748 -3.54021 0
M  V30 2838 H 260.281 2.72756 -3.37323 0
M  V30 2839 H 260.952 4.3613 -3.38371 0
M  V30 2840 H 263.428 3.87361 -1.51957 0
M  V30 2841 H 262.304 5.25532 -1.58452 0
M  V30 2842 H 262.565 4.42058 -0.0611849 0
M  V30 2843 N 261.624 0.925811 1.2754 0
M  V30 2844 C 262.872 0.564138 1.94067 0
M  V30 2845 C 263.193 -0.897188 1.73134 0
M  V30 2846 O 262.463 -1.63573 1.07799 0
M  V30 2847 H 261.043 0.205645 0.718136 0
M  V30 2848 H 263.705 1.1778 1.55287 0
M  V30 2849 H 262.801 0.76881 3.02483 0
M  V30 2850 N 263.102 -1.41638 0.69111 0
M  V30 2851 C 264.342 -2.03166 0.224291 0
M  V30 2852 C 264.706 -1.53537 -1.15284 0
M  V30 2853 O 265.907 -2.0696 -1.71525 0
M  V30 2854 C 264.178 -3.56342 0.274758 0
M  V30 2855 S 265.737 -4.3864 -0.118669 0
M  V30 2856 H 262.555 -0.705188 0.0907263 0
M  V30 2857 H 265.157 -1.7314 0.907895 0
M  V30 2858 H 263.861 -3.89958 1.2791 0
M  V30 2859 H 263.392 -3.91063 -0.428142 0
M  V30 2860 H 265.407 -4.77549 -1.34764 0
M  V30 2861 N 264.58 -0.43555 -1.51462 0
M  V30 2862 C 265.805 0.132627 -2.06976 0
M  V30 2863 C 266.23 1.35848 -1.30104 0
M  V30 2864 O 265.588 1.78112 -0.338493 0
M  V30 2865 C 265.636 0.43523 -3.57964 0
M  V30 2866 O 264.74 1.52198 -3.83288 0
M  V30 2867 H 264.081 0.00265 -0.663995 0
M  V30 2868 H 266.611 -0.616369 -1.95095 0
M  V30 2869 H 266.621 0.686206 -4.02188 0
M  V30 2870 H 265.296 -0.460739 -4.1334 0
M  V30 2871 H 263.873 1.2611 -3.50928 0
M  V30 2872 N 266.058 1.56714 -0.166846 0
M  V30 2873 C 267.474 1.58473 0.189372 0
M  V30 2874 C 267.674 1.18201 1.63189 0
M  V30 2875 O 266.73 0.891528 2.36237 0
M  V30 2876 C 268.043 3.00573 -0.0873872 0
M  V30 2877 C 269.591 3.1299 -0.0252443 0
M  V30 2878 C 270.066 4.57174 -0.274934 0
M  V30 2879 N 271.557 4.62665 -0.222553 0
M  V30 2880 C 272.292 5.72072 -0.389985 0
M  V30 2881 N 271.788 6.90054 -0.616229 0
M  V30 2882 N 273.581 5.61153 -0.326202 0
M  V30 2883 H 265.732 1.8118 -1.10849 0
M  V30 2884 H 267.995 0.839525 -0.440342 0
M  V30 2885 H 267.701 3.34497 -1.0865 0
M  V30 2886 H 267.575 3.72019 0.623037 0
M  V30 2887 H 269.962 2.78895 0.96444 0
M  V30 2888 H 270.043 2.43989 -0.768309 0
M  V30 2889 H 269.687 4.91976 -1.26181 0
M  V30 2890 H 269.617 5.24328 0.48869 0
M  V30 2891 H 272.108 3.77863 -0.0531512 0
M  V30 2892 H 272.421 7.69311 -0.733559 0
M  V30 2893 H 270.766 6.91927 -0.652791 0
M  V30 2894 H 273.957 4.67859 -0.150072 0
M  V30 2895 H 274.13 6.46364 -0.460116 0
M  V30 2896 N 267.536 -0.106894 1.57237 0
M  V30 2897 C 268.446 -1.14911 2.0453 0
M  V30 2898 C 269.462 -1.44592 0.96795 0
M  V30 2899 O 270.638 -1.55468 1.2803 0
M  V30 2900 C 267.703 -2.45272 2.45036 0
M  V30 2901 C 266.764 -2.22879 3.66911 0
M  V30 2902 C 265.997 -3.47024 4.05475 0
M  V30 2903 O 266.22 -4.54804 3.44252 0
M  V30 2904 O 265.154 -3.3731 4.98504 0
M  V30 2905 H 268.98 -0.777461 2.9358 0
M  V30 2906 H 266.565 -0.318563 1.45964 0
M  V30 2907 H 268.447 -3.22055 2.71769 0
M  V30 2908 H 267.122 -2.81886 1.59129 0
M  V30 2909 H 266.029 -1.43915 3.45311 0
M  V30 2910 H 267.362 -1.91163 4.53561 0
M  V30 2911 N 269.014 -1.53014 -0.377408 0
M  V30 2912 C 270.242 -1.72515 -1.14219 0
M  V30 2913 C 270.657 -0.448735 -1.8339 0
M  V30 2914 O 270.014 0.577592 -1.73119 0
M  V30 2915 C 270.065 -2.8826 -2.18148 0
M  V30 2916 O 269.786 -4.10962 -1.51795 0
M  V30 2917 C 271.287 -3.19536 -3.07264 0
M  V30 2918 H 268.507 -0.577301 -0.342001 0
M  V30 2919 H 271.051 -1.99712 -0.439935 0
M  V30 2920 H 269.206 -2.63492 -2.83991 0
M  V30 2921 H 269.62 -4.75693 -2.20945 0
M  V30 2922 H 271.094 -4.03959 -3.76193 0
M  V30 2923 H 271.571 -2.34403 -3.71419 0
M  V30 2924 H 272.177 -3.46186 -2.47053 0
M  V30 2925 N 270.492 0.636531 -1.44174 0
M  V30 2926 C 271.738 1.39826 -1.4689 0
M  V30 2927 C 272.071 1.93947 -0.0990585 0
M  V30 2928 O 271.346 1.73325 0.882544 0
M  V30 2929 C 271.629 2.56751 -2.5249 0
M  V30 2930 C 271.482 2.08014 -3.98811 0
M  V30 2931 C 272.801 3.58946 -2.54649 0
M  V30 2932 H 269.92 0.507075 -0.53483 0
M  V30 2933 H 272.562 0.720188 -1.75822 0
M  V30 2934 H 270.712 3.14597 -2.2795 0
M  V30 2935 H 272.384 1.5504 -4.34466 0
M  V30 2936 H 270.627 1.39242 -4.10846 0
M  V30 2937 H 271.298 2.92169 -4.68339 0
M  V30 2938 H 273.774 3.1089 -2.76563 0
M  V30 2939 H 272.65 4.38286 -3.3045 0
M  V30 2940 H 272.911 4.12655 -1.58646 0
M  V30 2941 N 271.97 1.30982 0.876444 0
M  V30 2942 C 273.218 1.20058 1.62575 0
M  V30 2943 C 273.539 -0.242947 1.93481 0
M  V30 2944 O 272.809 -1.1619 1.57724 0
M  V30 2945 H 271.389 0.44135 0.602677 0
M  V30 2946 H 274.051 1.64222 1.04962 0
M  V30 2947 H 273.147 1.76762 2.57219 0
M  V30 2948 N 273.449 -1.08991 1.13837 0
M  V30 2949 C 274.865 -1.33312 0.877506 0
M  V30 2950 C 275.065 -1.95587 -0.48456 0
M  V30 2951 O 274.121 -2.20509 -1.23013 0
M  V30 2952 C 275.434 -2.24045 2.0056 0
M  V30 2953 C 276.982 -2.37542 2.03821 0
M  V30 2954 C 277.457 -3.31614 3.15905 0
M  V30 2955 N 278.948 -3.39189 3.15445 0
M  V30 2956 C 279.683 -4.11992 3.98811 0
M  V30 2957 N 279.179 -4.87553 4.92203 0
M  V30 2958 N 280.972 -4.07762 3.86894 0
M  V30 2959 H 273.123 -0.669456 2.01574 0
M  V30 2960 H 275.386 -0.357482 0.878015 0
M  V30 2961 H 275.092 -1.85521 2.98789 0
M  V30 2962 H 274.966 -3.24466 1.92359 0
M  V30 2963 H 277.353 -2.75327 1.06202 0
M  V30 2964 H 277.434 -1.36884 2.16093 0
M  V30 2965 H 277.078 -2.94551 4.13766 0
M  V30 2966 H 277.008 -4.32186 3.0087 0
M  V30 2967 H 279.499 -2.85314 2.47799 0
M  V30 2968 H 279.812 -5.40549 5.52292 0
M  V30 2969 H 278.157 -4.86627 4.96205 0
M  V30 2970 H 281.348 -3.47833 3.13257 0
M  V30 2971 H 281.521 -4.64238 4.52092 0
M  V30 2972 N 274.927 -0.932562 -1.27047 0
M  V30 2973 C 276.176 -0.571351 -1.93439 0
M  V30 2974 C 276.489 0.892467 -1.74053 0
M  V30 2975 O 277.695 1.36267 -2.34826 0
M  V30 2976 C 276.151 -0.97106 -3.46552 0
M  V30 2977 C 275.759 -2.4559 -3.74686 0
M  V30 2978 C 277.503 -0.681333 -4.18997 0
M  V30 2979 C 275.41 -2.79475 -5.21198 0
M  V30 2980 H 274.34 -0.209966 -0.724176 0
M  V30 2981 H 276.991 -1.13403 -1.44263 0
M  V30 2982 H 275.373 -0.336983 -3.94564 0
M  V30 2983 H 276.547 -3.13829 -3.37414 0
M  V30 2984 H 274.862 -2.71802 -3.15456 0
M  V30 2985 H 277.459 -0.910939 -5.26883 0
M  V30 2986 H 277.802 0.381628 -4.14547 0
M  V30 2987 H 278.335 -1.27473 -3.76823 0
M  V30 2988 H 275.074 -3.847 -5.30741 0
M  V30 2989 H 274.594 -2.1589 -5.596 0
M  V30 2990 H 276.273 -2.67478 -5.89122 0
M  V30 2991 N 276.405 1.4127 -0.698611 0
M  V30 2992 C 277.335 2.33447 -0.049629 0
M  V30 2993 C 278.316 1.51982 0.763898 0
M  V30 2994 O 279.501 1.80509 0.716257 0
M  V30 2995 C 276.631 3.35828 0.885267 0
M  V30 2996 C 275.585 4.27627 0.178613 0
M  V30 2997 C 274.911 5.20406 1.22807 0
M  V30 2998 C 276.211 5.13459 -0.956933 0
M  V30 2999 H 277.905 2.87966 -0.81951 0
M  V30 3000 H 275.451 1.38461 -0.395538 0
M  V30 3001 H 277.404 3.9924 1.34854 0
M  V30 3002 H 276.128 2.79666 1.68685 0
M  V30 3003 H 274.787 3.65643 -0.26466 0
M  V30 3004 H 274.435 4.60558 2.02226 0
M  V30 3005 H 274.135 5.82661 0.760239 0
M  V30 3006 H 275.659 5.86695 1.69179 0
M  V30 3007 H 277.073 5.70421 -0.573805 0
M  V30 3008 H 275.47 5.8467 -1.35205 0
M  V30 3009 H 276.54 4.50443 -1.79524 0
M  V30 3010 N 277.883 0.443576 1.51229 0
M  V30 3011 C 278.83 -0.364716 2.279 0
M  V30 3012 C 279.8 -1.0114 1.31757 0
M  V30 3013 O 280.985 -1.02912 1.60667 0
M  V30 3014 C 278.125 -1.45644 3.12861 0
M  V30 3015 C 277.238 -0.827269 4.24005 0
M  V30 3016 C 276.373 -1.89456 4.96266 0
M  V30 3017 C 275.412 -1.24416 5.99322 0
M  V30 3018 N 274.549 -2.25309 6.64966 0
M  V30 3019 H 279.389 0.295464 2.96532 0
M  V30 3020 H 276.926 0.157554 1.46254 0
M  V30 3021 H 278.884 -2.10076 3.6045 0
M  V30 3022 H 277.514 -2.08616 2.46331 0
M  V30 3023 H 276.566 -0.0710839 3.80334 0
M  V30 3024 H 277.878 -0.312481 4.9782 0
M  V30 3025 H 277.032 -2.61535 5.47434 0
M  V30 3026 H 275.771 -2.4431 4.22095 0
M  V30 3027 H 274.776 -0.508868 5.4744 0
M  V30 3028 H 276.001 -0.702882 6.75453 0
M  V30 3029 H 273.947 -2.79231 5.93604 0
M  V30 3030 H 273.864 -1.78739 7.34567 0
M  V30 3031 H 275.132 -2.96853 7.20763 0
M  V30 3032 N 279.361 -1.56624 0.175154 0
M  V30 3033 C 280.294 -2.14 -0.792412 0
M  V30 3034 C 281.272 -1.07114 -1.22333 0
M  V30 3035 O 282.456 -1.35112 -1.31442 0
M  V30 3036 C 279.583 -2.68268 -2.0676 0
M  V30 3037 C 278.629 -3.87562 -1.7804 0
M  V30 3038 S 279.462 -5.27074 -0.946222 0
M  V30 3039 C 280.618 -5.8475 -2.23199 0
M  V30 3040 H 280.851 -2.95736 -0.304588 0
M  V30 3041 H 278.384 -1.54349 -0.0395705 0
M  V30 3042 H 280.342 -3.00182 -2.80002 0
M  V30 3043 H 279.003 -1.86612 -2.52656 0
M  V30 3044 H 278.196 -4.23874 -2.72666 0
M  V30 3045 H 277.798 -3.56555 -1.12891 0
M  V30 3046 H 280.09 -5.97898 -3.18629 0
M  V30 3047 H 281.033 -6.81756 -1.91349 0
M  V30 3048 H 281.441 -5.13198 -2.35134 0
M  V30 3049 N 280.839 0.0985539 -1.57292 0
M  V30 3050 C 281.769 1.12064 -2.04851 0
M  V30 3051 C 282.75 1.41981 -0.936767 0
M  V30 3052 O 283.935 1.52071 -1.20781 0
M  V30 3053 C 281.065 2.44144 -2.47004 0
M  V30 3054 C 280.019 2.28643 -3.6181 0
M  V30 3055 C 279.345 3.65869 -3.89929 0
M  V30 3056 C 280.645 1.72986 -4.92822 0
M  V30 3057 H 282.339 0.724979 -2.9049 0
M  V30 3058 H 279.885 0.34729 -1.39749 0
M  V30 3059 H 281.838 3.15914 -2.78884 0
M  V30 3060 H 280.562 2.85639 -1.5836 0
M  V30 3061 H 279.221 1.59318 -3.30172 0
M  V30 3062 H 278.869 4.04885 -2.98458 0
M  V30 3063 H 278.569 3.56344 -4.67218 0
M  V30 3064 H 280.093 4.39112 -4.2428 0
M  V30 3065 H 281.507 2.34593 -5.23105 0
M  V30 3066 H 279.904 1.74229 -5.74251 0
M  V30 3067 H 280.974 0.689007 -4.7998 0
M  V30 3068 N 282.317 1.53212 0.369288 0
M  V30 3069 C 283.227 1.82342 1.47609 0
M  V30 3070 C 284.243 0.711532 1.58787 0
M  V30 3071 O 285.419 1.0012 1.74751 0
M  V30 3072 C 282.484 2.00393 2.8292 0
M  V30 3073 C 281.545 3.24297 2.81301 0
M  V30 3074 C 280.778 3.41478 4.10157 0
M  V30 3075 O 281.001 2.63033 5.06132 0
M  V30 3076 O 279.935 4.34817 4.16194 0
M  V30 3077 H 283.761 2.76366 1.25918 0
M  V30 3078 H 281.346 1.38547 0.559034 0
M  V30 3079 H 283.228 2.13859 3.63101 0
M  V30 3080 H 281.903 1.09559 3.04596 0
M  V30 3081 H 280.81 3.16257 1.99831 0
M  V30 3082 H 282.143 4.15041 2.64578 0
M  V30 3083 N 283.795 -0.628877 1.44509 0
M  V30 3084 C 285.072 -1.38733 1.37886 0
M  V30 3085 C 285.452 -2.11065 0.0387008 0
M  V30 3086 O 284.8 -2.06476 -0.97878 0
M  V30 3087 C 285.01 -2.35188 2.57852 0
M  V30 3088 C 286.358 -2.9845 3.02014 0
M  V30 3089 O 287.382 -2.45513 2.58073 0
M  V30 3090 O 286.241 -3.94487 3.78209 0
M  V30 3091 H 283.335 -0.621015 0.54614 0
M  V30 3092 H 285.881 -0.653744 1.56602 0
M  V30 3093 H 284.653 -1.80855 3.46998 0
M  V30 3094 H 284.276 -3.1596 2.4136 0
M  V30 3095 N 285.273 -1.31445 -0.869486 0
M  V30 3096 C 286.205 -1.14955 -1.98287 0
M  V30 3097 C 287.218 -0.0885037 -1.62559 0
M  V30 3098 O 288.407 -0.336044 -1.75308 0
M  V30 3099 C 285.507 -0.734255 -3.3085 0
M  V30 3100 C 284.68 -1.88042 -3.94917 0
M  V30 3101 C 283.739 -1.4511 -5.05796 0
M  V30 3102 O 282.765 -2.16082 -5.2659 0
M  V30 3103 N 283.967 -0.338763 -5.79511 0
M  V30 3104 H 286.732 -2.10856 -2.12979 0
M  V30 3105 H 284.293 -1.23786 -1.04349 0
M  V30 3106 H 286.285 -0.42975 -4.02412 0
M  V30 3107 H 284.855 0.133158 -3.12316 0
M  V30 3108 H 284.075 -2.35222 -3.1633 0
M  V30 3109 H 285.363 -2.6481 -4.34457 0
M  V30 3110 H 284.761 0.252274 -5.65137 0
M  V30 3111 H 283.318 -0.0937925 -6.51733 0
M  V30 3112 N 286.751 1.08385 -1.14413 0
M  V30 3113 C 287.699 2.17406 -0.826888 0
M  V30 3114 C 288.693 1.6827 0.195312 0
M  V30 3115 O 289.899 1.79927 0.0513892 0
M  V30 3116 H 286.274 0.70934 -0.249681 0
M  V30 3117 H 288.245 2.41388 -1.75426 0
M  V30 3118 C 286.994 3.46215 -0.320979 0
M  V30 3119 H 286.317 3.84401 -1.0989 0
M  V30 3120 H 287.757 4.23777 -0.137549 0
M  V30 3121 C 286.216 3.23067 0.955472 0
M  V30 3122 O 286.746 3.4668 2.02918 0
M  V30 3123 N 284.952 2.7661 0.890798 0
M  V30 3124 H 284.499 2.57594 0.0168815 0
M  V30 3125 H 284.457 2.61501 1.74542 0
M  V30 3126 N 288.23 0.939286 1.26551 0
M  V30 3127 C 289.16 0.465044 2.28822 0
M  V30 3128 C 290.141 -0.480692 1.63167 0
M  V30 3129 O 291.326 -0.382955 1.90387 0
M  V30 3130 C 288.456 -0.27234 3.46231 0
M  V30 3131 C 287.41 0.58666 4.2396 0
M  V30 3132 C 286.736 -0.280573 5.33963 0
M  V30 3133 C 288.036 1.85704 4.88171 0
M  V30 3134 H 289.73 1.31979 2.68741 0
M  V30 3135 H 287.276 0.636061 1.29191 0
M  V30 3136 H 289.229 -0.615133 4.16886 0
M  V30 3137 H 287.953 -1.16121 3.0526 0
M  V30 3138 H 286.612 0.91232 3.55067 0
M  V30 3139 H 286.26 -1.16874 4.89234 0
M  V30 3140 H 285.96 0.29076 5.8688 0
M  V30 3141 H 287.484 -0.618678 6.07458 0
M  V30 3142 H 288.898 1.58161 5.51052 0
M  V30 3143 H 287.295 2.37279 5.51197 0
M  V30 3144 H 288.365 2.56957 4.11219 0
M  V30 3145 N 289.708 -1.40897 0.706093 0
M  V30 3146 C 290.957 -2.00284 0.238574 0
M  V30 3147 C 291.27 -1.56604 -1.17194 0
M  V30 3148 O 292.476 -2.08624 -1.73748 0
M  V30 3149 C 290.932 -3.57934 0.375623 0
M  V30 3150 C 290.54 -4.10591 1.79217 0
M  V30 3151 C 292.284 -4.24488 -0.0315857 0
M  V30 3152 C 290.191 -5.60712 1.88032 0
M  V30 3153 H 289.121 -0.749144 0.0854398 0
M  V30 3154 H 291.772 -1.61251 0.875813 0
M  V30 3155 H 290.154 -3.94622 -0.330042 0
M  V30 3156 H 291.328 -3.85301 2.52745 0
M  V30 3157 H 289.643 -3.56601 2.15 0
M  V30 3158 H 292.24 -5.34698 0.0136842 0
M  V30 3159 H 292.583 -4.02261 -1.072 0
M  V30 3160 H 293.116 -3.92873 0.624181 0
M  V30 3161 H 289.855 -5.87781 2.90161 0
M  V30 3162 H 289.375 -5.87896 1.18903 0
M  V30 3163 H 291.054 -6.25658 1.64805 0
M  V30 3164 N 291.186 -0.45159 -1.50991 0
M  V30 3165 C 292.411 0.110667 -2.07105 0
M  V30 3166 C 292.836 1.3446 -1.31538 0
M  V30 3167 O 292.194 1.77743 -0.357365 0
M  V30 3168 C 292.242 0.397238 -3.58405 0
M  V30 3169 O 291.346 1.48124 -3.84881 0
M  V30 3170 H 290.687 -0.00439271 -0.663985 0
M  V30 3171 H 293.217 -0.637026 -1.9443 0
M  V30 3172 H 293.227 0.64351 -4.02893 0
M  V30 3173 H 291.902 -0.504553 -4.12828 0
M  V30 3174 H 290.479 1.22381 -3.52246 0
M  V30 3175 N 292.664 1.56529 -0.183458 0
M  V30 3176 C 293.627 2.17324 0.728223 0
M  V30 3177 C 294.627 1.12453 1.14939 0
M  V30 3178 O 295.817 1.37902 1.06437 0
M  V30 3179 C 292.949 2.76591 1.99274 0
M  V30 3180 H 294.142 2.99241 0.198772 0
M  V30 3181 H 291.695 1.5616 0.0661391 0
M  V30 3182 H 292.43 1.98441 2.56499 0
M  V30 3183 H 292.215 3.5335 1.69959 0
M  V30 3184 H 293.705 3.23311 2.6431 0
M  V30 3185 N 294.142 -0.090211 1.57342 0
M  V30 3186 C 295.092 -1.11557 1.98844 0
M  V30 3187 C 296.076 -1.35503 0.867624 0
M  V30 3188 O 297.268 -1.36113 1.13148 0
M  V30 3189 C 294.397 -2.43446 2.42051 0
M  V30 3190 C 293.483 -2.22853 3.60828 0
M  V30 3191 N 293.874 -1.72141 4.75606 0
M  V30 3192 C 292.172 -2.53401 3.67021 0
M  V30 3193 C 292.873 -1.65932 5.57531 0
M  V30 3194 N 291.849 -2.11323 5.00843 0
M  V30 3195 H 295.651 -0.716499 2.85032 0
M  V30 3196 H 293.165 -0.297567 1.59651 0
M  V30 3197 H 295.162 -3.17644 2.70014 0
M  V30 3198 H 293.822 -2.84087 1.57241 0
M  V30 3199 H 294.833 -1.41268 4.98261 0
M  V30 3200 H 291.51 -2.97532 2.92884 0
M  V30 3201 H 292.9 -1.27733 6.59647 0
M  V30 3202 N 295.62 -1.53406 -0.361157 0
M  V30 3203 C 296.868 -1.69467 -1.10115 0
M  V30 3204 C 297.189 -0.451352 -1.89705 0
M  V30 3205 O 296.459 0.534636 -1.88463 0
M  V30 3206 H 295.039 -0.624749 -0.409508 0
M  V30 3207 H 297.701 -1.90609 -0.406699 0
M  V30 3208 H 296.797 -2.55774 -1.78847 0
M  V30 3209 N 297.098 0.621204 -1.44841 0
M  V30 3210 C 298.045 1.73267 -1.5247 0
M  V30 3211 C 299.015 1.6189 -0.371611 0
M  V30 3212 O 300.2 1.81668 -0.58321 0
M  V30 3213 C 297.34 3.11545 -1.48438 0
M  V30 3214 C 296.453 3.33827 -2.74196 0
M  V30 3215 C 295.588 4.62133 -2.61929 0
M  V30 3216 C 294.627 4.77627 -3.82804 0
M  V30 3217 N 293.764 5.97219 -3.69153 0
M  V30 3218 H 298.604 1.66082 -2.47428 0
M  V30 3219 H 296.141 0.810026 -1.22788 0
M  V30 3220 H 298.099 3.91528 -1.4409 0
M  V30 3221 H 296.729 3.1772 -0.570402 0
M  V30 3222 H 295.781 2.47715 -2.88689 0
M  V30 3223 H 297.093 3.41153 -3.6389 0
M  V30 3224 H 296.247 5.50291 -2.5547 0
M  V30 3225 H 294.986 4.57182 -1.69811 0
M  V30 3226 H 293.991 3.87896 -3.89637 0
M  V30 3227 H 295.216 4.84385 -4.75971 0
M  V30 3228 H 293.162 5.93339 -2.79794 0
M  V30 3229 H 293.079 6.05644 -4.52472 0
M  V30 3230 H 294.347 6.87912 -3.66603 0
M  V30 3231 N 298.576 1.31904 0.862503 0
M  V30 3232 C 299.804 1.24998 1.64873 0
M  V30 3233 C 300.219 -0.183425 1.87907 0
M  V30 3234 O 299.576 -1.11794 1.44251 0
M  V30 3235 C 299.627 1.99829 3.01248 0
M  V30 3236 O 299.348 3.37575 2.79239 0
M  V30 3237 C 300.849 1.99852 3.95694 0
M  V30 3238 H 298.069 0.431599 0.513773 0
M  V30 3239 H 300.613 1.73901 1.07604 0
M  V30 3240 H 298.768 1.54668 3.55185 0
M  V30 3241 H 299.182 3.75776 3.65914 0
M  V30 3242 H 300.656 2.56709 4.88676 0
M  V30 3243 H 301.133 0.982852 4.28062 0
M  V30 3244 H 301.739 2.44926 3.47694 0
M  V30 3245 N 300.054 -1.07777 1.14986 0
M  V30 3246 C 301.303 -1.79669 0.916617 0
M  V30 3247 C 301.616 -1.87474 -0.557917 0
M  V30 3248 O 302.822 -2.55845 -0.908617 0
M  V30 3249 C 301.278 -3.22848 1.59051 0
M  V30 3250 C 300.886 -3.23257 3.10176 0
M  V30 3251 C 302.63 -3.99379 1.43864 0
M  V30 3252 C 300.537 -4.61063 3.70372 0
M  V30 3253 H 299.467 -0.673349 0.33929 0
M  V30 3254 H 302.118 -1.21003 1.37951 0
M  V30 3255 H 300.5 -3.8168 1.0553 0
M  V30 3256 H 301.674 -2.74095 3.70417 0
M  V30 3257 H 299.989 -2.60222 3.25074 0
M  V30 3258 H 302.586 -5.0122 1.86232 0
M  V30 3259 H 302.929 -4.14511 0.385564 0
M  V30 3260 H 303.462 -3.47032 1.94457 0
M  V30 3261 H 300.201 -4.51135 4.7556 0
M  V30 3262 H 299.721 -5.1048 3.14913 0
M  V30 3263 H 301.4 -5.30034 3.71043 0
M  V30 3264 N 301.532 -0.945985 -1.26051 0
M  V30 3265 C 302.778 -0.597002 -1.93814 0
M  V30 3266 C 303.111 0.862484 -1.73997 0
M  V30 3267 O 302.386 1.61769 -1.07986 0
M  V30 3268 C 302.669 -0.945937 -3.47454 0
M  V30 3269 C 302.522 -2.46052 -3.76535 0
M  V30 3270 C 303.841 -0.464785 -4.37639 0
M  V30 3271 H 300.96 -0.218366 -0.703907 0
M  V30 3272 H 303.602 -1.18107 -1.48831 0
M  V30 3273 H 301.752 -0.448902 -3.85898 0
M  V30 3274 H 303.424 -3.03065 -3.47778 0
M  V30 3275 H 301.667 -2.90194 -3.22444 0
M  V30 3276 H 302.338 -2.65517 -4.83947 0
M  V30 3277 H 304.814 -0.891016 -4.06448 0
M  V30 3278 H 303.69 -0.737712 -5.4392 0
M  V30 3279 H 303.951 0.635274 -4.37512 0
M  V30 3280 N 303.011 1.40521 -0.713556 0
M  V30 3281 C 304.257 2.01221 -0.252564 0
M  V30 3282 C 304.59 1.56444 1.1506 0
M  V30 3283 O 303.865 0.783597 1.78017 0
M  V30 3284 C 304.148 3.58582 -0.330332 0
M  V30 3285 C 304.001 4.13437 -1.77173 0
M  V30 3286 C 305.32 4.39079 0.299641 0
M  V30 3287 H 302.439 0.731077 -0.0932471 0
M  V30 3288 H 305.081 1.67026 -0.905673 0
M  V30 3289 H 303.231 3.87844 0.225737 0
M  V30 3290 H 304.903 3.9498 -2.38303 0
M  V30 3291 H 303.146 3.67801 -2.3001 0
M  V30 3292 H 303.817 5.22597 -1.77755 0
M  V30 3293 H 306.293 4.15735 -0.174139 0
M  V30 3294 H 305.169 5.4848 0.214771 0
M  V30 3295 H 305.43 4.19915 1.38288 0
M  V30 3296 N 304.489 0.459591 1.5075 0
M  V30 3297 C 305.719 -0.0972338 2.06371 0
M  V30 3298 C 306.127 -1.35074 1.32483 0
M  V30 3299 O 305.47 -1.79637 0.384226 0
M  V30 3300 C 305.532 -0.462759 3.56509 0
M  V30 3301 C 305.196 0.687084 4.51805 0
M  V30 3302 C 306.193 1.56578 4.95761 0
M  V30 3303 C 303.878 0.874144 4.94635 0
M  V30 3304 C 305.872 2.61604 5.81242 0
M  V30 3305 C 303.559 1.92765 5.79901 0
M  V30 3306 C 304.557 2.79697 6.23104 0
M  V30 3307 O 304.245 3.83235 7.06673 0
M  V30 3308 H 303.977 -0.00140687 0.675999 0
M  V30 3309 H 306.531 0.644011 1.95043 0
M  V30 3310 H 304.761 -1.25703 3.65699 0
M  V30 3311 H 306.45 -0.953323 3.94546 0
M  V30 3312 H 307.216 1.4329 4.6335 0
M  V30 3313 H 303.095 0.207006 4.60535 0
M  V30 3314 H 306.639 3.29489 6.14884 0
M  V30 3315 H 302.536 2.06064 6.11725 0
M  V30 3316 H 303.304 3.80084 7.24899 0
M  V30 3317 N 305.967 -1.56429 0.191757 0
M  V30 3318 C 307.215 -1.97095 -0.447006 0
M  V30 3319 C 307.536 -1.07967 -1.62383 0
M  V30 3320 O 306.806 -0.150248 -1.95323 0
M  V30 3321 H 305.386 -0.727832 -0.168135 0
M  V30 3322 H 308.048 -1.92911 0.27771 0
M  V30 3323 H 307.144 -3.01848 -0.793371 0
M  V30 3324 N 307.445 0.0818655 -1.57387 0
M  V30 3325 C 308.673 0.796108 -1.9097 0
M  V30 3326 C 309.088 1.71626 -0.786757 0
M  V30 3327 O 308.445 1.80908 0.240513 0
M  V30 3328 C 308.496 1.59829 -3.24248 0
M  V30 3329 O 308.217 0.715131 -4.32224 0
M  V30 3330 C 309.718 2.41442 -3.7178 0
M  V30 3331 H 306.938 0.22691 -0.631469 0
M  V30 3332 H 309.482 0.0551439 -2.04426 0
M  V30 3333 H 307.637 2.29163 -3.12351 0
M  V30 3334 H 308.051 1.27205 -5.08841 0
M  V30 3335 H 309.525 2.932 -4.67694 0
M  V30 3336 H 310.002 3.2051 -3.00283 0
M  V30 3337 H 310.608 1.77283 -3.86589 0
M  V30 3338 N 308.923 1.53595 0.353017 0
M  V30 3339 C 310.339 1.43648 0.695516 0
M  V30 3340 C 310.539 0.585617 1.92802 0
M  V30 3341 O 309.595 0.0729223 2.52395 0
M  V30 3342 C 310.908 2.8701 0.896991 0
M  V30 3343 C 312.456 2.96723 0.996209 0
M  V30 3344 C 312.931 4.41173 1.23007 0
M  V30 3345 N 314.422 4.44657 1.29749 0
M  V30 3346 C 315.157 5.53547 1.49577 0
M  V30 3347 N 314.653 6.72461 1.66639 0
M  V30 3348 N 316.446 5.41145 1.52048 0
M  V30 3349 H 308.597 2.07415 -0.457481 0
M  V30 3350 H 310.86 0.9372 -0.142687 0
M  V30 3351 H 310.566 3.51644 0.0629938 0
M  V30 3352 H 310.44 3.31401 1.80148 0
M  V30 3353 H 312.827 2.32235 1.82074 0
M  V30 3354 H 312.908 2.55707 0.0688331 0
M  V30 3355 H 312.552 5.06238 0.410505 0
M  V30 3356 H 312.482 4.79772 2.17086 0
M  V30 3357 H 314.973 3.58963 1.18126 0
M  V30 3358 H 315.286 7.51214 1.81378 0
M  V30 3359 H 313.631 6.75423 1.63794 0
M  V30 3360 H 316.822 4.47205 1.38294 0
M  V30 3361 H 316.995 6.26068 1.67159 0
M  V30 3362 O 310.44 -0.498996 1.53598 0
M  V30 3363 H 311.131 -1.15384 1.55584 0
M  V30 END ATOM
M  V30 BEGIN BOND
M  V30 END BOND
M  V30 END CTAB
M  END
$$$$
