drugbank_target|P0AC47 Fumarate reductase iron-sulfur subunit (DB07490; DB07918)
 OpenBabel12092120443D

  0  0  0     0  0            999 V3000
M  V30 BEGIN CTAB
M  V30 COUNTS 3753 3796 0 0 0
M  V30 BEGIN ATOM
M  V30 1 H -0.908 1.98254 -0.117106 0
M  V30 2 N 0 1.576 0 0
M  V30 3 C 0.933 2.03868 1.02534 0
M  V30 4 C 1.911 0.928543 1.3348 0
M  V30 5 O 3.095 1.19667 1.45644 0
M  V30 6 C 0.222 2.43627 2.35294 0
M  V30 7 C -0.732 3.65373 2.2001 0
M  V30 8 S 0.101 5.13292 1.52614 0
M  V30 9 C 1.257 5.56322 2.86805 0
M  V30 10 H 1.49 2.90518 0.631377 0
M  V30 11 H -0.977 1.52953 0.210867 0
M  V30 12 H 0.981 2.67203 3.11629 0
M  V30 13 H -0.358 1.57376 2.7183 0
M  V30 14 H -1.165 3.90944 3.18086 0
M  V30 15 H -1.563 3.418 1.51819 0
M  V30 16 H 0.729 5.58782 3.83104 0
M  V30 17 H 1.672 6.56266 2.65933 0
M  V30 18 H 2.08 4.83886 2.90714 0
M  V30 19 N 1.4781 -0.272755 1.55222 0
M  V30 20 C 2.4411 -1.32041 1.87344 0
M  V30 21 C 3.4411 -1.42342 0.74803 0
M  V30 22 O 4.6311 -1.41488 1.0162 0
M  V30 23 C 1.7631 -2.70173 2.07893 0
M  V30 24 H 2.9561 -1.04789 2.80997 0
M  V30 25 H 0.5091 -0.51083 1.47717 0
M  V30 26 H 1.2441 -3.02605 1.16622 0
M  V30 27 H 1.0291 -2.64082 2.89833 0
M  V30 28 H 2.5191 -3.45869 2.34017 0
M  V30 29 N 2.9562 -1.48159 -0.537278 0
M  V30 30 C 3.8662 -1.64807 -1.6696 0
M  V30 31 C 4.8822 -0.530651 -1.65711 0
M  V30 32 O 6.0582 -0.800784 -1.84796 0
M  V30 33 C 3.1232 -1.67708 -3.03438 0
M  V30 34 C 2.1842 -2.91025 -3.156 0
M  V30 35 C 1.4172 -2.93778 -4.45567 0
M  V30 36 O 1.6402 -2.05153 -5.3223 0
M  V30 37 O 0.5742 -3.85868 -4.61941 0
M  V30 38 H 4.4002 -2.6066 -1.55853 0
M  V30 39 H 1.9852 -1.31475 -0.709549 0
M  V30 40 H 3.8672 -1.7218 -3.84619 0
M  V30 41 H 2.5422 -0.750278 -3.14885 0
M  V30 42 H 1.4492 -2.92089 -2.33741 0
M  V30 43 H 2.7822 -3.83065 -3.09066 0
M  V30 44 N 4.4343 0.785586 -1.36625 0
M  V30 45 C 5.3673 1.90509 -1.25625 0
M  V30 46 C 6.3453 1.62 -0.139607 0
M  V30 47 O 7.5293 1.8591 -0.31141 0
M  V30 48 C 4.6563 3.25419 -0.939158 0
M  V30 49 C 3.7023 3.72856 -2.07077 0
M  V30 50 S 4.5353 3.88162 -3.68904 0
M  V30 51 C 5.6913 5.25942 -3.39317 0
M  V30 52 H 5.9243 1.99549 -2.20381 0
M  V30 53 H 3.4573 0.945226 -1.22085 0
M  V30 54 H 5.4153 4.03346 -0.763029 0
M  V30 55 H 4.0763 3.14099 -0.00931402 0
M  V30 56 H 3.2693 4.70624 -1.80357 0
M  V30 57 H 2.8713 3.01989 -2.20632 0
M  V30 58 H 5.1633 6.10651 -2.93447 0
M  V30 59 H 6.1063 5.57668 -4.36363 0
M  V30 60 H 6.5143 4.93224 -2.74573 0
M  V30 61 N 5.9124 1.20967 1.01018 0
M  V30 62 C 6.8594 0.964281 2.09691 0
M  V30 63 C 7.8294 -0.107853 1.65749 0
M  V30 64 O 9.0144 0.0381987 1.90762 0
M  V30 65 C 6.1544 0.52943 3.41015 0
M  V30 66 C 5.2674 1.67043 3.98398 0
M  V30 67 C 4.4024 1.18525 5.17808 0
M  V30 68 C 3.4414 2.29892 5.67288 0
M  V30 69 N 2.5784 1.82546 6.77954 0
M  V30 70 H 7.4184 1.89463 2.30017 0
M  V30 71 H 4.9554 0.944289 1.1279 0
M  V30 72 H 6.9134 0.258588 4.16398 0
M  V30 73 H 5.5434 -0.363919 3.20742 0
M  V30 74 H 4.5954 2.05603 3.20049 0
M  V30 75 H 5.9074 2.50877 4.31117 0
M  V30 76 H 5.0614 0.870762 6.00419 0
M  V30 77 H 3.8004 0.316887 4.86669 0
M  V30 78 H 2.8054 2.6215 4.83278 0
M  V30 79 H 4.0304 3.17216 6.00459 0
M  V30 80 H 1.9764 0.980454 6.48632 0
M  V30 81 H 1.8934 2.59956 7.09901 0
M  V30 82 H 3.1614 1.54115 7.64113 0
M  V30 83 N 7.3905 -1.2043 1.01659 0
M  V30 84 C 8.3385 -2.25249 0.580143 0
M  V30 85 C 9.3325 -1.65057 -0.381115 0
M  V30 86 O 10.5385 -1.78241 -0.251039 0
M  V30 87 H 6.9135 -0.732695 0.169299 0
M  V30 88 H 8.8845 -2.59389 1.47512 0
M  V30 89 C 7.6335 -3.47638 -0.065788 0
M  V30 90 H 6.9565 -3.94233 0.664874 0
M  V30 91 H 8.3965 -4.2268 -0.334282 0
M  V30 92 C 6.8555 -3.10447 -1.3086 0
M  V30 93 O 7.3855 -3.21981 -2.4019 0
M  V30 94 N 5.5915 -2.64996 -1.1927 0
M  V30 95 H 5.1385 -2.55811 -0.303064 0
M  V30 96 H 5.0965 -2.40482 -2.02523 0
M  V30 97 N 8.8686 -0.792821 -1.36206 0
M  V30 98 C 9.7986 -0.207853 -2.32573 0
M  V30 99 C 10.7796 0.659055 -1.56813 0
M  V30 100 O 11.9646 0.592176 -1.84951 0
M  V30 101 C 9.0946 0.655449 -3.41059 0
M  V30 102 C 8.0486 -0.111842 -4.27854 0
M  V30 103 C 7.3746 0.872274 -5.27537 0
M  V30 104 C 8.6746 -1.30299 -5.05786 0
M  V30 105 H 10.3686 -1.01294 -2.81744 0
M  V30 106 H 7.9146 -0.48854 -1.3546 0
M  V30 107 H 9.8676 1.07464 -4.07467 0
M  V30 108 H 8.5916 1.49328 -2.90463 0
M  V30 109 H 7.2506 -0.512053 -3.63006 0
M  V30 110 H 6.8986 1.70523 -4.73214 0
M  V30 111 H 6.5986 0.363291 -5.86476 0
M  V30 112 H 8.1226 1.28996 -5.96818 0
M  V30 113 H 9.5366 -0.959379 -5.65216 0
M  V30 114 H 7.9336 -1.7455 -5.74154 0
M  V30 115 H 9.0036 -2.09663 -4.37229 0
M  V30 116 N 10.3467 1.47872 -0.545128 0
M  V30 117 C 11.2937 2.29849 0.2093 0
M  V30 118 C 12.2637 1.38313 0.919707 0
M  V30 119 O 13.4487 1.67277 0.917772 0
M  V30 120 C 10.5887 3.22019 1.24088 0
M  V30 121 C 9.7017 4.2864 0.537778 0
M  V30 122 C 8.8367 5.07973 1.5536 0
M  V30 123 C 7.8757 6.06381 0.8348 0
M  V30 124 N 7.0127 6.78717 1.79688 0
M  V30 125 H 11.8527 2.93845 -0.49591 0
M  V30 126 H 9.3897 1.44848 -0.256389 0
M  V30 127 H 11.3477 3.73868 1.85144 0
M  V30 128 H 9.9777 2.59914 1.91428 0
M  V30 129 H 9.0297 3.7994 -0.187046 0
M  V30 130 H 10.3417 4.98793 -0.0258907 0
M  V30 131 H 9.4957 5.63912 2.23803 0
M  V30 132 H 8.2347 4.37693 2.15118 0
M  V30 133 H 7.2397 5.49631 0.136388 0
M  V30 134 H 8.4647 6.78665 0.24313 0
M  V30 135 H 6.4107 6.11177 2.38326 0
M  V30 136 H 6.3277 7.44998 1.28505 0
M  V30 137 H 7.5957 7.39237 2.47282 0
M  V30 138 N 11.8248 0.280983 1.55075 0
M  V30 139 C 13.0738 -0.334784 1.98902 0
M  V30 140 C 13.3868 -1.56534 1.17288 0
M  V30 141 O 14.5928 -2.25443 1.51287 0
M  V30 142 C 13.0488 -0.646994 3.54037 0
M  V30 143 C 12.6568 0.564085 4.44435 0
M  V30 144 C 14.4008 -1.22506 4.06439 0
M  V30 145 C 12.3078 0.226137 5.90967 0
M  V30 146 H 11.2378 -0.128866 0.742906 0
M  V30 147 H 13.8888 0.386556 1.79382 0
M  V30 148 H 12.2708 -1.42739 3.6938 0
M  V30 149 H 13.4448 1.34082 4.40861 0
M  V30 150 H 11.7598 1.0594 4.02698 0
M  V30 151 H 14.3568 -1.49182 5.13468 0
M  V30 152 H 14.6998 -2.16085 3.55827 0
M  V30 153 H 15.2328 -0.50682 3.94558 0
M  V30 154 H 11.9718 1.12996 6.45687 0
M  V30 155 H 11.4918 -0.513717 5.97596 0
M  V30 156 H 13.1708 -0.179539 6.46751 0
M  V30 157 N 13.3029 -1.57598 0.00835791 0
M  V30 158 C 14.2129 -2.12385 -0.996487 0
M  V30 159 C 15.2289 -1.07108 -1.37127 0
M  V30 160 O 16.4049 -1.39055 -1.4569 0
M  V30 161 C 13.4699 -2.62314 -2.26699 0
M  V30 162 C 12.5309 -3.82225 -1.95456 0
M  V30 163 C 11.7639 -4.29763 -3.16449 0
M  V30 164 O 11.9869 -3.76584 -4.28416 0
M  V30 165 O 10.9209 -5.21832 -2.99958 0
M  V30 166 H 14.7469 -2.98479 -0.560725 0
M  V30 167 H 12.3319 -1.47903 -0.210987 0
M  V30 168 H 14.2139 -2.94589 -3.01322 0
M  V30 169 H 12.8889 -1.79313 -2.69497 0
M  V30 170 H 11.7959 -3.54909 -1.18282 0
M  V30 171 H 13.1289 -4.66324 -1.57489 0
M  V30 172 N 14.781 0.264519 -1.55364 0
M  V30 173 C 16.027 0.99646 -1.76631 0
M  V30 174 C 16.36 1.85632 -0.570478 0
M  V30 175 O 15.635 1.89647 0.43175 0
M  V30 176 C 15.918 1.87187 -3.07625 0
M  V30 177 C 15.771 1.04138 -4.37579 0
M  V30 178 C 17.09 2.85749 -3.34717 0
M  V30 179 H 14.209 0.360841 -0.642622 0
M  V30 180 H 16.851 0.268218 -1.88097 0
M  V30 181 H 15.001 2.49279 -2.9798 0
M  V30 182 H 16.673 0.440517 -4.59192 0
M  V30 183 H 14.916 0.345115 -4.32425 0
M  V30 184 H 15.587 1.68729 -5.2558 0
M  V30 185 H 18.063 2.33793 -3.4421 0
M  V30 186 H 16.939 3.44136 -4.27623 0
M  V30 187 H 17.2 3.61311 -2.54768 0
M  V30 188 N 16.2591 1.48442 0.529413 0
M  V30 189 C 17.5051 1.5672 1.28711 0
M  V30 190 C 17.8381 0.2406 1.92704 0
M  V30 191 O 17.1131 -0.753454 1.79313 0
M  V30 192 C 17.3961 2.70587 2.37603 0
M  V30 193 C 17.2491 4.12953 1.78297 0
M  V30 194 C 18.5681 2.80212 3.39366 0
M  V30 195 H 15.6871 0.570474 0.466613 0
M  V30 196 H 18.3291 1.80617 0.589706 0
M  V30 197 H 16.4791 2.50342 2.97088 0
M  V30 198 H 18.1511 4.44639 1.22858 0
M  V30 199 H 16.3941 4.19927 1.0883 0
M  V30 200 H 17.0651 4.88448 2.57144 0
M  V30 201 H 19.5411 2.98553 2.89836 0
M  V30 202 H 18.4171 3.61611 4.12951 0
M  V30 203 H 18.6781 1.88393 3.99951 0
M  V30 204 N 17.7372 -0.778329 1.37039 0
M  V30 205 C 19.1532 -1.07796 1.17695 0
M  V30 206 C 19.3532 -2.01498 0.00860115 0
M  V30 207 O 18.4092 -2.43901 -0.653352 0
M  V30 208 C 19.7222 -1.68178 2.49272 0
M  V30 209 C 21.2702 -1.80467 2.55735 0
M  V30 210 C 21.7452 -2.44263 3.87427 0
M  V30 211 N 23.2362 -2.51721 3.88833 0
M  V30 212 C 23.9712 -3.01919 4.87476 0
M  V30 213 N 23.4672 -3.5234 5.96513 0
M  V30 214 N 25.2602 -3.00733 4.74885 0
M  V30 215 H 17.4112 -0.156032 2.11826 0
M  V30 216 H 19.6742 -0.131844 0.938787 0
M  V30 217 H 19.3802 -1.06796 3.35093 0
M  V30 218 H 19.2542 -2.67554 2.65885 0
M  V30 219 H 21.6412 -2.40984 1.70325 0
M  V30 220 H 21.7222 -0.798656 2.43013 0
M  V30 221 H 21.3662 -1.84388 4.73248 0
M  V30 222 H 21.2962 -3.45458 3.9745 0
M  V30 223 H 23.7872 -2.1603 3.10063 0
M  V30 224 H 24.1002 -3.89027 6.67741 0
M  V30 225 H 22.4452 -3.50462 6.00168 0
M  V30 226 H 25.6362 -2.60638 3.88826 0
M  V30 227 H 25.8092 -3.39545 5.51918 0
M  V30 228 N 19.2153 -1.21501 -1.00376 0
M  V30 229 C 20.4453 -1.05746 -1.77486 0
M  V30 230 C 20.8533 0.395655 -1.85017 0
M  V30 231 O 20.1963 1.28626 -1.31152 0
M  V30 232 C 20.2583 -1.58092 -3.22873 0
M  V30 233 C 19.9223 -3.06568 -3.38917 0
M  V30 234 C 20.9193 -4.04106 -3.271 0
M  V30 235 C 18.6043 -3.45799 -3.64319 0
M  V30 236 C 20.5983 -5.38862 -3.40451 0
M  V30 237 C 18.2853 -4.80707 -3.77311 0
M  V30 238 C 19.2833 -5.77047 -3.65384 0
M  V30 239 O 18.9713 -7.09507 -3.77961 0
M  V30 240 H 18.7033 -0.371778 -0.564586 0
M  V30 241 H 21.2573 -1.61319 -1.27143 0
M  V30 242 H 19.4873 -0.969163 -3.74358 0
M  V30 243 H 21.1763 -1.38162 -3.81662 0
M  V30 244 H 21.9423 -3.75141 -3.07399 0
M  V30 245 H 17.8213 -2.71344 -3.72684 0
M  V30 246 H 21.3653 -6.14041 -3.31058 0
M  V30 247 H 17.2623 -5.09357 -3.96517 0
M  V30 248 H 18.0303 -7.16935 -3.94901 0
M  V30 249 N 20.6934 1.19889 -1.02296 0
M  V30 250 C 21.6414 2.24938 -0.592081 0
M  V30 251 C 22.6354 1.65257 0.372357 0
M  V30 252 O 23.8414 1.78371 0.241583 0
M  V30 253 H 20.2164 0.731787 -0.173182 0
M  V30 254 H 22.1874 2.58603 -1.48885 0
M  V30 255 C 20.9364 3.47668 0.047351 0
M  V30 256 H 20.2594 3.93875 -0.685772 0
M  V30 257 H 21.6994 4.22852 0.311862 0
M  V30 258 C 20.1584 3.11136 1.29212 0
M  V30 259 O 20.6884 3.2325 2.38479 0
M  V30 260 N 18.8944 2.65625 1.17863 0
M  V30 261 H 18.4414 2.55968 0.289493 0
M  V30 262 H 18.3994 2.41553 2.01245 0
M  V30 263 N 22.1715 0.800033 1.35784 0
M  V30 264 C 23.5825 0.439142 1.81462 0
M  V30 265 C 23.9335 -1.03813 1.66485 0
M  V30 266 O 23.0585 -1.80626 1.19177 0
M  V30 267 C 23.6535 0.790314 3.29453 0
M  V30 268 C 22.2125 0.482111 3.733 0
M  V30 269 C 21.3595 1.01938 2.57883 0
M  V30 270 H 24.3105 0.992254 1.23855 0
M  V30 271 H 24.3315 0.0853677 3.80404 0
M  V30 272 H 23.8435 1.86554 3.40322 0
M  V30 273 H 21.9445 -0.584652 3.67984 0
M  V30 274 H 22.0575 1.01015 4.6833 0
M  V30 275 H 20.4215 0.442043 2.50835 0
M  V30 276 H 21.2045 2.10059 2.71533 0
M  V30 277 N 23.6496 -1.47581 0.552962 0
M  V30 278 C 24.5596 -2.33743 -0.200353 0
M  V30 279 C 25.5756 -1.47928 -0.916151 0
M  V30 280 O 26.7516 -1.80865 -0.885993 0
M  V30 281 C 23.8166 -3.24536 -1.21973 0
M  V30 282 C 22.8776 -4.26238 -0.511819 0
M  V30 283 C 22.1106 -5.12693 -1.48263 0
M  V30 284 O 22.3336 -5.01525 -2.71714 0
M  V30 285 O 21.2676 -5.93375 -1.00945 0
M  V30 286 H 25.0936 -2.9945 0.506304 0
M  V30 287 H 22.6786 -1.46071 0.313622 0
M  V30 288 H 24.5606 -3.80631 -1.80827 0
M  V30 289 H 23.2356 -2.61462 -1.90839 0
M  V30 290 H 22.1426 -3.73914 0.117799 0
M  V30 291 H 23.4756 -4.92014 0.135308 0
M  V30 292 N 25.1277 -0.289203 -1.54924 0
M  V30 293 C 26.3737 0.323998 -2.00195 0
M  V30 294 C 26.7067 1.54441 -1.17735 0
M  V30 295 O 25.9817 1.92875 -0.250878 0
M  V30 296 C 26.2647 0.692276 -3.53383 0
M  V30 297 C 26.1177 -0.536457 -4.46589 0
M  V30 298 C 27.4367 1.52335 -4.12895 0
M  V30 299 H 24.5557 0.116289 -0.727768 0
M  V30 300 H 27.1977 -0.398954 -1.85764 0
M  V30 301 H 25.3477 1.30822 -3.65811 0
M  V30 302 H 27.0197 -1.17499 -4.46085 0
M  V30 303 H 25.2627 -1.17192 -4.1767 0
M  V30 304 H 25.9337 -0.234806 -5.515 0
M  V30 305 H 28.4097 1.00302 -4.0383 0
M  V30 306 H 27.2857 1.74982 -5.20262 0
M  V30 307 H 27.5467 2.50886 -3.64018 0
M  V30 308 N 26.6058 1.57591 -0.0167156 0
M  V30 309 C 27.8828 1.82547 0.702564 0
M  V30 310 C 28.2628 0.898018 1.91047 0
M  V30 311 O 27.6108 -0.0493456 2.28447 0
M  V30 312 C 27.8208 3.31459 1.09251 0
M  V30 313 C 29.1688 3.97622 1.48937 0
M  V30 314 O 30.1928 3.35881 1.18584 0
M  V30 315 O 29.0518 5.06415 2.05442 0
M  V30 316 H 26.1458 0.752268 0.343544 0
M  V30 317 H 28.6918 1.69644 -0.0434495 0
M  V30 318 H 27.4638 3.9061 0.23227 0
M  V30 319 H 27.0868 3.49422 1.89709 0
M  V30 320 N 28.0839 -0.256276 1.55502 0
M  V30 321 C 29.3119 -1.00342 1.8094 0
M  V30 322 C 29.7269 -1.79307 0.59114 0
M  V30 323 O 29.0839 -1.77114 -0.440081 0
M  V30 324 C 29.1349 -1.94875 3.04476 0
M  V30 325 O 28.8559 -1.19107 4.21598 0
M  V30 326 C 30.3569 -2.81266 3.42644 0
M  V30 327 H 27.5769 -0.295685 0.602338 0
M  V30 328 H 30.1209 -0.281998 2.02546 0
M  V30 329 H 28.2759 -2.62457 2.84947 0
M  V30 330 H 28.6899 -1.82969 4.91551 0
M  V30 331 H 30.1639 -3.43362 4.32211 0
M  V30 332 H 30.6409 -3.51897 2.62802 0
M  V30 333 H 31.2469 -2.1915 3.64491 0
M  V30 334 N 29.562 -1.4872 -0.521534 0
M  V30 335 C 30.525 -1.63379 -1.60748 0
M  V30 336 C 31.525 -0.50661 -1.52611 0
M  V30 337 O 32.715 -0.772601 -1.5613 0
M  V30 338 C 29.847 -1.61192 -3.00383 0
M  V30 339 H 31.04 -2.60217 -1.49087 0
M  V30 340 H 28.593 -1.37444 -0.744235 0
M  V30 341 H 29.328 -0.65863 -3.17541 0
M  V30 342 H 29.113 -2.43032 -3.07698 0
M  V30 343 H 30.603 -1.7466 -3.7932 0
M  V30 344 N 31.0401 0.771051 -1.3745 0
M  V30 345 C 32.4511 1.34737 -1.29239 0
M  V30 346 C 32.8021 1.96109 0.0596908 0
M  V30 347 O 31.9271 1.93865 0.961534 0
M  V30 348 C 32.5221 2.44973 -2.34037 0
M  V30 349 C 31.0811 2.98372 -2.29458 0
M  V30 350 C 30.2281 1.71595 -2.17831 0
M  V30 351 H 33.1791 0.571256 -1.48062 0
M  V30 352 H 33.2001 3.24471 -1.98744 0
M  V30 353 H 32.7121 2.00276 -3.32432 0
M  V30 354 H 30.8131 3.47443 -1.34589 0
M  V30 355 H 30.9261 3.53939 -3.229 0
M  V30 356 H 29.2901 1.94547 -1.64388 0
M  V30 357 H 30.0731 1.29001 -3.18141 0
M  V30 358 N 32.5182 1.22032 0.997298 0
M  V30 359 C 33.4682 0.953838 2.07089 0
M  V30 360 C 34.4522 -0.0938669 1.60626 0
M  V30 361 O 35.6442 0.116078 1.76619 0
M  V30 362 C 32.7732 0.528726 3.39204 0
M  V30 363 C 31.8592 1.61092 3.92314 0
M  V30 364 N 32.2502 2.83768 4.18699 0
M  V30 365 C 30.5482 1.48158 4.20672 0
M  V30 366 C 31.2492 3.53715 4.61802 0
M  V30 367 N 30.2252 2.81174 4.65233 0
M  V30 368 H 34.0272 1.88577 2.25424 0
M  V30 369 H 31.5412 1.11719 1.17867 0
M  V30 370 H 33.5382 0.31915 4.15677 0
M  V30 371 H 32.1982 -0.39635 3.22272 0
M  V30 372 H 33.2092 3.20238 4.07023 0
M  V30 373 H 29.8862 0.622369 4.12835 0
M  V30 374 H 31.2762 4.58793 4.90875 0
M  V30 375 N 33.9963 -1.19345 1.0293 0
M  V30 376 C 35.2213 -1.93538 0.745511 0
M  V30 377 C 35.6463 -1.75007 -0.689511 0
M  V30 378 O 35.0043 -1.05265 -1.47611 0
M  V30 379 C 35.0523 -3.43336 1.10239 0
M  V30 380 O 34.1563 -4.11806 0.221289 0
M  V30 381 H 33.4973 -0.604193 0.275404 0
M  V30 382 H 36.0273 -1.5141 1.37609 0
M  V30 383 H 36.0373 -3.94004 1.05947 0
M  V30 384 H 34.7123 -3.56146 2.14786 0
M  V30 385 H 33.2893 -3.715 0.322842 0
M  V30 386 N 35.4744 -0.807222 -1.35358 0
M  V30 387 C 36.4374 -0.223665 -2.28106 0
M  V30 388 C 37.4374 0.589354 -1.4961 0
M  V30 389 O 38.6274 0.407745 -1.69361 0
M  V30 390 C 35.7594 0.688149 -3.33882 0
M  V30 391 H 36.9524 -1.04169 -2.81227 0
M  V30 392 H 34.5054 -0.577921 -1.45223 0
M  V30 393 H 35.2404 1.52984 -2.85948 0
M  V30 394 H 35.0254 0.10687 -3.91954 0
M  V30 395 H 36.5154 1.09075 -4.03104 0
M  V30 396 N 36.9525 1.47285 -0.560781 0
M  V30 397 C 38.1995 2.02464 -0.038062 0
M  V30 398 C 38.5275 1.43474 1.31322 0
M  V30 399 O 37.7825 0.581311 1.86867 0
M  V30 400 C 38.0815 3.57258 0.100784 0
M  V30 401 C 37.7475 4.35184 -1.18007 0
M  V30 402 C 36.4095 4.56194 -1.53103 0
M  V30 403 C 38.7615 4.80098 -2.02867 0
M  V30 404 C 36.0895 5.19367 -2.729 0
M  V30 405 C 38.4415 5.44593 -3.21871 0
M  V30 406 C 37.1055 5.63835 -3.57276 0
M  V30 407 H 36.3755 0.740869 -0.0139279 0
M  V30 408 H 39.0225 1.76916 -0.733012 0
M  V30 409 H 37.3275 3.81819 0.878724 0
M  V30 410 H 39.0245 3.97606 0.520639 0
M  V30 411 H 35.6145 4.19113 -0.8968 0
M  V30 412 H 39.7985 4.63642 -1.7706 0
M  V30 413 H 35.0545 5.32459 -3.00496 0
M  V30 414 H 39.2285 5.78358 -3.87911 0
M  V30 415 H 36.8555 6.12557 -4.50197 0
M  V30 416 N 38.4306 0.297415 1.54768 0
M  V30 417 C 39.6606 -0.315165 2.04182 0
M  V30 418 C 40.0686 -1.4834 1.17439 0
M  V30 419 O 39.4116 -1.82695 0.191891 0
M  V30 420 C 39.4736 -0.837583 3.49607 0
M  V30 421 C 39.1376 0.204912 4.5654 0
M  V30 422 C 40.1346 1.03214 5.09552 0
M  V30 423 C 37.8196 0.345578 5.0111 0
M  V30 424 C 39.8136 1.986 6.05671 0
M  V30 425 C 37.5006 1.30289 5.97049 0
M  V30 426 C 38.4986 2.12159 6.49213 0
M  V30 427 O 38.1866 3.06268 7.43273 0
M  V30 428 H 37.9186 -0.0729646 0.672051 0
M  V30 429 H 40.4726 0.433907 2.00765 0
M  V30 430 H 38.7026 -1.63712 3.50336 0
M  V30 431 H 40.3916 -1.36566 3.82236 0
M  V30 432 H 41.1576 0.934312 4.75916 0
M  V30 433 H 37.0366 -0.28171 4.60138 0
M  V30 434 H 40.5806 2.62542 6.46311 0
M  V30 435 H 36.4776 1.40145 6.30103 0
M  V30 436 H 37.2456 3.01205 7.61064 0
M  V30 437 N 39.9087 -1.5758 0.0250728 0
M  V30 438 C 40.8187 -2.1343 -0.973905 0
M  V30 439 C 41.8347 -1.08556 -1.35984 0
M  V30 440 O 43.0107 -1.40592 -1.44207 0
M  V30 441 C 40.0757 -2.64703 -2.23904 0
M  V30 442 C 39.1367 -3.84276 -1.91391 0
M  V30 443 C 38.3697 -4.33095 -3.11873 0
M  V30 444 O 38.5927 -3.81107 -4.24398 0
M  V30 445 O 37.5267 -5.24984 -2.94406 0
M  V30 446 H 41.3527 -2.99057 -0.529036 0
M  V30 447 H 38.9377 -1.48118 -0.195288 0
M  V30 448 H 40.8197 -2.97769 -2.98181 0
M  V30 449 H 39.4947 -1.82161 -2.6758 0
M  V30 450 H 38.4017 -3.56143 -1.14511 0
M  V30 451 H 39.7347 -4.67968 -1.52534 0
M  V30 452 N 41.3868 0.248026 -1.55636 0
M  V30 453 C 42.6328 0.97767 -1.77678 0
M  V30 454 C 42.9658 1.85016 -0.590135 0
M  V30 455 O 42.2408 1.90095 0.411611 0
M  V30 456 C 42.5238 1.83914 -3.09593 0
M  V30 457 C 42.3768 0.99491 -4.38659 0
M  V30 458 C 43.6958 2.82183 -3.37729 0
M  V30 459 H 40.8148 0.354005 -0.646413 0
M  V30 460 H 43.4568 0.248253 -1.88371 0
M  V30 461 H 41.6068 2.46104 -3.00608 0
M  V30 462 H 43.2788 0.391789 -4.59633 0
M  V30 463 H 41.5218 0.299231 -4.32767 0
M  V30 464 H 42.1928 1.63145 -5.2734 0
M  V30 465 H 44.6688 2.30129 -3.4667 0
M  V30 466 H 43.5448 3.39582 -4.31249 0
M  V30 467 H 43.8058 3.58588 -2.58586 0
M  V30 468 N 42.8649 1.48995 0.513639 0
M  V30 469 C 44.2759 1.5119 1.09537 0
M  V30 470 C 44.6269 0.290906 1.94031 0
M  V30 471 O 43.7519 -0.60049 2.07902 0
M  V30 472 C 44.3469 2.73964 1.99322 0
M  V30 473 C 42.9059 2.78978 2.52682 0
M  V30 474 C 42.0529 2.44934 1.30009 0
M  V30 475 H 45.0039 1.55875 0.298125 0
M  V30 476 H 45.0249 2.53409 2.83838 0
M  V30 477 H 44.5369 3.62813 1.37799 0
M  V30 478 H 42.6379 1.94378 3.1788 0
M  V30 479 H 42.7509 3.8083 2.90698 0
M  V30 480 H 41.1149 1.9644 1.62122 0
M  V30 481 H 41.8979 3.36043 0.702131 0
M  V30 482 N 44.343 -0.763751 1.37857 0
M  V30 483 C 45.573 -1.55067 1.3652 0
M  V30 484 C 45.981 -1.89135 -0.0494227 0
M  V30 485 O 45.324 -1.52529 -1.02375 0
M  V30 486 C 45.386 -2.8838 2.14656 0
M  V30 487 C 45.05 -2.76905 3.63555 0
M  V30 488 C 46.047 -2.4739 4.57268 0
M  V30 489 C 43.732 -2.94676 4.06781 0
M  V30 490 C 45.726 -2.35786 5.92186 0
M  V30 491 C 43.413 -2.82692 5.41782 0
M  V30 492 C 44.411 -2.53289 6.34298 0
M  V30 493 O 44.099 -2.41345 7.66817 0
M  V30 494 H 43.831 -0.486776 0.469069 0
M  V30 495 H 46.385 -0.953812 1.81911 0
M  V30 496 H 44.615 -3.50217 1.63967 0
M  V30 497 H 46.304 -3.49828 2.05852 0
M  V30 498 H 47.07 -2.33339 4.2518 0
M  V30 499 H 42.949 -3.16563 3.35126 0
M  V30 500 H 46.493 -2.12757 6.64365 0
M  V30 501 H 42.39 -2.96314 5.7347 0
M  V30 502 H 43.158 -2.56634 7.77226 0
M  V30 503 N 45.8211 -1.22559 -0.990812 0
M  V30 504 C 47.0981 -0.959875 -1.70428 0
M  V30 505 C 47.4781 0.524455 -2.04481 0
M  V30 506 O 46.8261 1.49302 -1.72977 0
M  V30 507 C 47.0361 -1.85955 -2.95333 0
M  V30 508 C 48.3841 -2.11687 -3.68068 0
M  V30 509 O 49.4081 -1.8342 -3.05345 0
M  V30 510 O 48.2671 -2.59572 -4.80921 0
M  V30 511 H 45.3611 -0.361154 -0.743974 0
M  V30 512 H 47.9071 -1.33554 -1.04697 0
M  V30 513 H 46.6791 -2.86346 -2.66687 0
M  V30 514 H 46.3021 -1.4856 -3.68803 0
M  V30 515 N 47.2992 1.18797 -1.03562 0
M  V30 516 C 48.2622 2.20464 -0.626769 0
M  V30 517 C 49.2622 1.57721 0.313173 0
M  V30 518 O 50.4522 1.73917 0.0992615 0
M  V30 519 C 47.5842 3.40802 0.0818498 0
M  V30 520 H 48.7772 2.58149 -1.5264 0
M  V30 521 H 46.3302 1.32593 -0.827578 0
M  V30 522 H 47.0652 3.08642 0.995518 0
M  V30 523 H 46.8502 3.8758 -0.593652 0
M  V30 524 H 48.3402 4.16092 0.354584 0
M  V30 525 N 48.7773 0.814389 1.34928 0
M  V30 526 C 50.0053 0.411136 2.02774 0
M  V30 527 C 50.4203 -0.980316 1.61354 0
M  V30 528 O 49.7773 -1.63299 0.814847 0
M  V30 529 C 49.8283 0.493865 3.58111 0
M  V30 530 O 49.5493 1.83047 3.98027 0
M  V30 531 C 51.0503 0.0844174 4.4322 0
M  V30 532 H 48.2703 0.166037 0.650133 0
M  V30 533 H 50.8143 1.10018 1.72384 0
M  V30 534 H 48.9693 -0.147006 3.87121 0
M  V30 535 H 49.3833 1.79872 4.92693 0
M  V30 536 H 50.8573 0.193404 5.51661 0
M  V30 537 H 51.3343 -0.97113 4.28329 0
M  V30 538 H 51.9403 0.69875 4.19521 0
M  V30 539 N 50.2554 -1.46986 0.568584 0
M  V30 540 C 51.4834 -2.0683 0.0539956 0
M  V30 541 C 51.8984 -1.41953 -1.24478 0
M  V30 542 O 51.2554 -0.519933 -1.74937 0
M  V30 543 C 51.3064 -3.61254 -0.133362 0
M  V30 544 O 51.0274 -4.237 1.11399 0
M  V30 545 C 52.5284 -4.37992 -0.683927 0
M  V30 546 H 49.7484 -0.669058 0.0510141 0
M  V30 547 H 52.2924 -1.88824 0.785234 0
M  V30 548 H 50.4474 -3.78735 -0.81477 0
M  V30 549 H 50.8614 -5.16388 0.91888 0
M  V30 550 H 52.3354 -5.46684 -0.764263 0
M  V30 551 H 52.8124 -4.05058 -1.69778 0
M  V30 552 H 53.4184 -4.25283 -0.0378494 0
M  V30 553 N 51.7335 -0.305618 -1.54608 0
M  V30 554 C 52.9585 0.307562 -2.05107 0
M  V30 555 C 53.3835 1.46385 -1.18123 0
M  V30 556 O 52.7415 1.8034 -0.186324 0
M  V30 557 C 52.7895 0.73704 -3.52987 0
M  V30 558 O 51.8935 1.84134 -3.6901 0
M  V30 559 H 51.2345 0.0589143 -0.661381 0
M  V30 560 H 53.7645 -0.448807 -1.99617 0
M  V30 561 H 53.7745 1.02459 -3.94925 0
M  V30 562 H 52.4495 -0.108773 -4.15758 0
M  V30 563 H 51.0265 1.55398 -3.38978 0
M  V30 564 N 53.2116 1.57565 -0.0334293 0
M  V30 565 C 54.1416 2.13511 0.945265 0
M  V30 566 C 55.1226 1.05231 1.33643 0
M  V30 567 O 56.3076 1.33084 1.41429 0
M  V30 568 C 53.4376 2.6657 2.22616 0
M  V30 569 C 52.3916 3.79676 1.97561 0
M  V30 570 C 51.7176 4.1918 3.31952 0
M  V30 571 C 53.0176 5.0557 1.31135 0
M  V30 572 H 54.7116 2.95538 0.479325 0
M  V30 573 H 52.2576 1.42166 0.229115 0
M  V30 574 H 54.2106 3.04344 2.91466 0
M  V30 575 H 52.9346 1.8171 2.71384 0
M  V30 576 H 51.5936 3.42347 1.31127 0
M  V30 577 H 51.2416 3.31296 3.78487 0
M  V30 578 H 50.9416 4.95402 3.15992 0
M  V30 579 H 52.4656 4.59541 4.02063 0
M  V30 580 H 53.8796 5.40903 1.89992 0
M  V30 581 H 52.2766 5.86818 1.25559 0
M  V30 582 H 53.3466 4.84062 0.284894 0
M  V30 583 N 54.6897 -0.239769 1.55765 0
M  V30 584 C 55.6197 -1.30052 1.9393 0
M  V30 585 C 56.6007 -1.49839 0.805132 0
M  V30 586 O 57.7857 -1.62328 1.06599 0
M  V30 587 C 54.9157 -2.65391 2.2402 0
M  V30 588 C 53.8697 -2.60289 3.39755 0
M  V30 589 C 53.1957 -3.99489 3.55405 0
M  V30 590 C 54.4957 -2.16654 4.75246 0
M  V30 591 H 56.1897 -0.983573 2.82783 0
M  V30 592 H 53.7357 -0.471701 1.36055 0
M  V30 593 H 55.6887 -3.3974 2.49308 0
M  V30 594 H 54.4127 -2.98736 1.32 0
M  V30 595 H 53.0717 -1.88398 3.14487 0
M  V30 596 H 52.7197 -4.30112 2.60793 0
M  V30 597 H 52.4197 -3.96962 4.33238 0
M  V30 598 H 53.9437 -4.75528 3.83022 0
M  V30 599 H 55.3577 -2.80737 4.99859 0
M  V30 600 H 53.7547 -2.25223 5.56232 0
M  V30 601 H 54.8247 -1.11835 4.71827 0
M  V30 602 N 56.1678 -1.49265 -0.50573 0
M  V30 603 C 57.4448 -1.49012 -1.26707 0
M  V30 604 C 57.8248 -0.215205 -2.1 0
M  V30 605 O 57.1728 0.802547 -2.13943 0
M  V30 606 C 57.3828 -2.7663 -2.12783 0
M  V30 607 C 58.7308 -3.25932 -2.72127 0
M  V30 608 O 59.7548 -2.77715 -2.23054 0
M  V30 609 O 58.6138 -4.09897 -3.61451 0
M  V30 610 H 55.7078 -0.596197 -0.57313 0
M  V30 611 H 58.2538 -1.61524 -0.52039 0
M  V30 612 H 57.0258 -3.60916 -1.5118 0
M  V30 613 H 56.6488 -2.66956 -2.94653 0
M  V30 614 N 57.6459 0.756429 -1.3826 0
M  V30 615 C 58.6089 1.85176 -1.35065 0
M  V30 616 C 59.6089 1.58818 -0.251703 0
M  V30 617 O 60.7989 1.66615 -0.508433 0
M  V30 618 C 57.9309 3.22596 -1.10201 0
M  V30 619 H 59.1239 1.89417 -2.3251 0
M  V30 620 H 56.6769 0.95783 -1.23512 0
M  V30 621 H 57.4119 3.24025 -0.133504 0
M  V30 622 H 57.1969 3.43122 -1.89762 0
M  V30 623 H 58.6869 4.02673 -1.10654 0
M  V30 624 N 59.124 1.23083 0.984299 0
M  V30 625 C 60.054 1.03292 2.09411 0
M  V30 626 C 61.035 -0.048923 1.7003 0
M  V30 627 O 62.22 0.114967 1.93859 0
M  V30 628 C 59.35 0.619155 3.41736 0
M  V30 629 C 58.304 1.64791 3.95004 0
M  V30 630 C 57.63 1.0897 5.23478 0
M  V30 631 C 58.93 3.03999 4.24714 0
M  V30 632 H 60.624 1.96119 2.26225 0
M  V30 633 H 58.17 0.944344 1.08711 0
M  V30 634 H 60.123 0.467777 4.18796 0
M  V30 635 H 58.847 -0.344786 3.24775 0
M  V30 636 H 57.506 1.78721 3.20085 0
M  V30 637 H 57.154 0.11686 5.02864 0
M  V30 638 H 56.854 1.77704 5.60085 0
M  V30 639 H 58.378 0.950093 6.03163 0
M  V30 640 H 59.792 2.93393 4.92538 0
M  V30 641 H 58.189 3.69936 4.72512 0
M  V30 642 H 59.259 3.53285 3.32142 0
M  V30 643 N 60.6021 -1.18246 1.0419 0
M  V30 644 C 61.8501 -1.87886 0.744543 0
M  V30 645 C 62.1711 -1.8082 -0.730006 0
M  V30 646 O 61.4411 -1.22736 -1.52685 0
M  V30 647 H 60.0211 -0.695556 0.272417 0
M  V30 648 H 62.6831 -1.43494 1.31892 0
M  V30 649 H 61.7791 -2.9389 1.05049 0
M  V30 650 N 62.0802 -0.821533 -1.34494 0
M  V30 651 C 63.3102 -0.421272 -2.02259 0
M  V30 652 C 63.7182 0.977047 -1.6202 0
M  V30 653 O 63.0612 1.64348 -0.820703 0
M  V30 654 C 63.1232 -0.44231 -3.56769 0
M  V30 655 C 62.7872 -1.79372 -4.20327 0
M  V30 656 C 63.7842 -2.75435 -4.40944 0
M  V30 657 C 61.4692 -2.08182 -4.57127 0
M  V30 658 C 63.4632 -3.98482 -4.97484 0
M  V30 659 C 61.1502 -3.31489 -5.13379 0
M  V30 660 C 62.1482 -4.26457 -5.33501 0
M  V30 661 O 61.8362 -5.47585 -5.88562 0
M  V30 662 H 61.5682 -0.167473 -0.654927 0
M  V30 663 H 64.1222 -1.11073 -1.72777 0
M  V30 664 H 62.3522 0.303836 -3.85505 0
M  V30 665 H 64.0412 -0.0622925 -4.05852 0
M  V30 666 H 64.8072 -2.54473 -4.12878 0
M  V30 667 H 60.6862 -1.35066 -4.4077 0
M  V30 668 H 64.2302 -4.72618 -5.13106 0
M  V30 669 H 60.1272 -3.52316 -5.40873 0
M  V30 670 H 60.8952 -5.49086 -6.06998 0
M  V30 671 N 63.5583 1.46682 -0.576371 0
M  V30 672 C 64.8073 2.01619 -0.0572825 0
M  V30 673 C 65.1203 1.45417 1.30818 0
M  V30 674 O 66.3263 1.92133 1.91825 0
M  V30 675 C 64.7823 3.59863 -0.0518371 0
M  V30 676 C 64.3903 4.25059 -1.41523 0
M  V30 677 C 66.1343 4.2248 0.413639 0
M  V30 678 C 64.0413 5.75364 -1.36785 0
M  V30 679 H 62.9713 0.753794 -0.0176448 0
M  V30 680 H 65.6223 1.68481 -0.727076 0
M  V30 681 H 64.0043 3.90048 0.683994 0
M  V30 682 H 65.1783 4.06491 -2.17029 0
M  V30 683 H 63.4933 3.7451 -1.8202 0
M  V30 684 H 66.0903 5.3265 0.467779 0
M  V30 685 H 66.4333 3.90976 1.42982 0
M  V30 686 H 66.9663 3.96897 -0.267929 0
M  V30 687 H 63.7053 6.11518 -2.36063 0
M  V30 688 H 63.2253 5.96214 -0.654895 0
M  V30 689 H 64.9043 6.37955 -1.07805 0
M  V30 690 N 65.0364 0.313813 1.54444 0
M  V30 691 C 65.9834 -0.55655 2.23989 0
M  V30 692 C 66.9534 -1.11943 1.22711 0
M  V30 693 O 68.1384 -1.16158 1.51367 0
M  V30 694 C 65.2784 -1.71635 2.99392 0
M  V30 695 C 64.3914 -1.18364 4.15468 0
M  V30 696 C 63.5264 -2.30834 4.78424 0
M  V30 697 C 62.5654 -1.74762 5.86622 0
M  V30 698 N 61.7024 -2.80855 6.43479 0
M  V30 699 H 66.5424 0.0430893 2.97969 0
M  V30 700 H 64.0794 0.0330359 1.47063 0
M  V30 701 H 66.0374 -2.39868 3.41349 0
M  V30 702 H 64.6674 -2.28742 2.27765 0
M  V30 703 H 63.7194 -0.393163 3.78363 0
M  V30 704 H 65.0314 -0.733262 4.93381 0
M  V30 705 H 64.1854 -3.0699 5.23299 0
M  V30 706 H 62.9244 -2.79204 3.99871 0
M  V30 707 H 61.9294 -0.970995 5.41158 0
M  V30 708 H 63.1544 -1.2728 6.67066 0
M  V30 709 H 61.1004 -3.28535 5.67804 0
M  V30 710 H 61.0174 -2.40351 7.16776 0
M  V30 711 H 62.2854 -3.5687 6.93011 0
M  V30 712 N 66.5145 -1.57545 0.0417849 0
M  V30 713 C 67.7915 -1.83642 -0.673433 0
M  V30 714 C 68.1715 -0.928298 -1.89594 0
M  V30 715 O 67.5195 0.0129955 -2.28496 0
M  V30 716 C 67.7295 -3.33155 -1.03964 0
M  V30 717 C 69.0775 -3.99941 -1.42592 0
M  V30 718 O 70.1015 -3.37725 -1.13226 0
M  V30 719 O 68.9605 -5.09619 -1.9736 0
M  V30 720 H 66.0545 -0.757638 -0.331533 0
M  V30 721 H 68.6005 -1.69554 0.070433 0
M  V30 722 H 67.3725 -3.9093 -0.170098 0
M  V30 723 H 66.9955 -3.52396 -1.84126 0
M  V30 724 N 67.9926 0.231505 -1.5589 0
M  V30 725 C 68.9406 1.30649 -1.92441 0
M  V30 726 C 69.9346 1.49037 -0.805254 0
M  V30 727 O 71.1406 1.50329 -0.990007 0
M  V30 728 H 67.5156 0.437812 -0.611412 0
M  V30 729 H 69.4866 0.970973 -2.82161 0
M  V30 730 C 68.2356 2.65179 -2.24889 0
M  V30 731 H 67.5586 2.51835 -3.10514 0
M  V30 732 H 68.9986 3.39234 -2.54355 0
M  V30 733 C 67.4576 3.19439 -1.07054 0
M  V30 734 O 67.9876 4.00371 -0.326499 0
M  V30 735 N 66.1936 2.77675 -0.85703 0
M  V30 736 H 65.7406 2.11969 -1.46379 0
M  V30 737 H 65.6986 3.14321 -0.0703223 0
M  V30 738 N 69.4707 1.49531 0.497807 0
M  V30 739 C 70.4007 1.6935 1.60757 0
M  V30 740 C 71.3817 0.542218 1.61227 0
M  V30 741 O 72.5667 0.778417 1.77917 0
M  V30 742 C 69.6967 1.76298 2.99226 0
M  V30 743 C 68.6507 2.91248 3.13622 0
M  V30 744 C 67.9767 2.83312 4.53474 0
M  V30 745 C 69.2767 4.3214 2.93346 0
M  V30 746 H 70.9707 2.62263 1.44425 0
M  V30 747 H 68.5167 1.26208 0.693367 0
M  V30 748 H 70.4697 1.88749 3.76765 0
M  V30 749 H 69.1937 0.799871 3.16654 0
M  V30 750 H 67.8527 2.78404 2.38509 0
M  V30 751 H 67.5007 1.84902 4.67782 0
M  V30 752 H 67.2007 3.60465 4.64046 0
M  V30 753 H 68.7247 2.97775 5.33069 0
M  V30 754 H 70.1387 4.45649 3.60652 0
M  V30 755 H 68.5357 5.1054 3.15387 0
M  V30 756 H 69.6057 4.46363 1.89441 0
M  V30 757 N 70.9488 -0.749086 1.3866 0
M  V30 758 C 71.9118 -1.84457 1.36045 0
M  V30 759 C 72.9118 -1.58682 0.260122 0
M  V30 760 O 74.1018 -1.66343 0.517261 0
M  V30 761 C 71.2338 -3.22008 1.11911 0
M  V30 762 H 72.4268 -1.88182 2.33512 0
M  V30 763 H 69.9798 -0.951266 1.24019 0
M  V30 764 H 70.7148 -3.2395 0.150686 0
M  V30 765 H 70.4998 -3.42111 1.91579 0
M  V30 766 H 71.9898 -4.0208 1.12788 0
M  V30 767 N 72.4269 -1.23603 -0.977757 0
M  V30 768 C 73.8379 -1.06424 -1.53398 0
M  V30 769 C 74.1889 0.367578 -1.92726 0
M  V30 770 O 73.3139 1.25465 -1.76316 0
M  V30 771 C 73.9089 -1.92568 -2.78753 0
M  V30 772 C 72.4679 -1.79642 -3.30765 0
M  V30 773 C 71.6149 -1.88111 -2.03739 0
M  V30 774 H 74.5659 -1.37227 -0.797152 0
M  V30 775 H 74.5869 -1.45203 -3.51705 0
M  V30 776 H 74.0989 -2.96771 -2.50098 0
M  V30 777 H 72.1999 -0.782325 -3.64294 0
M  V30 778 H 72.3129 -2.63174 -4.00345 0
M  V30 779 H 70.6769 -1.31723 -2.17994 0
M  V30 780 H 71.4599 -2.93875 -1.77461 0
M  V30 781 N 73.905 1.17692 -1.04816 0
M  V30 782 C 75.182 1.83768 -0.669963 0
M  V30 783 C 75.562 1.93232 0.849986 0
M  V30 784 O 74.91 1.46397 1.75443 0
M  V30 785 C 75.12 3.21641 -1.35455 0
M  V30 786 C 76.468 3.97592 -1.49017 0
M  V30 787 O 77.492 3.31107 -1.31326 0
M  V30 788 O 76.351 5.16729 -1.77914 0
M  V30 789 H 73.445 0.792799 -0.235368 0
M  V30 790 H 75.991 1.25021 -1.14751 0
M  V30 791 H 74.763 3.097 -2.39168 0
M  V30 792 H 74.386 3.88052 -0.866107 0
M  V30 793 N 75.3831 0.828654 1.34056 0
M  V30 794 C 76.3131 0.269443 2.3194 0
M  V30 795 C 77.2941 -0.617247 1.58506 0
M  V30 796 O 78.4791 -0.542931 1.86456 0
M  V30 797 C 75.6091 -0.564793 3.42677 0
M  V30 798 C 74.5631 0.225241 4.27407 0
M  V30 799 C 73.8891 -0.7321 5.29664 0
M  V30 800 C 75.1891 1.43663 5.02154 0
M  V30 801 H 76.8831 1.08728 2.7896 0
M  V30 802 H 74.4291 0.524283 1.34117 0
M  V30 803 H 76.3821 -0.966233 4.10173 0
M  V30 804 H 75.1061 -1.41574 2.9432 0
M  V30 805 H 73.7651 0.608117 3.61521 0
M  V30 806 H 73.4131 -1.57916 4.77568 0
M  V30 807 H 73.1131 -0.20767 5.87233 0
M  V30 808 H 74.6371 -1.13128 6.00029 0
M  V30 809 H 76.0511 1.1089 5.62473 0
M  V30 810 H 74.4481 1.89711 5.69324 0
M  V30 811 H 75.5181 2.21181 4.31517 0
M  V30 812 N 76.8612 -1.46375 0.584142 0
M  V30 813 C 78.0862 -2.07268 0.0740405 0
M  V30 814 C 78.5112 -1.42979 -1.22223 0
M  V30 815 O 77.8692 -0.514092 -1.73859 0
M  V30 816 C 77.9172 -3.60518 -0.0767769 0
M  V30 817 O 77.0212 -3.96533 -1.13292 0
M  V30 818 H 76.3622 -0.660961 0.0634524 0
M  V30 819 H 78.8922 -1.87991 0.807492 0
M  V30 820 H 78.9022 -4.07021 -0.282489 0
M  V30 821 H 77.5772 -4.06702 0.86986 0
M  V30 822 H 76.1542 -3.61738 -0.905553 0
M  V30 823 N 78.3393 -0.321999 -1.54275 0
M  V30 824 C 79.5693 0.282642 -2.04658 0
M  V30 825 C 79.9773 1.46453 -1.19784 0
M  V30 826 O 79.3203 1.82367 -0.220932 0
M  V30 827 C 79.3823 0.781857 -3.50895 0
M  V30 828 C 79.0463 -0.277517 -4.56157 0
M  V30 829 C 80.0433 -1.11307 -5.07845 0
M  V30 830 C 77.7283 -0.425256 -5.00497 0
M  V30 831 C 79.7223 -2.08211 -6.02434 0
M  V30 832 C 77.4093 -1.39771 -5.94901 0
M  V30 833 C 78.4073 -2.2246 -6.45756 0
M  V30 834 O 78.0953 -3.18054 -7.38307 0
M  V30 835 H 77.8273 0.0622636 -0.673126 0
M  V30 836 H 80.3813 -0.465792 -2.00049 0
M  V30 837 H 78.6113 1.58118 -3.52896 0
M  V30 838 H 80.3003 1.30467 -3.84361 0
M  V30 839 H 81.0663 -1.00991 -4.74369 0
M  V30 840 H 76.9453 0.20847 -4.60528 0
M  V30 841 H 80.4893 -2.72791 -6.42052 0
M  V30 842 H 76.3863 -1.50152 -6.27794 0
M  V30 843 H 77.1543 -3.13275 -7.56175 0
M  V30 844 N 79.8174 1.5752 -0.0501392 0
M  V30 845 C 81.2334 1.56631 0.306402 0
M  V30 846 C 81.4334 1.0577 1.71508 0
M  V30 847 O 80.4894 0.713837 2.422 0
M  V30 848 C 81.8024 3.00393 0.135811 0
M  V30 849 C 83.3504 3.12315 0.206993 0
M  V30 850 C 83.8254 4.57954 0.064944 0
M  V30 851 N 85.3164 4.63041 0.121254 0
M  V30 852 C 86.0514 5.73389 0.0354381 0
M  V30 853 N 85.5474 6.92724 -0.102666 0
M  V30 854 N 87.3404 5.62026 0.090946 0
M  V30 855 H 79.4914 1.88903 -0.971046 0
M  V30 856 H 81.7544 0.869876 -0.376855 0
M  V30 857 H 81.4604 3.41635 -0.835384 0
M  V30 858 H 81.3344 3.66373 0.897275 0
M  V30 859 H 83.7214 2.70973 1.16866 0
M  V30 860 H 83.8024 2.49016 -0.585208 0
M  V30 861 H 83.4464 4.99981 -0.893394 0
M  V30 862 H 83.3764 5.19258 0.876277 0
M  V30 863 H 85.8674 3.77216 0.227284 0
M  V30 864 H 86.1804 7.72633 -0.160882 0
M  V30 865 H 84.5254 6.94864 -0.137737 0
M  V30 866 H 87.7164 4.67684 0.197388 0
M  V30 867 H 87.8894 6.47997 0.0206089 0
M  V30 868 N 81.2955 -0.223234 1.56011 0
M  V30 869 C 82.5415 -0.944891 1.8012 0
M  V30 870 C 82.8965 -1.82039 0.622862 0
M  V30 871 O 82.1895 -1.8773 -0.383143 0
M  V30 872 C 82.3835 -1.81948 3.0762 0
M  V30 873 C 82.2125 -1.03014 4.37742 0
M  V30 874 C 80.9825 -0.72574 5.00061 0
M  V30 875 C 83.1805 -0.396256 5.12771 0
M  V30 876 N 81.1625 0.0851816 6.13841 0
M  V30 877 C 82.5335 0.278137 6.19376 0
M  V30 878 C 84.5885 -0.309117 4.9694 0
M  V30 879 C 83.2915 1.03133 7.11868 0
M  V30 880 C 85.3175 0.430607 5.8983 0
M  V30 881 C 84.6795 1.09355 6.9586 0
M  V30 882 H 80.7785 -0.326081 0.710771 0
M  V30 883 H 83.3625 -0.215914 1.93499 0
M  V30 884 H 81.5335 -2.52029 2.95527 0
M  V30 885 H 83.2655 -2.47848 3.19927 0
M  V30 886 H 80.0205 -1.04335 4.61964 0
M  V30 887 H 80.4445 0.479428 6.753 0
M  V30 888 H 85.0865 -0.807313 4.15021 0
M  V30 889 H 82.8045 1.54105 7.9327 0
M  V30 890 H 86.3905 0.499012 5.79656 0
M  V30 891 H 85.2705 1.65679 7.66499 0
M  V30 892 N 82.7736 -1.49793 -0.48987 0
M  V30 893 C 83.9986 -1.63836 -1.27172 0
M  V30 894 C 84.4236 -0.31402 -1.8546 0
M  V30 895 O 83.7816 0.719803 -1.66399 0
M  V30 896 C 83.8296 -2.71797 -2.36978 0
M  V30 897 O 82.9336 -2.31744 -3.41128 0
M  V30 898 H 82.2746 -0.547997 -0.37496 0
M  V30 899 H 84.8046 -1.96053 -0.585191 0
M  V30 900 H 84.8146 -2.94305 -2.82575 0
M  V30 901 H 83.4896 -3.67923 -1.93921 0
M  V30 902 H 82.0666 -2.1961 -3.01373 0
M  V30 903 N 84.2517 0.741722 -1.39055 0
M  V30 904 C 85.4917 1.51385 -1.37338 0
M  V30 905 C 85.8557 1.91972 0.0330513 0
M  V30 906 O 87.0567 2.68229 0.175174 0
M  V30 907 C 85.3277 2.72481 -2.31276 0
M  V30 908 S 86.8867 3.62211 -2.47687 0
M  V30 909 H 83.7047 0.517906 -0.487129 0
M  V30 910 H 86.3067 0.86969 -1.7509 0
M  V30 911 H 85.0107 2.40793 -3.32336 0
M  V30 912 H 84.5417 3.41832 -1.94716 0
M  V30 913 H 86.5567 4.65812 -1.70978 0
M  V30 914 N 85.7298 1.2412 0.971189 0
M  V30 915 C 87.1458 1.00584 1.23916 0
M  V30 916 C 87.3458 -0.287481 1.99439 0
M  V30 917 O 86.4018 -1.00454 2.31658 0
M  V30 918 C 87.7148 2.21864 2.0297 0
M  V30 919 C 89.2628 2.26452 2.16076 0
M  V30 920 C 89.7378 3.47343 2.98524 0
M  V30 921 N 91.2288 3.47639 3.06107 0
M  V30 922 C 91.9638 4.37837 3.70251 0
M  V30 923 N 91.4598 5.38286 4.36142 0
M  V30 924 N 93.2528 4.25558 3.67228 0
M  V30 925 H 85.4038 2.07236 0.465499 0
M  V30 926 H 87.6668 0.909236 0.268315 0
M  V30 927 H 87.3728 3.15771 1.54861 0
M  V30 928 H 87.2468 2.23698 3.03709 0
M  V30 929 H 89.6338 1.33078 2.6339 0
M  V30 930 H 89.7148 2.28645 1.14696 0
M  V30 931 H 89.3588 4.41029 2.51905 0
M  V30 932 H 89.2888 3.42393 4.00093 0
M  V30 933 H 91.7798 2.74966 2.59233 0
M  V30 934 H 92.0928 6.03352 4.82894 0
M  V30 935 H 90.4378 5.42176 4.34822 0
M  V30 936 H 93.6288 3.46322 3.14927 0
M  V30 937 H 93.8018 4.96054 4.16935 0
M  V30 938 N 87.2079 -1.17134 1.05439 0
M  V30 939 C 88.1409 -2.2012 0.601855 0
M  V30 940 C 89.1189 -1.58314 -0.370854 0
M  V30 941 O 90.3029 -1.8638 -0.281882 0
M  V30 942 C 87.4299 -3.38491 -0.118868 0
M  V30 943 C 86.4759 -4.18752 0.809242 0
M  V30 944 S 87.3089 -4.83602 2.29977 0
M  V30 945 C 88.4649 -6.0536 1.59029 0
M  V30 946 H 88.6979 -2.58165 1.47438 0
M  V30 947 H 86.2309 -1.27788 0.866573 0
M  V30 948 H 88.1889 -4.07084 -0.528495 0
M  V30 949 H 86.8499 -2.98829 -0.967465 0
M  V30 950 H 86.0429 -5.03373 0.251379 0
M  V30 951 H 85.6449 -3.5561 1.15835 0
M  V30 952 H 87.9369 -6.71615 0.891017 0
M  V30 953 H 88.8799 -6.65679 2.41407 0
M  V30 954 H 89.2879 -5.54138 1.07663 0
M  V30 955 N 88.686 -0.835752 -1.33615 0
M  V30 956 C 89.649 -0.272 -2.2758 0
M  V30 957 C 90.649 0.557487 -1.50827 0
M  V30 958 O 91.839 0.37173 -1.70188 0
M  V30 959 C 88.971 0.617173 -3.35267 0
M  V30 960 H 90.164 -1.10111 -2.78954 0
M  V30 961 H 87.717 -0.608594 -1.43965 0
M  V30 962 H 88.452 1.46884 -2.89129 0
M  V30 963 H 88.237 0.0237066 -3.92093 0
M  V30 964 H 89.727 1.005 -4.05326 0
M  V30 965 N 90.1641 1.46063 -0.591896 0
M  V30 966 C 91.4131 2.01547 -0.0786637 0
M  V30 967 C 91.7261 1.46796 1.29268 0
M  V30 968 O 92.9321 1.94157 1.89777 0
M  V30 969 C 91.3881 3.59787 -0.0900024 0
M  V30 970 C 90.9961 4.23534 -1.46023 0
M  V30 971 C 92.7401 4.22895 0.368806 0
M  V30 972 C 90.6471 5.73881 -1.4288 0
M  V30 973 H 89.5771 0.753564 -0.0256388 0
M  V30 974 H 92.2281 1.677 -0.744905 0
M  V30 975 H 90.6101 3.90752 0.642586 0
M  V30 976 H 91.7841 4.04167 -2.21328 0
M  V30 977 H 90.0991 3.72558 -1.85982 0
M  V30 978 H 92.6961 5.33116 0.411258 0
M  V30 979 H 93.0391 3.9247 1.38827 0
M  V30 980 H 93.5721 3.9659 -0.31001 0
M  V30 981 H 90.3111 6.0898 -2.42536 0
M  V30 982 H 89.8311 5.95486 -0.718095 0
M  V30 983 H 91.5101 6.36776 -1.14565 0
M  V30 984 N 91.6422 0.330177 1.54103 0
M  V30 985 C 92.8822 -0.270916 2.02597 0
M  V30 986 C 93.2462 -1.48826 1.21304 0
M  V30 987 O 94.4472 -2.16266 1.59633 0
M  V30 988 C 92.7182 -0.590328 3.52491 0
M  V30 989 S 94.2772 -1.17014 4.2291 0
M  V30 990 H 91.0952 -0.0815379 0.706309 0
M  V30 991 H 93.6972 0.464835 1.89893 0
M  V30 992 H 92.4012 0.303691 4.09275 0
M  V30 993 H 91.9322 -1.3561 3.69288 0
M  V30 994 H 93.9472 -2.45662 4.3112 0
M  V30 995 N 93.1203 -1.57491 0.0584922 0
M  V30 996 C 94.3683 -1.92597 -0.612436 0
M  V30 997 C 94.6893 -0.938162 -1.70949 0
M  V30 998 O 93.9593 0.0158301 -1.95894 0
M  V30 999 H 92.5393 -0.710964 -0.229214 0
M  V30 1000 H 95.2013 -1.94571 0.113218 0
M  V30 1001 H 94.2973 -2.94038 -1.04633 0
M  V30 1002 N 94.5984 0.214957 -1.56127 0
M  V30 1003 C 95.8234 0.95924 -1.83884 0
M  V30 1004 C 96.2484 1.7689 -0.639644 0
M  V30 1005 O 95.6064 1.76566 0.411601 0
M  V30 1006 C 95.6544 1.84723 -3.09693 0
M  V30 1007 O 94.7584 2.94346 -2.8885 0
M  V30 1008 H 94.0994 0.27125 -0.606069 0
M  V30 1009 H 96.6294 0.226276 -2.03345 0
M  V30 1010 H 96.6394 2.25576 -3.39969 0
M  V30 1011 H 95.3144 1.25218 -3.96602 0
M  V30 1012 H 93.8914 2.57391 -2.69823 0
M  V30 1013 N 96.0765 1.50051 0.48192 0
M  V30 1014 C 97.3165 1.62128 1.24474 0
M  V30 1015 C 97.6805 0.309742 1.89485 0
M  V30 1016 O 98.8815 0.305854 2.67054 0
M  V30 1017 C 97.1525 2.76151 2.26882 0
M  V30 1018 S 98.7115 3.08297 3.12247 0
M  V30 1019 H 95.5295 0.571661 0.422759 0
M  V30 1020 H 98.1315 1.87791 0.54359 0
M  V30 1021 H 96.8355 3.69942 1.77683 0
M  V30 1022 H 96.3665 2.52541 3.0164 0
M  V30 1023 H 98.3815 2.51287 4.27866 0
M  V30 1024 N 97.5546 -0.734337 1.39446 0
M  V30 1025 C 98.8026 -1.49096 1.36436 0
M  V30 1026 C 99.1236 -1.94961 -0.0388255 0
M  V30 1027 O 98.3936 -1.69033 -0.990191 0
M  V30 1028 H 96.9736 -0.5531 0.502085 0
M  V30 1029 H 99.6356 -0.871725 1.74319 0
M  V30 1030 H 98.7316 -2.37276 2.02747 0
M  V30 1031 N 99.0327 -1.24633 -0.964593 0
M  V30 1032 C 99.9657 -0.984662 -2.05863 0
M  V30 1033 C 100.944 0.0826554 -1.6239 0
M  V30 1034 O 102.128 -0.0549296 -1.8842 0
M  V30 1035 C 99.2547 -0.486529 -3.35187 0
M  V30 1036 C 98.3007 -1.54286 -3.97615 0
M  V30 1037 S 99.1337 -3.12513 -4.34851 0
M  V30 1038 C 100.29 -2.6441 -5.67308 0
M  V30 1039 H 100.523 -1.91104 -2.27743 0
M  V30 1040 H 98.0557 -1.08052 -1.10291 0
M  V30 1041 H 100.014 -0.205757 -4.09984 0
M  V30 1042 H 98.6747 0.419186 -3.1129 0
M  V30 1043 H 97.8677 -1.14481 -4.90826 0
M  V30 1044 H 97.4697 -1.7738 -3.2926 0
M  V30 1045 H 99.7617 -2.07416 -6.44969 0
M  V30 1046 H 100.705 -3.56222 -6.11973 0
M  V30 1047 H 101.113 -2.04734 -5.26065 0
M  V30 1048 N 100.511 1.16574 -1.06058 0
M  V30 1049 C 101.444 2.19798 -0.61352 0
M  V30 1050 C 102.422 1.58509 0.362453 0
M  V30 1051 O 103.606 1.86527 0.271994 0
M  V30 1052 C 100.733 3.3855 0.100915 0
M  V30 1053 C 99.7788 4.18317 -0.831438 0
M  V30 1054 S 100.612 4.82375 -2.32539 0
M  V30 1055 C 101.768 6.04508 -1.62238 0
M  V30 1056 H 102.001 2.5738 -1.48805 0
M  V30 1057 H 99.5338 1.27327 -0.873338 0
M  V30 1058 H 101.492 4.07358 0.506898 0
M  V30 1059 H 100.153 2.99338 0.951604 0
M  V30 1060 H 99.3458 5.03232 -0.278071 0
M  V30 1061 H 98.9478 3.5499 -1.17719 0
M  V30 1062 H 101.24 6.71133 -0.926622 0
M  V30 1063 H 102.183 6.64389 -2.44934 0
M  V30 1064 H 102.591 5.53559 -1.106 0
M  V30 1065 N 101.989 0.842826 1.3317 0
M  V30 1066 C 103.235 0.441099 1.97945 0
M  V30 1067 C 103.568 -0.998024 1.66593 0
M  V30 1068 O 102.843 -1.69839 0.947898 0
M  V30 1069 C 103.126 0.666841 3.53872 0
M  V30 1070 C 102.979 2.15352 3.94897 0
M  V30 1071 C 104.298 0.115544 4.39948 0
M  V30 1072 H 101.417 0.161739 0.719034 0
M  V30 1073 H 104.059 1.05907 1.57746 0
M  V30 1074 H 102.209 0.140828 3.88245 0
M  V30 1075 H 103.881 2.7447 3.70761 0
M  V30 1076 H 102.124 2.63653 3.44484 0
M  V30 1077 H 102.795 2.26221 5.03516 0
M  V30 1078 H 105.271 0.565213 4.12243 0
M  V30 1079 H 104.147 0.303152 5.48062 0
M  V30 1080 H 104.408 -0.980935 4.3108 0
M  V30 1081 N 103.467 -1.45747 0.599634 0
M  V30 1082 C 104.415 -2.322 -0.136426 0
M  V30 1083 C 105.409 -1.45497 -0.867583 0
M  V30 1084 O 106.615 -1.62027 -0.78405 0
M  V30 1085 H 102.99 -0.749368 -0.0628588 0
M  V30 1086 H 104.961 -2.92072 0.611281 0
M  V30 1087 C 103.71 -3.28974 -1.12567 0
M  V30 1088 H 103.033 -3.9568 -0.572484 0
M  V30 1089 H 104.473 -3.92212 -1.61077 0
M  V30 1090 C 102.932 -2.55561 -2.19523 0
M  V30 1091 O 103.462 -2.33111 -3.27143 0
M  V30 1092 N 101.668 -2.15832 -1.94589 0
M  V30 1093 H 101.215 -2.3429 -1.07078 0
M  V30 1094 H 101.173 -1.67034 -2.66359 0
M  V30 1095 N 104.945 -0.338344 -1.53925 0
M  V30 1096 C 105.893 0.536231 -2.26335 0
M  V30 1097 C 106.887 1.1063 -1.28286 0
M  V30 1098 O 108.093 1.05264 -1.46012 0
M  V30 1099 H 104.468 0.191602 -0.727181 0
M  V30 1100 H 106.439 -0.0965747 -2.98244 0
M  V30 1101 C 105.188 1.67803 -3.04528 0
M  V30 1102 H 104.511 1.24864 -3.79801 0
M  V30 1103 H 105.951 2.26526 -3.58416 0
M  V30 1104 C 104.41 2.60439 -2.13712 0
M  V30 1105 O 104.94 3.6255 -1.72975 0
M  V30 1106 N 103.146 2.29006 -1.78898 0
M  V30 1107 H 102.693 1.46011 -2.12223 0
M  V30 1108 H 102.651 2.91248 -1.18416 0
M  V30 1109 N 106.423 1.57458 -0.0668435 0
M  V30 1110 C 107.669 1.93587 0.6043 0
M  V30 1111 C 108.002 0.946722 1.69561 0
M  V30 1112 O 107.277 -0.0248516 1.94484 0
M  V30 1113 C 107.56 3.40014 1.18585 0
M  V30 1114 C 107.413 4.49685 0.101529 0
M  V30 1115 C 108.732 3.87154 2.09284 0
M  V30 1116 H 105.851 0.703958 0.218202 0
M  V30 1117 H 108.493 1.89542 -0.131804 0
M  V30 1118 H 106.643 3.43592 1.81319 0
M  V30 1119 H 108.315 4.5823 -0.531279 0
M  V30 1120 H 106.558 4.30059 -0.568487 0
M  V30 1121 H 107.229 5.49266 0.54874 0
M  V30 1122 H 109.705 3.85551 1.56491 0
M  V30 1123 H 108.581 4.90231 2.46911 0
M  V30 1124 H 108.842 3.2481 2.99918 0
M  V30 1125 N 107.901 -0.206675 1.56239 0
M  V30 1126 C 109.312 -0.772383 1.69974 0
M  V30 1127 C 109.663 -1.84353 0.671436 0
M  V30 1128 O 108.788 -2.15695 -0.174491 0
M  V30 1129 C 109.383 -1.40779 3.08167 0
M  V30 1130 C 107.942 -1.92072 3.23706 0
M  V30 1131 C 107.089 -0.786347 2.65917 0
M  V30 1132 H 110.04 0.0182223 1.5869 0
M  V30 1133 H 110.061 -2.27696 3.04852 0
M  V30 1134 H 109.573 -0.627958 3.82986 0
M  V30 1135 H 107.674 -2.7281 2.53782 0
M  V30 1136 H 107.787 -2.09046 4.31087 0
M  V30 1137 H 106.151 -1.1976 2.24788 0
M  V30 1138 H 106.934 -0.0189416 3.43295 0
M  V30 1139 N 109.379 -1.50304 -0.473955 0
M  V30 1140 C 110.326 -1.68959 -1.57231 0
M  V30 1141 C 111.296 -0.530899 -1.57387 0
M  V30 1142 O 112.481 -0.761133 -1.74961 0
M  V30 1143 C 109.621 -1.7871 -2.95223 0
M  V30 1144 C 108.734 -3.06061 -3.04878 0
M  V30 1145 C 107.869 -3.06626 -4.33767 0
M  V30 1146 C 106.908 -4.28443 -4.37154 0
M  V30 1147 N 106.045 -4.26763 -5.5751 0
M  V30 1148 H 110.885 -2.6273 -1.40631 0
M  V30 1149 H 108.422 -1.30241 -0.683789 0
M  V30 1150 H 110.38 -1.82344 -3.75242 0
M  V30 1151 H 109.01 -0.883806 -3.10465 0
M  V30 1152 H 108.062 -3.11911 -2.17751 0
M  V30 1153 H 109.374 -3.96039 -3.0324 0
M  V30 1154 H 108.528 -3.08973 -5.22131 0
M  V30 1155 H 107.267 -2.14473 -4.3801 0
M  V30 1156 H 106.272 -4.2631 -3.47188 0
M  V30 1157 H 107.497 -5.2182 -4.34605 0
M  V30 1158 H 105.443 -3.37462 -5.62544 0
M  V30 1159 H 105.36 -5.10507 -5.57601 0
M  V30 1160 H 106.628 -4.33253 -6.48006 0
M  V30 1161 N 110.857 0.726932 -1.39834 0
M  V30 1162 C 111.787 1.85405 -1.41941 0
M  V30 1163 C 112.768 1.67751 -0.281728 0
M  V30 1164 O 113.953 1.8795 -0.488717 0
M  V30 1165 C 111.083 3.23243 -1.2701 0
M  V30 1166 C 110.037 3.55549 -2.38262 0
M  V30 1167 C 109.363 4.9241 -2.08415 0
M  V30 1168 C 110.663 3.577 -3.80589 0
M  V30 1169 H 112.357 1.83899 -2.36266 0
M  V30 1170 H 109.903 0.883349 -1.13723 0
M  V30 1171 H 111.856 4.01775 -1.27103 0
M  V30 1172 H 110.58 3.25296 -0.291564 0
M  V30 1173 H 109.239 2.79351 -2.37399 0
M  V30 1174 H 108.887 4.91052 -1.0898 0
M  V30 1175 H 108.587 5.14992 -2.82943 0
M  V30 1176 H 110.111 5.73289 -2.10171 0
M  V30 1177 H 111.525 4.26293 -3.83337 0
M  V30 1178 H 109.922 3.91804 -4.54543 0
M  V30 1179 H 110.992 2.57328 -4.10987 0
M  V30 1180 N 112.336 1.25143 0.95797 0
M  V30 1181 C 113.299 1.05321 2.03569 0
M  V30 1182 C 114.299 0.007152 1.60798 0
M  V30 1183 O 115.489 0.24903 1.72411 0
M  V30 1184 C 112.621 0.598394 3.35607 0
M  V30 1185 H 113.814 2.00986 2.22586 0
M  V30 1186 H 111.367 1.07502 1.13459 0
M  V30 1187 H 112.102 -0.361014 3.22284 0
M  V30 1188 H 111.887 1.35351 3.67998 0
M  V30 1189 H 113.377 0.48104 4.1482 0
M  V30 1190 N 113.814 -1.1601 1.06675 0
M  V30 1191 C 115.054 -1.88304 0.795037 0
M  V30 1192 C 115.418 -1.80062 -0.666466 0
M  V30 1193 O 116.619 -2.47319 -1.05293 0
M  V30 1194 C 114.89 -3.33664 1.28076 0
M  V30 1195 S 116.449 -4.23768 1.13868 0
M  V30 1196 H 113.267 -0.649928 0.288296 0
M  V30 1197 H 115.869 -1.4001 1.36445 0
M  V30 1198 H 114.573 -3.37203 2.33927 0
M  V30 1199 H 114.104 -3.87009 0.706253 0
M  V30 1200 H 116.119 -4.96148 0.0719668 0
M  V30 1201 N 115.292 -0.849877 -1.32721 0
M  V30 1202 C 116.239 -0.289033 -2.28983 0
M  V30 1203 C 117.209 0.601324 -1.54833 0
M  V30 1204 O 118.394 0.537253 -1.8308 0
M  V30 1205 C 115.534 0.520623 -3.4115 0
M  V30 1206 C 114.647 -0.394989 -4.3019 0
M  V30 1207 C 113.782 0.426834 -5.29482 0
M  V30 1208 C 112.821 -0.486476 -6.10164 0
M  V30 1209 N 111.958 0.297879 -7.01468 0
M  V30 1210 H 116.798 -1.11519 -2.76347 0
M  V30 1211 H 114.335 -0.56138 -1.35967 0
M  V30 1212 H 116.293 1.00563 -4.04899 0
M  V30 1213 H 114.923 1.31165 -2.9495 0
M  V30 1214 H 113.975 -0.99836 -3.67065 0
M  V30 1215 H 115.287 -1.09612 -4.86607 0
M  V30 1216 H 114.441 0.975205 -5.98811 0
M  V30 1217 H 113.18 1.16136 -4.73671 0
M  V30 1218 H 112.185 -1.04677 -5.39743 0
M  V30 1219 H 113.41 -1.21953 -6.6806 0
M  V30 1220 H 111.356 1.01558 -6.48091 0
M  V30 1221 H 111.273 -0.344318 -7.55216 0
M  V30 1222 H 112.541 0.828131 -7.75089 0
M  V30 1223 N 116.77 1.45427 -0.607355 0
M  V30 1224 C 117.998 2.06614 -0.108814 0
M  V30 1225 C 118.413 1.45204 1.2067 0
M  V30 1226 O 117.77 0.566132 1.73497 0
M  V30 1227 C 117.821 3.61481 0.0375347 0
M  V30 1228 O 117.542 4.20598 -1.22593 0
M  V30 1229 C 119.043 4.39652 0.567561 0
M  V30 1230 H 116.263 0.66747 -0.0687351 0
M  V30 1231 H 118.807 1.86675 -0.835022 0
M  V30 1232 H 116.962 3.80762 0.714068 0
M  V30 1233 H 117.376 5.1377 -1.05547 0
M  V30 1234 H 118.85 5.48518 0.61905 0
M  V30 1235 H 119.327 4.09417 1.58978 0
M  V30 1236 H 119.933 4.25234 -0.0749202 0
M  V30 1237 N 118.248 0.346503 1.53744 0
M  V30 1238 C 119.495 -0.249104 2.00962 0
M  V30 1239 C 119.823 -1.5032 1.23426 0
M  V30 1240 O 119.078 -1.93217 0.310761 0
M  V30 1241 C 119.377 -0.605809 3.52228 0
M  V30 1242 C 119.043 0.551747 4.47512 0
M  V30 1243 C 117.705 0.86941 4.73281 0
M  V30 1244 C 120.057 1.32818 5.03993 0
M  V30 1245 C 117.385 1.96582 5.52786 0
M  V30 1246 C 119.737 2.41486 5.84694 0
M  V30 1247 C 118.401 2.73808 6.08757 0
M  V30 1248 H 117.671 -0.0911538 0.735372 0
M  V30 1249 H 120.318 0.475027 1.85515 0
M  V30 1250 H 118.623 -1.4107 3.65522 0
M  V30 1251 H 120.32 -1.07858 3.86222 0
M  V30 1252 H 116.91 0.294102 4.2759 0
M  V30 1253 H 121.094 1.09602 4.84047 0
M  V30 1254 H 116.35 2.22045 5.69654 0
M  V30 1255 H 120.524 3.02078 6.27473 0
M  V30 1256 H 118.151 3.58892 6.7015 0
M  V30 1257 N 119.726 -1.57421 0.075193 0
M  V30 1258 C 120.656 -2.15942 -0.888324 0
M  V30 1259 C 121.637 -1.08737 -1.30806 0
M  V30 1260 O 122.822 -1.36787 -1.37851 0
M  V30 1261 C 119.952 -2.72379 -2.1547 0
M  V30 1262 C 118.906 -3.8478 -1.87425 0
M  V30 1263 C 118.232 -4.27834 -3.20721 0
M  V30 1264 C 119.532 -5.08869 -1.17684 0
M  V30 1265 H 121.226 -2.96705 -0.400799 0
M  V30 1266 H 118.772 -1.42723 -0.191342 0
M  V30 1267 H 120.725 -3.11965 -2.83295 0
M  V30 1268 H 119.449 -1.88841 -2.6647 0
M  V30 1269 H 118.108 -3.45703 -1.22004 0
M  V30 1270 H 117.756 -3.41214 -3.6957 0
M  V30 1271 H 117.456 -5.03605 -3.02746 0
M  V30 1272 H 118.98 -4.70039 -3.89738 0
M  V30 1273 H 120.394 -5.4575 -1.75584 0
M  V30 1274 H 118.791 -5.8994 -1.09956 0
M  V30 1275 H 119.861 -4.84648 -0.156453 0
M  V30 1276 N 121.204 0.198386 -1.56346 0
M  V30 1277 C 122.62 0.549085 -1.49857 0
M  V30 1278 C 122.82 1.86016 -0.774611 0
M  V30 1279 O 121.876 2.50416 -0.323776 0
M  V30 1280 C 123.189 0.606868 -2.94512 0
M  V30 1281 C 124.737 0.695925 -3.05165 0
M  V30 1282 C 125.212 0.784848 -4.51225 0
M  V30 1283 N 126.703 0.848463 -4.55363 0
M  V30 1284 C 127.438 0.937378 -5.65686 0
M  V30 1285 N 126.934 0.9888 -6.85707 0
M  V30 1286 N 128.727 0.974312 -5.53592 0
M  V30 1287 H 120.878 -0.661655 -2.01831 0
M  V30 1288 H 123.141 -0.235261 -0.918344 0
M  V30 1289 H 122.847 -0.28732 -3.50524 0
M  V30 1290 H 122.721 1.46268 -3.47686 0
M  V30 1291 H 125.108 1.58055 -2.49204 0
M  V30 1292 H 125.189 -0.186022 -2.55123 0
M  V30 1293 H 124.833 -0.0954072 -5.0781 0
M  V30 1294 H 124.763 1.68255 -4.98997 0
M  V30 1295 H 127.254 0.818103 -3.68938 0
M  V30 1296 H 127.567 1.05707 -7.65536 0
M  V30 1297 H 125.912 0.957534 -6.88372 0
M  V30 1298 H 129.103 0.930954 -4.58749 0
M  V30 1299 H 129.276 1.04015 -6.39597 0
M  V30 1300 N 122.682 1.50554 0.465978 0
M  V30 1301 C 123.959 1.5232 1.22712 0
M  V30 1302 C 124.339 0.270807 2.09356 0
M  V30 1303 O 123.687 -0.745541 2.15995 0
M  V30 1304 C 123.897 2.82175 2.05374 0
M  V30 1305 C 125.245 3.33033 2.6339 0
M  V30 1306 O 126.269 2.83531 2.15612 0
M  V30 1307 O 125.128 4.19336 3.50456 0
M  V30 1308 H 122.222 0.611183 0.557122 0
M  V30 1309 H 124.768 1.62847 0.477381 0
M  V30 1310 H 123.54 3.64797 1.41558 0
M  V30 1311 H 123.163 2.74675 2.87471 0
M  V30 1312 N 124.16 -0.719506 1.40217 0
M  V30 1313 C 125.39 -1.50646 1.41384 0
M  V30 1314 C 125.798 -1.89197 0.0107743 0
M  V30 1315 O 125.141 -1.55709 -0.974708 0
M  V30 1316 C 125.203 -2.81405 2.23722 0
M  V30 1317 C 124.867 -2.65199 3.72181 0
M  V30 1318 C 125.864 -2.32717 4.64907 0
M  V30 1319 C 123.549 -2.81586 4.1595 0
M  V30 1320 C 125.543 -2.16827 5.99387 0
M  V30 1321 C 123.23 -2.65313 5.50502 0
M  V30 1322 C 124.228 -2.32981 6.42035 0
M  V30 1323 O 123.916 -2.16827 7.74107 0
M  V30 1324 H 123.648 -0.471606 0.484318 0
M  V30 1325 H 126.202 -0.895456 1.84853 0
M  V30 1326 H 124.432 -3.44823 1.75026 0
M  V30 1327 H 126.121 -3.43102 2.16878 0
M  V30 1328 H 126.887 -2.19694 4.32388 0
M  V30 1329 H 122.766 -3.0574 3.45027 0
M  V30 1330 H 126.31 -1.91513 6.70797 0
M  V30 1331 H 122.207 -2.7792 5.82607 0
M  V30 1332 H 122.975 -2.31778 7.84998 0
M  V30 1333 N 125.638 -1.25649 -0.95132 0
M  V30 1334 C 126.866 -1.13343 -1.73092 0
M  V30 1335 C 127.281 0.312434 -1.86197 0
M  V30 1336 O 126.638 1.21465 -1.36207 0
M  V30 1337 C 126.689 -1.78602 -3.14299 0
M  V30 1338 O 126.41 -3.17537 -3.01831 0
M  V30 1339 C 127.911 -1.72119 -4.08522 0
M  V30 1340 H 125.131 -0.395181 -0.542285 0
M  V30 1341 H 127.675 -1.66076 -1.19328 0
M  V30 1342 H 125.83 -1.29832 -3.64996 0
M  V30 1343 H 126.244 -3.49676 -3.90931 0
M  V30 1344 H 127.718 -2.22435 -5.052 0
M  V30 1345 H 128.195 -0.685635 -4.33815 0
M  V30 1346 H 128.801 -2.20393 -3.63741 0
M  V30 1347 N 127.117 1.15442 -1.07289 0
M  V30 1348 C 128.394 1.82306 -0.708792 0
M  V30 1349 C 128.774 1.94991 0.808807 0
M  V30 1350 O 128.122 1.50085 1.72298 0
M  V30 1351 C 128.332 3.18695 -1.42247 0
M  V30 1352 C 129.68 3.94341 -1.57417 0
M  V30 1353 O 130.704 3.28247 -1.38319 0
M  V30 1354 O 129.563 5.12839 -1.88834 0
M  V30 1355 H 126.657 0.787628 -0.252132 0
M  V30 1356 H 129.203 1.22559 -1.17377 0
M  V30 1357 H 127.975 3.04557 -2.45684 0
M  V30 1358 H 127.598 3.86128 -0.948223 0
M  V30 1359 N 128.595 0.856903 1.32268 0
M  V30 1360 C 129.843 0.460474 1.96784 0
M  V30 1361 C 130.164 -0.987701 1.68135 0
M  V30 1362 O 129.434 -1.69058 0.989765 0
M  V30 1363 H 128.014 0.167289 0.728027 0
M  V30 1364 H 130.676 1.09383 1.61312 0
M  V30 1365 H 129.772 0.60739 3.06133 0
M  V30 1366 N 130.073 -1.45103 0.615059 0
M  V30 1367 C 131.006 -2.27717 -0.148408 0
M  V30 1368 C 131.984 -1.37584 -0.866572 0
M  V30 1369 O 133.168 -1.67017 -0.87393 0
M  V30 1370 C 130.295 -3.16136 -1.21557 0
M  V30 1371 C 129.341 -4.22263 -0.599712 0
M  V30 1372 S 130.174 -5.3215 0.598081 0
M  V30 1373 C 131.33 -6.24137 -0.469484 0
M  V30 1374 H 131.563 -2.92121 0.552483 0
M  V30 1375 H 129.096 -1.49054 0.402778 0
M  V30 1376 H 131.054 -3.67633 -1.82638 0
M  V30 1377 H 129.715 -2.50982 -1.88857 0
M  V30 1378 H 128.908 -4.84081 -1.4029 0
M  V30 1379 H 128.51 -3.73945 -0.063876 0
M  V30 1380 H 130.802 -6.63984 -1.34652 0
M  V30 1381 H 131.745 -7.0801 0.112725 0
M  V30 1382 H 132.153 -5.58971 -0.788168 0
M  V30 1383 N 131.551 -0.354651 -1.53558 0
M  V30 1384 C 132.498 0.496968 -2.25386 0
M  V30 1385 C 133.468 1.0865 -1.25636 0
M  V30 1386 O 134.653 1.12104 -1.54394 0
M  V30 1387 C 131.793 1.63637 -3.03837 0
M  V30 1388 C 130.906 1.07307 -4.18461 0
M  V30 1389 C 130.041 2.18068 -4.84376 0
M  V30 1390 C 129.08 1.59147 -5.91049 0
M  V30 1391 N 128.217 2.63695 -6.50699 0
M  V30 1392 H 133.057 -0.122075 -2.9775 0
M  V30 1393 H 130.594 -0.0720154 -1.46924 0
M  V30 1394 H 132.552 2.30734 -3.47589 0
M  V30 1395 H 131.182 2.22623 -2.33749 0
M  V30 1396 H 130.234 0.292708 -3.79272 0
M  V30 1397 H 131.546 0.602193 -4.95152 0
M  V30 1398 H 130.7 2.93007 -5.31255 0
M  V30 1399 H 129.439 2.68504 -4.07133 0
M  V30 1400 H 128.444 0.827175 -5.43542 0
M  V30 1401 H 129.669 1.09549 -6.70206 0
M  V30 1402 H 127.615 3.13365 -5.76315 0
M  V30 1403 H 127.532 2.21263 -7.22896 0
M  V30 1404 H 128.8 3.3837 -7.02229 0
M  V30 1405 N 133.029 1.57378 -0.0835403 0
M  V30 1406 C 134.275 1.94217 0.583733 0
M  V30 1407 C 134.608 0.964653 1.68547 0
M  V30 1408 O 133.883 -0.00422258 1.945 0
M  V30 1409 C 134.166 3.41253 1.14972 0
M  V30 1410 C 134.019 4.49768 0.0538277 0
M  V30 1411 C 135.338 3.89352 2.05166 0
M  V30 1412 H 132.457 0.706233 0.210724 0
M  V30 1413 H 135.099 1.89392 -0.1519 0
M  V30 1414 H 133.249 3.45496 1.77665 0
M  V30 1415 H 134.921 4.57641 -0.579851 0
M  V30 1416 H 133.164 4.29432 -0.614068 0
M  V30 1417 H 133.835 5.49817 0.490452 0
M  V30 1418 H 136.311 3.87189 1.52393 0
M  V30 1419 H 135.187 4.92822 2.41698 0
M  V30 1420 H 135.448 3.27973 2.96456 0
M  V30 1421 N 134.507 -0.190092 1.56449 0
M  V30 1422 C 135.417 -1.25591 1.98152 0
M  V30 1423 C 136.433 -1.49519 0.889944 0
M  V30 1424 O 137.609 -1.62036 1.19609 0
M  V30 1425 C 134.674 -2.57916 2.3169 0
M  V30 1426 C 133.735 -2.42015 3.5458 0
M  V30 1427 C 132.968 -3.6803 3.8651 0
M  V30 1428 O 133.191 -4.72413 3.1966 0
M  V30 1429 O 132.125 -3.6326 4.79923 0
M  V30 1430 H 135.951 -0.931988 2.89046 0
M  V30 1431 H 133.536 -0.395488 1.4407 0
M  V30 1432 H 135.418 -3.36008 2.54316 0
M  V30 1433 H 134.093 -2.89925 1.43963 0
M  V30 1434 H 133 -1.62017 3.37196 0
M  V30 1435 H 134.333 -2.14937 4.4279 0
M  V30 1436 N 135.985 -1.50799 -0.457987 0
M  V30 1437 C 136.948 -1.7005 -1.53674 0
M  V30 1438 C 137.948 -0.570881 -1.50325 0
M  V30 1439 O 139.138 -0.838126 -1.52712 0
M  V30 1440 C 136.27 -1.73788 -2.93276 0
M  V30 1441 H 137.463 -2.66306 -1.37917 0
M  V30 1442 H 135.016 -1.40477 -0.685271 0
M  V30 1443 H 135.751 -0.792717 -3.14462 0
M  V30 1444 H 135.536 -2.55864 -2.97113 0
M  V30 1445 H 137.026 -1.90591 -3.71571 0
M  V30 1446 N 137.463 0.71206 -1.40597 0
M  V30 1447 C 138.393 1.83889 -1.43899 0
M  V30 1448 C 139.374 1.67442 -0.299504 0
M  V30 1449 O 140.559 1.87421 -0.508624 0
M  V30 1450 C 137.689 3.21877 -1.30431 0
M  V30 1451 C 136.643 3.53002 -2.42019 0
M  V30 1452 C 135.969 4.90172 -2.13626 0
M  V30 1453 C 137.269 3.53643 -3.84362 0
M  V30 1454 H 138.963 1.81383 -2.38203 0
M  V30 1455 H 136.509 0.871237 -1.14654 0
M  V30 1456 H 138.462 4.00404 -1.31357 0
M  V30 1457 H 137.186 3.24968 -0.326049 0
M  V30 1458 H 135.845 2.76818 -2.40349 0
M  V30 1459 H 135.493 4.89869 -1.14182 0
M  V30 1460 H 135.193 5.11962 -2.88389 0
M  V30 1461 H 136.717 5.71028 -2.1624 0
M  V30 1462 H 138.131 4.22203 -3.87837 0
M  V30 1463 H 136.528 3.86961 -4.58673 0
M  V30 1464 H 137.598 2.52954 -4.13693 0
M  V30 1465 N 138.941 1.26152 0.944643 0
M  V30 1466 C 139.904 1.07474 2.0244 0
M  V30 1467 C 140.904 0.0242064 1.60782 0
M  V30 1468 O 142.094 0.267302 1.72137 0
M  V30 1469 C 139.226 0.633956 3.34953 0
M  V30 1470 H 140.419 2.03336 2.20442 0
M  V30 1471 H 137.972 1.087 1.12312 0
M  V30 1472 H 138.707 -0.326811 3.22649 0
M  V30 1473 H 138.492 1.39247 3.66542 0
M  V30 1474 H 139.982 0.52501 4.14287 0
M  V30 1475 N 140.419 -1.14872 1.07899 0
M  V30 1476 C 141.367 -2.21857 0.698727 0
M  V30 1477 C 142.361 -1.66845 -0.293086 0
M  V30 1478 O 143.567 -1.79321 -0.156204 0
M  V30 1479 H 139.942 -0.722691 0.207899 0
M  V30 1480 H 141.913 -2.51205 1.61054 0
M  V30 1481 C 140.662 -3.47498 0.11858 0
M  V30 1482 H 139.985 -3.90154 0.872914 0
M  V30 1483 H 141.425 -4.23858 -0.109759 0
M  V30 1484 C 139.884 -3.16947 -1.1422 0
M  V30 1485 O 140.414 -3.3426 -2.22785 0
M  V30 1486 N 138.62 -2.70946 -1.05055 0
M  V30 1487 H 138.167 -2.57058 -0.167038 0
M  V30 1488 H 138.125 -2.50879 -1.89491 0
M  V30 1489 N 141.898 -0.863906 -1.31812 0
M  V30 1490 C 143.145 -0.471836 -1.96926 0
M  V30 1491 C 143.473 0.974578 -1.68322 0
M  V30 1492 O 142.728 1.7003 -0.968933 0
M  V30 1493 C 143.027 -0.668547 -3.51091 0
M  V30 1494 C 142.693 -2.08683 -3.99703 0
M  V30 1495 C 141.355 -2.47471 -4.12688 0
M  V30 1496 C 143.707 -3.01207 -4.25351 0
M  V30 1497 C 141.035 -3.78037 -4.4867 0
M  V30 1498 C 143.387 -4.31282 -4.62794 0
M  V30 1499 C 142.051 -4.69992 -4.73987 0
M  V30 1500 H 141.321 -0.172657 -0.720604 0
M  V30 1501 H 143.968 -1.09573 -1.57054 0
M  V30 1502 H 142.273 0.0385252 -3.91781 0
M  V30 1503 H 143.97 -0.345102 -3.99512 0
M  V30 1504 H 140.56 -1.77566 -3.90087 0
M  V30 1505 H 144.744 -2.72469 -4.14819 0
M  V30 1506 H 140 -4.078 -4.55532 0
M  V30 1507 H 144.174 -5.03031 -4.81594 0
M  V30 1508 H 141.801 -5.71207 -5.01624 0
M  V30 1509 N 143.376 1.44774 -0.622745 0
M  V30 1510 C 144.787 1.85546 -0.207226 0
M  V30 1511 C 145.138 1.52093 1.23944 0
M  V30 1512 O 144.263 0.95492 1.94191 0
M  V30 1513 C 144.858 3.36781 -0.369313 0
M  V30 1514 C 143.417 3.76399 -0.00836847 0
M  V30 1515 C 142.564 2.68664 -0.686651 0
M  V30 1516 H 145.515 1.3536 -0.828454 0
M  V30 1517 H 145.536 3.78453 0.394162 0
M  V30 1518 H 145.048 3.61098 -1.42231 0
M  V30 1519 H 143.149 3.57698 1.04322 0
M  V30 1520 H 143.262 4.7732 -0.412584 0
M  V30 1521 H 141.626 2.54404 -0.122777 0
M  V30 1522 H 142.409 2.95815 -1.74208 0
M  V30 1523 N 144.854 0.36279 1.53368 0
M  V30 1524 C 146.103 -0.22888 2.00397 0
M  V30 1525 C 146.416 -1.50096 1.25421 0
M  V30 1526 O 147.622 -2.17106 1.63025 0
M  V30 1527 C 146.078 -0.458417 3.56969 0
M  V30 1528 C 145.686 0.798877 4.4082 0
M  V30 1529 C 147.43 -1.00789 4.12361 0
M  V30 1530 C 145.337 0.539078 5.88938 0
M  V30 1531 H 144.267 -0.089305 0.748693 0
M  V30 1532 H 146.918 0.481099 1.77081 0
M  V30 1533 H 145.3 -1.22959 3.76427 0
M  V30 1534 H 146.474 1.57262 4.33134 0
M  V30 1535 H 144.789 1.27137 3.96516 0
M  V30 1536 H 147.386 -1.21754 5.20653 0
M  V30 1537 H 147.729 -1.9692 3.66781 0
M  V30 1538 H 148.262 -0.296961 3.9669 0
M  V30 1539 H 145.001 1.47064 6.3879 0
M  V30 1540 H 144.521 -0.196222 5.99479 0
M  V30 1541 H 146.2 0.163542 6.46793 0
M  V30 1542 N 146.332 -1.57332 0.0918853 0
M  V30 1543 C 147.242 -2.17368 -0.882505 0
M  V30 1544 C 148.258 -1.14226 -1.31257 0
M  V30 1545 O 149.434 -1.46582 -1.38115 0
M  V30 1546 C 146.499 -2.73962 -2.12476 0
M  V30 1547 C 145.56 -3.92048 -1.7492 0
M  V30 1548 C 144.793 -4.45933 -2.93223 0
M  V30 1549 O 145.016 -3.98764 -4.07852 0
M  V30 1550 O 143.95 -5.36999 -2.71875 0
M  V30 1551 H 147.776 -3.01031 -0.40172 0
M  V30 1552 H 145.361 -1.48813 -0.132291 0
M  V30 1553 H 147.243 -3.10147 -2.85283 0
M  V30 1554 H 145.918 -1.93347 -2.59613 0
M  V30 1555 H 144.825 -3.6068 -0.993025 0
M  V30 1556 H 146.158 -4.74017 -1.32548 0
M  V30 1557 N 147.81 0.181792 -1.56548 0
M  V30 1558 C 149.226 0.53316 -1.50431 0
M  V30 1559 C 149.426 1.85184 -0.794297 0
M  V30 1560 O 148.482 2.50058 -0.350318 0
M  V30 1561 C 149.795 0.575597 -2.9514 0
M  V30 1562 C 151.343 0.663519 -3.05886 0
M  V30 1563 C 151.818 0.736946 -4.52032 0
M  V30 1564 N 153.309 0.800118 -4.56237 0
M  V30 1565 C 154.044 0.877327 -5.66649 0
M  V30 1566 N 153.54 0.916016 -6.86718 0
M  V30 1567 N 155.333 0.915542 -5.54594 0
M  V30 1568 H 147.484 -0.683025 -2.01118 0
M  V30 1569 H 149.747 -0.244988 -0.915797 0
M  V30 1570 H 149.453 -0.324482 -3.502 0
M  V30 1571 H 149.327 1.42572 -3.49218 0
M  V30 1572 H 151.714 1.55403 -2.50867 0
M  V30 1573 H 151.795 -0.21307 -2.54911 0
M  V30 1574 H 151.439 -0.149262 -5.07681 0
M  V30 1575 H 151.369 1.62953 -5.00753 0
M  V30 1576 H 153.86 0.778926 -3.69785 0
M  V30 1577 H 154.173 0.975813 -7.66614 0
M  V30 1578 H 152.518 0.884469 -6.89349 0
M  V30 1579 H 155.709 0.882245 -4.59711 0
M  V30 1580 H 155.882 0.972253 -6.40665 0
M  V30 1581 N 149.288 1.51039 0.449983 0
M  V30 1582 C 150.565 1.53612 1.21089 0
M  V30 1583 C 150.945 0.292997 2.09057 0
M  V30 1584 O 150.293 -0.72259 2.16774 0
M  V30 1585 C 150.503 2.84337 2.0237 0
M  V30 1586 C 151.851 3.35807 2.59843 0
M  V30 1587 O 152.875 2.85802 2.12593 0
M  V30 1588 O 151.734 4.23029 3.45989 0
M  V30 1589 H 148.828 0.617057 0.550608 0
M  V30 1590 H 151.374 1.63344 0.460082 0
M  V30 1591 H 150.146 3.66278 1.37681 0
M  V30 1592 H 149.769 2.77708 2.84542 0
M  V30 1593 N 150.766 -0.704594 1.40972 0
M  V30 1594 C 151.696 -1.83124 1.44872 0
M  V30 1595 C 152.677 -1.67281 0.30838 0
M  V30 1596 O 153.862 -1.87149 0.518556 0
M  V30 1597 C 150.992 -3.21181 1.32136 0
M  V30 1598 C 149.946 -3.51714 2.43888 0
M  V30 1599 C 149.272 -4.89032 2.16222 0
M  V30 1600 C 150.572 -3.516 3.86232 0
M  V30 1601 H 152.266 -1.80117 2.39161 0
M  V30 1602 H 149.812 -0.865145 1.15114 0
M  V30 1603 H 151.765 -3.99702 1.33479 0
M  V30 1604 H 150.489 -3.24791 0.343279 0
M  V30 1605 H 149.148 -2.75539 2.41813 0
M  V30 1606 H 148.796 -4.89256 1.16778 0
M  V30 1607 H 148.496 -5.10426 2.911 0
M  V30 1608 H 150.02 -5.69873 2.19265 0
M  V30 1609 H 151.434 -4.2014 3.9007 0
M  V30 1610 H 149.831 -3.84523 4.60719 0
M  V30 1611 H 150.901 -2.50757 4.15029 0
M  V30 1612 N 152.244 -1.26651 -0.937939 0
M  V30 1613 C 153.49 -1.12553 -1.687 0
M  V30 1614 C 153.823 0.329782 -1.91379 0
M  V30 1615 O 153.098 1.24202 -1.4968 0
M  V30 1616 C 153.381 -1.89862 -3.05981 0
M  V30 1617 C 153.234 -3.43318 -2.90607 0
M  V30 1618 C 154.553 -1.69499 -4.0615 0
M  V30 1619 H 151.672 -0.410257 -0.612257 0
M  V30 1620 H 154.314 -1.55685 -1.08913 0
M  V30 1621 H 152.464 -1.53204 -3.57017 0
M  V30 1622 H 154.136 -3.89747 -2.46769 0
M  V30 1623 H 152.379 -3.70179 -2.26164 0
M  V30 1624 H 153.05 -3.92642 -3.8799 0
M  V30 1625 H 155.526 -2.01442 -3.64088 0
M  V30 1626 H 154.402 -2.26002 -5.00214 0
M  V30 1627 H 154.663 -0.640365 -4.37438 0
M  V30 1628 N 153.722 1.14298 -1.08507 0
M  V30 1629 C 154.968 1.85633 -0.816581 0
M  V30 1630 C 155.301 1.82784 0.656021 0
M  V30 1631 O 154.576 1.25926 1.48233 0
M  V30 1632 C 154.859 3.34223 -1.34041 0
M  V30 1633 C 154.712 3.45639 -2.87843 0
M  V30 1634 C 156.031 4.29356 -0.9665 0
M  V30 1635 H 153.15 0.67402 -0.298104 0
M  V30 1636 H 155.792 1.34214 -1.34487 0
M  V30 1637 H 153.942 3.78144 -0.89104 0
M  V30 1638 H 155.614 3.10498 -3.41158 0
M  V30 1639 H 153.857 2.86817 -3.25451 0
M  V30 1640 H 154.528 4.50089 -3.19569 0
M  V30 1641 H 157.004 3.93457 -1.35391 0
M  V30 1642 H 155.88 5.3178 -1.3602 0
M  V30 1643 H 156.141 4.41919 0.126362 0
M  V30 1644 N 155.201 0.870884 1.31352 0
M  V30 1645 C 156.478 0.402907 1.91405 0
M  V30 1646 C 156.858 -1.11512 1.79244 0
M  V30 1647 O 156.206 -1.94411 1.2007 0
M  V30 1648 C 156.416 0.885301 3.37585 0
M  V30 1649 C 157.764 0.911971 4.14691 0
M  V30 1650 O 158.788 0.831016 3.46371 0
M  V30 1651 O 157.647 1.02927 5.3672 0
M  V30 1652 H 154.741 0.120698 0.818145 0
M  V30 1653 H 157.287 0.958857 1.40014 0
M  V30 1654 H 156.059 1.92889 3.40455 0
M  V30 1655 H 155.682 0.307714 3.96407 0
M  V30 1656 N 156.679 -1.44442 0.630414 0
M  V30 1657 C 157.612 -2.27862 -0.124247 0
M  V30 1658 C 158.59 -1.38495 -0.851931 0
M  V30 1659 O 159.774 -1.67935 -0.856166 0
M  V30 1660 C 156.901 -3.17407 -1.18197 0
M  V30 1661 C 155.947 -4.22875 -0.554892 0
M  V30 1662 S 156.78 -5.31485 0.654489 0
M  V30 1663 C 157.936 -6.246 -0.40326 0
M  V30 1664 H 158.169 -2.91519 0.583435 0
M  V30 1665 H 155.702 -1.48618 0.418565 0
M  V30 1666 H 157.66 -3.69549 -1.78728 0
M  V30 1667 H 156.321 -2.52971 -1.86184 0
M  V30 1668 H 155.514 -4.85542 -1.35148 0
M  V30 1669 H 155.116 -3.73992 -0.0242105 0
M  V30 1670 H 157.408 -6.65375 -1.27602 0
M  V30 1671 H 158.351 -7.07851 0.187813 0
M  V30 1672 H 158.759 -5.59775 -0.728837 0
M  V30 1673 N 158.157 -0.370918 -1.53173 0
M  V30 1674 C 159.385 0.217704 -2.05751 0
M  V30 1675 C 159.8 1.42018 -1.24404 0
M  V30 1676 O 159.157 1.80245 -0.286033 0
M  V30 1677 C 159.208 0.605954 -3.56385 0
M  V30 1678 O 158.929 -0.548734 -4.3465 0
M  V30 1679 C 160.43 1.2524 -4.25241 0
M  V30 1680 H 157.65 0.0371659 -0.66997 0
M  V30 1681 H 160.194 -0.530832 -1.9749 0
M  V30 1682 H 158.349 1.3044 -3.6478 0
M  V30 1683 H 158.763 -0.23376 -5.23979 0
M  V30 1684 H 160.237 1.47458 -5.3194 0
M  V30 1685 H 160.714 2.2143 -3.79296 0
M  V30 1686 H 161.32 0.595233 -4.21114 0
M  V30 1687 N 159.635 1.57281 -0.100228 0
M  V30 1688 C 160.585 2.10848 0.86759 0
M  V30 1689 C 161.569 1.02473 1.24049 0
M  V30 1690 O 162.761 1.28739 1.21471 0
M  V30 1691 C 159.89 2.69648 2.12474 0
M  V30 1692 C 158.976 3.85074 1.77704 0
M  V30 1693 N 159.367 4.92897 1.13518 0
M  V30 1694 C 157.665 3.94905 2.07282 0
M  V30 1695 C 158.366 5.73475 0.974735 0
M  V30 1696 N 157.342 5.22675 1.4937 0
M  V30 1697 H 161.144 2.91594 0.367471 0
M  V30 1698 H 158.658 1.62074 0.102829 0
M  V30 1699 H 160.655 3.06356 2.82757 0
M  V30 1700 H 159.315 1.90359 2.63047 0
M  V30 1701 H 160.326 5.11662 0.801381 0
M  V30 1702 H 157.003 3.26633 2.60033 0
M  V30 1703 H 158.393 6.70238 0.472364 0
M  V30 1704 N 161.113 -0.173488 1.56642 0
M  V30 1705 C 162.36 -0.890465 1.81871 0
M  V30 1706 C 162.688 -1.82339 0.67696 0
M  V30 1707 O 161.943 -1.92795 -0.335926 0
M  V30 1708 C 162.242 -1.72069 3.13252 0
M  V30 1709 C 161.908 -0.936878 4.41059 0
M  V30 1710 C 160.57 -0.720545 4.75775 0
M  V30 1711 C 162.922 -0.386919 5.19762 0
M  V30 1712 C 160.25 0.0568829 5.86672 0
M  V30 1713 C 162.602 0.37741 6.31473 0
M  V30 1714 C 161.266 0.604563 6.64757 0
M  V30 1715 H 160.536 -0.325844 0.665512 0
M  V30 1716 H 163.183 -0.155527 1.90867 0
M  V30 1717 H 161.488 -2.52496 2.99588 0
M  V30 1718 H 163.185 -2.27844 3.29982 0
M  V30 1719 H 159.775 -1.11553 4.13828 0
M  V30 1720 H 163.959 -0.541398 4.93338 0
M  V30 1721 H 159.215 0.242635 6.10918 0
M  V30 1722 H 163.389 0.810825 6.91664 0
M  V30 1723 H 161.016 1.20885 7.50527 0
M  V30 1724 N 162.591 -1.51276 -0.441967 0
M  V30 1725 C 163.84 -1.6295 -1.18871 0
M  V30 1726 C 164.153 -0.349312 -1.92456 0
M  V30 1727 O 165.359 -0.345355 -2.69295 0
M  V30 1728 C 163.815 -2.87759 -2.16155 0
M  V30 1729 C 163.423 -4.22764 -1.48239 0
M  V30 1730 C 165.167 -3.08788 -2.91291 0
M  V30 1731 C 163.074 -5.38728 -2.4398 0
M  V30 1732 H 162.004 -0.606913 -0.447406 0
M  V30 1733 H 164.655 -1.77739 -0.456205 0
M  V30 1734 H 163.037 -2.66593 -2.92821 0
M  V30 1735 H 164.211 -4.54293 -0.771635 0
M  V30 1736 H 162.526 -4.07575 -0.852741 0
M  V30 1737 H 165.123 -3.92599 -3.63002 0
M  V30 1738 H 165.466 -2.21679 -3.5237 0
M  V30 1739 H 165.999 -3.30272 -2.21733 0
M  V30 1740 H 162.738 -6.28082 -1.87598 0
M  V30 1741 H 162.258 -5.1158 -3.13123 0
M  V30 1742 H 163.937 -5.70489 -3.05207 0
M  V30 1743 N 164.069 0.697108 -1.41344 0
M  V30 1744 C 164.979 1.84088 -1.45427 0
M  V30 1745 C 165.995 1.70545 -0.34501 0
M  V30 1746 O 167.171 1.92488 -0.592492 0
M  V30 1747 C 164.236 3.20056 -1.33286 0
M  V30 1748 C 163.297 3.45718 -2.54514 0
M  V30 1749 C 162.53 4.75199 -2.42944 0
M  V30 1750 O 162.753 5.51579 -1.45318 0
M  V30 1751 O 161.687 5.0161 -3.32672 0
M  V30 1752 H 165.513 1.836 -2.41919 0
M  V30 1753 H 163.098 0.849966 -1.22866 0
M  V30 1754 H 164.98 4.01236 -1.28794 0
M  V30 1755 H 163.655 3.2123 -0.39909 0
M  V30 1756 H 162.562 2.64474 -2.64583 0
M  V30 1757 H 163.895 3.49356 -3.46715 0
M  V30 1758 N 165.547 1.27147 0.931209 0
M  V30 1759 C 166.772 1.16191 1.71797 0
M  V30 1760 C 167.197 -0.278004 1.86034 0
M  V30 1761 O 166.555 -1.20137 1.35782 0
M  V30 1762 C 166.603 1.84673 3.09723 0
M  V30 1763 O 165.707 1.14231 3.96264 0
M  V30 1764 H 165.048 0.404303 0.526721 0
M  V30 1765 H 167.578 1.68152 1.1656 0
M  V30 1766 H 167.588 1.91893 3.60057 0
M  V30 1767 H 166.263 2.89421 2.98677 0
M  V30 1768 H 164.84 1.15056 3.54706 0
M  V30 1769 N 167.025 -1.13721 1.09112 0
M  V30 1770 C 167.955 -2.21148 0.749385 0
M  V30 1771 C 168.936 -1.6792 -0.271475 0
M  V30 1772 O 170.121 -1.93693 -0.140251 0
M  V30 1773 C 167.251 -3.46905 0.165659 0
M  V30 1774 C 166.205 -4.13203 1.11567 0
M  V30 1775 C 165.531 -5.33248 0.393809 0
M  V30 1776 C 166.831 -4.60912 2.45678 0
M  V30 1777 H 168.525 -2.4999 1.64758 0
M  V30 1778 H 166.071 -1.20156 0.793626 0
M  V30 1779 H 168.024 -4.21313 -0.085466 0
M  V30 1780 H 166.748 -3.17449 -0.767714 0
M  V30 1781 H 165.407 -3.40758 1.35202 0
M  V30 1782 H 165.055 -5.00054 -0.543599 0
M  V30 1783 H 164.755 -5.78552 1.02721 0
M  V30 1784 H 166.279 -6.10413 0.150908 0
M  V30 1785 H 167.693 -5.26759 2.26269 0
M  V30 1786 H 166.09 -5.16944 3.04776 0
M  V30 1787 H 167.16 -3.75603 3.06677 0
M  V30 1788 N 168.503 -0.877838 -1.30888 0
M  V30 1789 C 169.413 -0.343096 -2.32078 0
M  V30 1790 C 170.429 0.551022 -1.65045 0
M  V30 1791 O 171.605 0.445854 -1.96403 0
M  V30 1792 C 168.67 0.439905 -3.43898 0
M  V30 1793 C 167.731 -0.483111 -4.26573 0
M  V30 1794 C 166.964 0.262616 -5.33053 0
M  V30 1795 O 167.187 1.48967 -5.50604 0
M  V30 1796 O 166.121 -0.383593 -6.00676 0
M  V30 1797 H 169.947 -1.18203 -2.79753 0
M  V30 1798 H 167.532 -0.64145 -1.34929 0
M  V30 1799 H 169.414 0.883504 -4.12034 0
M  V30 1800 H 168.089 1.25526 -2.98371 0
M  V30 1801 H 166.996 -0.975374 -3.61161 0
M  V30 1802 H 168.329 -1.26427 -4.75686 0
M  V30 1803 N 169.982 1.44106 -0.638065 0
M  V30 1804 C 170.945 2.29138 0.0531013 0
M  V30 1805 C 171.945 1.41409 0.765506 0
M  V30 1806 O 173.135 1.63206 0.609046 0
M  V30 1807 C 170.267 3.23144 1.08584 0
M  V30 1808 H 171.46 2.91739 -0.694883 0
M  V30 1809 H 169.013 1.51134 -0.398538 0
M  V30 1810 H 169.748 2.65408 1.86357 0
M  V30 1811 H 169.533 3.87804 0.578852 0
M  V30 1812 H 171.023 3.87004 1.56899 0
M  V30 1813 N 171.46 0.379036 1.52974 0
M  V30 1814 C 172.709 -0.207612 2.00629 0
M  V30 1815 C 173.022 -1.48758 1.27006 0
M  V30 1816 O 174.228 -2.15365 1.65318 0
M  V30 1817 C 172.684 -0.42053 3.57435 0
M  V30 1818 C 172.292 0.845587 4.39948 0
M  V30 1819 C 174.036 -0.964102 4.13407 0
M  V30 1820 C 171.943 0.601513 5.88333 0
M  V30 1821 H 170.873 -0.0813591 0.749598 0
M  V30 1822 H 173.524 0.499853 1.76561 0
M  V30 1823 H 171.906 -1.18959 3.7771 0
M  V30 1824 H 173.08 1.61848 4.31442 0
M  V30 1825 H 171.395 1.31336 3.95145 0
M  V30 1826 H 173.992 -1.16225 5.21916 0
M  V30 1827 H 174.335 -1.93019 3.68849 0
M  V30 1828 H 174.868 -0.25487 3.96983 0
M  V30 1829 H 171.607 1.53831 6.37194 0
M  V30 1830 H 171.127 -0.132628 5.99653 0
M  V30 1831 H 172.806 0.232134 6.46583 0
M  V30 1832 N 172.938 -1.57226 0.108567 0
M  V30 1833 C 173.885 -2.14756 -0.845481 0
M  V30 1834 C 174.855 -1.06971 -1.27068 0
M  V30 1835 O 176.04 -1.34827 -1.35005 0
M  V30 1836 C 173.18 -2.74298 -2.09415 0
M  V30 1837 C 172.293 -3.96358 -1.71826 0
M  V30 1838 C 171.428 -4.44021 -2.9158 0
M  V30 1839 C 170.467 -5.58637 -2.50181 0
M  V30 1840 N 169.604 -6.01091 -3.62814 0
M  V30 1841 H 174.444 -2.95961 -0.348035 0
M  V30 1842 H 171.981 -1.46226 -0.160106 0
M  V30 1843 H 173.939 -3.06945 -2.82561 0
M  V30 1844 H 172.569 -1.95801 -2.56636 0
M  V30 1845 H 171.621 -3.69939 -0.885947 0
M  V30 1846 H 172.933 -4.79504 -1.37394 0
M  V30 1847 H 172.087 -4.78522 -3.72963 0
M  V30 1848 H 170.826 -3.59803 -3.29231 0
M  V30 1849 H 169.831 -5.23751 -1.67228 0
M  V30 1850 H 171.056 -6.44613 -2.13659 0
M  V30 1851 H 169.002 -5.19817 -4.00158 0
M  V30 1852 H 168.919 -6.79066 -3.32273 0
M  V30 1853 H 170.187 -6.40227 -4.44668 0
M  V30 1854 N 174.416 0.165178 -1.56732 0
M  V30 1855 C 175.827 0.727046 -1.71962 0
M  V30 1856 C 176.178 1.82508 -0.720078 0
M  V30 1857 O 175.303 2.16082 0.117242 0
M  V30 1858 C 175.898 1.32559 -3.11791 0
M  V30 1859 C 174.457 1.83422 -3.28684 0
M  V30 1860 C 173.604 0.715567 -2.67908 0
M  V30 1861 H 176.555 -0.0602896 -1.58585 0
M  V30 1862 H 176.576 2.19533 -3.10782 0
M  V30 1863 H 176.088 0.526195 -3.84516 0
M  V30 1864 H 174.189 2.65986 -2.60926 0
M  V30 1865 H 174.302 1.97543 -4.36478 0
M  V30 1866 H 172.666 1.13758 -2.27884 0
M  V30 1867 H 173.449 -0.0720836 -3.43224 0
M  V30 1868 N 175.894 1.51508 0.433938 0
M  V30 1869 C 177.124 1.67914 1.20369 0
M  V30 1870 C 177.532 0.377461 1.85397 0
M  V30 1871 O 176.875 -0.654255 1.71654 0
M  V30 1872 C 176.937 2.74045 2.32679 0
M  V30 1873 C 176.601 4.16543 1.87991 0
M  V30 1874 C 177.598 5.01211 1.38145 0
M  V30 1875 C 175.283 4.6266 1.95579 0
M  V30 1876 C 177.277 6.30056 0.964774 0
M  V30 1877 C 174.964 5.91501 1.53523 0
M  V30 1878 C 175.962 6.75027 1.04055 0
M  V30 1879 O 175.65 8.01459 0.625964 0
M  V30 1880 H 175.382 0.566578 0.368735 0
M  V30 1881 H 177.936 1.98709 0.51999 0
M  V30 1882 H 176.166 2.38572 3.04336 0
M  V30 1883 H 177.855 2.79295 2.94532 0
M  V30 1884 H 178.621 4.66783 1.31675 0
M  V30 1885 H 174.5 3.97767 2.33029 0
M  V30 1886 H 178.044 6.95202 0.57796 0
M  V30 1887 H 173.941 6.25442 1.59665 0
M  V30 1888 H 174.709 8.15043 0.751509 0
M  V30 1889 N 177.372 -0.689602 1.41712 0
M  V30 1890 C 178.621 -1.44534 1.40686 0
M  V30 1891 C 178.934 -1.95588 0.0213352 0
M  V30 1892 O 180.14 -2.71271 -0.111534 0
M  V30 1893 C 178.596 -2.61387 2.47396 0
M  V30 1894 C 178.204 -2.17094 3.91885 0
M  V30 1895 C 179.948 -3.38986 2.55517 0
M  V30 1896 C 177.855 -3.3094 4.90135 0
M  V30 1897 H 176.785 -0.542925 0.52321 0
M  V30 1898 H 179.436 -0.748054 1.6756 0
M  V30 1899 H 177.818 -3.33412 2.13664 0
M  V30 1900 H 178.992 -1.52318 4.34897 0
M  V30 1901 H 177.307 -1.52473 3.8748 0
M  V30 1902 H 179.904 -4.23747 3.26102 0
M  V30 1903 H 180.247 -3.84578 1.59391 0
M  V30 1904 H 180.78 -2.74021 2.8837 0
M  V30 1905 H 177.519 -2.90355 5.87685 0
M  V30 1906 H 177.039 -3.94546 4.51767 0
M  V30 1907 H 178.718 -3.9663 5.11169 0
M  V30 1908 N 178.85 -1.27639 -0.924453 0
M  V30 1909 C 180.099 -1.13549 -1.66702 0
M  V30 1910 C 180.412 0.317487 -1.93006 0
M  V30 1911 O 181.618 0.579333 -2.65247 0
M  V30 1912 C 180.074 -1.98426 -3.00259 0
M  V30 1913 C 179.682 -3.484 -2.81641 0
M  V30 1914 C 181.426 -1.92993 -3.78092 0
M  V30 1915 C 179.333 -4.25464 -4.10773 0
M  V30 1916 H 178.263 -0.421351 -0.625283 0
M  V30 1917 H 180.914 -1.52085 -1.02676 0
M  V30 1918 H 179.296 -1.52736 -3.6536 0
M  V30 1919 H 180.47 -4.01973 -2.25287 0
M  V30 1920 H 178.785 -3.55245 -2.17232 0
M  V30 1921 H 181.382 -2.47844 -4.7379 0
M  V30 1922 H 181.725 -0.904281 -4.0636 0
M  V30 1923 H 182.258 -2.36595 -3.19793 0
M  V30 1924 H 178.997 -5.28566 -3.87683 0
M  V30 1925 H 178.517 -3.76667 -4.66779 0
M  V30 1926 H 180.196 -4.34812 -4.79111 0
M  V30 1927 N 180.328 1.1314 -1.09713 0
M  V30 1928 C 181.576 1.84119 -0.833338 0
M  V30 1929 C 181.897 1.84097 0.642904 0
M  V30 1930 O 181.167 1.29881 1.46655 0
M  V30 1931 H 179.747 0.681766 -0.305293 0
M  V30 1932 H 182.409 1.37038 -1.38588 0
M  V30 1933 H 181.505 2.88543 -1.18951 0
M  V30 1934 N 181.806 0.884767 1.30421 0
M  V30 1935 C 182.754 0.340869 2.30089 0
M  V30 1936 C 183.748 -0.55201 1.60154 0
M  V30 1937 O 184.954 -0.436467 1.74628 0
M  V30 1938 H 181.329 0.0915739 0.746404 0
M  V30 1939 H 183.3 1.19513 2.73421 0
M  V30 1940 C 182.049 -0.429779 3.45034 0
M  V30 1941 H 181.372 0.248024 3.9903 0
M  V30 1942 H 182.812 -0.775445 4.16849 0
M  V30 1943 C 181.271 -1.62677 2.95022 0
M  V30 1944 O 181.801 -2.72614 2.95033 0
M  V30 1945 N 180.007 -1.46387 2.51036 0
M  V30 1946 H 179.554 -0.569506 2.51226 0
M  V30 1947 H 179.512 -2.26612 2.17932 0
M  V30 1948 N 183.284 -1.43765 0.645699 0
M  V30 1949 C 184.509 -2.06767 0.161883 0
M  V30 1950 C 184.934 -1.48034 -1.16049 0
M  V30 1951 O 184.292 -0.587369 -1.71522 0
M  V30 1952 C 184.34 -3.60519 0.0762003 0
M  V30 1953 O 183.444 -4.00982 -0.963721 0
M  V30 1954 H 182.785 -0.657675 0.091429 0
M  V30 1955 H 185.315 -1.84397 0.886499 0
M  V30 1956 H 185.325 -4.07853 -0.109604 0
M  V30 1957 H 184 -4.02646 1.04157 0
M  V30 1958 H 182.577 -3.65253 -0.751312 0
M  V30 1959 N 184.763 -0.387143 -1.52771 0
M  V30 1960 C 186.179 -0.037007 -1.59557 0
M  V30 1961 C 186.379 1.44801 -1.40124 0
M  V30 1962 O 185.435 2.21227 -1.21716 0
M  V30 1963 C 186.748 -0.512256 -2.96305 0
M  V30 1964 C 188.296 -0.468328 -3.09476 0
M  V30 1965 C 188.771 -0.919731 -4.4867 0
M  V30 1966 N 190.262 -0.875656 -4.54848 0
M  V30 1967 C 190.997 -1.19637 -5.6078 0
M  V30 1968 N 190.493 -1.58745 -6.74368 0
M  V30 1969 N 192.286 -1.11776 -5.50874 0
M  V30 1970 H 184.437 -1.35395 -1.63652 0
M  V30 1971 H 186.7 -0.554818 -0.768688 0
M  V30 1972 H 186.406 -1.54935 -3.15734 0
M  V30 1973 H 186.28 0.089805 -3.77093 0
M  V30 1974 H 188.667 0.559671 -2.89744 0
M  V30 1975 H 188.748 -1.10616 -2.30646 0
M  V30 1976 H 188.392 -1.94595 -4.69143 0
M  V30 1977 H 188.322 -0.258927 -5.25963 0
M  V30 1978 H 190.813 -0.587843 -3.733 0
M  V30 1979 H 191.126 -1.81586 -7.51163 0
M  V30 1980 H 189.471 -1.6263 -6.75705 0
M  V30 1981 H 192.662 -0.811264 -4.61016 0
M  V30 1982 H 192.835 -1.37103 -6.3333 0
M  V30 1983 N 186.241 1.57166 -0.116904 0
M  V30 1984 C 187.469 1.99473 0.549383 0
M  V30 1985 C 187.884 0.996541 1.60357 0
M  V30 1986 O 187.241 -0.0108731 1.82497 0
M  V30 1987 C 187.292 3.41788 1.17741 0
M  V30 1988 O 187.013 4.37788 0.165362 0
M  V30 1989 C 188.514 3.99216 1.92722 0
M  V30 1990 H 185.734 0.655009 0.145616 0
M  V30 1991 H 188.278 2.03494 -0.202625 0
M  V30 1992 H 186.433 3.38713 1.88021 0
M  V30 1993 H 186.847 5.20806 0.621403 0
M  V30 1994 H 188.321 5.00882 2.31995 0
M  V30 1995 H 188.798 3.3824 2.80161 0
M  V30 1996 H 189.404 4.0583 1.27209 0
M  V30 1997 N 187.719 -0.156864 1.56817 0
M  V30 1998 C 188.682 -1.17781 1.96622 0
M  V30 1999 C 189.682 -1.36401 0.851555 0
M  V30 2000 O 190.872 -1.33561 1.11836 0
M  V30 2001 C 188.004 -2.54008 2.27361 0
M  V30 2002 H 189.197 -0.836564 2.87996 0
M  V30 2003 H 186.75 -0.39985 1.51099 0
M  V30 2004 H 187.485 -2.9312 1.38748 0
M  V30 2005 H 187.27 -2.41856 3.08623 0
M  V30 2006 H 188.76 -3.27558 2.59029 0
M  V30 2007 N 189.197 -1.51736 -0.425897 0
M  V30 2008 C 190.474 -1.55519 -1.1863 0
M  V30 2009 C 190.854 -0.326219 -2.08564 0
M  V30 2010 O 190.202 0.688012 -2.17896 0
M  V30 2011 C 190.412 -2.87521 -1.9782 0
M  V30 2012 C 191.76 -3.39899 -2.54468 0
M  V30 2013 O 192.784 -2.89148 -2.08019 0
M  V30 2014 O 191.643 -4.2848 -3.39215 0
M  V30 2015 H 188.737 -0.625739 -0.540721 0
M  V30 2016 H 191.283 -1.64055 -0.434038 0
M  V30 2017 H 190.055 -3.68422 -1.31836 0
M  V30 2018 H 189.678 -2.822 -2.80088 0
M  V30 2019 N 190.675 0.682077 -1.42076 0
M  V30 2020 C 191.607 1.80755 -1.40926 0
M  V30 2021 C 192.62 1.59833 -0.309398 0
M  V30 2022 O 193.809 1.69087 -0.572014 0
M  V30 2023 C 190.909 3.17744 -1.17865 0
M  V30 2024 C 190.082 3.65578 -2.40149 0
M  V30 2025 C 189.141 4.81277 -2.12742 0
M  V30 2026 O 188.167 4.92197 -2.85887 0
M  V30 2027 N 189.369 5.69474 -1.12602 0
M  V30 2028 H 192.134 1.82229 -2.37935 0
M  V30 2029 H 189.695 0.864903 -1.36861 0
M  V30 2030 H 191.687 3.9279 -0.9746 0
M  V30 2031 H 190.257 3.11214 -0.294068 0
M  V30 2032 H 189.477 2.81291 -2.76169 0
M  V30 2033 H 190.765 3.94278 -3.21593 0
M  V30 2034 H 190.163 5.63297 -0.520899 0
M  V30 2035 H 188.72 6.44363 -0.981842 0
M  V30 2036 N 192.153 1.28127 0.917671 0
M  V30 2037 C 193.401 1.14825 1.66312 0
M  V30 2038 C 193.722 -0.304379 1.9261 0
M  V30 2039 O 192.992 -1.21149 1.53947 0
M  V30 2040 H 191.572 0.421953 0.616413 0
M  V30 2041 H 194.234 1.608 1.10134 0
M  V30 2042 H 193.33 1.68489 2.62712 0
M  V30 2043 N 193.631 -1.12557 1.10312 0
M  V30 2044 C 194.859 -1.87864 0.866873 0
M  V30 2045 C 195.274 -1.79588 -0.582557 0
M  V30 2046 O 194.631 -1.16887 -1.40156 0
M  V30 2047 C 194.682 -3.37125 1.30496 0
M  V30 2048 O 194.403 -3.45201 2.69755 0
M  V30 2049 C 195.904 -4.29373 1.10243 0
M  V30 2050 H 193.124 -0.594452 0.311236 0
M  V30 2051 H 195.668 -1.42429 1.46745 0
M  V30 2052 H 193.823 -3.80109 0.748081 0
M  V30 2053 H 194.237 -4.38056 2.88457 0
M  V30 2054 H 195.711 -5.32394 1.45811 0
M  V30 2055 H 196.188 -4.39181 0.0409492 0
M  V30 2056 H 196.794 -3.92169 1.64571 0
M  V30 2057 N 195.109 -0.891671 -1.2995 0
M  V30 2058 C 196.057 -0.353066 -2.29905 0
M  V30 2059 C 197.051 0.543509 -1.60444 0
M  V30 2060 O 198.257 0.4272 -1.74857 0
M  V30 2061 H 194.632 -0.095531 -0.745907 0
M  V30 2062 H 196.603 -1.20961 -2.72784 0
M  V30 2063 C 195.352 0.411475 -3.45257 0
M  V30 2064 H 194.675 -0.269182 -3.98893 0
M  V30 2065 H 196.115 0.753328 -4.17254 0
M  V30 2066 C 194.574 1.6111 -2.9588 0
M  V30 2067 O 195.104 2.71045 -2.96475 0
M  V30 2068 N 193.31 1.45054 -2.51809 0
M  V30 2069 H 192.857 0.556175 -2.51524 0
M  V30 2070 H 192.815 2.25453 -2.1913 0
M  V30 2071 N 196.587 1.43421 -0.653314 0
M  V30 2072 C 197.836 2.01032 -0.164076 0
M  V30 2073 C 198.149 1.52147 1.22926 0
M  V30 2074 O 199.355 2.02031 1.81371 0
M  V30 2075 C 197.811 3.59082 -0.24252 0
M  V30 2076 C 197.419 4.1696 -1.63855 0
M  V30 2077 C 199.163 4.24079 0.18911 0
M  V30 2078 C 197.07 5.67304 -1.67092 0
M  V30 2079 H 196 0.751798 -0.0575769 0
M  V30 2080 H 198.651 1.6439 -0.815362 0
M  V30 2081 H 197.033 3.93125 0.476276 0
M  V30 2082 H 198.207 3.94416 -2.38271 0
M  V30 2083 H 196.522 3.64335 -2.01616 0
M  V30 2084 H 199.119 5.34381 0.184775 0
M  V30 2085 H 199.462 3.98005 1.22056 0
M  V30 2086 H 199.995 3.94918 -0.477938 0
M  V30 2087 H 196.734 5.98145 -2.68146 0
M  V30 2088 H 196.254 5.91904 -0.970014 0
M  V30 2089 H 197.933 6.31344 -1.4147 0
M  V30 2090 N 198.065 0.39524 1.52563 0
M  V30 2091 C 198.997 -0.472201 2.24283 0
M  V30 2092 C 200.01 -1.02178 1.26742 0
M  V30 2093 O 201.199 -0.923097 1.52778 0
M  V30 2094 C 198.299 -1.66775 2.95024 0
M  V30 2095 C 197.472 -1.2445 4.19322 0
M  V30 2096 C 196.531 -2.30539 4.7301 0
M  V30 2097 O 195.557 -1.91702 5.35947 0
M  V30 2098 N 196.759 -3.6253 4.53379 0
M  V30 2099 H 199.524 0.142282 2.99362 0
M  V30 2100 H 197.085 0.2219 1.60372 0
M  V30 2101 H 199.077 -2.37283 3.27839 0
M  V30 2102 H 197.647 -2.18845 2.23217 0
M  V30 2103 H 196.867 -0.368069 3.92478 0
M  V30 2104 H 198.155 -0.938457 5.0007 0
M  V30 2105 H 197.553 -3.96841 4.03154 0
M  V30 2106 H 196.11 -4.29055 4.90668 0
M  V30 2107 N 199.544 -1.57102 0.125237 0
M  V30 2108 C 200.772 -1.99761 -0.538797 0
M  V30 2109 C 201.187 -1.00503 -1.59827 0
M  V30 2110 O 200.544 0.00119474 -1.825 0
M  V30 2111 C 200.595 -3.42408 -1.15927 0
M  V30 2112 O 200.316 -4.37869 -0.142143 0
M  V30 2113 C 201.817 -4.00232 -1.90602 0
M  V30 2114 H 199.037 -0.655772 -0.14214 0
M  V30 2115 H 201.581 -2.03383 0.213413 0
M  V30 2116 H 199.736 -3.39706 -1.86223 0
M  V30 2117 H 200.15 -5.21128 -0.593775 0
M  V30 2118 H 201.624 -5.02105 -2.29335 0
M  V30 2119 H 202.101 -3.39721 -2.78363 0
M  V30 2120 H 202.707 -4.06499 -1.25055 0
M  V30 2121 N 201.022 0.148545 -1.56898 0
M  V30 2122 C 202.433 0.708766 -1.72723 0
M  V30 2123 C 202.784 1.81734 -0.739395 0
M  V30 2124 O 201.909 2.16194 0.0943169 0
M  V30 2125 C 202.504 1.29245 -3.13179 0
M  V30 2126 C 201.063 1.79925 -3.30611 0
M  V30 2127 C 200.21 0.687111 -2.68652 0
M  V30 2128 H 203.161 -0.0771063 -1.58513 0
M  V30 2129 H 203.182 2.16224 -3.13093 0
M  V30 2130 H 202.694 0.485382 -3.85053 0
M  V30 2131 H 200.795 2.63203 -2.63732 0
M  V30 2132 H 200.908 1.92903 -4.38549 0
M  V30 2133 H 199.272 1.11335 -2.29078 0
M  V30 2134 H 200.055 -0.108483 -3.43129 0
M  V30 2135 N 202.5 1.5196 0.417844 0
M  V30 2136 C 203.463 1.74065 1.49111 0
M  V30 2137 C 204.463 0.610537 1.48758 0
M  V30 2138 O 205.653 0.87832 1.50437 0
M  V30 2139 C 202.785 1.81502 2.88565 0
M  V30 2140 H 203.978 2.69869 1.30807 0
M  V30 2141 H 201.531 1.42244 0.647785 0
M  V30 2142 H 202.266 0.875813 3.1225 0
M  V30 2143 H 202.051 2.63651 2.90225 0
M  V30 2144 H 203.541 2.00376 3.66387 0
M  V30 2145 N 203.978 -0.674533 1.42435 0
M  V30 2146 C 204.91 -1.80005 1.41883 0
M  V30 2147 C 205.923 -1.59667 0.31787 0
M  V30 2148 O 207.112 -1.68781 0.580973 0
M  V30 2149 C 204.212 -3.17114 1.19549 0
M  V30 2150 C 203.385 -3.64299 2.42084 0
M  V30 2151 C 202.444 -4.80142 2.15291 0
M  V30 2152 O 201.47 -4.90673 2.88493 0
M  V30 2153 N 202.672 -5.68869 1.1562 0
M  V30 2154 H 205.437 -1.80964 2.38898 0
M  V30 2155 H 202.998 -0.857633 1.37318 0
M  V30 2156 H 204.99 -3.92267 0.995417 0
M  V30 2157 H 203.56 -3.11053 0.310569 0
M  V30 2158 H 202.78 -2.79822 2.77657 0
M  V30 2159 H 204.068 -3.92567 3.23679 0
M  V30 2160 H 203.466 -5.63012 0.550765 0
M  V30 2161 H 202.023 -6.43833 1.016 0
M  V30 2162 N 205.456 -1.28612 -0.910864 0
M  V30 2163 C 206.389 -1.07109 -2.01502 0
M  V30 2164 C 207.367 0.013706 -1.62594 0
M  V30 2165 O 208.551 -0.134796 -1.88017 0
M  V30 2166 C 205.678 -0.628255 -3.32822 0
M  V30 2167 C 204.724 -1.71012 -3.90714 0
M  V30 2168 S 205.557 -3.30676 -4.21205 0
M  V30 2169 C 206.713 -2.88234 -5.55583 0
M  V30 2170 H 206.946 -2.00591 -2.19432 0
M  V30 2171 H 204.479 -1.12633 -1.05609 0
M  V30 2172 H 206.437 -0.37946 -4.08742 0
M  V30 2173 H 205.098 0.28678 -3.12788 0
M  V30 2174 H 204.291 -1.35195 -4.85529 0
M  V30 2175 H 203.893 -1.91186 -3.21441 0
M  V30 2176 H 206.185 -2.34584 -6.35591 0
M  V30 2177 H 207.128 -3.81857 -5.96314 0
M  V30 2178 H 207.536 -2.26862 -5.16908 0
M  V30 2179 N 206.934 1.1197 -1.10907 0
M  V30 2180 C 207.897 2.16031 -0.765707 0
M  V30 2181 C 208.897 1.59393 0.212235 0
M  V30 2182 O 210.087 1.74196 -0.0115441 0
M  V30 2183 C 207.219 3.40632 -0.135053 0
M  V30 2184 H 208.412 2.47919 -1.68748 0
M  V30 2185 H 205.965 1.27061 -0.910226 0
M  V30 2186 H 206.7 3.14348 0.797218 0
M  V30 2187 H 206.485 3.8302 -0.838937 0
M  V30 2188 H 207.975 4.17505 0.0892469 0
M  V30 2189 N 208.412 0.89855 1.29475 0
M  V30 2190 C 209.359 0.373819 2.27753 0
M  V30 2191 C 210.329 -0.543444 1.56958 0
M  V30 2192 O 211.514 -0.468934 1.84948 0
M  V30 2193 C 208.654 -0.393648 3.42848 0
M  V30 2194 C 207.767 0.554379 4.28428 0
M  V30 2195 C 206.902 -0.230026 5.30702 0
M  V30 2196 C 205.941 0.712599 6.07938 0
M  V30 2197 N 205.078 -0.0373283 7.0209 0
M  V30 2198 H 209.918 1.21699 2.72017 0
M  V30 2199 H 207.455 0.611456 1.33789 0
M  V30 2200 H 209.413 -0.85466 4.08352 0
M  V30 2201 H 208.043 -1.20128 2.99615 0
M  V30 2202 H 207.095 1.13391 3.63107 0
M  V30 2203 H 208.407 1.27597 4.82204 0
M  V30 2204 H 207.561 -0.752288 6.02018 0
M  V30 2205 H 206.3 -0.984758 4.77654 0
M  V30 2206 H 205.305 1.24637 5.35486 0
M  V30 2207 H 206.53 1.46664 6.63074 0
M  V30 2208 H 204.476 -0.774348 6.51414 0
M  V30 2209 H 204.393 0.624374 7.53417 0
M  V30 2210 H 205.661 -0.539891 7.77628 0
M  V30 2211 N 209.89 -1.43072 0.660911 0
M  V30 2212 C 211.12 -2.05769 0.185153 0
M  V30 2213 C 211.528 -1.49668 -1.15742 0
M  V30 2214 O 210.871 -0.625649 -1.72717 0
M  V30 2215 C 210.933 -3.59489 0.0278237 0
M  V30 2216 C 210.597 -4.38212 1.2969 0
M  V30 2217 C 211.594 -4.69772 2.22734 0
M  V30 2218 C 209.279 -4.7809 1.54063 0
M  V30 2219 C 211.273 -5.40129 3.38437 0
M  V30 2220 C 208.96 -5.4819 2.70058 0
M  V30 2221 C 209.958 -5.79132 3.62071 0
M  V30 2222 O 209.646 -6.47798 4.76039 0
M  V30 2223 H 209.378 -0.669873 0.0908086 0
M  V30 2224 H 211.932 -1.84436 0.90402 0
M  V30 2225 H 210.162 -3.79426 -0.746489 0
M  V30 2226 H 211.851 -4.03862 -0.406275 0
M  V30 2227 H 212.617 -4.39476 2.05149 0
M  V30 2228 H 208.496 -4.53408 0.833215 0
M  V30 2229 H 212.04 -5.64198 4.10277 0
M  V30 2230 H 207.937 -5.77902 2.87574 0
M  V30 2231 H 208.705 -6.66283 4.75404 0
M  V30 2232 N 211.368 -0.403325 -1.52352 0
M  V30 2233 C 212.318 0.442244 -2.2367 0
M  V30 2234 C 213.302 1.01823 -1.24583 0
M  V30 2235 O 214.494 0.942005 -1.49851 0
M  V30 2236 C 211.623 1.5615 -3.05732 0
M  V30 2237 C 210.709 0.996575 -4.12225 0
M  V30 2238 N 211.1 0.157804 -5.05554 0
M  V30 2239 C 209.398 1.26767 -4.27605 0
M  V30 2240 C 210.099 -0.155853 -5.81491 0
M  V30 2241 N 209.075 0.451775 -5.41719 0
M  V30 2242 H 212.877 -0.204964 -2.93184 0
M  V30 2243 H 210.391 -0.213418 -1.60992 0
M  V30 2244 H 212.388 2.17981 -3.55373 0
M  V30 2245 H 211.048 2.21139 -2.37755 0
M  V30 2246 H 212.059 -0.206049 -5.1749 0
M  V30 2247 H 208.736 1.91757 -3.70858 0
M  V30 2248 H 210.126 -0.836329 -6.66675 0
M  V30 2249 N 212.846 1.57033 -0.133567 0
M  V30 2250 C 213.778 2.13176 0.841944 0
M  V30 2251 C 214.791 1.07794 1.22001 0
M  V30 2252 O 215.98 1.35117 1.16643 0
M  V30 2253 C 213.08 2.62847 2.13926 0
M  V30 2254 C 212.253 3.92486 1.93064 0
M  V30 2255 C 211.312 4.27605 3.0666 0
M  V30 2256 O 210.338 4.96168 2.78937 0
M  V30 2257 N 211.54 3.861 4.33483 0
M  V30 2258 H 214.305 2.97503 0.362192 0
M  V30 2259 H 211.866 1.61821 0.05042 0
M  V30 2260 H 213.858 2.83363 2.88942 0
M  V30 2261 H 212.428 1.83319 2.53205 0
M  V30 2262 H 211.648 3.80732 1.02159 0
M  V30 2263 H 212.936 4.77225 1.76447 0
M  V30 2264 H 212.334 3.30828 4.58878 0
M  V30 2265 H 210.891 4.11694 5.05323 0
M  V30 2266 N 214.325 -0.140222 1.56975 0
M  V30 2267 C 215.572 -0.851687 1.83719 0
M  V30 2268 C 215.9 -1.80862 0.715485 0
M  V30 2269 O 215.155 -1.93464 -0.294956 0
M  V30 2270 C 215.454 -1.65386 3.16832 0
M  V30 2271 C 215.12 -0.843112 4.42947 0
M  V30 2272 C 213.782 -0.619464 4.77196 0
M  V30 2273 C 216.134 -0.276582 5.20466 0
M  V30 2274 C 213.462 0.181312 5.8642 0
M  V30 2275 C 215.814 0.51127 6.30531 0
M  V30 2276 C 214.478 0.745432 6.63325 0
M  V30 2277 H 213.748 -0.311654 0.672274 0
M  V30 2278 H 216.395 -0.115006 1.91154 0
M  V30 2279 H 214.7 -2.46084 3.04877 0
M  V30 2280 H 216.397 -2.20793 3.34741 0
M  V30 2281 H 212.987 -1.0275 4.16101 0
M  V30 2282 H 217.171 -0.436632 4.94376 0
M  V30 2283 H 212.427 0.372165 6.10266 0
M  V30 2284 H 216.601 0.957354 6.89788 0
M  V30 2285 H 214.228 1.36778 7.47794 0
M  V30 2286 N 215.803 -1.52179 -0.40978 0
M  V30 2287 C 217.028 -1.70347 -1.18308 0
M  V30 2288 C 217.453 -0.411887 -1.83535 0
M  V30 2289 O 216.811 0.630587 -1.6998 0
M  V30 2290 C 216.859 -2.83977 -2.22238 0
M  V30 2291 O 215.963 -2.495 -3.28365 0
M  V30 2292 H 215.304 -0.567103 -0.345384 0
M  V30 2293 H 217.834 -1.98879 -0.480445 0
M  V30 2294 H 217.844 -3.0887 -2.66577 0
M  V30 2295 H 216.519 -3.77685 -1.74146 0
M  V30 2296 H 215.096 -2.35277 -2.89308 0
M  V30 2297 N 217.281 0.66697 -1.42791 0
M  V30 2298 C 218.529 1.42417 -1.43394 0
M  V30 2299 C 218.85 1.94925 -0.0542373 0
M  V30 2300 O 218.12 1.73564 0.908415 0
M  V30 2301 H 216.7 0.528515 -0.527902 0
M  V30 2302 H 219.362 0.787562 -1.78279 0
M  V30 2303 H 218.458 2.27333 -2.13837 0
M  V30 2304 N 218.759 1.29093 0.90403 0
M  V30 2305 C 219.999 1.18076 1.66845 0
M  V30 2306 C 220.363 -0.26436 1.90171 0
M  V30 2307 O 221.564 -0.497423 2.64157 0
M  V30 2308 C 219.835 1.96722 2.98388 0
M  V30 2309 S 221.394 2.0219 3.89441 0
M  V30 2310 H 218.212 0.421104 0.572881 0
M  V30 2311 H 220.814 1.63322 1.07453 0
M  V30 2312 H 219.518 3.00866 2.7912 0
M  V30 2313 H 219.049 1.52064 3.62823 0
M  V30 2314 H 221.064 1.13545 4.83034 0
M  V30 2315 N 220.237 -1.11381 1.11499 0
M  V30 2316 C 221.486 -1.82494 0.858993 0
M  V30 2317 C 221.799 -1.85605 -0.617278 0
M  V30 2318 O 223.005 -2.52824 -0.989552 0
M  V30 2319 C 221.461 -3.27745 1.48699 0
M  V30 2320 C 221.069 -3.32961 2.99735 0
M  V30 2321 C 222.813 -4.03754 1.31085 0
M  V30 2322 C 220.72 -4.72612 3.55516 0
M  V30 2323 H 219.65 -0.683802 0.317696 0
M  V30 2324 H 222.301 -1.25331 1.34031 0
M  V30 2325 H 220.683 -3.84844 0.933339 0
M  V30 2326 H 221.857 -2.85741 3.61509 0
M  V30 2327 H 220.172 -2.70433 3.16631 0
M  V30 2328 H 222.769 -5.06891 1.70192 0
M  V30 2329 H 223.112 -4.15527 0.253496 0
M  V30 2330 H 223.645 -3.53043 1.83318 0
M  V30 2331 H 220.384 -4.66036 4.60967 0
M  V30 2332 H 219.904 -5.2024 2.98513 0
M  V30 2333 H 221.583 -5.4157 3.53992 0
M  V30 2334 N 221.715 -0.905404 -1.28997 0
M  V30 2335 C 222.663 -0.377431 -2.29517 0
M  V30 2336 C 223.657 0.526461 -1.61012 0
M  V30 2337 O 224.863 0.40863 -1.753 0
M  V30 2338 H 221.238 -0.103437 -0.744852 0
M  V30 2339 H 223.209 -1.23848 -2.71485 0
M  V30 2340 C 221.958 0.374833 -3.45674 0
M  V30 2341 H 221.281 -0.311474 -3.98585 0
M  V30 2342 H 222.721 0.70903 -4.1803 0
M  V30 2343 C 221.18 1.57963 -2.97572 0
M  V30 2344 O 221.71 2.67886 -2.99333 0
M  V30 2345 N 219.916 1.42375 -2.53333 0
M  V30 2346 H 219.463 0.529466 -2.521 0
M  V30 2347 H 219.421 2.23117 -2.21509 0
M  V30 2348 N 223.193 1.4272 -0.668489 0
M  V30 2349 C 224.433 2.03497 -0.19194 0
M  V30 2350 C 224.797 1.51684 1.17712 0
M  V30 2351 O 225.998 2.04205 1.74796 0
M  V30 2352 C 224.269 3.56734 -0.218032 0
M  V30 2353 S 225.828 4.38395 0.188438 0
M  V30 2354 H 222.646 0.706542 -0.0794959 0
M  V30 2355 H 225.248 1.74563 -0.880235 0
M  V30 2356 H 223.952 3.91943 -1.2169 0
M  V30 2357 H 223.483 3.90333 0.490303 0
M  V30 2358 H 225.498 4.75345 1.42345 0
M  V30 2359 N 224.671 0.411399 1.52136 0
M  V30 2360 C 225.919 -0.163322 2.01439 0
M  V30 2361 C 226.24 -1.45453 1.29879 0
M  V30 2362 O 225.51 -1.91225 0.4254 0
M  V30 2363 H 224.09 -0.0633447 0.744309 0
M  V30 2364 H 226.752 0.548161 1.87033 0
M  V30 2365 H 225.848 -0.357817 3.10042 0
M  V30 2366 N 226.149 -1.5696 0.141893 0
M  V30 2367 C 227.079 -2.19516 -0.795936 0
M  V30 2368 C 228.06 -1.14187 -1.26077 0
M  V30 2369 O 229.245 -1.42511 -1.31925 0
M  V30 2370 C 226.375 -2.81272 -2.03723 0
M  V30 2371 C 225.329 -3.92384 -1.70936 0
M  V30 2372 C 224.655 -4.41052 -3.02287 0
M  V30 2373 C 225.955 -5.13403 -0.959954 0
M  V30 2374 H 227.649 -2.98138 -0.274596 0
M  V30 2375 H 225.195 -1.43406 -0.130636 0
M  V30 2376 H 227.148 -3.237 -2.69808 0
M  V30 2377 H 225.872 -1.99973 -2.58221 0
M  V30 2378 H 224.531 -3.50566 -1.07232 0
M  V30 2379 H 224.179 -3.56582 -3.54765 0
M  V30 2380 H 223.879 -5.15993 -2.81114 0
M  V30 2381 H 225.403 -4.86146 -3.69451 0
M  V30 2382 H 226.817 -5.52706 -1.52279 0
M  V30 2383 H 225.214 -5.94073 -0.848357 0
M  V30 2384 H 226.284 -4.84875 0.0492434 0
M  V30 2385 N 227.627 0.131896 -1.57047 0
M  V30 2386 C 228.867 0.847972 -1.85981 0
M  V30 2387 C 229.231 1.77655 -0.7282 0
M  V30 2388 O 230.432 2.53322 -0.898968 0
M  V30 2389 C 228.703 1.58919 -3.20124 0
M  V30 2390 S 230.262 2.34862 -3.70655 0
M  V30 2391 H 227.08 0.283273 -0.652133 0
M  V30 2392 H 229.682 0.107057 -1.95207 0
M  V30 2393 H 228.386 0.898771 -4.00438 0
M  V30 2394 H 227.917 2.37073 -3.13942 0
M  V30 2395 H 229.932 3.60344 -3.41126 0
M  V30 2396 N 229.106 1.52395 0.401703 0
M  V30 2397 C 230.336 1.70429 1.1678 0
M  V30 2398 C 230.744 0.416702 1.84554 0
M  V30 2399 O 230.087 -0.617697 1.73003 0
M  V30 2400 C 230.149 2.78919 2.26814 0
M  V30 2401 C 229.813 4.20437 1.79113 0
M  V30 2402 C 230.81 5.04028 1.27482 0
M  V30 2403 C 228.495 4.66704 1.85722 0
M  V30 2404 C 230.489 6.31961 0.830913 0
M  V30 2405 C 228.176 5.94625 1.40942 0
M  V30 2406 C 229.174 6.77082 0.897128 0
M  V30 2407 O 228.862 8.02607 0.455822 0
M  V30 2408 H 228.594 0.574272 0.356634 0
M  V30 2409 H 231.148 1.99767 0.477724 0
M  V30 2410 H 229.378 2.44973 2.99207 0
M  V30 2411 H 231.067 2.8548 2.88541 0
M  V30 2412 H 231.833 4.69471 1.21744 0
M  V30 2413 H 227.712 4.0262 2.24539 0
M  V30 2414 H 231.256 6.96271 0.430368 0
M  V30 2415 H 227.153 6.28688 1.46362 0
M  V30 2416 H 227.921 8.16453 0.578457 0
M  V30 2417 N 230.584 -0.659388 1.43143 0
M  V30 2418 C 231.547 -1.75432 1.47501 0
M  V30 2419 C 232.547 -1.56707 0.360512 0
M  V30 2420 O 233.737 -1.62717 0.622002 0
M  V30 2421 C 230.869 -3.14239 1.32162 0
M  V30 2422 H 232.062 -1.7295 2.45006 0
M  V30 2423 H 229.615 -0.870469 1.29817 0
M  V30 2424 H 230.35 -3.22336 0.356401 0
M  V30 2425 H 230.135 -3.29235 2.12948 0
M  V30 2426 H 231.625 -3.94094 1.3813 0
M  V30 2427 N 232.062 -1.29571 -0.897171 0
M  V30 2428 C 233.025 -1.14913 -1.98312 0
M  V30 2429 C 234.025 -0.0838629 -1.60581 0
M  V30 2430 O 235.215 -0.331006 -1.71026 0
M  V30 2431 C 232.347 -0.757835 -3.3237 0
M  V30 2432 H 233.54 -2.11377 -2.12743 0
M  V30 2433 H 231.093 -1.12793 -1.08201 0
M  V30 2434 H 231.828 0.206837 -3.2364 0
M  V30 2435 H 231.613 -1.52755 -3.61121 0
M  V30 2436 H 233.103 -0.678408 -4.12053 0
M  V30 2437 N 233.54 1.10788 -1.12088 0
M  V30 2438 C 234.78 1.84297 -0.883974 0
M  V30 2439 C 235.144 1.83036 0.579797 0
M  V30 2440 O 236.345 2.52061 0.933734 0
M  V30 2441 C 234.616 3.27173 -1.43849 0
M  V30 2442 S 236.175 4.17853 -1.33957 0
M  V30 2443 H 232.993 0.635433 -0.318977 0
M  V30 2444 H 235.595 1.33341 -1.4297 0
M  V30 2445 H 234.299 3.25658 -2.49749 0
M  V30 2446 H 233.83 3.83198 -0.890096 0
M  V30 2447 H 235.845 4.95239 -0.308603 0
M  V30 2448 N 235.018 0.912232 1.28515 0
M  V30 2449 C 236.429 0.591352 1.77087 0
M  V30 2450 C 236.78 -0.8933 1.74684 0
M  V30 2451 O 235.905 -1.69876 1.34056 0
M  V30 2452 C 236.5 1.06668 3.2157 0
M  V30 2453 C 235.059 0.79675 3.67871 0
M  V30 2454 C 234.206 1.23427 2.48316 0
M  V30 2455 H 237.157 1.09365 1.15 0
M  V30 2456 H 237.178 0.407455 3.78312 0
M  V30 2457 H 236.69 2.14726 3.23287 0
M  V30 2458 H 234.791 -0.270679 3.71616 0
M  V30 2459 H 234.904 1.40343 4.58084 0
M  V30 2460 H 233.268 0.653036 2.46186 0
M  V30 2461 H 234.051 2.32316 2.52753 0
M  V30 2462 N 236.496 -1.42363 0.676048 0
M  V30 2463 C 237.428 -2.29164 -0.0404605 0
M  V30 2464 C 238.441 -1.43747 -0.764245 0
M  V30 2465 O 239.63 -1.67453 -0.618195 0
M  V30 2466 C 236.73 -3.21196 -1.08103 0
M  V30 2467 C 235.903 -4.35273 -0.430812 0
M  V30 2468 C 234.962 -5.08017 -1.37133 0
M  V30 2469 O 233.988 -5.62494 -0.87116 0
M  V30 2470 N 235.19 -5.13647 -2.70456 0
M  V30 2471 H 237.955 -2.91298 0.704667 0
M  V30 2472 H 235.516 -1.53303 0.520559 0
M  V30 2473 H 237.508 -3.66728 -1.71152 0
M  V30 2474 H 236.078 -2.60505 -1.72788 0
M  V30 2475 H 235.298 -3.92372 0.379209 0
M  V30 2476 H 236.586 -5.08795 0.0221132 0
M  V30 2477 H 235.984 -4.708 -3.1363 0
M  V30 2478 H 234.541 -5.62821 -3.28749 0
M  V30 2479 N 237.974 -0.419461 -1.51915 0
M  V30 2480 C 239.221 0.152939 -2.01922 0
M  V30 2481 C 239.549 1.4426 -1.30458 0
M  V30 2482 O 238.804 1.91514 -0.402593 0
M  V30 2483 C 239.103 0.437067 -3.54717 0
M  V30 2484 C 238.769 -0.764632 -4.44369 0
M  V30 2485 C 237.431 -1.09423 -4.68594 0
M  V30 2486 C 239.783 -1.56713 -4.97082 0
M  V30 2487 C 237.111 -2.22732 -5.42777 0
M  V30 2488 C 239.463 -2.69107 -5.72507 0
M  V30 2489 C 238.127 -3.02541 -5.95 0
M  V30 2490 H 237.397 0.0559644 -0.738884 0
M  V30 2491 H 240.044 -0.562998 -1.83037 0
M  V30 2492 H 238.349 1.23469 -3.71837 0
M  V30 2493 H 240.046 0.893083 -3.90928 0
M  V30 2494 H 236.636 -0.497775 -4.257 0
M  V30 2495 H 240.82 -1.32571 -4.78266 0
M  V30 2496 H 236.076 -2.48971 -5.58411 0
M  V30 2497 H 240.25 -3.31671 -6.12346 0
M  V30 2498 H 237.877 -3.90457 -6.52264 0
M  V30 2499 N 239.452 1.56882 -0.150215 0
M  V30 2500 C 240.7 1.9584 0.499105 0
M  V30 2501 C 241.021 1.03623 1.65188 0
M  V30 2502 O 240.291 0.0984084 1.95653 0
M  V30 2503 H 238.871 0.723119 0.187373 0
M  V30 2504 H 241.533 1.9358 -0.226466 0
M  V30 2505 H 240.629 2.99638 0.873122 0
M  V30 2506 N 240.93 -0.123565 1.57115 0
M  V30 2507 C 241.86 -1.15309 2.03042 0
M  V30 2508 C 242.841 -1.43454 0.914061 0
M  V30 2509 O 244.026 -1.53973 1.18347 0
M  V30 2510 C 241.156 -2.48043 2.43089 0
M  V30 2511 C 240.11 -2.3437 3.58127 0
M  V30 2512 C 239.436 -3.72026 3.84059 0
M  V30 2513 C 240.736 -1.80804 4.90007 0
M  V30 2514 H 242.43 -0.771102 2.893 0
M  V30 2515 H 239.976 -0.369479 1.39179 0
M  V30 2516 H 241.929 -3.20311 2.73823 0
M  V30 2517 H 240.653 -2.88122 1.53796 0
M  V30 2518 H 239.312 -1.64551 3.27595 0
M  V30 2519 H 238.96 -4.09582 2.91979 0
M  V30 2520 H 238.66 -3.63732 4.6149 0
M  V30 2521 H 240.184 -4.45806 4.1724 0
M  V30 2522 H 241.598 -2.42886 5.19307 0
M  V30 2523 H 239.995 -1.83343 5.71407 0
M  V30 2524 H 241.065 -0.76528 4.78823 0
M  V30 2525 N 242.408 -1.52605 -0.393616 0
M  V30 2526 C 243.356 -1.77688 -1.50099 0
M  V30 2527 C 244.35 -0.644615 -1.56656 0
M  V30 2528 O 245.556 -0.826997 -1.59877 0
M  V30 2529 H 241.931 -0.562159 -0.499481 0
M  V30 2530 H 243.902 -2.7043 -1.26135 0
M  V30 2531 C 242.651 -1.95858 -2.87289 0
M  V30 2532 H 241.974 -2.8241 -2.82992 0
M  V30 2533 H 243.414 -2.174 -3.64024 0
M  V30 2534 C 241.873 -0.729848 -3.28899 0
M  V30 2535 O 242.403 0.0949217 -4.01588 0
M  V30 2536 N 240.609 -0.561283 -2.85128 0
M  V30 2537 H 240.156 -1.23357 -2.26143 0
M  V30 2538 H 240.114 0.2595 -3.13327 0
M  V30 2539 N 243.887 0.651787 -1.4349 0
M  V30 2540 C 245.298 1.233 -1.40193 0
M  V30 2541 C 245.649 1.9591 -0.106727 0
M  V30 2542 O 244.774 2.01316 0.793773 0
M  V30 2543 C 245.369 2.24257 -2.53957 0
M  V30 2544 C 243.928 2.77852 -2.5392 0
M  V30 2545 C 243.075 1.52517 -2.3159 0
M  V30 2546 H 246.026 0.443717 -1.52371 0
M  V30 2547 H 246.047 3.0646 -2.25528 0
M  V30 2548 H 245.559 1.71382 -3.4821 0
M  V30 2549 H 243.66 3.34786 -1.63551 0
M  V30 2550 H 243.773 3.25299 -3.51735 0
M  V30 2551 H 242.137 1.79915 -1.80285 0
M  V30 2552 H 242.92 1.01574 -3.27929 0
M  V30 2553 N 245.365 1.30045 0.890287 0
M  V30 2554 C 246.275 1.17885 2.02831 0
M  V30 2555 C 247.291 0.0999609 1.73713 0
M  V30 2556 O 248.467 0.313867 1.98939 0
M  V30 2557 C 245.532 0.866079 3.35708 0
M  V30 2558 C 244.593 2.02979 3.78283 0
M  V30 2559 C 243.826 1.73184 5.0482 0
M  V30 2560 O 244.049 0.657237 5.66601 0
M  V30 2561 O 242.983 2.58267 5.43674 0
M  V30 2562 H 246.809 2.13474 2.16015 0
M  V30 2563 H 244.394 1.09587 1.01543 0
M  V30 2564 H 246.276 0.706623 4.15433 0
M  V30 2565 H 244.951 -0.0599443 3.23644 0
M  V30 2566 H 243.858 2.24454 2.99285 0
M  V30 2567 H 245.191 2.93734 3.94944 0
M  V30 2568 N 246.843 -1.10192 1.12674 0
M  V30 2569 C 248.09 -1.82205 0.883606 0
M  V30 2570 C 248.418 -1.8532 -0.590492 0
M  V30 2571 O 247.673 -1.31137 -1.45264 0
M  V30 2572 C 247.972 -3.28552 1.4067 0
M  V30 2573 C 247.638 -3.45582 2.89627 0
M  V30 2574 C 246.3 -3.49937 3.30299 0
M  V30 2575 C 248.652 -3.50768 3.85501 0
M  V30 2576 C 245.98 -3.57049 4.65546 0
M  V30 2577 C 248.332 -3.59414 5.20581 0
M  V30 2578 C 246.996 -3.62034 5.60792 0
M  V30 2579 H 246.266 -0.666735 0.323334 0
M  V30 2580 H 248.913 -1.29868 1.40736 0
M  V30 2581 H 247.218 -3.83473 0.80347 0
M  V30 2582 H 248.915 -3.82788 1.19475 0
M  V30 2583 H 245.505 -3.42871 2.57172 0
M  V30 2584 H 249.689 -3.46651 3.55171 0
M  V30 2585 H 244.945 -3.57361 4.96088 0
M  V30 2586 H 249.119 -3.62371 5.94693 0
M  V30 2587 H 246.746 -3.67298 6.6558 0
M  V30 2588 N 248.321 -0.919034 -1.28029 0
M  V30 2589 C 249.57 -0.550802 -1.94034 0
M  V30 2590 C 249.883 0.910877 -1.73096 0
M  V30 2591 O 251.089 1.3875 -2.33368 0
M  V30 2592 C 249.545 -0.934249 -3.47563 0
M  V30 2593 C 249.153 -2.41602 -3.7727 0
M  V30 2594 C 250.897 -0.636854 -4.19696 0
M  V30 2595 C 248.804 -2.73932 -5.24133 0
M  V30 2596 H 247.734 -0.202273 -0.726362 0
M  V30 2597 H 250.385 -1.11867 -1.45458 0
M  V30 2598 H 248.767 -0.295115 -3.94899 0
M  V30 2599 H 249.941 -3.10233 -3.40723 0
M  V30 2600 H 248.256 -2.68441 -3.18321 0
M  V30 2601 H 250.853 -0.855005 -5.2782 0
M  V30 2602 H 251.196 0.425575 -4.14119 0
M  V30 2603 H 251.729 -1.23469 -3.78154 0
M  V30 2604 H 248.468 -3.79049 -5.34792 0
M  V30 2605 H 247.988 -2.09942 -5.61858 0
M  V30 2606 H 249.667 -2.61215 -5.91925 0
M  V30 2607 N 249.799 1.42003 -0.683588 0
M  V30 2608 C 251.047 2.01015 -0.209101 0
M  V30 2609 C 251.368 1.54365 1.19149 0
M  V30 2610 O 250.638 0.769083 1.80172 0
M  V30 2611 H 249.218 0.743294 -0.074315 0
M  V30 2612 H 251.88 1.73798 -0.882066 0
M  V30 2613 H 250.976 3.11343 -0.2172 0
M  V30 2614 N 251.277 0.427512 1.51691 0
M  V30 2615 C 252.688 -0.0378867 1.86662 0
M  V30 2616 C 253.039 -1.42819 1.34525 0
M  V30 2617 O 252.164 -2.05037 0.692014 0
M  V30 2618 C 252.759 -0.0755266 3.38716 0
M  V30 2619 C 251.318 -0.485309 3.73258 0
M  V30 2620 C 250.465 0.328399 2.75349 0
M  V30 2621 H 253.416 0.64379 1.45055 0
M  V30 2622 H 253.437 -0.887056 3.70016 0
M  V30 2623 H 252.949 0.936487 3.76632 0
M  V30 2624 H 251.05 -1.50329 3.40928 0
M  V30 2625 H 251.163 -0.21693 4.78609 0
M  V30 2626 H 249.527 -0.211905 2.53817 0
M  V30 2627 H 250.31 1.3391 3.16106 0
M  V30 2628 N 252.755 -1.56801 0.158532 0
M  V30 2629 C 253.718 -2.16138 -0.762705 0
M  V30 2630 C 254.718 -1.1061 -1.16713 0
M  V30 2631 O 255.908 -1.36191 -1.08617 0
M  V30 2632 C 253.04 -2.73386 -2.03649 0
M  V30 2633 H 254.233 -2.98886 -0.246354 0
M  V30 2634 H 251.786 -1.56035 -0.0909744 0
M  V30 2635 H 252.521 -1.94335 -2.59623 0
M  V30 2636 H 252.306 -3.50601 -1.75559 0
M  V30 2637 H 253.796 -3.19065 -2.6942 0
M  V30 2638 N 254.233 0.115231 -1.57178 0
M  V30 2639 C 255.196 1.12526 -1.99676 0
M  V30 2640 C 256.196 1.34095 -0.88742 0
M  V30 2641 O 257.386 1.30548 -1.15337 0
M  V30 2642 C 254.518 2.4789 -2.34015 0
M  V30 2643 H 255.711 0.759912 -2.90113 0
M  V30 2644 H 253.264 0.359648 -1.52106 0
M  V30 2645 H 253.999 2.89339 -1.4647 0
M  V30 2646 H 253.784 2.33588 -3.14927 0
M  V30 2647 H 255.274 3.20575 -2.67622 0
M  V30 2648 N 255.711 1.52812 0.385517 0
M  V30 2649 C 256.96 1.67249 1.12741 0
M  V30 2650 C 257.273 0.4205 1.91027 0
M  V30 2651 O 258.479 0.445064 2.67827 0
M  V30 2652 C 256.935 2.95583 2.05326 0
M  V30 2653 C 256.543 4.27974 1.32447 0
M  V30 2654 C 258.287 3.19386 2.7963 0
M  V30 2655 C 256.194 5.47412 2.23818 0
M  V30 2656 H 255.124 0.6231 0.424573 0
M  V30 2657 H 257.775 1.79309 0.389924 0
M  V30 2658 H 256.157 2.77277 2.82725 0
M  V30 2659 H 257.331 4.56844 0.602495 0
M  V30 2660 H 255.646 4.10459 0.700885 0
M  V30 2661 H 258.243 4.05801 3.48181 0
M  V30 2662 H 258.586 2.34604 3.43899 0
M  V30 2663 H 259.119 3.38274 2.09322 0
M  V30 2664 H 255.858 6.34612 1.64157 0
M  V30 2665 H 255.378 5.22849 2.93921 0
M  V30 2666 H 257.057 5.81423 2.83824 0
M  V30 2667 N 257.189 -0.644168 1.43834 0
M  V30 2668 C 258.417 -1.43147 1.49387 0
M  V30 2669 C 258.832 -1.88452 0.114583 0
M  V30 2670 O 258.189 -1.60047 -0.876989 0
M  V30 2671 C 258.24 -2.66046 2.44748 0
M  V30 2672 O 257.961 -2.22633 3.77314 0
M  V30 2673 C 259.462 -3.59311 2.59635 0
M  V30 2674 H 256.682 -0.439447 0.507077 0
M  V30 2675 H 259.226 -0.78895 1.88669 0
M  V30 2676 H 257.381 -3.26418 2.08638 0
M  V30 2677 H 257.795 -3.02216 4.28679 0
M  V30 2678 H 259.269 -4.42187 3.30416 0
M  V30 2679 H 259.746 -4.07259 1.64427 0
M  V30 2680 H 260.352 -3.04816 2.96593 0
M  V30 2681 N 258.668 -1.30515 -0.883378 0
M  V30 2682 C 259.598 -1.19607 -2.00541 0
M  V30 2683 C 260.579 -0.086346 -1.69881 0
M  V30 2684 O 261.764 -0.268654 -1.92333 0
M  V30 2685 C 258.894 -0.888758 -3.35736 0
M  V30 2686 C 257.848 -1.95659 -3.8066 0
M  V30 2687 C 257.174 -1.50224 -5.13164 0
M  V30 2688 C 258.474 -3.36788 -3.99213 0
M  V30 2689 H 260.168 -2.13476 -2.09925 0
M  V30 2690 H 257.714 -1.02775 -1.00863 0
M  V30 2691 H 259.667 -0.799094 -4.13754 0
M  V30 2692 H 258.391 0.0856125 -3.26488 0
M  V30 2693 H 257.05 -2.03591 -3.04871 0
M  V30 2694 H 256.698 -0.516092 -5.00345 0
M  V30 2695 H 256.398 -2.2165 -5.44192 0
M  V30 2696 H 257.922 -1.42639 -5.93706 0
M  V30 2697 H 259.336 -3.31605 -4.67665 0
M  V30 2698 H 257.733 -4.06314 -4.41621 0
M  V30 2699 H 258.803 -3.78561 -3.03017 0
M  V30 2700 N 260.146 1.09593 -1.13257 0
M  V30 2701 C 261.109 2.14359 -0.811358 0
M  V30 2702 C 262.109 1.59808 0.178377 0
M  V30 2703 O 263.299 1.74132 -0.0484911 0
M  V30 2704 C 260.431 3.40269 -0.207276 0
M  V30 2705 H 261.624 2.44284 -1.73969 0
M  V30 2706 H 259.177 1.25102 -0.936973 0
M  V30 2707 H 259.912 3.15969 0.73036 0
M  V30 2708 H 259.697 3.81154 -0.919992 0
M  V30 2709 H 261.187 4.176 0.000667944 0
M  V30 2710 N 261.624 0.925811 1.2754 0
M  V30 2711 C 262.574 0.394488 2.24561 0
M  V30 2712 C 263.558 -0.500183 1.52928 0
M  V30 2713 O 264.75 -0.337936 1.73744 0
M  V30 2714 C 261.879 -0.353328 3.41477 0
M  V30 2715 C 260.965 0.557752 4.20416 0
M  V30 2716 N 261.356 1.67674 4.77199 0
M  V30 2717 C 259.654 0.360404 4.44541 0
M  V30 2718 C 260.355 2.24324 5.36706 0
M  V30 2719 N 259.331 1.53305 5.21535 0
M  V30 2720 H 263.133 1.2489 2.66045 0
M  V30 2721 H 260.647 0.779864 1.4245 0
M  V30 2722 H 262.644 -0.7509 4.10082 0
M  V30 2723 H 261.304 -1.20469 3.01525 0
M  V30 2724 H 262.315 2.05915 4.75204 0
M  V30 2725 H 258.992 -0.450454 4.15063 0
M  V30 2726 H 260.382 3.18521 5.91603 0
M  V30 2727 N 263.102 -1.41638 0.69111 0
M  V30 2728 C 264.518 -1.55435 0.362224 0
M  V30 2729 C 264.718 -1.66754 -1.13117 0
M  V30 2730 O 263.774 -1.64348 -1.91692 0
M  V30 2731 C 265.087 -2.79588 1.10684 0
M  V30 2732 C 266.635 -2.9338 1.09075 0
M  V30 2733 C 267.11 -4.20414 1.81703 0
M  V30 2734 N 268.601 -4.27362 1.7865 0
M  V30 2735 C 269.336 -5.24507 2.31689 0
M  V30 2736 N 268.832 -6.27708 2.93179 0
M  V30 2737 N 270.625 -5.16416 2.2197 0
M  V30 2738 H 262.776 -1.32536 1.65976 0
M  V30 2739 H 265.039 -0.639115 0.700168 0
M  V30 2740 H 264.745 -2.77419 2.16175 0
M  V30 2741 H 264.619 -3.70973 0.682545 0
M  V30 2742 H 267.006 -2.95067 0.0441238 0
M  V30 2743 H 267.087 -2.0318 1.55407 0
M  V30 2744 H 266.731 -4.19488 2.86343 0
M  V30 2745 H 266.661 -5.09578 1.32808 0
M  V30 2746 H 269.152 -3.53415 1.33815 0
M  V30 2747 H 269.465 -6.98217 3.31229 0
M  V30 2748 H 267.81 -6.28223 2.97255 0
M  V30 2749 H 271.001 -4.34716 1.73607 0
M  V30 2750 H 271.174 -5.91958 2.63609 0
M  V30 2751 N 264.58 -0.43555 -1.51462 0
M  V30 2752 C 265.81 0.130053 -2.0619 0
M  V30 2753 C 266.218 1.37164 -1.30317 0
M  V30 2754 O 265.561 1.80225 -0.355598 0
M  V30 2755 C 265.623 0.519418 -3.55728 0
M  V30 2756 C 265.287 -0.615119 -4.52841 0
M  V30 2757 C 266.284 -1.48671 -4.9819 0
M  V30 2758 C 263.969 -0.795341 -4.95963 0
M  V30 2759 C 265.963 -2.52324 -5.8533 0
M  V30 2760 C 263.65 -1.83514 -5.82894 0
M  V30 2761 C 264.648 -2.69748 -6.27475 0
M  V30 2762 O 264.336 -3.71944 -7.1268 0
M  V30 2763 H 264.068 0.0121612 -0.675891 0
M  V30 2764 H 266.622 -0.6129 -1.96043 0
M  V30 2765 H 264.852 1.31505 -3.63653 0
M  V30 2766 H 266.541 1.01597 -3.92979 0
M  V30 2767 H 267.307 -1.359 -4.65571 0
M  V30 2768 H 263.186 -0.133713 -4.60806 0
M  V30 2769 H 266.73 -3.19665 -6.20048 0
M  V30 2770 H 262.627 -1.96306 -6.14926 0
M  V30 2771 H 263.395 -3.68503 -7.30854 0
M  V30 2772 N 266.058 1.56714 -0.166846 0
M  V30 2773 C 267.006 2.19056 0.782123 0
M  V30 2774 C 268 1.15328 1.24079 0
M  V30 2775 O 269.206 1.33537 1.20697 0
M  V30 2776 H 265.581 0.70167 0.270486 0
M  V30 2777 H 267.552 2.97494 0.232322 0
M  V30 2778 C 266.301 2.84206 2.00306 0
M  V30 2779 H 265.624 3.63748 1.65914 0
M  V30 2780 H 267.064 3.31302 2.64604 0
M  V30 2781 C 265.523 1.83744 2.82382 0
M  V30 2782 O 266.053 1.32014 3.79388 0
M  V30 2783 N 264.259 1.52601 2.47308 0
M  V30 2784 H 263.806 1.9486 1.68485 0
M  V30 2785 H 263.764 0.856351 3.02513 0
M  V30 2786 N 267.536 -0.106894 1.57237 0
M  V30 2787 C 268.446 -1.14911 2.0453 0
M  V30 2788 C 269.462 -1.44592 0.96795 0
M  V30 2789 O 270.638 -1.55468 1.2803 0
M  V30 2790 C 267.703 -2.45272 2.45036 0
M  V30 2791 C 266.764 -2.22879 3.66911 0
M  V30 2792 C 265.997 -3.47024 4.05475 0
M  V30 2793 O 266.22 -4.54804 3.44252 0
M  V30 2794 O 265.154 -3.3731 4.98504 0
M  V30 2795 H 268.98 -0.777461 2.9358 0
M  V30 2796 H 266.565 -0.318563 1.45964 0
M  V30 2797 H 268.447 -3.22055 2.71769 0
M  V30 2798 H 267.122 -2.81886 1.59129 0
M  V30 2799 H 266.029 -1.43915 3.45311 0
M  V30 2800 H 267.362 -1.91163 4.53561 0
M  V30 2801 N 269.014 -1.53014 -0.377408 0
M  V30 2802 C 270.291 -1.59215 -1.13622 0
M  V30 2803 C 270.671 -0.392407 -2.07421 0
M  V30 2804 O 270.019 0.618342 -2.19975 0
M  V30 2805 C 270.229 -2.93669 -1.88573 0
M  V30 2806 C 271.577 -3.47822 -2.43526 0
M  V30 2807 O 272.601 -2.9562 -1.98715 0
M  V30 2808 O 271.46 -4.39055 -3.25412 0
M  V30 2809 H 268.554 -0.642625 -0.52054 0
M  V30 2810 H 271.1 -1.65353 -0.381625 0
M  V30 2811 H 269.872 -3.7243 -1.20048 0
M  V30 2812 H 269.495 -2.90968 -2.70968 0
M  V30 2813 N 270.492 0.636531 -1.44174 0
M  V30 2814 C 271.717 1.42847 -1.50364 0
M  V30 2815 C 272.142 1.87665 -0.127867 0
M  V30 2816 O 271.5 1.58408 0.88185 0
M  V30 2817 C 271.548 2.62854 -2.4686 0
M  V30 2818 O 270.652 3.62501 -1.9664 0
M  V30 2819 H 269.993 0.427642 -0.507955 0
M  V30 2820 H 272.523 0.777422 -1.89255 0
M  V30 2821 H 272.533 3.10465 -2.64718 0
M  V30 2822 H 271.208 2.29578 -3.46795 0
M  V30 2823 H 269.785 3.21735 -1.88523 0
M  V30 2824 N 271.97 1.30982 0.876444 0
M  V30 2825 C 273.386 1.09498 1.16113 0
M  V30 2826 C 273.586 -0.13875 2.01022 0
M  V30 2827 O 272.642 -0.829935 2.38471 0
M  V30 2828 C 273.955 2.36308 1.85954 0
M  V30 2829 C 275.503 2.41856 1.98683 0
M  V30 2830 C 275.978 3.6853 2.71937 0
M  V30 2831 N 277.469 3.69387 2.79477 0
M  V30 2832 C 278.204 4.64096 3.36753 0
M  V30 2833 N 277.7 5.69155 3.95012 0
M  V30 2834 N 279.493 4.51626 3.3465 0
M  V30 2835 H 271.644 2.10118 0.310494 0
M  V30 2836 H 273.907 0.926634 0.200131 0
M  V30 2837 H 273.613 3.26388 1.31011 0
M  V30 2838 H 273.487 2.4561 2.86278 0
M  V30 2839 H 275.874 1.52249 2.52793 0
M  V30 2840 H 275.955 2.36523 0.9742 0
M  V30 2841 H 275.599 4.58499 2.18496 0
M  V30 2842 H 275.529 3.71127 3.73593 0
M  V30 2843 H 278.02 2.93438 2.38123 0
M  V30 2844 H 278.333 6.3751 4.36808 0
M  V30 2845 H 276.678 5.72937 3.93406 0
M  V30 2846 H 279.869 3.68728 2.8837 0
M  V30 2847 H 280.042 5.25614 3.7899 0
M  V30 2848 N 273.449 -1.08991 1.13837 0
M  V30 2849 C 274.726 -1.77863 0.813876 0
M  V30 2850 C 275.106 -1.99375 -0.693746 0
M  V30 2851 O 274.454 -1.59875 -1.63255 0
M  V30 2852 C 274.664 -3.0986 1.60586 0
M  V30 2853 C 276.012 -3.84493 1.8014 0
M  V30 2854 O 277.036 -3.19624 1.57222 0
M  V30 2855 O 275.895 -5.00957 2.18413 0
M  V30 2856 H 272.989 -0.771589 0.297624 0
M  V30 2857 H 275.535 -1.15507 1.24323 0
M  V30 2858 H 274.307 -2.89715 2.63022 0
M  V30 2859 H 273.93 -3.79942 1.17173 0
M  V30 2860 N 274.927 -0.932562 -1.27047 0
M  V30 2861 C 275.877 -0.406392 -2.24349 0
M  V30 2862 C 276.861 0.492066 -1.53191 0
M  V30 2863 O 278.053 0.328717 -1.73921 0
M  V30 2864 C 275.182 0.335214 -3.41659 0
M  V30 2865 C 274.268 -0.58004 -4.20115 0
M  V30 2866 N 274.659 -1.70203 -4.76303 0
M  V30 2867 C 272.957 -0.383974 -4.44344 0
M  V30 2868 C 273.658 -2.27167 -5.35509 0
M  V30 2869 N 272.634 -1.56068 -5.20715 0
M  V30 2870 H 276.436 -1.26299 -2.65378 0
M  V30 2871 H 273.95 -0.787408 -1.42034 0
M  V30 2872 H 275.947 0.729142 -4.10474 0
M  V30 2873 H 274.607 1.18868 -3.0216 0
M  V30 2874 H 275.618 -2.08433 -4.74106 0
M  V30 2875 H 272.295 0.428436 -4.15296 0
M  V30 2876 H 273.685 -3.21654 -5.89905 0
M  V30 2877 N 276.405 1.4127 -0.698611 0
M  V30 2878 C 277.653 2.00782 -0.230409 0
M  V30 2879 C 277.974 1.5562 1.17505 0
M  V30 2880 O 277.244 0.78815 1.79346 0
M  V30 2881 H 275.824 0.742464 -0.0821944 0
M  V30 2882 H 278.486 1.72852 -0.90045 0
M  V30 2883 H 277.582 3.11095 -0.25021 0
M  V30 2884 N 277.883 0.443576 1.51229 0
M  V30 2885 C 278.83 -0.364716 2.279 0
M  V30 2886 C 279.8 -1.0114 1.31757 0
M  V30 2887 O 280.985 -1.02912 1.60667 0
M  V30 2888 C 278.125 -1.45644 3.12861 0
M  V30 2889 C 277.238 -0.827269 4.24005 0
M  V30 2890 C 276.373 -1.89456 4.96266 0
M  V30 2891 C 275.412 -1.24416 5.99322 0
M  V30 2892 N 274.549 -2.25309 6.64966 0
M  V30 2893 H 279.389 0.295464 2.96532 0
M  V30 2894 H 276.926 0.157554 1.46254 0
M  V30 2895 H 278.884 -2.10076 3.6045 0
M  V30 2896 H 277.514 -2.08616 2.46331 0
M  V30 2897 H 276.566 -0.0710839 3.80334 0
M  V30 2898 H 277.878 -0.312481 4.9782 0
M  V30 2899 H 277.032 -2.61535 5.47434 0
M  V30 2900 H 275.771 -2.4431 4.22095 0
M  V30 2901 H 274.776 -0.508868 5.4744 0
M  V30 2902 H 276.001 -0.702882 6.75453 0
M  V30 2903 H 273.947 -2.79231 5.93604 0
M  V30 2904 H 273.864 -1.78739 7.34567 0
M  V30 2905 H 275.132 -2.96853 7.20763 0
M  V30 2906 N 279.361 -1.56624 0.175154 0
M  V30 2907 C 280.308 -2.18149 -0.753634 0
M  V30 2908 C 281.278 -1.12265 -1.22417 0
M  V30 2909 O 282.463 -1.40432 -1.29165 0
M  V30 2910 C 279.603 -2.82933 -1.97592 0
M  V30 2911 C 278.716 -4.03289 -1.5486 0
M  V30 2912 C 277.851 -4.55988 -2.72485 0
M  V30 2913 C 276.89 -5.68746 -2.26262 0
M  V30 2914 N 276.027 -6.15938 -3.36994 0
M  V30 2915 H 280.867 -2.9717 -0.222195 0
M  V30 2916 H 278.404 -1.46774 -0.0979422 0
M  V30 2917 H 280.362 -3.18653 -2.69288 0
M  V30 2918 H 278.992 -2.06509 -2.481 0
M  V30 2919 H 278.044 -3.73364 -0.728246 0
M  V30 2920 H 279.356 -4.849 -1.16933 0
M  V30 2921 H 278.51 -4.9391 -3.52332 0
M  V30 2922 H 277.249 -3.73443 -3.13674 0
M  V30 2923 H 276.254 -5.30372 -1.44863 0
M  V30 2924 H 277.479 -6.53095 -1.86127 0
M  V30 2925 H 275.425 -5.36321 -3.77751 0
M  V30 2926 H 275.342 -6.92548 -3.03172 0
M  V30 2927 H 276.61 -6.58511 -4.17114 0
M  V30 2928 N 280.839 0.0985539 -1.57292 0
M  V30 2929 C 281.749 1.13824 -2.05137 0
M  V30 2930 C 282.765 1.44076 -0.975604 0
M  V30 2931 O 283.941 1.54786 -1.28853 0
M  V30 2932 C 281.006 2.43969 -2.46333 0
M  V30 2933 C 280.067 2.2093 -3.68087 0
M  V30 2934 C 279.3 3.44869 -4.0731 0
M  V30 2935 O 279.523 4.52972 -3.46659 0
M  V30 2936 O 278.457 3.34661 -5.00285 0
M  V30 2937 H 282.283 0.761881 -2.93988 0
M  V30 2938 H 279.868 0.310818 -1.46131 0
M  V30 2939 H 281.75 3.20609 -2.73473 0
M  V30 2940 H 280.425 2.81038 -1.60621 0
M  V30 2941 H 279.332 1.42081 -3.46069 0
M  V30 2942 H 280.665 1.88755 -4.54568 0
M  V30 2943 N 282.317 1.53212 0.369288 0
M  V30 2944 C 283.733 1.42902 0.710712 0
M  V30 2945 C 283.933 0.565135 1.93413 0
M  V30 2946 O 282.989 0.0461484 2.52458 0
M  V30 2947 C 284.302 2.86042 0.927382 0
M  V30 2948 C 285.85 2.9565 1.02762 0
M  V30 2949 C 286.325 4.39843 1.27679 0
M  V30 2950 N 287.816 4.43256 1.34457 0
M  V30 2951 C 288.551 5.51929 1.55439 0
M  V30 2952 N 288.047 6.70655 1.73762 0
M  V30 2953 N 289.84 5.39502 1.57779 0
M  V30 2954 H 281.991 2.07888 -0.435457 0
M  V30 2955 H 284.254 0.938661 -0.132739 0
M  V30 2956 H 283.96 3.51557 0.100287 0
M  V30 2957 H 283.834 3.29472 1.83653 0
M  V30 2958 H 286.221 2.30291 1.84527 0
M  V30 2959 H 286.302 2.5562 0.0959504 0
M  V30 2960 H 285.946 5.05774 0.464175 0
M  V30 2961 H 285.876 4.77443 2.22162 0
M  V30 2962 H 288.367 3.5769 1.21926 0
M  V30 2963 H 288.68 7.49248 1.89335 0
M  V30 2964 H 287.025 6.73648 1.70948 0
M  V30 2965 H 290.216 4.45713 1.43029 0
M  V30 2966 H 290.389 6.2426 1.7379 0
M  V30 2967 N 283.795 -0.628877 1.44509 0
M  V30 2968 C 284.728 -1.75367 1.46019 0
M  V30 2969 C 285.706 -1.59444 0.318787 0
M  V30 2970 O 286.89 -1.81297 0.516099 0
M  V30 2971 C 284.017 -3.12965 1.29501 0
M  V30 2972 C 283.063 -3.47532 2.47233 0
M  V30 2973 S 283.896 -3.44758 4.09758 0
M  V30 2974 C 285.052 -4.84973 3.95667 0
M  V30 2975 H 285.285 -1.7382 2.41193 0
M  V30 2976 H 282.818 -0.803686 1.31834 0
M  V30 2977 H 284.776 -3.92367 1.20658 0
M  V30 2978 H 283.437 -3.12049 0.358341 0
M  V30 2979 H 282.63 -4.47664 2.31544 0
M  V30 2980 H 282.232 -2.75598 2.52828 0
M  V30 2981 H 284.524 -5.74255 3.59496 0
M  V30 2982 H 285.467 -5.05716 4.95638 0
M  V30 2983 H 285.875 -4.59653 3.27688 0
M  V30 2984 N 285.273 -1.31445 -0.869486 0
M  V30 2985 C 286.236 -1.19094 -1.9583 0
M  V30 2986 C 287.236 -0.117906 -1.60367 0
M  V30 2987 O 288.426 -0.367208 -1.70286 0
M  V30 2988 C 285.558 -0.828165 -3.30688 0
M  V30 2989 H 286.751 -2.15842 -2.08212 0
M  V30 2990 H 284.304 -1.15063 -1.05784 0
M  V30 2991 H 285.039 0.138142 -3.24006 0
M  V30 2992 H 284.824 -1.6038 -3.578 0
M  V30 2993 H 286.314 -0.765658 -4.10521 0
M  V30 2994 N 286.751 1.08385 -1.14413 0
M  V30 2995 C 287.683 2.1519 -0.789036 0
M  V30 2996 C 288.696 1.61638 0.19417 0
M  V30 2997 O 289.885 1.78479 -0.0275711 0
M  V30 2998 C 286.985 3.38565 -0.15058 0
M  V30 2999 C 286.158 4.21501 -1.16857 0
M  V30 3000 C 285.217 5.23277 -0.553832 0
M  V30 3001 O 284.243 5.56041 -1.21686 0
M  V30 3002 N 285.445 5.76629 0.669296 0
M  V30 3003 H 288.21 2.46257 -1.70814 0
M  V30 3004 H 285.771 1.24198 -1.03858 0
M  V30 3005 H 287.763 4.03777 0.273181 0
M  V30 3006 H 286.333 3.05299 0.671667 0
M  V30 3007 H 285.553 3.52265 -1.76926 0
M  V30 3008 H 286.841 4.73731 -1.85624 0
M  V30 3009 H 286.239 5.52243 1.22654 0
M  V30 3010 H 284.796 6.43521 1.03556 0
M  V30 3011 N 288.23 0.939286 1.26551 0
M  V30 3012 C 289.16 0.465044 2.28822 0
M  V30 3013 C 290.141 -0.480692 1.63167 0
M  V30 3014 O 291.326 -0.382955 1.90387 0
M  V30 3015 C 288.456 -0.27234 3.46231 0
M  V30 3016 C 287.41 0.58666 4.2396 0
M  V30 3017 C 286.736 -0.280573 5.33963 0
M  V30 3018 C 288.036 1.85704 4.88171 0
M  V30 3019 H 289.73 1.31979 2.68741 0
M  V30 3020 H 287.276 0.636061 1.29191 0
M  V30 3021 H 289.229 -0.615133 4.16886 0
M  V30 3022 H 287.953 -1.16121 3.0526 0
M  V30 3023 H 286.612 0.91232 3.55067 0
M  V30 3024 H 286.26 -1.16874 4.89234 0
M  V30 3025 H 285.96 0.29076 5.8688 0
M  V30 3026 H 287.484 -0.618678 6.07458 0
M  V30 3027 H 288.898 1.58161 5.51052 0
M  V30 3028 H 287.295 2.37279 5.51197 0
M  V30 3029 H 288.365 2.56957 4.11219 0
M  V30 3030 N 289.708 -1.40897 0.706093 0
M  V30 3031 C 290.656 -2.32572 0.0361893 0
M  V30 3032 C 291.65 -1.51532 -0.757266 0
M  V30 3033 O 292.856 -1.67396 -0.661703 0
M  V30 3034 H 289.231 -0.751966 -0.00709935 0
M  V30 3035 H 291.202 -2.86733 0.826249 0
M  V30 3036 C 289.951 -3.36418 -0.87854 0
M  V30 3037 H 289.274 -3.98836 -0.277401 0
M  V30 3038 H 290.714 -4.0308 -1.3154 0
M  V30 3039 C 289.173 -2.71141 -1.99961 0
M  V30 3040 O 289.703 -2.56735 -3.0895 0
M  V30 3041 N 287.909 -2.29671 -1.78043 0
M  V30 3042 H 287.456 -2.41588 -0.894042 0
M  V30 3043 H 287.414 -1.86332 -2.53235 0
M  V30 3044 N 291.186 -0.45159 -1.50991 0
M  V30 3045 C 292.411 0.110667 -2.07105 0
M  V30 3046 C 292.836 1.3446 -1.31538 0
M  V30 3047 O 292.194 1.77743 -0.357365 0
M  V30 3048 C 292.242 0.397238 -3.58405 0
M  V30 3049 O 291.346 1.48124 -3.84881 0
M  V30 3050 H 290.687 -0.00439271 -0.663985 0
M  V30 3051 H 293.217 -0.637026 -1.9443 0
M  V30 3052 H 293.227 0.64351 -4.02893 0
M  V30 3053 H 291.902 -0.504553 -4.12828 0
M  V30 3054 H 290.479 1.22381 -3.52246 0
M  V30 3055 N 292.664 1.56529 -0.183458 0
M  V30 3056 C 293.596 2.15747 0.773697 0
M  V30 3057 C 294.609 1.1162 1.1851 0
M  V30 3058 O 295.798 1.3876 1.12285 0
M  V30 3059 C 292.898 2.6952 2.05456 0
M  V30 3060 C 292.071 3.98429 1.8048 0
M  V30 3061 C 291.13 4.37145 2.92901 0
M  V30 3062 O 290.156 5.04791 2.6301 0
M  V30 3063 N 291.358 3.99695 4.2098 0
M  V30 3064 H 294.123 2.98505 0.26736 0
M  V30 3065 H 291.684 1.619 -0.0010878 0
M  V30 3066 H 293.676 2.92412 2.79781 0
M  V30 3067 H 292.246 1.91282 2.47245 0
M  V30 3068 H 291.466 3.8379 0.899947 0
M  V30 3069 H 292.754 4.82597 1.61175 0
M  V30 3070 H 292.152 3.4526 4.48121 0
M  V30 3071 H 290.709 4.27562 4.9197 0
M  V30 3072 N 294.142 -0.090211 1.57342 0
M  V30 3073 C 295.09 -1.12792 2.03422 0
M  V30 3074 C 296.084 -1.41182 0.936166 0
M  V30 3075 O 297.29 -1.40805 1.12133 0
M  V30 3076 H 293.665 -0.380986 0.648347 0
M  V30 3077 H 295.636 -0.71299 2.89757 0
M  V30 3078 C 294.385 -2.43855 2.47851 0
M  V30 3079 H 293.708 -2.22855 3.31927 0
M  V30 3080 H 295.148 -3.14955 2.83865 0
M  V30 3081 C 293.607 -3.08503 1.3538 0
M  V30 3082 O 294.137 -3.95805 0.685641 0
M  V30 3083 N 292.343 -2.68831 1.10355 0
M  V30 3084 H 291.89 -1.97929 1.64869 0
M  V30 3085 H 291.848 -3.12412 0.353031 0
M  V30 3086 N 295.62 -1.53406 -0.361157 0
M  V30 3087 C 296.868 -1.69467 -1.10115 0
M  V30 3088 C 297.189 -0.451352 -1.89705 0
M  V30 3089 O 296.459 0.534636 -1.88463 0
M  V30 3090 H 295.039 -0.624749 -0.409508 0
M  V30 3091 H 297.701 -1.90609 -0.406699 0
M  V30 3092 H 296.797 -2.55774 -1.78847 0
M  V30 3093 N 297.098 0.621204 -1.44841 0
M  V30 3094 C 298.344 1.3826 -1.48365 0
M  V30 3095 C 298.677 1.93831 -0.119624 0
M  V30 3096 O 297.952 1.74251 0.864111 0
M  V30 3097 C 298.235 2.54058 -2.55199 0
M  V30 3098 C 298.088 2.03772 -4.00995 0
M  V30 3099 C 299.407 3.56225 -2.58442 0
M  V30 3100 H 296.526 0.501374 -0.540179 0
M  V30 3101 H 299.168 0.7015 -1.76576 0
M  V30 3102 H 297.318 3.12162 -2.31274 0
M  V30 3103 H 298.99 1.50423 -4.36086 0
M  V30 3104 H 297.233 1.34876 -4.12299 0
M  V30 3105 H 297.904 2.87185 -4.71411 0
M  V30 3106 H 300.38 3.07939 -2.79844 0
M  V30 3107 H 299.256 4.34756 -3.3508 0
M  V30 3108 H 299.517 4.10949 -1.63013 0
M  V30 3109 N 298.576 1.31904 0.862503 0
M  V30 3110 C 299.822 1.23207 1.61838 0
M  V30 3111 C 300.177 -0.206062 1.91293 0
M  V30 3112 O 299.47 -1.14162 1.53875 0
M  V30 3113 C 299.664 2.01713 2.95037 0
M  V30 3114 C 299.493 3.53014 2.78588 0
M  V30 3115 C 298.263 4.22359 2.77382 0
M  V30 3116 C 300.461 4.47819 2.52909 0
M  V30 3117 N 298.443 5.59766 2.52062 0
M  V30 3118 C 299.814 5.72947 2.36922 0
M  V30 3119 C 301.869 4.37162 2.38314 0
M  V30 3120 C 300.572 6.88623 2.07823 0
M  V30 3121 C 302.598 5.5263 2.10604 0
M  V30 3122 C 301.96 6.76752 1.95411 0
M  V30 3123 H 298.059 0.505984 0.596242 0
M  V30 3124 H 300.643 1.66179 1.01452 0
M  V30 3125 H 298.814 1.61098 3.53415 0
M  V30 3126 H 300.546 1.84975 3.59953 0
M  V30 3127 H 297.301 3.74401 2.90036 0
M  V30 3128 H 297.725 6.32135 2.42352 0
M  V30 3129 H 302.367 3.41857 2.48784 0
M  V30 3130 H 300.085 7.83948 1.9609 0
M  V30 3131 H 303.671 5.46307 2.00101 0
M  V30 3132 H 302.551 7.6459 1.74274 0
M  V30 3133 N 300.054 -1.07777 1.14986 0
M  V30 3134 C 301.279 -1.84558 0.946213 0
M  V30 3135 C 301.704 -1.81323 -0.500362 0
M  V30 3136 O 301.062 -1.20301 -1.35637 0
M  V30 3137 C 301.11 -3.29736 1.45968 0
M  V30 3138 O 300.214 -4.07149 0.65601 0
M  V30 3139 H 299.555 -0.571641 0.33782 0
M  V30 3140 H 302.085 -1.35991 1.52865 0
M  V30 3141 H 302.095 -3.80574 1.47063 0
M  V30 3142 H 300.77 -3.31406 2.51283 0
M  V30 3143 H 299.347 -3.65994 0.714322 0
M  V30 3144 N 301.532 -0.945985 -1.26051 0
M  V30 3145 C 302.772 -0.603665 -1.95282 0
M  V30 3146 C 303.136 0.842377 -1.72534 0
M  V30 3147 O 304.337 1.29387 -2.35611 0
M  V30 3148 C 302.608 -0.942292 -3.44754 0
M  V30 3149 S 304.167 -0.711242 -4.32997 0
M  V30 3150 H 300.985 -0.222176 -0.675395 0
M  V30 3151 H 303.587 -1.21832 -1.52896 0
M  V30 3152 H 302.291 -1.99203 -3.58812 0
M  V30 3153 H 301.822 -0.317546 -3.92116 0
M  V30 3154 H 303.837 0.422221 -4.944 0
M  V30 3155 N 303.011 1.40521 -0.713556 0
M  V30 3156 C 304.239 2.05237 -0.261775 0
M  V30 3157 C 304.654 1.53755 1.09567 0
M  V30 3158 O 304.011 0.693268 1.6882 0
M  V30 3159 C 304.062 3.60763 -0.230706 0
M  V30 3160 O 303.783 4.10345 -1.53455 0
M  V30 3161 C 305.284 4.42651 0.239874 0
M  V30 3162 H 302.504 0.660533 -0.118057 0
M  V30 3163 H 305.048 1.79967 -0.971192 0
M  V30 3164 H 303.203 3.8501 0.429661 0
M  V30 3165 H 303.617 5.04526 -1.43366 0
M  V30 3166 H 305.091 5.51599 0.210468 0
M  V30 3167 H 305.568 4.20082 1.28171 0
M  V30 3168 H 306.174 4.23507 -0.390142 0
M  V30 3169 N 304.489 0.459591 1.5075 0
M  V30 3170 C 305.736 -0.0993495 2.02256 0
M  V30 3171 C 306.064 -1.40751 1.34237 0
M  V30 3172 O 305.319 -1.90379 0.453228 0
M  V30 3173 C 305.618 -0.342866 3.55752 0
M  V30 3174 C 305.284 0.88218 4.42186 0
M  V30 3175 C 303.946 1.21808 4.65528 0
M  V30 3176 C 306.298 1.69837 4.92752 0
M  V30 3177 C 303.626 2.37045 5.36681 0
M  V30 3178 C 305.978 2.84192 5.65171 0
M  V30 3179 C 304.642 3.1821 5.8677 0
M  V30 3180 H 303.912 -0.0363545 0.740108 0
M  V30 3181 H 306.559 0.611329 1.8148 0
M  V30 3182 H 304.864 -1.13567 3.7498 0
M  V30 3183 H 306.561 -0.789121 3.93159 0
M  V30 3184 H 303.151 0.610467 4.2423 0
M  V30 3185 H 307.335 1.45205 4.74583 0
M  V30 3186 H 302.591 2.63689 5.51614 0
M  V30 3187 H 306.765 3.4779 6.03337 0
M  V30 3188 H 304.392 4.07613 6.41682 0
M  V30 3189 N 305.967 -1.56429 0.191757 0
M  V30 3190 C 307.213 -1.97777 -0.448554 0
M  V30 3191 C 307.546 -1.07847 -1.61501 0
M  V30 3192 O 306.821 -0.129774 -1.94067 0
M  V30 3193 C 307.104 -3.48362 -0.911906 0
M  V30 3194 C 306.957 -4.4907 0.256136 0
M  V30 3195 C 308.276 -4.02561 -1.77857 0
M  V30 3196 H 305.395 -0.719071 -0.161572 0
M  V30 3197 H 308.037 -1.87896 0.282007 0
M  V30 3198 H 306.187 -3.56914 -1.53442 0
M  V30 3199 H 307.859 -4.5256 0.893733 0
M  V30 3200 H 306.102 -4.24181 0.908436 0
M  V30 3201 H 306.773 -5.51889 -0.11053 0
M  V30 3202 H 309.249 -3.96767 -1.25359 0
M  V30 3203 H 308.125 -5.08301 -2.07174 0
M  V30 3204 H 308.386 -3.47616 -2.73158 0
M  V30 3205 N 307.445 0.0818655 -1.57387 0
M  V30 3206 C 308.693 0.781368 -1.86384 0
M  V30 3207 C 309.014 1.78618 -0.782342 0
M  V30 3208 O 308.284 1.94976 0.190061 0
M  V30 3209 H 306.864 0.291562 -0.687751 0
M  V30 3210 H 309.526 0.060348 -1.94807 0
M  V30 3211 H 308.622 1.3038 -2.83562 0
M  V30 3212 N 308.923 1.53595 0.353017 0
M  V30 3213 C 310.153 1.74058 1.11299 0
M  V30 3214 C 310.561 0.475205 1.83135 0
M  V30 3215 O 309.904 -0.562344 1.74881 0
M  V30 3216 C 309.966 2.85994 2.17825 0
M  V30 3217 C 309.63 4.25923 1.65647 0
M  V30 3218 C 310.627 5.07829 1.11383 0
M  V30 3219 C 308.312 4.72377 1.7078 0
M  V30 3220 C 310.306 6.34285 0.629439 0
M  V30 3221 C 307.993 5.98808 1.21953 0
M  V30 3222 C 308.991 6.79594 0.681265 0
M  V30 3223 O 308.679 8.03651 0.200248 0
M  V30 3224 H 308.411 0.585327 0.338183 0
M  V30 3225 H 310.965 2.01186 0.413927 0
M  V30 3226 H 309.195 2.54368 2.91262 0
M  V30 3227 H 310.884 2.94515 2.79313 0
M  V30 3228 H 311.65 4.73107 1.06746 0
M  V30 3229 H 307.529 4.0956 2.11617 0
M  V30 3230 H 311.073 6.97288 0.208636 0
M  V30 3231 H 306.97 6.33026 1.26287 0
M  V30 3232 H 307.738 8.1788 0.318416 0
M  V30 3233 N 310.401 -0.613514 1.45168 0
M  V30 3234 C 311.641 -1.38405 1.5041 0
M  V30 3235 C 312.005 -1.91489 0.139922 0
M  V30 3236 O 313.206 -2.68716 0.067033 0
M  V30 3237 C 311.477 -2.50552 2.5487 0
M  V30 3238 S 313.036 -3.38439 2.79292 0
M  V30 3239 H 309.854 -0.471945 0.531779 0
M  V30 3240 H 312.456 -0.708518 1.82209 0
M  V30 3241 H 311.16 -2.09894 3.52665 0
M  V30 3242 H 310.691 -3.22913 2.24701 0
M  V30 3243 H 312.706 -4.48527 2.12222 0
M  V30 3244 N 311.879 -1.3236 -0.855495 0
M  V30 3245 C 313.104 -1.2601 -1.64731 0
M  V30 3246 C 313.529 0.169068 -1.87339 0
M  V30 3247 O 312.887 1.12016 -1.42556 0
M  V30 3248 C 312.935 -2.02417 -2.98429 0
M  V30 3249 O 312.039 -1.3714 -3.8893 0
M  V30 3250 H 311.38 -0.434325 -0.502253 0
M  V30 3251 H 313.91 -1.74661 -1.06558 0
M  V30 3252 H 313.92 -2.12559 -3.48257 0
M  V30 3253 H 312.595 -3.06343 -2.81295 0
M  V30 3254 H 311.172 -1.3554 -3.47395 0
M  V30 3255 N 313.357 1.07166 -1.15556 0
M  V30 3256 C 314.267 2.17947 -0.868116 0
M  V30 3257 C 315.283 1.73297 0.156297 0
M  V30 3258 O 316.459 2.01392 -0.0182327 0
M  V30 3259 C 313.524 3.44789 -0.36355 0
M  V30 3260 C 312.585 4.03996 -1.45209 0
M  V30 3261 C 311.818 5.24783 -0.971508 0
M  V30 3262 O 312.041 5.70109 0.182194 0
M  V30 3263 O 310.975 5.75715 -1.75603 0
M  V30 3264 H 314.801 2.4503 -1.79427 0
M  V30 3265 H 312.386 1.16539 -0.934824 0
M  V30 3266 H 314.268 4.21307 -0.0887113 0
M  V30 3267 H 312.943 3.19253 0.534708 0
M  V30 3268 H 311.85 3.29009 -1.78056 0
M  V30 3269 H 313.183 4.33808 -2.32533 0
M  V30 3270 N 314.835 0.952656 1.25548 0
M  V30 3271 C 316.081 0.607272 1.93494 0
M  V30 3272 C 316.414 -0.853245 1.74452 0
M  V30 3273 O 315.689 -1.61194 1.08843 0
M  V30 3274 C 315.972 0.96435 3.46947 0
M  V30 3275 C 315.825 2.48045 3.75225 0
M  V30 3276 C 317.144 0.487987 4.37386 0
M  V30 3277 H 314.263 0.222096 0.702739 0
M  V30 3278 H 316.905 1.18895 1.48203 0
M  V30 3279 H 315.055 0.469361 3.85654 0
M  V30 3280 H 316.727 3.04905 3.46166 0
M  V30 3281 H 314.97 2.919 3.209 0
M  V30 3282 H 315.641 2.6808 4.82532 0
M  V30 3283 H 318.117 0.912558 4.0597 0
M  V30 3284 H 316.993 0.766547 5.43521 0
M  V30 3285 H 317.254 -0.612063 4.37843 0
M  V30 3286 N 316.313 -1.40141 0.720998 0
M  V30 3287 C 317.553 -2.02644 0.267335 0
M  V30 3288 C 317.917 -1.55948 -1.12001 0
M  V30 3289 O 319.118 -2.10552 -1.67097 0
M  V30 3290 C 317.389 -3.55679 0.350281 0
M  V30 3291 S 318.948 -4.38793 -0.0256004 0
M  V30 3292 H 315.766 -0.703105 0.105664 0
M  V30 3293 H 318.368 -1.71175 0.944416 0
M  V30 3294 H 317.072 -3.87157 1.36153 0
M  V30 3295 H 316.603 -3.91883 -0.345096 0
M  V30 3296 H 318.618 -4.803 -1.24604 0
M  V30 3297 N 317.792 -0.46758 -1.50504 0
M  V30 3298 C 319.203 -0.0116166 -1.86696 0
M  V30 3299 C 319.554 1.39202 -1.38265 0
M  V30 3300 O 318.679 2.0313 -0.746132 0
M  V30 3301 C 319.274 -0.0143044 -3.38797 0
M  V30 3302 C 317.833 0.386175 -3.74414 0
M  V30 3303 C 316.98 -0.401287 -2.74381 0
M  V30 3304 H 319.931 -0.682022 -1.43297 0
M  V30 3305 H 319.952 0.788641 -3.72237 0
M  V30 3306 H 319.464 -1.03602 -3.74016 0
M  V30 3307 H 317.565 1.41237 -3.44794 0
M  V30 3308 H 317.678 0.0899596 -4.79016 0
M  V30 3309 H 316.042 0.144536 -2.5429 0
M  V30 3310 H 316.825 -1.42244 -3.12444 0
M  V30 3311 N 319.27 1.56325 -0.20005 0
M  V30 3312 C 320.217 2.1932 0.718833 0
M  V30 3313 C 321.187 1.14198 1.20615 0
M  V30 3314 O 322.372 1.42469 1.26914 0
M  V30 3315 C 319.512 2.86041 1.93066 0
M  V30 3316 C 318.625 4.05702 1.48425 0
M  V30 3317 C 317.76 4.60266 2.65196 0
M  V30 3318 C 316.799 5.72273 2.17185 0
M  V30 3319 N 315.936 6.21221 3.27152 0
M  V30 3320 H 320.776 2.97486 0.17489 0
M  V30 3321 H 318.313 1.46911 0.0745794 0
M  V30 3322 H 320.271 3.22897 2.64184 0
M  V30 3323 H 318.901 2.1043 2.44783 0
M  V30 3324 H 317.953 3.74475 0.668755 0
M  V30 3325 H 319.265 4.86699 1.09204 0
M  V30 3326 H 318.419 4.99453 3.4443 0
M  V30 3327 H 317.158 3.78386 3.07693 0
M  V30 3328 H 316.163 5.3261 1.36407 0
M  V30 3329 H 317.388 6.55974 1.75713 0
M  V30 3330 H 315.334 5.42263 3.69171 0
M  V30 3331 H 315.251 6.97284 2.92116 0
M  V30 3332 H 316.519 6.65063 4.06585 0
M  V30 3333 N 320.748 -0.0735177 1.57428 0
M  V30 3334 C 321.698 -1.09442 2.00016 0
M  V30 3335 C 322.682 -1.34575 0.881947 0
M  V30 3336 O 323.874 -1.34905 1.14585 0
M  V30 3337 C 321.003 -2.40865 2.4462 0
M  V30 3338 C 320.089 -2.19014 3.63172 0
M  V30 3339 N 320.48 -1.67087 4.77405 0
M  V30 3340 C 318.778 -2.49494 3.69688 0
M  V30 3341 C 319.479 -1.6001 5.5926 0
M  V30 3342 N 318.455 -2.05999 5.03056 0
M  V30 3343 H 322.257 -0.686227 2.85776 0
M  V30 3344 H 319.771 -0.280617 1.59957 0
M  V30 3345 H 321.768 -3.14763 2.73368 0
M  V30 3346 H 320.428 -2.82403 1.60246 0
M  V30 3347 H 321.439 -1.35975 4.99731 0
M  V30 3348 H 318.116 -2.94409 2.96023 0
M  V30 3349 H 319.506 -1.2073 6.60964 0
M  V30 3350 N 322.226 -1.5378 -0.344866 0
M  V30 3351 C 323.472 -1.71216 -1.08687 0
M  V30 3352 C 323.805 -0.473281 -1.88345 0
M  V30 3353 O 323.08 0.52968 -1.87149 0
M  V30 3354 C 323.363 -2.97486 -2.02914 0
M  V30 3355 C 323.216 -4.31579 -1.26727 0
M  V30 3356 C 324.535 -3.19422 -3.0275 0
M  V30 3357 H 321.654 -0.62301 -0.393735 0
M  V30 3358 H 324.296 -1.8645 -0.365563 0
M  V30 3359 H 322.446 -2.84629 -2.64421 0
M  V30 3360 H 324.118 -4.56284 -0.67845 0
M  V30 3361 H 322.361 -4.30049 -0.569273 0
M  V30 3362 H 323.032 -5.16106 -1.95803 0
M  V30 3363 H 325.508 -3.316 -2.51357 0
M  V30 3364 H 324.384 -4.09169 -3.65885 0
M  V30 3365 H 324.645 -2.35656 -3.74057 0
M  V30 3366 N 323.704 0.605807 -1.45491 0
M  V30 3367 C 324.981 1.36522 -1.40075 0
M  V30 3368 C 325.361 2.10976 -0.0722744 0
M  V30 3369 O 324.709 2.08007 0.945808 0
M  V30 3370 C 324.919 2.31056 -2.61561 0
M  V30 3371 C 326.267 2.93608 -3.06724 0
M  V30 3372 O 327.291 2.41376 -2.61946 0
M  V30 3373 O 326.15 3.88421 -3.84437 0
M  V30 3374 H 323.244 0.612248 -0.555951 0
M  V30 3375 H 325.79 0.628747 -1.57623 0
M  V30 3376 H 324.562 1.75311 -3.49831 0
M  V30 3377 H 324.185 3.12081 -2.46356 0
M  V30 3378 N 325.182 1.32811 0.848464 0
M  V30 3379 C 326.593 1.21315 1.41914 0
M  V30 3380 C 326.944 -0.171847 1.95446 0
M  V30 3381 O 326.069 -1.07093 1.88043 0
M  V30 3382 C 326.664 2.19631 2.57968 0
M  V30 3383 C 325.223 2.12003 3.11017 0
M  V30 3384 C 324.37 2.07651 1.83783 0
M  V30 3385 H 327.321 1.44549 0.655071 0
M  V30 3386 H 327.342 1.79845 3.35315 0
M  V30 3387 H 326.854 3.20423 2.18976 0
M  V30 3388 H 324.955 1.14481 3.54577 0
M  V30 3389 H 325.068 3.02111 3.71841 0
M  V30 3390 H 323.432 1.52983 2.03638 0
M  V30 3391 H 324.215 3.10235 1.47 0
M  V30 3392 N 326.66 -1.06551 1.16123 0
M  V30 3393 C 327.623 -2.12132 0.867906 0
M  V30 3394 C 328.623 -1.60224 -0.135944 0
M  V30 3395 O 329.813 -1.73943 0.0946422 0
M  V30 3396 C 326.945 -3.396 0.297419 0
M  V30 3397 H 328.138 -2.39586 1.80385 0
M  V30 3398 H 325.691 -1.22574 0.969812 0
M  V30 3399 H 326.426 -3.17794 -0.64633 0
M  V30 3400 H 326.211 -3.78581 1.02073 0
M  V30 3401 H 327.701 -4.17455 0.110052 0
M  V30 3402 N 328.138 -0.959301 -1.25041 0
M  V30 3403 C 329.101 -0.487677 -2.23952 0
M  V30 3404 C 330.101 0.41119 -1.55454 0
M  V30 3405 O 331.291 0.207825 -1.72956 0
M  V30 3406 C 328.423 0.294807 -3.39623 0
M  V30 3407 H 329.616 -1.36198 -2.67189 0
M  V30 3408 H 327.169 -0.743042 -1.37508 0
M  V30 3409 H 327.904 1.18658 -3.01813 0
M  V30 3410 H 327.689 -0.35012 -3.90534 0
M  V30 3411 H 329.179 0.614089 -4.1306 0
M  V30 3412 N 329.616 1.39756 -0.72842 0
M  V30 3413 C 330.579 2.29012 -0.0927297 0
M  V30 3414 C 331.579 1.45992 0.674025 0
M  V30 3415 O 332.769 1.66749 0.50402 0
M  V30 3416 C 329.901 3.29396 0.878137 0
M  V30 3417 H 331.094 2.86729 -0.879011 0
M  V30 3418 H 328.647 1.48293 -0.493847 0
M  V30 3419 H 329.382 2.76722 1.69101 0
M  V30 3420 H 329.167 3.907 0.331051 0
M  V30 3421 H 330.657 3.96199 1.3197 0
M  V30 3422 N 331.094 0.475555 1.50254 0
M  V30 3423 C 332.343 -0.0795996 2.01543 0
M  V30 3424 C 332.656 -1.4038 1.36209 0
M  V30 3425 O 333.862 -2.04415 1.7868 0
M  V30 3426 C 332.318 -0.192363 3.59386 0
M  V30 3427 C 331.926 1.12367 4.33679 0
M  V30 3428 C 333.67 -0.699238 4.18701 0
M  V30 3429 C 331.577 0.974453 5.83317 0
M  V30 3430 H 330.507 -0.0335228 0.753254 0
M  V30 3431 H 333.158 0.611128 1.73025 0
M  V30 3432 H 331.54 -0.946974 3.84511 0
M  V30 3433 H 332.714 1.88958 4.20276 0
M  V30 3434 H 331.029 1.562 3.85993 0
M  V30 3435 H 333.626 -0.827978 5.28251 0
M  V30 3436 H 333.969 -1.69171 3.80377 0
M  V30 3437 H 334.502 -0.00188807 3.978 0
M  V30 3438 H 331.241 1.94042 6.26121 0
M  V30 3439 H 330.761 0.248998 5.99283 0
M  V30 3440 H 332.44 0.642867 6.43798 0
M  V30 3441 N 332.573 -1.56217 0.208337 0
M  V30 3442 C 333.505 -2.1695 -0.739276 0
M  V30 3443 C 334.518 -1.13492 -1.1672 0
M  V30 3444 O 335.707 -1.40529 -1.10063 0
M  V30 3445 C 332.807 -2.72755 -2.01142 0
M  V30 3446 C 331.98 -4.0125 -1.74118 0
M  V30 3447 C 331.039 -4.41749 -2.85909 0
M  V30 3448 O 330.065 -5.08912 -2.54946 0
M  V30 3449 N 331.267 -4.06342 -4.14568 0
M  V30 3450 H 334.032 -2.98893 -0.219837 0
M  V30 3451 H 331.593 -1.61878 0.0268445 0
M  V30 3452 H 333.585 -2.96826 -2.75094 0
M  V30 3453 H 332.155 -1.95191 -2.4417 0
M  V30 3454 H 331.375 -3.85173 -0.838775 0
M  V30 3455 H 332.663 -4.851 -1.53477 0
M  V30 3456 H 332.061 -3.52345 -4.42571 0
M  V30 3457 H 330.618 -4.35335 -4.85105 0
M  V30 3458 N 334.051 0.0651679 -1.57465 0
M  V30 3459 C 334.983 1.10359 -2.00882 0
M  V30 3460 C 335.996 1.346 -0.915788 0
M  V30 3461 O 337.185 1.32723 -1.1936 0
M  V30 3462 C 334.285 2.45312 -2.33828 0
M  V30 3463 C 333.458 2.40934 -3.65061 0
M  V30 3464 C 332.517 3.58047 -3.85602 0
M  V30 3465 O 331.543 3.39175 -4.57109 0
M  V30 3466 N 332.745 4.78637 -3.28462 0
M  V30 3467 H 335.51 0.733807 -2.90578 0
M  V30 3468 H 333.071 0.253719 -1.599 0
M  V30 3469 H 335.063 3.22314 -2.44737 0
M  V30 3470 H 333.633 2.74267 -1.49988 0
M  V30 3471 H 332.853 1.49273 -3.64844 0
M  V30 3472 H 334.141 2.35117 -4.51218 0
M  V30 3473 H 333.539 4.96872 -2.70433 0
M  V30 3474 H 332.096 5.53127 -3.44809 0
M  V30 3475 N 335.529 1.53961 0.336706 0
M  V30 3476 C 336.777 1.71197 1.07405 0
M  V30 3477 C 337.098 0.481475 1.88962 0
M  V30 3478 O 336.368 -0.504585 1.8929 0
M  V30 3479 H 334.948 0.631185 0.399517 0
M  V30 3480 H 337.61 1.91232 0.376323 0
M  V30 3481 H 336.706 2.58587 1.74755 0
M  V30 3482 N 337.007 -0.598083 1.45811 0
M  V30 3483 C 337.954 -1.7082 1.55207 0
M  V30 3484 C 338.924 -1.61278 0.39732 0
M  V30 3485 O 340.109 -1.80717 0.612038 0
M  V30 3486 C 337.249 -3.09144 1.53376 0
M  V30 3487 C 336.362 -3.29423 2.79472 0
M  V30 3488 C 335.497 -4.57907 2.69248 0
M  V30 3489 C 334.536 -4.71476 3.90354 0
M  V30 3490 N 333.673 -5.9127 3.78608 0
M  V30 3491 H 338.513 -1.62125 2.50039 0
M  V30 3492 H 336.05 -0.790389 1.24062 0
M  V30 3493 H 338.008 -3.89186 1.50301 0
M  V30 3494 H 336.638 -3.16773 0.620876 0
M  V30 3495 H 335.69 -2.43091 2.92594 0
M  V30 3496 H 337.002 -3.3532 3.69272 0
M  V30 3497 H 336.156 -5.46157 2.64192 0
M  V30 3498 H 334.895 -4.54423 1.77063 0
M  V30 3499 H 333.9 -3.81648 3.95759 0
M  V30 3500 H 335.125 -4.76751 4.83617 0
M  V30 3501 H 333.071 -5.88813 2.89199 0
M  V30 3502 H 332.988 -5.98369 4.6205 0
M  V30 3503 H 334.256 -6.81992 3.77501 0
M  V30 3504 N 338.485 -1.33259 -0.841409 0
M  V30 3505 C 339.731 -1.24757 -1.59886 0
M  V30 3506 C 340.064 0.186913 -1.93298 0
M  V30 3507 O 339.339 1.12757 -1.5848 0
M  V30 3508 C 339.622 -2.12036 -2.91055 0
M  V30 3509 C 339.475 -3.63929 -2.6434 0
M  V30 3510 C 340.794 -1.9916 -3.92458 0
M  V30 3511 H 337.913 -0.454542 -0.580138 0
M  V30 3512 H 340.555 -1.63335 -0.970647 0
M  V30 3513 H 338.705 -1.79265 -3.44669 0
M  V30 3514 H 340.377 -4.06978 -2.17178 0
M  V30 3515 H 338.62 -3.85935 -1.98082 0
M  V30 3516 H 339.291 -4.20341 -3.57796 0
M  V30 3517 H 341.767 -2.27895 -3.48143 0
M  V30 3518 H 340.643 -2.62484 -4.82072 0
M  V30 3519 H 340.904 -0.963082 -4.31482 0
M  V30 3520 N 339.963 1.05934 -1.16686 0
M  V30 3521 C 340.873 2.17014 -0.891183 0
M  V30 3522 C 341.889 1.73453 0.137907 0
M  V30 3523 O 343.065 2.01361 -0.039592 0
M  V30 3524 C 340.13 3.44384 -0.400099 0
M  V30 3525 C 339.191 4.02433 -1.49486 0
M  V30 3526 C 338.424 5.23723 -1.02711 0
M  V30 3527 O 338.647 5.7027 0.121716 0
M  V30 3528 O 337.581 5.7382 -1.81699 0
M  V30 3529 H 341.407 2.43113 -1.82015 0
M  V30 3530 H 338.992 1.15541 -0.947132 0
M  V30 3531 H 340.874 4.21189 -0.133392 0
M  V30 3532 H 339.549 3.19802 0.500817 0
M  V30 3533 H 338.456 3.27102 -1.81535 0
M  V30 3534 H 339.789 4.31317 -2.37121 0
M  V30 3535 N 341.441 0.965919 1.2453 0
M  V30 3536 C 342.666 0.643971 1.97149 0
M  V30 3537 C 343.091 -0.779487 1.71189 0
M  V30 3538 O 342.449 -1.5288 0.974553 0
M  V30 3539 C 342.497 0.922557 3.48599 0
M  V30 3540 O 341.601 0.00707672 4.12399 0
M  V30 3541 H 340.942 0.243647 0.617683 0
M  V30 3542 H 343.472 1.29558 1.58353 0
M  V30 3543 H 343.482 0.853373 3.98976 0
M  V30 3544 H 342.157 1.95996 3.66822 0
M  V30 3545 H 340.734 0.12943 3.72675 0
M  V30 3546 N 342.919 -1.39368 0.735821 0
M  V30 3547 C 344.144 -2.05319 0.293052 0
M  V30 3548 C 344.569 -1.55115 -1.064 0
M  V30 3549 O 343.927 -0.695261 -1.67439 0
M  V30 3550 C 343.975 -3.59305 0.305323 0
M  V30 3551 O 343.079 -4.06299 -0.706761 0
M  V30 3552 H 342.42 -0.650529 0.13307 0
M  V30 3553 H 344.95 -1.78386 1.00197 0
M  V30 3554 H 344.96 -4.07724 0.149997 0
M  V30 3555 H 343.635 -3.95207 1.29553 0
M  V30 3556 H 342.212 -3.69292 -0.517504 0
M  V30 3557 N 344.397 -0.483516 -1.5 0
M  V30 3558 C 345.344 0.304164 -2.28787 0
M  V30 3559 C 346.314 0.976114 -1.34392 0
M  V30 3560 O 347.499 0.986156 -1.63339 0
M  V30 3561 C 344.639 1.37298 -3.16612 0
M  V30 3562 C 343.752 0.714561 -4.26049 0
M  V30 3563 C 342.887 1.76232 -5.01114 0
M  V30 3564 C 341.926 1.08483 -6.0241 0
M  V30 3565 N 341.063 2.076 -6.70706 0
M  V30 3566 H 345.903 -0.373981 -2.95644 0
M  V30 3567 H 343.44 -0.196275 -1.45785 0
M  V30 3568 H 345.398 2.00445 -3.65893 0
M  V30 3569 H 344.028 2.02012 -2.51776 0
M  V30 3570 H 343.08 -0.0297798 -3.80388 0
M  V30 3571 H 344.392 0.180383 -4.98474 0
M  V30 3572 H 343.546 2.46929 -5.54176 0
M  V30 3573 H 342.285 2.33033 -4.28424 0
M  V30 3574 H 341.29 0.363545 -5.48597 0
M  V30 3575 H 342.515 0.523551 -6.77079 0
M  V30 3576 H 340.461 2.63394 -6.00799 0
M  V30 3577 H 340.378 1.59201 -7.39047 0
M  V30 3578 H 341.646 2.77639 -7.2838 0
M  V30 3579 N 345.875 1.56104 -0.216619 0
M  V30 3580 C 347.152 1.89988 0.465165 0
M  V30 3581 C 347.532 1.13326 1.78102 0
M  V30 3582 O 346.88 0.241033 2.27225 0
M  V30 3583 C 347.09 3.42646 0.662939 0
M  V30 3584 C 348.438 4.13311 0.972602 0
M  V30 3585 O 349.462 3.48217 0.749901 0
M  V30 3586 O 348.321 5.28396 1.39499 0
M  V30 3587 H 345.415 0.78979 0.245276 0
M  V30 3588 H 347.961 1.67721 -0.258436 0
M  V30 3589 H 346.733 3.90399 -0.26543 0
M  V30 3590 H 346.356 3.70677 1.43821 0
M  V30 3591 N 347.353 -0.0568162 1.57498 0
M  V30 3592 C 348.6 -0.753104 1.87975 0
M  V30 3593 C 348.928 -1.76815 0.81035 0
M  V30 3594 O 348.183 -1.94756 -0.19199 0
M  V30 3595 C 348.482 -1.48359 3.25153 0
M  V30 3596 C 348.148 -0.60713 4.46794 0
M  V30 3597 C 346.81 -0.365642 4.79809 0
M  V30 3598 C 349.162 -0.000305978 5.212 0
M  V30 3599 C 346.49 0.491905 5.84634 0
M  V30 3600 C 348.842 0.844781 6.26934 0
M  V30 3601 C 347.506 1.096 6.58441 0
M  V30 3602 H 346.776 -0.27558 0.687849 0
M  V30 3603 H 349.423 -0.0135173 1.91495 0
M  V30 3604 H 347.728 -2.29577 3.17492 0
M  V30 3605 H 349.425 -2.02739 3.45974 0
M  V30 3606 H 346.015 -0.805487 4.20963 0
M  V30 3607 H 350.199 -0.173961 4.95995 0
M  V30 3608 H 345.455 0.695131 6.07436 0
M  V30 3609 H 349.629 1.32165 6.83744 0
M  V30 3610 H 347.256 1.76224 7.39492 0
M  V30 3611 N 348.832 -1.54138 -0.328536 0
M  V30 3612 C 349.762 -1.86167 -1.40939 0
M  V30 3613 C 350.743 -0.718044 -1.54202 0
M  V30 3614 O 351.928 -0.971328 -1.68163 0
M  V30 3615 C 349.058 -2.08461 -2.77779 0
M  V30 3616 C 348.012 -3.24299 -2.7931 0
M  V30 3617 C 347.338 -3.31955 -4.19178 0
M  V30 3618 C 348.638 -4.62065 -2.43502 0
M  V30 3619 H 350.332 -2.76689 -1.14383 0
M  V30 3620 H 347.878 -1.33132 -0.548806 0
M  V30 3621 H 349.831 -2.29453 -3.53454 0
M  V30 3622 H 348.555 -1.14684 -3.05802 0
M  V30 3623 H 347.214 -3.03187 -2.0609 0
M  V30 3624 H 346.862 -2.35745 -4.44335 0
M  V30 3625 H 346.562 -4.09805 -4.2111 0
M  V30 3626 H 348.086 -3.55175 -4.96672 0
M  V30 3627 H 349.5 -4.8297 -3.08889 0
M  V30 3628 H 347.897 -5.42429 -2.56693 0
M  V30 3629 H 348.967 -4.64652 -1.38659 0
M  V30 3630 N 350.31 0.590341 -1.46126 0
M  V30 3631 C 351.559 1.34499 -1.50309 0
M  V30 3632 C 351.872 1.94977 -0.156021 0
M  V30 3633 O 353.078 2.71395 -0.0756037 0
M  V30 3634 C 351.534 2.43723 -2.64815 0
M  V30 3635 C 351.142 1.89582 -4.0591 0
M  V30 3636 C 352.886 3.20579 -2.78262 0
M  V30 3637 C 350.793 2.9639 -5.11769 0
M  V30 3638 H 349.723 0.505593 -0.559368 0
M  V30 3639 H 352.374 0.630848 -1.72315 0
M  V30 3640 H 350.756 3.17902 -2.36124 0
M  V30 3641 H 351.93 1.21997 -4.44357 0
M  V30 3642 H 350.245 1.25418 -3.97063 0
M  V30 3643 H 352.842 4.00276 -3.54519 0
M  V30 3644 H 353.185 3.72684 -1.85505 0
M  V30 3645 H 353.718 2.53505 -3.06562 0
M  V30 3646 H 350.457 2.49181 -6.06291 0
M  V30 3647 H 349.977 3.62487 -4.77873 0
M  V30 3648 H 351.656 3.60474 -5.37278 0
M  V30 3649 N 351.788 1.33704 0.83433 0
M  V30 3650 C 352.751 1.24244 1.92603 0
M  V30 3651 C 353.751 0.160383 1.59998 0
M  V30 3652 O 354.941 0.412228 1.69252 0
M  V30 3653 C 352.073 0.91555 3.28376 0
M  V30 3654 H 353.266 2.21287 2.02416 0
M  V30 3655 H 350.819 1.17827 1.02696 0
M  V30 3656 H 351.554 -0.0521886 3.24258 0
M  V30 3657 H 351.339 1.69811 3.53422 0
M  V30 3658 H 352.829 0.874231 4.08347 0
M  V30 3659 N 353.266 -1.05314 1.17247 0
M  V30 3660 C 354.494 -1.81971 0.984593 0
M  V30 3661 C 354.909 -1.82929 -0.467166 0
M  V30 3662 O 354.266 -1.25564 -1.32438 0
M  V30 3663 C 354.317 -3.28143 1.51672 0
M  V30 3664 O 354.038 -3.27347 2.91163 0
M  V30 3665 C 355.539 -4.21493 1.37326 0
M  V30 3666 H 352.759 -0.573455 0.348411 0
M  V30 3667 H 355.303 -1.32808 1.55506 0
M  V30 3668 H 353.458 -3.74582 0.988302 0
M  V30 3669 H 353.872 -4.18824 3.15732 0
M  V30 3670 H 355.346 -5.22043 1.79375 0
M  V30 3671 H 355.823 -4.38031 0.320169 0
M  V30 3672 H 356.429 -3.80909 1.89178 0
M  V30 3673 N 354.744 -0.972509 -1.24016 0
M  V30 3674 C 355.674 -0.525548 -2.27509 0
M  V30 3675 C 356.655 0.437262 -1.64384 0
M  V30 3676 O 357.84 0.332343 -1.91335 0
M  V30 3677 C 354.97 0.180448 -3.46831 0
M  V30 3678 C 353.924 -0.698859 -4.22256 0
M  V30 3679 C 353.25 0.138903 -5.3452 0
M  V30 3680 C 354.55 -1.98582 -4.83076 0
M  V30 3681 H 356.244 -1.39058 -2.65148 0
M  V30 3682 H 353.79 -0.67009 -1.27459 0
M  V30 3683 H 355.743 0.504387 -4.18371 0
M  V30 3684 H 354.467 1.07987 -3.08231 0
M  V30 3685 H 353.126 -1.00614 -3.52523 0
M  V30 3686 H 352.774 1.03862 -4.9216 0
M  V30 3687 H 352.474 -0.446259 -5.85903 0
M  V30 3688 H 353.998 0.457404 -6.08884 0
M  V30 3689 H 355.412 -1.72715 -5.46665 0
M  V30 3690 H 353.809 -2.5181 -5.44713 0
M  V30 3691 H 354.879 -2.67769 -4.04262 0
M  V30 3692 N 356.222 1.38976 -0.743202 0
M  V30 3693 C 357.169 2.30544 -0.10861 0
M  V30 3694 C 358.139 1.49642 0.720869 0
M  V30 3695 O 359.324 1.78304 0.679142 0
M  V30 3696 C 356.464 3.36018 0.786496 0
M  V30 3697 C 355.577 4.31963 -0.0564849 0
M  V30 3698 C 354.712 5.24506 0.840657 0
M  V30 3699 C 353.751 6.121 -0.00658363 0
M  V30 3700 N 352.888 6.96973 0.846943 0
M  V30 3701 H 357.728 2.8424 -0.895088 0
M  V30 3702 H 355.265 1.3995 -0.453048 0
M  V30 3703 H 357.223 3.95768 1.31999 0
M  V30 3704 H 355.853 2.83758 1.53887 0
M  V30 3705 H 354.905 3.73763 -0.707492 0
M  V30 3706 H 356.217 4.93703 -0.711229 0
M  V30 3707 H 355.371 5.89322 1.4417 0
M  V30 3708 H 354.11 4.63107 1.52916 0
M  V30 3709 H 353.115 5.46289 -0.620366 0
M  V30 3710 H 354.34 6.75565 -0.691992 0
M  V30 3711 H 352.286 6.38133 1.52059 0
M  V30 3712 H 352.203 7.5559 0.248864 0
M  V30 3713 H 353.471 7.6621 1.43328 0
M  V30 3714 N 357.7 0.491464 1.49741 0
M  V30 3715 C 359.111 0.0413169 1.86654 0
M  V30 3716 C 359.462 -1.36985 1.40462 0
M  V30 3717 O 358.587 -2.01917 0.778354 0
M  V30 3718 C 359.182 0.0682023 3.38731 0
M  V30 3719 C 357.741 -0.32656 3.74981 0
M  V30 3720 C 356.888 0.444888 2.73708 0
M  V30 3721 H 359.839 0.704733 1.42194 0
M  V30 3722 H 359.86 -0.729322 3.73445 0
M  V30 3723 H 359.372 1.09539 3.72321 0
M  V30 3724 H 357.473 -1.35734 3.46997 0
M  V30 3725 H 357.586 -0.013741 4.79098 0
M  V30 3726 H 355.95 -0.104062 2.54487 0
M  V30 3727 H 356.733 1.47197 3.10142 0
M  V30 3728 N 359.178 -1.55987 0.224894 0
M  V30 3729 C 360.594 -1.59066 -0.130426 0
M  V30 3730 C 360.794 -1.24176 -1.5869 0
M  V30 3731 O 359.85 -0.978592 -2.32766 0
M  V30 3732 C 361.163 -3.00042 0.198883 0
M  V30 3733 C 362.711 -3.1268 0.141391 0
M  V30 3734 C 363.186 -4.55839 0.444422 0
M  V30 3735 N 364.677 -4.6152 0.394115 0
M  V30 3736 C 365.412 -5.70231 0.602038 0
M  V30 3737 N 364.908 -6.87291 0.871914 0
M  V30 3738 N 366.701 -5.59555 0.534245 0
M  V30 3739 H 358.852 -1.76941 1.17497 0
M  V30 3740 H 361.115 -0.822604 0.471197 0
M  V30 3741 H 360.821 -3.30234 1.2099 0
M  V30 3742 H 360.695 -3.74075 -0.484535 0
M  V30 3743 H 363.082 -2.82283 -0.860265 0
M  V30 3744 H 363.163 -2.40969 0.858335 0
M  V30 3745 H 362.807 -4.86954 1.44353 0
M  V30 3746 H 362.737 -5.2578 -0.293752 0
M  V30 3747 H 365.228 -3.77405 0.193356 0
M  V30 3748 H 365.541 -7.66058 1.01858 0
M  V30 3749 H 363.886 -6.89028 0.909145 0
M  V30 3750 H 367.077 -4.6698 0.323612 0
M  V30 3751 H 367.25 -6.44211 0.699693 0
M  V30 3752 O 360.695 -0.0887553 -1.61256 0
M  V30 3753 H 361.386 0.514821 -1.86733 0
M  V30 END ATOM
M  V30 BEGIN BOND
M  V30 END BOND
M  V30 END CTAB
M  END
$$$$
