drugbank_target|P0AC38 Aspartate ammonia-lyase (DB02379)
 OpenBabel12092120043D

  0  0  0     0  0            999 V3000
M  V30 BEGIN CTAB
M  V30 COUNTS 7354 7409 0 0 0
M  V30 BEGIN ATOM
M  V30 1 H -0.908 1.98254 -0.117106 0
M  V30 2 N 0 1.576 0 0
M  V30 3 C 0.933 2.03868 1.02534 0
M  V30 4 C 1.911 0.928543 1.3348 0
M  V30 5 O 3.095 1.19667 1.45644 0
M  V30 6 C 0.222 2.43627 2.35294 0
M  V30 7 C -0.732 3.65373 2.2001 0
M  V30 8 S 0.101 5.13292 1.52614 0
M  V30 9 C 1.257 5.56322 2.86805 0
M  V30 10 H 1.49 2.90518 0.631377 0
M  V30 11 H -0.977 1.52953 0.210867 0
M  V30 12 H 0.981 2.67203 3.11629 0
M  V30 13 H -0.358 1.57376 2.7183 0
M  V30 14 H -1.165 3.90944 3.18086 0
M  V30 15 H -1.563 3.418 1.51819 0
M  V30 16 H 0.729 5.58782 3.83104 0
M  V30 17 H 1.672 6.56266 2.65933 0
M  V30 18 H 2.08 4.83886 2.90714 0
M  V30 19 N 1.4781 -0.272755 1.55222 0
M  V30 20 C 2.7031 -1.02683 1.80197 0
M  V30 21 C 3.1281 -1.79142 0.573551 0
M  V30 22 O 2.4861 -1.74917 -0.476849 0
M  V30 23 C 2.5341 -1.9609 3.02624 0
M  V30 24 O 1.6381 -3.04863 2.77727 0
M  V30 25 H 0.9791 -0.293557 0.595584 0
M  V30 26 H 3.5091 -0.30159 2.02365 0
M  V30 27 H 3.5191 -2.38039 3.31363 0
M  V30 28 H 2.1941 -1.39851 3.91682 0
M  V30 29 H 0.7711 -2.67228 2.60084 0
M  V30 30 N 2.9562 -1.48159 -0.537278 0
M  V30 31 C 3.9042 -1.62573 -1.66352 0
M  V30 32 C 4.8982 -0.492366 -1.62087 0
M  V30 33 O 6.1042 -0.670847 -1.67032 0
M  V30 34 H 2.4792 -0.511992 -0.550789 0
M  V30 35 H 4.4502 -2.57176 -1.51337 0
M  V30 36 C 3.1992 -1.67583 -3.04649 0
M  V30 37 H 2.5222 -2.54151 -3.08622 0
M  V30 38 H 3.9622 -1.81713 -3.83088 0
M  V30 39 C 2.4212 -0.413039 -3.34358 0
M  V30 40 O 2.9512 0.477259 -3.98855 0
M  V30 41 N 1.1572 -0.286961 -2.8918 0
M  V30 42 H 0.7042 -1.01241 -2.36871 0
M  V30 43 H 0.6622 0.556963 -3.09427 0
M  V30 44 N 4.4343 0.785586 -1.36625 0
M  V30 45 C 5.3823 1.91978 -1.31329 0
M  V30 46 C 6.3763 1.68162 -0.204416 0
M  V30 47 O 7.5823 1.76122 -0.371645 0
M  V30 48 H 3.9573 0.631087 -0.408942 0
M  V30 49 H 5.9283 1.93562 -2.27104 0
M  V30 50 C 4.6773 3.29055 -1.12329 0
M  V30 51 H 4.0003 3.4795 -1.96903 0
M  V30 52 H 5.4403 4.08756 -1.12671 0
M  V30 53 C 3.8993 3.36461 0.171861 0
M  V30 54 O 4.4293 3.84576 1.16035 0
M  V30 55 N 2.6353 2.89782 0.217846 0
M  V30 56 H 2.1823 2.50819 -0.587183 0
M  V30 57 H 2.1403 2.95119 1.08408 0
M  V30 58 N 5.9124 1.20967 1.01018 0
M  V30 59 C 7.1614 1.01796 1.74128 0
M  V30 60 C 7.4744 -0.449691 1.90361 0
M  V30 61 O 8.6804 -0.76068 2.60626 0
M  V30 62 C 7.1364 1.7727 3.13215 0
M  V30 63 C 6.7444 3.28171 3.04972 0
M  V30 64 C 8.4884 1.66489 3.90489 0
M  V30 65 C 6.3954 3.96156 4.39107 0
M  V30 66 H 5.3254 0.377276 0.652824 0
M  V30 67 H 7.9764 1.44651 1.12909 0
M  V30 68 H 6.3584 1.27205 3.75013 0
M  V30 69 H 7.5324 3.85499 2.52443 0
M  V30 70 H 5.8474 3.39437 2.41188 0
M  V30 71 H 8.4444 2.14617 4.89738 0
M  V30 72 H 8.7874 0.6222 4.11624 0
M  V30 73 H 9.3204 2.14003 3.35332 0
M  V30 74 H 6.0594 5.00604 4.23174 0
M  V30 75 H 5.5794 3.43617 4.91617 0
M  V30 76 H 7.2584 4.00774 5.07926 0
M  V30 77 N 7.3905 -1.2043 1.01659 0
M  V30 78 C 8.8065 -1.41852 0.731442 0
M  V30 79 C 9.0065 -1.89358 -0.688898 0
M  V30 80 O 8.0625 -2.06247 -1.45666 0
M  V30 81 C 9.3755 -2.44019 1.75714 0
M  V30 82 C 10.9235 -2.57785 1.77527 0
M  V30 83 C 11.3985 -3.63194 2.79023 0
M  V30 84 N 12.8895 -3.70678 2.77763 0
M  V30 85 C 13.6245 -4.51897 3.52954 0
M  V30 86 N 13.1205 -5.36921 4.37821 0
M  V30 87 N 14.9135 -4.4643 3.41551 0
M  V30 88 H 7.0645 -0.879093 1.93354 0
M  V30 89 H 9.3275 -0.448425 0.835236 0
M  V30 90 H 9.0335 -2.1611 2.77469 0
M  V30 91 H 8.9075 -3.43007 1.56927 0
M  V30 92 H 11.2945 -2.85023 0.764569 0
M  V30 93 H 11.3755 -1.58992 2.00387 0
M  V30 94 H 11.0195 -3.36699 3.80258 0
M  V30 95 H 10.9495 -4.61609 2.53425 0
M  V30 96 H 13.4405 -3.09944 2.16201 0
M  V30 97 H 13.7535 -5.95981 4.91962 0
M  V30 98 H 12.0985 -5.36424 4.41899 0
M  V30 99 H 15.2895 -3.79042 2.74672 0
M  V30 100 H 15.4625 -5.09491 4.00404 0
M  V30 101 N 8.8686 -0.792821 -1.36206 0
M  V30 102 C 10.1176 -0.363353 -1.984 0
M  V30 103 C 10.4306 1.07172 -1.63626 0
M  V30 104 O 11.6366 1.60362 -2.19081 0
M  V30 105 C 10.0926 -0.59872 -3.54885 0
M  V30 106 C 9.7006 -2.04543 -3.9858 0
M  V30 107 C 11.4446 -0.233926 -4.23855 0
M  V30 108 C 9.3516 -2.22727 -5.47856 0
M  V30 109 H 8.2816 -0.13212 -0.742334 0
M  V30 110 H 10.9326 -0.974935 -1.55458 0
M  V30 111 H 9.3146 0.0826222 -3.95914 0
M  V30 112 H 10.4886 -2.76345 -3.68741 0
M  V30 113 H 8.8036 -2.36879 -3.42458 0
M  V30 114 H 11.4006 -0.348027 -5.33566 0
M  V30 115 H 11.7436 0.818351 -4.08177 0
M  V30 116 H 12.2766 -0.868639 -3.882 0
M  V30 117 H 9.0156 -3.2635 -5.68486 0
M  V30 118 H 8.5356 -1.55434 -5.7931 0
M  V30 119 H 10.2146 -2.03607 -6.14128 0
M  V30 120 N 10.3467 1.47872 -0.545128 0
M  V30 121 C 11.2567 2.33633 0.212746 0
M  V30 122 C 12.2727 1.4744 0.923983 0
M  V30 123 O 13.4487 1.80393 0.895572 0
M  V30 124 C 10.5137 3.23884 1.23693 0
M  V30 125 C 9.5747 4.25961 0.534417 0
M  V30 126 C 8.8077 5.11899 1.5098 0
M  V30 127 O 9.0307 5.00077 2.7437 0
M  V30 128 O 7.9647 5.92831 1.0409 0
M  V30 129 H 11.7907 2.99714 -0.490416 0
M  V30 130 H 9.3757 1.46235 -0.305871 0
M  V30 131 H 11.2577 3.79666 1.82843 0
M  V30 132 H 9.9327 2.60446 1.92222 0
M  V30 133 H 8.8397 3.73972 -0.0979679 0
M  V30 134 H 10.1727 4.92079 -0.109213 0
M  V30 135 N 11.8248 0.280983 1.55075 0
M  V30 136 C 12.7348 -0.61388 2.26426 0
M  V30 137 C 13.7508 -1.16521 1.29224 0
M  V30 138 O 14.9268 -1.19426 1.62171 0
M  V30 139 C 11.9918 -1.7788 2.9759 0
M  V30 140 C 11.0528 -1.26355 4.10284 0
M  V30 141 C 10.2858 -2.37295 4.78045 0
M  V30 142 O 10.5088 -3.56777 4.45047 0
M  V30 143 O 9.4428 -2.05119 5.65871 0
M  V30 144 H 13.2688 -0.0356932 3.03679 0
M  V30 145 H 10.8538 0.0481686 1.49322 0
M  V30 146 H 12.7358 -2.45791 3.42293 0
M  V30 147 H 11.4108 -2.34397 2.23249 0
M  V30 148 H 10.3178 -0.550735 3.70024 0
M  V30 149 H 11.6508 -0.744065 4.86543 0
M  V30 150 N 13.3029 -1.57598 0.00835791 0
M  V30 151 C 14.5799 -1.82172 -0.712235 0
M  V30 152 C 14.9599 -0.887873 -1.9152 0
M  V30 153 O 14.3079 0.06146 -2.28417 0
M  V30 154 C 14.5179 -3.30875 -1.11008 0
M  V30 155 C 15.8659 -3.96826 -1.51044 0
M  V30 156 O 16.8899 -3.35248 -1.20364 0
M  V30 157 O 15.7489 -5.05318 -2.08125 0
M  V30 158 H 12.8429 -0.750435 -0.347529 0
M  V30 159 H 15.3889 -1.69665 0.0344523 0
M  V30 160 H 14.1609 -3.90481 -0.252982 0
M  V30 161 H 13.7839 -3.48412 -1.9156 0
M  V30 162 N 14.781 0.264519 -1.55364 0
M  V30 163 C 15.711 1.33121 -1.91836 0
M  V30 164 C 16.692 1.51101 -0.781192 0
M  V30 165 O 17.877 1.64003 -1.04003 0
M  V30 166 C 15.007 2.68921 -2.19769 0
M  V30 167 C 13.961 2.65661 -3.35571 0
M  V30 168 C 13.287 4.05093 -3.49004 0
M  V30 169 C 14.587 2.24187 -4.71739 0
M  V30 170 H 16.281 1.02844 -2.81182 0
M  V30 171 H 13.827 0.493286 -1.35287 0
M  V30 172 H 15.78 3.43663 -2.43872 0
M  V30 173 H 14.504 3.00799 -1.27231 0
M  V30 174 H 13.163 1.93377 -3.1145 0
M  V30 175 H 12.811 4.34206 -2.53917 0
M  V30 176 H 12.511 4.03804 -4.26868 0
M  V30 177 H 14.035 4.81561 -3.75408 0
M  V30 178 H 15.449 2.88654 -4.9533 0
M  V30 179 H 13.846 2.34044 -5.52579 0
M  V30 180 H 14.916 1.19327 -4.69988 0
M  V30 181 N 16.2591 1.48442 0.529413 0
M  V30 182 C 17.1891 1.65902 1.64313 0
M  V30 183 C 18.1701 0.507897 1.6234 0
M  V30 184 O 19.3551 0.740503 1.79528 0
M  V30 185 C 16.4851 1.69911 3.02898 0
M  V30 186 C 15.4391 2.8453 3.19729 0
M  V30 187 C 14.7651 2.73629 4.59381 0
M  V30 188 C 16.0651 4.25821 3.02447 0
M  V30 189 H 17.7591 2.5914 1.49955 0
M  V30 190 H 15.3051 1.24709 0.719982 0
M  V30 191 H 17.2581 1.80715 3.80684 0
M  V30 192 H 15.9821 0.732524 3.18279 0
M  V30 193 H 14.6411 2.73283 2.44361 0
M  V30 194 H 14.2891 1.74938 4.71599 0
M  V30 195 H 13.9891 3.50541 4.71588 0
M  V30 196 H 15.5131 2.86401 5.39265 0
M  V30 197 H 16.9271 4.37898 3.70024 0
M  V30 198 H 15.3241 5.03735 3.26146 0
M  V30 199 H 16.3941 4.42244 1.98867 0
M  V30 200 N 17.7372 -0.778329 1.37039 0
M  V30 201 C 18.9852 -1.53361 1.31623 0
M  V30 202 C 19.3062 -1.94739 -0.100831 0
M  V30 203 O 18.5762 -1.65797 -1.04347 0
M  V30 204 H 17.1562 -0.568794 0.484234 0
M  V30 205 H 19.8182 -0.926742 1.71457 0
M  V30 206 H 18.9142 -2.43606 1.95096 0
M  V30 207 N 19.2153 -1.21501 -1.00376 0
M  V30 208 C 20.4433 -1.059 -1.77744 0
M  V30 209 C 20.8583 0.391125 -1.84704 0
M  V30 210 O 20.2153 1.27133 -1.30933 0
M  V30 211 C 20.2663 -1.65111 -3.21591 0
M  V30 212 O 19.9873 -3.0445 -3.15027 0
M  V30 213 C 21.4883 -1.54637 -4.15454 0
M  V30 214 H 18.7083 -0.371825 -0.558558 0
M  V30 215 H 21.2523 -1.60865 -1.26264 0
M  V30 216 H 19.4073 -1.14235 -3.70175 0
M  V30 217 H 19.8213 -3.3278 -4.0541 0
M  V30 218 H 21.2953 -2.00808 -5.14179 0
M  V30 219 H 21.7723 -0.501022 -4.36333 0
M  V30 220 H 22.3783 -2.04767 -3.72761 0
M  V30 221 N 20.6934 1.19889 -1.02296 0
M  V30 222 C 22.1094 1.41462 -0.738954 0
M  V30 223 C 22.3094 1.89721 0.678846 0
M  V30 224 O 21.3654 2.07016 1.4457 0
M  V30 225 C 22.6784 2.43083 -1.77005 0
M  V30 226 C 24.2264 2.5684 -1.78892 0
M  V30 227 C 24.7014 3.61709 -2.80945 0
M  V30 228 N 26.1924 3.69199 -2.79725 0
M  V30 229 C 26.9274 4.50019 -3.55345 0
M  V30 230 N 26.4234 5.34592 -4.40662 0
M  V30 231 N 28.2164 4.44612 -3.43914 0
M  V30 232 H 20.3674 0.868827 -1.93817 0
M  V30 233 H 22.6304 0.44399 -0.837602 0
M  V30 234 H 22.3364 2.14636 -2.78612 0
M  V30 235 H 22.2104 3.4217 -1.58744 0
M  V30 236 H 24.5974 2.84614 -0.779674 0
M  V30 237 H 24.6784 1.57927 -2.01228 0
M  V30 238 H 24.3224 3.34678 -3.82038 0
M  V30 239 H 24.2524 4.60259 -2.5587 0
M  V30 240 H 26.7434 3.08794 -2.17842 0
M  V30 241 H 27.0564 5.93363 -4.95116 0
M  V30 242 H 25.4014 5.34073 -4.44737 0
M  V30 243 H 28.5924 3.7758 -2.76679 0
M  V30 244 H 28.7654 5.0736 -4.031 0
M  V30 245 N 22.1715 0.800033 1.35784 0
M  V30 246 C 23.0815 0.207204 2.33683 0
M  V30 247 C 24.0975 -0.64631 1.61551 0
M  V30 248 O 25.2735 -0.559604 1.93469 0
M  V30 249 C 22.3385 -0.639659 3.40748 0
M  V30 250 C 21.3995 0.233585 4.28664 0
M  V30 251 C 20.6325 -0.572954 5.30616 0
M  V30 252 O 20.8555 -1.80816 5.40982 0
M  V30 253 O 19.7895 0.0327285 6.01891 0
M  V30 254 H 23.6155 1.01692 2.86169 0
M  V30 255 H 21.2005 0.561691 1.38439 0
M  V30 256 H 23.0825 -1.12223 4.06182 0
M  V30 257 H 21.7575 -1.42708 2.90544 0
M  V30 258 H 20.6645 0.763147 3.66233 0
M  V30 259 H 21.9975 0.984784 4.82248 0
M  V30 260 N 23.6496 -1.47581 0.552962 0
M  V30 261 C 24.8956 -2.02782 0.0273648 0
M  V30 262 C 25.2286 -1.42687 -1.31734 0
M  V30 263 O 24.5036 -0.580897 -1.85623 0
M  V30 264 C 24.7866 -3.60031 -0.0702371 0
M  V30 265 C 24.6396 -4.30566 1.30126 0
M  V30 266 C 25.9586 -4.33028 -0.785771 0
M  V30 267 H 23.0776 -0.736912 0.0114185 0
M  V30 268 H 25.7196 -1.76056 0.714432 0
M  V30 269 H 23.8696 -3.82932 -0.655382 0
M  V30 270 H 25.5416 -4.19018 1.92929 0
M  V30 271 H 23.7846 -3.91086 1.87709 0
M  V30 272 H 24.4556 -5.39114 1.18573 0
M  V30 273 H 26.9316 -4.15095 -0.288982 0
M  V30 274 H 25.8076 -5.42695 -0.823013 0
M  V30 275 H 26.0686 -4.01945 -1.841 0
M  V30 276 N 25.1277 -0.289203 -1.54924 0
M  V30 277 C 26.5387 0.205791 -1.85562 0
M  V30 278 C 26.8897 1.54351 -1.2112 0
M  V30 279 O 26.0147 2.10435 -0.504601 0
M  V30 280 C 26.6097 0.380177 -3.3666 0
M  V30 281 C 25.1687 0.819395 -3.67373 0
M  V30 282 C 24.3157 -0.079159 -2.77187 0
M  V30 283 H 27.2667 -0.510577 -1.50262 0
M  V30 284 H 27.2877 1.21659 -3.60526 0
M  V30 285 H 26.7997 -0.593589 -3.83534 0
M  V30 286 H 24.9007 1.80413 -3.26009 0
M  V30 287 H 25.0137 0.646957 -4.74712 0
M  V30 288 H 23.3777 0.439565 -2.50878 0
M  V30 289 H 24.1607 -1.04906 -3.26878 0
M  V30 290 N 26.6058 1.57591 -0.0167156 0
M  V30 291 C 27.5688 2.08393 0.954204 0
M  V30 292 C 28.5688 0.996531 1.26198 0
M  V30 293 O 29.7588 1.25858 1.20438 0
M  V30 294 C 26.8908 2.5394 2.27436 0
M  V30 295 H 28.0838 2.95455 0.514451 0
M  V30 296 H 25.6368 1.54582 0.231089 0
M  V30 297 H 26.3718 1.70171 2.76066 0
M  V30 298 H 26.1568 3.33371 2.06412 0
M  V30 299 H 27.6468 2.93512 2.97053 0
M  V30 300 N 28.0839 -0.256276 1.55502 0
M  V30 301 C 29.3609 -1.00789 1.67633 0
M  V30 302 C 29.7409 -2.03706 0.553826 0
M  V30 303 O 29.0889 -2.24145 -0.443969 0
M  V30 304 C 29.2989 -1.64968 3.07549 0
M  V30 305 C 30.6469 -2.15505 3.65845 0
M  V30 306 O 31.6709 -1.74925 3.1029 0
M  V30 307 O 30.5299 -2.89986 4.63217 0
M  V30 308 H 27.6239 -0.468553 0.681459 0
M  V30 309 H 30.1699 -0.250806 1.67836 0
M  V30 310 H 28.9419 -0.904785 3.80696 0
M  V30 311 H 28.5649 -2.47321 3.11317 0
M  V30 312 N 29.562 -1.4872 -0.521534 0
M  V30 313 C 30.525 -1.63379 -1.60748 0
M  V30 314 C 31.525 -0.50661 -1.52611 0
M  V30 315 O 32.715 -0.772601 -1.5613 0
M  V30 316 C 29.847 -1.61192 -3.00383 0
M  V30 317 H 31.04 -2.60217 -1.49087 0
M  V30 318 H 28.593 -1.37444 -0.744235 0
M  V30 319 H 29.328 -0.65863 -3.17541 0
M  V30 320 H 29.113 -2.43032 -3.07698 0
M  V30 321 H 30.603 -1.7466 -3.7932 0
M  V30 322 N 31.0401 0.771051 -1.3745 0
M  V30 323 C 32.2701 1.55789 -1.35696 0
M  V30 324 C 32.6781 1.89107 0.0594523 0
M  V30 325 O 32.0211 1.51984 1.03183 0
M  V30 326 C 32.0831 2.89515 -2.13123 0
M  V30 327 C 31.7471 2.78829 -3.62082 0
M  V30 328 C 32.7441 2.49812 -4.5595 0
M  V30 329 C 30.4291 2.9683 -4.05213 0
M  V30 330 C 32.4231 2.38923 -5.90927 0
M  V30 331 C 30.1101 2.85562 -5.40276 0
M  V30 332 C 31.1081 2.56649 -6.32946 0
M  V30 333 O 30.7961 2.45408 -7.65526 0
M  V30 334 H 30.5281 0.489257 -0.466481 0
M  V30 335 H 33.0821 0.963446 -1.81403 0
M  V30 336 H 31.3121 3.51081 -1.62107 0
M  V30 337 H 33.0011 3.50915 -2.03994 0
M  V30 338 H 33.7671 2.3559 -4.23937 0
M  V30 339 H 29.6461 3.18335 -3.33442 0
M  V30 340 H 33.1901 2.16277 -6.63227 0
M  V30 341 H 29.0871 2.99351 -5.71891 0
M  V30 342 H 29.8551 2.60753 -7.75855 0
M  V30 343 N 32.5182 1.22032 0.997298 0
M  V30 344 C 33.7482 1.06686 1.76923 0
M  V30 345 C 34.1562 -0.385838 1.85224 0
M  V30 346 O 33.4992 -1.27929 1.31833 0
M  V30 347 C 33.5612 1.59802 3.22031 0
M  V30 348 C 33.2252 3.08362 3.37286 0
M  V30 349 C 34.2222 4.05835 3.24952 0
M  V30 350 C 31.9072 3.47727 3.6248 0
M  V30 351 C 33.9012 5.4066 3.37588 0
M  V30 352 C 31.5882 4.82701 3.74757 0
M  V30 353 C 32.5862 5.78977 3.62319 0
M  V30 354 O 32.2742 7.11502 3.74193 0
M  V30 355 H 32.0062 0.374767 0.562606 0
M  V30 356 H 34.5602 1.61991 1.26286 0
M  V30 357 H 32.7902 0.989003 3.73839 0
M  V30 358 H 34.4792 1.40184 3.80924 0
M  V30 359 H 35.2452 3.76766 3.05405 0
M  V30 360 H 31.1242 2.73317 3.7124 0
M  V30 361 H 34.6682 6.15788 3.27796 0
M  V30 362 H 30.5652 5.11453 3.9381 0
M  V30 363 H 31.3332 7.19019 3.91093 0
M  V30 364 N 33.9963 -1.19345 1.0293 0
M  V30 365 C 35.2443 -1.88665 0.724574 0
M  V30 366 C 35.5653 -1.80036 -0.749144 0
M  V30 367 O 34.8353 -1.2111 -1.53978 0
M  V30 368 H 33.4153 -0.698406 0.265025 0
M  V30 369 H 36.0773 -1.44885 1.30362 0
M  V30 370 H 35.1733 -2.94987 1.01926 0
M  V30 371 N 35.4744 -0.807222 -1.35358 0
M  V30 372 C 36.7204 -0.388463 -1.99045 0
M  V30 373 C 37.0534 1.04184 -1.63888 0
M  V30 374 O 36.3284 1.72292 -0.902535 0
M  V30 375 C 36.6114 -0.572783 -3.55515 0
M  V30 376 C 36.4644 -2.04807 -4.00468 0
M  V30 377 C 37.7834 0.00114064 -4.401 0
M  V30 378 H 34.9024 -0.142619 -0.723069 0
M  V30 379 H 37.5444 -1.01687 -1.60498 0
M  V30 380 H 35.6944 -0.0378425 -3.88482 0
M  V30 381 H 37.3664 -2.64544 -3.77908 0
M  V30 382 H 35.6094 -2.54427 -3.51353 0
M  V30 383 H 36.2804 -2.12792 -5.09337 0
M  V30 384 H 38.7564 -0.455716 -4.13597 0
M  V30 385 H 37.6324 -0.157737 -5.48673 0
M  V30 386 H 37.8934 1.09488 -4.28328 0
M  V30 387 N 36.9525 1.47285 -0.560781 0
M  V30 388 C 37.9025 2.27073 0.205384 0
M  V30 389 C 38.8865 1.34569 0.882044 0
M  V30 390 O 40.0785 1.58899 0.77976 0
M  V30 391 C 37.2075 3.20414 1.23247 0
M  V30 392 C 36.2935 4.20399 0.559041 0
M  V30 393 N 36.6845 5.04423 -0.372927 0
M  V30 394 C 34.9825 4.38536 0.812522 0
M  V30 395 C 35.6835 5.76655 -0.764446 0
M  V30 396 N 34.6595 5.43471 -0.11848 0
M  V30 397 H 38.4615 2.89422 -0.511117 0
M  V30 398 H 35.9755 1.57868 -0.380975 0
M  V30 399 H 37.9725 3.76262 1.79534 0
M  V30 400 H 36.6325 2.59623 1.95002 0
M  V30 401 H 37.6435 5.1248 -0.747287 0
M  V30 402 H 34.3205 3.88913 1.51832 0
M  V30 403 H 35.7105 6.54238 -1.53045 0
M  V30 404 N 38.4306 0.297415 1.54768 0
M  V30 405 C 39.6586 -0.315623 2.04478 0
M  V30 406 C 40.0736 -1.47792 1.17486 0
M  V30 407 O 39.4306 -1.81404 0.19971 0
M  V30 408 C 39.4816 -0.7753 3.53088 0
M  V30 409 O 39.2026 0.340732 4.36773 0
M  V30 410 C 40.7036 -1.45386 4.18781 0
M  V30 411 H 37.9236 -0.0690887 0.667434 0
M  V30 412 H 40.4676 0.436003 1.99798 0
M  V30 413 H 38.6226 -1.47696 3.58141 0
M  V30 414 H 39.0366 -0.0165035 5.24497 0
M  V30 415 H 40.5106 -1.72669 5.24299 0
M  V30 416 H 40.9876 -2.39275 3.68299 0
M  V30 417 H 41.5936 -0.795475 4.17795 0
M  V30 418 N 39.9087 -1.5758 0.0250728 0
M  V30 419 C 40.8387 -2.13007 -0.956575 0
M  V30 420 C 41.8197 -1.0452 -1.342 0
M  V30 421 O 43.0047 -1.32332 -1.42133 0
M  V30 422 C 40.1347 -2.65386 -2.24026 0
M  V30 423 C 39.0887 -3.78623 -1.99571 0
M  V30 424 C 38.4147 -4.17414 -3.3417 0
M  V30 425 C 39.7147 -5.04867 -1.33814 0
M  V30 426 H 41.4087 -2.9528 -0.494991 0
M  V30 427 H 38.9547 -1.42042 -0.236651 0
M  V30 428 H 40.9077 -3.02794 -2.93076 0
M  V30 429 H 39.6317 -1.80268 -2.72343 0
M  V30 430 H 38.2907 -3.41646 -1.32941 0
M  V30 431 H 37.9387 -3.29284 -3.80238 0
M  V30 432 H 37.6387 -4.93719 -3.18615 0
M  V30 433 H 39.1627 -4.57402 -4.04495 0
M  V30 434 H 40.5767 -5.39888 -1.92857 0
M  V30 435 H 38.9737 -5.86144 -1.28669 0
M  V30 436 H 40.0437 -4.83904 -0.310561 0
M  V30 437 N 41.3868 0.248026 -1.55636 0
M  V30 438 C 42.8028 0.596483 -1.48035 0
M  V30 439 C 43.0028 1.88386 -0.715039 0
M  V30 440 O 42.0588 2.51319 -0.243944 0
M  V30 441 C 43.3718 0.700258 -2.92433 0
M  V30 442 C 44.9198 0.792659 -3.02797 0
M  V30 443 C 45.3948 0.928005 -4.485 0
M  V30 444 N 46.8858 0.992903 -4.52433 0
M  V30 445 C 47.6208 1.11687 -5.62418 0
M  V30 446 N 47.1168 1.20645 -6.82214 0
M  V30 447 N 48.9098 1.14994 -5.50212 0
M  V30 448 H 41.0608 -0.597109 -2.03834 0
M  V30 449 H 43.3238 -0.205925 -0.925364 0
M  V30 450 H 43.0298 -0.175658 -3.51261 0
M  V30 451 H 42.9038 1.57255 -3.42857 0
M  V30 452 H 45.2908 1.65903 -2.4405 0
M  V30 453 H 45.3718 -0.104762 -2.55585 0
M  V30 454 H 45.0158 0.0661971 -5.07857 0
M  V30 455 H 44.9458 1.84045 -4.93391 0
M  V30 456 H 47.4368 0.935064 -3.66149 0
M  V30 457 H 47.7498 1.30008 -7.61786 0
M  V30 458 H 46.0948 1.17605 -6.84977 0
M  V30 459 H 49.2858 1.07643 -4.55555 0
M  V30 460 H 49.4588 1.24311 -6.35965 0
M  V30 461 N 42.8649 1.48995 0.513639 0
M  V30 462 C 43.8279 1.64229 1.59879 0
M  V30 463 C 44.8279 0.514696 1.5234 0
M  V30 464 O 46.0179 0.78087 1.55718 0
M  V30 465 C 43.1499 1.62783 2.99524 0
M  V30 466 H 44.3429 2.61004 1.47705 0
M  V30 467 H 41.8959 1.37837 0.736936 0
M  V30 468 H 42.6309 0.675461 3.17188 0
M  V30 469 H 42.4159 2.4466 3.06404 0
M  V30 470 H 43.9059 1.76669 3.78388 0
M  V30 471 N 44.343 -0.763751 1.37857 0
M  V30 472 C 45.592 -1.51789 1.32827 0
M  V30 473 C 45.905 -1.95426 -0.0823719 0
M  V30 474 O 47.111 -2.70298 -0.255172 0
M  V30 475 C 45.567 -2.74133 2.33193 0
M  V30 476 C 45.175 -2.37562 3.79827 0
M  V30 477 C 46.919 -3.52054 2.37188 0
M  V30 478 C 44.826 -3.56456 4.71904 0
M  V30 479 H 43.756 -0.569896 0.493695 0
M  V30 480 H 46.407 -0.835822 1.63359 0
M  V30 481 H 44.789 -3.4427 1.9569 0
M  V30 482 H 45.963 -1.75157 4.26212 0
M  V30 483 H 44.278 -1.72798 3.78853 0
M  V30 484 H 46.875 -4.40437 3.03182 0
M  V30 485 H 47.218 -3.92486 1.38782 0
M  V30 486 H 47.751 -2.88921 2.7344 0
M  V30 487 H 44.49 -3.21099 5.71468 0
M  V30 488 H 44.01 -4.17938 4.30218 0
M  V30 489 H 45.689 -4.23168 4.89426 0
M  V30 490 N 45.8211 -1.22559 -0.990812 0
M  V30 491 C 46.7311 -1.01394 -2.11557 0
M  V30 492 C 47.7471 0.0383962 -1.73958 0
M  V30 493 O 48.9231 -0.154787 -2.00804 0
M  V30 494 C 45.9881 -0.596569 -3.41529 0
M  V30 495 C 45.0491 -1.72276 -3.93217 0
M  V30 496 C 44.2821 -1.32521 -5.16985 0
M  V30 497 O 44.5051 -0.204909 -5.70032 0
M  V30 498 O 43.4391 -2.14247 -5.62478 0
M  V30 499 H 47.2651 -1.95633 -2.32296 0
M  V30 500 H 44.8501 -1.01172 -1.0993 0
M  V30 501 H 46.7321 -0.374263 -4.19735 0
M  V30 502 H 45.4071 0.316939 -3.22145 0
M  V30 503 H 44.3141 -1.99961 -3.16174 0
M  V30 504 H 45.6471 -2.61421 -4.17037 0
M  V30 505 N 47.2992 1.18797 -1.03562 0
M  V30 506 C 48.2472 2.24297 -0.615905 0
M  V30 507 C 49.2412 1.65643 0.354808 0
M  V30 508 O 50.4472 1.78618 0.22265 0
M  V30 509 H 46.8222 0.729909 -0.180934 0
M  V30 510 H 48.7932 2.5701 -1.5162 0
M  V30 511 C 47.5422 3.47698 0.0104735 0
M  V30 512 H 46.8652 3.93125 -0.727509 0
M  V30 513 H 48.3052 4.23159 0.266995 0
M  V30 514 C 46.7642 3.12489 1.25905 0
M  V30 515 O 47.2942 3.25761 2.35038 0
M  V30 516 N 45.5002 2.6686 1.15039 0
M  V30 517 H 45.0472 2.56261 0.262328 0
M  V30 518 H 45.0052 2.43674 1.98672 0
M  V30 519 N 48.7773 0.814389 1.34928 0
M  V30 520 C 50.0243 0.398423 1.98542 0
M  V30 521 C 50.3523 -1.03638 1.64589 0
M  V30 522 O 49.6073 -1.73509 0.90516 0
M  V30 523 C 49.9063 0.537781 3.53331 0
M  V30 524 C 49.5723 1.93704 4.07172 0
M  V30 525 C 48.2343 2.31984 4.21589 0
M  V30 526 C 50.5863 2.85213 4.36237 0
M  V30 527 C 47.9143 3.61125 4.62391 0
M  V30 528 C 50.2663 4.13809 4.78482 0
M  V30 529 C 48.9303 4.52077 4.91104 0
M  V30 530 H 48.2003 0.145793 0.726516 0
M  V30 531 H 50.8473 1.03669 1.61012 0
M  V30 532 H 49.1523 -0.183906 3.91368 0
M  V30 533 H 50.8493 0.196588 4.00518 0
M  V30 534 H 47.4393 1.62966 3.96409 0
M  V30 535 H 51.6233 2.56885 4.24645 0
M  V30 536 H 46.8793 3.90612 4.70353 0
M  V30 537 H 51.0533 4.84811 4.99932 0
M  V30 538 H 48.6803 5.52196 5.22478 0
M  V30 539 N 50.2554 -1.46986 0.568584 0
M  V30 540 C 51.4854 -2.0653 0.0539173 0
M  V30 541 C 51.8934 -1.42004 -1.25026 0
M  V30 542 O 51.2364 -0.514541 -1.76347 0
M  V30 543 C 51.2984 -3.58938 -0.200854 0
M  V30 544 C 50.9624 -4.45572 1.01559 0
M  V30 545 C 51.9594 -4.82986 1.92407 0
M  V30 546 C 49.6444 -4.8692 1.23346 0
M  V30 547 C 51.6384 -5.60559 3.03402 0
M  V30 548 C 49.3254 -5.64255 2.34649 0
M  V30 549 C 50.3234 -6.00986 3.24507 0
M  V30 550 O 50.0114 -6.76761 4.33878 0
M  V30 551 H 49.7434 -0.674292 0.0480234 0
M  V30 552 H 52.2974 -1.89812 0.784896 0
M  V30 553 H 50.5274 -3.73911 -0.986279 0
M  V30 554 H 52.2164 -4.0046 -0.662294 0
M  V30 555 H 52.9824 -4.51633 1.76785 0
M  V30 556 H 48.8614 -4.57789 0.543178 0
M  V30 557 H 52.4054 -5.89147 3.73565 0
M  V30 558 H 48.3024 -5.95021 2.5024 0
M  V30 559 H 49.0704 -6.95168 4.32068 0
M  V30 560 N 51.7335 -0.305618 -1.54608 0
M  V30 561 C 52.9825 0.303098 -1.9941 0
M  V30 562 C 53.2955 1.54648 -1.19764 0
M  V30 563 O 54.5015 2.23007 -1.54855 0
M  V30 564 C 52.9575 0.590588 -3.55021 0
M  V30 565 C 52.5655 -0.634719 -4.43481 0
M  V30 566 C 54.3095 1.16025 -4.08336 0
M  V30 567 C 52.2165 -0.320126 -5.90533 0
M  V30 568 H 51.1465 0.117031 -0.744862 0
M  V30 569 H 53.7975 -0.415045 -1.78745 0
M  V30 570 H 52.1795 1.36845 -3.71604 0
M  V30 571 H 53.3535 -1.41079 -4.38672 0
M  V30 572 H 51.6685 -1.12333 -4.00962 0
M  V30 573 H 54.2655 1.40994 -5.15776 0
M  V30 574 H 54.6085 2.10397 -3.5922 0
M  V30 575 H 55.1415 0.443985 -3.95315 0
M  V30 576 H 51.8805 -1.23254 -6.43808 0
M  V30 577 H 51.4005 0.418579 -5.98338 0
M  V30 578 H 53.0795 0.0766241 -6.46955 0
M  V30 579 N 53.2116 1.57565 -0.0334293 0
M  V30 580 C 54.4366 1.96689 0.657895 0
M  V30 581 C 54.8616 0.910057 1.64619 0
M  V30 582 O 54.2196 -0.128598 1.80843 0
M  V30 583 C 54.2676 3.34905 1.33683 0
M  V30 584 O 53.3716 3.31574 2.45219 0
M  V30 585 H 52.7126 0.641205 0.172489 0
M  V30 586 H 55.2426 2.04372 -0.0965621 0
M  V30 587 H 55.2526 3.71234 1.69262 0
M  V30 588 H 53.9276 4.11366 0.612411 0
M  V30 589 H 52.5046 3.06968 2.11719 0
M  V30 590 N 54.6897 -0.239769 1.55765 0
M  V30 591 C 55.6377 -1.31668 1.91745 0
M  V30 592 C 56.6317 -1.49462 0.797338 0
M  V30 593 O 57.8377 -1.50852 0.982021 0
M  V30 594 H 54.2127 -0.441048 0.609082 0
M  V30 595 H 56.1837 -0.985923 2.81642 0
M  V30 596 C 54.9327 -2.66368 2.2348 0
M  V30 597 H 54.2557 -2.53478 3.09175 0
M  V30 598 H 55.6957 -3.40578 2.52553 0
M  V30 599 C 54.1547 -3.20002 1.05359 0
M  V30 600 O 54.6847 -4.00538 0.305261 0
M  V30 601 N 52.8907 -2.78126 0.842292 0
M  V30 602 H 52.4377 -2.12742 1.45253 0
M  V30 603 H 52.3957 -3.14354 0.053652 0
M  V30 604 N 56.1678 -1.49265 -0.50573 0
M  V30 605 C 57.1158 -1.66065 -1.62866 0
M  V30 606 C 58.1098 -0.526636 -1.61006 0
M  V30 607 O 59.3158 -0.706126 -1.65571 0
M  V30 608 H 55.6908 -0.52356 -0.539805 0
M  V30 609 H 57.6618 -2.60329 -1.45848 0
M  V30 610 C 56.4108 -1.74008 -3.01026 0
M  V30 611 H 55.7338 -2.6064 -3.03161 0
M  V30 612 H 57.1738 -1.89798 -3.79147 0
M  V30 613 C 55.6328 -0.483868 -3.33407 0
M  V30 614 O 56.1628 0.392548 -3.99777 0
M  V30 615 N 54.3688 -0.348236 -2.88506 0
M  V30 616 H 53.9158 -1.06242 -2.34671 0
M  V30 617 H 53.8738 0.491204 -3.10539 0
M  V30 618 N 57.6459 0.756429 -1.3826 0
M  V30 619 C 58.5929 1.87011 -1.35261 0
M  V30 620 C 59.5629 1.64695 -0.215616 0
M  V30 621 O 60.7479 1.864 -0.407399 0
M  V30 622 C 57.8879 3.24275 -1.18068 0
M  V30 623 C 57.0009 3.58442 -2.41129 0
M  V30 624 C 56.1359 4.84994 -2.16689 0
M  V30 625 C 55.1749 5.11939 -3.35537 0
M  V30 626 N 54.3119 6.29685 -3.10549 0
M  V30 627 H 59.1519 1.8891 -2.30472 0
M  V30 628 H 56.6889 0.923373 -1.14509 0
M  V30 629 H 58.6469 4.03479 -1.06116 0
M  V30 630 H 57.2769 3.21711 -0.264973 0
M  V30 631 H 56.3289 2.74103 -2.63764 0
M  V30 632 H 57.6409 3.74283 -3.29717 0
M  V30 633 H 56.7949 5.72135 -2.01857 0
M  V30 634 H 55.5339 4.71286 -1.25462 0
M  V30 635 H 54.5389 4.23268 -3.50891 0
M  V30 636 H 55.7639 5.27546 -4.27635 0
M  V30 637 H 53.7099 6.17306 -2.21967 0
M  V30 638 H 53.6269 6.46014 -3.92686 0
M  V30 639 H 54.8949 7.19722 -2.99367 0
M  V30 640 N 59.124 1.23083 0.984299 0
M  V30 641 C 60.373 1.05466 1.71929 0
M  V30 642 C 60.686 -0.409211 1.91272 0
M  V30 643 O 61.892 -0.705226 2.62181 0
M  V30 644 C 60.348 1.83874 3.09384 0
M  V30 645 C 59.956 3.34566 2.97943 0
M  V30 646 C 61.7 1.74734 3.8687 0
M  V30 647 C 59.607 4.05381 4.30605 0
M  V30 648 H 58.537 0.391039 0.644674 0
M  V30 649 H 61.188 1.47013 1.09815 0
M  V30 650 H 59.57 1.35131 3.72231 0
M  V30 651 H 60.744 3.90767 2.44209 0
M  V30 652 H 59.059 3.44476 2.33934 0
M  V30 653 H 61.656 2.24957 4.85076 0
M  V30 654 H 61.999 0.709372 4.10212 0
M  V30 655 H 62.532 2.21067 3.30717 0
M  V30 656 H 59.271 5.09467 4.1246 0
M  V30 657 H 58.791 3.53967 4.84218 0
M  V30 658 H 60.47 4.11458 4.99311 0
M  V30 659 N 60.6021 -1.18246 1.0419 0
M  V30 660 C 61.8271 -1.92736 0.765996 0
M  V30 661 C 62.2521 -1.75728 -0.67091 0
M  V30 662 O 61.6101 -1.06825 -1.46486 0
M  V30 663 C 61.6581 -3.42148 1.13875 0
M  V30 664 O 60.7621 -4.11548 0.264954 0
M  V30 665 H 60.1031 -0.601238 0.281797 0
M  V30 666 H 62.6331 -1.49942 1.39207 0
M  V30 667 H 62.6431 -3.92858 1.1012 0
M  V30 668 H 61.3181 -3.53848 2.18551 0
M  V30 669 H 59.8951 -3.71137 0.362226 0
M  V30 670 N 62.0802 -0.821533 -1.34494 0
M  V30 671 C 63.3572 -0.33159 -1.92769 0
M  V30 672 C 63.7372 1.18088 -1.74981 0
M  V30 673 O 63.0852 1.98733 -1.12772 0
M  V30 674 C 63.2952 -0.759398 -3.40638 0
M  V30 675 C 64.6432 -0.757433 -4.1779 0
M  V30 676 O 65.6672 -0.70189 -3.49216 0
M  V30 677 O 64.5262 -0.829361 -5.4017 0
M  V30 678 H 61.6202 -0.0902502 -0.822061 0
M  V30 679 H 64.1662 -0.906231 -1.43477 0
M  V30 680 H 62.9382 -1.8012 -3.47379 0
M  V30 681 H 62.5612 -0.160378 -3.97276 0
M  V30 682 N 63.5583 1.46682 -0.576371 0
M  V30 683 C 64.8073 2.01619 -0.0572825 0
M  V30 684 C 65.1203 1.45417 1.30818 0
M  V30 685 O 66.3263 1.92133 1.91825 0
M  V30 686 C 64.7823 3.59863 -0.0518371 0
M  V30 687 C 64.3903 4.25059 -1.41523 0
M  V30 688 C 66.1343 4.2248 0.413639 0
M  V30 689 C 64.0413 5.75364 -1.36785 0
M  V30 690 H 62.9713 0.753794 -0.0176448 0
M  V30 691 H 65.6223 1.68481 -0.727076 0
M  V30 692 H 64.0043 3.90048 0.683994 0
M  V30 693 H 65.1783 4.06491 -2.17029 0
M  V30 694 H 63.4933 3.7451 -1.8202 0
M  V30 695 H 66.0903 5.3265 0.467779 0
M  V30 696 H 66.4333 3.90976 1.42982 0
M  V30 697 H 66.9663 3.96897 -0.267929 0
M  V30 698 H 63.7053 6.11518 -2.36063 0
M  V30 699 H 63.2253 5.96214 -0.654895 0
M  V30 700 H 64.9043 6.37955 -1.07805 0
M  V30 701 N 65.0364 0.313813 1.54444 0
M  V30 702 C 66.4474 -0.176243 1.85866 0
M  V30 703 C 66.7984 -1.52405 1.23561 0
M  V30 704 O 65.9234 -2.09605 0.538016 0
M  V30 705 C 66.5184 -0.32657 3.37222 0
M  V30 706 C 65.0774 -0.760846 3.6863 0
M  V30 707 C 64.2244 0.123247 2.77026 0
M  V30 708 H 67.1754 0.534418 1.49431 0
M  V30 709 H 67.1964 -1.15908 3.62416 0
M  V30 710 H 66.7084 0.654531 3.82541 0
M  V30 711 H 64.8094 -1.75204 3.28838 0
M  V30 712 H 64.9224 -0.571353 4.75681 0
M  V30 713 H 63.2864 -0.399597 2.51546 0
M  V30 714 H 64.0694 1.10094 3.25168 0
M  V30 715 N 66.5145 -1.57545 0.0417849 0
M  V30 716 C 67.4245 -2.14451 -0.951213 0
M  V30 717 C 68.4405 -1.09992 -1.34825 0
M  V30 718 O 69.6165 -1.42114 -1.42708 0
M  V30 719 C 66.6815 -2.67063 -2.21084 0
M  V30 720 C 65.7425 -3.86284 -1.87304 0
M  V30 721 C 64.9755 -4.36378 -3.07261 0
M  V30 722 O 65.1985 -3.85587 -4.20332 0
M  V30 723 O 64.1325 -5.28077 -2.88822 0
M  V30 724 H 67.9585 -2.99601 -0.497287 0
M  V30 725 H 65.5435 -1.48317 -0.179567 0
M  V30 726 H 67.4255 -3.00914 -2.95006 0
M  V30 727 H 66.1005 -1.84989 -2.65633 0
M  V30 728 H 65.0075 -3.57338 -1.10727 0
M  V30 729 H 66.3405 -4.6956 -1.47562 0
M  V30 730 N 67.9926 0.231505 -1.5589 0
M  V30 731 C 69.2396 0.957352 -1.78441 0
M  V30 732 C 69.5676 1.84726 -0.60882 0
M  V30 733 O 68.8226 1.91416 0.40725 0
M  V30 734 C 69.1216 1.83577 -3.0665 0
M  V30 735 C 68.7876 1.09993 -4.37278 0
M  V30 736 C 67.4496 0.896629 -4.72773 0
M  V30 737 C 69.8016 0.579558 -5.17968 0
M  V30 738 C 67.1296 0.160896 -5.86479 0
M  V30 739 C 69.4816 -0.142783 -6.32439 0
M  V30 740 C 68.1456 -0.357427 -6.66542 0
M  V30 741 H 67.4156 0.35032 -0.65296 0
M  V30 742 H 70.0626 0.226259 -1.90159 0
M  V30 743 H 68.3676 2.63441 -2.90011 0
M  V30 744 H 70.0646 2.39934 -3.21298 0
M  V30 745 H 66.6546 1.26835 -4.09403 0
M  V30 746 H 70.8386 0.724125 -4.90989 0
M  V30 747 H 66.0946 -0.0157293 -6.11398 0
M  V30 748 H 70.2686 -0.553559 -6.94196 0
M  V30 749 H 67.8956 -0.929466 -7.54497 0
M  V30 750 N 69.4707 1.49531 0.497807 0
M  V30 751 C 70.7167 1.59415 1.25358 0
M  V30 752 C 71.0497 0.281422 1.9215 0
M  V30 753 O 70.3247 -0.715249 1.80871 0
M  V30 754 C 70.6077 2.75566 2.3181 0
M  V30 755 C 70.4607 4.16642 1.69498 0
M  V30 756 C 71.7797 2.87347 3.33346 0
M  V30 757 H 68.8987 0.580244 0.454408 0
M  V30 758 H 71.5407 1.81827 0.551262 0
M  V30 759 H 69.6907 2.56587 2.91711 0
M  V30 760 H 71.3627 4.47145 1.13399 0
M  V30 761 H 69.6057 4.22141 0.998978 0
M  V30 762 H 70.2767 4.93792 2.46725 0
M  V30 763 H 72.7527 3.04634 2.83438 0
M  V30 764 H 71.6287 3.70289 4.05188 0
M  V30 765 H 71.8897 1.96834 3.95865 0
M  V30 766 N 70.9488 -0.749086 1.3866 0
M  V30 767 C 72.3648 -1.05276 1.19955 0
M  V30 768 C 72.5648 -2.01435 0.05134 0
M  V30 769 O 71.6208 -2.45232 -0.60147 0
M  V30 770 C 72.9338 -1.62853 2.52783 0
M  V30 771 C 74.4818 -1.75002 2.59506 0
M  V30 772 C 74.9568 -2.35991 3.92521 0
M  V30 773 N 76.4478 -2.43416 3.94085 0
M  V30 774 C 77.1828 -2.91511 4.9377 0
M  V30 775 N 76.6788 -3.39608 6.03853 0
M  V30 776 N 78.4718 -2.90592 4.81157 0
M  V30 777 H 70.6228 -0.111066 2.12109 0
M  V30 778 H 72.8858 -0.111901 0.941373 0
M  V30 779 H 72.5918 -0.99664 3.37283 0
M  V30 780 H 72.4658 -2.61854 2.715 0
M  V30 781 H 74.8528 -2.37317 1.75398 0
M  V30 782 H 74.9338 -0.74693 2.44652 0
M  V30 783 H 74.5778 -1.74308 4.77053 0
M  V30 784 H 74.5078 -3.3695 4.04688 0
M  V30 785 H 76.9988 -2.09405 3.14576 0
M  V30 786 H 77.3118 -3.74775 6.75843 0
M  V30 787 H 75.6568 -3.37653 6.07466 0
M  V30 788 H 78.8478 -2.52332 3.94267 0
M  V30 789 H 79.0208 -3.27762 5.58996 0
M  V30 790 N 72.4269 -1.23603 -0.977757 0
M  V30 791 C 73.6749 -1.06759 -1.71601 0
M  V30 792 C 73.9959 0.395929 -1.90938 0
M  V30 793 O 73.2659 1.28356 -1.47992 0
M  V30 794 H 71.8459 -0.392062 -0.635843 0
M  V30 795 H 74.5079 -1.55362 -1.1768 0
M  V30 796 H 73.6039 -1.55763 -2.70452 0
M  V30 797 N 73.905 1.17692 -1.04816 0
M  V30 798 C 74.838 2.20436 -0.590173 0
M  V30 799 C 75.816 1.58115 0.379244 0
M  V30 800 O 77 1.86228 0.291762 0
M  V30 801 C 74.127 3.38424 0.136817 0
M  V30 802 C 73.173 4.19176 -0.787023 0
M  V30 803 S 74.006 4.84815 -2.27409 0
M  V30 804 C 75.162 6.06195 -1.55817 0
M  V30 805 H 75.395 2.58944 -1.46067 0
M  V30 806 H 72.928 1.28246 -0.859784 0
M  V30 807 H 74.886 4.06798 0.550076 0
M  V30 808 H 73.547 2.98312 0.983299 0
M  V30 809 H 72.74 5.03499 -0.224681 0
M  V30 810 H 72.342 3.56219 -1.13947 0
M  V30 811 H 74.634 6.72078 -0.855387 0
M  V30 812 H 75.577 6.6695 -2.37873 0
M  V30 813 H 75.985 5.54701 -1.04722 0
M  V30 814 N 75.3831 0.828654 1.34056 0
M  V30 815 C 76.6291 0.42008 1.98402 0
M  V30 816 C 76.9621 -1.01564 1.65525 0
M  V30 817 O 76.2371 -1.70834 0.929831 0
M  V30 818 C 76.5201 0.62927 3.54559 0
M  V30 819 C 76.3731 2.11152 3.97159 0
M  V30 820 C 77.6921 0.0688756 4.40046 0
M  V30 821 H 74.8111 0.154104 0.720709 0
M  V30 822 H 77.4531 1.04228 1.5886 0
M  V30 823 H 75.6031 0.0996418 3.88372 0
M  V30 824 H 77.2751 2.70522 3.73651 0
M  V30 825 H 75.5181 2.59985 3.47261 0
M  V30 826 H 76.1891 2.20868 5.05887 0
M  V30 827 H 78.6651 0.521458 4.1282 0
M  V30 828 H 77.5411 0.245006 5.48353 0
M  V30 829 H 77.8021 -1.0266 4.30015 0
M  V30 830 N 76.8612 -1.46375 0.584142 0
M  V30 831 C 77.7942 -2.27351 -0.196676 0
M  V30 832 C 78.7722 -1.35715 -0.895561 0
M  V30 833 O 79.9562 -1.65126 -0.90916 0
M  V30 834 C 77.0832 -3.13486 -1.28235 0
M  V30 835 C 76.1292 -4.20896 -0.689145 0
M  V30 836 S 76.9622 -5.33299 0.48507 0
M  V30 837 C 78.1182 -6.23 -0.601767 0
M  V30 838 H 78.3512 -2.93228 0.490395 0
M  V30 839 H 75.8842 -1.49875 0.371071 0
M  V30 840 H 77.8422 -3.63676 -1.90395 0
M  V30 841 H 76.5032 -2.4692 -1.94138 0
M  V30 842 H 75.6962 -4.80997 -1.50527 0
M  V30 843 H 75.2982 -3.73726 -0.143181 0
M  V30 844 H 77.5902 -6.60979 -1.48705 0
M  V30 845 H 78.5332 -7.0809 -0.0374799 0
M  V30 846 H 78.9412 -5.57173 -0.906557 0
M  V30 847 N 78.3393 -0.321999 -1.54275 0
M  V30 848 C 79.5853 0.281461 -2.00837 0
M  V30 849 C 79.9183 1.51909 -1.20985 0
M  V30 850 O 79.1933 1.923 -0.291733 0
M  V30 851 C 79.4763 0.617162 -3.54772 0
M  V30 852 C 79.3293 -0.631064 -4.45351 0
M  V30 853 C 80.6483 1.43542 -4.16033 0
M  V30 854 H 77.7673 0.100826 -0.730071 0
M  V30 855 H 80.4093 -0.438268 -1.84876 0
M  V30 856 H 78.5593 1.23034 -3.68504 0
M  V30 857 H 80.2313 -1.26934 -4.43492 0
M  V30 858 H 78.4743 -1.26025 -4.15091 0
M  V30 859 H 79.1453 -0.351735 -5.50878 0
M  V30 860 H 81.6213 0.917134 -4.05867 0
M  V30 861 H 80.4973 1.63907 -5.23856 0
M  V30 862 H 80.7583 2.43108 -3.69257 0
M  V30 863 N 79.8174 1.5752 -0.0501392 0
M  V30 864 C 80.7644 2.1147 0.924603 0
M  V30 865 C 81.7344 1.02182 1.30951 0
M  V30 866 O 82.9194 1.29723 1.39916 0
M  V30 867 C 80.0594 2.66337 2.19451 0
M  V30 868 C 79.1724 3.89708 1.86418 0
M  V30 869 C 78.3074 4.32893 3.07859 0
M  V30 870 C 77.3464 5.48967 2.70742 0
M  V30 871 N 76.4834 5.87211 3.84874 0
M  V30 872 H 81.3234 2.94465 0.457639 0
M  V30 873 H 78.8604 1.45531 0.214266 0
M  V30 874 H 80.8184 2.96247 2.93758 0
M  V30 875 H 79.4484 1.86141 2.63726 0
M  V30 876 H 78.5004 3.66396 1.02264 0
M  V30 877 H 79.8124 4.74074 1.55096 0
M  V30 878 H 78.9664 4.6435 3.90466 0
M  V30 879 H 77.7054 3.47336 3.42358 0
M  V30 880 H 76.7104 5.17183 1.86551 0
M  V30 881 H 77.9354 6.3624 2.37436 0
M  V30 882 H 75.8814 5.04607 4.19175 0
M  V30 883 H 75.7984 6.66266 3.57247 0
M  V30 884 H 77.0664 6.23282 4.68123 0
M  V30 885 N 81.2955 -0.223234 1.56011 0
M  V30 886 C 82.2425 -1.27664 1.92277 0
M  V30 887 C 83.2125 -1.46659 0.779763 0
M  V30 888 O 84.3975 -1.60256 1.03551 0
M  V30 889 C 81.5375 -2.62234 2.24338 0
M  V30 890 C 80.6505 -2.51051 3.51564 0
M  V30 891 C 79.7855 -3.78133 3.7308 0
M  V30 892 C 78.8245 -3.61665 4.93827 0
M  V30 893 N 77.9615 -4.80693 5.11741 0
M  V30 894 H 82.8015 -0.960358 2.82101 0
M  V30 895 H 80.3385 -0.462901 1.39627 0
M  V30 896 H 82.2965 -3.40596 2.40936 0
M  V30 897 H 80.9265 -2.91961 1.3769 0
M  V30 898 H 79.9785 -1.64132 3.43169 0
M  V30 899 H 81.2905 -2.34803 4.40079 0
M  V30 900 H 80.4445 -4.64938 3.89766 0
M  V30 901 H 79.1835 -3.97304 2.82844 0
M  V30 902 H 78.1885 -2.73244 4.77093 0
M  V30 903 H 79.4135 -3.43966 5.85546 0
M  V30 904 H 77.3595 -5.00181 4.24446 0
M  V30 905 H 77.2765 -4.67165 5.94384 0
M  V30 906 H 78.5445 -5.6893 5.3286 0
M  V30 907 N 82.7736 -1.49793 -0.48987 0
M  V30 908 C 83.7366 -1.66752 -1.57246 0
M  V30 909 C 84.7366 -0.538867 -1.51502 0
M  V30 910 O 85.9266 -0.805545 -1.54456 0
M  V30 911 C 83.0586 -1.67528 -2.96896 0
M  V30 912 H 84.2516 -2.63321 -1.43534 0
M  V30 913 H 81.8046 -1.38992 -0.714914 0
M  V30 914 H 82.5396 -0.725837 -3.16073 0
M  V30 915 H 82.3246 -2.49504 -3.02473 0
M  V30 916 H 83.8146 -1.82667 -3.7553 0
M  V30 917 N 84.2517 0.741722 -1.39055 0
M  V30 918 C 85.2147 1.83733 -1.37021 0
M  V30 919 C 86.2147 1.58542 -0.268534 0
M  V30 920 O 87.4047 1.66067 -0.526076 0
M  V30 921 C 84.5367 3.2141 -1.13617 0
M  V30 922 H 85.7297 1.86941 -2.34506 0
M  V30 923 H 83.2827 0.944676 -1.24521 0
M  V30 924 H 84.0177 3.23865 -0.167863 0
M  V30 925 H 83.8027 3.4109 -1.93391 0
M  V30 926 H 85.2927 4.01477 -1.14918 0
M  V30 927 N 85.7298 1.2412 0.971189 0
M  V30 928 C 86.6928 1.03156 2.04674 0
M  V30 929 C 87.6928 -0.00990322 1.60797 0
M  V30 930 O 88.8828 0.230729 1.72665 0
M  V30 931 C 86.0148 0.562765 3.36223 0
M  V30 932 H 87.2078 1.98614 2.24705 0
M  V30 933 H 84.7608 1.06293 1.14593 0
M  V30 934 H 85.4958 -0.395176 3.21883 0
M  V30 935 H 85.2808 1.31441 3.69413 0
M  V30 936 H 86.7708 0.437015 4.15307 0
M  V30 937 N 87.2079 -1.17134 1.05439 0
M  V30 938 C 88.1409 -2.2012 0.601855 0
M  V30 939 C 89.1189 -1.58314 -0.370854 0
M  V30 940 O 90.3029 -1.8638 -0.281882 0
M  V30 941 C 87.4299 -3.38491 -0.118868 0
M  V30 942 C 86.4759 -4.18752 0.809242 0
M  V30 943 S 87.3089 -4.83602 2.29977 0
M  V30 944 C 88.4649 -6.0536 1.59029 0
M  V30 945 H 88.6979 -2.58165 1.47438 0
M  V30 946 H 86.2309 -1.27788 0.866573 0
M  V30 947 H 88.1889 -4.07084 -0.528495 0
M  V30 948 H 86.8499 -2.98829 -0.967465 0
M  V30 949 H 86.0429 -5.03373 0.251379 0
M  V30 950 H 85.6449 -3.5561 1.15835 0
M  V30 951 H 87.9369 -6.71615 0.891017 0
M  V30 952 H 88.8799 -6.65679 2.41407 0
M  V30 953 H 89.2879 -5.54138 1.07663 0
M  V30 954 N 88.686 -0.835752 -1.33615 0
M  V30 955 C 89.649 -0.272 -2.2758 0
M  V30 956 C 90.649 0.557487 -1.50827 0
M  V30 957 O 91.839 0.37173 -1.70188 0
M  V30 958 C 88.971 0.617173 -3.35267 0
M  V30 959 H 90.164 -1.10111 -2.78954 0
M  V30 960 H 87.717 -0.608594 -1.43965 0
M  V30 961 H 88.452 1.46884 -2.89129 0
M  V30 962 H 88.237 0.0237066 -3.92093 0
M  V30 963 H 89.727 1.005 -4.05326 0
M  V30 964 N 90.1641 1.46063 -0.591896 0
M  V30 965 C 91.1121 2.32124 0.148739 0
M  V30 966 C 92.1061 1.45035 0.875286 0
M  V30 967 O 93.3121 1.61609 0.792632 0
M  V30 968 H 89.6871 0.749024 0.066832 0
M  V30 969 H 91.6581 2.92392 -0.595783 0
M  V30 970 C 90.4071 3.28373 1.1431 0
M  V30 971 H 89.7301 3.95371 0.59346 0
M  V30 972 H 91.1701 3.91352 1.63155 0
M  V30 973 C 89.6291 2.54393 2.20875 0
M  V30 974 O 90.1591 2.31373 3.28374 0
M  V30 975 N 88.3651 2.14797 1.95731 0
M  V30 976 H 87.9121 2.33719 1.08319 0
M  V30 977 H 87.8701 1.65619 2.67241 0
M  V30 978 N 91.6422 0.330177 1.54103 0
M  V30 979 C 92.5892 -0.532762 2.24567 0
M  V30 980 C 93.5592 -1.10635 1.23892 0
M  V30 981 O 94.7442 -1.14546 1.5259 0
M  V30 982 C 91.8842 -1.6845 3.01195 0
M  V30 983 C 90.9972 -1.13951 4.167 0
M  V30 984 C 90.1322 -2.25746 4.80845 0
M  V30 985 C 89.1712 -1.6853 5.88442 0
M  V30 986 N 88.3082 -2.74014 6.46421 0
M  V30 987 H 93.1482 0.0746905 2.97906 0
M  V30 988 H 90.6852 0.048632 1.4702 0
M  V30 989 H 92.6432 -2.36234 3.43874 0
M  V30 990 H 91.2732 -2.26314 2.30178 0
M  V30 991 H 90.3252 -0.35301 3.78758 0
M  V30 992 H 91.6372 -0.680892 4.94131 0
M  V30 993 H 90.7912 -3.01422 5.26526 0
M  V30 994 H 89.5302 -2.74947 4.0281 0
M  V30 995 H 88.5352 -0.913543 5.42157 0
M  V30 996 H 89.7602 -1.20198 6.68378 0
M  V30 997 H 87.7062 -3.22494 5.71256 0
M  V30 998 H 87.6232 -2.32735 7.19285 0
M  V30 999 H 88.8912 -3.49499 6.96757 0
M  V30 1000 N 93.1203 -1.57491 0.0584922 0
M  V30 1001 C 94.0303 -2.15448 -0.928414 0
M  V30 1002 C 95.0463 -1.11416 -1.3365 0
M  V30 1003 O 96.2223 -1.4362 -1.41193 0
M  V30 1004 C 93.2873 -2.69393 -2.18239 0
M  V30 1005 C 92.3483 -3.88249 -1.83196 0
M  V30 1006 C 91.5813 -4.39613 -3.02616 0
M  V30 1007 O 91.8043 -3.90023 -4.16219 0
M  V30 1008 O 90.7383 -5.31111 -2.83204 0
M  V30 1009 H 94.5643 -3.00112 -0.465483 0
M  V30 1010 H 92.1493 -1.48499 -0.163826 0
M  V30 1011 H 94.0313 -3.04026 -2.91798 0
M  V30 1012 H 92.7063 -1.87796 -2.63656 0
M  V30 1013 H 91.6133 -3.58492 -1.06931 0
M  V30 1014 H 92.9463 -4.71098 -1.42573 0
M  V30 1015 N 94.5984 0.214957 -1.56127 0
M  V30 1016 C 95.5284 1.2695 -1.95974 0
M  V30 1017 C 96.5094 1.48539 -0.828868 0
M  V30 1018 O 97.6944 1.60611 -1.09168 0
M  V30 1019 C 94.8244 2.61794 -2.28214 0
M  V30 1020 C 93.7784 2.54851 -3.43853 0
M  V30 1021 C 93.1044 3.93785 -3.61715 0
M  V30 1022 C 94.4044 2.09065 -4.78632 0
M  V30 1023 H 96.0984 0.93846 -2.84312 0
M  V30 1024 H 93.6444 0.449996 -1.36788 0
M  V30 1025 H 95.5974 3.35731 -2.54682 0
M  V30 1026 H 94.3214 2.96599 -1.36736 0
M  V30 1027 H 92.9804 1.8337 -3.17444 0
M  V30 1028 H 92.6284 4.25908 -2.67602 0
M  V30 1029 H 92.3284 3.90019 -4.39498 0
M  V30 1030 H 93.8524 4.69374 -3.90539 0
M  V30 1031 H 95.2664 2.7275 -5.04262 0
M  V30 1032 H 93.6634 2.16346 -5.59745 0
M  V30 1033 H 94.7334 1.04315 -4.73547 0
M  V30 1034 N 96.0765 1.50051 0.48192 0
M  V30 1035 C 97.0085 1.64263 1.59844 0
M  V30 1036 C 98.0215 0.52451 1.54119 0
M  V30 1037 O 99.2105 0.797293 1.59704 0
M  V30 1038 C 96.3105 1.60102 2.98698 0
M  V30 1039 C 95.4835 2.87767 3.29407 0
M  V30 1040 C 94.5425 2.76397 4.47762 0
M  V30 1041 O 93.5685 3.50348 4.48603 0
M  V30 1042 N 94.7705 1.89222 5.48794 0
M  V30 1043 H 97.5355 2.60566 1.48073 0
M  V30 1044 H 95.0965 1.47379 0.670149 0
M  V30 1045 H 97.0885 1.50123 3.75826 0
M  V30 1046 H 95.6585 0.715798 3.04294 0
M  V30 1047 H 94.8785 3.11954 2.40994 0
M  V30 1048 H 96.1665 3.72365 3.4673 0
M  V30 1049 H 95.5645 1.28434 5.50928 0
M  V30 1050 H 94.1215 1.85154 6.24949 0
M  V30 1051 N 97.5546 -0.734337 1.39446 0
M  V30 1052 C 98.7826 -1.52358 1.39981 0
M  V30 1053 C 99.1976 -1.88799 -0.0054975 0
M  V30 1054 O 98.5546 -1.54146 -0.976998 0
M  V30 1055 C 98.6056 -2.81072 2.27333 0
M  V30 1056 O 98.3266 -2.46178 3.62392 0
M  V30 1057 C 99.8276 -3.75096 2.36259 0
M  V30 1058 H 97.0476 -0.470806 0.478103 0
M  V30 1059 H 99.5916 -0.907339 1.83269 0
M  V30 1060 H 97.7466 -3.39026 1.87457 0
M  V30 1061 H 98.1606 -3.28866 4.08592 0
M  V30 1062 H 99.6346 -4.62305 3.01626 0
M  V30 1063 H 100.112 -4.16892 1.38194 0
M  V30 1064 H 100.718 -3.23061 2.76608 0
M  V30 1065 N 99.0327 -1.24633 -0.964593 0
M  V30 1066 C 100.282 -1.08188 -1.7023 0
M  V30 1067 C 100.595 0.37873 -1.91898 0
M  V30 1068 O 101.801 0.663427 -2.6327 0
M  V30 1069 C 100.257 -1.88773 -3.06419 0
M  V30 1070 C 99.8647 -3.39263 -2.92582 0
M  V30 1071 C 101.609 -1.80867 -3.84041 0
M  V30 1072 C 99.5157 -4.1218 -4.24101 0
M  V30 1073 H 98.4457 -0.401245 -0.638372 0
M  V30 1074 H 101.097 -1.48742 -1.07462 0
M  V30 1075 H 99.4787 -1.41035 -3.70034 0
M  V30 1076 H 100.653 -3.94603 -2.37961 0
M  V30 1077 H 98.9677 -3.48154 -2.28424 0
M  V30 1078 H 101.565 -2.32646 -4.81435 0
M  V30 1079 H 101.908 -0.774543 -4.09031 0
M  V30 1080 H 102.441 -2.26301 -3.27159 0
M  V30 1081 H 99.1797 -5.15965 -4.04303 0
M  V30 1082 H 98.6997 -3.61626 -4.78526 0
M  V30 1083 H 100.379 -4.19349 -4.92702 0
M  V30 1084 N 100.511 1.16574 -1.06058 0
M  V30 1085 C 101.922 1.68662 -0.800632 0
M  V30 1086 C 102.273 1.84184 0.67608 0
M  V30 1087 O 101.398 1.53568 1.52466 0
M  V30 1088 C 101.993 3.06356 -1.44676 0
M  V30 1089 C 100.552 3.55575 -1.23465 0
M  V30 1090 C 99.6988 2.31616 -1.52477 0
M  V30 1091 H 102.65 1.00969 -1.22438 0
M  V30 1092 H 102.671 3.70636 -0.860788 0
M  V30 1093 H 102.183 2.95027 -2.52152 0
M  V30 1094 H 100.284 3.72167 -0.179527 0
M  V30 1095 H 100.397 4.37812 -1.94571 0
M  V30 1096 H 98.7608 2.36512 -0.945209 0
M  V30 1097 H 99.5438 2.22887 -2.61106 0
M  V30 1098 N 101.989 0.842826 1.3317 0
M  V30 1099 C 102.936 0.276885 2.29133 0
M  V30 1100 C 103.906 -0.609527 1.54512 0
M  V30 1101 O 105.091 -0.546955 1.82792 0
M  V30 1102 C 102.231 -0.538707 3.40869 0
M  V30 1103 C 101.344 0.372169 4.30394 0
M  V30 1104 C 100.479 -0.454908 5.29249 0
M  V30 1105 C 99.5179 0.45411 6.10413 0
M  V30 1106 N 98.6549 -0.335075 7.013 0
M  V30 1107 H 103.495 1.10052 2.76934 0
M  V30 1108 H 101.032 0.554161 1.36262 0
M  V30 1109 H 102.99 -1.02709 4.0436 0
M  V30 1110 H 101.62 -1.32727 2.9425 0
M  V30 1111 H 100.672 0.97888 3.6759 0
M  V30 1112 H 101.984 1.0703 4.87182 0
M  V30 1113 H 101.138 -1.00695 5.98285 0
M  V30 1114 H 99.8769 -1.18646 4.73048 0
M  V30 1115 H 98.8819 1.01813 5.40291 0
M  V30 1116 H 100.107 1.18409 6.68697 0
M  V30 1117 H 98.0529 -1.04994 6.47543 0
M  V30 1118 H 97.9699 0.304262 7.55387 0
M  V30 1119 H 99.2379 -0.869224 7.74638 0
M  V30 1120 N 103.467 -1.45747 0.599634 0
M  V30 1121 C 104.692 -2.07178 0.0960198 0
M  V30 1122 C 105.117 -1.44268 -1.207 0
M  V30 1123 O 104.475 -0.532503 -1.73303 0
M  V30 1124 C 104.523 -3.60579 -0.0385348 0
M  V30 1125 O 103.627 -3.97713 -1.0908 0
M  V30 1126 H 102.968 -0.660251 0.0704593 0
M  V30 1127 H 105.498 -1.87124 0.827385 0
M  V30 1128 H 105.508 -4.07298 -0.239304 0
M  V30 1129 H 104.183 -4.05756 0.912947 0
M  V30 1130 H 102.76 -3.62678 -0.867135 0
M  V30 1131 N 104.945 -0.338344 -1.53925 0
M  V30 1132 C 106.191 0.260143 -2.01125 0
M  V30 1133 C 106.524 1.50617 -1.22589 0
M  V30 1134 O 105.799 1.91979 -0.312113 0
M  V30 1135 C 106.082 0.579499 -3.55407 0
M  V30 1136 C 105.935 -0.678264 -4.44657 0
M  V30 1137 C 107.254 1.39122 -4.17532 0
M  V30 1138 H 104.373 0.0930772 -0.731099 0
M  V30 1139 H 107.015 -0.457852 -1.84401 0
M  V30 1140 H 105.165 1.19118 -3.69788 0
M  V30 1141 H 106.837 -1.31631 -4.42121 0
M  V30 1142 H 105.08 -1.3042 -4.13731 0
M  V30 1143 H 105.751 -0.410143 -5.50474 0
M  V30 1144 H 108.227 0.874035 -4.06817 0
M  V30 1145 H 107.103 1.58342 -5.25565 0
M  V30 1146 H 107.364 2.39178 -3.71815 0
M  V30 1147 N 106.423 1.57458 -0.0668435 0
M  V30 1148 C 107.386 2.11323 0.887422 0
M  V30 1149 C 108.386 1.03618 1.22964 0
M  V30 1150 O 109.576 1.29626 1.16373 0
M  V30 1151 C 106.708 2.61048 2.19242 0
M  V30 1152 H 107.901 2.96942 0.420194 0
M  V30 1153 H 105.454 1.55239 0.181793 0
M  V30 1154 H 106.189 1.78868 2.70512 0
M  V30 1155 H 105.974 3.39769 1.95702 0
M  V30 1156 H 107.464 3.02814 2.87565 0
M  V30 1157 N 107.901 -0.206675 1.56239 0
M  V30 1158 C 108.849 -1.27571 1.94495 0
M  V30 1159 C 109.843 -1.47737 0.828862 0
M  V30 1160 O 111.049 -1.48735 1.0138 0
M  V30 1161 H 107.424 -0.428029 0.6183 0
M  V30 1162 H 109.395 -0.925961 2.8367 0
M  V30 1163 C 108.144 -2.61568 2.29079 0
M  V30 1164 H 107.467 -2.46863 3.14482 0
M  V30 1165 H 108.907 -3.35144 2.5972 0
M  V30 1166 C 107.366 -3.17695 1.12123 0
M  V30 1167 O 107.896 -3.99801 0.390153 0
M  V30 1168 N 106.102 -2.76276 0.901097 0
M  V30 1169 H 105.649 -2.09613 1.49733 0
M  V30 1170 H 105.607 -3.1417 0.120319 0
M  V30 1171 N 109.379 -1.50304 -0.473955 0
M  V30 1172 C 110.342 -1.6841 -1.55469 0
M  V30 1173 C 111.342 -0.554905 -1.50922 0
M  V30 1174 O 112.532 -0.821882 -1.53593 0
M  V30 1175 C 109.664 -1.70667 -2.95102 0
M  V30 1176 H 110.857 -2.64828 -1.40733 0
M  V30 1177 H 108.41 -1.39742 -0.700132 0
M  V30 1178 H 109.145 -0.75932 -3.15285 0
M  V30 1179 H 108.93 -2.52698 -2.9981 0
M  V30 1180 H 110.42 -1.8664 -3.73571 0
M  V30 1181 N 110.857 0.726932 -1.39834 0
M  V30 1182 C 112.106 1.48214 -1.36805 0
M  V30 1183 C 112.419 1.95576 0.0305291 0
M  V30 1184 O 113.625 2.7088 0.183417 0
M  V30 1185 C 112.081 2.67854 -2.40379 0
M  V30 1186 C 111.689 2.27408 -3.85992 0
M  V30 1187 C 113.433 3.45641 -2.46439 0
M  V30 1188 C 111.34 3.43819 -4.81189 0
M  V30 1189 H 110.27 0.556606 -0.508631 0
M  V30 1190 H 112.921 0.792216 -1.65518 0
M  V30 1191 H 111.303 3.3896 -2.04749 0
M  V30 1192 H 112.477 1.63795 -4.30706 0
M  V30 1193 H 110.792 1.62692 -3.83302 0
M  V30 1194 H 113.389 4.32244 -3.14753 0
M  V30 1195 H 113.732 3.88669 -1.49139 0
M  V30 1196 H 114.265 2.8157 -2.81004 0
M  V30 1197 H 111.004 3.05834 -5.79781 0
M  V30 1198 H 110.524 4.06385 -4.41148 0
M  V30 1199 H 112.203 4.10043 -5.00474 0
M  V30 1200 N 112.336 1.25143 0.95797 0
M  V30 1201 C 113.585 1.0909 1.69654 0
M  V30 1202 C 113.898 -0.368548 1.92097 0
M  V30 1203 O 115.104 -0.649455 2.63618 0
M  V30 1204 C 113.56 1.90395 3.05414 0
M  V30 1205 C 113.168 3.4081 2.90779 0
M  V30 1206 C 114.912 1.82901 3.83076 0
M  V30 1207 C 112.819 4.14423 4.21909 0
M  V30 1208 H 111.749 0.404625 0.636235 0
M  V30 1209 H 114.4 1.4931 1.06672 0
M  V30 1210 H 112.782 1.42996 3.69281 0
M  V30 1211 H 113.956 3.95859 2.35865 0
M  V30 1212 H 112.271 3.49361 2.26575 0
M  V30 1213 H 114.868 2.35196 4.80195 0
M  V30 1214 H 115.211 0.796224 4.08615 0
M  V30 1215 H 115.744 2.28033 3.25954 0
M  V30 1216 H 112.483 5.18102 4.01561 0
M  V30 1217 H 112.003 3.64159 4.76601 0
M  V30 1218 H 113.682 4.21956 4.90471 0
M  V30 1219 N 113.814 -1.1601 1.06675 0
M  V30 1220 C 114.777 -2.18724 0.685001 0
M  V30 1221 C 115.777 -1.58496 -0.271246 0
M  V30 1222 O 116.967 -1.74119 -0.0531156 0
M  V30 1223 C 114.099 -3.40899 0.00853648 0
M  V30 1224 H 115.292 -2.54011 1.59431 0
M  V30 1225 H 112.845 -1.30352 0.862441 0
M  V30 1226 H 113.58 -3.11173 -0.913337 0
M  V30 1227 H 113.365 -3.8587 0.696204 0
M  V30 1228 H 114.855 -4.16886 -0.24414 0
M  V30 1229 N 115.292 -0.849877 -1.32721 0
M  V30 1230 C 116.255 -0.296122 -2.27279 0
M  V30 1231 C 117.255 0.541458 -1.5141 0
M  V30 1232 O 118.445 0.353658 -1.70572 0
M  V30 1233 C 115.577 0.581579 -3.35902 0
M  V30 1234 H 116.77 -1.13064 -2.77771 0
M  V30 1235 H 114.323 -0.62383 -1.43311 0
M  V30 1236 H 115.058 1.43809 -2.9067 0
M  V30 1237 H 114.843 -0.0178814 -3.92096 0
M  V30 1238 H 116.333 0.961951 -4.0637 0
M  V30 1239 N 116.77 1.45427 -0.607355 0
M  V30 1240 C 118.01 2.04128 -0.105458 0
M  V30 1241 C 118.374 1.46555 1.24039 0
M  V30 1242 O 119.575 1.96608 1.833 0
M  V30 1243 C 117.846 3.57338 -0.0665324 0
M  V30 1244 S 119.405 4.37201 0.374207 0
M  V30 1245 H 116.223 0.709278 -0.0494575 0
M  V30 1246 H 118.825 1.78139 -0.805404 0
M  V30 1247 H 117.529 3.96752 -1.04957 0
M  V30 1248 H 117.06 3.87902 0.655415 0
M  V30 1249 H 119.075 4.6888 1.62377 0
M  V30 1250 N 118.248 0.346503 1.53744 0
M  V30 1251 C 119.525 -0.304532 1.93215 0
M  V30 1252 C 119.905 -1.67993 1.27834 0
M  V30 1253 O 119.253 -2.24411 0.430352 0
M  V30 1254 C 119.463 -0.373852 3.46992 0
M  V30 1255 C 120.811 -0.62329 4.2 0
M  V30 1256 O 121.835 -0.455847 3.53271 0
M  V30 1257 O 120.694 -0.947879 5.38217 0
M  V30 1258 H 117.788 -0.178318 0.807547 0
M  V30 1259 H 120.334 0.397895 1.64969 0
M  V30 1260 H 119.106 0.591224 3.86808 0
M  V30 1261 H 118.729 -1.12294 3.81413 0
M  V30 1262 N 119.726 -1.57421 0.075193 0
M  V30 1263 C 120.636 -2.1642 -0.905511 0
M  V30 1264 C 121.652 -1.12828 -1.32461 0
M  V30 1265 O 122.828 -1.45109 -1.39661 0
M  V30 1266 C 119.893 -2.71693 -2.15369 0
M  V30 1267 C 118.954 -3.90171 -1.79068 0
M  V30 1268 C 118.187 -4.42798 -2.97936 0
M  V30 1269 O 118.41 -3.94416 -4.12058 0
M  V30 1270 O 117.344 -5.34085 -2.77555 0
M  V30 1271 H 121.17 -3.00588 -0.433626 0
M  V30 1272 H 118.755 -1.48664 -0.148067 0
M  V30 1273 H 120.637 -3.07104 -2.88557 0
M  V30 1274 H 119.312 -1.90582 -2.61649 0
M  V30 1275 H 118.219 -3.59606 -1.03122 0
M  V30 1276 H 119.552 -4.72584 -1.37569 0
M  V30 1277 N 121.204 0.198386 -1.56346 0
M  V30 1278 C 122.45 0.920648 -1.80698 0
M  V30 1279 C 122.783 1.83045 -0.648697 0
M  V30 1280 O 122.058 1.91308 0.350925 0
M  V30 1281 C 122.341 1.73971 -3.15287 0
M  V30 1282 C 122.194 0.85485 -4.41602 0
M  V30 1283 C 123.513 2.71296 -3.46535 0
M  V30 1284 H 120.632 0.333261 -0.657348 0
M  V30 1285 H 123.274 0.188198 -1.89066 0
M  V30 1286 H 121.424 2.36416 -3.08285 0
M  V30 1287 H 123.096 0.245362 -4.60647 0
M  V30 1288 H 121.339 0.161398 -4.335 0
M  V30 1289 H 122.01 1.46286 -5.32264 0
M  V30 1290 H 124.486 2.18983 -3.53816 0
M  V30 1291 H 123.362 3.2569 -4.41834 0
M  V30 1292 H 123.623 3.5018 -2.69864 0
M  V30 1293 N 122.682 1.50554 0.465978 0
M  V30 1294 C 123.612 1.72722 1.57128 0
M  V30 1295 C 124.593 0.576294 1.6004 0
M  V30 1296 O 125.778 0.81598 1.76225 0
M  V30 1297 C 122.908 1.82605 2.95419 0
M  V30 1298 C 121.862 2.97835 3.07373 0
M  V30 1299 C 121.188 2.92867 4.47363 0
M  V30 1300 C 122.488 4.38265 2.84114 0
M  V30 1301 H 124.182 2.65267 1.38829 0
M  V30 1302 H 121.728 1.2765 0.666441 0
M  V30 1303 H 123.681 1.96698 3.72677 0
M  V30 1304 H 122.405 0.866858 3.14886 0
M  V30 1305 H 121.064 2.83401 2.3255 0
M  V30 1306 H 120.712 1.94783 4.63755 0
M  V30 1307 H 120.412 3.70227 4.56296 0
M  V30 1308 H 121.936 3.09015 5.26633 0
M  V30 1309 H 123.35 4.53198 3.51118 0
M  V30 1310 H 121.747 5.17115 3.04487 0
M  V30 1311 H 122.817 4.50281 1.7993 0
M  V30 1312 N 124.16 -0.719506 1.40217 0
M  V30 1313 C 125.108 -1.85493 1.40339 0
M  V30 1314 C 126.102 -1.66995 0.284415 0
M  V30 1315 O 127.308 -1.74148 0.455252 0
M  V30 1316 H 123.683 -0.610857 0.438586 0
M  V30 1317 H 125.654 -1.82506 2.36081 0
M  V30 1318 C 124.403 -3.23321 1.27901 0
M  V30 1319 H 123.726 -3.38159 2.1328 0
M  V30 1320 H 125.166 -4.02914 1.32045 0
M  V30 1321 C 123.625 -3.36898 -0.0111355 0
M  V30 1322 O 124.155 -3.89674 -0.975538 0
M  V30 1323 N 122.361 -2.90492 -0.0793393 0
M  V30 1324 H 121.908 -2.47731 0.706183 0
M  V30 1325 H 121.866 -2.99955 -0.942038 0
M  V30 1326 N 125.638 -1.25649 -0.95132 0
M  V30 1327 C 126.586 -1.06118 -2.06982 0
M  V30 1328 C 127.58 0.00889169 -1.69398 0
M  V30 1329 O 128.786 -0.146988 -1.79399 0
M  V30 1330 H 125.161 -0.326248 -0.677544 0
M  V30 1331 H 127.132 -2.00932 -2.2061 0
M  V30 1332 C 125.881 -0.700145 -3.40578 0
M  V30 1333 H 125.204 -1.51537 -3.69968 0
M  V30 1334 H 126.644 -0.603211 -4.19687 0
M  V30 1335 C 125.103 0.59403 -3.31622 0
M  V30 1336 O 125.633 1.63522 -3.66911 0
M  V30 1337 N 123.839 0.58089 -2.84735 0
M  V30 1338 H 123.386 -0.266783 -2.56215 0
M  V30 1339 H 123.344 1.44695 -2.79125 0
M  V30 1340 N 127.117 1.15442 -1.07289 0
M  V30 1341 C 128.365 1.85845 -0.794096 0
M  V30 1342 C 128.686 1.82692 0.681809 0
M  V30 1343 O 127.956 1.26741 1.49377 0
M  V30 1344 H 126.536 0.688089 -0.290763 0
M  V30 1345 H 129.198 1.39947 -1.3565 0
M  V30 1346 H 128.294 2.91001 -1.12804 0
M  V30 1347 N 128.595 0.856903 1.32268 0
M  V30 1348 C 129.542 0.301172 2.28827 0
M  V30 1349 C 130.512 -0.593104 1.5515 0
M  V30 1350 O 131.697 -0.527537 1.83362 0
M  V30 1351 C 128.837 -0.502523 3.41422 0
M  V30 1352 C 127.95 0.417797 4.29975 0
M  V30 1353 C 127.085 -0.398749 5.29701 0
M  V30 1354 C 126.124 0.518827 6.09897 0
M  V30 1355 N 125.261 -0.260674 7.01616 0
M  V30 1356 H 130.101 1.12983 2.75751 0
M  V30 1357 H 127.638 0.568582 1.35667 0
M  V30 1358 H 129.596 -0.984141 4.05426 0
M  V30 1359 H 128.226 -1.29599 2.95642 0
M  V30 1360 H 127.278 1.01781 3.66531 0
M  V30 1361 H 128.59 1.12191 4.86019 0
M  V30 1362 H 127.744 -0.943435 5.9932 0
M  V30 1363 H 126.483 -1.13622 4.7428 0
M  V30 1364 H 125.488 1.07538 5.39181 0
M  V30 1365 H 126.713 1.25495 6.67404 0
M  V30 1366 H 124.659 -0.981198 6.4862 0
M  V30 1367 H 124.576 0.384364 7.55022 0
M  V30 1368 H 125.844 -0.787014 7.75517 0
M  V30 1369 N 130.073 -1.45103 0.615059 0
M  V30 1370 C 131.313 -2.04069 0.116282 0
M  V30 1371 C 131.677 -1.4721 -1.2326 0
M  V30 1372 O 132.878 -1.97577 -1.82255 0
M  V30 1373 C 131.149 -3.57298 0.085482 0
M  V30 1374 S 132.708 -4.37394 -0.351015 0
M  V30 1375 H 129.526 -0.709006 0.0532183 0
M  V30 1376 H 132.128 -1.77709 0.81484 0
M  V30 1377 H 130.832 -3.9619 1.0706 0
M  V30 1378 H 130.363 -3.88244 -0.634835 0
M  V30 1379 H 132.378 -4.69734 -1.59889 0
M  V30 1380 N 131.551 -0.354651 -1.53558 0
M  V30 1381 C 132.484 0.540273 -2.21712 0
M  V30 1382 C 133.462 1.09161 -1.2051 0
M  V30 1383 O 134.646 1.14979 -1.49372 0
M  V30 1384 C 131.773 1.74435 -2.90328 0
M  V30 1385 C 130.819 1.32146 -4.05512 0
M  V30 1386 S 131.652 0.331924 -5.3447 0
M  V30 1387 C 132.808 1.54258 -6.06593 0
M  V30 1388 H 133.041 -0.0385776 -2.97275 0
M  V30 1389 H 130.574 -0.138736 -1.53775 0
M  V30 1390 H 132.532 2.43507 -3.30476 0
M  V30 1391 H 131.193 2.29444 -2.1451 0
M  V30 1392 H 130.386 2.21952 -4.52497 0
M  V30 1393 H 129.988 0.710091 -3.67197 0
M  V30 1394 H 132.28 2.47534 -6.30661 0
M  V30 1395 H 133.223 1.11431 -6.99277 0
M  V30 1396 H 133.631 1.74367 -5.36895 0
M  V30 1397 N 133.029 1.57378 -0.0835403 0
M  V30 1398 C 134.306 1.85363 0.624507 0
M  V30 1399 C 134.686 0.978239 1.87066 0
M  V30 1400 O 134.034 0.0475908 2.2845 0
M  V30 1401 C 134.244 3.35795 0.950947 0
M  V30 1402 C 135.592 4.03581 1.31939 0
M  V30 1403 O 136.616 3.40609 1.04232 0
M  V30 1404 O 135.475 5.14672 1.83779 0
M  V30 1405 H 132.569 0.766162 0.311329 0
M  V30 1406 H 135.115 1.69307 -0.115362 0
M  V30 1407 H 133.887 3.91244 0.0663899 0
M  V30 1408 H 133.51 3.57154 1.74719 0
M  V30 1409 N 134.507 -0.190092 1.56449 0
M  V30 1410 C 135.439 -1.25973 1.91477 0
M  V30 1411 C 136.452 -1.41452 0.805931 0
M  V30 1412 O 137.641 -1.41789 1.08435 0
M  V30 1413 C 134.741 -2.63117 2.13594 0
M  V30 1414 C 133.914 -2.69182 3.4476 0
M  V30 1415 C 132.973 -3.87557 3.5593 0
M  V30 1416 O 131.999 -3.74427 4.28711 0
M  V30 1417 N 133.201 -5.03224 2.89388 0
M  V30 1418 H 135.966 -0.962394 2.83828 0
M  V30 1419 H 133.527 -0.379981 1.57378 0
M  V30 1420 H 135.519 -3.40742 2.1835 0
M  V30 1421 H 134.089 -2.85319 1.27719 0
M  V30 1422 H 133.309 -1.77793 3.51828 0
M  V30 1423 H 134.597 -2.70229 4.31107 0
M  V30 1424 H 133.995 -5.16791 2.30094 0
M  V30 1425 H 132.552 -5.78778 2.99764 0
M  V30 1426 N 135.985 -1.50799 -0.457987 0
M  V30 1427 C 137.232 -1.62442 -1.20908 0
M  V30 1428 C 137.56 -0.330865 -1.91665 0
M  V30 1429 O 136.815 0.68401 -1.83357 0
M  V30 1430 C 137.114 -2.76358 -2.2663 0
M  V30 1431 C 136.78 -4.16378 -1.73033 0
M  V30 1432 C 135.442 -4.54473 -1.58138 0
M  V30 1433 C 137.794 -5.03836 -1.33413 0
M  V30 1434 C 135.122 -5.77754 -1.02065 0
M  V30 1435 C 137.474 -6.27676 -0.78778 0
M  V30 1436 C 136.138 -6.64562 -0.625561 0
M  V30 1437 H 135.408 -0.594417 -0.442435 0
M  V30 1438 H 138.055 -1.84772 -0.503136 0
M  V30 1439 H 136.36 -2.48167 -3.03184 0
M  V30 1440 H 138.057 -2.82568 -2.84528 0
M  V30 1441 H 134.647 -3.86331 -1.85598 0
M  V30 1442 H 138.831 -4.75026 -1.4375 0
M  V30 1443 H 134.087 -6.04997 -0.882547 0
M  V30 1444 H 138.261 -6.94797 -0.472177 0
M  V30 1445 H 135.888 -7.59965 -0.188926 0
M  V30 1446 N 137.463 0.71206 -1.40597 0
M  V30 1447 C 138.874 1.29135 -1.34837 0
M  V30 1448 C 139.225 1.96186 -0.0235395 0
M  V30 1449 O 138.35 1.97768 0.878444 0
M  V30 1450 C 138.945 2.34827 -2.44217 0
M  V30 1451 C 137.504 2.88371 -2.41907 0
M  V30 1452 C 136.651 1.62202 -2.24913 0
M  V30 1453 H 139.602 0.507944 -1.50352 0
M  V30 1454 H 139.623 3.15749 -2.12327 0
M  V30 1455 H 139.135 1.85996 -3.40627 0
M  V30 1456 H 137.236 3.41422 -1.49204 0
M  V30 1457 H 137.349 3.39925 -3.37621 0
M  V30 1458 H 135.713 1.874 -1.72492 0
M  V30 1459 H 136.496 1.15391 -3.23326 0
M  V30 1460 N 138.941 1.26152 0.944643 0
M  V30 1461 C 140.187 1.11657 1.69294 0
M  V30 1462 C 140.52 -0.339926 1.91202 0
M  V30 1463 O 139.795 -1.24994 1.49019 0
M  V30 1464 C 140.078 1.88236 3.06984 0
M  V30 1465 C 139.931 3.41772 2.92424 0
M  V30 1466 C 141.25 1.67343 4.07043 0
M  V30 1467 H 138.369 0.407004 0.614424 0
M  V30 1468 H 141.011 1.55106 1.09737 0
M  V30 1469 H 139.161 1.51308 3.57824 0
M  V30 1470 H 140.833 3.88433 2.48832 0
M  V30 1471 H 139.076 3.68974 2.28124 0
M  V30 1472 H 139.747 3.90579 3.90067 0
M  V30 1473 H 142.223 1.99509 3.65151 0
M  V30 1474 H 141.099 2.23346 5.01406 0
M  V30 1475 H 141.36 0.617158 4.37771 0
M  V30 1476 N 140.419 -1.14872 1.07899 0
M  V30 1477 C 141.696 -1.81928 0.71845 0
M  V30 1478 C 142.076 -1.95417 -0.798455 0
M  V30 1479 O 141.424 -1.50997 -1.715 0
M  V30 1480 C 141.634 -3.17937 1.43935 0
M  V30 1481 C 142.982 -3.93501 1.59506 0
M  V30 1482 O 144.006 -3.27509 1.40058 0
M  V30 1483 O 142.865 -5.1183 1.91551 0
M  V30 1484 H 139.959 -0.78628 0.256305 0
M  V30 1485 H 142.505 -1.21934 1.18026 0
M  V30 1486 H 141.277 -3.0325 2.47295 0
M  V30 1487 H 140.9 -3.85619 0.968687 0
M  V30 1488 N 141.898 -0.863906 -1.31812 0
M  V30 1489 C 143.144 -0.472535 -1.97218 0
M  V30 1490 C 143.477 0.971394 -1.68159 0
M  V30 1491 O 142.752 1.68309 -0.974798 0
M  V30 1492 C 143.035 -0.723054 -3.52766 0
M  V30 1493 C 142.888 -2.21608 -3.91421 0
M  V30 1494 C 144.207 -0.185522 -4.39709 0
M  V30 1495 H 141.326 -0.173158 -0.71637 0
M  V30 1496 H 143.968 -1.08403 -1.56041 0
M  V30 1497 H 142.118 -0.202577 -3.87971 0
M  V30 1498 H 143.79 -2.80334 -3.66347 0
M  V30 1499 H 142.033 -2.691 -3.40246 0
M  V30 1500 H 142.704 -2.34203 -4.99853 0
M  V30 1501 H 145.18 -0.630726 -4.11292 0
M  V30 1502 H 144.056 -0.390306 -5.47511 0
M  V30 1503 H 144.317 0.912229 -4.32586 0
M  V30 1504 N 143.376 1.44774 -0.622745 0
M  V30 1505 C 144.606 2.06187 -0.130532 0
M  V30 1506 C 145.014 1.46547 1.19669 0
M  V30 1507 O 144.357 0.579636 1.74316 0
M  V30 1508 C 144.419 3.59437 0.0674983 0
M  V30 1509 C 144.083 4.41496 -1.18026 0
M  V30 1510 C 145.08 4.75512 -2.102 0
M  V30 1511 C 142.765 4.82007 -1.41333 0
M  V30 1512 C 144.759 5.48912 -3.23998 0
M  V30 1513 C 142.446 5.55157 -2.55429 0
M  V30 1514 C 143.444 5.88528 -3.46589 0
M  V30 1515 O 143.132 6.60191 -4.58697 0
M  V30 1516 H 142.864 0.672045 -0.0730162 0
M  V30 1517 H 145.418 1.86768 -0.854802 0
M  V30 1518 H 143.648 3.77314 0.846825 0
M  V30 1519 H 145.337 4.02642 0.513209 0
M  V30 1520 H 146.103 4.4476 -1.93425 0
M  V30 1521 H 141.982 4.55457 -0.712709 0
M  V30 1522 H 145.526 5.74877 -3.95174 0
M  V30 1523 H 141.423 5.85324 -2.72151 0
M  V30 1524 H 142.191 6.78654 -4.57571 0
M  V30 1525 N 144.854 0.36279 1.53368 0
M  V30 1526 C 145.786 -0.519668 2.23231 0
M  V30 1527 C 146.799 -1.04844 1.24546 0
M  V30 1528 O 147.988 -0.955296 1.50786 0
M  V30 1529 C 145.088 -1.72995 2.9142 0
M  V30 1530 C 144.261 -1.33316 4.16588 0
M  V30 1531 C 143.32 -2.40521 4.68013 0
M  V30 1532 O 142.346 -2.03027 5.3176 0
M  V30 1533 N 143.548 -3.72065 4.45587 0
M  V30 1534 H 146.313 0.078751 2.99597 0
M  V30 1535 H 143.874 0.187833 1.60807 0
M  V30 1536 H 145.866 -2.44184 3.22733 0
M  V30 1537 H 144.436 -2.2353 2.18525 0
M  V30 1538 H 143.656 -0.451236 3.91609 0
M  V30 1539 H 144.944 -1.04432 4.97967 0
M  V30 1540 H 144.342 -4.05304 3.94646 0
M  V30 1541 H 142.899 -4.39366 4.81457 0
M  V30 1542 N 146.332 -1.57332 0.0918853 0
M  V30 1543 C 147.58 -1.93853 -0.571446 0
M  V30 1544 C 147.901 -0.974212 -1.6892 0
M  V30 1545 O 147.171 -0.0257254 -1.95883 0
M  V30 1546 H 145.751 -0.715666 -0.214082 0
M  V30 1547 H 148.413 -1.94287 0.154464 0
M  V30 1548 H 147.509 -2.96191 -0.983729 0
M  V30 1549 N 147.81 0.181792 -1.56548 0
M  V30 1550 C 149.058 0.89832 -1.81038 0
M  V30 1551 C 149.379 1.83232 -0.667164 0
M  V30 1552 O 148.649 1.93372 0.313673 0
M  V30 1553 H 147.229 0.33471 -0.667816 0
M  V30 1554 H 149.891 0.184116 -1.94028 0
M  V30 1555 H 148.987 1.4815 -2.74696 0
M  V30 1556 N 149.288 1.51039 0.449983 0
M  V30 1557 C 150.251 1.70863 1.5277 0
M  V30 1558 C 151.251 0.578846 1.5002 0
M  V30 1559 O 152.441 0.846213 1.52266 0
M  V30 1560 C 149.573 1.75341 2.9235 0
M  V30 1561 H 150.766 2.67034 1.36502 0
M  V30 1562 H 148.319 1.40838 0.677812 0
M  V30 1563 H 149.054 0.809383 3.14037 0
M  V30 1564 H 148.839 2.57436 2.95752 0
M  V30 1565 H 150.329 1.92559 3.70555 0
M  V30 1566 N 150.766 -0.704594 1.40972 0
M  V30 1567 C 152.014 -1.46169 1.39568 0
M  V30 1568 C 152.335 -1.95 0.00253745 0
M  V30 1569 O 151.605 -1.71095 -0.954114 0
M  V30 1570 H 150.185 -0.542326 0.513704 0
M  V30 1571 H 152.847 -0.834553 1.76128 0
M  V30 1572 H 151.943 -2.32922 2.07735 0
M  V30 1573 N 152.244 -1.26651 -0.937939 0
M  V30 1574 C 153.472 -1.15173 -1.7188 0
M  V30 1575 C 153.887 0.292668 -1.86518 0
M  V30 1576 O 153.244 1.20014 -1.37488 0
M  V30 1577 C 153.295 -1.81925 -3.12387 0
M  V30 1578 O 153.016 -3.2072 -2.98446 0
M  V30 1579 C 154.517 -1.76442 -4.06673 0
M  V30 1580 H 151.737 -0.400911 -0.538063 0
M  V30 1581 H 154.281 -1.67332 -1.1756 0
M  V30 1582 H 152.436 -1.33696 -3.63599 0
M  V30 1583 H 152.85 -3.53802 -3.872 0
M  V30 1584 H 154.324 -2.27781 -5.02812 0
M  V30 1585 H 154.801 -0.731608 -4.33064 0
M  V30 1586 H 155.407 -2.24238 -3.61382 0
M  V30 1587 N 153.722 1.14298 -1.08507 0
M  V30 1588 C 154.947 1.8976 -0.837001 0
M  V30 1589 C 155.372 1.78097 0.605228 0
M  V30 1590 O 154.73 1.12188 1.4242 0
M  V30 1591 C 154.778 3.37685 -1.26495 0
M  V30 1592 O 153.882 4.10281 -0.417514 0
M  V30 1593 H 153.223 0.590365 -0.303917 0
M  V30 1594 H 155.753 1.44672 -1.44676 0
M  V30 1595 H 155.763 3.88501 -1.24625 0
M  V30 1596 H 154.438 3.45492 -2.31534 0
M  V30 1597 H 153.015 3.69536 -0.499722 0
M  V30 1598 N 155.201 0.870884 1.31352 0
M  V30 1599 C 156.447 0.482987 1.96965 0
M  V30 1600 C 156.78 -0.962462 1.68672 0
M  V30 1601 O 156.055 -1.6779 0.98371 0
M  V30 1602 C 156.338 0.741752 3.52378 0
M  V30 1603 C 156.191 2.2368 3.9024 0
M  V30 1604 C 157.51 0.208838 4.39604 0
M  V30 1605 H 154.629 0.176955 0.715441 0
M  V30 1606 H 157.271 1.09229 1.55464 0
M  V30 1607 H 155.421 0.223149 3.87859 0
M  V30 1608 H 157.093 2.82273 3.64856 0
M  V30 1609 H 155.336 2.70901 3.38814 0
M  V30 1610 H 156.007 2.3685 4.98604 0
M  V30 1611 H 158.483 0.652529 4.10952 0
M  V30 1612 H 157.359 0.419336 5.47296 0
M  V30 1613 H 157.62 -0.889275 4.33064 0
M  V30 1614 N 156.679 -1.44442 0.630414 0
M  V30 1615 C 157.627 -2.32437 -0.0871428 0
M  V30 1616 C 158.621 -1.47304 -0.836525 0
M  V30 1617 O 159.827 -1.63653 -0.749506 0
M  V30 1618 H 156.202 -0.750533 -0.0469495 0
M  V30 1619 H 158.173 -2.90709 0.673096 0
M  V30 1620 C 156.922 -3.31288 -1.05563 0
M  V30 1621 H 156.245 -3.96805 -0.488426 0
M  V30 1622 H 157.685 -3.9554 -1.52721 0
M  V30 1623 C 156.144 -2.6016 -2.14052 0
M  V30 1624 O 156.674 -2.39997 -3.22124 0
M  V30 1625 N 154.88 -2.19911 -1.89967 0
M  V30 1626 H 154.427 -2.36509 -1.02085 0
M  V30 1627 H 154.385 -1.72646 -2.62756 0
M  V30 1628 N 158.157 -0.370918 -1.53173 0
M  V30 1629 C 159.09 0.516727 -2.22273 0
M  V30 1630 C 160.068 1.07877 -1.21661 0
M  V30 1631 O 161.252 1.13389 -1.50583 0
M  V30 1632 C 158.379 1.71346 -2.92161 0
M  V30 1633 C 157.425 1.27838 -4.0689 0
M  V30 1634 S 158.258 0.275217 -5.34792 0
M  V30 1635 C 159.414 1.47816 -6.08195 0
M  V30 1636 H 159.647 -0.0701054 -2.97217 0
M  V30 1637 H 157.18 -0.155038 -1.5362 0
M  V30 1638 H 159.138 2.39988 -3.3304 0
M  V30 1639 H 157.799 2.27156 -2.16931 0
M  V30 1640 H 156.992 2.17141 -4.54825 0
M  V30 1641 H 156.594 0.671105 -3.6793 0
M  V30 1642 H 158.886 2.40831 -6.33251 0
M  V30 1643 H 159.829 1.04008 -7.0042 0
M  V30 1644 H 160.237 1.68663 -5.38714 0
M  V30 1645 N 159.635 1.57281 -0.100228 0
M  V30 1646 C 160.583 2.15542 0.874328 0
M  V30 1647 C 161.577 1.09962 1.28859 0
M  V30 1648 O 162.783 1.28298 1.26252 0
M  V30 1649 H 159.158 0.689567 0.300003 0
M  V30 1650 H 161.129 2.96241 0.35829 0
M  V30 1651 C 159.878 2.75454 2.1218 0
M  V30 1652 H 159.201 3.56384 1.81193 0
M  V30 1653 H 160.641 3.19781 2.78417 0
M  V30 1654 C 159.1 1.71602 2.89921 0
M  V30 1655 O 159.63 1.15804 3.84646 0
M  V30 1656 N 157.836 1.41975 2.53558 0
M  V30 1657 H 157.383 1.87539 1.76598 0
M  V30 1658 H 157.341 0.727274 3.05873 0
M  V30 1659 N 161.113 -0.173488 1.56642 0
M  V30 1660 C 162.341 -0.906095 1.86004 0
M  V30 1661 C 162.756 -1.75921 0.685355 0
M  V30 1662 O 162.113 -1.79198 -0.345578 0
M  V30 1663 C 162.164 -1.78462 3.14378 0
M  V30 1664 O 161.885 -0.965914 4.27319 0
M  V30 1665 C 163.386 -2.62707 3.57071 0
M  V30 1666 H 160.606 -0.263341 0.617165 0
M  V30 1667 H 163.15 -0.174236 2.03756 0
M  V30 1668 H 161.305 -2.46984 2.98459 0
M  V30 1669 H 161.719 -1.56655 5.00559 0
M  V30 1670 H 163.193 -3.19969 4.49804 0
M  V30 1671 H 163.67 -3.37472 2.81086 0
M  V30 1672 H 164.276 -1.99521 3.75595 0
M  V30 1673 N 162.591 -1.51276 -0.441967 0
M  V30 1674 C 163.539 -1.72823 -1.55676 0
M  V30 1675 C 164.533 -0.59445 -1.58627 0
M  V30 1676 O 165.739 -0.775715 -1.62427 0
M  V30 1677 H 162.114 -0.545983 -0.517113 0
M  V30 1678 H 164.085 -2.6628 -1.34675 0
M  V30 1679 C 162.834 -1.86619 -2.93375 0
M  V30 1680 H 162.157 -2.73264 -2.91834 0
M  V30 1681 H 163.597 -2.05709 -3.70756 0
M  V30 1682 C 162.056 -0.624842 -3.31055 0
M  V30 1683 O 162.586 0.222636 -4.01083 0
M  V30 1684 N 160.792 -0.470288 -2.86769 0
M  V30 1685 H 160.339 -1.161 -2.29953 0
M  V30 1686 H 160.297 0.359051 -3.12343 0
M  V30 1687 N 164.069 0.697108 -1.41344 0
M  V30 1688 C 164.979 1.84088 -1.45427 0
M  V30 1689 C 165.995 1.70545 -0.34501 0
M  V30 1690 O 167.171 1.92488 -0.592492 0
M  V30 1691 C 164.236 3.20056 -1.33286 0
M  V30 1692 C 163.297 3.45718 -2.54514 0
M  V30 1693 C 162.53 4.75199 -2.42944 0
M  V30 1694 O 162.753 5.51579 -1.45318 0
M  V30 1695 O 161.687 5.0161 -3.32672 0
M  V30 1696 H 165.513 1.836 -2.41919 0
M  V30 1697 H 163.098 0.849966 -1.22866 0
M  V30 1698 H 164.98 4.01236 -1.28794 0
M  V30 1699 H 163.655 3.2123 -0.39909 0
M  V30 1700 H 162.562 2.64474 -2.64583 0
M  V30 1701 H 163.895 3.49356 -3.46715 0
M  V30 1702 N 165.547 1.27147 0.931209 0
M  V30 1703 C 166.793 1.13446 1.68101 0
M  V30 1704 C 167.126 -0.319628 1.91552 0
M  V30 1705 O 166.401 -1.23407 1.50336 0
M  V30 1706 C 166.684 1.91482 3.0497 0
M  V30 1707 C 166.537 3.44855 2.88782 0
M  V30 1708 C 167.856 1.71651 4.05246 0
M  V30 1709 H 164.975 0.413498 0.610072 0
M  V30 1710 H 167.617 1.56261 1.08086 0
M  V30 1711 H 165.767 1.55095 3.56199 0
M  V30 1712 H 167.439 3.9105 2.44698 0
M  V30 1713 H 165.682 3.71373 2.24198 0
M  V30 1714 H 166.353 3.94694 3.85902 0
M  V30 1715 H 168.829 2.0337 3.63015 0
M  V30 1716 H 167.705 2.28651 4.99009 0
M  V30 1717 H 167.966 0.663555 4.37092 0
M  V30 1718 N 167.025 -1.13721 1.09112 0
M  V30 1719 C 167.955 -2.21148 0.749385 0
M  V30 1720 C 168.936 -1.6792 -0.271475 0
M  V30 1721 O 170.121 -1.93693 -0.140251 0
M  V30 1722 C 167.251 -3.46905 0.165659 0
M  V30 1723 C 166.205 -4.13203 1.11567 0
M  V30 1724 C 165.531 -5.33248 0.393809 0
M  V30 1725 C 166.831 -4.60912 2.45678 0
M  V30 1726 H 168.525 -2.4999 1.64758 0
M  V30 1727 H 166.071 -1.20156 0.793626 0
M  V30 1728 H 168.024 -4.21313 -0.085466 0
M  V30 1729 H 166.748 -3.17449 -0.767714 0
M  V30 1730 H 165.407 -3.40758 1.35202 0
M  V30 1731 H 165.055 -5.00054 -0.543599 0
M  V30 1732 H 164.755 -5.78552 1.02721 0
M  V30 1733 H 166.279 -6.10413 0.150908 0
M  V30 1734 H 167.693 -5.26759 2.26269 0
M  V30 1735 H 166.09 -5.16944 3.04776 0
M  V30 1736 H 167.16 -3.75603 3.06677 0
M  V30 1737 N 168.503 -0.877838 -1.30888 0
M  V30 1738 C 169.466 -0.344265 -2.266 0
M  V30 1739 C 170.466 0.50922 -1.52524 0
M  V30 1740 O 171.656 0.317398 -1.71284 0
M  V30 1741 C 168.788 0.510198 -3.37061 0
M  V30 1742 H 169.981 -1.1893 -2.7531 0
M  V30 1743 H 167.534 -0.654088 -1.41956 0
M  V30 1744 H 168.269 1.37612 -2.93655 0
M  V30 1745 H 168.054 -0.101047 -3.9197 0
M  V30 1746 H 169.544 0.875537 -4.08319 0
M  V30 1747 N 169.982 1.44106 -0.638065 0
M  V30 1748 C 170.93 2.3248 0.0748149 0
M  V30 1749 C 171.924 1.47746 0.828702 0
M  V30 1750 O 173.13 1.64049 0.740816 0
M  V30 1751 H 169.505 0.750771 0.0429686 0
M  V30 1752 H 171.476 2.90348 -0.688504 0
M  V30 1753 C 170.225 3.31843 1.03805 0
M  V30 1754 H 169.548 3.97059 0.467375 0
M  V30 1755 H 170.988 3.96345 1.50622 0
M  V30 1756 C 169.447 2.61291 2.1267 0
M  V30 1757 O 169.977 2.41702 3.20847 0
M  V30 1758 N 168.183 2.20915 1.88798 0
M  V30 1759 H 167.73 2.37047 1.00829 0
M  V30 1760 H 167.688 1.74038 2.61836 0
M  V30 1761 N 171.46 0.379036 1.52974 0
M  V30 1762 C 172.709 -0.207612 2.00629 0
M  V30 1763 C 173.022 -1.48758 1.27006 0
M  V30 1764 O 174.228 -2.15365 1.65318 0
M  V30 1765 C 172.684 -0.42053 3.57435 0
M  V30 1766 C 172.292 0.845587 4.39948 0
M  V30 1767 C 174.036 -0.964102 4.13407 0
M  V30 1768 C 171.943 0.601513 5.88333 0
M  V30 1769 H 170.873 -0.0813591 0.749598 0
M  V30 1770 H 173.524 0.499853 1.76561 0
M  V30 1771 H 171.906 -1.18959 3.7771 0
M  V30 1772 H 173.08 1.61848 4.31442 0
M  V30 1773 H 171.395 1.31336 3.95145 0
M  V30 1774 H 173.992 -1.16225 5.21916 0
M  V30 1775 H 174.335 -1.93019 3.68849 0
M  V30 1776 H 174.868 -0.25487 3.96983 0
M  V30 1777 H 171.607 1.53831 6.37194 0
M  V30 1778 H 171.127 -0.132628 5.99653 0
M  V30 1779 H 172.806 0.232134 6.46583 0
M  V30 1780 N 172.938 -1.57226 0.108567 0
M  V30 1781 C 174.186 -1.94448 -0.550853 0
M  V30 1782 C 174.507 -0.992074 -1.67878 0
M  V30 1783 O 173.777 -0.0465 -1.95845 0
M  V30 1784 H 172.357 -0.717897 -0.206479 0
M  V30 1785 H 175.019 -1.94112 0.175062 0
M  V30 1786 H 174.115 -2.97218 -0.952259 0
M  V30 1787 N 174.416 0.165178 -1.56732 0
M  V30 1788 C 175.346 1.20651 -1.99914 0
M  V30 1789 C 176.327 1.45827 -0.875705 0
M  V30 1790 O 177.512 1.57057 -1.14223 0
M  V30 1791 C 174.642 2.54401 -2.36427 0
M  V30 1792 C 173.596 2.43782 -3.51787 0
M  V30 1793 C 172.922 3.82078 -3.7406 0
M  V30 1794 C 174.222 1.93732 -4.85041 0
M  V30 1795 H 175.916 0.847534 -2.87154 0
M  V30 1796 H 173.462 0.40625 -1.38151 0
M  V30 1797 H 175.415 3.27458 -2.65234 0
M  V30 1798 H 174.139 2.92098 -1.46103 0
M  V30 1799 H 172.798 1.73178 -3.23117 0
M  V30 1800 H 172.446 4.17179 -2.81017 0
M  V30 1801 H 172.146 3.7584 -4.51684 0
M  V30 1802 H 173.67 4.56712 -4.05274 0
M  V30 1803 H 175.084 2.56569 -5.12684 0
M  V30 1804 H 173.481 1.98428 -5.66345 0
M  V30 1805 H 174.551 0.891962 -4.76626 0
M  V30 1806 N 175.894 1.51508 0.433938 0
M  V30 1807 C 176.804 1.75917 1.5521 0
M  V30 1808 C 177.82 0.643545 1.61662 0
M  V30 1809 O 178.996 0.926183 1.7884 0
M  V30 1810 C 176.061 1.88213 2.91164 0
M  V30 1811 C 175.122 3.12074 2.94802 0
M  V30 1812 C 174.355 3.23774 4.24271 0
M  V30 1813 O 174.578 2.4133 5.16833 0
M  V30 1814 O 173.512 4.16774 4.34262 0
M  V30 1815 H 177.338 2.70777 1.37527 0
M  V30 1816 H 174.923 1.36051 0.617293 0
M  V30 1817 H 176.805 1.98267 3.71845 0
M  V30 1818 H 175.48 0.965413 3.08968 0
M  V30 1819 H 174.387 3.07497 2.13065 0
M  V30 1820 H 175.72 4.03446 2.81943 0
M  V30 1821 N 177.372 -0.689602 1.41712 0
M  V30 1822 C 178.302 -1.81577 1.46806 0
M  V30 1823 C 179.283 -1.66945 0.326105 0
M  V30 1824 O 180.468 -1.86588 0.538377 0
M  V30 1825 C 177.598 -3.19762 1.35535 0
M  V30 1826 C 176.552 -3.49107 2.47605 0
M  V30 1827 C 175.878 -4.86711 2.21397 0
M  V30 1828 C 177.178 -3.47483 3.89939 0
M  V30 1829 H 178.872 -1.7757 2.41058 0
M  V30 1830 H 176.418 -0.852887 1.16025 0
M  V30 1831 H 178.371 -3.98263 1.3771 0
M  V30 1832 H 177.095 -3.24409 0.377708 0
M  V30 1833 H 175.754 -2.72959 2.44722 0
M  V30 1834 H 175.402 -4.8799 1.21961 0
M  V30 1835 H 175.102 -5.0731 2.96497 0
M  V30 1836 H 176.626 -5.67515 2.25297 0
M  V30 1837 H 178.04 -4.1598 3.94505 0
M  V30 1838 H 176.437 -3.79615 4.64771 0
M  V30 1839 H 177.507 -2.46341 4.17665 0
M  V30 1840 N 178.85 -1.27639 -0.924453 0
M  V30 1841 C 179.783 -1.04966 -2.02626 0
M  V30 1842 C 180.761 0.0309505 -1.62571 0
M  V30 1843 O 181.945 -0.114846 -1.8815 0
M  V30 1844 C 179.072 -0.59292 -3.3347 0
M  V30 1845 C 178.118 -1.66858 -3.92506 0
M  V30 1846 S 178.951 -3.2619 -4.24689 0
M  V30 1847 C 180.107 -2.82325 -5.58609 0
M  V30 1848 H 180.34 -1.98252 -2.21547 0
M  V30 1849 H 177.873 -1.11506 -1.06798 0
M  V30 1850 H 179.831 -0.336086 -4.09122 0
M  V30 1851 H 178.492 0.319939 -3.12466 0
M  V30 1852 H 177.685 -1.30038 -4.86935 0
M  V30 1853 H 177.287 -1.87766 -3.2345 0
M  V30 1854 H 179.579 -2.2783 -6.38044 0
M  V30 1855 H 180.522 -3.75511 -6.00331 0
M  V30 1856 H 180.93 -2.21367 -5.19285 0
M  V30 1857 N 180.328 1.1314 -1.09713 0
M  V30 1858 C 181.576 1.84119 -0.833338 0
M  V30 1859 C 181.897 1.84097 0.642904 0
M  V30 1860 O 181.167 1.29881 1.46655 0
M  V30 1861 H 179.747 0.681766 -0.305293 0
M  V30 1862 H 182.409 1.37038 -1.38588 0
M  V30 1863 H 181.505 2.88543 -1.18951 0
M  V30 1864 N 181.806 0.884767 1.30421 0
M  V30 1865 C 182.756 0.322846 2.25703 0
M  V30 1866 C 183.74 -0.548582 1.51259 0
M  V30 1867 O 184.932 -0.39304 1.72581 0
M  V30 1868 C 182.061 -0.461787 3.4018 0
M  V30 1869 C 181.147 0.423717 4.21978 0
M  V30 1870 N 181.538 1.52408 4.82292 0
M  V30 1871 C 179.836 0.218795 4.45463 0
M  V30 1872 C 180.537 2.07136 5.43571 0
M  V30 1873 N 179.513 1.36635 5.26148 0
M  V30 1874 H 183.315 1.16363 2.69883 0
M  V30 1875 H 180.829 0.73415 1.44859 0
M  V30 1876 H 182.826 -0.880985 4.07485 0
M  V30 1877 H 181.486 -1.30001 2.9754 0
M  V30 1878 H 182.497 1.90693 4.81515 0
M  V30 1879 H 179.174 -0.582275 4.1342 0
M  V30 1880 H 180.564 2.99538 6.01437 0
M  V30 1881 N 183.284 -1.43765 0.645699 0
M  V30 1882 C 184.216 -2.29027 -0.0890605 0
M  V30 1883 C 185.229 -1.42093 -0.794563 0
M  V30 1884 O 186.418 -1.66104 -0.653575 0
M  V30 1885 C 183.518 -3.18831 -1.14891 0
M  V30 1886 C 182.691 -4.34261 -0.523043 0
M  V30 1887 C 181.75 -5.04994 -1.47878 0
M  V30 1888 O 180.776 -5.6052 -0.990277 0
M  V30 1889 N 181.978 -5.07795 -2.81291 0
M  V30 1890 H 184.743 -2.92727 0.64272 0
M  V30 1891 H 182.304 -1.54373 0.487924 0
M  V30 1892 H 184.296 -3.63015 -1.78892 0
M  V30 1893 H 182.866 -2.56782 -1.78275 0
M  V30 1894 H 182.086 -3.93088 0.295896 0
M  V30 1895 H 183.374 -5.08728 -0.0858147 0
M  V30 1896 H 182.772 -4.64042 -3.23546 0
M  V30 1897 H 181.329 -5.55721 -3.40614 0
M  V30 1898 N 184.763 -0.387143 -1.52771 0
M  V30 1899 C 185.71 0.449048 -2.26389 0
M  V30 1900 C 186.68 1.05961 -1.27912 0
M  V30 1901 O 187.865 1.08804 -1.56737 0
M  V30 1902 C 185.005 1.57155 -3.0724 0
M  V30 1903 C 184.118 0.984066 -4.20643 0
M  V30 1904 C 183.253 2.07745 -4.88892 0
M  V30 1905 C 182.292 1.46574 -5.94292 0
M  V30 1906 N 181.429 2.49834 -6.56146 0
M  V30 1907 H 186.269 -0.185205 -2.97424 0
M  V30 1908 H 183.806 -0.103164 -1.46738 0
M  V30 1909 H 185.764 2.23309 -3.52405 0
M  V30 1910 H 184.394 2.17615 -2.38419 0
M  V30 1911 H 183.446 0.212193 -3.79808 0
M  V30 1912 H 184.758 0.497029 -4.96318 0
M  V30 1913 H 183.912 2.81673 -5.3735 0
M  V30 1914 H 182.651 2.59807 -4.12737 0
M  V30 1915 H 181.656 0.711696 -5.45174 0
M  V30 1916 H 182.881 0.953088 -6.72379 0
M  V30 1917 H 180.827 3.0107 -5.82832 0
M  V30 1918 H 180.744 2.05879 -7.27427 0
M  V30 1919 H 182.012 3.23399 -7.09249 0
M  V30 1920 N 186.241 1.57166 -0.116904 0
M  V30 1921 C 187.489 1.94737 0.540533 0
M  V30 1922 C 187.81 1.00096 1.67349 0
M  V30 1923 O 187.08 0.0568854 1.95817 0
M  V30 1924 H 185.66 0.718981 0.202669 0
M  V30 1925 H 188.322 1.94017 -0.185353 0
M  V30 1926 H 187.418 2.97719 0.936483 0
M  V30 1927 N 187.719 -0.156864 1.56817 0
M  V30 1928 C 188.629 -1.2136 2.00771 0
M  V30 1929 C 189.645 -1.47598 0.921459 0
M  V30 1930 O 190.821 -1.59462 1.2302 0
M  V30 1931 C 187.886 -2.52943 2.37109 0
M  V30 1932 C 186.947 -2.34439 3.59634 0
M  V30 1933 C 186.18 -3.59748 3.94229 0
M  V30 1934 O 186.403 -4.65526 3.29609 0
M  V30 1935 O 185.337 -3.52998 4.8752 0
M  V30 1936 H 189.163 -0.870468 2.90958 0
M  V30 1937 H 186.748 -0.36484 1.44877 0
M  V30 1938 H 188.63 -3.30538 2.61386 0
M  V30 1939 H 187.305 -2.86806 1.5008 0
M  V30 1940 H 186.212 -1.54828 3.40557 0
M  V30 1941 H 187.545 -2.05496 4.4725 0
M  V30 1942 N 189.197 -1.51736 -0.425897 0
M  V30 1943 C 190.427 -1.68549 -1.19476 0
M  V30 1944 C 190.835 -0.387288 -1.85194 0
M  V30 1945 O 190.178 0.645142 -1.71999 0
M  V30 1946 C 190.24 -2.75275 -2.31223 0
M  V30 1947 C 189.904 -4.17534 -1.8578 0
M  V30 1948 C 190.901 -5.01936 -1.35485 0
M  V30 1949 C 188.586 -4.6369 -1.93123 0
M  V30 1950 C 190.58 -6.30559 -0.931347 0
M  V30 1951 C 188.267 -5.92307 -1.50384 0
M  V30 1952 C 189.265 -6.75569 -1.00473 0
M  V30 1953 O 188.953 -8.0178 -0.583452 0
M  V30 1954 H 188.685 -0.568525 -0.365725 0
M  V30 1955 H 191.239 -1.98982 -0.509444 0
M  V30 1956 H 189.469 -2.40182 -3.03067 0
M  V30 1957 H 191.158 -2.80853 -2.93047 0
M  V30 1958 H 191.924 -4.67475 -1.29197 0
M  V30 1959 H 187.803 -3.98997 -2.30916 0
M  V30 1960 H 191.347 -6.95498 -0.541084 0
M  V30 1961 H 187.244 -6.2628 -1.56346 0
M  V30 1962 H 188.012 -8.1543 -0.708275 0
M  V30 1963 N 190.675 0.682077 -1.42076 0
M  V30 1964 C 191.607 1.80755 -1.40926 0
M  V30 1965 C 192.62 1.59833 -0.309398 0
M  V30 1966 O 193.809 1.69087 -0.572014 0
M  V30 1967 C 190.909 3.17744 -1.17865 0
M  V30 1968 C 190.082 3.65578 -2.40149 0
M  V30 1969 C 189.141 4.81277 -2.12742 0
M  V30 1970 O 188.167 4.92197 -2.85887 0
M  V30 1971 N 189.369 5.69474 -1.12602 0
M  V30 1972 H 192.134 1.82229 -2.37935 0
M  V30 1973 H 189.695 0.864903 -1.36861 0
M  V30 1974 H 191.687 3.9279 -0.9746 0
M  V30 1975 H 190.257 3.11214 -0.294068 0
M  V30 1976 H 189.477 2.81291 -2.76169 0
M  V30 1977 H 190.765 3.94278 -3.21593 0
M  V30 1978 H 190.163 5.63297 -0.520899 0
M  V30 1979 H 188.72 6.44363 -0.981842 0
M  V30 1980 N 192.153 1.28127 0.917671 0
M  V30 1981 C 193.383 1.17722 1.6978 0
M  V30 1982 C 193.791 -0.267261 1.87303 0
M  V30 1983 O 193.134 -1.19286 1.39702 0
M  V30 1984 C 193.196 1.79958 3.11216 0
M  V30 1985 C 192.86 3.29187 3.16993 0
M  V30 1986 C 193.857 4.25679 2.98485 0
M  V30 1987 C 191.542 3.70075 3.39632 0
M  V30 1988 C 193.536 5.61035 3.02521 0
M  V30 1989 C 191.223 5.05557 3.433 0
M  V30 1990 C 192.221 6.00847 3.24764 0
M  V30 1991 O 191.909 7.33859 3.28187 0
M  V30 1992 H 191.641 0.409788 0.537634 0
M  V30 1993 H 194.195 1.69694 1.15728 0
M  V30 1994 H 192.425 1.22475 3.66793 0
M  V30 1995 H 194.114 1.64125 3.71238 0
M  V30 1996 H 194.88 3.95426 2.80826 0
M  V30 1997 H 190.759 2.96373 3.53106 0
M  V30 1998 H 194.303 6.35388 2.87971 0
M  V30 1999 H 190.2 5.35462 3.60486 0
M  V30 2000 H 190.968 7.42436 3.44575 0
M  V30 2001 N 193.631 -1.12557 1.10312 0
M  V30 2002 C 194.561 -2.20341 0.772798 0
M  V30 2003 C 195.542 -1.68198 -0.25365 0
M  V30 2004 O 196.727 -1.93831 -0.119699 0
M  V30 2005 C 193.857 -3.46709 0.202443 0
M  V30 2006 C 192.811 -4.11996 1.15943 0
M  V30 2007 C 192.137 -5.328 0.450345 0
M  V30 2008 C 193.437 -4.5828 2.50552 0
M  V30 2009 H 195.131 -2.48229 1.674 0
M  V30 2010 H 192.677 -1.19308 0.806326 0
M  V30 2011 H 194.63 -4.2138 -0.0407752 0
M  V30 2012 H 193.354 -3.18245 -0.734001 0
M  V30 2013 H 192.013 -3.39305 1.38808 0
M  V30 2014 H 191.661 -5.00602 -0.490531 0
M  V30 2015 H 191.361 -5.7743 1.08851 0
M  V30 2016 H 192.885 -6.10219 0.215642 0
M  V30 2017 H 194.299 -5.2433 2.31843 0
M  V30 2018 H 192.696 -5.13683 3.10242 0
M  V30 2019 H 193.766 -3.72329 3.10643 0
M  V30 2020 N 195.109 -0.891671 -1.2995 0
M  V30 2021 C 196.057 -0.353066 -2.29905 0
M  V30 2022 C 197.051 0.543509 -1.60444 0
M  V30 2023 O 198.257 0.4272 -1.74857 0
M  V30 2024 H 194.632 -0.095531 -0.745907 0
M  V30 2025 H 196.603 -1.20961 -2.72784 0
M  V30 2026 C 195.352 0.411475 -3.45257 0
M  V30 2027 H 194.675 -0.269182 -3.98893 0
M  V30 2028 H 196.115 0.753328 -4.17254 0
M  V30 2029 C 194.574 1.6111 -2.9588 0
M  V30 2030 O 195.104 2.71045 -2.96475 0
M  V30 2031 N 193.31 1.45054 -2.51809 0
M  V30 2032 H 192.857 0.556175 -2.51524 0
M  V30 2033 H 192.815 2.25453 -2.1913 0
M  V30 2034 N 196.587 1.43421 -0.653314 0
M  V30 2035 C 197.998 1.85065 -0.246537 0
M  V30 2036 C 198.349 1.54688 1.2069 0
M  V30 2037 O 197.474 0.995896 1.92122 0
M  V30 2038 C 198.069 3.35922 -0.440666 0
M  V30 2039 C 196.628 3.76297 -0.0882064 0
M  V30 2040 C 195.775 2.67147 -0.743484 0
M  V30 2041 H 198.726 1.33572 -0.856979 0
M  V30 2042 H 198.747 3.79204 0.313798 0
M  V30 2043 H 198.259 3.58 -1.49858 0
M  V30 2044 H 196.36 3.5983 0.96711 0
M  V30 2045 H 196.473 4.76338 -0.513738 0
M  V30 2046 H 194.837 2.54086 -0.176712 0
M  V30 2047 H 195.62 2.92053 -1.80443 0
M  V30 2048 N 198.065 0.39524 1.52563 0
M  V30 2049 C 199.013 -0.451859 2.28169 0
M  V30 2050 C 200.007 -1.05792 1.32304 0
M  V30 2051 O 201.213 -0.997718 1.49818 0
M  V30 2052 H 197.588 -0.164481 0.733792 0
M  V30 2053 H 199.559 0.207199 2.9768 0
M  V30 2054 C 198.308 -1.56385 3.10546 0
M  V30 2055 H 197.631 -1.10682 3.84174 0
M  V30 2056 H 199.071 -2.13067 3.66577 0
M  V30 2057 C 197.53 -2.52328 2.23231 0
M  V30 2058 O 198.06 -3.5588 1.86312 0
M  V30 2059 N 196.266 -2.22209 1.87274 0
M  V30 2060 H 195.813 -1.38033 2.17496 0
M  V30 2061 H 195.771 -2.86652 1.29143 0
M  V30 2062 N 199.544 -1.57102 0.125237 0
M  V30 2063 C 200.821 -1.86953 -0.575142 0
M  V30 2064 C 201.201 -1.02749 -1.84407 0
M  V30 2065 O 200.549 -0.108144 -2.28244 0
M  V30 2066 C 200.759 -3.38198 -0.861583 0
M  V30 2067 C 202.107 -4.06937 -1.21192 0
M  V30 2068 O 203.131 -3.43252 -0.951645 0
M  V30 2069 O 201.99 -5.19364 -1.70068 0
M  V30 2070 H 199.084 -0.774147 -0.290906 0
M  V30 2071 H 201.63 -1.68942 0.160211 0
M  V30 2072 H 200.402 -3.91282 0.0373647 0
M  V30 2073 H 200.025 -3.61661 -1.65188 0
M  V30 2074 N 201.022 0.148545 -1.56898 0
M  V30 2075 C 201.972 1.1886 -1.94567 0
M  V30 2076 C 202.956 1.3863 -0.816735 0
M  V30 2077 O 204.148 1.40218 -1.08018 0
M  V30 2078 C 201.277 2.52262 -2.32849 0
M  V30 2079 C 200.363 2.36092 -3.52309 0
M  V30 2080 N 200.754 1.89674 -4.6889 0
M  V30 2081 C 199.052 2.66848 -3.57363 0
M  V30 2082 C 199.753 1.86511 -5.50989 0
M  V30 2083 N 198.729 2.29766 -4.92655 0
M  V30 2084 H 202.531 0.821793 -2.82177 0
M  V30 2085 H 200.045 0.356615 -1.58436 0
M  V30 2086 H 202.042 3.27447 -2.58039 0
M  V30 2087 H 200.702 2.89727 -1.46589 0
M  V30 2088 H 201.713 1.59663 -4.92674 0
M  V30 2089 H 198.39 3.08198 -2.81639 0
M  V30 2090 H 199.78 1.52128 -6.54452 0
M  V30 2091 N 202.5 1.5196 0.417844 0
M  V30 2092 C 203.746 1.65836 1.16732 0
M  V30 2093 C 204.079 0.382881 1.90388 0
M  V30 2094 O 203.354 -0.618368 1.84408 0
M  V30 2095 C 203.637 2.87466 2.16876 0
M  V30 2096 C 203.49 4.25041 1.47174 0
M  V30 2097 C 204.809 3.04613 3.17646 0
M  V30 2098 H 201.928 0.603515 0.423011 0
M  V30 2099 H 204.57 1.84494 0.454105 0
M  V30 2100 H 202.72 2.71689 2.777 0
M  V30 2101 H 204.392 4.52527 0.895376 0
M  V30 2102 H 202.635 4.26843 0.773806 0
M  V30 2103 H 203.306 5.06176 2.20204 0
M  V30 2104 H 205.782 3.1923 2.66892 0
M  V30 2105 H 204.658 3.91247 3.8499 0
M  V30 2106 H 204.919 2.17541 3.84874 0
M  V30 2107 N 203.978 -0.674533 1.42435 0
M  V30 2108 C 204.926 -1.80934 1.46169 0
M  V30 2109 C 205.92 -1.66006 0.3374 0
M  V30 2110 O 207.126 -1.72611 0.510425 0
M  V30 2111 H 203.501 -0.596594 0.457798 0
M  V30 2112 H 205.472 -1.74903 2.41767 0
M  V30 2113 C 204.221 -3.19088 1.38123 0
M  V30 2114 H 203.544 -3.31203 2.23931 0
M  V30 2115 H 204.984 -3.9851 1.44797 0
M  V30 2116 C 203.443 -3.36763 0.0960517 0
M  V30 2117 O 203.973 -3.92581 -0.851073 0
M  V30 2118 N 202.179 -2.90597 0.0131186 0
M  V30 2119 H 201.726 -2.45359 0.784639 0
M  V30 2120 H 201.684 -3.028 -0.846133 0
M  V30 2121 N 205.456 -1.28612 -0.910864 0
M  V30 2122 C 206.403 -1.12786 -2.01365 0
M  V30 2123 C 207.373 -0.024201 -1.66082 0
M  V30 2124 O 208.558 -0.189667 -1.89855 0
M  V30 2125 C 205.698 -0.798743 -3.35729 0
M  V30 2126 C 204.811 -1.98173 -3.83864 0
M  V30 2127 C 203.946 -1.59298 -5.06752 0
M  V30 2128 C 202.985 -2.74245 -5.47226 0
M  V30 2129 N 202.122 -2.35842 -6.61304 0
M  V30 2130 H 206.962 -2.07142 -2.14234 0
M  V30 2131 H 204.499 -1.03093 -1.0493 0
M  V30 2132 H 206.457 -0.588662 -4.13026 0
M  V30 2133 H 205.087 0.10789 -3.2262 0
M  V30 2134 H 204.139 -2.30386 -3.02699 0
M  V30 2135 H 205.451 -2.84343 -4.09818 0
M  V30 2136 H 204.605 -1.34513 -5.916 0
M  V30 2137 H 203.344 -0.702618 -4.82612 0
M  V30 2138 H 202.349 -2.99725 -4.60918 0
M  V30 2139 H 203.574 -3.63928 -5.73353 0
M  V30 2140 H 201.52 -1.49279 -6.38789 0
M  V30 2141 H 201.437 -3.15546 -6.86998 0
M  V30 2142 H 202.705 -2.14348 -7.4945 0
M  V30 2143 N 206.934 1.1197 -1.10907 0
M  V30 2144 C 208.174 1.85224 -0.864378 0
M  V30 2145 C 208.538 1.82411 0.599178 0
M  V30 2146 O 209.739 2.51057 0.960416 0
M  V30 2147 C 208.01 3.2868 -1.40371 0
M  V30 2148 S 209.569 4.1925 -1.29518 0
M  V30 2149 H 206.387 0.63878 -0.312219 0
M  V30 2150 H 208.989 1.3485 -1.41548 0
M  V30 2151 H 207.693 3.28289 -2.46281 0
M  V30 2152 H 207.224 3.84121 -0.849402 0
M  V30 2153 H 209.239 4.95539 -0.256059 0
M  V30 2154 N 208.412 0.89855 1.29475 0
M  V30 2155 C 209.344 0.332726 2.26772 0
M  V30 2156 C 210.357 -0.520323 1.54261 0
M  V30 2157 O 211.546 -0.337668 1.75277 0
M  V30 2158 C 208.646 -0.544334 3.345 0
M  V30 2159 C 207.819 0.282728 4.36485 0
M  V30 2160 C 206.878 -0.526982 5.23555 0
M  V30 2161 O 205.904 0.0551165 5.69173 0
M  V30 2162 N 207.106 -1.83331 5.5079 0
M  V30 2163 H 209.871 1.16897 2.75962 0
M  V30 2164 H 207.432 0.762919 1.42798 0
M  V30 2165 H 209.424 -1.09239 3.89678 0
M  V30 2166 H 207.994 -1.28127 2.85136 0
M  V30 2167 H 207.214 1.01221 3.80983 0
M  V30 2168 H 208.502 0.84918 5.01664 0
M  V30 2169 H 207.9 -2.32898 5.15534 0
M  V30 2170 H 206.457 -2.32852 6.08788 0
M  V30 2171 N 209.89 -1.43072 0.660911 0
M  V30 2172 C 211.115 -2.06584 0.183805 0
M  V30 2173 C 211.54 -1.49257 -1.14472 0
M  V30 2174 O 210.898 -0.605528 -1.70889 0
M  V30 2175 C 210.946 -3.60418 0.114434 0
M  V30 2176 O 210.05 -4.01981 -0.921137 0
M  V30 2177 H 209.391 -0.656669 0.0983994 0
M  V30 2178 H 211.921 -1.83447 0.906006 0
M  V30 2179 H 211.931 -4.07946 -0.0663394 0
M  V30 2180 H 210.606 -4.01519 1.08422 0
M  V30 2181 H 209.183 -3.66029 -0.71253 0
M  V30 2182 N 211.368 -0.403325 -1.52352 0
M  V30 2183 C 212.596 0.174012 -2.06167 0
M  V30 2184 C 213.011 1.39347 -1.27388 0
M  V30 2185 O 212.368 1.79597 -0.324201 0
M  V30 2186 C 212.419 0.530223 -3.5759 0
M  V30 2187 O 212.14 -0.640806 -4.33388 0
M  V30 2188 C 213.641 1.16192 -4.27802 0
M  V30 2189 H 210.861 0.0229464 -0.670608 0
M  V30 2190 H 213.405 -0.572604 -1.9632 0
M  V30 2191 H 211.56 1.22673 -3.67464 0
M  V30 2192 H 211.974 -0.344851 -5.23365 0
M  V30 2193 H 213.448 1.36141 -5.34948 0
M  V30 2194 H 213.925 2.13335 -3.83907 0
M  V30 2195 H 214.531 0.505775 -4.22282 0
M  V30 2196 N 212.846 1.57033 -0.133567 0
M  V30 2197 C 213.794 2.17348 0.828412 0
M  V30 2198 C 214.788 1.12671 1.26498 0
M  V30 2199 O 215.994 1.30947 1.23502 0
M  V30 2200 H 212.369 0.695775 0.285309 0
M  V30 2201 H 214.34 2.96935 0.295372 0
M  V30 2202 C 213.089 2.79893 2.06289 0
M  V30 2203 H 212.412 3.60147 1.73592 0
M  V30 2204 H 213.852 3.25615 2.71572 0
M  V30 2205 C 212.311 1.77713 2.86216 0
M  V30 2206 O 212.841 1.23937 3.82103 0
M  V30 2207 N 211.047 1.47321 2.50489 0
M  V30 2208 H 210.594 1.91243 1.7258 0
M  V30 2209 H 210.552 0.79199 3.04261 0
M  V30 2210 N 214.325 -0.140222 1.56975 0
M  V30 2211 C 215.602 -0.880769 1.74648 0
M  V30 2212 C 215.982 -1.99036 0.703404 0
M  V30 2213 O 215.33 -2.26821 -0.27648 0
M  V30 2214 C 215.54 -1.417 3.18939 0
M  V30 2215 C 216.888 -1.87774 3.80823 0
M  V30 2216 O 217.912 -1.51427 3.2241 0
M  V30 2217 O 216.771 -2.54827 4.83452 0
M  V30 2218 H 213.865 -0.416713 0.714338 0
M  V30 2219 H 216.411 -0.125618 1.69234 0
M  V30 2220 H 215.183 -0.619902 3.86359 0
M  V30 2221 H 214.806 -2.23546 3.28805 0
M  V30 2222 N 215.803 -1.52179 -0.40978 0
M  V30 2223 C 216.766 -1.74853 -1.48186 0
M  V30 2224 C 217.766 -0.618417 -1.48433 0
M  V30 2225 O 218.956 -0.886286 -1.49969 0
M  V30 2226 C 216.088 -1.8303 -2.87598 0
M  V30 2227 H 217.281 -2.70559 -1.29374 0
M  V30 2228 H 214.834 -1.42586 -0.640233 0
M  V30 2229 H 215.569 -0.89236 -3.11781 0
M  V30 2230 H 215.354 -2.65187 -2.88822 0
M  V30 2231 H 216.844 -2.02316 -3.65319 0
M  V30 2232 N 217.281 0.66697 -1.42791 0
M  V30 2233 C 218.511 1.45294 -1.46878 0
M  V30 2234 C 218.919 1.89027 -0.0809861 0
M  V30 2235 O 218.262 1.59219 0.916246 0
M  V30 2236 C 218.324 2.72908 -2.34012 0
M  V30 2237 C 217.988 2.51203 -3.81767 0
M  V30 2238 C 218.985 2.15302 -4.73224 0
M  V30 2239 C 216.67 2.65954 -4.26115 0
M  V30 2240 C 218.664 1.94431 -6.07022 0
M  V30 2241 C 216.351 2.44699 -5.59969 0
M  V30 2242 C 217.349 2.08992 -6.5024 0
M  V30 2243 O 217.037 1.87948 -7.81621 0
M  V30 2244 H 216.769 0.453306 -0.501487 0
M  V30 2245 H 219.323 0.826232 -1.88049 0
M  V30 2246 H 217.553 3.38089 -1.87703 0
M  V30 2247 H 219.242 3.34816 -2.29462 0
M  V30 2248 H 220.008 2.03495 -4.40244 0
M  V30 2249 H 215.887 2.92724 -3.56137 0
M  V30 2250 H 219.431 1.66484 -6.77443 0
M  V30 2251 H 215.328 2.56105 -5.9252 0
M  V30 2252 H 216.096 2.02483 -7.93059 0
M  V30 2253 N 218.759 1.29093 0.90403 0
M  V30 2254 C 220.17 1.15186 1.46932 0
M  V30 2255 C 220.521 -0.254587 1.94541 0
M  V30 2256 O 219.646 -1.14972 1.83332 0
M  V30 2257 C 220.241 2.08492 2.67051 0
M  V30 2258 C 218.8 1.98621 3.19729 0
M  V30 2259 C 217.947 1.9967 1.92425 0
M  V30 2260 H 220.898 1.41641 0.715789 0
M  V30 2261 H 220.919 1.65461 3.42641 0
M  V30 2262 H 220.431 3.10847 2.3237 0
M  V30 2263 H 218.532 0.993389 3.59114 0
M  V30 2264 H 218.645 2.86068 3.8432 0
M  V30 2265 H 217.009 1.44208 2.09943 0
M  V30 2266 H 217.792 3.03721 1.60026 0
M  V30 2267 N 220.237 -1.11381 1.11499 0
M  V30 2268 C 221.465 -1.86934 0.88675 0
M  V30 2269 C 221.88 -1.80195 -0.563476 0
M  V30 2270 O 221.237 -1.18367 -1.38908 0
M  V30 2271 C 221.288 -3.35722 1.34064 0
M  V30 2272 O 221.009 -3.4232 2.73401 0
M  V30 2273 C 222.51 -4.2818 1.14791 0
M  V30 2274 H 219.73 -0.591117 0.317523 0
M  V30 2275 H 222.274 -1.40865 1.48248 0
M  V30 2276 H 220.429 -3.79294 0.788355 0
M  V30 2277 H 220.843 -4.34971 2.93087 0
M  V30 2278 H 222.317 -5.30817 1.5145 0
M  V30 2279 H 222.794 -4.39113 0.0875279 0
M  V30 2280 H 223.4 -3.90402 1.68721 0
M  V30 2281 N 221.715 -0.905404 -1.28997 0
M  V30 2282 C 222.963 -0.533192 -1.9494 0
M  V30 2283 C 223.284 0.924618 -1.71685 0
M  V30 2284 O 222.554 1.65268 -1.05183 0
M  V30 2285 H 221.134 -0.194194 -0.721317 0
M  V30 2286 H 223.796 -1.15294 -1.57141 0
M  V30 2287 H 222.892 -0.72059 -3.03667 0
M  V30 2288 N 223.193 1.4272 -0.668489 0
M  V30 2289 C 224.44 2.01624 -0.18814 0
M  V30 2290 C 224.768 1.5282 1.20317 0
M  V30 2291 O 224.023 0.718323 1.8204 0
M  V30 2292 C 224.322 3.57021 -0.164499 0
M  V30 2293 C 223.988 4.25232 -1.49962 0
M  V30 2294 C 222.65 4.4358 -1.8652 0
M  V30 2295 C 225.002 4.63727 -2.37921 0
M  V30 2296 C 222.33 4.97694 -3.10674 0
M  V30 2297 C 224.682 5.19218 -3.6138 0
M  V30 2298 C 223.346 5.3578 -3.98115 0
M  V30 2299 H 222.616 0.737795 -0.0688454 0
M  V30 2300 H 225.263 1.70991 -0.862225 0
M  V30 2301 H 223.568 3.87285 0.593079 0
M  V30 2302 H 225.265 4.00372 0.224271 0
M  V30 2303 H 221.855 4.11306 -1.20522 0
M  V30 2304 H 226.039 4.4923 -2.10964 0
M  V30 2305 H 221.295 5.08702 -3.39164 0
M  V30 2306 H 225.469 5.4799 -4.29743 0
M  V30 2307 H 223.096 5.77475 -4.94395 0
M  V30 2308 N 224.671 0.411399 1.52136 0
M  V30 2309 C 226.087 0.0623865 1.59478 0
M  V30 2310 C 226.287 -1.42554 1.4241 0
M  V30 2311 O 225.343 -2.19263 1.2522 0
M  V30 2312 C 226.656 0.559331 2.95452 0
M  V30 2313 C 228.204 0.517503 3.08692 0
M  V30 2314 C 228.679 0.990994 4.4715 0
M  V30 2315 N 230.17 0.947908 4.53397 0
M  V30 2316 C 230.905 1.28544 5.58806 0
M  V30 2317 N 230.401 1.69454 6.71757 0
M  V30 2318 N 232.194 1.20526 5.49026 0
M  V30 2319 H 224.345 1.37982 1.61477 0
M  V30 2320 H 226.608 0.566977 0.759764 0
M  V30 2321 H 226.314 1.59938 3.1323 0
M  V30 2322 H 226.188 -0.0298014 3.77188 0
M  V30 2323 H 228.575 -0.513505 2.90598 0
M  V30 2324 H 228.656 1.14272 2.28857 0
M  V30 2325 H 228.3 2.02034 4.65988 0
M  V30 2326 H 228.23 0.34257 5.25485 0
M  V30 2327 H 230.721 0.647157 3.72317 0
M  V30 2328 H 231.034 1.93513 7.48179 0
M  V30 2329 H 229.379 1.73359 6.73032 0
M  V30 2330 H 232.57 0.884505 4.59667 0
M  V30 2331 H 232.743 1.47161 6.31069 0
M  V30 2332 N 226.149 -1.5696 0.141893 0
M  V30 2333 C 227.398 -1.95135 -0.510427 0
M  V30 2334 C 227.711 -1.02896 -1.66348 0
M  V30 2335 O 228.917 -1.30629 -2.38009 0
M  V30 2336 C 227.373 -3.46876 -0.959427 0
M  V30 2337 C 226.981 -4.47691 0.166419 0
M  V30 2338 C 228.725 -3.93927 -1.58183 0
M  V30 2339 C 226.632 -5.90636 -0.300565 0
M  V30 2340 H 225.562 -0.728494 -0.194454 0
M  V30 2341 H 228.213 -1.8211 0.22542 0
M  V30 2342 H 226.595 -3.55215 -1.75038 0
M  V30 2343 H 227.769 -4.51043 0.94325 0
M  V30 2344 H 226.084 -4.10527 0.696905 0
M  V30 2345 H 228.681 -4.98158 -1.94275 0
M  V30 2346 H 229.024 -3.3519 -2.46888 0
M  V30 2347 H 229.557 -3.88484 -0.855863 0
M  V30 2348 H 226.296 -6.5318 0.550989 0
M  V30 2349 H 225.816 -5.90655 -1.04338 0
M  V30 2350 H 227.495 -6.42588 -0.754265 0
M  V30 2351 N 227.627 0.131896 -1.57047 0
M  V30 2352 C 228.59 1.14638 -1.98471 0
M  V30 2353 C 229.59 1.35029 -0.873148 0
M  V30 2354 O 230.78 1.31764 -1.13946 0
M  V30 2355 C 227.912 2.50358 -2.31373 0
M  V30 2356 H 229.105 0.79064 -2.8929 0
M  V30 2357 H 226.658 0.375761 -1.51716 0
M  V30 2358 H 227.393 2.90876 -1.43393 0
M  V30 2359 H 227.178 2.36915 -3.12432 0
M  V30 2360 H 228.668 3.23395 -2.64207 0
M  V30 2361 N 229.106 1.52395 0.401703 0
M  V30 2362 C 230.352 1.67065 1.14966 0
M  V30 2363 C 230.685 0.403052 1.89971 0
M  V30 2364 O 229.96 -0.598774 1.85054 0
M  V30 2365 C 230.243 2.8975 2.13815 0
M  V30 2366 C 230.096 4.26578 1.42658 0
M  V30 2367 C 231.415 3.07965 3.14397 0
M  V30 2368 H 228.534 0.607968 0.416587 0
M  V30 2369 H 231.176 1.84965 0.434511 0
M  V30 2370 H 229.326 2.74619 2.74803 0
M  V30 2371 H 230.998 4.53451 0.847329 0
M  V30 2372 H 229.241 4.27639 0.72849 0
M  V30 2373 H 229.912 5.08483 2.14823 0
M  V30 2374 H 232.388 3.22043 2.63491 0
M  V30 2375 H 231.264 3.95308 3.80819 0
M  V30 2376 H 231.525 2.21611 3.82545 0
M  V30 2377 N 230.584 -0.659388 1.43143 0
M  V30 2378 C 231.814 -1.44513 1.47646 0
M  V30 2379 C 232.222 -1.88981 0.0910095 0
M  V30 2380 O 231.565 -1.59702 -0.907789 0
M  V30 2381 C 231.627 -2.71663 2.35456 0
M  V30 2382 C 231.291 -2.49175 3.83094 0
M  V30 2383 C 232.288 -2.1279 4.74359 0
M  V30 2384 C 229.973 -2.63691 4.27519 0
M  V30 2385 C 231.967 -1.9121 6.08044 0
M  V30 2386 C 229.654 -2.41726 5.61259 0
M  V30 2387 C 230.652 -2.0554 6.51339 0
M  V30 2388 O 230.34 -1.838 7.82606 0
M  V30 2389 H 230.072 -0.45064 0.503884 0
M  V30 2390 H 232.626 -0.816248 1.88485 0
M  V30 2391 H 230.856 -3.37089 1.89493 0
M  V30 2392 H 232.545 -3.33595 2.31235 0
M  V30 2393 H 233.311 -2.01157 4.41317 0
M  V30 2394 H 229.19 -2.90832 3.57684 0
M  V30 2395 H 232.734 -1.62889 6.78316 0
M  V30 2396 H 228.631 -2.52959 5.9387 0
M  V30 2397 H 229.399 -1.98275 7.94122 0
M  V30 2398 N 232.062 -1.29571 -0.897171 0
M  V30 2399 C 233.287 -1.20705 -1.68656 0
M  V30 2400 C 233.712 0.228582 -1.86706 0
M  V30 2401 O 233.07 1.16494 -1.3892 0
M  V30 2402 C 233.118 -1.9282 -3.04717 0
M  V30 2403 O 232.222 -1.24697 -3.93096 0
M  V30 2404 H 231.563 -0.418126 -0.515816 0
M  V30 2405 H 234.093 -1.71183 -1.12061 0
M  V30 2406 H 234.103 -2.01372 -3.54843 0
M  V30 2407 H 232.778 -2.97239 -2.90899 0
M  V30 2408 H 231.355 -1.2442 -3.51531 0
M  V30 2409 N 233.54 1.10788 -1.12088 0
M  V30 2410 C 234.765 1.87002 -0.896949 0
M  V30 2411 C 235.19 1.79933 0.548261 0
M  V30 2412 O 234.548 1.16662 1.38779 0
M  V30 2413 C 234.596 3.3349 -1.37174 0
M  V30 2414 O 233.7 4.08745 -0.547831 0
M  V30 2415 H 233.041 0.580397 -0.322545 0
M  V30 2416 H 235.571 1.39996 -1.49206 0
M  V30 2417 H 235.581 3.84339 -1.36922 0
M  V30 2418 H 234.256 3.37951 -2.42408 0
M  V30 2419 H 232.833 3.6776 -0.617034 0
M  V30 2420 N 235.018 0.912232 1.28515 0
M  V30 2421 C 235.948 0.416403 2.29757 0
M  V30 2422 C 236.929 -0.515194 1.6211 0
M  V30 2423 O 238.114 -0.423253 1.89532 0
M  V30 2424 C 235.244 -0.34572 3.45575 0
M  V30 2425 C 234.198 0.496599 4.25109 0
M  V30 2426 C 233.524 -0.393771 5.33248 0
M  V30 2427 C 234.824 1.75307 4.92001 0
M  V30 2428 H 236.518 1.26249 2.7148 0
M  V30 2429 H 234.064 0.608515 1.30511 0
M  V30 2430 H 236.017 -0.703422 4.15488 0
M  V30 2431 H 234.741 -1.2257 3.02728 0
M  V30 2432 H 233.4 0.8368 3.56922 0
M  V30 2433 H 233.048 -1.27225 4.86644 0
M  V30 2434 H 232.748 0.166209 5.87365 0
M  V30 2435 H 234.272 -0.747389 6.06009 0
M  V30 2436 H 235.686 1.46437 5.54283 0
M  V30 2437 H 234.083 2.25534 5.56106 0
M  V30 2438 H 235.153 2.48176 4.16577 0
M  V30 2439 N 236.496 -1.42363 0.676048 0
M  V30 2440 C 237.745 -2.00745 0.196037 0
M  V30 2441 C 238.058 -1.54083 -1.20489 0
M  V30 2442 O 239.264 -2.04891 -1.78134 0
M  V30 2443 C 237.72 -3.58651 0.299616 0
M  V30 2444 C 237.328 -4.143 1.70468 0
M  V30 2445 C 239.072 -4.24326 -0.121619 0
M  V30 2446 C 236.979 -5.64574 1.76096 0
M  V30 2447 H 235.909 -0.750787 0.0695301 0
M  V30 2448 H 238.56 -1.63072 0.841412 0
M  V30 2449 H 236.942 -3.93833 -0.413673 0
M  V30 2450 H 238.116 -3.90575 2.44515 0
M  V30 2451 H 236.431 -3.61081 2.07387 0
M  V30 2452 H 239.028 -5.34607 -0.0997362 0
M  V30 2453 H 239.371 -3.99897 -1.15708 0
M  V30 2454 H 239.904 -3.94108 0.540706 0
M  V30 2455 H 236.643 -5.93804 2.77628 0
M  V30 2456 H 236.163 -5.90286 1.06406 0
M  V30 2457 H 237.842 -6.29013 1.51496 0
M  V30 2458 N 237.974 -0.419461 -1.51915 0
M  V30 2459 C 238.921 0.400927 -2.27291 0
M  V30 2460 C 239.891 1.03224 -1.30131 0
M  V30 2461 O 241.076 1.05455 -1.59009 0
M  V30 2462 C 238.216 1.50603 -3.10504 0
M  V30 2463 C 237.329 0.89462 -4.22635 0
M  V30 2464 C 236.464 1.97328 -4.93189 0
M  V30 2465 C 235.503 1.33935 -5.97267 0
M  V30 2466 N 234.64 2.3586 -6.61298 0
M  V30 2467 H 239.48 -0.248251 -2.96964 0
M  V30 2468 H 237.017 -0.134266 -1.46486 0
M  V30 2469 H 238.975 2.15783 -3.57062 0
M  V30 2470 H 237.605 2.12509 -2.42981 0
M  V30 2471 H 236.657 0.131583 -3.80172 0
M  V30 2472 H 237.969 0.391641 -4.9726 0
M  V30 2473 H 237.123 2.70211 -5.43204 0
M  V30 2474 H 235.862 2.50994 -4.18155 0
M  V30 2475 H 234.867 0.595896 -5.46561 0
M  V30 2476 H 236.092 0.810252 -6.74249 0
M  V30 2477 H 234.038 2.88639 -5.89087 0
M  V30 2478 H 233.955 1.90403 -7.3163 0
M  V30 2479 H 235.223 3.08282 -7.15949 0
M  V30 2480 N 239.452 1.56882 -0.150215 0
M  V30 2481 C 240.382 2.19935 0.784284 0
M  V30 2482 C 241.363 1.14854 1.25469 0
M  V30 2483 O 242.548 1.43209 1.31168 0
M  V30 2484 C 239.678 2.82349 2.02229 0
M  V30 2485 C 238.632 3.93285 1.68853 0
M  V30 2486 C 237.958 4.42649 2.99944 0
M  V30 2487 C 239.258 5.13904 0.932714 0
M  V30 2488 H 240.952 2.9828 0.258781 0
M  V30 2489 H 238.498 1.43473 0.123029 0
M  V30 2490 H 240.451 3.25126 2.68088 0
M  V30 2491 H 239.175 2.0134 2.57157 0
M  V30 2492 H 237.834 3.5113 1.05371 0
M  V30 2493 H 237.482 3.58458 3.52869 0
M  V30 2494 H 237.182 5.17476 2.78374 0
M  V30 2495 H 238.706 4.88099 3.66868 0
M  V30 2496 H 240.12 5.53506 1.49345 0
M  V30 2497 H 238.517 5.94515 0.81684 0
M  V30 2498 H 239.587 4.84842 -0.0749568 0
M  V30 2499 N 240.93 -0.123565 1.57115 0
M  V30 2500 C 242.176 -0.833386 1.84885 0
M  V30 2501 C 242.509 -1.79742 0.735292 0
M  V30 2502 O 241.784 -1.92764 -0.25925 0
M  V30 2503 C 242.067 -1.5873 3.23228 0
M  V30 2504 C 241.92 -0.643183 4.45178 0
M  V30 2505 C 243.239 -2.54453 3.59085 0
M  V30 2506 H 240.358 -0.301518 0.6725 0
M  V30 2507 H 243 -0.097778 1.89748 0
M  V30 2508 H 241.15 -2.21438 3.19214 0
M  V30 2509 H 242.822 -0.0253015 4.61293 0
M  V30 2510 H 241.065 0.0456139 4.33776 0
M  V30 2511 H 241.736 -1.20724 5.38637 0
M  V30 2512 H 244.212 -2.01853 3.63861 0
M  V30 2513 H 243.088 -3.04238 4.5687 0
M  V30 2514 H 243.349 -3.36906 2.86264 0
M  V30 2515 N 242.408 -1.52605 -0.393616 0
M  V30 2516 C 243.685 -1.58001 -1.15304 0
M  V30 2517 C 244.065 -0.370385 -2.07825 0
M  V30 2518 O 243.413 0.641638 -2.19306 0
M  V30 2519 C 243.623 -2.91652 -1.91677 0
M  V30 2520 C 244.971 -3.4522 -2.47201 0
M  V30 2521 O 245.995 -2.93495 -2.01839 0
M  V30 2522 O 244.854 -4.35579 -3.3005 0
M  V30 2523 H 241.948 -0.637068 -0.527327 0
M  V30 2524 H 244.494 -1.64939 -0.399141 0
M  V30 2525 H 243.266 -3.71136 -1.23992 0
M  V30 2526 H 242.889 -2.88077 -2.74039 0
M  V30 2527 N 243.887 0.651787 -1.4349 0
M  V30 2528 C 244.85 1.74647 -1.48429 0
M  V30 2529 C 245.85 1.56513 -0.368817 0
M  V30 2530 O 247.04 1.62385 -0.630623 0
M  V30 2531 C 244.172 3.13533 -1.33827 0
M  V30 2532 H 245.365 1.71649 -2.4592 0
M  V30 2533 H 242.918 0.863573 -1.30277 0
M  V30 2534 H 243.653 3.22142 -0.37349 0
M  V30 2535 H 243.438 3.28101 -2.14691 0
M  V30 2536 H 244.928 3.93356 -1.40218 0
M  V30 2537 N 245.365 1.30045 0.890287 0
M  V30 2538 C 246.614 1.17929 1.63633 0
M  V30 2539 C 246.927 -0.266204 1.9378 0
M  V30 2540 O 248.133 -0.508804 2.6669 0
M  V30 2541 C 246.589 2.06317 2.94892 0
M  V30 2542 C 246.197 3.55745 2.72305 0
M  V30 2543 C 247.941 2.0295 3.72843 0
M  V30 2544 C 245.848 4.36205 3.99348 0
M  V30 2545 H 244.778 0.437782 0.613892 0
M  V30 2546 H 247.429 1.54754 0.986075 0
M  V30 2547 H 245.811 1.6237 3.61182 0
M  V30 2548 H 246.985 4.07805 2.1455 0
M  V30 2549 H 245.3 3.6088 2.07737 0
M  V30 2550 H 247.897 2.60319 4.67053 0
M  V30 2551 H 248.24 1.0117 4.0382 0
M  V30 2552 H 248.773 2.4499 3.13408 0
M  V30 2553 H 245.512 5.38659 3.73533 0
M  V30 2554 H 245.032 3.8891 4.56628 0
M  V30 2555 H 246.711 4.47362 4.67415 0
M  V30 2556 N 246.843 -1.10192 1.12674 0
M  V30 2557 C 247.791 -2.18694 0.792196 0
M  V30 2558 C 248.785 -1.67938 -0.222058 0
M  V30 2559 O 249.991 -1.79822 -0.0800074 0
M  V30 2560 H 246.366 -0.713223 0.238364 0
M  V30 2561 H 248.337 -2.44149 1.71564 0
M  V30 2562 C 247.086 -3.46682 0.265859 0
M  V30 2563 H 246.409 -3.86101 1.03761 0
M  V30 2564 H 247.849 -4.23942 0.0701128 0
M  V30 2565 C 246.308 -3.21506 -1.00675 0
M  V30 2566 O 246.838 -3.43408 -2.08408 0
M  V30 2567 N 245.044 -2.75158 -0.934692 0
M  V30 2568 H 244.591 -2.57535 -0.0578604 0
M  V30 2569 H 244.549 -2.58691 -1.7868 0
M  V30 2570 N 248.321 -0.919034 -1.28029 0
M  V30 2571 C 249.253 -0.368762 -2.26214 0
M  V30 2572 C 250.266 0.495716 -1.55069 0
M  V30 2573 O 251.455 0.30974 -1.75792 0
M  V30 2574 C 248.555 0.491049 -3.35324 0
M  V30 2575 C 247.728 -0.352133 -4.3598 0
M  V30 2576 C 246.787 0.443622 -5.24327 0
M  V30 2577 O 245.813 -0.14566 -5.69014 0
M  V30 2578 N 247.015 1.74545 -5.53637 0
M  V30 2579 H 249.78 -1.21273 -2.74068 0
M  V30 2580 H 247.341 -0.785541 -1.41566 0
M  V30 2581 H 249.333 1.03026 -3.91366 0
M  V30 2582 H 247.903 1.23574 -2.87138 0
M  V30 2583 H 247.123 -1.07269 -3.79324 0
M  V30 2584 H 248.411 -0.928883 -5.00249 0
M  V30 2585 H 247.809 2.24666 -5.19174 0
M  V30 2586 H 246.366 2.23138 -6.12416 0
M  V30 2587 N 249.799 1.42003 -0.683588 0
M  V30 2588 C 250.729 2.33487 -0.024866 0
M  V30 2589 C 251.71 1.51163 0.779975 0
M  V30 2590 O 252.895 1.79739 0.735362 0
M  V30 2591 C 250.025 3.3487 0.920836 0
M  V30 2592 C 248.979 4.27414 0.223958 0
M  V30 2593 C 248.305 5.19074 1.2832 0
M  V30 2594 C 249.605 5.14445 -0.90242 0
M  V30 2595 H 251.299 2.88819 -0.788921 0
M  V30 2596 H 248.845 1.38873 -0.38083 0
M  V30 2597 H 250.798 3.97787 1.39081 0
M  V30 2598 H 249.522 2.77861 1.71642 0
M  V30 2599 H 248.181 3.65904 -0.225864 0
M  V30 2600 H 247.829 4.58387 2.071 0
M  V30 2601 H 247.529 5.81822 0.821995 0
M  V30 2602 H 249.053 5.84867 1.75392 0
M  V30 2603 H 250.467 5.70998 -0.513272 0
M  V30 2604 H 248.864 5.86072 -1.28997 0
M  V30 2605 H 249.934 4.52322 -1.74737 0
M  V30 2606 N 251.277 0.427512 1.51691 0
M  V30 2607 C 252.693 0.0792977 1.59403 0
M  V30 2608 C 252.893 -1.41035 1.43914 0
M  V30 2609 O 251.949 -2.17922 1.27539 0
M  V30 2610 C 253.262 0.590636 2.94842 0
M  V30 2611 C 254.81 0.550215 3.08126 0
M  V30 2612 C 255.285 1.03836 4.46074 0
M  V30 2613 N 256.776 0.995943 4.52366 0
M  V30 2614 C 257.511 1.34463 5.57411 0
M  V30 2615 N 257.007 1.76569 6.69922 0
M  V30 2616 N 258.8 1.26343 5.47717 0
M  V30 2617 H 250.951 1.39687 1.60004 0
M  V30 2618 H 253.214 0.575003 0.753708 0
M  V30 2619 H 252.92 1.63251 3.11516 0
M  V30 2620 H 252.794 0.0102061 3.77199 0
M  V30 2621 H 255.181 -0.482654 2.91126 0
M  V30 2622 H 255.262 1.16693 2.27632 0
M  V30 2623 H 254.906 2.06965 4.63819 0
M  V30 2624 H 254.836 0.398286 5.25092 0
M  V30 2625 H 257.327 0.68661 3.7161 0
M  V30 2626 H 257.64 2.01438 7.46085 0
M  V30 2627 H 255.985 1.80488 6.71155 0
M  V30 2628 H 259.176 0.933209 4.58703 0
M  V30 2629 H 259.349 1.53846 6.29472 0
M  V30 2630 N 252.755 -1.56801 0.158532 0
M  V30 2631 C 253.665 -2.20916 -0.789518 0
M  V30 2632 C 254.681 -1.1969 -1.26294 0
M  V30 2633 O 255.857 -1.52308 -1.31773 0
M  V30 2634 C 252.922 -2.82727 -2.00665 0
M  V30 2635 C 251.983 -3.99114 -1.58134 0
M  V30 2636 C 251.216 -4.57968 -2.74045 0
M  V30 2637 O 251.439 -4.15704 -3.90572 0
M  V30 2638 O 250.373 -5.48047 -2.48855 0
M  V30 2639 H 254.199 -3.02464 -0.273681 0
M  V30 2640 H 251.784 -1.4924 -0.0690548 0
M  V30 2641 H 253.666 -3.21968 -2.71872 0
M  V30 2642 H 252.341 -2.04184 -2.51179 0
M  V30 2643 H 251.248 -3.64567 -0.839155 0
M  V30 2644 H 252.581 -4.79212 -1.12325 0
M  V30 2645 N 254.233 0.115231 -1.57178 0
M  V30 2646 C 255.481 0.820727 -1.84685 0
M  V30 2647 C 255.802 1.80237 -0.744279 0
M  V30 2648 O 255.072 1.94529 0.231375 0
M  V30 2649 H 253.652 0.306084 -0.681411 0
M  V30 2650 H 256.314 0.101656 -1.94635 0
M  V30 2651 H 255.41 1.36366 -2.80733 0
M  V30 2652 N 255.711 1.52812 0.385517 0
M  V30 2653 C 256.958 1.68026 1.1302 0
M  V30 2654 C 257.286 0.421934 1.89868 0
M  V30 2655 O 256.541 -0.595749 1.86412 0
M  V30 2656 C 256.84 2.86856 2.13187 0
M  V30 2657 C 256.506 4.24159 1.5297 0
M  V30 2658 C 255.168 4.61501 1.36274 0
M  V30 2659 C 257.52 5.09627 1.09223 0
M  V30 2660 C 254.848 5.81966 0.743837 0
M  V30 2661 C 257.2 6.30719 0.487411 0
M  V30 2662 C 255.864 6.6679 0.307777 0
M  V30 2663 H 255.134 0.614849 0.413571 0
M  V30 2664 H 257.781 1.86962 0.414405 0
M  V30 2665 H 256.086 2.6235 2.90998 0
M  V30 2666 H 257.783 2.95821 2.70722 0
M  V30 2667 H 254.373 3.94746 1.66954 0
M  V30 2668 H 258.557 4.81343 1.20922 0
M  V30 2669 H 253.813 6.08519 0.592891 0
M  V30 2670 H 257.987 6.96259 0.140143 0
M  V30 2671 H 255.614 7.60001 -0.173879 0
M  V30 2672 N 257.189 -0.644168 1.43834 0
M  V30 2673 C 258.099 -1.78563 1.52159 0
M  V30 2674 C 259.115 -1.69147 0.408069 0
M  V30 2675 O 260.291 -1.90156 0.663524 0
M  V30 2676 C 257.356 -3.14888 1.45073 0
M  V30 2677 C 256.417 -3.36034 2.6717 0
M  V30 2678 C 255.65 -4.65855 2.60413 0
M  V30 2679 O 255.873 -5.45805 1.65689 0
M  V30 2680 O 254.807 -4.88918 3.5106 0
M  V30 2681 H 258.633 -1.74494 2.48567 0
M  V30 2682 H 256.218 -0.80378 1.25935 0
M  V30 2683 H 258.1 -3.96179 1.43597 0
M  V30 2684 H 256.775 -3.19528 0.518037 0
M  V30 2685 H 255.682 -2.54472 2.74217 0
M  V30 2686 H 257.015 -3.36247 3.59442 0
M  V30 2687 N 258.668 -1.30515 -0.883378 0
M  V30 2688 C 260.084 -1.08881 -1.16692 0
M  V30 2689 C 260.284 0.149409 -2.00945 0
M  V30 2690 O 259.34 0.84257 -2.38027 0
M  V30 2691 C 260.653 -2.35319 -1.87204 0
M  V30 2692 C 262.201 -2.40799 -1.99962 0
M  V30 2693 C 262.676 -3.67083 -2.73887 0
M  V30 2694 N 264.167 -3.679 -2.81432 0
M  V30 2695 C 264.902 -4.62303 -3.3921 0
M  V30 2696 N 264.398 -5.67052 -3.98025 0
M  V30 2697 N 266.191 -4.49845 -3.3704 0
M  V30 2698 H 258.342 -2.09951 -0.321633 0
M  V30 2699 H 260.605 -0.92556 -0.205043 0
M  V30 2700 H 260.311 -3.25689 -1.3274 0
M  V30 2701 H 260.185 -2.44089 -2.87577 0
M  V30 2702 H 262.572 -1.50907 -2.53597 0
M  V30 2703 H 262.653 -2.36003 -0.98673 0
M  V30 2704 H 262.297 -4.57334 -2.20925 0
M  V30 2705 H 262.227 -3.69141 -3.75556 0
M  V30 2706 H 264.718 -2.92171 -2.39676 0
M  V30 2707 H 265.031 -6.35184 -4.40183 0
M  V30 2708 H 263.376 -5.70842 -3.96439 0
M  V30 2709 H 266.567 -3.67194 -2.90321 0
M  V30 2710 H 266.74 -5.23597 -3.81772 0
M  V30 2711 N 260.146 1.09593 -1.13257 0
M  V30 2712 C 261.093 2.1618 -0.808381 0
M  V30 2713 C 262.063 1.64517 0.228754 0
M  V30 2714 O 263.248 1.9053 0.101381 0
M  V30 2715 C 260.388 3.43973 -0.278675 0
M  V30 2716 C 259.501 4.09545 -1.37466 0
M  V30 2717 C 258.636 5.25088 -0.803479 0
M  V30 2718 C 257.675 5.82579 -1.87799 0
M  V30 2719 N 256.812 6.89486 -1.32488 0
M  V30 2720 H 261.652 2.43254 -1.72138 0
M  V30 2721 H 259.189 1.19392 -0.859294 0
M  V30 2722 H 261.147 4.17174 0.0465583 0
M  V30 2723 H 259.777 3.17223 0.597459 0
M  V30 2724 H 258.829 3.34226 -1.81652 0
M  V30 2725 H 260.141 4.48307 -2.18684 0
M  V30 2726 H 259.295 6.05178 -0.429427 0
M  V30 2727 H 258.034 4.87684 0.0397956 0
M  V30 2728 H 257.039 5.01152 -2.26113 0
M  V30 2729 H 258.264 6.22045 -2.72463 0
M  V30 2730 H 256.21 6.54064 -0.503575 0
M  V30 2731 H 256.127 7.27007 -2.07355 0
M  V30 2732 H 257.395 7.73336 -0.978336 0
M  V30 2733 N 261.624 0.925811 1.2754 0
M  V30 2734 C 262.587 0.428129 2.25166 0
M  V30 2735 C 263.587 -0.452261 1.54309 0
M  V30 2736 O 264.777 -0.253608 1.72344 0
M  V30 2737 C 261.909 -0.384749 3.38722 0
M  V30 2738 H 263.102 1.29066 2.70706 0
M  V30 2739 H 260.655 0.706323 1.3943 0
M  V30 2740 H 261.39 -1.26618 2.98561 0
M  V30 2741 H 261.175 0.246454 3.91325 0
M  V30 2742 H 262.665 -0.723389 4.11287 0
M  V30 2743 N 263.102 -1.41638 0.69111 0
M  V30 2744 C 264.348 -2.01598 0.220519 0
M  V30 2745 C 264.681 -1.54594 -1.17535 0
M  V30 2746 O 263.956 -0.755177 -1.79241 0
M  V30 2747 C 264.239 -3.59062 0.273243 0
M  V30 2748 C 264.092 -4.16203 1.70573 0
M  V30 2749 C 265.411 -4.38546 -0.369457 0
M  V30 2750 H 262.53 -0.732468 0.0816045 0
M  V30 2751 H 265.172 -1.68445 0.878986 0
M  V30 2752 H 263.322 -3.87435 -0.287411 0
M  V30 2753 H 264.994 -3.98722 2.31989 0
M  V30 2754 H 263.237 -3.71414 2.2413 0
M  V30 2755 H 263.908 -5.25358 1.69419 0
M  V30 2756 H 266.384 -4.1596 0.107977 0
M  V30 2757 H 265.26 -5.48069 -0.302002 0
M  V30 2758 H 265.521 -4.17662 -1.44951 0
M  V30 2759 N 264.58 -0.43555 -1.51462 0
M  V30 2760 C 265.49 0.383001 -2.31453 0
M  V30 2761 C 266.506 1.02931 -1.4029 0
M  V30 2762 O 267.682 1.02507 -1.73362 0
M  V30 2763 C 264.747 1.47043 -3.13973 0
M  V30 2764 C 263.808 0.844433 -4.20913 0
M  V30 2765 C 263.041 1.88004 -4.9949 0
M  V30 2766 O 263.264 3.10199 -4.78678 0
M  V30 2767 O 262.198 1.47157 -5.83634 0
M  V30 2768 H 266.024 -0.269964 -3.02498 0
M  V30 2769 H 263.609 -0.19813 -1.4808 0
M  V30 2770 H 265.491 2.10113 -3.65281 0
M  V30 2771 H 264.166 2.10751 -2.45695 0
M  V30 2772 H 263.073 0.175729 -3.73687 0
M  V30 2773 H 264.406 0.250869 -4.9156 0
M  V30 2774 N 266.058 1.56714 -0.166846 0
M  V30 2775 C 267.305 1.96747 0.479252 0
M  V30 2776 C 267.633 1.05263 1.63554 0
M  V30 2777 O 266.888 0.0858098 1.95512 0
M  V30 2778 C 267.187 3.42889 1.00806 0
M  V30 2779 C 266.853 4.50889 -0.0318574 0
M  V30 2780 C 265.515 4.8015 -0.317675 0
M  V30 2781 C 267.867 5.15949 -0.737956 0
M  V30 2782 C 265.195 5.71772 -1.31506 0
M  V30 2783 C 267.547 6.08647 -1.72429 0
M  V30 2784 C 266.211 6.36277 -2.0176 0
M  V30 2785 H 265.481 0.719949 0.175371 0
M  V30 2786 H 268.128 1.89756 -0.257864 0
M  V30 2787 H 266.433 3.4681 1.82291 0
M  V30 2788 H 268.13 3.71203 1.51689 0
M  V30 2789 H 264.72 4.28128 0.201088 0
M  V30 2790 H 268.904 4.93458 -0.530351 0
M  V30 2791 H 264.16 5.91465 -1.54853 0
M  V30 2792 H 268.334 6.58129 -2.27682 0
M  V30 2793 H 265.961 7.07075 -2.79194 0
M  V30 2794 N 267.536 -0.106894 1.57237 0
M  V30 2795 C 268.468 -1.15646 1.97885 0
M  V30 2796 C 269.481 -1.36981 0.879779 0
M  V30 2797 O 270.67 -1.35841 1.15799 0
M  V30 2798 C 267.77 -2.51425 2.27241 0
M  V30 2799 C 266.943 -2.50529 3.58545 0
M  V30 2800 C 266.002 -3.68145 3.75973 0
M  V30 2801 O 265.028 -3.51176 4.47956 0
M  V30 2802 N 266.23 -4.87177 3.15656 0
M  V30 2803 H 268.995 -0.81059 2.8853 0
M  V30 2804 H 266.556 -0.296024 1.59171 0
M  V30 2805 H 268.548 -3.28689 2.36105 0
M  V30 2806 H 267.118 -2.78147 1.42663 0
M  V30 2807 H 266.338 -1.58894 3.60758 0
M  V30 2808 H 267.626 -2.46997 4.44826 0
M  V30 2809 H 267.024 -5.03868 2.57165 0
M  V30 2810 H 265.581 -5.62075 3.30023 0
M  V30 2811 N 269.014 -1.53014 -0.377408 0
M  V30 2812 C 270.291 -1.59215 -1.13622 0
M  V30 2813 C 270.671 -0.392407 -2.07421 0
M  V30 2814 O 270.019 0.618342 -2.19975 0
M  V30 2815 C 270.229 -2.93669 -1.88573 0
M  V30 2816 C 271.577 -3.47822 -2.43526 0
M  V30 2817 O 272.601 -2.9562 -1.98715 0
M  V30 2818 O 271.46 -4.39055 -3.25412 0
M  V30 2819 H 268.554 -0.642625 -0.52054 0
M  V30 2820 H 271.1 -1.65353 -0.381625 0
M  V30 2821 H 269.872 -3.7243 -1.20048 0
M  V30 2822 H 269.495 -2.90968 -2.70968 0
M  V30 2823 N 270.492 0.636531 -1.44174 0
M  V30 2824 C 271.741 1.39213 -1.45954 0
M  V30 2825 C 272.054 1.95374 -0.0939119 0
M  V30 2826 O 273.26 2.71498 0.0107767 0
M  V30 2827 C 271.716 2.52025 -2.56927 0
M  V30 2828 C 271.324 2.024 -3.99673 0
M  V30 2829 C 273.068 3.29269 -2.67922 0
M  V30 2830 C 270.975 3.12521 -5.0208 0
M  V30 2831 H 269.905 0.523132 -0.542999 0
M  V30 2832 H 272.556 0.685349 -1.70221 0
M  V30 2833 H 270.938 3.25253 -2.25891 0
M  V30 2834 H 272.112 1.36073 -4.40251 0
M  V30 2835 H 270.427 1.37987 -3.92872 0
M  V30 2836 H 273.024 4.11352 -3.41605 0
M  V30 2837 H 273.367 3.78397 -1.73555 0
M  V30 2838 H 273.9 2.63129 -2.98342 0
M  V30 2839 H 270.639 2.68343 -5.98057 0
M  V30 2840 H 270.159 3.77507 -4.66099 0
M  V30 2841 H 271.838 3.77385 -5.25538 0
M  V30 2842 N 271.97 1.30982 0.876444 0
M  V30 2843 C 272.9 1.20668 1.99903 0
M  V30 2844 C 273.881 0.095354 1.69833 0
M  V30 2845 O 275.066 0.27885 1.92188 0
M  V30 2846 C 272.196 0.90655 3.3526 0
M  V30 2847 C 271.15 1.97675 3.79617 0
M  V30 2848 C 270.476 1.52943 5.1236 0
M  V30 2849 C 271.776 3.389 3.97422 0
M  V30 2850 H 273.47 2.14586 2.0879 0
M  V30 2851 H 271.016 1.03308 1.00317 0
M  V30 2852 H 272.969 0.821025 4.13324 0
M  V30 2853 H 271.693 -0.0682969 3.26529 0
M  V30 2854 H 270.352 2.05205 3.03787 0
M  V30 2855 H 270 0.54262 5.00065 0
M  V30 2856 H 269.7 2.24532 5.43009 0
M  V30 2857 H 271.224 1.45786 5.92941 0
M  V30 2858 H 272.638 3.34081 4.659 0
M  V30 2859 H 271.035 4.0865 4.3946 0
M  V30 2860 H 272.105 3.80163 3.01006 0
M  V30 2861 N 273.449 -1.08991 1.13837 0
M  V30 2862 C 274.396 -2.15748 0.819835 0
M  V30 2863 C 275.366 -1.64636 -0.220026 0
M  V30 2864 O 276.551 -1.90582 -0.0912757 0
M  V30 2865 C 273.691 -3.4382 0.296913 0
M  V30 2866 C 272.804 -4.0881 1.39636 0
M  V30 2867 C 271.939 -5.24655 0.831314 0
M  V30 2868 C 270.978 -5.81575 1.90886 0
M  V30 2869 N 270.115 -6.88774 1.36142 0
M  V30 2870 H 274.955 -2.42338 1.73426 0
M  V30 2871 H 272.492 -1.18935 0.865613 0
M  V30 2872 H 274.45 -4.17193 -0.0244339 0
M  V30 2873 H 273.08 -3.17535 -0.580628 0
M  V30 2874 H 272.132 -3.33258 1.83422 0
M  V30 2875 H 273.444 -4.47141 2.21058 0
M  V30 2876 H 272.598 -6.04942 0.461515 0
M  V30 2877 H 271.337 -4.87698 -0.013932 0
M  V30 2878 H 270.342 -4.99946 2.28767 0
M  V30 2879 H 271.567 -6.20592 2.75758 0
M  V30 2880 H 269.513 -6.53788 0.538254 0
M  V30 2881 H 269.43 -7.25898 2.11208 0
M  V30 2882 H 270.698 -7.72806 1.01933 0
M  V30 2883 N 274.927 -0.932562 -1.27047 0
M  V30 2884 C 275.86 -0.379774 -2.25018 0
M  V30 2885 C 276.838 0.526587 -1.53837 0
M  V30 2886 O 278.022 0.465992 -1.82649 0
M  V30 2887 C 275.149 0.455187 -3.35627 0
M  V30 2888 C 274.195 -0.388428 -4.24728 0
M  V30 2889 S 275.028 -1.80701 -5.04091 0
M  V30 2890 C 276.184 -0.979865 -6.18182 0
M  V30 2891 H 276.417 -1.2101 -2.71558 0
M  V30 2892 H 273.95 -0.735078 -1.35779 0
M  V30 2893 H 275.908 0.931052 -3.99802 0
M  V30 2894 H 274.569 1.26009 -2.87716 0
M  V30 2895 H 273.762 0.25089 -5.03375 0
M  V30 2896 H 273.364 -0.798649 -3.65373 0
M  V30 2897 H 275.656 -0.218115 -6.77149 0
M  V30 2898 H 276.599 -1.73951 -6.86401 0
M  V30 2899 H 277.007 -0.51973 -5.62102 0
M  V30 2900 N 276.405 1.4127 -0.698611 0
M  V30 2901 C 277.653 2.00782 -0.230409 0
M  V30 2902 C 277.974 1.5562 1.17505 0
M  V30 2903 O 277.244 0.78815 1.79346 0
M  V30 2904 H 275.824 0.742464 -0.0821944 0
M  V30 2905 H 278.486 1.72852 -0.90045 0
M  V30 2906 H 277.582 3.11095 -0.25021 0
M  V30 2907 N 277.883 0.443576 1.51229 0
M  V30 2908 C 279.299 0.0962001 1.5931 0
M  V30 2909 C 279.499 -1.39501 1.45402 0
M  V30 2910 O 278.555 -2.16557 1.29843 0
M  V30 2911 C 279.868 0.621875 2.94199 0
M  V30 2912 C 281.416 0.582865 3.07525 0
M  V30 2913 C 281.891 1.08562 4.44948 0
M  V30 2914 N 283.382 1.04387 4.51284 0
M  V30 2915 C 284.117 1.40368 5.55954 0
M  V30 2916 N 283.613 1.83664 6.68011 0
M  V30 2917 N 285.406 1.32145 5.46346 0
M  V30 2918 H 277.557 1.41376 1.58514 0
M  V30 2919 H 279.82 0.582965 0.747567 0
M  V30 2920 H 279.526 1.66546 3.09767 0
M  V30 2921 H 279.4 0.0502125 3.77167 0
M  V30 2922 H 281.787 -0.451749 2.91622 0
M  V30 2923 H 281.868 1.191 2.26382 0
M  V30 2924 H 281.512 2.11873 4.61598 0
M  V30 2925 H 281.442 0.453956 5.2464 0
M  V30 2926 H 283.933 0.725986 3.70861 0
M  V30 2927 H 284.246 2.0934 7.43906 0
M  V30 2928 H 282.591 1.87596 6.69203 0
M  V30 2929 H 285.782 0.981808 4.57688 0
M  V30 2930 H 285.955 1.60514 6.27805 0
M  V30 2931 N 279.361 -1.56624 0.175154 0
M  V30 2932 C 280.589 -2.01374 -0.474971 0
M  V30 2933 C 281.004 -1.05537 -1.56548 0
M  V30 2934 O 280.361 -0.0568668 -1.82411 0
M  V30 2935 C 280.412 -3.45923 -1.04975 0
M  V30 2936 O 280.133 -4.381 -0.00276605 0
M  V30 2937 C 281.634 -4.06093 -1.77773 0
M  V30 2938 H 278.854 -0.659962 -0.121206 0
M  V30 2939 H 281.398 -2.02601 0.27801 0
M  V30 2940 H 279.553 -3.45458 -1.75321 0
M  V30 2941 H 279.967 -5.22753 -0.427681 0
M  V30 2942 H 281.441 -5.09147 -2.13245 0
M  V30 2943 H 281.918 -3.48405 -2.67414 0
M  V30 2944 H 282.524 -4.10272 -1.12059 0
M  V30 2945 N 280.839 0.0985539 -1.57292 0
M  V30 2946 C 281.771 1.14595 -1.98496 0
M  V30 2947 C 282.784 1.36512 -0.887031 0
M  V30 2948 O 283.973 1.35225 -1.16518 0
M  V30 2949 C 281.073 2.50216 -2.28572 0
M  V30 2950 C 280.246 2.48624 -3.59868 0
M  V30 2951 C 279.305 3.66146 -3.7792 0
M  V30 2952 O 278.331 3.48795 -4.49812 0
M  V30 2953 N 279.533 4.85496 -3.18235 0
M  V30 2954 H 282.298 0.795277 -2.88956 0
M  V30 2955 H 279.859 0.287579 -1.59325 0
M  V30 2956 H 281.851 3.27432 -2.37845 0
M  V30 2957 H 280.421 2.77387 -1.44136 0
M  V30 2958 H 279.641 1.56978 -3.61596 0
M  V30 2959 H 280.929 2.44635 -4.46129 0
M  V30 2960 H 280.327 5.02497 -2.59833 0
M  V30 2961 H 278.884 5.60317 -3.32999 0
M  V30 2962 N 282.317 1.53212 0.369288 0
M  V30 2963 C 283.247 1.82365 1.45826 0
M  V30 2964 C 284.228 0.676907 1.56051 0
M  V30 2965 O 285.413 0.926401 1.70679 0
M  V30 2966 C 282.543 2.01023 2.83208 0
M  V30 2967 C 281.497 3.1678 2.8781 0
M  V30 2968 C 280.823 3.20724 4.27832 0
M  V30 2969 C 282.123 4.55447 2.55667 0
M  V30 2970 H 283.817 2.73559 1.21678 0
M  V30 2971 H 281.363 1.3163 0.583911 0
M  V30 2972 H 283.316 2.20001 3.59413 0
M  V30 2973 H 282.04 1.06536 3.08736 0
M  V30 2974 H 280.699 2.97616 2.14056 0
M  V30 2975 H 280.347 2.23882 4.50429 0
M  V30 2976 H 280.047 3.98496 4.31827 0
M  V30 2977 H 281.571 3.41881 5.05915 0
M  V30 2978 H 282.985 4.74611 3.21586 0
M  V30 2979 H 281.382 5.35432 2.70984 0
M  V30 2980 H 282.452 4.60812 1.5093 0
M  V30 2981 N 283.795 -0.628877 1.44509 0
M  V30 2982 C 284.727 -1.754 1.47538 0
M  V30 2983 C 285.74 -1.58575 0.368506 0
M  V30 2984 O 286.929 -1.66847 0.634376 0
M  V30 2985 C 284.029 -3.1315 1.29577 0
M  V30 2986 C 283.202 -3.56413 2.53551 0
M  V30 2987 C 282.261 -4.7305 2.30457 0
M  V30 2988 O 281.287 -4.81247 3.03957 0
M  V30 2989 N 282.489 -5.64903 1.3366 0
M  V30 2990 H 285.254 -1.73272 2.44534 0
M  V30 2991 H 282.815 -0.813512 1.39977 0
M  V30 2992 H 284.807 -3.88902 1.11971 0
M  V30 2993 H 283.377 -3.09908 0.409371 0
M  V30 2994 H 282.597 -2.70847 2.86419 0
M  V30 2995 H 283.885 -3.82071 3.36005 0
M  V30 2996 H 283.283 -5.60975 0.729604 0
M  V30 2997 H 281.84 -6.40275 1.22032 0
M  V30 2998 N 285.273 -1.31445 -0.869486 0
M  V30 2999 C 286.55 -1.11795 -1.60503 0
M  V30 3000 C 286.93 0.327168 -2.08549 0
M  V30 3001 O 286.278 1.32135 -1.8642 0
M  V30 3002 C 286.488 -2.13258 -2.76265 0
M  V30 3003 C 287.836 -2.45805 -3.46215 0
M  V30 3004 O 288.86 -2.11688 -2.86473 0
M  V30 3005 O 287.719 -3.04228 -4.5399 0
M  V30 3006 H 284.813 -0.430421 -0.706163 0
M  V30 3007 H 287.359 -1.42925 -0.914907 0
M  V30 3008 H 286.131 -3.10461 -2.3818 0
M  V30 3009 H 285.754 -1.83035 -3.52964 0
M  V30 3010 N 286.751 1.08385 -1.14413 0
M  V30 3011 C 287.714 2.13486 -0.834048 0
M  V30 3012 C 288.714 1.59988 0.161418 0
M  V30 3013 O 289.904 1.74071 -0.0669575 0
M  V30 3014 C 287.036 3.4003 -0.243354 0
M  V30 3015 H 288.229 2.42425 -1.7655 0
M  V30 3016 H 285.782 1.24101 -0.950189 0
M  V30 3017 H 286.517 3.16726 0.696807 0
M  V30 3018 H 286.302 3.80157 -0.960367 0
M  V30 3019 H 287.792 4.17577 -0.0436242 0
M  V30 3020 N 288.23 0.939286 1.26551 0
M  V30 3021 C 289.476 0.586715 1.94128 0
M  V30 3022 C 289.809 -0.8717 1.73537 0
M  V30 3023 O 289.084 -1.62339 1.07127 0
M  V30 3024 C 289.367 0.927497 3.4795 0
M  V30 3025 C 289.22 2.44052 3.77834 0
M  V30 3026 C 290.539 0.441569 4.37879 0
M  V30 3027 H 287.658 0.21463 0.705055 0
M  V30 3028 H 290.3 1.17316 1.49455 0
M  V30 3029 H 288.45 0.428431 3.8613 0
M  V30 3030 H 290.122 3.01216 3.4938 0
M  V30 3031 H 288.365 2.8848 3.23978 0
M  V30 3032 H 289.036 2.62947 4.85348 0
M  V30 3033 H 291.512 0.869448 4.06915 0
M  V30 3034 H 290.388 0.708856 5.44304 0
M  V30 3035 H 290.649 -0.658467 4.37169 0
M  V30 3036 N 289.708 -1.40897 0.706093 0
M  V30 3037 C 291.119 -1.84023 0.315052 0
M  V30 3038 C 291.47 -1.5906 -1.14866 0
M  V30 3039 O 290.595 -1.06651 -1.88293 0
M  V30 3040 C 291.19 -3.34055 0.565038 0
M  V30 3041 C 289.749 -3.7571 0.227806 0
M  V30 3042 C 288.896 -2.64204 0.842122 0
M  V30 3043 H 291.847 -1.303 0.905963 0
M  V30 3044 H 291.868 -3.80107 -0.172843 0
M  V30 3045 H 291.38 -3.52192 1.63042 0
M  V30 3046 H 289.481 -3.63172 -0.832895 0
M  V30 3047 H 289.594 -4.74103 0.690174 0
M  V30 3048 H 287.958 -2.53255 0.270893 0
M  V30 3049 H 288.741 -2.85155 1.91158 0
M  V30 3050 N 291.186 -0.45159 -1.50991 0
M  V30 3051 C 292.119 0.398179 -2.24699 0
M  V30 3052 C 293.097 1.01276 -1.27208 0
M  V30 3053 O 294.281 1.05247 -1.56382 0
M  V30 3054 C 291.408 1.55618 -3.00833 0
M  V30 3055 C 290.454 1.0609 -4.13095 0
M  V30 3056 S 291.287 -0.00865136 -5.35499 0
M  V30 3057 C 292.443 1.15369 -6.15175 0
M  V30 3058 H 292.676 -0.227555 -2.96428 0
M  V30 3059 H 290.209 -0.236251 -1.52582 0
M  V30 3060 H 292.167 2.21997 -3.45293 0
M  V30 3061 H 290.828 2.15337 -2.28667 0
M  V30 3062 H 290.021 1.92726 -4.65696 0
M  V30 3063 H 289.623 0.47513 -3.7097 0
M  V30 3064 H 291.915 2.06925 -6.45126 0
M  V30 3065 H 292.858 0.667344 -7.04948 0
M  V30 3066 H 293.266 1.3987 -5.46897 0
M  V30 3067 N 292.664 1.56529 -0.183458 0
M  V30 3068 C 293.892 2.01623 0.464285 0
M  V30 3069 C 294.307 1.06366 1.55986 0
M  V30 3070 O 293.664 0.0665398 1.82379 0
M  V30 3071 C 293.715 3.46475 1.03139 0
M  V30 3072 O 293.436 4.38095 -0.0204675 0
M  V30 3073 C 294.937 4.0703 1.75617 0
M  V30 3074 H 292.157 0.660596 0.117704 0
M  V30 3075 H 294.701 2.02451 -0.288751 0
M  V30 3076 H 292.856 3.46383 1.73486 0
M  V30 3077 H 293.27 5.22973 0.399952 0
M  V30 3078 H 294.744 5.10271 2.10542 0
M  V30 3079 H 295.221 3.49819 2.65563 0
M  V30 3080 H 295.827 4.1086 1.09882 0
M  V30 3081 N 294.142 -0.090211 1.57342 0
M  V30 3082 C 295.072 -1.10976 2.05443 0
M  V30 3083 C 296.053 -1.41482 0.944284 0
M  V30 3084 O 297.238 -1.51428 1.21586 0
M  V30 3085 C 294.368 -2.42831 2.48295 0
M  V30 3086 C 293.322 -2.26721 3.63018 0
M  V30 3087 C 292.648 -3.63796 3.91863 0
M  V30 3088 C 293.948 -1.7037 4.93732 0
M  V30 3089 H 295.642 -0.709564 2.9087 0
M  V30 3090 H 293.188 -0.339874 1.39932 0
M  V30 3091 H 295.141 -3.14431 2.80555 0
M  V30 3092 H 293.865 -2.84795 1.59873 0
M  V30 3093 H 292.524 -1.57565 3.31012 0
M  V30 3094 H 292.172 -4.03297 3.00601 0
M  V30 3095 H 291.872 -3.53861 4.69101 0
M  V30 3096 H 293.396 -4.36855 4.26603 0
M  V30 3097 H 294.81 -2.31816 5.24342 0
M  V30 3098 H 293.207 -1.71181 5.75167 0
M  V30 3099 H 294.277 -0.663542 4.80339 0
M  V30 3100 N 295.62 -1.53406 -0.361157 0
M  V30 3101 C 296.868 -1.69467 -1.10115 0
M  V30 3102 C 297.189 -0.451352 -1.89705 0
M  V30 3103 O 296.459 0.534636 -1.88463 0
M  V30 3104 H 295.039 -0.624749 -0.409508 0
M  V30 3105 H 297.701 -1.90609 -0.406699 0
M  V30 3106 H 296.797 -2.55774 -1.78847 0
M  V30 3107 N 297.098 0.621204 -1.44841 0
M  V30 3108 C 298.03 1.74615 -1.48466 0
M  V30 3109 C 299.043 1.58377 -0.37691 0
M  V30 3110 O 300.232 1.66508 -0.643215 0
M  V30 3111 C 297.332 3.12459 -1.31236 0
M  V30 3112 C 296.505 3.55064 -2.55438 0
M  V30 3113 C 295.564 4.71821 -2.32963 0
M  V30 3114 O 294.59 4.79628 -3.06505 0
M  V30 3115 N 295.792 5.64186 -1.36654 0
M  V30 3116 H 298.557 1.71973 -2.45449 0
M  V30 3117 H 296.118 0.806077 -1.40407 0
M  V30 3118 H 298.11 3.88302 -1.14032 0
M  V30 3119 H 296.68 3.09686 -0.4258 0
M  V30 3120 H 295.9 2.69324 -2.87851 0
M  V30 3121 H 297.188 3.80284 -3.38026 0
M  V30 3122 H 296.586 5.6058 -0.759344 0
M  V30 3123 H 295.143 6.39618 -1.25425 0
M  V30 3124 N 298.576 1.31904 0.862503 0
M  V30 3125 C 299.486 1.22161 2.00285 0
M  V30 3126 C 300.502 0.136785 1.73462 0
M  V30 3127 O 301.678 0.355994 1.98229 0
M  V30 3128 C 298.743 0.937093 3.33796 0
M  V30 3129 C 297.804 2.10957 3.73893 0
M  V30 3130 C 297.037 1.83853 5.01033 0
M  V30 3131 O 297.26 0.777274 5.65079 0
M  V30 3132 O 296.194 2.69741 5.38074 0
M  V30 3133 H 300.02 2.18008 2.11439 0
M  V30 3134 H 297.605 1.11716 0.991957 0
M  V30 3135 H 299.487 0.794583 4.13841 0
M  V30 3136 H 298.162 0.00871894 3.23699 0
M  V30 3137 H 297.069 2.30752 2.94456 0
M  V30 3138 H 298.402 3.02046 3.88625 0
M  V30 3139 N 300.054 -1.07777 1.14986 0
M  V30 3140 C 301.301 -1.8029 0.922056 0
M  V30 3141 C 301.629 -1.86531 -0.55105 0
M  V30 3142 O 300.884 -1.34189 -1.42449 0
M  V30 3143 C 301.183 -3.25495 1.47608 0
M  V30 3144 C 300.849 -3.39361 2.96893 0
M  V30 3145 C 299.511 -3.42852 3.37647 0
M  V30 3146 C 301.863 -3.42512 3.92854 0
M  V30 3147 C 299.191 -3.47094 4.73015 0
M  V30 3148 C 301.543 -3.4829 5.28088 0
M  V30 3149 C 300.207 -3.50058 5.68345 0
M  V30 3150 H 299.477 -0.659727 0.337404 0
M  V30 3151 H 302.124 -1.26854 1.43459 0
M  V30 3152 H 300.429 -3.81683 0.88463 0
M  V30 3153 H 302.126 -3.80168 1.27568 0
M  V30 3154 H 298.716 -3.37339 2.64387 0
M  V30 3155 H 302.9 -3.3904 3.62444 0
M  V30 3156 H 298.156 -3.46758 5.03556 0
M  V30 3157 H 302.33 -3.49675 6.02246 0
M  V30 3158 H 299.957 -3.53097 6.73221 0
M  V30 3159 N 301.532 -0.945985 -1.26051 0
M  V30 3160 C 302.948 -0.649045 -1.45807 0
M  V30 3161 C 303.148 0.796158 -1.85104 0
M  V30 3162 O 302.204 1.57233 -1.97571 0
M  V30 3163 C 303.517 -1.61458 -2.53677 0
M  V30 3164 C 305.065 -1.62481 -2.67524 0
M  V30 3165 C 305.54 -2.57776 -3.7857 0
M  V30 3166 N 307.031 -2.5609 -3.85969 0
M  V30 3167 C 307.766 -3.26508 -4.7136 0
M  V30 3168 N 307.262 -4.0637 -5.61102 0
M  V30 3169 N 309.055 -3.15437 -4.65248 0
M  V30 3170 H 301.206 -1.88005 -0.988328 0
M  V30 3171 H 303.469 -0.808198 -0.4955 0
M  V30 3172 H 303.175 -2.64644 -2.31638 0
M  V30 3173 H 303.049 -1.37036 -3.51427 0
M  V30 3174 H 305.436 -0.600167 -2.88933 0
M  V30 3175 H 305.517 -1.90958 -1.70202 0
M  V30 3176 H 305.161 -3.60361 -3.57913 0
M  V30 3177 H 305.091 -2.26587 -4.75359 0
M  V30 3178 H 307.582 -1.98105 -3.21812 0
M  V30 3179 H 307.895 -4.57042 -6.23164 0
M  V30 3180 H 306.24 -4.10469 -5.60839 0
M  V30 3181 H 309.431 -2.52525 -3.94143 0
M  V30 3182 H 309.604 -3.70584 -5.31575 0
M  V30 3183 N 303.011 1.40521 -0.713556 0
M  V30 3184 C 303.974 2.29098 -0.0684347 0
M  V30 3185 C 304.974 1.45268 0.689472 0
M  V30 3186 O 306.164 1.66205 0.521677 0
M  V30 3187 C 303.296 3.28446 0.913024 0
M  V30 3188 H 304.489 2.87645 -0.84855 0
M  V30 3189 H 302.042 1.48809 -0.47809 0
M  V30 3190 H 302.777 2.74913 1.72027 0
M  V30 3191 H 302.562 3.90327 0.372472 0
M  V30 3192 H 304.052 3.94777 1.36165 0
M  V30 3193 N 304.489 0.459591 1.5075 0
M  V30 3194 C 305.736 -0.0993495 2.02256 0
M  V30 3195 C 306.064 -1.40751 1.34237 0
M  V30 3196 O 305.319 -1.90379 0.453228 0
M  V30 3197 C 305.618 -0.342866 3.55752 0
M  V30 3198 C 305.284 0.88218 4.42186 0
M  V30 3199 C 303.946 1.21808 4.65528 0
M  V30 3200 C 306.298 1.69837 4.92752 0
M  V30 3201 C 303.626 2.37045 5.36681 0
M  V30 3202 C 305.978 2.84192 5.65171 0
M  V30 3203 C 304.642 3.1821 5.8677 0
M  V30 3204 H 303.912 -0.0363545 0.740108 0
M  V30 3205 H 306.559 0.611329 1.8148 0
M  V30 3206 H 304.864 -1.13567 3.7498 0
M  V30 3207 H 306.561 -0.789121 3.93159 0
M  V30 3208 H 303.151 0.610467 4.2423 0
M  V30 3209 H 307.335 1.45205 4.74583 0
M  V30 3210 H 302.591 2.63689 5.51614 0
M  V30 3211 H 306.765 3.4779 6.03337 0
M  V30 3212 H 304.392 4.07613 6.41682 0
M  V30 3213 N 305.967 -1.56429 0.191757 0
M  V30 3214 C 307.192 -2.02309 -0.456706 0
M  V30 3215 C 307.617 -1.07103 -1.5463 0
M  V30 3216 O 306.975 -0.0539677 -1.8122 0
M  V30 3217 C 307.023 -3.46654 -0.993159 0
M  V30 3218 O 306.127 -3.54559 -2.10622 0
M  V30 3219 H 305.468 -0.655303 -0.107114 0
M  V30 3220 H 307.998 -2.02364 0.301653 0
M  V30 3221 H 308.008 -3.86377 -1.31061 0
M  V30 3222 H 306.683 -4.1544 -0.195504 0
M  V30 3223 H 305.26 -3.26708 -1.79767 0
M  V30 3224 N 307.445 0.0818655 -1.57387 0
M  V30 3225 C 308.694 0.781681 -1.85937 0
M  V30 3226 C 309.007 1.79246 -0.782957 0
M  V30 3227 O 310.213 2.54112 -0.955987 0
M  V30 3228 C 308.669 1.44109 -3.29789 0
M  V30 3229 C 308.277 0.469396 -4.45534 0
M  V30 3230 C 310.021 2.12386 -3.67549 0
M  V30 3231 C 307.928 1.13415 -5.80423 0
M  V30 3232 H 306.858 0.295682 -0.693605 0
M  V30 3233 H 309.509 0.0348051 -1.83467 0
M  V30 3234 H 307.891 2.23588 -3.2684 0
M  V30 3235 H 309.065 -0.294856 -4.59856 0
M  V30 3236 H 307.38 -0.108383 -4.16259 0
M  V30 3237 H 309.977 2.62878 -4.65617 0
M  V30 3238 H 310.32 2.91877 -2.96839 0
M  V30 3239 H 310.853 1.39751 -3.72444 0
M  V30 3240 H 307.592 0.379771 -6.54399 0
M  V30 3241 H 307.112 1.8695 -5.69921 0
M  V30 3242 H 308.791 1.65686 -6.25426 0
M  V30 3243 N 308.923 1.53595 0.353017 0
M  V30 3244 C 309.853 1.83902 1.43883 0
M  V30 3245 C 310.834 0.693421 1.55324 0
M  V30 3246 O 312.019 0.944452 1.69687 0
M  V30 3247 C 309.149 2.04016 2.8106 0
M  V30 3248 C 308.103 3.19814 2.84434 0
M  V30 3249 C 307.429 3.25244 4.24406 0
M  V30 3250 C 308.729 4.58133 2.50822 0
M  V30 3251 H 310.423 2.74835 1.1877 0
M  V30 3252 H 307.969 1.32242 0.569917 0
M  V30 3253 H 309.922 2.238 3.57059 0
M  V30 3254 H 308.646 1.09804 3.07588 0
M  V30 3255 H 307.305 2.9987 2.10887 0
M  V30 3256 H 306.953 2.28646 4.48029 0
M  V30 3257 H 306.653 4.03054 4.27576 0
M  V30 3258 H 308.177 3.47228 5.0226 0
M  V30 3259 H 309.591 4.77995 3.16534 0
M  V30 3260 H 307.988 5.38276 2.6529 0
M  V30 3261 H 309.058 4.62387 1.46034 0
M  V30 3262 N 310.401 -0.613514 1.45168 0
M  V30 3263 C 311.331 -1.7354 1.56225 0
M  V30 3264 C 312.312 -1.64981 0.41414 0
M  V30 3265 O 313.497 -1.83472 0.636526 0
M  V30 3266 C 310.627 -3.12128 1.52295 0
M  V30 3267 C 309.581 -3.35491 2.65762 0
M  V30 3268 C 308.907 -4.74291 2.46885 0
M  V30 3269 C 310.207 -3.26325 4.0781 0
M  V30 3270 H 311.901 -1.64543 2.50132 0
M  V30 3271 H 309.447 -0.790185 1.20383 0
M  V30 3272 H 311.4 -3.90404 1.58628 0
M  V30 3273 H 310.124 -3.2195 0.549139 0
M  V30 3274 H 308.783 -2.59603 2.58847 0
M  V30 3275 H 308.431 -4.80839 1.47657 0
M  V30 3276 H 308.131 -4.9088 3.22972 0
M  V30 3277 H 309.655 -5.54775 2.55063 0
M  V30 3278 H 311.069 -3.94483 4.16 0
M  V30 3279 H 309.466 -3.54445 4.8424 0
M  V30 3280 H 310.536 -2.23855 4.30136 0
M  V30 3281 N 311.879 -1.3236 -0.855495 0
M  V30 3282 C 312.826 -1.21225 -1.964 0
M  V30 3283 C 313.796 -0.0946204 -1.6583 0
M  V30 3284 O 314.981 -0.27002 -1.8888 0
M  V30 3285 C 312.121 -0.940419 -3.32039 0
M  V30 3286 C 311.234 -2.14276 -3.75113 0
M  V30 3287 C 310.369 -1.80648 -4.9954 0
M  V30 3288 C 309.408 -2.97208 -5.35102 0
M  V30 3289 N 308.545 -2.63678 -6.50706 0
M  V30 3290 H 313.385 -2.16042 -2.05255 0
M  V30 3291 H 310.922 -1.07451 -1.00463 0
M  V30 3292 H 312.88 -0.763311 -4.10158 0
M  V30 3293 H 311.51 -0.0290413 -3.22787 0
M  V30 3294 H 310.562 -2.43017 -2.92655 0
M  V30 3295 H 311.874 -3.01468 -3.97389 0
M  V30 3296 H 311.028 -1.59484 -5.85363 0
M  V30 3297 H 309.767 -0.906678 -4.79198 0
M  V30 3298 H 308.772 -3.19004 -4.47791 0
M  V30 3299 H 309.997 -3.87918 -5.57401 0
M  V30 3300 H 307.943 -1.76238 -6.31883 0
M  V30 3301 H 307.86 -3.444 -6.72997 0
M  V30 3302 H 309.128 -2.45942 -7.39684 0
M  V30 3303 N 313.357 1.07166 -1.15556 0
M  V30 3304 C 314.267 2.17947 -0.868116 0
M  V30 3305 C 315.283 1.73297 0.156297 0
M  V30 3306 O 316.459 2.01392 -0.0182327 0
M  V30 3307 C 313.524 3.44789 -0.36355 0
M  V30 3308 C 312.585 4.03996 -1.45209 0
M  V30 3309 C 311.818 5.24783 -0.971508 0
M  V30 3310 O 312.041 5.70109 0.182194 0
M  V30 3311 O 310.975 5.75715 -1.75603 0
M  V30 3312 H 314.801 2.4503 -1.79427 0
M  V30 3313 H 312.386 1.16539 -0.934824 0
M  V30 3314 H 314.268 4.21307 -0.0887113 0
M  V30 3315 H 312.943 3.19253 0.534708 0
M  V30 3316 H 311.85 3.29009 -1.78056 0
M  V30 3317 H 313.183 4.33808 -2.32533 0
M  V30 3318 N 314.835 0.952656 1.25548 0
M  V30 3319 C 315.745 0.47782 2.29682 0
M  V30 3320 C 316.761 -0.453859 1.67977 0
M  V30 3321 O 317.937 -0.330587 1.98668 0
M  V30 3322 C 315.002 -0.238655 3.45878 0
M  V30 3323 C 314.063 0.730994 4.23031 0
M  V30 3324 C 313.296 0.0486165 5.33678 0
M  V30 3325 O 313.519 -1.16612 5.58353 0
M  V30 3326 O 312.453 0.733152 5.97418 0
M  V30 3327 H 316.279 1.34312 2.72386 0
M  V30 3328 H 313.864 0.719026 1.30959 0
M  V30 3329 H 315.746 -0.641774 4.16484 0
M  V30 3330 H 314.421 -1.07916 3.05181 0
M  V30 3331 H 313.328 1.18428 3.5486 0
M  V30 3332 H 314.661 1.53946 4.67506 0
M  V30 3333 N 316.313 -1.40141 0.720998 0
M  V30 3334 C 317.559 -2.01084 0.263231 0
M  V30 3335 C 317.892 -1.57052 -1.14229 0
M  V30 3336 O 317.167 -0.793027 -1.77599 0
M  V30 3337 C 317.45 -3.58401 0.349344 0
M  V30 3338 C 317.303 -4.12491 1.79363 0
M  V30 3339 C 318.622 -4.39231 -0.276351 0
M  V30 3340 H 315.741 -0.730572 0.0971228 0
M  V30 3341 H 318.383 -1.66543 0.914518 0
M  V30 3342 H 316.533 -3.87958 -0.205165 0
M  V30 3343 H 318.205 -3.93711 2.40394 0
M  V30 3344 H 316.448 -3.66576 2.31958 0
M  V30 3345 H 317.119 -5.21646 1.80524 0
M  V30 3346 H 319.595 -4.15637 0.196184 0
M  V30 3347 H 318.471 -5.48586 -0.185681 0
M  V30 3348 H 318.732 -4.20643 -1.36059 0
M  V30 3349 N 317.792 -0.46758 -1.50504 0
M  V30 3350 C 318.739 0.328413 -2.28452 0
M  V30 3351 C 319.709 0.990313 -1.33349 0
M  V30 3352 O 320.894 1.00343 -1.62284 0
M  V30 3353 C 318.034 1.40648 -3.15138 0
M  V30 3354 C 317.147 0.759709 -4.25267 0
M  V30 3355 C 316.282 1.81537 -4.99217 0
M  V30 3356 C 315.321 1.14866 -6.01226 0
M  V30 3357 N 314.458 2.14702 -6.68467 0
M  V30 3358 H 319.298 -0.342603 -2.96024 0
M  V30 3359 H 316.835 -0.180801 -1.45985 0
M  V30 3360 H 318.793 2.04315 -3.63746 0
M  V30 3361 H 317.423 2.04671 -2.49619 0
M  V30 3362 H 316.475 0.0105671 -3.80399 0
M  V30 3363 H 317.787 0.233243 -4.98254 0
M  V30 3364 H 316.941 2.52793 -5.51526 0
M  V30 3365 H 315.68 2.37564 -4.25928 0
M  V30 3366 H 314.685 0.42171 -5.4818 0
M  V30 3367 H 315.91 0.595334 -6.76485 0
M  V30 3368 H 313.856 2.69752 -5.97972 0
M  V30 3369 H 313.773 1.6703 -7.37317 0
M  V30 3370 H 315.041 2.85348 -7.25394 0
M  V30 3371 N 319.27 1.56325 -0.20005 0
M  V30 3372 C 320.218 2.20666 0.735482 0
M  V30 3373 C 321.212 1.17934 1.21605 0
M  V30 3374 O 322.418 1.36068 1.17837 0
M  V30 3375 H 318.793 0.70725 0.255542 0
M  V30 3376 H 320.764 2.9792 0.169166 0
M  V30 3377 C 319.513 2.88391 1.94232 0
M  V30 3378 H 318.836 3.67185 1.58161 0
M  V30 3379 H 320.276 3.3684 2.57517 0
M  V30 3380 C 318.735 1.89692 2.78421 0
M  V30 3381 O 319.265 1.40032 3.76502 0
M  V30 3382 N 317.471 1.57813 2.44015 0
M  V30 3383 H 317.018 1.9839 1.64314 0
M  V30 3384 H 316.976 0.920325 3.00628 0
M  V30 3385 N 320.748 -0.0735177 1.57428 0
M  V30 3386 C 321.997 -0.771809 1.86349 0
M  V30 3387 C 322.31 -1.78828 0.792452 0
M  V30 3388 O 323.516 -2.53602 0.96945 0
M  V30 3389 C 321.972 -1.42358 3.30548 0
M  V30 3390 C 321.58 -0.445761 4.45777 0
M  V30 3391 C 323.324 -2.10434 3.6867 0
M  V30 3392 C 321.231 -1.10335 5.81016 0
M  V30 3393 H 320.161 -0.291999 0.695164 0
M  V30 3394 H 322.812 -0.0250749 1.83483 0
M  V30 3395 H 321.194 -2.21852 3.28021 0
M  V30 3396 H 322.368 0.319239 4.59693 0
M  V30 3397 H 320.683 0.130457 4.16196 0
M  V30 3398 H 323.28 -2.60405 4.67004 0
M  V30 3399 H 323.623 -2.90298 2.98383 0
M  V30 3400 H 324.156 -1.37773 3.7318 0
M  V30 3401 H 320.895 -0.345061 6.54591 0
M  V30 3402 H 320.415 -1.83925 5.70904 0
M  V30 3403 H 322.094 -1.62367 6.26295 0
M  V30 3404 N 322.226 -1.5378 -0.344866 0
M  V30 3405 C 323.158 -1.77988 -1.44406 0
M  V30 3406 C 324.171 -0.661138 -1.48771 0
M  V30 3407 O 325.36 -0.937842 -1.51877 0
M  V30 3408 C 322.46 -1.86345 -2.8307 0
M  V30 3409 C 321.633 -3.16256 -3.0216 0
M  V30 3410 C 320.692 -3.15588 -4.21059 0
M  V30 3411 O 319.718 -3.89314 -4.15239 0
M  V30 3412 N 320.92 -2.37864 -5.29529 0
M  V30 3413 H 323.685 -2.72839 -1.24012 0
M  V30 3414 H 321.246 -1.52814 -0.534737 0
M  V30 3415 H 323.238 -1.83351 -3.60783 0
M  V30 3416 H 321.808 -0.986858 -2.96614 0
M  V30 3417 H 321.028 -3.32385 -2.11929 0
M  V30 3418 H 322.316 -4.0207 -3.11797 0
M  V30 3419 H 321.714 -1.77514 -5.37127 0
M  V30 3420 H 320.271 -2.40668 -6.05741 0
M  V30 3421 N 323.704 0.605807 -1.45491 0
M  V30 3422 C 325.12 0.926751 -1.29936 0
M  V30 3423 C 325.32 1.99896 -0.253706 0
M  V30 3424 O 324.376 2.50038 0.351737 0
M  V30 3425 C 325.689 1.36599 -2.67883 0
M  V30 3426 C 327.237 1.4801 -2.75793 0
M  V30 3427 C 327.712 1.95309 -4.14268 0
M  V30 3428 N 329.203 2.0254 -4.16571 0
M  V30 3429 C 329.938 2.40363 -5.20589 0
M  V30 3430 N 329.434 2.77143 -6.34952 0
M  V30 3431 N 331.227 2.40718 -5.07948 0
M  V30 3432 H 323.378 -0.102862 -2.12151 0
M  V30 3433 H 325.641 0.016639 -0.947854 0
M  V30 3434 H 325.347 0.652306 -3.45598 0
M  V30 3435 H 325.221 2.33215 -2.96463 0
M  V30 3436 H 327.608 2.1847 -1.98381 0
M  V30 3437 H 327.689 0.497041 -2.50925 0
M  V30 3438 H 327.333 1.25436 -4.92167 0
M  V30 3439 H 327.263 2.94532 -4.3653 0
M  V30 3440 H 329.754 1.76699 -3.34045 0
M  V30 3441 H 330.067 3.0489 -7.10114 0
M  V30 3442 H 328.412 2.74834 -6.3835 0
M  V30 3443 H 331.603 2.11392 -4.1765 0
M  V30 3444 H 331.776 2.69869 -5.89131 0
M  V30 3445 N 325.182 1.32811 0.848464 0
M  V30 3446 C 326.41 1.26739 1.63538 0
M  V30 3447 C 326.825 -0.163484 1.88091 0
M  V30 3448 O 326.182 -1.10258 1.45429 0
M  V30 3449 C 326.233 2.03013 2.99112 0
M  V30 3450 O 325.954 3.40518 2.75643 0
M  V30 3451 C 327.455 2.04038 3.93552 0
M  V30 3452 H 324.675 0.437024 0.509167 0
M  V30 3453 H 327.219 1.75033 1.05753 0
M  V30 3454 H 325.374 1.58426 3.53525 0
M  V30 3455 H 325.788 3.79635 3.61908 0
M  V30 3456 H 327.262 2.61877 4.85926 0
M  V30 3457 H 327.739 1.0282 4.26995 0
M  V30 3458 H 328.345 2.486 3.45077 0
M  V30 3459 N 326.66 -1.06551 1.16123 0
M  V30 3460 C 327.623 -2.12132 0.867906 0
M  V30 3461 C 328.623 -1.60224 -0.135944 0
M  V30 3462 O 329.813 -1.73943 0.0946422 0
M  V30 3463 C 326.945 -3.396 0.297419 0
M  V30 3464 H 328.138 -2.39586 1.80385 0
M  V30 3465 H 325.691 -1.22574 0.969812 0
M  V30 3466 H 326.426 -3.17794 -0.64633 0
M  V30 3467 H 326.211 -3.78581 1.02073 0
M  V30 3468 H 327.701 -4.17455 0.110052 0
M  V30 3469 N 328.138 -0.959301 -1.25041 0
M  V30 3470 C 329.048 -0.489994 -2.29426 0
M  V30 3471 C 330.064 0.444944 -1.68215 0
M  V30 3472 O 331.24 0.320046 -1.98841 0
M  V30 3473 C 328.305 0.220309 -3.45999 0
M  V30 3474 C 327.366 -0.753418 -4.22637 0
M  V30 3475 C 326.599 -0.076918 -5.33645 0
M  V30 3476 O 326.822 1.13649 -5.58963 0
M  V30 3477 O 325.756 -0.764824 -5.97021 0
M  V30 3478 H 329.582 -1.35755 -2.71669 0
M  V30 3479 H 327.167 -0.725961 -1.30576 0
M  V30 3480 H 329.049 0.619677 -4.16819 0
M  V30 3481 H 327.724 1.06296 -3.0575 0
M  V30 3482 H 326.631 -1.20308 -3.54227 0
M  V30 3483 H 327.964 -1.56423 -4.66683 0
M  V30 3484 N 329.616 1.39756 -0.72842 0
M  V30 3485 C 330.546 2.33289 -0.0991354 0
M  V30 3486 C 331.527 1.53568 0.731489 0
M  V30 3487 O 332.712 1.81987 0.677807 0
M  V30 3488 C 329.842 3.3763 0.813834 0
M  V30 3489 C 328.796 4.2791 0.0878663 0
M  V30 3490 C 328.122 5.22894 1.11741 0
M  V30 3491 C 329.422 5.11314 -1.06563 0
M  V30 3492 H 331.116 2.86163 -0.880408 0
M  V30 3493 H 328.662 1.37591 -0.424819 0
M  V30 3494 H 330.615 4.0201 1.26355 0
M  V30 3495 H 329.339 2.83181 1.62715 0
M  V30 3496 H 327.998 3.65 -0.342159 0
M  V30 3497 H 327.646 4.64744 1.92412 0
M  V30 3498 H 327.346 5.84143 0.636477 0
M  V30 3499 H 328.87 5.90151 1.56697 0
M  V30 3500 H 330.284 5.69076 -0.694671 0
M  V30 3501 H 328.681 5.81671 -1.47577 0
M  V30 3502 H 329.751 4.46534 -1.89038 0
M  V30 3503 N 331.094 0.475555 1.50254 0
M  V30 3504 C 332.024 -0.30611 2.31485 0
M  V30 3505 C 333.005 -0.986228 1.38591 0
M  V30 3506 O 334.19 -0.982541 1.67511 0
M  V30 3507 C 331.32 -1.38588 3.1845 0
M  V30 3508 C 330.274 -0.827115 4.19932 0
M  V30 3509 C 329.6 -2.00551 4.95665 0
M  V30 3510 C 330.9 0.16463 5.2204 0
M  V30 3511 H 332.594 0.371866 2.97082 0
M  V30 3512 H 330.14 0.180282 1.42867 0
M  V30 3513 H 332.093 -1.94023 3.74076 0
M  V30 3514 H 330.817 -2.09269 2.50747 0
M  V30 3515 H 329.476 -0.294702 3.65414 0
M  V30 3516 H 329.124 -2.6994 4.2443 0
M  V30 3517 H 328.824 -1.63784 5.64313 0
M  V30 3518 H 330.348 -2.56468 5.54127 0
M  V30 3519 H 331.762 -0.300699 5.72511 0
M  V30 3520 H 330.159 0.446813 5.98434 0
M  V30 3521 H 331.229 1.08905 4.72512 0
M  V30 3522 N 332.573 -1.56217 0.208337 0
M  V30 3523 C 333.503 -2.22694 -0.702116 0
M  V30 3524 C 334.484 -1.19432 -1.2112 0
M  V30 3525 O 335.669 -1.47978 -1.25762 0
M  V30 3526 C 332.799 -2.8966 -1.9161 0
M  V30 3527 C 331.753 -3.9928 -1.5414 0
M  V30 3528 C 331.079 -4.53476 -2.83308 0
M  V30 3529 C 332.379 -5.17012 -0.741339 0
M  V30 3530 H 334.073 -2.99034 -0.147898 0
M  V30 3531 H 331.619 -1.43831 -0.0696951 0
M  V30 3532 H 333.572 -3.34852 -2.55836 0
M  V30 3533 H 332.296 -2.10746 -2.49507 0
M  V30 3534 H 330.955 -3.54799 -0.922668 0
M  V30 3535 H 330.603 -3.71308 -3.39322 0
M  V30 3536 H 330.303 -5.27451 -2.58976 0
M  V30 3537 H 331.827 -5.01378 -3.485 0
M  V30 3538 H 333.241 -5.58667 -1.28699 0
M  V30 3539 H 331.638 -5.97137 -0.595627 0
M  V30 3540 H 332.708 -4.8423 0.254851 0
M  V30 3541 N 334.051 0.0651679 -1.57465 0
M  V30 3542 C 334.961 1.09448 -2.07505 0
M  V30 3543 C 335.977 1.41974 -1.00595 0
M  V30 3544 O 337.153 1.52018 -1.32107 0
M  V30 3545 C 334.218 2.38689 -2.51453 0
M  V30 3546 C 333.279 2.13073 -3.72691 0
M  V30 3547 C 332.512 3.36152 -4.14533 0
M  V30 3548 O 332.735 4.45517 -3.56189 0
M  V30 3549 O 331.669 3.23974 -5.07272 0
M  V30 3550 H 335.495 0.69935 -2.95538 0
M  V30 3551 H 333.08 0.279752 -1.46757 0
M  V30 3552 H 334.962 3.14736 -2.80212 0
M  V30 3553 H 333.637 2.77568 -1.66546 0
M  V30 3554 H 332.544 1.34709 -3.49005 0
M  V30 3555 H 333.877 1.79071 -4.5847 0
M  V30 3556 N 335.529 1.53961 0.336706 0
M  V30 3557 C 336.775 1.7179 1.07777 0
M  V30 3558 C 337.108 0.483263 1.88091 0
M  V30 3559 O 336.383 -0.519747 1.87427 0
M  V30 3560 C 336.666 2.98558 2.01334 0
M  V30 3561 C 336.519 4.32245 1.24437 0
M  V30 3562 C 337.838 3.21023 3.01052 0
M  V30 3563 H 334.957 0.625089 0.390426 0
M  V30 3564 H 337.599 1.86641 0.35567 0
M  V30 3565 H 335.749 2.86028 2.62908 0
M  V30 3566 H 337.421 4.56637 0.654243 0
M  V30 3567 H 335.664 4.30344 0.546458 0
M  V30 3568 H 336.335 5.17137 1.93063 0
M  V30 3569 H 338.811 3.32929 2.49595 0
M  V30 3570 H 337.687 4.11104 3.6371 0
M  V30 3571 H 337.948 2.37637 3.72802 0
M  V30 3572 N 337.007 -0.598083 1.45811 0
M  V30 3573 C 337.955 -1.72932 1.55555 0
M  V30 3574 C 338.949 -1.63984 0.424921 0
M  V30 3575 O 340.155 -1.69663 0.601205 0
M  V30 3576 H 336.53 -0.571489 0.488779 0
M  V30 3577 H 338.501 -1.61842 2.50699 0
M  V30 3578 C 337.25 -3.11318 1.54843 0
M  V30 3579 H 336.573 -3.18867 2.41172 0
M  V30 3580 H 338.013 -3.90274 1.65717 0
M  V30 3581 C 336.472 -3.3578 0.274427 0
M  V30 3582 O 337.002 -3.9654 -0.641778 0
M  V30 3583 N 335.208 -2.90119 0.167139 0
M  V30 3584 H 334.755 -2.40855 0.913596 0
M  V30 3585 H 334.713 -3.0686 -0.684435 0
M  V30 3586 N 338.485 -1.33259 -0.841409 0
M  V30 3587 C 339.415 -1.25926 -1.96634 0
M  V30 3588 C 340.396 -0.140349 -1.6952 0
M  V30 3589 O 341.581 -0.329707 -1.91381 0
M  V30 3590 C 338.711 -0.99512 -3.32738 0
M  V30 3591 C 337.665 -2.0767 -3.74242 0
M  V30 3592 C 336.991 -1.66474 -5.08125 0
M  V30 3593 C 338.291 -3.49318 -3.88297 0
M  V30 3594 H 339.985 -2.20046 -2.03027 0
M  V30 3595 H 337.531 -1.05931 -0.975425 0
M  V30 3596 H 339.484 -0.930323 -4.11002 0
M  V30 3597 H 338.208 -0.0183004 -3.26595 0
M  V30 3598 H 336.867 -2.13187 -2.98239 0
M  V30 3599 H 336.515 -0.675012 -4.9845 0
M  V30 3600 H 336.215 -2.3885 -5.36865 0
M  V30 3601 H 337.739 -1.61455 -5.88867 0
M  V30 3602 H 339.153 -3.46316 -4.56879 0
M  V30 3603 H 337.55 -4.20158 -4.28471 0
M  V30 3604 H 338.62 -3.8801 -2.9082 0
M  V30 3605 N 339.963 1.05934 -1.16686 0
M  V30 3606 C 341.211 1.78447 -0.948744 0
M  V30 3607 C 341.532 1.87813 0.524523 0
M  V30 3608 O 340.802 1.38945 1.38098 0
M  V30 3609 H 339.382 0.660971 -0.348033 0
M  V30 3610 H 342.044 1.27947 -1.47022 0
M  V30 3611 H 341.14 2.80394 -1.37061 0
M  V30 3612 N 341.441 0.965919 1.2453 0
M  V30 3613 C 342.404 0.499547 2.2369 0
M  V30 3614 C 343.404 -0.40294 1.5567 0
M  V30 3615 O 344.594 -0.19865 1.73064 0
M  V30 3616 C 341.726 -0.276792 3.39774 0
M  V30 3617 H 342.919 1.37613 2.66463 0
M  V30 3618 H 340.472 0.750324 1.37112 0
M  V30 3619 H 341.207 -1.17055 3.02438 0
M  V30 3620 H 340.992 0.370826 3.90343 0
M  V30 3621 H 342.482 -0.592175 4.1338 0
M  V30 3622 N 342.919 -1.39368 0.735821 0
M  V30 3623 C 344.147 -2.04795 0.294393 0
M  V30 3624 C 344.562 -1.55478 -1.07107 0
M  V30 3625 O 343.919 -0.720038 -1.67695 0
M  V30 3626 C 343.97 -3.6035 0.288071 0
M  V30 3627 O 343.691 -4.07852 1.59963 0
M  V30 3628 C 345.192 -4.42976 -0.169422 0
M  V30 3629 H 342.412 -0.658571 0.128551 0
M  V30 3630 H 344.956 -1.78399 0.999701 0
M  V30 3631 H 343.111 -3.85645 -0.368355 0
M  V30 3632 H 343.525 -5.02181 1.51375 0
M  V30 3633 H 344.999 -5.51864 -0.122687 0
M  V30 3634 H 345.476 -4.22068 -1.21472 0
M  V30 3635 H 346.082 -4.22832 0.457469 0
M  V30 3636 N 344.397 -0.483516 -1.5 0
M  V30 3637 C 345.36 0.292965 -2.2732 0
M  V30 3638 C 346.36 0.909499 -1.32608 0
M  V30 3639 O 347.55 0.776745 -1.55924 0
M  V30 3640 C 344.682 1.41854 -3.09984 0
M  V30 3641 H 345.875 -0.385289 -2.97415 0
M  V30 3642 H 343.428 -0.237942 -1.54478 0
M  V30 3643 H 344.163 2.13148 -2.44414 0
M  V30 3644 H 343.948 0.982114 -3.79601 0
M  V30 3645 H 345.438 1.96597 -3.68429 0
M  V30 3646 N 345.875 1.56104 -0.216619 0
M  V30 3647 C 347.124 1.97348 0.416744 0
M  V30 3648 C 347.437 1.10715 1.6125 0
M  V30 3649 O 348.643 1.41836 2.31506 0
M  V30 3650 C 347.099 3.51059 0.792835 0
M  V30 3651 C 346.707 4.46387 -0.379828 0
M  V30 3652 C 348.451 4.01026 1.39208 0
M  V30 3653 C 346.358 5.91397 0.0184223 0
M  V30 3654 H 345.288 0.736942 0.159475 0
M  V30 3655 H 347.939 1.80827 -0.31205 0
M  V30 3656 H 346.321 3.63162 1.57891 0
M  V30 3657 H 347.495 4.46029 -1.15737 0
M  V30 3658 H 345.81 4.06734 -0.891979 0
M  V30 3659 H 348.407 5.0686 1.70286 0
M  V30 3660 H 348.75 3.46587 2.30614 0
M  V30 3661 H 349.283 3.92125 0.669537 0
M  V30 3662 H 346.022 6.49807 -0.862002 0
M  V30 3663 H 345.542 5.94961 0.760384 0
M  V30 3664 H 347.221 6.45455 0.446818 0
M  V30 3665 N 347.353 -0.0568162 1.57498 0
M  V30 3666 C 348.601 -0.751617 1.87604 0
M  V30 3667 C 348.922 -1.77351 0.81066 0
M  V30 3668 O 348.192 -1.95254 -0.159018 0
M  V30 3669 H 346.772 -0.280583 0.692302 0
M  V30 3670 H 349.434 -0.0293483 1.94878 0
M  V30 3671 H 348.53 -1.25852 2.856 0
M  V30 3672 N 348.832 -1.54138 -0.328536 0
M  V30 3673 C 350.06 -1.76062 -1.08673 0
M  V30 3674 C 350.475 -0.506852 -1.81869 0
M  V30 3675 O 349.832 0.522223 -1.74869 0
M  V30 3676 C 349.883 -2.95054 -2.08866 0
M  V30 3677 O 349.604 -4.15583 -1.38644 0
M  V30 3678 C 351.105 -3.2915 -2.96943 0
M  V30 3679 H 348.325 -0.587889 -0.323461 0
M  V30 3680 H 350.869 -2.0101 -0.376175 0
M  V30 3681 H 349.024 -2.72394 -2.75464 0
M  V30 3682 H 349.438 -4.82481 -2.05699 0
M  V30 3683 H 350.912 -4.15723 -3.63151 0
M  V30 3684 H 351.389 -2.461 -3.63774 0
M  V30 3685 H 351.995 -3.53871 -2.35914 0
M  V30 3686 N 350.31 0.590341 -1.46126 0
M  V30 3687 C 351.558 1.34616 -1.50742 0
M  V30 3688 C 351.879 1.94363 -0.157486 0
M  V30 3689 O 351.149 1.78136 0.815136 0
M  V30 3690 H 349.729 0.499789 -0.555175 0
M  V30 3691 H 352.391 0.691953 -1.82203 0
M  V30 3692 H 351.487 2.15678 -2.25587 0
M  V30 3693 N 351.788 1.33704 0.83433 0
M  V30 3694 C 352.718 1.26967 1.95963 0
M  V30 3695 C 353.699 0.149337 1.69443 0
M  V30 3696 O 354.884 0.339852 1.91203 0
M  V30 3697 C 352.014 1.01275 3.32206 0
M  V30 3698 C 350.968 2.09652 3.73136 0
M  V30 3699 C 350.294 1.69166 5.07235 0
M  V30 3700 C 351.594 3.51372 3.86439 0
M  V30 3701 H 353.288 2.2112 2.01857 0
M  V30 3702 H 350.834 1.06447 0.969793 0
M  V30 3703 H 352.787 0.952106 4.10503 0
M  V30 3704 H 351.511 0.0356203 3.26581 0
M  V30 3705 H 350.17 2.14766 2.97104 0
M  V30 3706 H 349.818 0.701437 4.98085 0
M  V30 3707 H 349.518 2.41694 5.35591 0
M  V30 3708 H 351.042 1.64576 5.88003 0
M  V30 3709 H 352.456 3.48734 4.55036 0
M  V30 3710 H 350.853 4.22425 4.26236 0
M  V30 3711 H 351.923 3.89546 2.88759 0
M  V30 3712 N 353.266 -1.05314 1.17247 0
M  V30 3713 C 354.214 -2.15137 0.884238 0
M  V30 3714 C 355.208 -1.68729 -0.15063 0
M  V30 3715 O 356.414 -1.8 -0.00366673 0
M  V30 3716 H 352.789 -0.702471 0.2684 0
M  V30 3717 H 354.76 -2.36652 1.81764 0
M  V30 3718 C 353.509 -3.45243 0.412659 0
M  V30 3719 H 352.832 -3.81352 1.20043 0
M  V30 3720 H 354.272 -4.23263 0.249858 0
M  V30 3721 C 352.731 -3.25487 -0.86948 0
M  V30 3722 O 353.261 -3.51938 -1.93655 0
M  V30 3723 N 351.467 -2.78875 -0.817147 0
M  V30 3724 H 351.014 -2.57549 0.0514211 0
M  V30 3725 H 350.972 -2.66036 -1.67547 0
M  V30 3726 N 354.744 -0.972509 -1.24016 0
M  V30 3727 C 355.972 -0.654803 -1.96265 0
M  V30 3728 C 356.387 0.776708 -1.72083 0
M  V30 3729 O 355.744 1.52171 -1.00748 0
M  V30 3730 C 355.795 -0.92592 -3.49441 0
M  V30 3731 O 355.516 -2.30116 -3.72798 0
M  V30 3732 C 357.017 -0.623068 -4.38899 0
M  V30 3733 H 354.237 -0.243907 -0.6251 0
M  V30 3734 H 356.781 -1.30175 -1.57717 0
M  V30 3735 H 354.936 -0.325108 -3.86033 0
M  V30 3736 H 355.35 -2.38483 -4.67147 0
M  V30 3737 H 356.824 -0.863189 -5.45209 0
M  V30 3738 H 357.301 0.442754 -4.36963 0
M  V30 3739 H 357.907 -1.204 -4.07902 0
M  V30 3740 N 356.222 1.38976 -0.743202 0
M  V30 3741 C 357.633 1.83123 -0.363732 0
M  V30 3742 C 357.984 1.6205 1.10609 0
M  V30 3743 O 357.109 1.11606 1.854 0
M  V30 3744 C 357.704 3.32439 -0.653408 0
M  V30 3745 C 356.263 3.74974 -0.327338 0
M  V30 3746 C 355.41 2.61878 -0.911875 0
M  V30 3747 H 358.361 1.27852 -0.940191 0
M  V30 3748 H 358.382 3.80432 0.0720031 0
M  V30 3749 H 357.894 3.47745 -1.72323 0
M  V30 3750 H 355.995 3.65252 0.736314 0
M  V30 3751 H 356.108 4.72106 -0.815631 0
M  V30 3752 H 354.472 2.52448 -0.337944 0
M  V30 3753 H 355.255 2.79987 -1.98651 0
M  V30 3754 N 357.7 0.491464 1.49741 0
M  V30 3755 C 358.647 -0.292027 2.28945 0
M  V30 3756 C 359.617 -0.968973 1.34908 0
M  V30 3757 O 360.802 -0.97748 1.6386 0
M  V30 3758 C 357.942 -1.35617 3.17336 0
M  V30 3759 C 357.055 -0.691957 4.26422 0
M  V30 3760 C 356.19 -1.73572 5.02042 0
M  V30 3761 C 355.229 -1.05286 6.02977 0
M  V30 3762 N 354.366 -2.0404 6.71798 0
M  V30 3763 H 359.206 0.389654 2.95442 0
M  V30 3764 H 356.743 0.204003 1.45679 0
M  V30 3765 H 358.701 -1.98502 3.66951 0
M  V30 3766 H 357.331 -2.00674 2.52844 0
M  V30 3767 H 356.383 0.0499523 3.80367 0
M  V30 3768 H 357.695 -0.153946 4.98562 0
M  V30 3769 H 356.849 -2.43987 5.55478 0
M  V30 3770 H 355.588 -2.30757 4.29654 0
M  V30 3771 H 354.593 -0.334446 5.48782 0
M  V30 3772 H 355.818 -0.487636 6.77347 0
M  V30 3773 H 353.764 -2.60205 6.02187 0
M  V30 3774 H 353.681 -1.55279 7.39881 0
M  V30 3775 H 354.949 -2.73772 7.29842 0
M  V30 3776 N 359.178 -1.55987 0.224894 0
M  V30 3777 C 360.088 -2.24066 -0.69511 0
M  V30 3778 C 361.104 -1.24939 -1.21104 0
M  V30 3779 O 362.28 -1.5776 -1.25195 0
M  V30 3780 C 359.345 -2.90983 -1.88493 0
M  V30 3781 C 358.406 -4.05462 -1.41064 0
M  V30 3782 C 357.639 -4.69179 -2.54375 0
M  V30 3783 O 357.862 -4.31895 -3.72589 0
M  V30 3784 O 356.796 -5.58108 -2.25386 0
M  V30 3785 H 360.622 -3.03353 -0.145149 0
M  V30 3786 H 358.207 -1.49399 -0.00569476 0
M  V30 3787 H 360.089 -3.33209 -2.57972 0
M  V30 3788 H 358.764 -2.14653 -2.42293 0
M  V30 3789 H 357.671 -3.67798 -0.683774 0
M  V30 3790 H 359.004 -4.83545 -0.918985 0
M  V30 3791 N 360.656 0.0484629 -1.57525 0
M  V30 3792 C 361.886 0.754326 -1.92337 0
M  V30 3793 C 362.294 1.70443 -0.82132 0
M  V30 3794 O 361.637 1.82466 0.21254 0
M  V30 3795 C 361.699 1.58231 -3.22805 0
M  V30 3796 C 361.363 0.799074 -4.4996 0
M  V30 3797 C 362.36 0.1079 -5.19788 0
M  V30 3798 C 360.045 0.759345 -4.96527 0
M  V30 3799 C 362.039 -0.612516 -6.3445 0
M  V30 3800 C 359.726 0.0351713 -6.1109 0
M  V30 3801 C 360.724 -0.649537 -6.79904 0
M  V30 3802 O 360.412 -1.36199 -7.92278 0
M  V30 3803 H 360.144 0.218257 -0.639797 0
M  V30 3804 H 362.698 0.0159295 -2.05394 0
M  V30 3805 H 360.928 2.36406 -3.06021 0
M  V30 3806 H 362.617 2.16898 -3.43089 0
M  V30 3807 H 363.383 0.129748 -4.84826 0
M  V30 3808 H 359.262 1.28177 -4.42822 0
M  V30 3809 H 362.806 -1.14751 -6.88097 0
M  V30 3810 H 358.703 0.0113314 -6.45499 0
M  V30 3811 H 359.471 -1.27366 -8.0853 0
M  V30 3812 N 362.134 1.5431 0.320358 0
M  V30 3813 C 363.359 1.76954 1.08175 0
M  V30 3814 C 363.784 0.518193 1.80821 0
M  V30 3815 O 363.142 -0.530411 1.73368 0
M  V30 3816 C 363.19 2.96451 2.05303 0
M  V30 3817 O 362.294 2.68221 3.13259 0
M  V30 3818 H 361.635 0.586275 0.311733 0
M  V30 3819 H 364.165 2.01342 0.363676 0
M  V30 3820 H 364.175 3.23887 2.48116 0
M  V30 3821 H 362.85 3.87196 1.51829 0
M  V30 3822 H 361.427 2.51744 2.75099 0
M  V30 3823 N 363.613 -0.582584 1.46437 0
M  V30 3824 C 365.024 -1.1647 1.45916 0
M  V30 3825 C 365.375 -1.95177 0.200077 0
M  V30 3826 O 364.5 -2.04874 -0.696819 0
M  V30 3827 C 365.095 -2.11885 2.64367 0
M  V30 3828 C 363.654 -2.65421 2.66887 0
M  V30 3829 C 362.801 -1.41294 2.38603 0
M  V30 3830 H 365.752 -0.370514 1.54314 0
M  V30 3831 H 365.773 -2.9535 2.39892 0
M  V30 3832 H 365.285 -1.54573 3.5599 0
M  V30 3833 H 363.386 -3.26602 1.79338 0
M  V30 3834 H 363.499 -3.08147 3.66854 0
M  V30 3835 H 361.863 -1.71109 1.88663 0
M  V30 3836 H 362.646 -0.858125 3.32402 0
M  V30 3837 N 365.091 -1.34144 -0.827227 0
M  V30 3838 C 366.021 -1.28005 -1.95287 0
M  V30 3839 C 367.002 -0.158321 -1.69362 0
M  V30 3840 O 368.187 -0.349987 -1.9102 0
M  V30 3841 C 365.317 -1.03036 -3.31664 0
M  V30 3842 C 364.271 -2.11628 -3.72019 0
M  V30 3843 C 363.597 -1.71854 -5.0633 0
M  V30 3844 C 364.897 -3.53417 -3.8457 0
M  V30 3845 H 366.591 -2.22187 -2.00682 0
M  V30 3846 H 364.137 -1.0696 -0.964135 0
M  V30 3847 H 366.09 -0.973863 -4.09993 0
M  V30 3848 H 364.814 -0.0529391 -3.26557 0
M  V30 3849 H 363.473 -2.16339 -2.95961 0
M  V30 3850 H 363.121 -0.727841 -4.97706 0
M  V30 3851 H 362.821 -2.44531 -5.34302 0
M  V30 3852 H 364.345 -1.67692 -5.87122 0
M  V30 3853 H 365.759 -3.51142 -4.5318 0
M  V30 3854 H 364.156 -4.24679 -4.2399 0
M  V30 3855 H 365.226 -3.91072 -2.86689 0
M  V30 3856 N 366.569 1.04691 -1.17803 0
M  V30 3857 C 367.532 2.10724 -0.901545 0
M  V30 3858 C 368.532 1.6042 0.110437 0
M  V30 3859 O 369.722 1.7377 -0.122303 0
M  V30 3860 C 366.854 3.39084 -0.351409 0
M  V30 3861 H 368.047 2.36686 -1.84174 0
M  V30 3862 H 365.6 1.21015 -0.98919 0
M  V30 3863 H 366.335 3.18782 0.59569 0
M  V30 3864 H 366.12 3.76909 -1.08083 0
M  V30 3865 H 367.61 4.17227 -0.176451 0
M  V30 3866 N 368.047 0.979072 1.23499 0
M  V30 3867 C 369.293 0.648178 1.92163 0
M  V30 3868 C 369.626 -0.816049 1.76222 0
M  V30 3869 O 368.901 -1.58849 1.12237 0
M  V30 3870 C 369.184 1.03773 3.44824 0
M  V30 3871 C 369.037 2.55948 3.69879 0
M  V30 3872 C 370.356 0.580653 4.36253 0
M  V30 3873 H 367.475 0.236952 0.69787 0
M  V30 3874 H 370.117 1.22012 1.45647 0
M  V30 3875 H 368.267 0.551058 3.84572 0
M  V30 3876 H 369.939 3.12179 3.3962 0
M  V30 3877 H 368.182 2.98641 3.14636 0
M  V30 3878 H 368.853 2.78255 4.76737 0
M  V30 3879 H 371.329 0.998465 4.03943 0
M  V30 3880 H 370.205 0.881663 5.41773 0
M  V30 3881 H 370.466 -0.519052 4.39042 0
M  V30 3882 N 369.525 -1.3858 0.750561 0
M  V30 3883 C 370.472 -2.30483 0.120835 0
M  V30 3884 C 371.442 -1.50022 -0.712923 0
M  V30 3885 O 372.627 -1.78662 -0.669676 0
M  V30 3886 C 369.767 -3.36431 -0.768666 0
M  V30 3887 C 368.88 -4.31927 0.0793922 0
M  V30 3888 C 368.015 -5.24944 -0.81283 0
M  V30 3889 C 367.054 -6.12088 0.0390447 0
M  V30 3890 N 366.191 -6.97412 -0.809969 0
M  V30 3891 H 371.031 -2.83761 0.91015 0
M  V30 3892 H 368.568 -1.39707 0.460463 0
M  V30 3893 H 370.526 -3.96462 -1.29898 0
M  V30 3894 H 369.156 -2.8457 -1.5238 0
M  V30 3895 H 368.208 -3.73382 0.727303 0
M  V30 3896 H 369.52 -4.93319 0.737401 0
M  V30 3897 H 368.674 -5.90078 -1.41042 0
M  V30 3898 H 367.413 -4.63911 -1.50458 0
M  V30 3899 H 366.418 -5.45952 0.649328 0
M  V30 3900 H 367.643 -6.75189 0.727809 0
M  V30 3901 H 365.589 -6.38931 -1.48672 0
M  V30 3902 H 365.506 -7.55712 -0.208789 0
M  V30 3903 H 366.774 -7.66959 -1.39263 0
M  V30 3904 N 371.003 -0.499398 -1.49478 0
M  V30 3905 C 371.95 0.279881 -2.29097 0
M  V30 3906 C 372.92 0.961805 -1.3542 0
M  V30 3907 O 374.105 0.968777 -1.64376 0
M  V30 3908 C 371.245 1.33932 -3.18051 0
M  V30 3909 C 370.358 0.669333 -4.26783 0
M  V30 3910 C 369.493 1.70907 -5.02955 0
M  V30 3911 C 368.532 1.02087 -6.03527 0
M  V30 3912 N 367.669 2.00474 -6.7287 0
M  V30 3913 H 372.509 -0.405317 -2.95231 0
M  V30 3914 H 370.046 -0.211726 -1.45568 0
M  V30 3915 H 372.004 1.96553 -3.67998 0
M  V30 3916 H 370.634 1.9933 -2.53904 0
M  V30 3917 H 369.686 -0.0701234 -3.80335 0
M  V30 3918 H 370.998 0.127503 -4.98637 0
M  V30 3919 H 370.152 2.41037 -5.56764 0
M  V30 3920 H 368.891 2.28476 -4.30871 0
M  V30 3921 H 367.896 0.305338 -5.48951 0
M  V30 3922 H 369.121 0.451708 -6.77596 0
M  V30 3923 H 367.067 2.57007 -6.03559 0
M  V30 3924 H 366.984 1.51353 -7.40694 0
M  V30 3925 H 368.252 2.69897 -7.31284 0
M  V30 3926 N 372.481 1.55866 -0.233164 0
M  V30 3927 C 373.411 2.23783 0.666599 0
M  V30 3928 C 374.392 1.21343 1.19205 0
M  V30 3929 O 375.577 1.4996 1.23392 0
M  V30 3930 C 372.707 2.92671 1.86978 0
M  V30 3931 C 371.661 4.01682 1.47768 0
M  V30 3932 C 370.987 4.57926 2.76058 0
M  V30 3933 C 372.287 5.18126 0.658993 0
M  V30 3934 H 373.981 2.99232 0.100306 0
M  V30 3935 H 371.527 1.43924 0.046804 0
M  V30 3936 H 373.48 3.3888 2.50476 0
M  V30 3937 H 372.204 2.14688 2.46123 0
M  V30 3938 H 370.863 3.56222 0.866106 0
M  V30 3939 H 370.511 3.76659 3.33372 0
M  V30 3940 H 370.211 5.31505 2.50552 0
M  V30 3941 H 371.735 5.06859 3.40479 0
M  V30 3942 H 373.149 5.60644 1.19795 0
M  V30 3943 H 371.546 5.98009 0.500552 0
M  V30 3944 H 372.616 4.83763 -0.331856 0
M  V30 3945 N 373.959 -0.0401083 1.57549 0
M  V30 3946 C 374.922 -1.02871 2.04817 0
M  V30 3947 C 375.922 -1.29708 0.950388 0
M  V30 3948 O 377.112 -1.24897 1.21435 0
M  V30 3949 C 374.244 -2.36443 2.45576 0
M  V30 3950 H 375.437 -0.620631 2.93408 0
M  V30 3951 H 372.99 -0.286667 1.53649 0
M  V30 3952 H 373.725 -2.82021 1.60108 0
M  V30 3953 H 373.51 -2.18296 3.25713 0
M  V30 3954 H 375 -3.07441 2.82612 0
M  V30 3955 N 375.437 -1.54477 -0.31217 0
M  V30 3956 C 376.347 -1.87695 -1.4074 0
M  V30 3957 C 377.363 -0.769975 -1.56036 0
M  V30 3958 O 378.539 -1.06537 -1.70915 0
M  V30 3959 C 375.604 -2.10755 -2.75287 0
M  V30 3960 C 374.665 -3.34514 -2.69071 0
M  V30 3961 C 373.898 -3.56465 -3.97201 0
M  V30 3962 O 374.121 -2.81637 -4.96021 0
M  V30 3963 O 373.055 -4.49964 -3.9977 0
M  V30 3964 H 376.881 -2.80849 -1.15574 0
M  V30 3965 H 374.466 -1.40526 -0.507228 0
M  V30 3966 H 376.348 -2.27188 -3.54913 0
M  V30 3967 H 375.023 -1.20788 -3.0032 0
M  V30 3968 H 373.93 -3.23456 -1.87955 0
M  V30 3969 H 375.263 -4.24575 -2.48992 0
M  V30 3970 N 376.915 0.57481 -1.46744 0
M  V30 3971 C 378.161 1.3347 -1.52688 0
M  V30 3972 C 378.494 1.93353 -0.181229 0
M  V30 3973 O 377.769 1.76912 0.808237 0
M  V30 3974 C 378.052 2.45811 -2.63152 0
M  V30 3975 C 377.905 1.90912 -4.07275 0
M  V30 3976 C 379.224 3.47822 -2.69644 0
M  V30 3977 H 376.343 0.483935 -0.555856 0
M  V30 3978 H 378.985 0.644968 -1.78718 0
M  V30 3979 H 377.135 3.04646 -2.41088 0
M  V30 3980 H 378.807 1.36473 -4.4065 0
M  V30 3981 H 377.05 1.21691 -4.16382 0
M  V30 3982 H 377.721 2.72042 -4.80309 0
M  V30 3983 H 380.197 2.9888 -2.895 0
M  V30 3984 H 379.073 4.23876 -3.48742 0
M  V30 3985 H 379.334 4.05555 -1.76005 0
M  V30 3986 N 378.394 1.34581 0.820102 0
M  V30 3987 C 379.622 1.3018 1.60813 0
M  V30 3988 C 380.037 -0.123551 1.88395 0
M  V30 3989 O 379.394 -1.07148 1.47735 0
M  V30 3990 C 379.445 2.09312 2.94739 0
M  V30 3991 O 379.166 3.46288 2.68358 0
M  V30 3992 C 380.667 2.1234 3.89136 0
M  V30 3993 H 377.887 0.447726 0.499782 0
M  V30 3994 H 380.431 1.77237 1.02017 0
M  V30 3995 H 378.586 1.65889 3.50085 0
M  V30 3996 H 379 3.87227 3.53774 0
M  V30 3997 H 380.474 2.72126 4.80262 0
M  V30 3998 H 380.951 1.11854 4.24718 0
M  V30 3999 H 381.557 2.55864 3.39726 0
M  V30 4000 N 379.872 -1.04064 1.18357 0
M  V30 4001 C 381.12 -1.76915 0.977013 0
M  V30 4002 C 381.441 -1.88624 -0.494577 0
M  V30 4003 O 380.711 -1.41125 -1.3587 0
M  V30 4004 H 379.291 -0.65535 0.358504 0
M  V30 4005 H 381.953 -1.25592 1.49039 0
M  V30 4006 H 381.049 -2.78178 1.41504 0
M  V30 4007 N 381.35 -0.985608 -1.22978 0
M  V30 4008 C 382.597 -0.657386 -1.91532 0
M  V30 4009 C 382.925 0.809707 -1.76845 0
M  V30 4010 O 382.18 1.60021 -1.12658 0
M  V30 4011 C 382.479 -1.00014 -3.43121 0
M  V30 4012 C 382.145 -2.4583 -3.77993 0
M  V30 4013 C 380.807 -2.85679 -3.87222 0
M  V30 4014 C 383.159 -3.40378 -3.94705 0
M  V30 4015 C 380.487 -4.19081 -4.10595 0
M  V30 4016 C 382.839 -4.73429 -4.1958 0
M  V30 4017 C 381.503 -5.1303 -4.27032 0
M  V30 4018 H 380.773 -0.240555 -0.700867 0
M  V30 4019 H 383.42 -1.24044 -1.45895 0
M  V30 4020 H 381.725 -0.335072 -3.90365 0
M  V30 4021 H 383.422 -0.724322 -3.94404 0
M  V30 4022 H 380.012 -2.13939 -3.71387 0
M  V30 4023 H 384.196 -3.10766 -3.8696 0
M  V30 4024 H 379.452 -4.49362 -4.14589 0
M  V30 4025 H 383.626 -5.46644 -4.31455 0
M  V30 4026 H 381.253 -6.16418 -4.44896 0
M  V30 4027 N 382.828 1.3818 -0.7579 0
M  V30 4028 C 384.239 1.82726 -0.383134 0
M  V30 4029 C 384.59 1.63214 1.08884 0
M  V30 4030 O 383.715 1.13566 1.84205 0
M  V30 4031 C 384.31 3.31728 -0.688631 0
M  V30 4032 C 382.869 3.74606 -0.367091 0
M  V30 4033 C 382.016 2.60896 -0.939599 0
M  V30 4034 H 384.967 1.26847 -0.953699 0
M  V30 4035 H 384.988 3.80487 0.0316492 0
M  V30 4036 H 384.5 3.45898 -1.76001 0
M  V30 4037 H 382.601 3.66013 0.697532 0
M  V30 4038 H 382.714 4.71215 -0.865658 0
M  V30 4039 H 381.078 2.52075 -0.3647 0
M  V30 4040 H 381.861 2.77864 -2.0161 0
M  V30 4041 N 384.306 0.507319 1.49211 0
M  V30 4042 C 385.546 -0.0332372 2.04373 0
M  V30 4043 C 385.91 -1.33694 1.37804 0
M  V30 4044 O 387.111 -1.96213 1.83722 0
M  V30 4045 C 385.382 -0.17599 3.56966 0
M  V30 4046 S 386.941 -0.669882 4.33657 0
M  V30 4047 H 383.759 0.00123603 0.710999 0
M  V30 4048 H 386.361 0.682725 1.83191 0
M  V30 4049 H 385.065 0.778053 4.02957 0
M  V30 4050 H 384.596 -0.917005 3.82563 0
M  V30 4051 H 386.611 -1.93806 4.56786 0
M  V30 4052 N 385.784 -1.5574 0.241426 0
M  V30 4053 C 387.03 -1.99104 -0.385406 0
M  V30 4054 C 387.363 -1.1293 -1.57988 0
M  V30 4055 O 386.638 -0.191449 -1.93555 0
M  V30 4056 C 386.921 -3.51087 -0.800616 0
M  V30 4057 C 386.774 -4.48028 0.398874 0
M  V30 4058 C 388.093 -4.08015 -1.64959 0
M  V30 4059 H 385.212 -0.723848 -0.138614 0
M  V30 4060 H 387.854 -1.86903 0.341642 0
M  V30 4061 H 386.004 -3.61615 -1.4201 0
M  V30 4062 H 387.676 -4.49487 1.03726 0
M  V30 4063 H 385.919 -4.21077 1.04293 0
M  V30 4064 H 386.59 -5.51962 0.0651056 0
M  V30 4065 H 389.066 -4.00555 -1.12672 0
M  V30 4066 H 387.942 -5.14635 -1.90898 0
M  V30 4067 H 388.203 -3.56131 -2.61961 0
M  V30 4068 N 387.262 0.0317525 -1.57568 0
M  V30 4069 C 388.673 0.578692 -1.77505 0
M  V30 4070 C 389.024 1.75749 -0.872164 0
M  V30 4071 O 388.149 2.16298 -0.0663106 0
M  V30 4072 C 388.744 1.05658 -3.21904 0
M  V30 4073 C 387.303 1.54906 -3.43047 0
M  V30 4074 C 386.45 0.485939 -2.73009 0
M  V30 4075 H 389.401 -0.194475 -1.57504 0
M  V30 4076 H 389.422 1.92404 -3.28269 0
M  V30 4077 H 388.934 0.198422 -3.87592 0
M  V30 4078 H 387.035 2.42915 -2.82529 0
M  V30 4079 H 387.148 1.59841 -4.5165 0
M  V30 4080 H 385.512 0.940354 -2.36705 0
M  V30 4081 H 386.295 -0.362709 -3.41379 0
M  V30 4082 N 388.74 1.54641 0.303973 0
M  V30 4083 C 389.703 1.84646 1.35789 0
M  V30 4084 C 390.703 0.7192 1.4382 0
M  V30 4085 O 391.893 0.987491 1.43507 0
M  V30 4086 C 389.025 2.02407 2.74307 0
M  V30 4087 H 390.218 2.78829 1.10429 0
M  V30 4088 H 387.771 1.46658 0.540487 0
M  V30 4089 H 388.506 1.10502 3.04893 0
M  V30 4090 H 388.291 2.84453 2.69868 0
M  V30 4091 H 389.781 2.27002 3.50514 0
M  V30 4092 N 390.218 -0.567019 1.47046 0
M  V30 4093 C 391.128 -1.70247 1.6141 0
M  V30 4094 C 392.144 -1.66746 0.497157 0
M  V30 4095 O 393.32 -1.86371 0.763389 0
M  V30 4096 C 390.385 -3.06756 1.61561 0
M  V30 4097 C 389.446 -3.21399 2.84607 0
M  V30 4098 C 388.679 -4.51396 2.84741 0
M  V30 4099 O 388.902 -5.36255 1.94388 0
M  V30 4100 O 387.836 -4.69621 3.76483 0
M  V30 4101 H 391.662 -1.61073 2.57467 0
M  V30 4102 H 389.247 -0.735894 1.30019 0
M  V30 4103 H 391.129 -3.8801 1.64396 0
M  V30 4104 H 389.804 -3.16333 0.686684 0
M  V30 4105 H 388.711 -2.39579 2.8732 0
M  V30 4106 H 390.044 -3.16721 3.76761 0
M  V30 4107 N 391.696 -1.35014 -0.812953 0
M  V30 4108 C 392.973 -1.18502 -1.55617 0
M  V30 4109 C 393.353 0.238421 -2.09749 0
M  V30 4110 O 392.701 1.2411 -1.91857 0
M  V30 4111 C 392.911 -2.24783 -2.66971 0
M  V30 4112 C 394.259 -2.60268 -3.35478 0
M  V30 4113 O 395.283 -2.23648 -2.77236 0
M  V30 4114 O 394.142 -3.2321 -4.40678 0
M  V30 4115 H 391.236 -0.459984 -0.687272 0
M  V30 4116 H 393.782 -1.46677 -0.853464 0
M  V30 4117 H 392.554 -3.20284 -2.24798 0
M  V30 4118 H 392.177 -1.97841 -3.44884 0
M  V30 4119 N 393.175 1.03435 -1.18907 0
M  V30 4120 C 394.105 2.13503 -0.945448 0
M  V30 4121 C 395.086 1.69682 0.119189 0
M  V30 4122 O 396.271 1.94169 -0.034707 0
M  V30 4123 C 393.401 3.44004 -0.477316 0
M  V30 4124 C 392.355 4.0148 -1.48316 0
M  V30 4125 C 391.681 5.27537 -0.872311 0
M  V30 4126 C 392.981 4.36921 -2.86177 0
M  V30 4127 H 394.675 2.34141 -1.86597 0
M  V30 4128 H 392.221 1.12523 -0.898584 0
M  V30 4129 H 394.174 4.20372 -0.294204 0
M  V30 4130 H 392.898 3.23072 0.478786 0
M  V30 4131 H 391.557 3.27201 -1.65332 0
M  V30 4132 H 391.205 5.02917 0.0911752 0
M  V30 4133 H 390.905 5.66954 -1.54393 0
M  V30 4134 H 392.429 6.06576 -0.699871 0
M  V30 4135 H 393.843 5.04248 -2.72776 0
M  V30 4136 H 392.24 4.87405 -3.50081 0
M  V30 4137 H 393.31 3.46466 -3.39248 0
M  V30 4138 N 394.653 0.992116 1.22453 0
M  V30 4139 C 395.902 0.662992 1.90492 0
M  V30 4140 C 396.215 -0.808407 1.78113 0
M  V30 4141 O 397.421 -1.24908 2.41061 0
M  V30 4142 C 395.877 1.1353 3.41524 0
M  V30 4143 C 395.485 2.63187 3.62542 0
M  V30 4144 C 397.229 0.880465 4.15269 0
M  V30 4145 C 395.136 3.04024 5.0727 0
M  V30 4146 H 394.066 0.244278 0.713333 0
M  V30 4147 H 396.717 1.20157 1.38688 0
M  V30 4148 H 395.099 0.52485 3.92506 0
M  V30 4149 H 396.273 3.2957 3.22056 0
M  V30 4150 H 394.588 2.86543 3.02129 0
M  V30 4151 H 397.185 1.16128 5.21937 0
M  V30 4152 H 397.528 -0.183408 4.15896 0
M  V30 4153 H 398.061 1.45307 3.70312 0
M  V30 4154 H 394.8 4.09584 5.11782 0
M  V30 4155 H 394.32 2.42343 5.48662 0
M  V30 4156 H 395.999 2.95282 5.75689 0
M  V30 4157 N 396.131 -1.37776 0.765217 0
M  V30 4158 C 397.041 -2.34135 0.147666 0
M  V30 4159 C 398.057 -1.59854 -0.687215 0
M  V30 4160 O 399.233 -1.91983 -0.608659 0
M  V30 4161 C 396.298 -3.3901 -0.72617 0
M  V30 4162 C 395.359 -4.2912 0.124417 0
M  V30 4163 C 394.592 -5.28986 -0.707807 0
M  V30 4164 O 394.815 -5.36205 -1.94525 0
M  V30 4165 O 393.749 -6.01779 -0.12046 0
M  V30 4166 H 397.575 -2.88664 0.943758 0
M  V30 4167 H 395.16 -1.39824 0.526277 0
M  V30 4168 H 397.042 -4.03195 -1.22524 0
M  V30 4169 H 395.717 -2.86819 -1.50056 0
M  V30 4170 H 394.624 -3.68057 0.669696 0
M  V30 4171 H 395.957 -4.84598 0.861736 0
M  V30 4172 N 397.609 -0.515225 -1.4894 0
M  V30 4173 C 398.572 0.244681 -2.2789 0
M  V30 4174 C 399.572 0.881166 -1.34507 0
M  V30 4175 O 400.762 0.743497 -1.57537 0
M  V30 4176 C 397.894 1.35247 -3.12923 0
M  V30 4177 H 399.087 -0.448289 -2.96531 0
M  V30 4178 H 396.64 -0.270656 -1.53939 0
M  V30 4179 H 397.375 2.07916 -2.48881 0
M  V30 4180 H 397.16 0.901374 -3.81599 0
M  V30 4181 H 398.65 1.88737 -3.72516 0
M  V30 4182 N 399.087 1.5561 -0.249682 0
M  V30 4183 C 400.315 2.03411 0.378352 0
M  V30 4184 C 400.73 1.12886 1.51335 0
M  V30 4185 O 400.087 0.143833 1.81932 0
M  V30 4186 C 400.138 3.50537 0.88351 0
M  V30 4187 O 399.859 4.37614 -0.20626 0
M  V30 4188 C 401.36 4.14113 1.58195 0
M  V30 4189 H 398.58 0.664994 0.08958 0
M  V30 4190 H 401.124 2.01044 -0.374357 0
M  V30 4191 H 399.279 3.5343 1.58639 0
M  V30 4192 H 399.693 5.24199 0.177782 0
M  V30 4193 H 401.167 5.18741 1.8871 0
M  V30 4194 H 401.644 3.60767 2.50487 0
M  V30 4195 H 402.25 4.15151 0.923573 0
M  V30 4196 N 400.565 -0.0233959 1.57583 0
M  V30 4197 C 401.79 -0.728376 1.94189 0
M  V30 4198 C 402.215 -1.67793 0.850119 0
M  V30 4199 O 401.573 -1.80262 -0.19371 0
M  V30 4200 C 401.621 -1.45669 3.29868 0
M  V30 4201 O 400.725 -2.57013 3.22518 0
M  V30 4202 H 400.066 -0.195493 0.63457 0
M  V30 4203 H 402.596 0.0228214 2.04587 0
M  V30 4204 H 402.606 -1.82535 3.6489 0
M  V30 4205 H 401.281 -0.760314 4.08891 0
M  V30 4206 H 399.858 -2.22648 2.99136 0
M  V30 4207 N 402.043 -1.548 -0.295768 0
M  V30 4208 C 403.32 -1.65014 -1.05023 0
M  V30 4209 C 403.7 -0.501805 -2.05049 0
M  V30 4210 O 403.048 0.500869 -2.22943 0
M  V30 4211 C 403.258 -3.03252 -1.72741 0
M  V30 4212 C 404.606 -3.60242 -2.24746 0
M  V30 4213 O 405.63 -3.05737 -1.82765 0
M  V30 4214 O 404.489 -4.55687 -3.01681 0
M  V30 4215 H 401.583 -0.669314 -0.485744 0
M  V30 4216 H 404.129 -1.67144 -0.293438 0
M  V30 4217 H 402.901 -3.7827 -1.00138 0
M  V30 4218 H 402.524 -3.04922 -2.55163 0
M  V30 4219 N 403.521 0.559213 -1.47345 0
M  V30 4220 C 404.761 1.32728 -1.55444 0
M  V30 4221 C 405.125 1.90838 -0.210895 0
M  V30 4222 O 406.326 2.68282 -0.166719 0
M  V30 4223 C 404.597 2.4092 -2.63993 0
M  V30 4224 S 406.156 3.2784 -2.91661 0
M  V30 4225 H 402.974 0.451883 -0.548929 0
M  V30 4226 H 405.576 0.640404 -1.84714 0
M  V30 4227 H 404.28 1.9666 -3.60212 0
M  V30 4228 H 403.811 3.14351 -2.36531 0
M  V30 4229 H 405.826 4.40341 -2.28722 0
M  V30 4230 N 404.999 1.35443 0.805782 0
M  V30 4231 C 406.247 1.28507 1.55982 0
M  V30 4232 C 406.568 -0.140046 1.94496 0
M  V30 4233 O 405.838 -1.07666 1.63661 0
M  V30 4234 H 404.418 0.472676 0.578434 0
M  V30 4235 H 407.08 1.69555 0.961098 0
M  V30 4236 H 406.176 1.90148 2.47488 0
M  V30 4237 N 406.477 -1.02803 1.19454 0
M  V30 4238 C 407.44 -2.09264 0.934955 0
M  V30 4239 C 408.44 -1.60576 -0.0849015 0
M  V30 4240 O 409.63 -1.73554 0.149933 0
M  V30 4241 C 406.762 -3.38482 0.40531 0
M  V30 4242 H 407.955 -2.33726 1.87916 0
M  V30 4243 H 405.508 -1.19426 1.00832 0
M  V30 4244 H 406.243 -3.19689 -0.544899 0
M  V30 4245 H 406.028 -3.75142 1.14065 0
M  V30 4246 H 407.518 -4.16894 0.242806 0
M  V30 4247 N 407.956 -0.998596 -1.21925 0
M  V30 4248 C 409.186 -0.695276 -1.94549 0
M  V30 4249 C 409.594 0.745079 -1.73911 0
M  V30 4250 O 408.937 1.51507 -1.03881 0
M  V30 4251 C 408.999 -0.928485 -3.47303 0
M  V30 4252 C 408.663 -2.35443 -3.91683 0
M  V30 4253 C 409.66 -3.33428 -3.98901 0
M  V30 4254 C 407.345 -2.69038 -4.24174 0
M  V30 4255 C 409.339 -4.63079 -4.37992 0
M  V30 4256 C 407.026 -3.98906 -4.62944 0
M  V30 4257 C 408.024 -4.95738 -4.69822 0
M  V30 4258 O 407.712 -6.23285 -5.07711 0
M  V30 4259 H 407.444 -0.255902 -0.625692 0
M  V30 4260 H 409.998 -1.33767 -1.5587 0
M  V30 4261 H 408.228 -0.228917 -3.86022 0
M  V30 4262 H 409.917 -0.619539 -4.01144 0
M  V30 4263 H 410.683 -3.08807 -3.73983 0
M  V30 4264 H 406.562 -1.94367 -4.18022 0
M  V30 4265 H 410.106 -5.38658 -4.43275 0
M  V30 4266 H 406.003 -4.23314 -4.87314 0
M  V30 4267 H 406.771 -6.27306 -5.25766 0
M  V30 4268 N 409.434 1.37368 -0.772513 0
M  V30 4269 C 410.68 1.99969 -0.337681 0
M  V30 4270 C 411.013 1.61184 1.08321 0
M  V30 4271 O 410.288 0.858395 1.74533 0
M  V30 4272 C 410.571 3.56858 -0.482121 0
M  V30 4273 C 410.424 4.0555 -1.94549 0
M  V30 4274 C 411.743 4.39955 0.113143 0
M  V30 4275 H 408.862 0.726464 -0.124171 0
M  V30 4276 H 411.504 1.63034 -0.975699 0
M  V30 4277 H 409.654 3.88452 0.0610361 0
M  V30 4278 H 411.326 3.84518 -2.54841 0
M  V30 4279 H 409.569 3.57715 -2.45403 0
M  V30 4280 H 410.24 5.14587 -1.9976 0
M  V30 4281 H 412.716 4.14623 -0.35031 0
M  V30 4282 H 411.592 5.48897 -0.0180514 0
M  V30 4283 H 411.853 4.25403 1.20354 0
M  V30 4284 N 410.912 0.523116 1.48665 0
M  V30 4285 C 411.845 -0.290518 2.26343 0
M  V30 4286 C 412.823 -0.950913 1.31895 0
M  V30 4287 O 414.007 -0.976662 1.61225 0
M  V30 4288 C 411.134 -1.41088 3.07915 0
M  V30 4289 C 410.18 -0.862597 4.17686 0
M  V30 4290 S 411.013 0.264135 5.34848 0
M  V30 4291 C 412.169 -0.858864 6.19979 0
M  V30 4292 H 412.402 0.368726 2.95005 0
M  V30 4293 H 409.935 0.30878 1.51281 0
M  V30 4294 H 411.893 -2.0527 3.55492 0
M  V30 4295 H 410.554 -2.04182 2.38681 0
M  V30 4296 H 409.747 -1.70287 4.74361 0
M  V30 4297 H 409.349 -0.297595 3.72814 0
M  V30 4298 H 411.641 -1.7591 6.54264 0
M  V30 4299 H 412.584 -0.330244 7.07329 0
M  V30 4300 H 412.992 -1.13617 5.52948 0
M  V30 4301 N 412.39 -1.55475 0.257931 0
M  V30 4302 C 413.636 -1.99502 -0.364266 0
M  V30 4303 C 413.969 -1.146 -1.56782 0
M  V30 4304 O 413.244 -0.211968 -1.93342 0
M  V30 4305 C 413.527 -3.51917 -0.763333 0
M  V30 4306 C 413.38 -4.4758 0.446371 0
M  V30 4307 C 414.699 -4.09742 -1.60623 0
M  V30 4308 H 411.818 -0.725277 -0.130929 0
M  V30 4309 H 414.46 -1.8653 0.361446 0
M  V30 4310 H 412.61 -3.63101 -1.38166 0
M  V30 4311 H 414.282 -4.48362 1.08487 0
M  V30 4312 H 412.525 -4.19947 1.08753 0
M  V30 4313 H 413.196 -5.51862 0.123645 0
M  V30 4314 H 415.672 -4.01727 -1.08418 0
M  V30 4315 H 414.548 -5.16631 -1.85429 0
M  V30 4316 H 414.809 -3.58889 -2.58169 0
M  V30 4317 N 413.868 0.0150385 -1.57593 0
M  V30 4318 C 414.818 1.01943 -2.0394 0
M  V30 4319 C 415.802 1.31209 -0.931286 0
M  V30 4320 O 416.994 1.30559 -1.19513 0
M  V30 4321 C 414.123 2.31621 -2.53391 0
M  V30 4322 C 413.209 2.05384 -3.7105 0
M  V30 4323 N 413.6 1.49253 -4.83278 0
M  V30 4324 C 411.898 2.35601 -3.78693 0
M  V30 4325 C 412.599 1.39143 -5.64813 0
M  V30 4326 N 411.575 1.87187 -5.10355 0
M  V30 4327 H 415.377 0.57969 -2.88126 0
M  V30 4328 H 412.891 0.221056 -1.60888 0
M  V30 4329 H 414.888 3.044 -2.84862 0
M  V30 4330 H 413.548 2.76261 -1.70616 0
M  V30 4331 H 414.559 1.17334 -5.04433 0
M  V30 4332 H 411.236 2.8322 -3.06746 0
M  V30 4333 H 412.626 0.961153 -6.6499 0
M  V30 4334 N 415.346 1.54954 0.287554 0
M  V30 4335 C 416.594 1.74528 1.01904 0
M  V30 4336 C 416.915 0.541349 1.87335 0
M  V30 4337 O 416.185 -0.444108 1.908 0
M  V30 4338 H 414.765 0.643576 0.379235 0
M  V30 4339 H 417.427 1.92333 0.315294 0
M  V30 4340 H 416.523 2.64015 1.6644 0
M  V30 4341 N 416.824 -0.551391 1.4764 0
M  V30 4342 C 417.787 -1.64007 1.60107 0
M  V30 4343 C 418.787 -1.53601 0.47576 0
M  V30 4344 O 419.977 -1.57655 0.740988 0
M  V30 4345 C 417.109 -3.03569 1.55108 0
M  V30 4346 H 418.302 -1.543 2.57161 0
M  V30 4347 H 415.855 -0.771776 1.35917 0
M  V30 4348 H 416.59 -3.18804 0.594519 0
M  V30 4349 H 416.375 -3.12532 2.36783 0
M  V30 4350 H 417.865 -3.82762 1.66982 0
M  V30 4351 N 418.302 -1.35869 -0.798587 0
M  V30 4352 C 419.232 -1.32118 -1.92528 0
M  V30 4353 C 420.213 -0.194209 -1.68988 0
M  V30 4354 O 421.398 -0.390426 -1.90235 0
M  V30 4355 C 418.528 -1.10047 -3.29404 0
M  V30 4356 C 417.482 -2.19471 -3.67446 0
M  V30 4357 C 416.808 -1.82555 -5.02571 0
M  V30 4358 C 418.108 -3.61495 -3.76987 0
M  V30 4359 H 419.802 -2.26394 -1.95924 0
M  V30 4360 H 417.348 -1.08981 -0.94123 0
M  V30 4361 H 419.301 -1.06061 -4.07835 0
M  V30 4362 H 418.025 -0.122195 -3.26371 0
M  V30 4363 H 416.684 -2.22568 -2.91306 0
M  V30 4364 H 416.332 -0.833249 -4.9605 0
M  V30 4365 H 416.032 -2.5581 -5.28995 0
M  V30 4366 H 417.556 -1.80108 -5.83432 0
M  V30 4367 H 418.97 -3.60676 -4.4563 0
M  V30 4368 H 417.367 -4.33577 -4.14887 0
M  V30 4369 H 418.437 -3.97065 -2.78329 0
M  V30 4370 N 419.78 1.02168 -1.19998 0
M  V30 4371 C 420.727 2.10601 -0.944228 0
M  V30 4372 C 421.697 1.65639 0.123664 0
M  V30 4373 O 422.882 1.9079 -0.0199941 0
M  V30 4374 C 420.022 3.41504 -0.496865 0
M  V30 4375 C 419.135 3.99973 -1.63234 0
M  V30 4376 C 418.27 5.18915 -1.13579 0
M  V30 4377 C 417.309 5.69456 -2.24468 0
M  V30 4378 N 416.446 6.79665 -1.76068 0
M  V30 4379 H 421.286 2.31814 -1.8726 0
M  V30 4380 H 418.823 1.13686 -0.933483 0
M  V30 4381 H 420.781 4.16626 -0.218843 0
M  V30 4382 H 419.411 3.2038 0.394508 0
M  V30 4383 H 418.463 3.21997 -2.0254 0
M  V30 4384 H 419.775 4.33492 -2.46752 0
M  V30 4385 H 418.929 6.01222 -0.813429 0
M  V30 4386 H 417.668 4.8695 -0.270434 0
M  V30 4387 H 416.673 4.85757 -2.57526 0
M  V30 4388 H 417.898 6.03459 -3.11472 0
M  V30 4389 H 415.844 6.49538 -0.918516 0
M  V30 4390 H 415.761 7.12349 -2.5317 0
M  V30 4391 H 417.029 7.65549 -1.46817 0
M  V30 4392 N 421.258 1.00505 1.21394 0
M  V30 4393 C 422.674 0.717873 1.42544 0
M  V30 4394 C 422.874 -0.706936 1.88692 0
M  V30 4395 O 421.93 -1.47627 2.04847 0
M  V30 4396 C 423.243 1.73377 2.45684 0
M  V30 4397 C 424.791 1.75059 2.59467 0
M  V30 4398 C 425.266 2.75545 3.6584 0
M  V30 4399 N 426.757 2.74213 3.73311 0
M  V30 4400 C 427.492 3.48626 4.55245 0
M  V30 4401 N 426.988 4.32678 5.41075 0
M  V30 4402 N 428.781 3.37276 4.49668 0
M  V30 4403 H 420.932 1.92506 0.897503 0
M  V30 4404 H 423.195 0.830919 0.456375 0
M  V30 4405 H 422.901 2.75395 2.18748 0
M  V30 4406 H 422.775 1.53647 3.44489 0
M  V30 4407 H 425.162 0.737337 2.8574 0
M  V30 4408 H 425.243 1.98861 1.60897 0
M  V30 4409 H 424.887 3.77028 3.40313 0
M  V30 4410 H 424.817 2.49009 4.64007 0
M  V30 4411 H 427.308 2.13234 3.11993 0
M  V30 4412 H 427.621 4.86253 6.00648 0
M  V30 4413 H 425.966 4.3676 5.40616 0
M  V30 4414 H 429.157 2.71043 3.81646 0
M  V30 4415 H 429.33 3.95524 5.13288 0
M  V30 4416 N 422.737 -1.36956 0.779787 0
M  V30 4417 C 423.667 -2.32761 0.185651 0
M  V30 4418 C 424.648 -1.56177 -0.673989 0
M  V30 4419 O 425.833 -1.84378 -0.609797 0
M  V30 4420 C 422.963 -3.40418 -0.687964 0
M  V30 4421 C 421.917 -4.27941 0.0710102 0
M  V30 4422 C 421.243 -5.26681 -0.922573 0
M  V30 4423 C 422.543 -5.07006 1.25467 0
M  V30 4424 H 424.237 -2.82698 0.986008 0
M  V30 4425 H 421.783 -1.3592 0.475592 0
M  V30 4426 H 423.736 -4.06423 -1.11348 0
M  V30 4427 H 422.46 -2.89025 -1.52093 0
M  V30 4428 H 421.119 -3.63478 0.47739 0
M  V30 4429 H 420.767 -4.71565 -1.7503 0
M  V30 4430 H 420.467 -5.86103 -0.419237 0
M  V30 4431 H 421.991 -5.9556 -1.34686 0
M  V30 4432 H 423.405 -5.66105 0.905401 0
M  V30 4433 H 421.802 -5.75793 1.69063 0
M  V30 4434 H 422.872 -4.3921 2.05481 0
M  V30 4435 N 424.215 -0.530993 -1.48385 0
M  V30 4436 C 425.178 0.220497 -2.28137 0
M  V30 4437 C 426.178 0.866851 -1.35434 0
M  V30 4438 O 427.368 0.726746 -1.58316 0
M  V30 4439 C 424.5 1.31921 -3.1434 0
M  V30 4440 H 425.693 -0.479714 -2.96038 0
M  V30 4441 H 423.246 -0.286968 -1.53643 0
M  V30 4442 H 423.981 2.05264 -2.51072 0
M  V30 4443 H 423.766 0.86085 -3.82533 0
M  V30 4444 H 425.256 1.84776 -3.74497 0
M  V30 4445 N 425.693 1.55336 -0.266172 0
M  V30 4446 C 426.939 1.99692 0.353681 0
M  V30 4447 C 427.272 1.1543 1.56172 0
M  V30 4448 O 426.547 0.222218 1.93226 0
M  V30 4449 C 426.83 3.52316 0.74466 0
M  V30 4450 C 426.683 4.47337 -0.470101 0
M  V30 4451 C 428.002 4.10588 1.58447 0
M  V30 4452 H 425.121 0.725961 0.12708 0
M  V30 4453 H 427.763 1.86336 -0.371333 0
M  V30 4454 H 425.913 3.63829 1.36239 0
M  V30 4455 H 427.585 4.4778 -1.10864 0
M  V30 4456 H 425.828 4.19364 -1.10978 0
M  V30 4457 H 426.499 5.51788 -0.15291 0
M  V30 4458 H 428.975 4.02297 1.06286 0
M  V30 4459 H 427.851 5.17607 1.82686 0
M  V30 4460 H 428.112 3.60253 2.56262 0
M  V30 4461 N 427.171 -0.0066808 1.57599 0
M  V30 4462 C 428.118 -1.00024 2.08 0
M  V30 4463 C 429.088 -1.34549 0.973943 0
M  V30 4464 O 430.273 -1.44502 1.24595 0
M  V30 4465 C 427.413 -2.2891 2.58252 0
M  V30 4466 C 426.526 -2.00346 3.82734 0
M  V30 4467 C 425.661 -3.23265 4.21513 0
M  V30 4468 C 424.7 -2.90357 5.3885 0
M  V30 4469 N 423.837 -4.05793 5.72954 0
M  V30 4470 H 428.677 -0.563499 2.92624 0
M  V30 4471 H 426.214 -0.266592 1.44664 0
M  V30 4472 H 428.172 -3.04247 2.85464 0
M  V30 4473 H 426.802 -2.70265 1.76512 0
M  V30 4474 H 425.854 -1.15406 3.62471 0
M  V30 4475 H 427.166 -1.72086 4.68175 0
M  V30 4476 H 426.32 -4.06953 4.49971 0
M  V30 4477 H 425.059 -3.54657 3.34768 0
M  V30 4478 H 424.064 -2.05075 5.10122 0
M  V30 4479 H 425.289 -2.60219 6.27266 0
M  V30 4480 H 423.235 -4.37094 4.89167 0
M  V30 4481 H 423.152 -3.81034 6.52954 0
M  V30 4482 H 424.42 -4.90289 6.06001 0
M  V30 4483 N 428.649 -1.55105 -0.279332 0
M  V30 4484 C 429.582 -1.82467 -1.37044 0
M  V30 4485 C 430.56 -0.677261 -1.47824 0
M  V30 4486 O 431.744 -0.919578 -1.64548 0
M  V30 4487 C 428.871 -1.98066 -2.7475 0
M  V30 4488 C 427.917 -3.20594 -2.81286 0
M  V30 4489 S 428.75 -4.78116 -2.41175 0
M  V30 4490 C 429.906 -4.9668 -3.80867 0
M  V30 4491 H 430.139 -2.74728 -1.1363 0
M  V30 4492 H 427.672 -1.46794 -0.478625 0
M  V30 4493 H 429.63 -2.07739 -3.54055 0
M  V30 4494 H 428.291 -1.06704 -2.9542 0
M  V30 4495 H 427.484 -3.28376 -3.82341 0
M  V30 4496 H 427.086 -3.09479 -2.09996 0
M  V30 4497 H 429.378 -4.82033 -4.76078 0
M  V30 4498 H 430.321 -5.98741 -3.78041 0
M  V30 4499 H 430.729 -4.24698 -3.71876 0
M  V30 4500 N 430.127 0.543554 -1.4793 0
M  V30 4501 C 431.352 1.32995 -1.59145 0
M  V30 4502 C 431.777 1.86472 -0.246956 0
M  V30 4503 O 431.135 1.63696 0.779324 0
M  V30 4504 C 431.183 2.46623 -2.63077 0
M  V30 4505 O 430.287 3.49261 -2.19295 0
M  V30 4506 H 429.628 0.394472 -0.534124 0
M  V30 4507 H 432.158 0.655489 -1.93816 0
M  V30 4508 H 432.168 2.93001 -2.83926 0
M  V30 4509 H 430.843 2.07059 -3.60693 0
M  V30 4510 H 429.42 3.09094 -2.08603 0
M  V30 4511 N 431.605 1.3629 0.791371 0
M  V30 4512 C 432.552 1.30458 1.90393 0
M  V30 4513 C 433.522 0.173632 1.6519 0
M  V30 4514 O 434.707 0.35983 1.87376 0
M  V30 4515 C 431.847 1.09777 3.27174 0
M  V30 4516 C 430.96 2.31929 3.64462 0
M  V30 4517 C 430.095 2.04276 4.90352 0
M  V30 4518 C 429.134 3.224 5.20312 0
M  V30 4519 N 428.271 2.94424 6.37385 0
M  V30 4520 H 433.111 2.25589 1.94714 0
M  V30 4521 H 430.648 1.12122 0.952216 0
M  V30 4522 H 432.606 0.958133 4.06049 0
M  V30 4523 H 431.236 0.183014 3.22281 0
M  V30 4524 H 430.288 2.56703 2.80727 0
M  V30 4525 H 431.6 3.20085 3.82553 0
M  V30 4526 H 430.754 1.87231 5.77087 0
M  V30 4527 H 429.493 1.13428 4.74326 0
M  V30 4528 H 428.498 3.40005 4.32061 0
M  V30 4529 H 429.723 4.14071 5.38258 0
M  V30 4530 H 427.669 2.06185 6.22755 0
M  V30 4531 H 427.586 3.76118 6.55798 0
M  V30 4532 H 428.854 2.80953 7.27108 0
M  V30 4533 N 433.083 -1.0153 1.20538 0
M  V30 4534 C 434.332 -1.74558 1.01057 0
M  V30 4535 C 434.645 -1.90168 -0.457756 0
M  V30 4536 O 435.851 -2.60301 -0.771722 0
M  V30 4537 C 434.307 -3.13963 1.75941 0
M  V30 4538 C 433.915 -3.06361 3.26875 0
M  V30 4539 C 435.659 -3.91191 1.64832 0
M  V30 4540 C 433.566 -4.40782 3.94291 0
M  V30 4541 H 432.496 -0.654417 0.374505 0
M  V30 4542 H 435.147 -1.13521 1.44171 0
M  V30 4543 H 433.529 -3.75549 1.25614 0
M  V30 4544 H 434.703 -2.54074 3.84425 0
M  V30 4545 H 433.018 -2.42625 3.38411 0
M  V30 4546 H 435.615 -4.90644 2.12539 0
M  V30 4547 H 435.958 -4.11884 0.604745 0
M  V30 4548 H 436.491 -3.36236 2.12579 0
M  V30 4549 H 433.23 -4.25292 4.98805 0
M  V30 4550 H 432.75 -4.9307 3.41529 0
M  V30 4551 H 434.429 -5.09621 3.98617 0
M  V30 4552 N 434.561 -1.01147 -1.20859 0
M  V30 4553 C 435.801 -0.706331 -1.91808 0
M  V30 4554 C 436.165 0.749736 -1.76757 0
M  V30 4555 O 437.366 1.16716 -2.42138 0
M  V30 4556 C 435.637 -1.12371 -3.39275 0
M  V30 4557 S 437.196 -0.939764 -4.28619 0
M  V30 4558 H 434.014 -0.257665 -0.662669 0
M  V30 4559 H 436.616 -1.29766 -1.46223 0
M  V30 4560 H 435.32 -2.17943 -3.47749 0
M  V30 4561 H 434.851 -0.524952 -3.89882 0
M  V30 4562 H 436.866 0.159556 -4.95943 0
M  V30 4563 N 436.039 1.36541 -0.78704 0
M  V30 4564 C 436.987 2.31965 -0.171724 0
M  V30 4565 C 437.981 1.55689 0.667631 0
M  V30 4566 O 439.187 1.70969 0.562981 0
M  V30 4567 H 435.562 0.751101 -0.0367545 0
M  V30 4568 H 437.533 2.81428 -0.992017 0
M  V30 4569 C 436.282 3.40968 0.680904 0
M  V30 4570 H 435.605 3.99775 0.0443961 0
M  V30 4571 H 437.045 4.10063 1.07815 0
M  V30 4572 C 435.504 2.82338 1.83813 0
M  V30 4573 O 436.034 2.74311 2.93456 0
M  V30 4574 N 434.24 2.39661 1.6435 0
M  V30 4575 H 433.787 2.46389 0.751668 0
M  V30 4576 H 433.745 2.00779 2.4194 0
M  V30 4577 N 437.518 0.538854 1.48102 0
M  V30 4578 C 438.795 -0.0568108 1.95517 0
M  V30 4579 C 439.175 -1.50408 1.48124 0
M  V30 4580 O 438.523 -2.17133 0.711727 0
M  V30 4581 C 438.733 0.0696262 3.48931 0
M  V30 4582 C 440.081 -0.0851202 4.24515 0
M  V30 4583 O 441.105 -0.0037347 3.562 0
M  V30 4584 O 439.964 -0.257025 5.45895 0
M  V30 4585 H 437.058 -0.0743695 0.823649 0
M  V30 4586 H 439.604 0.604081 1.58584 0
M  V30 4587 H 438.376 1.07744 3.76174 0
M  V30 4588 H 437.999 -0.629714 3.92582 0
M  V30 4589 N 438.996 -1.55193 0.274407 0
M  V30 4590 C 439.926 -2.25471 -0.607032 0
M  V30 4591 C 440.907 -1.24461 -1.15946 0
M  V30 4592 O 442.092 -1.53179 -1.19373 0
M  V30 4593 C 439.222 -2.97526 -1.79153 0
M  V30 4594 C 438.176 -4.05459 -1.37067 0
M  V30 4595 C 437.502 -4.65084 -2.6382 0
M  V30 4596 C 438.802 -5.19691 -0.521389 0
M  V30 4597 H 440.496 -2.99393 -0.0209343 0
M  V30 4598 H 438.042 -1.43997 -0.00862866 0
M  V30 4599 H 439.995 -3.45402 -2.41404 0
M  V30 4600 H 438.719 -2.21138 -2.40344 0
M  V30 4601 H 437.378 -3.58393 -0.771355 0
M  V30 4602 H 437.026 -3.85365 -3.23268 0
M  V30 4603 H 436.726 -5.37961 -2.36372 0
M  V30 4604 H 438.25 -5.15708 -3.26921 0
M  V30 4605 H 439.664 -5.63623 -1.04889 0
M  V30 4606 H 438.061 -5.99126 -0.341825 0
M  V30 4607 H 439.131 -4.82713 0.46 0
M  V30 4608 N 440.474 -0.00167713 -1.576 0
M  V30 4609 C 441.89 0.354422 -1.55615 0
M  V30 4610 C 442.09 1.74679 -1.00447 0
M  V30 4611 O 441.146 2.4428 -0.639022 0
M  V30 4612 C 442.459 0.22812 -2.99833 0
M  V30 4613 C 444.007 0.302934 -3.11531 0
M  V30 4614 C 444.482 0.205737 -4.57538 0
M  V30 4615 N 445.973 0.263584 -4.62449 0
M  V30 4616 C 446.708 0.211742 -5.73009 0
M  V30 4617 N 446.204 0.110399 -6.92712 0
M  V30 4618 N 447.997 0.263729 -5.61481 0
M  V30 4619 H 440.148 -0.912498 -1.918 0
M  V30 4620 H 442.411 -0.349928 -0.881053 0
M  V30 4621 H 442.117 -0.729934 -3.44042 0
M  V30 4622 H 441.991 1.00951 -3.6344 0
M  V30 4623 H 444.378 1.25143 -2.67251 0
M  V30 4624 H 444.459 -0.508357 -2.50698 0
M  V30 4625 H 444.103 -0.739225 -5.02492 0
M  V30 4626 H 444.033 1.03554 -5.16318 0
M  V30 4627 H 446.524 0.343173 -3.76339 0
M  V30 4628 H 446.837 0.0767828 -7.72762 0
M  V30 4629 H 445.182 0.0760025 -6.94958 0
M  V30 4630 H 448.373 0.34111 -4.66855 0
M  V30 4631 H 448.546 0.219862 -6.47627 0
M  V30 4632 N 441.952 1.55251 0.271103 0
M  V30 4633 C 442.882 1.9127 1.33933 0
M  V30 4634 C 443.863 0.77478 1.5143 0
M  V30 4635 O 445.048 1.03307 1.64442 0
M  V30 4636 C 442.178 2.18627 2.69851 0
M  V30 4637 C 441.132 3.34442 2.67081 0
M  V30 4638 C 440.458 3.47284 4.06569 0
M  V30 4639 C 441.758 4.70784 2.26185 0
M  V30 4640 H 443.452 2.80744 1.04035 0
M  V30 4641 H 440.998 1.35077 0.499017 0
M  V30 4642 H 442.951 2.42413 3.44694 0
M  V30 4643 H 441.675 1.25955 3.01335 0
M  V30 4644 H 440.334 3.10627 1.94695 0
M  V30 4645 H 439.982 2.52074 4.35279 0
M  V30 4646 H 439.682 4.25152 4.0561 0
M  V30 4647 H 441.206 3.73363 4.83148 0
M  V30 4648 H 442.62 4.94102 2.90751 0
M  V30 4649 H 441.017 5.51582 2.36384 0
M  V30 4650 H 442.087 4.69478 1.21319 0
M  V30 4651 N 443.43 -0.535701 1.48216 0
M  V30 4652 C 444.36 -1.65014 1.65204 0
M  V30 4653 C 445.341 -1.62554 0.501011 0
M  V30 4654 O 446.526 -1.7984 0.732886 0
M  V30 4655 C 443.656 -3.03616 1.68626 0
M  V30 4656 C 442.61 -3.20932 2.83172 0
M  V30 4657 C 441.936 -4.60537 2.71679 0
M  V30 4658 C 443.236 -3.04249 4.24535 0
M  V30 4659 H 444.93 -1.51053 2.58502 0
M  V30 4660 H 442.476 -0.725262 1.24402 0
M  V30 4661 H 444.429 -3.81446 1.79099 0
M  V30 4662 H 443.153 -3.18587 0.719026 0
M  V30 4663 H 441.812 -2.45517 2.72244 0
M  V30 4664 H 441.46 -4.72336 1.72937 0
M  V30 4665 H 441.16 -4.73069 3.48538 0
M  V30 4666 H 442.684 -5.40475 2.84112 0
M  V30 4667 H 444.098 -3.71877 4.36326 0
M  V30 4668 H 442.495 -3.28278 5.02348 0
M  V30 4669 H 443.565 -2.00739 4.41397 0
M  V30 4670 N 444.908 -1.36708 -0.784132 0
M  V30 4671 C 446.133 -1.34565 -1.5782 0
M  V30 4672 C 446.558 0.0695257 -1.87971 0
M  V30 4673 O 445.916 1.04302 -1.48293 0
M  V30 4674 C 445.964 -2.17952 -2.87279 0
M  V30 4675 O 445.068 -1.57563 -3.81114 0
M  V30 4676 H 444.409 -0.460337 -0.478524 0
M  V30 4677 H 446.939 -1.80064 -0.971495 0
M  V30 4678 H 446.949 -2.30721 -3.365 0
M  V30 4679 H 445.624 -3.20823 -2.64661 0
M  V30 4680 H 444.201 -1.53764 -3.39722 0
M  V30 4681 N 446.386 1.0089 -1.21074 0
M  V30 4682 C 447.611 1.78727 -1.05221 0
M  V30 4683 C 448.036 1.83932 0.393795 0
M  V30 4684 O 447.394 1.28004 1.28393 0
M  V30 4685 C 447.442 3.20665 -1.64944 0
M  V30 4686 O 446.546 4.02632 -0.892273 0
M  V30 4687 H 445.887 0.550973 -0.370574 0
M  V30 4688 H 448.417 1.26847 -1.60534 0
M  V30 4689 H 448.427 3.71352 -1.69002 0
M  V30 4690 H 447.102 3.16191 -2.70177 0
M  V30 4691 H 445.679 3.61207 -0.926492 0
M  V30 4692 N 447.864 1.01787 1.20321 0
M  V30 4693 C 449.112 0.706538 1.89347 0
M  V30 4694 C 449.433 -0.766289 1.79313 0
M  V30 4695 O 448.703 -1.55126 1.19635 0
M  V30 4696 H 447.283 0.258348 0.700903 0
M  V30 4697 H 449.945 1.28974 1.46122 0
M  V30 4698 H 449.041 0.991066 2.95946 0
M  V30 4699 N 449.342 -1.36122 0.79427 0
M  V30 4700 C 450.753 -1.81646 0.431446 0
M  V30 4701 C 451.104 -1.66043 -1.04518 0
M  V30 4702 O 450.229 -1.1841 -1.8113 0
M  V30 4703 C 450.824 -3.29785 0.776341 0
M  V30 4704 C 449.383 -3.73501 0.466282 0
M  V30 4705 C 448.53 -2.58313 1.00844 0
M  V30 4706 H 451.481 -1.24274 0.986995 0
M  V30 4707 H 451.502 -3.80437 0.0692413 0
M  V30 4708 H 451.014 -3.4111 1.8511 0
M  V30 4709 H 449.115 -3.67733 -0.600245 0
M  V30 4710 H 449.228 -4.68754 0.990288 0
M  V30 4711 H 447.592 -2.5102 0.431406 0
M  V30 4712 H 448.375 -2.72421 2.08906 0
M  V30 4713 N 450.82 -0.546701 -1.47814 0
M  V30 4714 C 452.236 -0.205717 -1.58269 0
M  V30 4715 C 452.436 1.29153 -1.54667 0
M  V30 4716 O 451.492 2.07098 -1.44453 0
M  V30 4717 C 452.805 -0.823065 -2.89216 0
M  V30 4718 C 454.353 -0.793328 -3.02779 0
M  V30 4719 C 454.828 -1.38955 -4.36412 0
M  V30 4720 N 456.319 -1.35227 -4.43021 0
M  V30 4721 C 457.054 -1.78333 -5.44963 0
M  V30 4722 N 456.55 -2.29246 -6.53772 0
M  V30 4723 N 458.343 -1.69467 -5.35945 0
M  V30 4724 H 450.494 -1.5196 -1.48398 0
M  V30 4725 H 452.757 -0.633078 -0.705632 0
M  V30 4726 H 452.463 -1.8749 -2.97558 0
M  V30 4727 H 452.337 -0.309915 -3.75925 0
M  V30 4728 H 454.724 0.249784 -2.94041 0
M  V30 4729 H 454.805 -1.34412 -2.17639 0
M  V30 4730 H 454.449 -2.43168 -4.45906 0
M  V30 4731 H 454.379 -0.814291 -5.20266 0
M  V30 4732 H 456.87 -0.979739 -3.64979 0
M  V30 4733 H 457.183 -2.60089 -7.27718 0
M  V30 4734 H 455.528 -2.3325 -6.5469 0
M  V30 4735 H 458.719 -1.29477 -4.49837 0
M  V30 4736 H 458.892 -2.03381 -6.15256 0
M  V30 4737 N 452.299 1.55045 -0.282633 0
M  V30 4738 C 453.262 2.21515 0.588539 0
M  V30 4739 C 454.262 1.19535 1.07554 0
M  V30 4740 O 455.452 1.44391 0.974514 0
M  V30 4741 C 452.584 2.88704 1.8128 0
M  V30 4742 H 453.777 2.99899 0.00806397 0
M  V30 4743 H 451.33 1.56265 -0.0333067 0
M  V30 4744 H 452.065 2.14352 2.43359 0
M  V30 4745 H 451.85 3.63443 1.47144 0
M  V30 4746 H 453.34 3.39465 2.43214 0
M  V30 4747 N 453.777 0.010035 1.57597 0
M  V30 4748 C 455.025 -0.671371 1.90623 0
M  V30 4749 C 455.346 -1.73753 0.885151 0
M  V30 4750 O 454.616 -1.95752 -0.0760611 0
M  V30 4751 H 453.196 -0.250968 0.703579 0
M  V30 4752 H 455.858 0.0533325 1.94827 0
M  V30 4753 H 454.954 -1.13626 2.90681 0
M  V30 4754 N 455.255 -1.55392 -0.262866 0
M  V30 4755 C 456.185 -1.91978 -1.32917 0
M  V30 4756 C 457.166 -0.7828 -1.51017 0
M  V30 4757 O 458.351 -1.04178 -1.63892 0
M  V30 4758 C 455.481 -2.20055 -2.68687 0
M  V30 4759 C 454.435 -3.35854 -2.65304 0
M  V30 4760 C 453.761 -3.49435 -4.04721 0
M  V30 4761 C 455.061 -4.71977 -2.23685 0
M  V30 4762 H 456.755 -2.81292 -1.02544 0
M  V30 4763 H 454.301 -1.3534 -0.491846 0
M  V30 4764 H 456.254 -2.44237 -3.43404 0
M  V30 4765 H 454.978 -1.27551 -3.00663 0
M  V30 4766 H 453.637 -3.11655 -1.93045 0
M  V30 4767 H 453.285 -2.54379 -4.33936 0
M  V30 4768 H 452.985 -4.27297 -4.0335 0
M  V30 4769 H 454.509 -3.7592 -4.81161 0
M  V30 4770 H 455.923 -4.95637 -2.88127 0
M  V30 4771 H 454.32 -5.52828 -2.33456 0
M  V30 4772 H 455.39 -4.70115 -1.18827 0
M  V30 4773 N 456.733 0.527833 -1.48498 0
M  V30 4774 C 457.681 1.65313 -1.63628 0
M  V30 4775 C 458.675 1.6177 -0.502676 0
M  V30 4776 O 459.881 1.66601 -0.681469 0
M  V30 4777 H 456.256 0.547518 -0.515488 0
M  V30 4778 H 458.227 1.49696 -2.58135 0
M  V30 4779 C 456.976 3.03576 -1.6952 0
M  V30 4780 H 456.299 3.06997 -2.56111 0
M  V30 4781 H 457.739 3.81923 -1.84149 0
M  V30 4782 C 456.198 3.34089 -0.43432 0
M  V30 4783 O 456.728 3.99151 0.451852 0
M  V30 4784 N 454.934 2.88991 -0.305368 0
M  V30 4785 H 454.481 2.36222 -1.02747 0
M  V30 4786 H 454.439 3.09776 0.537249 0
M  V30 4787 N 458.211 1.37122 0.776871 0
M  V30 4788 C 459.121 1.34651 1.9211 0
M  V30 4789 C 460.137 0.246824 1.7224 0
M  V30 4790 O 461.313 0.48134 1.95563 0
M  V30 4791 C 458.378 1.14748 3.2716 0
M  V30 4792 C 457.439 2.34308 3.5972 0
M  V30 4793 C 456.672 2.15345 4.88326 0
M  V30 4794 O 456.895 1.13507 5.58992 0
M  V30 4795 O 455.829 3.03414 5.1983 0
M  V30 4796 H 459.655 2.31013 1.97146 0
M  V30 4797 H 457.24 1.17799 0.918901 0
M  V30 4798 H 459.122 1.05616 4.0795 0
M  V30 4799 H 457.797 0.214562 3.22988 0
M  V30 4800 H 456.704 2.49011 2.79185 0
M  V30 4801 H 458.037 3.26149 3.68629 0
M  V30 4802 N 459.689 -1.00246 1.21608 0
M  V30 4803 C 460.938 -1.73476 1.02902 0
M  V30 4804 C 461.251 -1.90643 -0.437561 0
M  V30 4805 O 462.457 -2.61105 -0.74407 0
M  V30 4806 C 460.913 -3.12079 1.79261 0
M  V30 4807 C 460.521 -3.02877 3.30106 0
M  V30 4808 C 462.265 -3.89421 1.68972 0
M  V30 4809 C 460.172 -4.36575 3.98944 0
M  V30 4810 H 459.102 -0.650408 0.381425 0
M  V30 4811 H 461.753 -1.11985 1.45367 0
M  V30 4812 H 460.135 -3.74196 1.2959 0
M  V30 4813 H 461.309 -2.49983 3.87098 0
M  V30 4814 H 459.624 -2.39022 3.40965 0
M  V30 4815 H 462.221 -4.88362 2.17731 0
M  V30 4816 H 462.564 -4.1122 0.648397 0
M  V30 4817 H 463.097 -3.33963 2.16133 0
M  V30 4818 H 459.836 -4.19978 5.03288 0
M  V30 4819 H 459.356 -4.8942 3.4674 0
M  V30 4820 H 461.035 -5.05364 4.04 0
M  V30 4821 N 461.167 -1.02423 -1.1978 0
M  V30 4822 C 462.115 -0.594474 -2.24875 0
M  V30 4823 C 463.109 0.370598 -1.65296 0
M  V30 4824 O 464.315 0.239684 -1.78397 0
M  V30 4825 H 460.69 -0.173961 -0.731602 0
M  V30 4826 H 462.661 -1.4916 -2.58445 0
M  V30 4827 C 461.41 0.0436512 -3.47673 0
M  V30 4828 H 460.733 -0.689963 -3.93801 0
M  V30 4829 H 462.173 0.307362 -4.22884 0
M  V30 4830 C 460.632 1.28881 -3.11274 0
M  V30 4831 O 461.162 2.38135 -3.23503 0
M  V30 4832 N 459.368 1.1758 -2.6575 0
M  V30 4833 H 458.915 0.286769 -2.55999 0
M  V30 4834 H 458.873 2.00988 -2.41767 0
M  V30 4835 N 462.645 1.35699 -0.801477 0
M  V30 4836 C 463.575 2.32436 -0.222658 0
M  V30 4837 C 464.556 1.5723 0.649057 0
M  V30 4838 O 465.741 1.85324 0.580387 0
M  V30 4839 C 462.871 3.41469 0.633719 0
M  V30 4840 C 461.825 4.27774 -0.139083 0
M  V30 4841 C 461.151 5.28082 0.838666 0
M  V30 4842 C 462.451 5.04946 -1.33517 0
M  V30 4843 H 464.145 2.81094 -1.03086 0
M  V30 4844 H 461.691 1.35146 -0.497155 0
M  V30 4845 H 463.644 4.08143 1.04868 0
M  V30 4846 H 462.368 2.91408 1.47475 0
M  V30 4847 H 461.027 3.62673 -0.535156 0
M  V30 4848 H 460.675 4.7429 1.67506 0
M  V30 4849 H 460.375 5.86695 0.32594 0
M  V30 4850 H 461.899 5.97628 1.25194 0
M  V30 4851 H 463.313 5.64593 -0.995349 0
M  V30 4852 H 461.71 5.7303 -1.78202 0
M  V30 4853 H 462.78 4.35886 -2.12442 0
M  V30 4854 N 464.123 0.554532 1.47522 0
M  V30 4855 C 465.534 0.120446 1.86311 0
M  V30 4856 C 465.885 -1.30904 1.46145 0
M  V30 4857 O 465.01 -1.98434 0.863294 0
M  V30 4858 C 465.605 0.211808 3.38137 0
M  V30 4859 C 464.164 -0.167224 3.76028 0
M  V30 4860 C 463.311 0.560576 2.71575 0
M  V30 4861 H 466.262 0.764408 1.39077 0
M  V30 4862 H 466.283 -0.570275 3.76202 0
M  V30 4863 H 465.795 1.25232 3.6734 0
M  V30 4864 H 463.896 -1.20894 3.52442 0
M  V30 4865 H 464.009 0.189473 4.78725 0
M  V30 4866 H 462.373 0.00396836 2.547 0
M  V30 4867 H 463.156 1.60219 3.0362 0
M  V30 4868 N 465.601 -1.54893 0.290851 0
M  V30 4869 C 466.511 -2.26812 -0.59945 0
M  V30 4870 C 467.527 -1.29963 -1.15696 0
M  V30 4871 O 468.703 -1.62928 -1.18391 0
M  V30 4872 C 465.768 -2.98716 -1.75982 0
M  V30 4873 C 464.829 -4.1108 -1.2374 0
M  V30 4874 C 464.062 -4.79546 -2.34246 0
M  V30 4875 O 464.285 -4.47309 -3.53936 0
M  V30 4876 O 463.219 -5.67165 -2.01512 0
M  V30 4877 H 467.045 -3.03696 -0.0163561 0
M  V30 4878 H 464.63 -1.49289 0.0576755 0
M  V30 4879 H 466.512 -3.43851 -2.43607 0
M  V30 4880 H 465.187 -2.24737 -2.3297 0
M  V30 4881 H 464.094 -3.70367 -0.527163 0
M  V30 4882 H 465.427 -4.87007 -0.71307 0
M  V30 4883 N 467.08 -0.0183926 -1.57589 0
M  V30 4884 C 468.01 0.965596 -2.12599 0
M  V30 4885 C 468.991 1.34641 -1.0395 0
M  V30 4886 O 470.176 1.42693 -1.31729 0
M  V30 4887 C 467.306 2.25149 -2.64434 0
M  V30 4888 C 466.26 2.01175 -3.77773 0
M  V30 4889 C 465.586 3.35937 -4.15994 0
M  V30 4890 C 466.886 1.35953 -5.04296 0
M  V30 4891 H 468.58 0.507504 -2.95067 0
M  V30 4892 H 466.126 0.242671 -1.41941 0
M  V30 4893 H 468.079 2.94357 -3.01549 0
M  V30 4894 H 466.803 2.73105 -1.79112 0
M  V30 4895 H 465.462 1.34388 -3.4108 0
M  V30 4896 H 465.11 3.81631 -3.27669 0
M  V30 4897 H 464.81 3.20705 -4.92364 0
M  V30 4898 H 466.334 4.0643 -4.55683 0
M  V30 4899 H 467.748 1.95144 -5.39065 0
M  V30 4900 H 466.145 1.31152 -5.85593 0
M  V30 4901 H 467.215 0.331071 -4.83768 0
M  V30 4902 N 468.558 1.5553 0.254621 0
M  V30 4903 C 469.49 1.86104 1.33783 0
M  V30 4904 C 470.503 0.746752 1.44663 0
M  V30 4905 O 471.692 1.0248 1.46151 0
M  V30 4906 C 468.792 2.02532 2.71724 0
M  V30 4907 C 467.965 3.33335 2.83208 0
M  V30 4908 C 467.024 3.396 4.01943 0
M  V30 4909 O 466.05 4.12862 3.91834 0
M  V30 4910 N 467.252 2.68332 5.1476 0
M  V30 4911 H 470.017 2.79605 1.07893 0
M  V30 4912 H 467.578 1.55672 0.444732 0
M  V30 4913 H 469.57 2.04074 3.4948 0
M  V30 4914 H 468.14 1.15811 2.90356 0
M  V30 4915 H 467.36 3.44176 1.92189 0
M  V30 4916 H 468.648 4.19565 2.87824 0
M  V30 4917 H 468.046 2.08528 5.25864 0
M  V30 4918 H 466.603 2.75575 5.90679 0
M  V30 4919 N 470.036 -0.519951 1.48776 0
M  V30 4920 C 470.999 -1.60574 1.6355 0
M  V30 4921 C 471.999 -1.52557 0.508234 0
M  V30 4922 O 473.189 -1.56047 0.774262 0
M  V30 4923 C 470.321 -3.00211 1.61512 0
M  V30 4924 H 471.514 -1.4881 2.60376 0
M  V30 4925 H 469.067 -0.742772 1.37523 0
M  V30 4926 H 469.802 -3.17471 0.662009 0
M  V30 4927 H 469.587 -3.07439 2.43359 0
M  V30 4928 H 471.077 -3.79134 1.75064 0
M  V30 4929 N 471.514 -1.37532 -0.769588 0
M  V30 4930 C 472.762 -1.32597 -1.5252 0
M  V30 4931 C 473.083 0.0884294 -1.94799 0
M  V30 4932 O 472.353 1.03289 -1.66458 0
M  V30 4933 H 470.933 -0.487846 -0.565699 0
M  V30 4934 H 473.595 -1.72044 -0.915806 0
M  V30 4935 H 472.691 -1.96643 -2.42359 0
M  V30 4936 N 472.992 0.995999 -1.22138 0
M  V30 4937 C 474.217 1.77601 -1.0711 0
M  V30 4938 C 474.642 1.84339 0.374264 0
M  V30 4939 O 474 1.29359 1.27028 0
M  V30 4940 C 474.048 3.18897 -1.68336 0
M  V30 4941 O 473.152 4.01663 -0.934928 0
M  V30 4942 H 472.493 0.547011 -0.376397 0
M  V30 4943 H 475.023 1.25137 -1.6187 0
M  V30 4944 H 475.033 3.69539 -1.72931 0
M  V30 4945 H 473.708 3.13308 -2.73516 0
M  V30 4946 H 472.285 3.60204 -0.964751 0
M  V30 4947 N 474.47 1.03057 1.19235 0
M  V30 4948 C 475.695 0.74757 1.93458 0
M  V30 4949 C 476.12 -0.687648 1.7508 0
M  V30 4950 O 475.478 -1.47499 1.05422 0
M  V30 4951 C 475.526 1.10604 3.43219 0
M  V30 4952 O 474.63 0.225671 4.11782 0
M  V30 4953 H 473.971 0.276047 0.603899 0
M  V30 4954 H 476.501 1.3777 1.51263 0
M  V30 4955 H 476.511 1.06366 3.93891 0
M  V30 4956 H 475.186 2.15165 3.55917 0
M  V30 4957 H 473.763 0.326795 3.71465 0
M  V30 4958 N 475.948 -1.35272 0.808662 0
M  V30 4959 C 477.197 -1.97963 0.386483 0
M  V30 4960 C 477.51 -1.64866 -1.05255 0
M  V30 4961 O 478.716 -2.20937 -1.57794 0
M  V30 4962 C 477.172 -3.54162 0.640096 0
M  V30 4963 C 476.78 -3.96166 2.0918 0
M  V30 4964 C 478.524 -4.23553 0.283376 0
M  V30 4965 C 476.431 -5.4522 2.29106 0
M  V30 4966 H 475.361 -0.740742 0.140774 0
M  V30 4967 H 478.012 -1.5431 0.993012 0
M  V30 4968 H 476.394 -3.95983 -0.0364117 0
M  V30 4969 H 477.568 -3.65491 2.80629 0
M  V30 4970 H 475.883 -3.3967 2.40859 0
M  V30 4971 H 478.48 -5.33124 0.410273 0
M  V30 4972 H 478.823 -4.09105 -0.770659 0
M  V30 4973 H 479.356 -3.8716 0.913884 0
M  V30 4974 H 476.095 -5.64638 3.32962 0
M  V30 4975 H 475.615 -5.77457 1.62184 0
M  V30 4976 H 477.294 -6.1171 2.1076 0
M  V30 4977 N 477.426 -0.562348 -1.47226 0
M  V30 4978 C 478.359 0.230405 -2.27034 0
M  V30 4979 C 479.337 0.915609 -1.3437 0
M  V30 4980 O 480.521 0.933573 -1.63758 0
M  V30 4981 C 477.648 1.32874 -3.11548 0
M  V30 4982 C 476.694 0.751552 -4.19826 0
M  V30 4983 S 477.527 -0.405848 -5.3396 0
M  V30 4984 C 478.683 0.694186 -6.22038 0
M  V30 4985 H 478.916 -0.446811 -2.93923 0
M  V30 4986 H 476.449 -0.348781 -1.50409 0
M  V30 4987 H 478.407 1.95773 -3.60809 0
M  V30 4988 H 477.068 1.97782 -2.44011 0
M  V30 4989 H 476.261 1.57651 -4.78709 0
M  V30 4990 H 475.863 0.198645 -3.73472 0
M  V30 4991 H 478.155 1.58501 -6.58698 0
M  V30 4992 H 479.098 0.142592 -7.07956 0
M  V30 4993 H 479.506 0.989169 -5.55766 0
M  V30 4994 N 478.904 1.54736 -0.299062 0
M  V30 4995 C 480.315 1.8569 0.193971 0
M  V30 4996 C 480.666 1.22101 1.53577 0
M  V30 4997 O 479.791 0.51799 2.10109 0
M  V30 4998 C 480.386 3.36895 0.358733 0
M  V30 4999 C 478.945 3.67887 0.795986 0
M  V30 5000 C 478.092 2.77131 -0.096807 0
M  V30 5001 H 481.043 1.49934 -0.520134 0
M  V30 5002 H 481.064 3.61294 1.19361 0
M  V30 5003 H 480.576 3.83148 -0.617998 0
M  V30 5004 H 478.677 3.27151 1.78334 0
M  V30 5005 H 478.79 4.75114 0.616718 0
M  V30 5006 H 477.154 2.51153 0.423581 0
M  V30 5007 H 477.937 3.26204 -1.06986 0
M  V30 5008 N 480.382 0.0267497 1.57577 0
M  V30 5009 C 481.345 -0.940916 2.08996 0
M  V30 5010 C 482.345 -1.25561 1.00455 0
M  V30 5011 O 483.535 -1.19634 1.26623 0
M  V30 5012 C 480.667 -2.25814 2.55384 0
M  V30 5013 H 481.86 -0.495628 2.95776 0
M  V30 5014 H 479.413 -0.221241 1.54726 0
M  V30 5015 H 480.148 -2.74976 1.71926 0
M  V30 5016 H 479.933 -2.04285 3.34679 0
M  V30 5017 H 481.423 -2.95178 2.95398 0
M  V30 5018 N 481.861 -1.55662 -0.24637 0
M  V30 5019 C 482.808 -1.90361 -1.30504 0
M  V30 5020 C 483.778 -0.757905 -1.47801 0
M  V30 5021 O 484.963 -1.01161 -1.61775 0
M  V30 5022 C 482.103 -2.2042 -2.65535 0
M  V30 5023 C 481.216 -3.47799 -2.56242 0
M  V30 5024 C 480.351 -3.67426 -3.8363 0
M  V30 5025 C 479.39 -4.88403 -3.68956 0
M  V30 5026 N 478.527 -5.04548 -4.88237 0
M  V30 5027 H 483.367 -2.80645 -1.00213 0
M  V30 5028 H 480.904 -1.38924 -0.483577 0
M  V30 5029 H 482.862 -2.35853 -3.44135 0
M  V30 5030 H 481.492 -1.3334 -2.93973 0
M  V30 5031 H 480.544 -3.40694 -1.69208 0
M  V30 5032 H 481.856 -4.36544 -2.4131 0
M  V30 5033 H 481.01 -3.82821 -4.70673 0
M  V30 5034 H 479.749 -2.76914 -4.01459 0
M  V30 5035 H 478.754 -4.72984 -2.80296 0
M  V30 5036 H 479.979 -5.80375 -3.52621 0
M  V30 5037 H 477.925 -4.16974 -5.06427 0
M  V30 5038 H 477.842 -5.87384 -4.75937 0
M  V30 5039 H 479.11 -5.24355 -5.76777 0
M  V30 5040 N 483.339 0.512053 -1.4905 0
M  V30 5041 C 484.585 1.26874 -1.58212 0
M  V30 5042 C 484.918 1.9241 -0.263073 0
M  V30 5043 O 484.193 1.80181 0.732476 0
M  V30 5044 C 484.476 2.34428 -2.73341 0
M  V30 5045 C 484.329 1.73466 -4.15006 0
M  V30 5046 C 485.648 3.36073 -2.84154 0
M  V30 5047 H 482.767 0.459924 -0.575881 0
M  V30 5048 H 485.409 0.568587 -1.81293 0
M  V30 5049 H 483.559 2.94146 -2.53792 0
M  V30 5050 H 485.231 1.17661 -4.46042 0
M  V30 5051 H 483.474 1.03921 -4.21168 0
M  V30 5052 H 484.145 2.51426 -4.91415 0
M  V30 5053 H 486.621 2.86332 -3.01916 0
M  V30 5054 H 485.497 4.08703 -3.66406 0
M  V30 5055 H 485.758 3.97725 -1.93048 0
M  V30 5056 N 484.817 1.37938 0.762283 0
M  V30 5057 C 485.765 1.34569 1.89721 0
M  V30 5058 C 486.759 0.232929 1.67791 0
M  V30 5059 O 487.965 0.401485 1.75465 0
M  V30 5060 H 484.34 0.419594 0.624055 0
M  V30 5061 H 486.311 2.30357 1.8968 0
M  V30 5062 C 485.06 1.17898 3.27101 0
M  V30 5063 H 484.383 2.02781 3.44558 0
M  V30 5064 H 485.823 1.19593 4.06784 0
M  V30 5065 C 484.282 -0.114728 3.36705 0
M  V30 5066 O 484.812 -1.0949 3.8649 0
M  V30 5067 N 483.018 -0.16863 2.9011 0
M  V30 5068 H 482.565 0.62967 2.49786 0
M  V30 5069 H 482.523 -1.03383 2.96916 0
M  V30 5070 N 486.295 -0.989507 1.22664 0
M  V30 5071 C 487.706 -1.54406 1.04955 0
M  V30 5072 C 488.057 -1.92366 -0.385951 0
M  V30 5073 O 487.182 -1.75111 -1.27142 0
M  V30 5074 C 487.777 -2.80578 1.89899 0
M  V30 5075 C 486.336 -3.32464 1.76478 0
M  V30 5076 C 485.483 -2.05524 1.86159 0
M  V30 5077 H 488.434 -0.810211 1.3646 0
M  V30 5078 H 488.455 -3.53075 1.4184 0
M  V30 5079 H 487.967 -2.52918 2.94371 0
M  V30 5080 H 486.068 -3.65024 0.747528 0
M  V30 5081 H 486.181 -4.02838 2.59342 0
M  V30 5082 H 484.545 -2.19241 1.29636 0
M  V30 5083 H 485.328 -1.80258 2.92168 0
M  V30 5084 N 487.773 -1.03688 -1.18687 0
M  V30 5085 C 489.019 -0.739123 -1.88851 0
M  V30 5086 C 489.352 0.731042 -1.79915 0
M  V30 5087 O 488.627 1.53313 -1.19688 0
M  V30 5088 C 488.91 -1.20106 -3.3948 0
M  V30 5089 C 488.763 -2.73304 -3.57246 0
M  V30 5090 C 490.082 -0.788134 -4.32986 0
M  V30 5091 H 487.201 -0.269978 -0.68577 0
M  V30 5092 H 489.843 -1.28822 -1.3966 0
M  V30 5093 H 487.993 -0.733915 -3.81505 0
M  V30 5094 H 489.665 -3.28027 -3.24339 0
M  V30 5095 H 487.908 -3.13313 -3.00029 0
M  V30 5096 H 488.579 -3.00684 -4.62918 0
M  V30 5097 H 491.055 -1.19005 -3.98719 0
M  V30 5098 H 489.931 -1.13915 -5.36949 0
M  V30 5099 H 490.192 0.308988 -4.41019 0
M  V30 5100 N 489.251 1.34841 -0.815825 0
M  V30 5101 C 490.497 1.98793 -0.401129 0
M  V30 5102 C 490.83 1.64548 1.03139 0
M  V30 5103 O 490.105 0.913487 1.71714 0
M  V30 5104 C 490.388 3.55143 -0.595409 0
M  V30 5105 C 490.241 3.99155 -2.07352 0
M  V30 5106 C 491.56 4.40092 -0.0268823 0
M  V30 5107 H 488.679 0.722146 -0.14722 0
M  V30 5108 H 491.321 1.59847 -1.02707 0
M  V30 5109 H 489.471 3.8845 -0.0625779 0
M  V30 5110 H 491.143 3.76216 -2.66945 0
M  V30 5111 H 489.386 3.49726 -2.56659 0
M  V30 5112 H 490.057 5.07971 -2.1603 0
M  V30 5113 H 492.533 4.13298 -0.482042 0
M  V30 5114 H 491.409 5.48562 -0.19267 0
M  V30 5115 H 491.67 4.29016 1.06759 0
M  V30 5116 N 490.729 0.570148 1.46925 0
M  V30 5117 C 492.14 0.1402 1.86173 0
M  V30 5118 C 492.491 -1.29347 1.47526 0
M  V30 5119 O 491.616 -1.97508 0.884292 0
M  V30 5120 C 492.211 0.247661 3.37894 0
M  V30 5121 C 490.77 -0.127332 3.76185 0
M  V30 5122 C 489.917 0.589349 2.70965 0
M  V30 5123 H 492.868 0.779117 1.38259 0
M  V30 5124 H 492.889 -0.530341 3.76786 0
M  V30 5125 H 492.401 1.29121 3.65991 0
M  V30 5126 H 490.502 -1.17149 3.53704 0
M  V30 5127 H 490.615 0.240238 4.78497 0
M  V30 5128 H 488.979 0.0309824 2.54681 0
M  V30 5129 H 489.762 1.6343 3.01903 0
M  V30 5130 N 492.207 -1.54576 0.307264 0
M  V30 5131 C 493.117 -2.27435 -0.57536 0
M  V30 5132 C 494.133 -1.31183 -1.14311 0
M  V30 5133 O 495.309 -1.64175 -1.16656 0
M  V30 5134 C 492.374 -3.00566 -1.72803 0
M  V30 5135 C 491.435 -4.12369 -1.19373 0
M  V30 5136 C 490.668 -4.82003 -2.29147 0
M  V30 5137 O 490.891 -4.51038 -3.49171 0
M  V30 5138 O 489.825 -5.69271 -1.95485 0
M  V30 5139 H 493.651 -3.03696 0.0158558 0
M  V30 5140 H 491.236 -1.49219 0.0735064 0
M  V30 5141 H 493.118 -3.46416 -2.39946 0
M  V30 5142 H 491.793 -2.27195 -2.30574 0
M  V30 5143 H 490.7 -3.70905 -0.487851 0
M  V30 5144 H 492.033 -4.87736 -0.661376 0
M  V30 5145 N 493.685 -0.035106 -1.57561 0
M  V30 5146 C 494.931 0.64318 -1.92331 0
M  V30 5147 C 495.264 1.71434 -0.912368 0
M  V30 5148 O 494.539 1.94395 0.0640303 0
M  V30 5149 C 494.822 1.25411 -3.37556 0
M  V30 5150 C 494.675 0.192109 -4.4939 0
M  V30 5151 C 495.994 2.17041 -3.82859 0
M  V30 5152 H 493.113 0.232341 -0.699419 0
M  V30 5153 H 495.755 -0.0935889 -1.89769 0
M  V30 5154 H 493.905 1.88205 -3.39869 0
M  V30 5155 H 495.577 -0.438849 -4.59208 0
M  V30 5156 H 493.82 -0.481725 -4.31117 0
M  V30 5157 H 494.491 0.659292 -5.48049 0
M  V30 5158 H 496.967 1.64228 -3.8232 0
M  V30 5159 H 495.843 2.56738 -4.85157 0
M  V30 5160 H 496.104 3.06401 -3.18702 0
M  V30 5161 N 495.163 1.55791 0.238111 0
M  V30 5162 C 496.409 1.78297 0.966337 0
M  V30 5163 C 496.742 0.601903 1.84637 0
M  V30 5164 O 496.017 -0.399499 1.90353 0
M  V30 5165 C 496.3 3.10758 1.81939 0
M  V30 5166 C 496.153 4.39283 0.966958 0
M  V30 5167 C 497.472 3.39519 2.80027 0
M  V30 5168 H 494.591 0.648654 0.349882 0
M  V30 5169 H 497.233 1.88525 0.236253 0
M  V30 5170 H 495.383 3.02168 2.44185 0
M  V30 5171 H 497.055 4.59873 0.362514 0
M  V30 5172 H 495.298 4.32948 0.271669 0
M  V30 5173 H 495.969 5.28368 1.59784 0
M  V30 5174 H 498.445 3.48128 2.27917 0
M  V30 5175 H 497.321 4.33402 3.36829 0
M  V30 5176 H 497.582 2.60864 3.56934 0
M  V30 5177 N 496.642 -0.504142 1.49319 0
M  V30 5178 C 497.59 -1.62689 1.66238 0
M  V30 5179 C 498.584 -1.6095 0.528349 0
M  V30 5180 O 499.79 -1.65496 0.707887 0
M  V30 5181 H 496.165 -0.539247 0.524134 0
M  V30 5182 H 498.136 -1.45571 2.60484 0
M  V30 5183 C 496.885 -3.00841 1.74328 0
M  V30 5184 H 496.208 -3.02884 2.60963 0
M  V30 5185 H 497.648 -3.78945 1.90202 0
M  V30 5186 C 496.107 -3.33355 0.487416 0
M  V30 5187 O 496.637 -3.99819 -0.388294 0
M  V30 5188 N 494.843 -2.88469 0.351306 0
M  V30 5189 H 494.39 -2.34557 1.06492 0
M  V30 5190 H 494.348 -3.10591 -0.487899 0
M  V30 5191 N 498.12 -1.38341 -0.754957 0
M  V30 5192 C 499.052 -1.31347 -1.87831 0
M  V30 5193 C 500.065 -0.225955 -1.61224 0
M  V30 5194 O 501.254 -0.48341 -1.7183 0
M  V30 5195 C 498.354 -1.01201 -3.23437 0
M  V30 5196 C 497.527 -2.20834 -3.77559 0
M  V30 5197 C 496.586 -1.87454 -4.91678 0
M  V30 5198 O 495.612 -2.59934 -5.06382 0
M  V30 5199 N 496.814 -0.828682 -5.74555 0
M  V30 5200 H 499.579 -2.28147 -1.94342 0
M  V30 5201 H 497.14 -1.32184 -0.934828 0
M  V30 5202 H 499.132 -0.769249 -3.97322 0
M  V30 5203 H 497.702 -0.132011 -3.12321 0
M  V30 5204 H 496.922 -2.61184 -2.95256 0
M  V30 5205 H 498.21 -3.00678 -4.10451 0
M  V30 5206 H 497.608 -0.227591 -5.65242 0
M  V30 5207 H 496.165 -0.645802 -6.48593 0
M  V30 5208 N 499.598 0.982988 -1.23187 0
M  V30 5209 C 500.844 1.72648 -1.06398 0
M  V30 5210 C 501.177 1.90066 0.398561 0
M  V30 5211 O 500.452 1.45105 1.29518 0
M  V30 5212 C 500.735 3.12627 -1.78707 0
M  V30 5213 C 500.588 3.02795 -3.32618 0
M  V30 5214 C 501.907 4.11997 -1.54747 0
M  V30 5215 H 499.026 0.626649 -0.387918 0
M  V30 5216 H 501.668 1.14455 -1.51658 0
M  V30 5217 H 499.818 3.62308 -1.40234 0
M  V30 5218 H 501.49 2.60659 -3.80598 0
M  V30 5219 H 499.733 2.39362 -3.61785 0
M  V30 5220 H 500.404 4.01893 -3.78399 0
M  V30 5221 H 502.88 3.71114 -1.88186 0
M  V30 5222 H 501.756 5.08037 -2.07821 0
M  V30 5223 H 502.017 4.39462 -0.482249 0
M  V30 5224 N 501.076 1.04316 1.18135 0
M  V30 5225 C 502.316 0.756937 1.89868 0
M  V30 5226 C 502.68 -0.702609 1.78682 0
M  V30 5227 O 503.881 -1.10255 2.45148 0
M  V30 5228 C 502.152 1.21327 3.36176 0
M  V30 5229 S 503.711 1.05307 4.25976 0
M  V30 5230 H 500.529 0.275143 0.655604 0
M  V30 5231 H 503.131 1.33597 1.42731 0
M  V30 5232 H 501.835 2.27086 3.41848 0
M  V30 5233 H 501.366 0.628137 3.88353 0
M  V30 5234 H 503.381 -0.0280093 4.96192 0
M  V30 5235 N 502.554 -1.34406 0.822964 0
M  V30 5236 C 503.801 -1.98284 0.411057 0
M  V30 5237 C 504.129 -1.65245 -1.02588 0
M  V30 5238 O 503.384 -0.91619 -1.72929 0
M  V30 5239 C 503.683 -3.52981 0.560268 0
M  V30 5240 C 503.349 -4.05931 1.96293 0
M  V30 5241 C 502.011 -4.20103 2.34664 0
M  V30 5242 C 504.363 -4.34412 2.87985 0
M  V30 5243 C 501.691 -4.60082 3.64062 0
M  V30 5244 C 504.043 -4.75838 4.16847 0
M  V30 5245 C 502.707 -4.88215 4.55195 0
M  V30 5246 H 501.977 -0.725573 0.150416 0
M  V30 5247 H 504.624 -1.60349 1.04692 0
M  V30 5248 H 502.929 -3.91477 -0.158982 0
M  V30 5249 H 504.626 -4.00385 0.222087 0
M  V30 5250 H 501.216 -3.95363 1.65487 0
M  V30 5251 H 505.4 -4.23001 2.59584 0
M  V30 5252 H 500.656 -4.67856 3.93599 0
M  V30 5253 H 504.83 -4.96834 4.87984 0
M  V30 5254 H 502.457 -5.18952 5.55512 0
M  V30 5255 N 504.032 -0.577932 -1.46621 0
M  V30 5256 C 504.979 0.158048 -2.30258 0
M  V30 5257 C 505.949 0.888669 -1.40328 0
M  V30 5258 O 507.134 0.880283 -1.6928 0
M  V30 5259 C 504.274 1.16884 -3.24703 0
M  V30 5260 C 503.387 0.442163 -4.29731 0
M  V30 5261 C 502.522 1.44007 -5.11308 0
M  V30 5262 C 501.561 0.69952 -6.0809 0
M  V30 5263 N 500.698 1.64525 -6.82551 0
M  V30 5264 H 505.538 -0.561242 -2.92667 0
M  V30 5265 H 503.075 -0.288591 -1.44241 0
M  V30 5266 H 505.033 1.7677 -3.779 0
M  V30 5267 H 503.663 1.85591 -2.64113 0
M  V30 5268 H 502.715 -0.271632 -3.79429 0
M  V30 5269 H 504.027 -0.136992 -4.98612 0
M  V30 5270 H 503.181 2.11186 -5.68758 0
M  V30 5271 H 501.92 2.05315 -4.42377 0
M  V30 5272 H 500.925 0.0139217 -5.49798 0
M  V30 5273 H 502.15 0.091894 -6.79038 0
M  V30 5274 H 500.096 2.24653 -6.16334 0
M  V30 5275 H 500.013 1.11878 -7.47676 0
M  V30 5276 H 501.281 2.30754 -7.44562 0
M  V30 5277 N 505.51 1.54411 -0.315457 0
M  V30 5278 C 506.756 2.00716 0.289972 0
M  V30 5279 C 507.089 1.2034 1.5242 0
M  V30 5280 O 506.364 0.283579 1.92422 0
M  V30 5281 C 506.647 3.54507 0.632196 0
M  V30 5282 C 506.5 4.45615 -0.61218 0
M  V30 5283 C 507.819 4.15421 1.45305 0
M  V30 5284 H 504.938 0.729637 0.10392 0
M  V30 5285 H 507.58 1.8506 -0.430427 0
M  V30 5286 H 505.73 3.67979 1.24595 0
M  V30 5287 H 507.402 4.44026 -1.25053 0
M  V30 5288 H 505.645 4.15621 -1.24264 0
M  V30 5289 H 506.316 5.51022 -0.328379 0
M  V30 5290 H 508.792 4.05474 0.934331 0
M  V30 5291 H 507.668 5.23157 1.66127 0
M  V30 5292 H 507.929 3.68223 2.44671 0
M  V30 5293 N 506.988 0.0434614 1.5754 0
M  V30 5294 C 508.237 -0.631454 1.91561 0
M  V30 5295 C 508.55 -1.72457 0.92292 0
M  V30 5296 O 509.756 -2.45712 1.15489 0
M  V30 5297 C 508.212 -1.17447 3.40197 0
M  V30 5298 C 507.82 -0.113867 4.47855 0
M  V30 5299 C 509.564 -1.82507 3.83264 0
M  V30 5300 C 507.471 -0.669326 5.876 0
M  V30 5301 H 506.401 -0.239629 0.714908 0
M  V30 5302 H 509.052 0.111097 1.83163 0
M  V30 5303 H 507.434 -1.96909 3.43574 0
M  V30 5304 H 508.608 0.659348 4.56058 0
M  V30 5305 H 506.923 0.438821 4.14081 0
M  V30 5306 H 509.52 -2.25047 4.85034 0
M  V30 5307 H 509.863 -2.67365 3.19095 0
M  V30 5308 H 510.396 -1.09712 3.82372 0
M  V30 5309 H 507.135 0.141449 6.55347 0
M  V30 5310 H 506.655 -1.4107 5.82974 0
M  V30 5311 H 508.334 -1.15463 6.36614 0
M  V30 5312 N 508.466 -1.55915 -0.229846 0
M  V30 5313 C 509.714 -1.7819 -0.953565 0
M  V30 5314 C 510.035 -0.610504 -1.85197 0
M  V30 5315 O 509.305 0.372988 -1.92316 0
M  V30 5316 H 507.885 -0.657208 -0.355087 0
M  V30 5317 H 510.547 -1.9337 -0.243693 0
M  V30 5318 H 509.643 -2.70011 -1.56527 0
M  V30 5319 N 509.944 0.496216 -1.49584 0
M  V30 5320 C 510.892 1.61805 -1.67098 0
M  V30 5321 C 511.886 1.60667 -0.536877 0
M  V30 5322 O 513.092 1.65118 -0.716654 0
M  V30 5323 H 509.467 0.53646 -0.526986 0
M  V30 5324 H 511.438 1.44187 -2.61252 0
M  V30 5325 C 510.187 2.99912 -1.75921 0
M  V30 5326 H 509.51 3.01496 -2.62565 0
M  V30 5327 H 510.95 3.77931 -1.92209 0
M  V30 5328 C 509.409 3.33092 -0.505088 0
M  V30 5329 O 509.939 4.00019 0.367085 0
M  V30 5330 N 508.145 2.88278 -0.366599 0
M  V30 5331 H 507.692 2.33989 -1.07735 0
M  V30 5332 H 507.65 3.10846 0.47142 0
M  V30 5333 N 511.423 1.38739 0.74761 0
M  V30 5334 C 512.7 1.25791 1.49786 0
M  V30 5335 C 513.08 -0.138075 2.10648 0
M  V30 5336 O 512.428 -1.14815 1.9756 0
M  V30 5337 C 512.638 2.37265 2.55942 0
M  V30 5338 C 513.986 2.75978 3.22679 0
M  V30 5339 O 515.01 2.36621 2.6625 0
M  V30 5340 O 513.869 3.43867 4.24756 0
M  V30 5341 H 510.963 0.492251 0.664543 0
M  V30 5342 H 513.509 1.50582 0.782511 0
M  V30 5343 H 512.281 3.30644 2.0926 0
M  V30 5344 H 511.904 2.14071 3.35051 0
M  V30 5345 N 512.901 -0.976442 1.23707 0
M  V30 5346 C 514.129 -1.75341 1.09833 0
M  V30 5347 C 514.544 -1.8553 -0.349885 0
M  V30 5348 O 513.901 -1.33732 -1.24185 0
M  V30 5349 C 513.952 -3.17833 1.72233 0
M  V30 5350 O 513.673 -3.08167 3.11391 0
M  V30 5351 C 515.174 -4.11906 1.63853 0
M  V30 5352 H 512.394 -0.550137 0.384175 0
M  V30 5353 H 514.938 -1.2265 1.63638 0
M  V30 5354 H 513.093 -3.67538 1.22452 0
M  V30 5355 H 513.507 -3.97897 3.41729 0
M  V30 5356 H 514.981 -5.09579 2.12211 0
M  V30 5357 H 515.458 -4.35109 0.598092 0
M  V30 5358 H 516.064 -3.68107 2.13019 0
M  V30 5359 N 514.379 -1.04941 -1.1758 0
M  V30 5360 C 515.607 -0.778294 -1.91703 0
M  V30 5361 C 516.022 0.665697 -1.76675 0
M  V30 5362 O 515.379 1.45456 -1.10222 0
M  V30 5363 C 515.43 -1.14628 -3.42845 0
M  V30 5364 O 515.151 -2.53359 -3.57409 0
M  V30 5365 C 516.652 -0.900931 -4.34049 0
M  V30 5366 H 513.872 -0.283167 -0.608323 0
M  V30 5367 H 516.416 -1.39942 -1.49119 0
M  V30 5368 H 514.571 -0.569953 -3.83184 0
M  V30 5369 H 514.985 -2.67709 -4.51035 0
M  V30 5370 H 516.459 -1.20817 -5.38616 0
M  V30 5371 H 516.936 0.163966 -4.38894 0
M  V30 5372 H 517.542 -1.46097 -3.99419 0
M  V30 5373 N 515.857 1.33968 -0.830081 0
M  V30 5374 C 517.103 1.98357 -0.422191 0
M  V30 5375 C 517.436 1.65633 1.01387 0
M  V30 5376 O 516.711 0.931648 1.70735 0
M  V30 5377 C 516.994 3.54492 -0.633043 0
M  V30 5378 C 516.847 3.96934 -2.11574 0
M  V30 5379 C 518.166 4.40039 -0.0735584 0
M  V30 5380 H 515.285 0.720544 -0.154871 0
M  V30 5381 H 517.927 1.58749 -1.04397 0
M  V30 5382 H 516.077 3.88361 -0.103775 0
M  V30 5383 H 517.749 3.73363 -2.7092 0
M  V30 5384 H 515.992 3.46984 -2.60354 0
M  V30 5385 H 516.663 5.05651 -2.21406 0
M  V30 5386 H 519.139 4.12764 -0.52585 0
M  V30 5387 H 518.015 5.48327 -0.250841 0
M  V30 5388 H 518.276 4.30124 1.02202 0
M  V30 5389 N 517.335 0.585699 1.46312 0
M  V30 5390 C 518.563 0.0781299 2.06752 0
M  V30 5391 C 518.978 -1.22812 1.43396 0
M  V30 5392 O 518.335 -1.74318 0.540314 0
M  V30 5393 C 518.386 -0.0911927 3.61385 0
M  V30 5394 O 518.107 1.16336 4.22371 0
M  V30 5395 C 519.608 -0.632765 4.38761 0
M  V30 5396 H 516.828 0.0588188 0.668417 0
M  V30 5397 H 519.372 0.807218 1.87894 0
M  V30 5398 H 517.527 -0.770514 3.7966 0
M  V30 5399 H 517.941 0.979082 5.15281 0
M  V30 5400 H 519.415 -0.70041 5.47538 0
M  V30 5401 H 519.892 -1.65039 4.07012 0
M  V30 5402 H 520.498 0.0117856 4.25298 0
M  V30 5403 N 518.813 -1.54241 0.323641 0
M  V30 5404 C 519.746 -2.20579 -0.584833 0
M  V30 5405 C 520.724 -1.18286 -1.11567 0
M  V30 5406 O 521.908 -1.47025 -1.17966 0
M  V30 5407 C 519.035 -2.86754 -1.80249 0
M  V30 5408 C 518.081 -4.02767 -1.4029 0
M  V30 5409 S 518.914 -5.33693 -0.439539 0
M  V30 5410 C 520.07 -6.03362 -1.66448 0
M  V30 5411 H 520.303 -2.97292 -0.0213238 0
M  V30 5412 H 517.836 -1.54024 0.107726 0
M  V30 5413 H 519.794 -3.25503 -2.50116 0
M  V30 5414 H 518.455 -2.09844 -2.33719 0
M  V30 5415 H 517.648 -4.47933 -2.31024 0
M  V30 5416 H 517.25 -3.65692 -0.783928 0
M  V30 5417 H 519.542 -6.25546 -2.6019 0
M  V30 5418 H 520.485 -6.9689 -1.25498 0
M  V30 5419 H 520.893 -5.33273 -1.85149 0
M  V30 5420 N 520.291 -0.0518155 -1.57515 0
M  V30 5421 C 521.254 0.907547 -2.10467 0
M  V30 5422 C 522.254 1.23947 -1.02439 0
M  V30 5423 O 523.444 1.17604 -1.2851 0
M  V30 5424 C 520.576 2.21723 -2.58944 0
M  V30 5425 H 521.769 0.44851 -2.96527 0
M  V30 5426 H 519.322 0.196598 -1.55059 0
M  V30 5427 H 520.057 2.72206 -1.76279 0
M  V30 5428 H 519.842 1.98935 -3.37886 0
M  V30 5429 H 521.332 2.90441 -3.00056 0
M  V30 5430 N 521.769 1.56035 0.221574 0
M  V30 5431 C 522.732 1.91584 1.2581 0
M  V30 5432 C 523.732 0.794425 1.39805 0
M  V30 5433 O 524.922 1.06217 1.38071 0
M  V30 5434 C 522.054 2.16663 2.63192 0
M  V30 5435 H 523.247 2.8429 0.954935 0
M  V30 5436 H 520.8 1.49316 0.461988 0
M  V30 5437 H 521.535 1.26508 2.98607 0
M  V30 5438 H 521.32 2.98358 2.5441 0
M  V30 5439 H 522.81 2.45262 3.37988 0
M  V30 5440 N 523.247 -0.488276 1.49845 0
M  V30 5441 C 524.157 -1.61451 1.70207 0
M  V30 5442 C 525.173 -1.63877 0.584846 0
M  V30 5443 O 526.349 -1.82063 0.861107 0
M  V30 5444 C 523.414 -2.9776 1.77594 0
M  V30 5445 C 522.475 -3.05861 3.01243 0
M  V30 5446 C 521.708 -4.35668 3.08268 0
M  V30 5447 O 521.931 -5.25197 2.22541 0
M  V30 5448 O 520.865 -4.49005 4.00847 0
M  V30 5449 H 524.691 -1.47199 2.65643 0
M  V30 5450 H 522.276 -0.665939 1.33737 0
M  V30 5451 H 524.158 -3.7875 1.84732 0
M  V30 5452 H 522.833 -3.12248 0.8534 0
M  V30 5453 H 521.74 -2.24012 2.99616 0
M  V30 5454 H 523.073 -2.96304 3.9302 0
M  V30 5455 N 524.725 -1.39134 -0.740242 0
M  V30 5456 C 525.688 -1.37217 -1.83587 0
M  V30 5457 C 526.688 -0.270221 -1.58513 0
M  V30 5458 O 527.878 -0.527843 -1.6601 0
M  V30 5459 C 525.01 -1.13959 -3.21288 0
M  V30 5460 H 526.203 -2.34705 -1.86691 0
M  V30 5461 H 523.756 -1.24622 -0.94335 0
M  V30 5462 H 524.491 -0.17131 -3.23847 0
M  V30 5463 H 524.276 -1.93754 -3.40884 0
M  V30 5464 H 525.766 -1.15346 -4.01354 0
M  V30 5465 N 526.204 0.969867 -1.24223 0
M  V30 5466 C 527.452 1.70918 -1.0785 0
M  V30 5467 C 527.773 1.91186 0.383763 0
M  V30 5468 O 527.043 1.48806 1.27411 0
M  V30 5469 H 525.623 0.633334 -0.396103 0
M  V30 5470 H 528.285 1.16689 -1.56108 0
M  V30 5471 H 527.381 2.69455 -1.57482 0
M  V30 5472 N 527.682 1.05563 1.17022 0
M  V30 5473 C 528.614 0.617888 2.20714 0
M  V30 5474 C 529.627 -0.320303 1.59618 0
M  V30 5475 O 530.816 -0.112449 1.78145 0
M  V30 5476 C 527.916 -0.115333 3.38704 0
M  V30 5477 C 527.089 0.834493 4.29366 0
M  V30 5478 C 526.148 0.141855 5.26009 0
M  V30 5479 O 525.174 0.777151 5.6387 0
M  V30 5480 N 526.376 -1.11934 5.69606 0
M  V30 5481 H 529.141 1.50981 2.58892 0
M  V30 5482 H 526.702 0.938008 1.31958 0
M  V30 5483 H 528.694 -0.588918 4.00392 0
M  V30 5484 H 527.264 -0.908967 2.99093 0
M  V30 5485 H 526.484 1.48762 3.65053 0
M  V30 5486 H 527.772 1.4791 4.86827 0
M  V30 5487 H 527.17 -1.65574 5.40927 0
M  V30 5488 H 525.727 -1.53692 6.33421 0
M  V30 5489 N 529.16 -1.33526 0.837174 0
M  V30 5490 C 530.09 -2.31764 0.284206 0
M  V30 5491 C 531.071 -1.58896 -0.607142 0
M  V30 5492 O 532.256 -1.86798 -0.531047 0
M  V30 5493 C 529.386 -3.43029 -0.542962 0
M  V30 5494 C 528.34 -4.27255 0.252451 0
M  V30 5495 C 527.666 -5.3012 -0.69836 0
M  V30 5496 C 528.966 -5.01229 1.46858 0
M  V30 5497 H 530.66 -2.78262 1.10502 0
M  V30 5498 H 528.206 -1.3378 0.532812 0
M  V30 5499 H 530.159 -4.1078 -0.940096 0
M  V30 5500 H 528.883 -2.95216 -1.39697 0
M  V30 5501 H 527.542 -3.61127 0.631124 0
M  V30 5502 H 527.19 -4.78564 -1.54872 0
M  V30 5503 H 526.89 -5.87353 -0.170274 0
M  V30 5504 H 528.414 -6.00737 -1.09305 0
M  V30 5505 H 529.828 -5.61756 1.14469 0
M  V30 5506 H 528.225 -5.68104 1.93333 0
M  V30 5507 H 529.295 -4.301 2.23924 0
M  V30 5508 N 530.638 -0.59345 -1.46 0
M  V30 5509 C 531.57 0.171569 -2.28557 0
M  V30 5510 C 532.583 0.845273 -1.39137 0
M  V30 5511 O 533.772 0.713033 -1.6364 0
M  V30 5512 C 530.872 1.26311 -3.14482 0
M  V30 5513 C 530.045 0.679258 -4.32094 0
M  V30 5514 C 529.104 1.65987 -4.99334 0
M  V30 5515 O 528.13 1.19171 -5.56585 0
M  V30 5516 N 529.332 2.99414 -4.97324 0
M  V30 5517 H 532.097 -0.536771 -2.94854 0
M  V30 5518 H 529.658 -0.431954 -1.56031 0
M  V30 5519 H 531.65 1.91863 -3.5633 0
M  V30 5520 H 530.22 1.87416 -2.50188 0
M  V30 5521 H 529.44 -0.153992 -3.93899 0
M  V30 5522 H 530.728 0.26916 -5.08088 0
M  V30 5523 H 530.126 3.40064 -4.52076 0
M  V30 5524 H 528.683 3.60426 -5.4308 0
M  V30 5525 N 532.116 1.54067 -0.331816 0
M  V30 5526 C 533.046 2.27569 0.522932 0
M  V30 5527 C 534.027 1.28679 1.11247 0
M  V30 5528 O 535.212 1.57504 1.13605 0
M  V30 5529 C 532.342 3.0397 1.67987 0
M  V30 5530 C 531.296 4.10267 1.21924 0
M  V30 5531 C 530.622 4.74555 2.46377 0
M  V30 5532 C 531.922 5.21268 0.32815 0
M  V30 5533 H 533.616 2.99264 -0.0901977 0
M  V30 5534 H 531.162 1.4393 -0.044821 0
M  V30 5535 H 533.115 3.54123 2.28418 0
M  V30 5536 H 531.839 2.29906 2.31971 0
M  V30 5537 H 530.498 3.61009 0.637809 0
M  V30 5538 H 530.146 3.97098 3.08743 0
M  V30 5539 H 529.846 5.46363 2.16243 0
M  V30 5540 H 531.37 5.27487 3.07555 0
M  V30 5541 H 532.784 5.67128 0.838978 0
M  V30 5542 H 531.181 5.99982 0.119228 0
M  V30 5543 H 532.251 4.80673 -0.638839 0
M  V30 5544 N 533.594 0.0601682 1.57485 0
M  V30 5545 C 534.542 -0.928899 2.13247 0
M  V30 5546 C 535.536 -1.31616 1.06647 0
M  V30 5547 O 536.742 -1.29476 1.25043 0
M  V30 5548 H 533.117 -0.317455 0.681708 0
M  V30 5549 H 535.088 -0.433566 2.95233 0
M  V30 5550 C 533.837 -2.19121 2.69965 0
M  V30 5551 H 533.16 -1.90204 3.51657 0
M  V30 5552 H 534.6 -2.86465 3.12592 0
M  V30 5553 C 533.059 -2.94195 1.64168 0
M  V30 5554 O 533.589 -3.87468 1.05978 0
M  V30 5555 N 531.795 -2.57089 1.35476 0
M  V30 5556 H 531.342 -1.81314 1.82984 0
M  V30 5557 H 531.3 -3.07624 0.649196 0
M  V30 5558 N 535.072 -1.5615 -0.213296 0
M  V30 5559 C 536.318 -1.79812 -0.937849 0
M  V30 5560 C 536.651 -0.631201 -1.83656 0
M  V30 5561 O 535.926 0.369165 -1.90964 0
M  V30 5562 C 536.209 -3.13613 -1.76972 0
M  V30 5563 C 536.062 -4.40766 -0.89695 0
M  V30 5564 C 537.381 -3.43931 -2.7459 0
M  V30 5565 H 534.5 -0.654138 -0.339518 0
M  V30 5566 H 537.142 -1.88877 -0.20623 0
M  V30 5567 H 535.292 -3.06015 -2.39347 0
M  V30 5568 H 536.964 -4.60392 -0.289306 0
M  V30 5569 H 535.207 -4.33326 -0.202756 0
M  V30 5570 H 535.878 -5.30843 -1.51358 0
M  V30 5571 H 538.354 -3.5171 -2.22349 0
M  V30 5572 H 537.23 -4.38706 -3.29891 0
M  V30 5573 H 537.491 -2.6651 -3.52739 0
M  V30 5574 N 536.55 0.480323 -1.50102 0
M  V30 5575 C 537.483 1.59789 -1.62919 0
M  V30 5576 C 538.461 1.55429 -0.477557 0
M  V30 5577 O 539.645 1.75186 -0.695851 0
M  V30 5578 C 536.772 2.98351 -1.60325 0
M  V30 5579 C 535.818 3.20899 -2.80938 0
M  V30 5580 S 536.651 3.01791 -4.4236 0
M  V30 5581 C 537.807 4.42712 -4.42444 0
M  V30 5582 H 538.04 1.48676 -2.57454 0
M  V30 5583 H 535.573 0.666996 -1.3925 0
M  V30 5584 H 537.531 3.7824 -1.59514 0
M  V30 5585 H 536.192 3.06862 -0.670419 0
M  V30 5586 H 535.385 4.22102 -2.75401 0
M  V30 5587 H 534.987 2.48768 -2.79268 0
M  V30 5588 H 537.279 5.3518 -4.15438 0
M  V30 5589 H 538.222 4.53294 -5.43995 0
M  V30 5590 H 538.63 4.24359 -3.72263 0
M  V30 5591 N 538.028 1.39524 0.732853 0
M  V30 5592 C 538.938 1.40695 1.87729 0
M  V30 5593 C 539.954 0.301496 1.71368 0
M  V30 5594 O 541.13 0.543313 1.93933 0
M  V30 5595 C 538.195 1.25098 3.23344 0
M  V30 5596 C 537.256 2.45634 3.52083 0
M  V30 5597 C 536.489 2.30772 4.81228 0
M  V30 5598 O 536.712 1.31233 5.55098 0
M  V30 5599 O 535.646 3.19799 5.09914 0
M  V30 5600 H 539.472 2.37168 1.89697 0
M  V30 5601 H 537.057 1.20663 0.880959 0
M  V30 5602 H 538.939 1.18541 4.04383 0
M  V30 5603 H 537.614 0.317209 3.22142 0
M  V30 5604 H 536.521 2.57767 2.71122 0
M  V30 5605 H 537.854 3.37712 3.58066 0
M  V30 5606 N 539.506 -0.963266 1.24736 0
M  V30 5607 C 540.917 -1.52145 1.08207 0
M  V30 5608 C 541.268 -1.93142 -0.345061 0
M  V30 5609 O 540.393 -1.77769 -1.23399 0
M  V30 5610 C 540.988 -2.76486 1.95808 0
M  V30 5611 C 539.547 -3.28646 1.8349 0
M  V30 5612 C 538.694 -2.01529 1.90476 0
M  V30 5613 H 541.645 -0.781083 1.38148 0
M  V30 5614 H 541.666 -3.49986 1.49297 0
M  V30 5615 H 541.178 -2.46617 2.99669 0
M  V30 5616 H 539.279 -3.63357 0.824787 0
M  V30 5617 H 539.392 -3.97246 2.67829 0
M  V30 5618 H 537.756 -2.16442 1.34258 0
M  V30 5619 H 538.539 -1.7402 2.95926 0
M  V30 5620 N 540.985 -1.06182 -1.16461 0
M  V30 5621 C 542.231 -0.779015 -1.87241 0
M  V30 5622 C 542.564 0.692715 -1.81425 0
M  V30 5623 O 541.839 1.5074 -1.22913 0
M  V30 5624 C 542.122 -1.2728 -3.36856 0
M  V30 5625 C 541.975 -2.80821 -3.51368 0
M  V30 5626 C 543.294 -0.879799 -4.31216 0
M  V30 5627 H 540.413 -0.284464 -0.679889 0
M  V30 5628 H 543.055 -1.31755 -1.36896 0
M  V30 5629 H 541.205 -0.814673 -3.79862 0
M  V30 5630 H 542.877 -3.34833 -3.17308 0
M  V30 5631 H 541.12 -3.19606 -2.93316 0
M  V30 5632 H 541.791 -3.10435 -4.56436 0
M  V30 5633 H 544.267 -1.27436 -3.96105 0
M  V30 5634 H 543.143 -1.25278 -5.34412 0
M  V30 5635 H 543.404 0.215372 -4.41575 0
M  V30 5636 N 542.463 1.3308 -0.844243 0
M  V30 5637 C 543.712 1.96868 -0.438833 0
M  V30 5638 C 544.025 1.67599 1.00846 0
M  V30 5639 O 545.231 2.25043 1.51881 0
M  V30 5640 C 543.687 3.5234 -0.73377 0
M  V30 5641 C 543.295 3.90481 -2.1961 0
M  V30 5642 C 545.039 4.22653 -0.395574 0
M  V30 5643 C 542.946 5.38954 -2.43481 0
M  V30 5644 H 541.876 0.736749 -0.160364 0
M  V30 5645 H 544.527 1.51623 -1.03358 0
M  V30 5646 H 542.909 3.95941 -0.068589 0
M  V30 5647 H 544.083 3.57922 -2.90221 0
M  V30 5648 H 542.398 3.33165 -2.4978 0
M  V30 5649 H 544.995 5.31848 -0.551477 0
M  V30 5650 H 545.338 4.11004 0.661921 0
M  V30 5651 H 545.871 3.84601 -1.01621 0
M  V30 5652 H 542.61 5.55612 -3.47816 0
M  V30 5653 H 542.13 5.72954 -1.77437 0
M  V30 5654 H 543.809 6.05907 -2.26905 0
M  V30 5655 N 543.941 0.601185 1.45683 0
M  V30 5656 C 545.189 0.0936957 2.01883 0
M  V30 5657 C 545.51 -1.2779 1.47291 0
M  V30 5658 O 544.78 -1.84279 0.664691 0
M  V30 5659 H 543.36 0.0316466 0.746329 0
M  V30 5660 H 546.022 0.781137 1.78562 0
M  V30 5661 H 545.118 0.0386297 3.12076 0
M  V30 5662 N 545.419 -1.53889 0.339982 0
M  V30 5663 C 546.351 -2.22435 -0.55275 0
M  V30 5664 C 547.364 -1.22975 -1.06681 0
M  V30 5665 O 548.553 -1.49351 -0.977575 0
M  V30 5666 C 545.653 -2.8882 -1.77302 0
M  V30 5667 C 544.826 -4.14563 -1.39486 0
M  V30 5668 C 543.885 -4.64391 -2.47442 0
M  V30 5669 O 542.911 -5.28687 -2.10899 0
M  V30 5670 N 544.113 -4.40015 -3.78639 0
M  V30 5671 H 546.878 -2.9968 0.0342669 0
M  V30 5672 H 544.439 -1.61068 0.16394 0
M  V30 5673 H 546.431 -3.19072 -2.48948 0
M  V30 5674 H 545.001 -2.15182 -2.26749 0
M  V30 5675 H 544.221 -3.90896 -0.509321 0
M  V30 5676 H 545.509 -4.96362 -1.11813 0
M  V30 5677 H 544.907 -3.88586 -4.11118 0
M  V30 5678 H 543.464 -4.74881 -4.46465 0
M  V30 5679 N 546.897 -0.0685191 -1.57451 0
M  V30 5680 C 547.86 0.885173 -2.11417 0
M  V30 5681 C 548.86 1.22853 -1.03748 0
M  V30 5682 O 550.05 1.16235 -1.2975 0
M  V30 5683 C 547.182 2.18964 -2.61281 0
M  V30 5684 H 548.375 0.417034 -2.96986 0
M  V30 5685 H 545.928 0.18014 -1.55258 0
M  V30 5686 H 546.663 2.70321 -1.79156 0
M  V30 5687 H 546.448 1.9534 -3.39977 0
M  V30 5688 H 547.938 2.87242 -3.0312 0
M  V30 5689 N 548.375 1.56261 0.205012 0
M  V30 5690 C 549.308 1.88797 1.28183 0
M  V30 5691 C 550.286 0.747018 1.44424 0
M  V30 5692 O 551.47 0.997039 1.59973 0
M  V30 5693 C 548.597 2.10949 2.64987 0
M  V30 5694 C 547.643 3.33649 2.6567 0
M  V30 5695 S 548.476 4.89078 2.18088 0
M  V30 5696 C 549.632 5.14286 3.56736 0
M  V30 5697 H 549.865 2.79837 1.00393 0
M  V30 5698 H 547.398 1.48911 0.408042 0
M  V30 5699 H 549.356 2.24395 3.4374 0
M  V30 5700 H 548.017 1.20678 2.89993 0
M  V30 5701 H 547.21 3.46245 3.66239 0
M  V30 5702 H 546.812 3.19146 1.94992 0
M  V30 5703 H 549.104 5.04198 4.52537 0
M  V30 5704 H 550.047 6.16096 3.49043 0
M  V30 5705 H 550.455 4.41957 3.51189 0
M  V30 5706 N 549.853 -0.472356 1.50355 0
M  V30 5707 C 551.1 -1.22453 1.61281 0
M  V30 5708 C 551.428 -1.91972 0.31256 0
M  V30 5709 O 550.683 -1.82696 -0.701475 0
M  V30 5710 C 550.982 -2.29257 2.74182 0
M  V30 5711 C 550.648 -1.76999 4.14708 0
M  V30 5712 C 549.31 -1.62467 4.52944 0
M  V30 5713 C 551.662 -1.38215 5.0254 0
M  V30 5714 C 548.99 -1.07574 5.76754 0
M  V30 5715 C 551.342 -0.847638 6.26895 0
M  V30 5716 C 550.006 -0.688946 6.63935 0
M  V30 5717 H 549.276 -0.448087 0.590168 0
M  V30 5718 H 551.923 -0.520744 1.84284 0
M  V30 5719 H 550.228 -3.05538 2.45263 0
M  V30 5720 H 551.925 -2.87212 2.7984 0
M  V30 5721 H 548.515 -1.89276 3.84542 0
M  V30 5722 H 552.699 -1.48276 4.73633 0
M  V30 5723 H 547.955 -0.940237 6.04127 0
M  V30 5724 H 552.129 -0.538455 6.94315 0
M  V30 5725 H 549.756 -0.261435 7.5975 0
M  V30 5726 N 551.331 -1.39911 -0.725443 0
M  V30 5727 C 552.241 -1.41688 -1.8698 0
M  V30 5728 C 553.257 -0.310579 -1.71206 0
M  V30 5729 O 554.433 -0.55359 -1.93642 0
M  V30 5730 C 551.498 -1.26811 -3.22676 0
M  V30 5731 C 550.559 -2.47497 -3.50776 0
M  V30 5732 C 549.792 -2.3332 -4.79997 0
M  V30 5733 O 550.015 -1.34175 -5.54394 0
M  V30 5734 O 548.949 -3.22498 -5.08211 0
M  V30 5735 H 552.775 -2.38171 -1.88436 0
M  V30 5736 H 550.36 -1.21128 -0.874548 0
M  V30 5737 H 552.242 -1.20684 -4.03749 0
M  V30 5738 H 550.917 -0.334289 -3.21969 0
M  V30 5739 H 549.824 -2.59201 -2.69751 0
M  V30 5740 H 551.157 -3.39606 -3.5627 0
M  V30 5741 N 552.809 0.956637 -1.25245 0
M  V30 5742 C 554.034 1.74104 -1.12706 0
M  V30 5743 C 554.459 1.85436 0.315429 0
M  V30 5744 O 553.817 1.33334 1.22848 0
M  V30 5745 C 553.865 3.1338 -1.78396 0
M  V30 5746 O 552.969 3.98485 -1.06224 0
M  V30 5747 H 552.31 0.53476 -0.393609 0
M  V30 5748 H 554.84 1.19924 -1.65769 0
M  V30 5749 H 554.85 3.6385 -1.846 0
M  V30 5750 H 553.525 3.04448 -2.83345 0
M  V30 5751 H 552.102 3.56952 -1.07886 0
M  V30 5752 N 554.287 1.06798 1.15896 0
M  V30 5753 C 555.533 0.788934 1.86825 0
M  V30 5754 C 555.866 -0.683084 1.8179 0
M  V30 5755 O 555.141 -1.50086 1.23711 0
M  V30 5756 C 555.424 1.29065 3.36176 0
M  V30 5757 C 555.277 2.8268 3.49874 0
M  V30 5758 C 556.596 0.902655 4.30744 0
M  V30 5759 H 553.715 0.288066 0.678371 0
M  V30 5760 H 556.357 1.32479 1.36195 0
M  V30 5761 H 554.507 0.834806 3.79425 0
M  V30 5762 H 556.179 3.36511 3.15528 0
M  V30 5763 H 554.422 3.21157 2.91617 0
M  V30 5764 H 555.093 3.12852 4.54783 0
M  V30 5765 H 557.569 1.29535 3.95424 0
M  V30 5766 H 556.445 1.28111 5.3374 0
M  V30 5767 H 556.706 -0.191951 4.41683 0
M  V30 5768 N 555.766 -1.3263 0.851289 0
M  V30 5769 C 556.716 -2.26451 0.265302 0
M  V30 5770 C 557.7 -1.49814 -0.586899 0
M  V30 5771 O 558.892 -1.71525 -0.436834 0
M  V30 5772 C 556.021 -3.38895 -0.548212 0
M  V30 5773 C 555.107 -4.2292 0.316189 0
M  V30 5774 N 555.498 -4.86014 1.40084 0
M  V30 5775 C 553.796 -4.45876 0.105356 0
M  V30 5776 C 554.497 -5.48667 1.93235 0
M  V30 5777 N 553.473 -5.29455 1.232 0
M  V30 5778 H 557.275 -2.72757 1.09457 0
M  V30 5779 H 554.789 -1.4668 0.697047 0
M  V30 5780 H 556.786 -4.05111 -0.984402 0
M  V30 5781 H 555.446 -2.94135 -1.37531 0
M  V30 5782 H 556.457 -4.86212 1.78377 0
M  V30 5783 H 553.134 -4.11804 -0.687299 0
M  V30 5784 H 554.524 -6.08865 2.84135 0
M  V30 5785 N 557.244 -0.608902 -1.45362 0
M  V30 5786 C 558.493 -0.10218 -2.01441 0
M  V30 5787 C 558.806 1.27546 -1.48295 0
M  V30 5788 O 560.012 1.87498 -1.96359 0
M  V30 5789 C 558.468 -0.131985 -3.59658 0
M  V30 5790 C 558.076 -1.50956 -4.21801 0
M  V30 5791 C 559.82 0.319427 -4.23296 0
M  V30 5792 C 557.727 -1.49568 -5.72174 0
M  V30 5793 H 556.657 -0.0344314 -0.753213 0
M  V30 5794 H 559.308 -0.764426 -1.6682 0
M  V30 5795 H 557.69 0.596939 -3.91475 0
M  V30 5796 H 558.864 -2.26029 -4.01556 0
M  V30 5797 H 557.179 -1.90318 -3.70362 0
M  V30 5798 H 559.776 0.349013 -5.3356 0
M  V30 5799 H 560.119 1.34237 -3.94064 0
M  V30 5800 H 560.652 -0.356273 -3.96201 0
M  V30 5801 H 557.391 -2.49626 -6.06108 0
M  V30 5802 H 556.911 -0.787542 -5.94607 0
M  V30 5803 H 558.59 -1.21989 -6.35396 0
M  V30 5804 N 558.722 1.53707 -0.348139 0
M  V30 5805 C 559.652 2.28111 0.498766 0
M  V30 5806 C 560.633 1.29851 1.09876 0
M  V30 5807 O 561.818 1.587 1.11928 0
M  V30 5808 C 558.948 3.05735 1.64753 0
M  V30 5809 C 557.902 4.11537 1.17565 0
M  V30 5810 C 557.228 4.77142 2.4133 0
M  V30 5811 C 558.528 5.21587 0.272844 0
M  V30 5812 H 560.222 2.99152 -0.121934 0
M  V30 5813 H 557.768 1.43875 -0.0600842 0
M  V30 5814 H 559.721 3.56526 2.24649 0
M  V30 5815 H 558.445 2.32354 2.2952 0
M  V30 5816 H 557.104 3.61665 0.599483 0
M  V30 5817 H 556.752 4.0035 3.04514 0
M  V30 5818 H 556.452 5.48626 2.10436 0
M  V30 5819 H 557.976 5.30719 3.01943 0
M  V30 5820 H 559.39 5.67986 0.778779 0
M  V30 5821 H 557.787 6.00074 0.0555849 0
M  V30 5822 H 558.857 4.79969 -0.689785 0
M  V30 5823 N 560.2 0.0768682 1.57412 0
M  V30 5824 C 561.428 -0.59997 1.9801 0
M  V30 5825 C 561.843 -1.62842 0.955408 0
M  V30 5826 O 561.2 -1.8241 -0.057314 0
M  V30 5827 C 561.251 -1.26401 3.38681 0
M  V30 5828 O 560.972 -0.276723 4.37225 0
M  V30 5829 C 562.473 -2.0282 3.94182 0
M  V30 5830 H 559.693 -0.162239 0.651091 0
M  V30 5831 H 562.237 0.150771 2.03943 0
M  V30 5832 H 560.392 -1.96581 3.33819 0
M  V30 5833 H 560.806 -0.753744 5.19056 0
M  V30 5834 H 562.28 -2.44667 4.94815 0
M  V30 5835 H 562.757 -2.88678 3.31001 0
M  V30 5836 H 563.363 -1.37496 4.02461 0
M  V30 5837 N 561.678 -1.56367 -0.196722 0
M  V30 5838 C 562.626 -1.95304 -1.2633 0
M  V30 5839 C 563.62 -0.838252 -1.47206 0
M  V30 5840 O 564.826 -1.02325 -1.48087 0
M  V30 5841 H 561.201 -0.621013 -0.424083 0
M  V30 5842 H 563.172 -2.84254 -0.907879 0
M  V30 5843 C 561.921 -2.3074 -2.60104 0
M  V30 5844 H 561.244 -3.16047 -2.44856 0
M  V30 5845 H 562.684 -2.61849 -3.33484 0
M  V30 5846 C 561.143 -1.14143 -3.16975 0
M  V30 5847 O 561.673 -0.415602 -3.99544 0
M  V30 5848 N 559.879 -0.91867 -2.75697 0
M  V30 5849 H 559.426 -1.51065 -2.08656 0
M  V30 5850 H 559.384 -0.140321 -3.14087 0
M  V30 5851 N 563.156 0.464375 -1.50603 0
M  V30 5852 C 564.119 1.54393 -1.69397 0
M  V30 5853 C 565.119 1.50566 -0.564504 0
M  V30 5854 O 566.309 1.53066 -0.831645 0
M  V30 5855 C 563.441 2.9401 -1.72543 0
M  V30 5856 H 564.634 1.39044 -2.65719 0
M  V30 5857 H 562.187 0.69122 -1.40185 0
M  V30 5858 H 562.922 3.14795 -0.77938 0
M  V30 5859 H 562.707 2.98195 -2.54602 0
M  V30 5860 H 564.197 3.72375 -1.89015 0
M  V30 5861 N 564.634 1.40294 0.718013 0
M  V30 5862 C 565.874 1.39888 1.49032 0
M  V30 5863 C 566.238 -0.000462935 1.92 0
M  V30 5864 O 567.439 -0.129622 2.68487 0
M  V30 5865 C 565.71 2.35868 2.68516 0
M  V30 5866 S 567.269 2.53799 3.57954 0
M  V30 5867 H 564.087 0.495849 0.509563 0
M  V30 5868 H 566.689 1.76541 0.839846 0
M  V30 5869 H 565.393 3.36375 2.35117 0
M  V30 5870 H 564.924 2.0049 3.38478 0
M  V30 5871 H 566.939 1.78859 4.62843 0
M  V30 5872 N 566.112 -0.949982 1.2575 0
M  V30 5873 C 567.342 -1.72721 1.13363 0
M  V30 5874 C 567.75 -1.86562 -0.314842 0
M  V30 5875 O 567.093 -1.36621 -1.22803 0
M  V30 5876 C 567.155 -3.15695 1.7198 0
M  V30 5877 C 566.819 -3.25268 3.21014 0
M  V30 5878 C 567.816 -3.09222 4.17945 0
M  V30 5879 C 565.501 -3.4894 3.61312 0
M  V30 5880 C 567.495 -3.16701 5.53154 0
M  V30 5881 C 565.182 -3.56055 4.96657 0
M  V30 5882 C 566.18 -3.3995 5.92387 0
M  V30 5883 O 565.868 -3.46757 7.25269 0
M  V30 5884 H 565.6 -0.547888 0.395973 0
M  V30 5885 H 568.154 -1.20009 1.66694 0
M  V30 5886 H 566.384 -3.69791 1.13101 0
M  V30 5887 H 568.073 -3.75295 1.54624 0
M  V30 5888 H 568.839 -2.90798 3.88151 0
M  V30 5889 H 564.718 -3.60534 2.87291 0
M  V30 5890 H 568.262 -3.04048 6.27854 0
M  V30 5891 H 564.159 -3.73997 5.26115 0
M  V30 5892 H 564.927 -3.63358 7.33426 0
M  V30 5893 N 567.59 -1.07411 -1.15328 0
M  V30 5894 C 568.538 -0.689316 -2.22151 0
M  V30 5895 C 569.532 0.300156 -1.6672 0
M  V30 5896 O 570.738 0.163804 -1.79253 0
M  V30 5897 H 567.113 -0.204834 -0.723566 0
M  V30 5898 H 569.084 -1.59988 -2.51886 0
M  V30 5899 C 567.833 -0.103848 -3.47545 0
M  V30 5900 H 567.156 -0.856367 -3.90521 0
M  V30 5901 H 568.596 0.127725 -4.23808 0
M  V30 5902 C 567.055 1.15563 -3.1646 0
M  V30 5903 O 567.585 2.242 -3.33312 0
M  V30 5904 N 565.791 1.06203 -2.70498 0
M  V30 5905 H 565.338 0.177933 -2.56985 0
M  V30 5906 H 565.296 1.90553 -2.50074 0
M  V30 5907 N 569.068 1.32177 -0.85831 0
M  V30 5908 C 569.998 2.31282 -0.321041 0
M  V30 5909 C 570.979 1.59841 0.581786 0
M  V30 5910 O 572.164 1.87619 0.501262 0
M  V30 5911 C 569.294 3.4385 0.48832 0
M  V30 5912 C 568.248 4.26799 -0.320391 0
M  V30 5913 C 567.574 5.31164 0.613934 0
M  V30 5914 C 568.874 4.98829 -1.54813 0
M  V30 5915 H 570.568 2.76469 -1.14915 0
M  V30 5916 H 568.114 1.32916 -0.554028 0
M  V30 5917 H 570.067 4.12224 0.874626 0
M  V30 5918 H 568.791 2.97401 1.34983 0
M  V30 5919 H 567.45 3.60077 -0.688497 0
M  V30 5920 H 567.098 4.80967 1.47239 0
M  V30 5921 H 566.798 5.8755 0.0768097 0
M  V30 5922 H 568.322 6.024 0.997336 0
M  V30 5923 H 569.736 5.59864 -1.23392 0
M  V30 5924 H 568.133 5.64957 -2.02346 0
M  V30 5925 H 569.203 4.26483 -2.30739 0
M  V30 5926 N 570.547 0.616602 1.45037 0
M  V30 5927 C 571.477 -0.0840787 2.33349 0
M  V30 5928 C 572.458 -0.849641 1.4736 0
M  V30 5929 O 573.643 -0.818407 1.76113 0
M  V30 5930 C 570.773 -1.07604 3.3021 0
M  V30 5931 C 569.727 -0.423096 4.25904 0
M  V30 5932 C 569.053 -1.52394 5.12523 0
M  V30 5933 C 570.353 0.661457 5.18095 0
M  V30 5934 H 572.047 0.653333 2.92185 0
M  V30 5935 H 569.593 0.315634 1.40498 0
M  V30 5936 H 571.546 -1.57485 3.90866 0
M  V30 5937 H 570.27 -1.84416 2.69552 0
M  V30 5938 H 568.929 0.05493 3.66559 0
M  V30 5939 H 568.577 -2.28257 4.48227 0
M  V30 5940 H 568.277 -1.09251 5.77354 0
M  V30 5941 H 569.801 -2.02485 5.76049 0
M  V30 5942 H 571.215 0.246353 5.7277 0
M  V30 5943 H 569.612 1.01517 5.91451 0
M  V30 5944 H 570.682 1.53446 4.59981 0
M  V30 5945 N 572.025 -1.5352 0.356285 0
M  V30 5946 C 572.935 -2.29151 -0.502712 0
M  V30 5947 C 573.951 -1.34753 -1.1008 0
M  V30 5948 O 575.127 -1.67803 -1.11374 0
M  V30 5949 C 572.192 -3.05911 -1.63154 0
M  V30 5950 C 571.253 -4.15958 -1.06194 0
M  V30 5951 C 570.486 -4.8905 -2.13696 0
M  V30 5952 O 570.709 -4.61919 -3.34645 0
M  V30 5953 O 569.643 -5.75202 -1.77275 0
M  V30 5954 H 573.469 -3.03492 0.112466 0
M  V30 5955 H 571.054 -1.4891 0.120942 0
M  V30 5956 H 572.936 -3.53874 -2.28804 0
M  V30 5957 H 571.611 -2.34415 -2.23229 0
M  V30 5958 H 570.518 -3.7227 -0.369603 0
M  V30 5959 H 571.851 -4.89593 -0.505872 0
M  V30 5960 N 573.503 -0.0852151 -1.57369 0
M  V30 5961 C 574.45 0.877268 -2.13478 0
M  V30 5962 C 575.42 1.28642 -1.05073 0
M  V30 5963 O 576.605 1.36992 -1.32808 0
M  V30 5964 C 573.745 2.13464 -2.71159 0
M  V30 5965 C 572.858 1.77691 -3.93764 0
M  V30 5966 C 571.993 2.98139 -4.39643 0
M  V30 5967 C 571.032 2.58447 -5.54862 0
M  V30 5968 N 570.169 3.71698 -5.95639 0
M  V30 5969 H 575.009 0.391933 -2.95411 0
M  V30 5970 H 572.546 0.181796 -1.45972 0
M  V30 5971 H 574.504 2.87086 -3.02717 0
M  V30 5972 H 573.134 2.59514 -1.91969 0
M  V30 5973 H 572.186 0.940768 -3.68583 0
M  V30 5974 H 573.498 1.44497 -4.77412 0
M  V30 5975 H 572.652 3.80026 -4.72933 0
M  V30 5976 H 571.391 3.34536 -3.54876 0
M  V30 5977 H 570.396 1.74984 -5.21211 0
M  V30 5978 H 571.621 2.23205 -6.41371 0
M  V30 5979 H 569.567 4.07831 -5.13819 0
M  V30 5980 H 569.484 3.42317 -6.74059 0
M  V30 5981 H 570.752 4.54123 -6.33555 0
M  V30 5982 N 574.981 1.5647 0.188427 0
M  V30 5983 C 576.221 1.82803 0.914469 0
M  V30 5984 C 576.585 0.663681 1.80165 0
M  V30 5985 O 577.786 0.807059 2.56398 0
M  V30 5986 C 576.057 3.14187 1.70357 0
M  V30 5987 S 577.616 3.61947 2.48072 0
M  V30 5988 H 574.434 0.641497 0.306599 0
M  V30 5989 H 577.036 1.94694 0.177361 0
M  V30 5990 H 575.74 3.96937 1.04255 0
M  V30 5991 H 575.271 3.05192 2.48237 0
M  V30 5992 H 577.286 3.27913 3.72407 0
M  V30 5993 N 576.459 -0.456382 1.50847 0
M  V30 5994 C 577.708 -1.2042 1.61808 0
M  V30 5995 C 578.021 -1.9278 0.330932 0
M  V30 5996 O 579.227 -2.69612 0.319643 0
M  V30 5997 C 577.683 -2.18891 2.85683 0
M  V30 5998 C 577.291 -1.52267 4.2133 0
M  V30 5999 C 579.035 -2.94224 3.05994 0
M  V30 6000 C 576.942 -2.4911 5.36375 0
M  V30 6001 H 575.872 -0.453177 0.602616 0
M  V30 6002 H 578.523 -0.473144 1.77295 0
M  V30 6003 H 576.905 -2.95351 2.63787 0
M  V30 6004 H 578.079 -0.814949 4.53536 0
M  V30 6005 H 576.394 -0.891594 4.06743 0
M  V30 6006 H 578.991 -3.66732 3.89117 0
M  V30 6007 H 579.334 -3.54469 2.18306 0
M  V30 6008 H 579.867 -2.24874 3.28141 0
M  V30 6009 H 576.606 -1.93582 6.26264 0
M  V30 6010 H 576.126 -3.17991 5.08569 0
M  V30 6011 H 577.805 -3.10637 5.67551 0
M  V30 6012 N 577.937 -1.40673 -0.710563 0
M  V30 6013 C 578.885 -1.41517 -1.84596 0
M  V30 6014 C 579.879 -0.295043 -1.66811 0
M  V30 6015 O 581.085 -0.466331 -1.73854 0
M  V30 6016 H 577.46 -0.442467 -0.608052 0
M  V30 6017 H 579.431 -2.37238 -1.80999 0
M  V30 6018 C 578.18 -1.29957 -3.225 0
M  V30 6019 H 577.503 -2.15429 -3.36794 0
M  V30 6020 H 578.943 -1.34608 -4.02066 0
M  V30 6021 C 577.402 -0.0103164 -3.36898 0
M  V30 6022 O 577.932 0.950707 -3.90288 0
M  V30 6023 N 576.138 0.0608409 -2.90536 0
M  V30 6024 H 575.685 -0.721943 -2.47277 0
M  V30 6025 H 575.643 0.92292 -3.00549 0
M  V30 6026 N 579.415 0.9433 -1.26252 0
M  V30 6027 C 580.663 1.68592 -1.11451 0
M  V30 6028 C 580.984 1.91957 0.343123 0
M  V30 6029 O 580.254 1.51475 1.24226 0
M  V30 6030 H 578.834 0.624789 -0.409448 0
M  V30 6031 H 581.496 1.13351 -1.58548 0
M  V30 6032 H 580.592 2.66054 -1.63162 0
M  V30 6033 N 580.893 1.08022 1.14757 0
M  V30 6034 C 582.142 0.802468 1.8505 0
M  V30 6035 C 582.455 -0.674061 1.83619 0
M  V30 6036 O 583.661 -1.06683 2.49662 0
M  V30 6037 C 582.117 1.38551 3.32162 0
M  V30 6038 C 581.725 2.89354 3.42021 0
M  V30 6039 C 583.469 1.18608 4.07594 0
M  V30 6040 C 581.376 3.40815 4.83321 0
M  V30 6041 H 580.306 0.296518 0.693248 0
M  V30 6042 H 582.957 1.30114 1.29393 0
M  V30 6043 H 581.339 0.814556 3.87532 0
M  V30 6044 H 582.513 3.52552 2.96722 0
M  V30 6045 H 580.828 3.08165 2.80041 0
M  V30 6046 H 583.425 1.54525 5.11885 0
M  V30 6047 H 583.768 0.125599 4.1611 0
M  V30 6048 H 584.301 1.72375 3.58513 0
M  V30 6049 H 581.04 4.46418 4.79991 0
M  V30 6050 H 580.56 2.82374 5.29174 0
M  V30 6051 H 582.239 3.37171 5.522 0
M  V30 6052 N 582.371 -1.3172 0.865308 0
M  V30 6053 C 583.599 -2.01057 0.488251 0
M  V30 6054 C 584.014 -1.64979 -0.918 0
M  V30 6055 O 583.371 -0.876597 -1.60069 0
M  V30 6056 C 583.422 -3.55964 0.630224 0
M  V30 6057 O 583.143 -3.90749 1.98109 0
M  V30 6058 C 584.644 -4.42574 0.253567 0
M  V30 6059 H 581.864 -0.64332 0.190736 0
M  V30 6060 H 584.408 -1.68058 1.16519 0
M  V30 6061 H 582.563 -3.874 0.000895422 0
M  V30 6062 H 582.977 -4.85467 1.9855 0
M  V30 6063 H 584.451 -5.50521 0.403875 0
M  V30 6064 H 584.928 -4.31724 -0.806895 0
M  V30 6065 H 585.534 -4.16547 0.858404 0
M  V30 6066 N 583.85 -0.624285 -1.44708 0
M  V30 6067 C 584.812 0.0749638 -2.29077 0
M  V30 6068 C 585.812 0.778965 -1.40673 0
M  V30 6069 O 587.003 0.624591 -1.62618 0
M  V30 6070 C 584.135 1.11663 -3.22094 0
M  V30 6071 H 585.327 -0.667013 -2.92388 0
M  V30 6072 H 582.88 -0.384098 -1.51507 0
M  V30 6073 H 583.615 1.88881 -2.63618 0
M  V30 6074 H 583.401 0.61583 -3.87234 0
M  V30 6075 H 584.891 1.60585 -3.8549 0
M  V30 6076 N 585.328 1.53329 -0.364422 0
M  V30 6077 C 586.276 2.27212 0.497737 0
M  V30 6078 C 587.27 1.30146 1.08437 0
M  V30 6079 O 588.476 1.47778 1.0277 0
M  V30 6080 H 584.851 0.730329 0.179232 0
M  V30 6081 H 586.822 2.98037 -0.147182 0
M  V30 6082 C 585.571 3.07333 1.6261 0
M  V30 6083 H 584.894 3.81866 1.184 0
M  V30 6084 H 586.334 3.62209 2.20409 0
M  V30 6085 C 584.793 2.18102 2.56775 0
M  V30 6086 O 585.323 1.79104 3.59562 0
M  V30 6087 N 583.529 1.82759 2.25937 0
M  V30 6088 H 583.076 2.14671 1.42387 0
M  V30 6089 H 583.034 1.23342 2.89196 0
M  V30 6090 N 586.806 0.0935595 1.57322 0
M  V30 6091 C 587.753 -0.865935 2.1394 0
M  V30 6092 C 588.723 -1.28083 1.05754 0
M  V30 6093 O 589.908 -1.36285 1.33533 0
M  V30 6094 C 587.048 -2.12023 2.72287 0
M  V30 6095 C 586.161 -1.756 3.94701 0
M  V30 6096 C 585.296 -2.95804 4.41218 0
M  V30 6097 C 584.335 -2.555 5.56225 0
M  V30 6098 N 583.472 -3.68534 5.97601 0
M  V30 6099 H 588.312 -0.376261 2.95615 0
M  V30 6100 H 585.849 -0.174052 1.46067 0
M  V30 6101 H 587.807 -2.85477 3.04235 0
M  V30 6102 H 586.437 -2.58492 1.93343 0
M  V30 6103 H 585.489 -0.921208 3.69077 0
M  V30 6104 H 586.801 -1.41964 4.78171 0
M  V30 6105 H 585.955 -3.77513 4.74941 0
M  V30 6106 H 584.694 -3.32649 3.56645 0
M  V30 6107 H 583.699 -1.72218 5.22131 0
M  V30 6108 H 584.924 -2.19801 6.42545 0
M  V30 6109 H 582.87 -4.051 5.15974 0
M  V30 6110 H 582.787 -3.38737 6.75865 0
M  V30 6111 H 584.055 -4.50757 6.35955 0
M  V30 6112 N 588.284 -1.56567 -0.180126 0
M  V30 6113 C 589.194 -1.98947 -1.24327 0
M  V30 6114 C 590.21 -0.899446 -1.4895 0
M  V30 6115 O 591.386 -1.20639 -1.61271 0
M  V30 6116 C 588.451 -2.33328 -2.56435 0
M  V30 6117 C 587.512 -3.56114 -2.39752 0
M  V30 6118 C 586.745 -3.88845 -3.65561 0
M  V30 6119 O 586.968 -3.22662 -4.70368 0
M  V30 6120 O 585.902 -4.82226 -3.60197 0
M  V30 6121 H 589.728 -2.89634 -0.913565 0
M  V30 6122 H 587.313 -1.44319 -0.386306 0
M  V30 6123 H 589.195 -2.5645 -3.34382 0
M  V30 6124 H 587.87 -1.45806 -2.89002 0
M  V30 6125 H 586.777 -3.38221 -1.59866 0
M  V30 6126 H 588.11 -4.4415 -2.12113 0
M  V30 6127 N 589.762 0.448376 -1.51087 0
M  V30 6128 C 591.008 1.20049 -1.6345 0
M  V30 6129 C 591.341 1.91121 -0.344444 0
M  V30 6130 O 590.616 1.83125 0.655396 0
M  V30 6131 C 590.899 2.22624 -2.83038 0
M  V30 6132 C 590.752 1.55708 -4.21989 0
M  V30 6133 C 592.071 3.23718 -2.98152 0
M  V30 6134 H 589.19 0.435085 -0.59487 0
M  V30 6135 H 591.832 0.491183 -1.83541 0
M  V30 6136 H 589.982 2.83117 -2.66039 0
M  V30 6137 H 591.654 0.986367 -4.50631 0
M  V30 6138 H 589.897 0.859647 -4.25197 0
M  V30 6139 H 590.568 2.30357 -5.01637 0
M  V30 6140 H 593.044 2.73269 -3.13788 0
M  V30 6141 H 591.92 3.92795 -3.83411 0
M  V30 6142 H 592.181 3.89179 -2.09743 0
M  V30 6143 N 591.24 1.41047 0.703093 0
M  V30 6144 C 592.48 1.41461 1.4754 0
M  V30 6145 C 592.844 0.0199013 1.9199 0
M  V30 6146 O 594.045 -0.101138 2.6861 0
M  V30 6147 C 592.316 2.38703 2.66 0
M  V30 6148 S 593.875 2.57582 3.55242 0
M  V30 6149 H 590.693 0.501226 0.504275 0
M  V30 6150 H 593.295 1.77422 0.821074 0
M  V30 6151 H 591.999 3.3885 2.31536 0
M  V30 6152 H 591.53 2.04069 3.36333 0
M  V30 6153 H 593.545 1.83758 4.6092 0
M  V30 6154 N 592.718 -0.936591 1.26751 0
M  V30 6155 C 593.628 -2.06949 1.10496 0
M  V30 6156 C 594.644 -1.7396 0.037271 0
M  V30 6157 O 595.82 -1.99941 0.241944 0
M  V30 6158 C 592.885 -3.38612 0.744491 0
M  V30 6159 C 591.946 -3.85355 1.89209 0
M  V30 6160 C 591.179 -5.10735 1.54873 0
M  V30 6161 O 591.402 -5.68602 0.452546 0
M  V30 6162 O 590.336 -5.52632 2.38499 0
M  V30 6163 H 594.162 -2.23571 2.05547 0
M  V30 6164 H 591.747 -1.05428 1.05855 0
M  V30 6165 H 593.629 -4.17711 0.556396 0
M  V30 6166 H 592.304 -3.23218 -0.176582 0
M  V30 6167 H 591.211 -3.07182 2.13518 0
M  V30 6168 H 592.544 -4.05277 2.79305 0
M  V30 6169 N 594.196 -1.08629 -1.14182 0
M  V30 6170 C 595.444 -0.815731 -1.84906 0
M  V30 6171 C 595.765 0.660441 -1.83475 0
M  V30 6172 O 595.035 1.47888 -1.28476 0
M  V30 6173 H 593.615 -0.298773 -0.684648 0
M  V30 6174 H 596.277 -1.37274 -1.38354 0
M  V30 6175 H 595.373 -1.16193 -2.89665 0
M  V30 6176 N 595.674 1.31259 -0.872281 0
M  V30 6177 C 596.904 2.00504 -0.498183 0
M  V30 6178 C 597.312 1.65632 0.914479 0
M  V30 6179 O 596.655 0.882849 1.61095 0
M  V30 6180 C 596.717 3.5482 -0.578194 0
M  V30 6181 C 596.381 4.13172 -1.95289 0
M  V30 6182 C 597.378 4.30107 -2.92069 0
M  V30 6183 C 595.063 4.48846 -2.25483 0
M  V30 6184 C 597.057 4.81908 -4.17185 0
M  V30 6185 C 594.744 5.00349 -3.50847 0
M  V30 6186 C 595.742 5.16831 -4.46514 0
M  V30 6187 O 595.43 5.67228 -5.69656 0
M  V30 6188 H 595.162 0.648055 -0.192354 0
M  V30 6189 H 597.716 1.6841 -1.17589 0
M  V30 6190 H 595.946 3.86383 0.156438 0
M  V30 6191 H 597.635 4.05318 -0.217192 0
M  V30 6192 H 598.401 4.02862 -2.7005 0
M  V30 6193 H 594.28 4.35292 -1.51795 0
M  V30 6194 H 597.824 4.94688 -4.91863 0
M  V30 6195 H 593.721 5.27028 -3.72708 0
M  V30 6196 H 594.489 5.85592 -5.7186 0
M  V30 6197 N 597.152 0.631951 1.44375 0
M  V30 6198 C 598.398 0.13697 2.02337 0
M  V30 6199 C 598.731 -1.23826 1.49602 0
M  V30 6200 O 598.006 -1.8221 0.680415 0
M  V30 6201 C 598.289 0.124536 3.59885 0
M  V30 6202 C 598.142 1.53217 4.229 0
M  V30 6203 C 599.461 -0.550481 4.36644 0
M  V30 6204 H 596.58 0.051247 0.735216 0
M  V30 6205 H 599.222 0.808581 1.71936 0
M  V30 6206 H 597.372 -0.44737 3.85916 0
M  V30 6207 H 599.044 2.15303 4.07973 0
M  V30 6208 H 597.287 2.0858 3.80364 0
M  V30 6209 H 597.958 1.4755 5.31914 0
M  V30 6210 H 600.434 -0.0641154 4.16051 0
M  V30 6211 H 599.31 -0.528371 5.46351 0
M  V30 6212 H 599.571 -1.62097 4.11311 0
M  V30 6213 N 598.631 -1.53133 0.372548 0
M  V30 6214 C 599.861 -2.05476 -0.215202 0
M  V30 6215 C 600.269 -1.24534 -1.42436 0
M  V30 6216 O 599.612 -0.280771 -1.81542 0
M  V30 6217 C 599.674 -3.53276 -0.666068 0
M  V30 6218 C 599.338 -4.54998 0.427342 0
M  V30 6219 C 600.335 -5.03911 1.27944 0
M  V30 6220 C 598.02 -4.98828 0.589579 0
M  V30 6221 C 600.014 -5.95263 2.27905 0
M  V30 6222 C 597.701 -5.89984 1.59255 0
M  V30 6223 C 598.699 -6.38093 2.43571 0
M  V30 6224 O 598.387 -7.27451 3.42156 0
M  V30 6225 H 598.119 -0.67481 -0.040099 0
M  V30 6226 H 600.673 -1.98409 0.531312 0
M  V30 6227 H 598.903 -3.57904 -1.4643 0
M  V30 6228 H 600.592 -3.88442 -1.1776 0
M  V30 6229 H 601.358 -4.70792 1.16532 0
M  V30 6230 H 597.237 -4.60965 -0.0569456 0
M  V30 6231 H 600.781 -6.32736 2.93753 0
M  V30 6232 H 596.678 -6.22518 1.70711 0
M  V30 6233 H 597.446 -7.45467 3.37967 0
M  V30 6234 N 600.109 -0.101901 -1.5727 0
M  V30 6235 C 601.057 0.872034 -2.15635 0
M  V30 6236 C 602.051 1.28742 -1.10099 0
M  V30 6237 O 603.257 1.26116 -1.28432 0
M  V30 6238 H 599.632 0.299269 -0.689886 0
M  V30 6239 H 601.603 0.355137 -2.96279 0
M  V30 6240 C 600.352 2.11886 -2.7568 0
M  V30 6241 H 599.675 1.80813 -3.56576 0
M  V30 6242 H 601.115 2.78077 -3.20077 0
M  V30 6243 C 599.574 2.89739 -1.7191 0
M  V30 6244 O 600.104 3.84522 -1.16213 0
M  V30 6245 N 598.31 2.53407 -1.42245 0
M  V30 6246 H 597.857 1.76398 -1.87727 0
M  V30 6247 H 597.815 3.05795 -0.730529 0
M  V30 6248 N 601.587 1.56661 0.17182 0
M  V30 6249 C 602.812 1.86459 0.908165 0
M  V30 6250 C 603.237 0.688181 1.75059 0
M  V30 6251 O 602.595 -0.362753 1.77634 0
M  V30 6252 C 602.643 3.14669 1.76112 0
M  V30 6253 O 601.747 2.96858 2.86268 0
M  V30 6254 H 601.088 0.613318 0.254434 0
M  V30 6255 H 603.618 2.03892 0.170113 0
M  V30 6256 H 603.628 3.46061 2.16115 0
M  V30 6257 H 602.303 3.99905 1.14233 0
M  V30 6258 H 600.88 2.76819 2.49852 0
M  V30 6259 N 603.065 -0.440357 1.51323 0
M  V30 6260 C 604.314 -1.18697 1.63076 0
M  V30 6261 C 604.627 -1.92418 0.35136 0
M  V30 6262 O 605.833 -2.69258 0.348221 0
M  V30 6263 C 604.289 -2.15849 2.87988 0
M  V30 6264 C 603.897 -1.47789 4.22921 0
M  V30 6265 C 605.641 -2.90962 3.09098 0
M  V30 6266 C 603.548 -2.43407 5.38987 0
M  V30 6267 H 602.478 -0.44676 0.607389 0
M  V30 6268 H 605.129 -0.454313 1.77787 0
M  V30 6269 H 603.511 -2.92537 2.66905 0
M  V30 6270 H 604.685 -0.7668 4.54375 0
M  V30 6271 H 603 -0.848404 4.07665 0
M  V30 6272 H 605.597 -3.62584 3.92985 0
M  V30 6273 H 605.94 -3.52133 2.22053 0
M  V30 6274 H 606.473 -2.21381 3.30507 0
M  V30 6275 H 603.212 -1.86929 6.28282 0
M  V30 6276 H 602.732 -3.12579 5.11913 0
M  V30 6277 H 604.411 -3.046 5.70813 0
M  V30 6278 N 604.543 -1.41418 -0.695603 0
M  V30 6279 C 605.791 -1.40496 -1.45277 0
M  V30 6280 C 606.112 -0.0149538 -1.94994 0
M  V30 6281 O 605.382 0.9432 -1.71699 0
M  V30 6282 H 603.962 -0.517147 -0.539044 0
M  V30 6283 H 606.624 -1.76656 -0.823321 0
M  V30 6284 H 605.72 -2.09214 -2.31595 0
M  V30 6285 N 606.021 0.929856 -1.27246 0
M  V30 6286 C 607.27 1.67182 -1.12842 0
M  V30 6287 C 607.583 1.9287 0.325666 0
M  V30 6288 O 608.789 2.64999 0.590572 0
M  V30 6289 C 607.245 3.01097 -1.97151 0
M  V30 6290 C 606.853 2.83115 -3.47203 0
M  V30 6291 C 608.597 3.78907 -1.91389 0
M  V30 6292 C 606.504 4.12573 -4.23719 0
M  V30 6293 H 605.434 0.627064 -0.418697 0
M  V30 6294 H 608.085 1.0332 -1.51649 0
M  V30 6295 H 606.467 3.66004 -1.51186 0
M  V30 6296 H 607.641 2.26989 -4.01015 0
M  V30 6297 H 605.956 2.18736 -3.54321 0
M  V30 6298 H 608.553 4.74837 -2.45834 0
M  V30 6299 H 608.896 4.0674 -0.887047 0
M  V30 6300 H 609.429 3.20794 -2.35237 0
M  V30 6301 H 606.168 3.8992 -5.26918 0
M  V30 6302 H 605.688 4.68371 -3.74685 0
M  V30 6303 H 607.367 4.8095 -4.32777 0
M  V30 6304 N 607.499 1.09233 1.13605 0
M  V30 6305 C 608.745 0.828385 1.8511 0
M  V30 6306 C 609.078 -0.64437 1.83198 0
M  V30 6307 O 608.353 -1.47428 1.26867 0
M  V30 6308 C 608.636 1.36167 3.33363 0
M  V30 6309 C 608.489 2.90038 3.438 0
M  V30 6310 C 609.808 0.993819 4.28732 0
M  V30 6311 H 606.927 0.30239 0.672108 0
M  V30 6312 H 609.569 1.35339 1.33355 0
M  V30 6313 H 607.719 0.9151 3.77569 0
M  V30 6314 H 609.391 3.43128 3.08319 0
M  V30 6315 H 607.634 3.27271 2.84739 0
M  V30 6316 H 608.305 3.22428 4.48045 0
M  V30 6317 H 610.781 1.37893 3.92587 0
M  V30 6318 H 609.657 1.39403 5.30903 0
M  V30 6319 H 609.918 -0.0982206 4.41991 0
M  V30 6320 N 608.977 -1.30795 0.87923 0
M  V30 6321 C 610.205 -2.00527 0.509548 0
M  V30 6322 C 610.62 -1.65944 -0.90045 0
M  V30 6323 O 609.977 -0.893525 -1.5913 0
M  V30 6324 C 610.028 -3.55276 0.667943 0
M  V30 6325 O 609.749 -3.88625 2.02242 0
M  V30 6326 C 611.25 -4.4228 0.300494 0
M  V30 6327 H 608.47 -0.641261 0.197549 0
M  V30 6328 H 611.014 -1.66813 1.18295 0
M  V30 6329 H 609.169 -3.87377 0.0419843 0
M  V30 6330 H 609.583 -4.83334 2.03688 0
M  V30 6331 H 611.057 -5.50061 0.462242 0
M  V30 6332 H 611.534 -4.32556 -0.76106 0
M  V30 6333 H 612.14 -4.15613 0.902536 0
M  V30 6334 N 610.455 -0.639598 -1.44038 0
M  V30 6335 C 611.685 -0.154586 -2.06021 0
M  V30 6336 C 612.093 1.17951 -1.47933 0
M  V30 6337 O 611.436 1.73627 -0.59994 0
M  V30 6338 C 611.498 0.0255459 -3.59491 0
M  V30 6339 C 611.162 -1.2317 -4.40089 0
M  V30 6340 C 612.159 -2.15735 -4.73027 0
M  V30 6341 C 609.844 -1.46949 -4.80324 0
M  V30 6342 C 611.838 -3.30382 -5.45093 0
M  V30 6343 C 609.525 -2.61891 -5.52138 0
M  V30 6344 C 610.523 -3.53433 -5.84443 0
M  V30 6345 O 610.211 -4.6637 -6.54793 0
M  V30 6346 H 609.943 -0.0808543 -0.671147 0
M  V30 6347 H 612.497 -0.876541 -1.85758 0
M  V30 6348 H 610.727 0.802733 -3.78276 0
M  V30 6349 H 612.416 0.466184 -4.03214 0
M  V30 6350 H 613.182 -1.98602 -4.42473 0
M  V30 6351 H 609.061 -0.765815 -4.54595 0
M  V30 6352 H 612.605 -4.01856 -5.70226 0
M  V30 6353 H 608.502 -2.78964 -5.82108 0
M  V30 6354 H 609.27 -4.6546 -6.73267 0
M  V30 6355 N 611.933 1.52934 -0.380664 0
M  V30 6356 C 612.863 2.29118 0.450268 0
M  V30 6357 C 613.844 1.32153 1.07096 0
M  V30 6358 O 615.029 1.61038 1.08537 0
M  V30 6359 C 612.159 3.09161 1.58231 0
M  V30 6360 C 611.113 4.13938 1.0881 0
M  V30 6361 C 610.439 4.82153 2.31155 0
M  V30 6362 C 611.739 5.22048 0.162146 0
M  V30 6363 H 613.433 2.98826 -0.185361 0
M  V30 6364 H 610.979 1.43715 -0.0905886 0
M  V30 6365 H 612.932 3.61211 2.17036 0
M  V30 6366 H 611.656 2.3717 2.2454 0
M  V30 6367 H 610.315 3.62855 0.522633 0
M  V30 6368 H 609.963 4.06719 2.95953 0
M  V30 6369 H 609.663 5.52966 1.98752 0
M  V30 6370 H 611.187 5.37004 2.90618 0
M  V30 6371 H 612.601 5.6951 0.658126 0
M  V30 6372 H 610.998 6.00057 -0.0717122 0
M  V30 6373 H 612.068 4.78398 -0.791438 0
M  V30 6374 N 613.412 0.11024 1.57214 0
M  V30 6375 C 614.36 -0.860586 2.16094 0
M  V30 6376 C 615.354 -1.28156 1.1078 0
M  V30 6377 O 616.56 -1.25433 1.29099 0
M  V30 6378 H 612.935 -0.295606 0.691463 0
M  V30 6379 H 614.906 -0.33942 2.96463 0
M  V30 6380 C 613.655 -2.10421 2.768 0
M  V30 6381 H 612.978 -1.7892 3.5753 0
M  V30 6382 H 614.418 -2.76375 3.21547 0
M  V30 6383 C 612.877 -2.88823 1.73444 0
M  V30 6384 O 613.407 -3.839 1.18251 0
M  V30 6385 N 611.613 -2.52649 1.43586 0
M  V30 6386 H 611.16 -1.754 1.8866 0
M  V30 6387 H 611.118 -3.05403 0.746735 0
M  V30 6388 N 614.89 -1.56749 -0.16351 0
M  V30 6389 C 616.301 -1.72039 -0.725216 0
M  V30 6390 C 616.652 -0.72202 -1.82432 0
M  V30 6391 O 615.777 0.114942 -2.16095 0
M  V30 6392 C 616.372 -3.11932 -1.32227 0
M  V30 6393 C 614.931 -3.28879 -1.83072 0
M  V30 6394 C 614.078 -2.67984 -0.712716 0
M  V30 6395 H 617.029 -1.58579 0.0619772 0
M  V30 6396 H 617.05 -3.11015 -2.19202 0
M  V30 6397 H 616.562 -3.84572 -0.522103 0
M  V30 6398 H 614.663 -2.61209 -2.65708 0
M  V30 6399 H 614.776 -4.36688 -1.97079 0
M  V30 6400 H 613.14 -2.28005 -1.13515 0
M  V30 6401 H 613.923 -3.43216 0.0757361 0
M  V30 6402 N 616.368 0.432326 -1.51554 0
M  V30 6403 C 617.615 1.18134 -1.64471 0
M  V30 6404 C 617.943 1.91076 -0.363349 0
M  V30 6405 O 617.198 1.84492 0.65279 0
M  V30 6406 C 617.497 2.21907 -2.80164 0
M  V30 6407 C 617.163 1.65941 -4.19255 0
M  V30 6408 C 615.825 1.50401 -4.57092 0
M  V30 6409 C 618.177 1.24843 -5.06027 0
M  V30 6410 C 615.505 0.922443 -5.79403 0
M  V30 6411 C 617.857 0.68113 -6.28922 0
M  V30 6412 C 616.521 0.512673 -6.65528 0
M  V30 6413 H 615.791 0.432283 -0.601841 0
M  V30 6414 H 618.438 0.471701 -1.856 0
M  V30 6415 H 616.743 2.98928 -2.53277 0
M  V30 6416 H 618.44 2.79691 -2.87357 0
M  V30 6417 H 615.03 1.79014 -3.89425 0
M  V30 6418 H 619.214 1.35667 -4.77397 0
M  V30 6419 H 614.47 0.779733 -6.06408 0
M  V30 6420 H 618.644 0.35418 -6.95499 0
M  V30 6421 H 616.271 0.0599084 -7.60176 0
M  V30 6422 N 617.846 1.41785 0.688094 0
M  V30 6423 C 619.095 1.4084 1.44385 0
M  V30 6424 C 619.408 0.0234166 1.95586 0
M  V30 6425 O 620.614 -0.108647 2.71283 0
M  V30 6426 C 619.07 2.47675 2.61123 0
M  V30 6427 C 618.678 3.92116 2.16677 0
M  V30 6428 C 620.422 2.55877 3.38714 0
M  V30 6429 C 618.329 4.90487 3.30419 0
M  V30 6430 H 617.259 0.523787 0.542368 0
M  V30 6431 H 619.91 1.6764 0.74627 0
M  V30 6432 H 618.292 2.14018 3.33185 0
M  V30 6433 H 619.466 4.35059 1.51856 0
M  V30 6434 H 617.781 3.87642 1.5206 0
M  V30 6435 H 620.378 3.26553 4.234 0
M  V30 6436 H 620.721 1.59801 3.84408 0
M  V30 6437 H 621.254 2.88662 2.73714 0
M  V30 6438 H 617.993 5.87994 2.89729 0
M  V30 6439 H 617.513 4.52187 3.94065 0
M  V30 6440 H 619.192 5.11591 3.96085 0
M  V30 6441 N 619.324 -0.923095 1.27737 0
M  V30 6442 C 620.572 -1.66797 1.14119 0
M  V30 6443 C 620.893 -1.92479 -0.312541 0
M  V30 6444 O 620.163 -1.53432 -1.218 0
M  V30 6445 H 618.743 -0.618196 0.419336 0
M  V30 6446 H 621.405 -1.10815 1.60331 0
M  V30 6447 H 620.501 -2.63424 1.67374 0
M  V30 6448 N 620.802 -1.09834 -1.13024 0
M  V30 6449 C 621.752 -0.710899 -2.16634 0
M  V30 6450 C 622.736 0.276836 -1.58501 0
M  V30 6451 O 623.928 0.0865457 -1.76788 0
M  V30 6452 C 621.057 -0.137574 -3.43024 0
M  V30 6453 C 620.143 -1.15198 -4.08155 0
M  V30 6454 N 620.534 -2.34054 -4.48388 0
M  V30 6455 C 618.832 -0.991074 -4.34849 0
M  V30 6456 C 619.533 -2.98616 -4.99203 0
M  V30 6457 N 618.509 -2.26159 -4.94321 0
M  V30 6458 H 622.311 -1.61576 -2.455 0
M  V30 6459 H 619.825 -0.975158 -1.29863 0
M  V30 6460 H 621.822 0.158031 -4.166 0
M  V30 6461 H 620.482 0.762088 -3.1563 0
M  V30 6462 H 621.493 -2.7162 -4.40957 0
M  V30 6463 H 618.17 -0.146448 -4.17243 0
M  V30 6464 H 619.56 -3.99683 -5.40096 0
M  V30 6465 N 622.28 1.30327 -0.886154 0
M  V30 6466 C 623.23 2.25668 -0.325248 0
M  V30 6467 C 624.214 1.51318 0.546972 0
M  V30 6468 O 625.406 1.72623 0.391203 0
M  V30 6469 C 622.535 3.40229 0.458167 0
M  V30 6470 C 621.621 4.21933 -0.428208 0
M  V30 6471 N 622.012 4.82129 -1.52921 0
M  V30 6472 C 620.31 4.45439 -0.223535 0
M  V30 6473 C 621.011 5.43351 -2.07714 0
M  V30 6474 N 619.987 5.26002 -1.37195 0
M  V30 6475 H 623.789 2.69759 -1.1665 0
M  V30 6476 H 621.303 1.4478 -0.735691 0
M  V30 6477 H 623.3 4.07579 0.876648 0
M  V30 6478 H 621.96 2.97678 1.29684 0
M  V30 6479 H 622.971 4.81312 -1.91205 0
M  V30 6480 H 619.648 4.13481 0.577875 0
M  V30 6481 H 621.038 6.01118 -3.00178 0
M  V30 6482 N 623.758 0.647228 1.43697 0
M  V30 6483 C 624.706 -0.0600105 2.32523 0
M  V30 6484 C 625.7 -0.819277 1.48271 0
M  V30 6485 O 626.906 -0.730356 1.64517 0
M  V30 6486 H 623.281 -0.0381872 0.75103 0
M  V30 6487 H 625.252 0.706978 2.89904 0
M  V30 6488 C 624.001 -1.0169 3.32497 0
M  V30 6489 H 623.324 -0.442083 3.97348 0
M  V30 6490 H 624.764 -1.48095 3.97296 0
M  V30 6491 C 623.223 -2.11002 2.6264 0
M  V30 6492 O 623.753 -3.19302 2.4374 0
M  V30 6493 N 621.959 -1.87388 2.22113 0
M  V30 6494 H 621.506 -0.993174 2.37684 0
M  V30 6495 H 621.464 -2.60723 1.75701 0
M  V30 6496 N 625.236 -1.5273 0.388769 0
M  V30 6497 C 626.484 -2.01174 -0.193208 0
M  V30 6498 C 626.805 -1.27705 -1.47365 0
M  V30 6499 O 626.075 -0.396966 -1.91836 0
M  V30 6500 H 624.655 -0.743287 -0.0743871 0
M  V30 6501 H 627.317 -1.87826 0.520336 0
M  V30 6502 H 626.413 -3.09477 -0.403803 0
M  V30 6503 N 626.714 -0.118576 -1.57153 0
M  V30 6504 C 627.991 0.583062 -1.86708 0
M  V30 6505 C 628.371 1.84841 -1.01967 0
M  V30 6506 O 627.719 2.28288 -0.0984673 0
M  V30 6507 C 627.929 0.875912 -3.3783 0
M  V30 6508 C 629.277 1.22916 -4.0642 0
M  V30 6509 O 630.301 0.966188 -3.42846 0
M  V30 6510 O 629.16 1.72269 -5.18638 0
M  V30 6511 H 626.254 0.294185 -0.772906 0
M  V30 6512 H 628.8 -0.153048 -1.69008 0
M  V30 6513 H 627.572 -0.0207776 -3.91294 0
M  V30 6514 H 627.195 1.66719 -3.60958 0
M  V30 6515 N 628.193 1.56834 0.155195 0
M  V30 6516 C 629.442 1.82088 0.867567 0
M  V30 6517 C 629.755 0.69849 1.82703 0
M  V30 6518 O 630.961 0.836407 2.58295 0
M  V30 6519 C 629.417 3.22707 1.59336 0
M  V30 6520 C 629.025 4.42859 0.676719 0
M  V30 6521 C 630.769 3.57242 2.293 0
M  V30 6522 C 628.676 5.74501 1.40367 0
M  V30 6523 H 627.606 0.679057 0.327715 0
M  V30 6524 H 630.257 1.83105 0.120351 0
M  V30 6525 H 628.639 3.16054 2.38591 0
M  V30 6526 H 629.813 4.60731 -0.0800196 0
M  V30 6527 H 628.128 4.16311 0.0859129 0
M  V30 6528 H 630.725 4.52847 2.84312 0
M  V30 6529 H 631.068 2.82901 3.05406 0
M  V30 6530 H 631.601 3.6552 1.56972 0
M  V30 6531 H 628.34 6.51915 0.684623 0
M  V30 6532 H 627.86 5.60579 2.13332 0
M  V30 6533 H 629.539 6.17016 1.94681 0
M  V30 6534 N 629.671 -0.424282 1.51781 0
M  V30 6535 C 630.917 -1.17434 1.6534 0
M  V30 6536 C 631.25 -1.90549 0.374806 0
M  V30 6537 O 630.525 -1.84145 -0.626179 0
M  V30 6538 C 630.808 -2.18093 2.86544 0
M  V30 6539 C 630.661 -1.48975 4.24413 0
M  V30 6540 C 631.98 -3.18934 3.03264 0
M  V30 6541 H 629.099 -0.425566 0.601716 0
M  V30 6542 H 631.741 -0.461921 1.84299 0
M  V30 6543 H 629.891 -2.78849 2.7051 0
M  V30 6544 H 631.563 -0.914551 4.52143 0
M  V30 6545 H 629.806 -0.791893 4.26511 0
M  V30 6546 H 630.477 -2.22347 5.05238 0
M  V30 6547 H 632.953 -2.68243 3.18096 0
M  V30 6548 H 631.829 -3.86645 3.89611 0
M  V30 6549 H 632.09 -3.85793 2.15908 0
M  V30 6550 N 631.149 -1.42148 -0.680565 0
M  V30 6551 C 632.397 -1.42029 -1.43779 0
M  V30 6552 C 632.718 -0.0356347 -1.94967 0
M  V30 6553 O 631.988 0.924936 -1.7269 0
M  V30 6554 H 630.568 -0.522835 -0.533529 0
M  V30 6555 H 633.23 -1.7752 -0.804538 0
M  V30 6556 H 632.326 -2.11658 -2.29363 0
M  V30 6557 N 632.627 0.916307 -1.28225 0
M  V30 6558 C 633.574 2.01841 -1.11932 0
M  V30 6559 C 634.544 1.66091 -0.0171604 0
M  V30 6560 O 635.729 1.89934 -0.181617 0
M  V30 6561 C 632.869 3.36065 -0.784504 0
M  V30 6562 C 631.982 3.847 -1.96544 0
M  V30 6563 C 631.117 5.07423 -1.57149 0
M  V30 6564 C 630.156 5.48384 -2.71922 0
M  V30 6565 N 629.293 6.62298 -2.33037 0
M  V30 6566 H 634.133 2.1511 -2.06232 0
M  V30 6567 H 631.67 1.05366 -1.02647 0
M  V30 6568 H 633.628 4.13272 -0.571148 0
M  V30 6569 H 632.258 3.22571 0.121565 0
M  V30 6570 H 631.31 3.03673 -2.291 0
M  V30 6571 H 632.622 4.1102 -2.82603 0
M  V30 6572 H 631.776 5.92165 -1.32004 0
M  V30 6573 H 630.515 4.82906 -0.682153 0
M  V30 6574 H 629.52 4.62184 -2.97768 0
M  V30 6575 H 630.745 5.7489 -3.61494 0
M  V30 6576 H 628.691 6.39416 -1.4657 0
M  V30 6577 H 628.608 6.8833 -3.12631 0
M  V30 6578 H 629.876 7.50352 -2.11169 0
M  V30 6579 N 634.105 1.10431 1.1244 0
M  V30 6580 C 635.354 0.841539 1.83306 0
M  V30 6581 C 635.667 -0.634961 1.85007 0
M  V30 6582 O 636.873 -1.01363 2.51869 0
M  V30 6583 C 635.329 1.45565 3.29149 0
M  V30 6584 C 634.937 2.96544 3.35806 0
M  V30 6585 C 636.681 1.27227 4.04986 0
M  V30 6586 C 634.588 3.5099 4.75983 0
M  V30 6587 H 633.518 0.311156 0.686803 0
M  V30 6588 H 636.169 1.32829 1.26604 0
M  V30 6589 H 634.551 0.896574 3.85717 0
M  V30 6590 H 635.725 3.58766 2.89177 0
M  V30 6591 H 634.04 3.14036 2.73442 0
M  V30 6592 H 636.637 1.65348 5.08492 0
M  V30 6593 H 636.98 0.213834 4.1575 0
M  V30 6594 H 637.513 1.79941 3.54776 0
M  V30 6595 H 634.252 4.56499 4.70413 0
M  V30 6596 H 633.772 2.93535 5.23065 0
M  V30 6597 H 635.451 3.48808 5.44924 0
M  V30 6598 N 635.583 -1.29855 0.893053 0
M  V30 6599 C 636.823 -1.97612 0.522399 0
M  V30 6600 C 637.187 -1.68903 -0.913 0
M  V30 6601 O 638.388 -2.30059 -1.39019 0
M  V30 6602 C 636.659 -3.48356 0.79893 0
M  V30 6603 S 638.218 -4.35568 0.531588 0
M  V30 6604 H 635.036 -0.684005 0.194058 0
M  V30 6605 H 637.638 -1.57803 1.15406 0
M  V30 6606 H 636.342 -3.66743 1.84196 0
M  V30 6607 H 635.873 -3.93094 0.155133 0
M  V30 6608 H 637.888 -4.92232 -0.626295 0
M  V30 6609 N 637.061 -0.65484 -1.43351 0
M  V30 6610 C 638.024 0.0263562 -2.29185 0
M  V30 6611 C 639.024 0.748951 -1.42293 0
M  V30 6612 O 640.214 0.589957 -1.63906 0
M  V30 6613 C 637.346 1.04806 -3.2439 0
M  V30 6614 H 638.539 -0.728883 -2.90908 0
M  V30 6615 H 636.092 -0.416149 -1.50658 0
M  V30 6616 H 636.827 1.83247 -2.67565 0
M  V30 6617 H 636.612 0.533554 -3.88453 0
M  V30 6618 H 638.102 1.52372 -3.88809 0
M  V30 6619 N 638.539 1.52521 -0.396863 0
M  V30 6620 C 639.449 2.30403 0.44178 0
M  V30 6621 C 640.465 1.37625 1.06468 0
M  V30 6622 O 641.641 1.70697 1.06886 0
M  V30 6623 C 638.706 3.1013 1.54986 0
M  V30 6624 C 637.767 4.18628 0.951279 0
M  V30 6625 C 637 4.94543 2.00655 0
M  V30 6626 O 637.223 4.70629 3.22281 0
M  V30 6627 O 636.157 5.797 1.61962 0
M  V30 6628 H 639.983 3.03087 -0.192892 0
M  V30 6629 H 637.568 1.48537 -0.16038 0
M  V30 6630 H 639.45 3.59816 2.19341 0
M  V30 6631 H 638.125 2.40251 2.16935 0
M  V30 6632 H 637.032 3.73119 0.270773 0
M  V30 6633 H 638.365 4.90763 0.375887 0
M  V30 6634 N 640.017 0.126909 1.57088 0
M  V30 6635 C 641.245 -0.53667 1.99819 0
M  V30 6636 C 641.66 -1.5972 1.00673 0
M  V30 6637 O 641.017 -1.825 0.000747365 0
M  V30 6638 C 641.068 -1.15563 3.42531 0
M  V30 6639 O 640.789 -0.137483 4.37884 0
M  V30 6640 C 642.29 -1.90176 4.00435 0
M  V30 6641 H 639.51 -0.141443 0.655923 0
M  V30 6642 H 642.054 0.215578 2.03361 0
M  V30 6643 H 640.209 -1.85861 3.39904 0
M  V30 6644 H 640.623 -0.588229 5.21191 0
M  V30 6645 H 642.097 -2.28801 5.02349 0
M  V30 6646 H 642.574 -2.78002 3.40017 0
M  V30 6647 H 643.18 -1.24623 4.06632 0
M  V30 6648 N 641.495 -1.56914 -0.146875 0
M  V30 6649 C 642.743 -1.82994 -0.85777 0
M  V30 6650 C 643.064 -0.707814 -1.817 0
M  V30 6651 O 642.334 0.270521 -1.94023 0
M  V30 6652 H 640.914 -0.675106 -0.319751 0
M  V30 6653 H 643.576 -1.9439 -0.140849 0
M  V30 6654 H 642.672 -2.77928 -1.41994 0
M  V30 6655 N 642.974 0.416227 -1.52004 0
M  V30 6656 C 643.921 1.50666 -1.74838 0
M  V30 6657 C 644.891 1.55245 -0.590599 0
M  V30 6658 O 646.076 1.71928 -0.827374 0
M  V30 6659 C 643.216 2.88185 -1.89851 0
M  V30 6660 C 642.329 2.92971 -3.17478 0
M  V30 6661 C 641.464 4.21745 -3.22962 0
M  V30 6662 C 640.503 4.20478 -4.4482 0
M  V30 6663 N 639.64 5.40811 -4.47736 0
M  V30 6664 H 644.48 1.30498 -2.67907 0
M  V30 6665 H 642.017 0.633568 -1.32757 0
M  V30 6666 H 643.975 3.68007 -1.96537 0
M  V30 6667 H 642.605 3.06865 -1.00169 0
M  V30 6668 H 641.657 2.05684 -3.19997 0
M  V30 6669 H 642.969 2.87899 -4.07328 0
M  V30 6670 H 642.123 5.09954 -3.28682 0
M  V30 6671 H 640.862 4.29503 -2.31038 0
M  V30 6672 H 639.867 3.30659 -4.39254 0
M  V30 6673 H 641.092 4.14366 -5.38031 0
M  V30 6674 H 639.038 5.4925 -3.58692 0
M  V30 6675 H 638.955 5.37705 -5.31422 0
M  V30 6676 H 640.223 6.30993 -4.57676 0
M  V30 6677 N 644.452 1.42507 0.673017 0
M  V30 6678 C 645.677 1.4668 1.46627 0
M  V30 6679 C 646.102 0.080066 1.8793 0
M  V30 6680 O 645.46 -0.921879 1.56112 0
M  V30 6681 C 645.508 2.40091 2.69051 0
M  V30 6682 O 644.612 1.8735 3.67387 0
M  V30 6683 H 643.953 0.496908 0.44043 0
M  V30 6684 H 646.483 1.87215 0.825334 0
M  V30 6685 H 646.493 2.56731 3.17101 0
M  V30 6686 H 645.168 3.4084 2.3833 0
M  V30 6687 H 643.745 1.80274 3.26429 0
M  V30 6688 N 645.93 -0.909495 1.28709 0
M  V30 6689 C 647.176 -1.66151 1.16283 0
M  V30 6690 C 647.509 -1.92067 -0.287069 0
M  V30 6691 O 646.784 -1.52409 -1.20837 0
M  V30 6692 C 647.067 -3.01676 1.9663 0
M  V30 6693 C 646.92 -2.82888 3.49707 0
M  V30 6694 C 648.239 -4.02274 1.78504 0
M  V30 6695 H 645.358 -0.602966 0.423793 0
M  V30 6696 H 648 -1.05418 1.58073 0
M  V30 6697 H 646.15 -3.53515 1.61119 0
M  V30 6698 H 647.822 -2.38026 3.95147 0
M  V30 6699 H 646.065 -2.17862 3.75125 0
M  V30 6700 H 646.736 -3.79147 4.01187 0
M  V30 6701 H 649.212 -3.59511 2.09503 0
M  V30 6702 H 648.088 -4.95056 2.37088 0
M  V30 6703 H 648.349 -4.35903 0.737647 0
M  V30 6704 N 647.408 -1.11026 -1.11852 0
M  V30 6705 C 648.824 -0.843294 -1.35502 0
M  V30 6706 C 649.024 0.534179 -1.9429 0
M  V30 6707 O 648.08 1.28585 -2.17307 0
M  V30 6708 C 649.393 -1.94793 -2.29077 0
M  V30 6709 C 650.941 -1.97709 -2.42652 0
M  V30 6710 C 651.416 -3.07364 -3.39546 0
M  V30 6711 N 652.907 -3.0671 -3.47107 0
M  V30 6712 C 653.642 -3.88197 -4.22008 0
M  V30 6713 N 653.138 -4.79635 -4.99922 0
M  V30 6714 N 654.931 -3.76391 -4.17476 0
M  V30 6715 H 647.082 -1.99805 -0.720538 0
M  V30 6716 H 649.345 -0.868633 -0.379711 0
M  V30 6717 H 649.051 -2.93971 -1.93065 0
M  V30 6718 H 648.925 -1.84039 -3.29256 0
M  V30 6719 H 651.312 -0.991604 -2.77941 0
M  V30 6720 H 651.393 -2.1254 -1.4234 0
M  V30 6721 H 651.037 -4.06136 -3.04985 0
M  V30 6722 H 650.967 -2.89774 -4.39703 0
M  V30 6723 H 653.458 -2.40457 -2.91528 0
M  V30 6724 H 653.771 -5.38357 -5.54429 0
M  V30 6725 H 652.116 -4.8366 -4.99097 0
M  V30 6726 H 655.307 -3.04303 -3.55693 0
M  V30 6727 H 655.48 -4.40131 -4.75593 0
M  V30 6728 N 648.886 1.2938 -0.899927 0
M  V30 6729 C 649.796 2.31462 -0.382437 0
M  V30 6730 C 650.812 1.65956 0.522929 0
M  V30 6731 O 651.988 1.97131 0.412454 0
M  V30 6732 C 649.053 3.44595 0.381472 0
M  V30 6733 C 648.114 4.25692 -0.555444 0
M  V30 6734 C 647.347 5.33422 0.172102 0
M  V30 6735 O 647.57 5.53053 1.396 0
M  V30 6736 O 646.504 5.99939 -0.485491 0
M  V30 6737 H 650.33 2.77706 -1.22934 0
M  V30 6738 H 647.915 1.33821 -0.664259 0
M  V30 6739 H 649.797 4.13474 0.813442 0
M  V30 6740 H 648.472 3.00458 1.20443 0
M  V30 6741 H 647.379 3.59453 -1.03653 0
M  V30 6742 H 648.712 4.73471 -1.34483 0
M  V30 6743 N 650.364 0.662433 1.43002 0
M  V30 6744 C 651.61 0.179857 2.02001 0
M  V30 6745 C 651.943 -1.20625 1.52195 0
M  V30 6746 O 651.218 -1.80726 0.718911 0
M  V30 6747 C 651.501 0.200845 3.59539 0
M  V30 6748 C 651.354 1.62153 4.19555 0
M  V30 6749 C 652.673 -0.457738 4.37713 0
M  V30 6750 H 649.792 0.0668305 0.733964 0
M  V30 6751 H 652.434 0.84487 1.70182 0
M  V30 6752 H 650.584 -0.365411 3.86778 0
M  V30 6753 H 652.256 2.23908 4.03315 0
M  V30 6754 H 650.499 2.16601 3.75854 0
M  V30 6755 H 651.17 1.58799 5.28665 0
M  V30 6756 H 653.646 0.0241495 4.16093 0
M  V30 6757 H 652.522 -0.412363 5.47349 0
M  V30 6758 H 652.783 -1.53336 4.14657 0
M  V30 6759 N 651.842 -1.52309 0.404946 0
M  V30 6760 C 653.088 -2.02065 -0.172455 0
M  V30 6761 C 653.421 -1.29022 -1.45145 0
M  V30 6762 O 652.696 -0.395284 -1.90441 0
M  V30 6763 C 652.979 -3.5759 -0.424433 0
M  V30 6764 C 652.832 -4.41287 0.870945 0
M  V30 6765 C 654.151 -4.23186 -1.20837 0
M  V30 6766 H 651.27 -0.734454 -0.0612035 0
M  V30 6767 H 653.912 -1.82236 0.53759 0
M  V30 6768 H 652.062 -3.74617 -1.02929 0
M  V30 6769 H 653.734 -4.3598 1.50729 0
M  V30 6770 H 651.977 -4.07669 1.48284 0
M  V30 6771 H 652.648 -5.48171 0.649083 0
M  V30 6772 H 655.124 -4.10232 -0.696338 0
M  V30 6773 H 654 -5.31953 -1.35343 0
M  V30 6774 H 654.261 -3.81862 -2.22786 0
M  V30 6775 N 653.32 -0.135238 -1.57019 0
M  V30 6776 C 654.25 0.805235 -2.19176 0
M  V30 6777 C 655.231 1.2656 -1.13651 0
M  V30 6778 O 656.416 1.32528 -1.4195 0
M  V30 6779 C 653.546 2.04914 -2.80406 0
M  V30 6780 C 652.5 1.72598 -3.91655 0
M  V30 6781 C 651.826 3.04154 -4.39766 0
M  V30 6782 C 653.126 0.981709 -5.12991 0
M  V30 6783 H 654.82 0.287232 -2.98019 0
M  V30 6784 H 652.366 0.136714 -1.4335 0
M  V30 6785 H 654.319 2.71178 -3.22553 0
M  V30 6786 H 653.043 2.59067 -1.98877 0
M  V30 6787 H 651.702 1.08717 -3.50109 0
M  V30 6788 H 651.35 3.56274 -3.55075 0
M  V30 6789 H 651.05 2.83299 -5.14796 0
M  V30 6790 H 652.574 3.71509 -4.84576 0
M  V30 6791 H 653.988 1.5462 -5.52056 0
M  V30 6792 H 652.385 0.873533 -5.93708 0
M  V30 6793 H 653.455 -0.0286887 -4.84892 0
M  V30 6794 N 654.798 1.5699 0.138552 0
M  V30 6795 C 655.708 2.02174 1.19008 0
M  V30 6796 C 656.724 0.938622 1.46512 0
M  V30 6797 O 657.9 1.24872 1.58016 0
M  V30 6798 C 654.965 2.40045 2.50159 0
M  V30 6799 C 654.026 3.62346 2.30226 0
M  V30 6800 C 653.259 3.98401 3.55123 0
M  V30 6801 O 653.482 3.35019 4.61647 0
M  V30 6802 O 652.416 4.91606 3.47285 0
M  V30 6803 H 656.242 2.91954 0.836452 0
M  V30 6804 H 653.827 1.45293 0.347907 0
M  V30 6805 H 655.709 2.65225 3.27465 0
M  V30 6806 H 654.384 1.53417 2.85035 0
M  V30 6807 H 653.291 3.42341 1.50843 0
M  V30 6808 H 654.624 4.49617 2.00262 0
M  V30 6809 N 656.276 -0.40816 1.52223 0
M  V30 6810 C 657.692 -0.74685 1.41047 0
M  V30 6811 C 657.892 -1.94788 0.51573 0
M  V30 6812 O 656.948 -2.52494 -0.0181156 0
M  V30 6813 C 658.261 -0.999878 2.83589 0
M  V30 6814 C 659.809 -1.10253 2.92939 0
M  V30 6815 C 660.284 -1.38832 4.36451 0
M  V30 6816 N 661.775 -1.45694 4.3969 0
M  V30 6817 C 662.51 -1.69435 5.47795 0
M  V30 6818 N 662.006 -1.90774 6.66016 0
M  V30 6819 N 663.799 -1.71458 5.35312 0
M  V30 6820 H 655.95 0.382409 2.08929 0
M  V30 6821 H 658.213 0.108807 0.941735 0
M  V30 6822 H 657.919 -0.189723 3.51188 0
M  V30 6823 H 657.793 -1.91978 3.24691 0
M  V30 6824 H 660.18 -1.90328 2.2552 0
M  V30 6825 H 660.261 -0.160973 2.55293 0
M  V30 6826 H 659.905 -0.592741 5.04429 0
M  V30 6827 H 659.835 -2.34241 4.71634 0
M  V30 6828 H 662.326 -1.3099 3.54472 0
M  V30 6829 H 662.639 -2.08342 7.44186 0
M  V30 6830 H 660.984 -1.88037 6.69079 0
M  V30 6831 H 664.175 -1.54326 4.41929 0
M  V30 6832 H 664.348 -1.89621 6.19635 0
M  V30 6833 N 657.755 -1.42862 -0.66545 0
M  V30 6834 C 659.003 -1.43546 -1.42264 0
M  V30 6835 C 659.324 -0.0563116 -1.94919 0
M  V30 6836 O 658.594 0.906568 -1.73661 0
M  V30 6837 H 657.174 -0.528464 -0.527953 0
M  V30 6838 H 659.836 -1.78363 -0.785665 0
M  V30 6839 H 658.932 -2.14079 -2.27105 0
M  V30 6840 N 659.233 0.902656 -1.29189 0
M  V30 6841 C 660.163 2.02294 -1.16616 0
M  V30 6842 C 661.144 1.6999 -0.0611175 0
M  V30 6843 O 662.329 1.9271 -0.240072 0
M  V30 6844 C 659.459 3.37018 -0.83882 0
M  V30 6845 C 658.413 3.83522 -1.89986 0
M  V30 6846 C 657.739 5.15337 -1.42589 0
M  V30 6847 C 659.039 4.04169 -3.30824 0
M  V30 6848 H 660.733 2.13071 -2.10336 0
M  V30 6849 H 658.279 1.02378 -1.01266 0
M  V30 6850 H 660.232 4.14895 -0.737584 0
M  V30 6851 H 658.956 3.26325 0.134071 0
M  V30 6852 H 657.615 3.07859 -1.99043 0
M  V30 6853 H 657.263 5.01056 -0.441759 0
M  V30 6854 H 656.963 5.47423 -2.13547 0
M  V30 6855 H 658.487 5.95758 -1.3381 0
M  V30 6856 H 659.901 4.72537 -3.24626 0
M  V30 6857 H 658.298 4.47604 -3.99713 0
M  V30 6858 H 659.368 3.08604 -3.74021 0
M  V30 6859 N 660.711 1.11618 1.11262 0
M  V30 6860 C 661.641 0.79846 2.19424 0
M  V30 6861 C 662.622 -0.234003 1.68483 0
M  V30 6862 O 663.807 -0.0970704 1.93957 0
M  V30 6863 C 660.937 0.242892 3.4645 0
M  V30 6864 C 659.891 1.20744 4.10615 0
M  V30 6865 C 659.217 0.512494 5.32238 0
M  V30 6866 C 660.517 2.55884 4.55325 0
M  V30 6867 H 662.211 1.70286 2.46258 0
M  V30 6868 H 659.757 0.820195 1.18359 0
M  V30 6869 H 661.71 0.00840447 4.21399 0
M  V30 6870 H 660.434 -0.696811 3.1908 0
M  V30 6871 H 659.093 1.42759 3.37662 0
M  V30 6872 H 658.741 -0.432075 5.01141 0
M  V30 6873 H 658.441 1.15583 5.7612 0
M  V30 6874 H 659.965 0.286842 6.09926 0
M  V30 6875 H 661.379 2.37946 5.21588 0
M  V30 6876 H 659.776 3.16216 5.10027 0
M  V30 6877 H 660.846 3.14968 3.68678 0
M  V30 6878 N 662.189 -1.289 0.906776 0
M  V30 6879 C 663.417 -1.99401 0.551969 0
M  V30 6880 C 663.832 -1.67816 -0.865048 0
M  V30 6881 O 663.189 -0.927078 -1.57199 0
M  V30 6882 C 663.24 -3.53779 0.743152 0
M  V30 6883 O 662.961 -3.84248 2.1044 0
M  V30 6884 C 664.462 -4.41543 0.39424 0
M  V30 6885 H 661.682 -0.636926 0.211106 0
M  V30 6886 H 664.226 -1.64266 1.21807 0
M  V30 6887 H 662.381 -3.87201 0.124143 0
M  V30 6888 H 662.795 -4.78904 2.13895 0
M  V30 6889 H 664.269 -5.48957 0.578814 0
M  V30 6890 H 664.746 -4.34073 -0.669137 0
M  V30 6891 H 665.352 -4.13605 0.990491 0
M  V30 6892 N 663.667 -0.670007 -1.42649 0
M  V30 6893 C 664.577 0.0114788 -2.34597 0
M  V30 6894 C 665.593 0.794055 -1.54825 0
M  V30 6895 O 666.769 0.737472 -1.87412 0
M  V30 6896 C 663.834 0.954436 -3.33304 0
M  V30 6897 C 662.895 0.166925 -4.28975 0
M  V30 6898 C 662.128 1.06497 -5.22967 0
M  V30 6899 O 662.351 2.30446 -5.21777 0
M  V30 6900 O 661.285 0.528347 -5.99577 0
M  V30 6901 H 665.111 -0.745794 -2.944 0
M  V30 6902 H 662.696 -0.430228 -1.43071 0
M  V30 6903 H 664.578 1.49589 -3.93956 0
M  V30 6904 H 663.253 1.69164 -2.7598 0
M  V30 6905 H 662.16 -0.418515 -3.71752 0
M  V30 6906 H 663.493 -0.531067 -4.89327 0
M  V30 6907 N 665.145 1.52092 -0.413018 0
M  V30 6908 C 666.108 2.25706 0.398687 0
M  V30 6909 C 667.108 1.28221 0.970368 0
M  V30 6910 O 668.298 1.52131 0.848635 0
M  V30 6911 C 665.43 3.03029 1.5616 0
M  V30 6912 H 666.623 2.98888 -0.246131 0
M  V30 6913 H 664.176 1.5542 -0.165622 0
M  V30 6914 H 664.911 2.34205 2.24317 0
M  V30 6915 H 664.696 3.74606 1.15812 0
M  V30 6916 H 666.186 3.58857 2.13569 0
M  V30 6917 N 666.623 0.143563 1.56945 0
M  V30 6918 C 667.533 -0.810562 2.20152 0
M  V30 6919 C 668.549 -1.27431 1.1848 0
M  V30 6920 O 669.725 -1.33221 1.51044 0
M  V30 6921 C 666.79 -2.03353 2.80799 0
M  V30 6922 C 665.851 -1.61936 3.97587 0
M  V30 6923 C 665.084 -2.78403 4.55332 0
M  V30 6924 O 665.307 -3.94521 4.11958 0
M  V30 6925 O 664.241 -2.54073 5.45647 0
M  V30 6926 H 668.067 -0.30253 3.02189 0
M  V30 6927 H 665.652 -0.0832925 1.49168 0
M  V30 6928 H 667.534 -2.74932 3.19359 0
M  V30 6929 H 666.209 -2.53116 2.01777 0
M  V30 6930 H 665.116 -0.873904 3.6375 0
M  V30 6931 H 666.449 -1.16892 4.78118 0
M  V30 6932 N 668.101 -1.57061 -0.130224 0
M  V30 6933 C 669.031 -2.02552 -1.16168 0
M  V30 6934 C 670.012 -0.907971 -1.4384 0
M  V30 6935 O 671.197 -1.17693 -1.54473 0
M  V30 6936 C 668.327 -2.42035 -2.49071 0
M  V30 6937 C 667.281 -3.5713 -2.35886 0
M  V30 6938 C 666.607 -3.82478 -3.7365 0
M  V30 6939 C 667.907 -4.89236 -1.8288 0
M  V30 6940 H 669.601 -2.8897 -0.783359 0
M  V30 6941 H 667.147 -1.39021 -0.375376 0
M  V30 6942 H 669.1 -2.72462 -3.21469 0
M  V30 6943 H 667.824 -1.52573 -2.88771 0
M  V30 6944 H 666.483 -3.26895 -1.65938 0
M  V30 6945 H 666.131 -2.9024 -4.10816 0
M  V30 6946 H 665.831 -4.59944 -3.65685 0
M  V30 6947 H 667.355 -4.15347 -4.47571 0
M  V30 6948 H 668.769 -5.18272 -2.45085 0
M  V30 6949 H 667.166 -5.70624 -1.85763 0
M  V30 6950 H 668.236 -4.78494 -0.785571 0
M  V30 6951 N 669.579 0.400081 -1.52437 0
M  V30 6952 C 670.856 1.15973 -1.57511 0
M  V30 6953 C 671.236 2.0798 -0.361572 0
M  V30 6954 O 670.584 2.19032 0.650929 0
M  V30 6955 C 670.794 1.92912 -2.90837 0
M  V30 6956 C 672.142 2.48662 -3.44169 0
M  V30 6957 O 673.166 2.03081 -2.92637 0
M  V30 6958 O 672.025 3.31894 -4.34176 0
M  V30 6959 H 669.119 0.530023 -0.634827 0
M  V30 6960 H 671.665 0.40613 -1.64769 0
M  V30 6961 H 670.437 1.25564 -3.70607 0
M  V30 6962 H 670.06 2.75257 -2.86913 0
M  V30 6963 N 671.057 1.43213 0.657864 0
M  V30 6964 C 672.334 1.35063 1.41483 0
M  V30 6965 C 672.714 -0.0038314 2.111 0
M  V30 6966 O 672.062 -1.02018 2.04462 0
M  V30 6967 C 672.272 2.53061 2.40335 0
M  V30 6968 C 673.62 2.9594 3.04474 0
M  V30 6969 O 674.644 2.53074 2.50663 0
M  V30 6970 O 673.503 3.70184 4.02027 0
M  V30 6971 H 670.597 0.533517 0.631893 0
M  V30 6972 H 673.143 1.55253 0.685162 0
M  V30 6973 H 671.915 3.43283 1.87809 0
M  V30 6974 H 671.538 2.34945 3.20759 0
M  V30 6975 N 672.536 -0.895792 1.29666 0
M  V30 6976 C 673.785 -1.64131 1.17234 0
M  V30 6977 C 674.098 -1.93665 -0.274416 0
M  V30 6978 O 675.304 -2.66472 -0.520105 0
M  V30 6979 C 673.76 -2.95764 2.05065 0
M  V30 6980 C 673.368 -2.7381 3.54587 0
M  V30 6981 C 675.112 -3.737 2.01367 0
M  V30 6982 C 673.019 -4.01194 4.34508 0
M  V30 6983 H 671.949 -0.615742 0.435175 0
M  V30 6984 H 674.6 -0.992626 1.54335 0
M  V30 6985 H 672.982 -3.61867 1.60837 0
M  V30 6986 H 674.156 -2.16277 4.06892 0
M  V30 6987 H 672.471 -2.09265 3.59996 0
M  V30 6988 H 675.068 -4.68152 2.58337 0
M  V30 6989 H 675.411 -4.04245 0.994575 0
M  V30 6990 H 675.944 -3.14444 2.43659 0
M  V30 6991 H 672.683 -3.75813 5.37071 0
M  V30 6992 H 672.203 -4.58272 3.86971 0
M  V30 6993 H 673.882 -4.69307 4.45376 0
M  V30 6994 N 674.014 -1.12206 -1.10668 0
M  V30 6995 C 675.261 -0.875875 -1.82578 0
M  V30 6996 C 675.589 0.598342 -1.85068 0
M  V30 6997 O 674.844 1.45818 -1.3052 0
M  V30 6998 C 675.143 -1.39276 -3.29146 0
M  V30 6999 C 674.809 -2.8816 -3.46806 0
M  V30 7000 C 673.471 -3.28813 -3.51334 0
M  V30 7001 C 675.823 -3.8401 -3.52399 0
M  V30 7002 C 673.151 -4.64028 -3.59019 0
M  V30 7003 C 675.503 -5.19053 -3.61617 0
M  V30 7004 C 674.167 -5.59252 -3.64408 0
M  V30 7005 H 673.437 -0.320505 -0.6681 0
M  V30 7006 H 676.084 -1.40184 -1.30464 0
M  V30 7007 H 674.389 -0.787207 -3.8381 0
M  V30 7008 H 676.086 -1.17851 -3.83291 0
M  V30 7009 H 672.676 -2.55716 -3.43958 0
M  V30 7010 H 676.86 -3.53698 -3.48154 0
M  V30 7011 H 672.116 -4.94568 -3.59461 0
M  V30 7012 H 676.29 -5.93152 -3.64889 0
M  V30 7013 H 673.917 -6.64017 -3.70116 0
M  V30 7014 N 675.492 1.28418 -0.913599 0
M  V30 7015 C 676.717 1.99643 -0.561899 0
M  V30 7016 C 677.142 1.67819 0.849608 0
M  V30 7017 O 676.5 0.910503 1.56779 0
M  V30 7018 C 676.548 3.52116 -0.777622 0
M  V30 7019 O 675.652 4.12076 0.163457 0
M  V30 7020 H 674.993 0.627229 -0.217898 0
M  V30 7021 H 677.523 1.63575 -1.229 0
M  V30 7022 H 677.533 4.02163 -0.687666 0
M  V30 7023 H 676.208 3.74613 -1.8066 0
M  V30 7024 H 674.785 3.72892 0.0247827 0
M  V30 7025 N 676.97 0.677563 1.42291 0
M  V30 7026 C 678.216 0.201272 2.01799 0
M  V30 7027 C 678.549 -1.19004 1.53465 0
M  V30 7028 O 677.824 -1.79953 0.738039 0
M  V30 7029 C 678.107 0.238968 3.59306 0
M  V30 7030 C 677.96 1.66594 4.17812 0
M  V30 7031 C 679.279 -0.411287 4.38174 0
M  V30 7032 H 676.398 0.0746114 0.733214 0
M  V30 7033 H 679.04 0.862872 1.69276 0
M  V30 7034 H 677.19 -0.324368 3.87144 0
M  V30 7035 H 678.862 2.28173 4.00917 0
M  V30 7036 H 677.105 2.20576 3.73536 0
M  V30 7037 H 677.776 1.64398 5.26951 0
M  V30 7038 H 680.252 0.0682804 4.16044 0
M  V30 7039 H 679.128 -0.354286 5.47755 0
M  V30 7040 H 679.389 -1.4893 4.1626 0
M  V30 7041 N 678.448 -1.51871 0.421078 0
M  V30 7042 C 679.38 -2.25052 -0.434065 0
M  V30 7043 C 680.393 -1.28458 -1.00013 0
M  V30 7044 O 681.582 -1.54323 -0.897033 0
M  V30 7045 C 678.682 -2.97813 -1.61743 0
M  V30 7046 C 677.855 -4.21374 -1.17315 0
M  V30 7047 C 676.914 -4.76854 -2.22478 0
M  V30 7048 O 675.94 -5.39123 -1.82577 0
M  V30 7049 N 677.142 -4.59467 -3.54782 0
M  V30 7050 H 679.907 -2.99077 0.193073 0
M  V30 7051 H 677.468 -1.59972 0.249088 0
M  V30 7052 H 679.46 -3.3182 -2.31685 0
M  V30 7053 H 678.03 -2.26899 -2.15024 0
M  V30 7054 H 677.25 -3.93046 -0.3014 0
M  V30 7055 H 678.538 -5.01591 -0.853444 0
M  V30 7056 H 677.936 -4.09832 -3.89941 0
M  V30 7057 H 676.493 -4.9788 -4.20665 0
M  V30 7058 N 679.926 -0.151884 -1.56866 0
M  V30 7059 C 680.874 0.80299 -2.183 0
M  V30 7060 C 681.868 1.25174 -1.14139 0
M  V30 7061 O 683.074 1.21966 -1.3238 0
M  V30 7062 H 679.449 0.277169 -0.699057 0
M  V30 7063 H 681.42 0.260699 -2.97259 0
M  V30 7064 C 680.169 2.03009 -2.82281 0
M  V30 7065 H 679.492 1.69377 -3.62148 0
M  V30 7066 H 680.932 2.67753 -3.28762 0
M  V30 7067 C 679.391 2.84123 -1.81041 0
M  V30 7068 O 679.921 3.8063 -1.28388 0
M  V30 7069 N 678.127 2.48753 -1.50234 0
M  V30 7070 H 677.674 1.70337 -1.93244 0
M  V30 7071 H 677.632 3.03316 -0.827445 0
M  V30 7072 N 681.404 1.57128 0.121893 0
M  V30 7073 C 682.334 2.03165 1.15092 0
M  V30 7074 C 683.315 0.915587 1.43356 0
M  V30 7075 O 684.5 1.1851 1.53847 0
M  V30 7076 C 681.63 2.43352 2.47784 0
M  V30 7077 C 680.584 3.58376 2.33989 0
M  V30 7078 C 679.91 3.84454 3.71617 0
M  V30 7079 C 681.21 4.90199 1.80283 0
M  V30 7080 H 682.904 2.89382 0.768023 0
M  V30 7081 H 680.45 1.39218 0.367998 0
M  V30 7082 H 682.403 2.74163 3.20019 0
M  V30 7083 H 681.127 1.54103 2.87958 0
M  V30 7084 H 679.786 3.2777 1.64202 0
M  V30 7085 H 679.434 2.92414 4.09271 0
M  V30 7086 H 679.134 4.61877 3.6324 0
M  V30 7087 H 680.658 4.17714 4.45362 0
M  V30 7088 H 682.072 5.19565 2.42333 0
M  V30 7089 H 680.469 5.71601 1.82735 0
M  V30 7090 H 681.539 4.78904 0.760184 0
M  V30 7091 N 682.882 -0.391992 1.52647 0
M  V30 7092 C 683.815 -1.50019 1.71958 0
M  V30 7093 C 684.793 -1.5238 0.567365 0
M  V30 7094 O 685.977 -1.70831 0.796806 0
M  V30 7095 C 683.104 -2.88496 1.77447 0
M  V30 7096 C 682.15 -3.03974 2.99169 0
M  V30 7097 S 682.983 -2.75487 4.59203 0
M  V30 7098 C 684.139 -4.16163 4.67503 0
M  V30 7099 H 684.372 -1.33413 2.65685 0
M  V30 7100 H 681.905 -0.584674 1.42902 0
M  V30 7101 H 683.863 -3.68296 1.81296 0
M  V30 7102 H 682.524 -3.02431 0.848188 0
M  V30 7103 H 681.717 -4.05328 2.99542 0
M  V30 7104 H 681.319 -2.32062 2.93297 0
M  V30 7105 H 683.611 -5.10048 4.45934 0
M  V30 7106 H 684.554 -4.20806 5.69498 0
M  V30 7107 H 684.962 -4.01933 3.96371 0
M  V30 7108 N 684.36 -1.4356 -0.65026 0
M  V30 7109 C 685.31 -1.45392 -1.75628 0
M  V30 7110 C 686.294 -0.322006 -1.57645 0
M  V30 7111 O 687.486 -0.565996 -1.67707 0
M  V30 7112 C 684.615 -1.38254 -3.1423 0
M  V30 7113 C 683.701 -2.56487 -3.3775 0
M  V30 7114 N 684.092 -3.81824 -3.31729 0
M  V30 7115 C 682.39 -2.51274 -3.6848 0
M  V30 7116 C 683.091 -4.60497 -3.55412 0
M  V30 7117 N 682.067 -3.91274 -3.77367 0
M  V30 7118 H 685.869 -2.40167 -1.69402 0
M  V30 7119 H 683.383 -1.38254 -0.852037 0
M  V30 7120 H 685.38 -1.3765 -3.9352 0
M  V30 7121 H 684.04 -0.445019 -3.21636 0
M  V30 7122 H 685.051 -4.14069 -3.11074 0
M  V30 7123 H 681.728 -1.66223 -3.82983 0
M  V30 7124 H 683.118 -5.69518 -3.5651 0
M  V30 7125 N 685.838 0.888903 -1.30139 0
M  V30 7126 C 687.249 1.45578 -1.16893 0
M  V30 7127 C 687.6 1.94825 0.231866 0
M  V30 7128 O 686.725 1.84661 1.12824 0
M  V30 7129 C 687.32 2.646 -2.11595 0
M  V30 7130 C 685.879 3.17389 -2.02339 0
M  V30 7131 C 685.026 1.90081 -2.01902 0
M  V30 7132 H 687.977 0.69921 -1.42467 0
M  V30 7133 H 687.998 3.40687 -1.69449 0
M  V30 7134 H 687.51 2.28726 -3.13538 0
M  V30 7135 H 685.611 3.5793 -1.03523 0
M  V30 7136 H 685.724 3.80955 -2.90534 0
M  V30 7137 H 684.088 2.08246 -1.46648 0
M  V30 7138 H 684.871 1.5647 -3.05568 0
M  V30 7139 N 687.317 1.12792 1.10072 0
M  V30 7140 C 688.28 0.802264 2.14701 0
M  V30 7141 C 689.28 -0.18515 1.59731 0
M  V30 7142 O 690.47 0.041109 1.74151 0
M  V30 7143 C 687.602 0.19285 3.40354 0
M  V30 7144 H 688.795 1.72932 2.45019 0
M  V30 7145 H 686.348 0.931662 1.25498 0
M  V30 7146 H 687.083 -0.743748 3.15656 0
M  V30 7147 H 686.868 0.903827 3.81541 0
M  V30 7148 H 688.358 -0.0183704 4.17596 0
M  V30 7149 N 688.795 -1.27931 0.920396 0
M  V30 7150 C 690.025 -1.98516 0.572256 0
M  V30 7151 C 690.433 -1.68912 -0.852375 0
M  V30 7152 O 689.776 -0.94203 -1.57707 0
M  V30 7153 C 689.838 -3.5243 0.709485 0
M  V30 7154 C 689.502 -4.0564 2.10489 0
M  V30 7155 C 690.499 -4.1897 3.07831 0
M  V30 7156 C 688.184 -4.40168 2.41986 0
M  V30 7157 C 690.178 -4.66093 4.34783 0
M  V30 7158 C 687.865 -4.86983 3.69176 0
M  V30 7159 C 688.863 -4.99903 4.65388 0
M  V30 7160 O 688.551 -5.45694 5.90316 0
M  V30 7161 H 688.283 -0.64047 0.216274 0
M  V30 7162 H 690.837 -1.6393 1.23758 0
M  V30 7163 H 689.067 -3.86698 -0.0129263 0
M  V30 7164 H 690.756 -4.04233 0.367474 0
M  V30 7165 H 691.522 -3.92562 2.84816 0
M  V30 7166 H 687.401 -4.29358 1.67846 0
M  V30 7167 H 690.945 -4.76092 5.09884 0
M  V30 7168 H 686.842 -5.12832 3.92012 0
M  V30 7169 H 687.61 -5.63965 5.932 0
M  V30 7170 N 690.273 -0.685099 -1.4193 0
M  V30 7171 C 691.22 -0.0131869 -2.30796 0
M  V30 7172 C 692.19 0.782129 -1.46533 0
M  V30 7173 O 693.375 0.75229 -1.75343 0
M  V30 7174 C 690.515 0.924768 -3.32479 0
M  V30 7175 C 689.628 0.122181 -4.31827 0
M  V30 7176 C 688.763 1.05682 -5.20581 0
M  V30 7177 C 687.802 0.246526 -6.11603 0
M  V30 7178 N 686.939 1.13442 -6.92875 0
M  V30 7179 H 691.779 -0.776789 -2.87698 0
M  V30 7180 H 689.316 -0.394791 -1.41703 0
M  V30 7181 H 691.274 1.48251 -3.89971 0
M  V30 7182 H 689.904 1.65488 -2.77152 0
M  V30 7183 H 688.956 -0.552335 -3.76369 0
M  V30 7184 H 690.268 -0.506473 -4.96222 0
M  V30 7185 H 689.422 1.68415 -5.82856 0
M  V30 7186 H 688.161 1.71935 -4.56388 0
M  V30 7187 H 687.166 -0.393944 -5.48387 0
M  V30 7188 H 688.391 -0.412053 -6.77849 0
M  V30 7189 H 686.337 1.78316 -6.313 0
M  V30 7190 H 686.254 0.561089 -7.53915 0
M  V30 7191 H 687.522 1.74889 -7.59628 0
M  V30 7192 N 691.751 1.51645 -0.429126 0
M  V30 7193 C 692.714 2.26116 0.374726 0
M  V30 7194 C 693.714 1.29242 0.956714 0
M  V30 7195 O 694.904 1.53022 0.832452 0
M  V30 7196 C 692.036 3.04669 1.52937 0
M  V30 7197 H 693.229 2.9861 -0.277818 0
M  V30 7198 H 690.782 1.55236 -0.182097 0
M  V30 7199 H 691.517 2.36571 2.21821 0
M  V30 7200 H 691.302 3.75814 1.11833 0
M  V30 7201 H 692.792 3.61102 2.09751 0
M  V30 7202 N 693.229 0.160201 1.56784 0
M  V30 7203 C 694.176 -0.774416 2.1742 0
M  V30 7204 C 695.146 -1.23483 1.11091 0
M  V30 7205 O 696.331 -1.30499 1.39193 0
M  V30 7206 C 693.471 -2.00283 2.81035 0
M  V30 7207 C 692.584 -1.58701 4.01793 0
M  V30 7208 C 691.719 -2.76824 4.53367 0
M  V30 7209 C 690.758 -2.31679 5.66561 0
M  V30 7210 N 689.895 -3.42856 6.12694 0
M  V30 7211 H 694.735 -0.250542 2.96945 0
M  V30 7212 H 692.272 -0.111943 1.46673 0
M  V30 7213 H 694.23 -2.72316 3.16069 0
M  V30 7214 H 692.86 -2.5006 2.04132 0
M  V30 7215 H 691.912 -0.76384 3.72652 0
M  V30 7216 H 693.224 -1.21555 4.83762 0
M  V30 7217 H 692.378 -3.57029 4.90525 0
M  V30 7218 H 691.117 -3.17223 3.70433 0
M  V30 7219 H 690.122 -1.49917 5.28966 0
M  V30 7220 H 691.347 -1.9235 6.5129 0
M  V30 7221 H 689.293 -3.82852 5.32692 0
M  V30 7222 H 689.21 -3.09767 6.89624 0
M  V30 7223 H 690.478 -4.23379 6.545 0
M  V30 7224 N 694.707 -1.5719 -0.113559 0
M  V30 7225 C 696.123 -1.52607 -0.467253 0
M  V30 7226 C 696.323 -0.874058 -1.81556 0
M  V30 7227 O 695.379 -0.458703 -2.48299 0
M  V30 7228 C 696.692 -2.97363 -0.446736 0
M  V30 7229 C 698.24 -3.08482 -0.529903 0
M  V30 7230 C 698.715 -4.54809 -0.539721 0
M  V30 7231 N 700.206 -4.59284 -0.601005 0
M  V30 7232 C 700.941 -5.69927 -0.630138 0
M  V30 7233 N 700.437 -6.90051 -0.616589 0
M  V30 7234 N 702.23 -5.5805 -0.673558 0
M  V30 7235 H 694.381 -1.97958 0.769819 0
M  V30 7236 H 696.644 -0.90428 0.284572 0
M  V30 7237 H 696.35 -3.48458 0.47643 0
M  V30 7238 H 696.224 -3.55086 -1.27254 0
M  V30 7239 H 698.611 -2.57386 -1.44349 0
M  V30 7240 H 698.692 -2.53744 0.323695 0
M  V30 7241 H 698.336 -5.06552 0.369843 0
M  V30 7242 H 698.266 -5.07364 -1.41028 0
M  V30 7243 H 700.757 -3.72822 -0.617419 0
M  V30 7244 H 701.07 -7.70132 -0.641592 0
M  V30 7245 H 699.415 -6.92543 -0.583927 0
M  V30 7246 H 702.606 -4.63112 -0.681544 0
M  V30 7247 H 702.779 -6.44286 -0.692794 0
M  V30 7248 N 696.185 0.383891 -1.52853 0
M  V30 7249 C 697.415 1.14783 -1.7178 0
M  V30 7250 C 697.823 1.84055 -0.438211 0
M  V30 7251 O 697.166 1.73713 0.597465 0
M  V30 7252 C 697.228 2.23543 -2.81547 0
M  V30 7253 C 696.892 1.74195 -4.22499 0
M  V30 7254 C 697.889 1.21591 -5.05481 0
M  V30 7255 C 695.574 1.80262 -4.6884 0
M  V30 7256 C 697.568 0.757104 -6.32888 0
M  V30 7257 C 695.255 1.33993 -5.96229 0
M  V30 7258 C 696.253 0.818049 -6.78083 0
M  V30 7259 O 695.941 0.362123 -8.03084 0
M  V30 7260 H 695.673 0.349908 -0.578395 0
M  V30 7261 H 698.227 0.454377 -2.00311 0
M  V30 7262 H 696.457 2.96328 -2.48449 0
M  V30 7263 H 698.146 2.8519 -2.88828 0
M  V30 7264 H 698.912 1.16257 -4.7086 0
M  V30 7265 H 694.791 2.19825 -4.05213 0
M  V30 7266 H 698.335 0.34908 -6.96726 0
M  V30 7267 H 694.232 1.39015 -6.30353 0
M  V30 7268 H 695 0.483134 -8.17073 0
M  V30 7269 N 697.663 1.43903 0.642637 0
M  V30 7270 C 698.891 1.4954 1.42988 0
M  V30 7271 C 699.306 0.116588 1.8844 0
M  V30 7272 O 698.663 -0.875285 1.60141 0
M  V30 7273 C 698.714 2.45031 2.65785 0
M  V30 7274 O 698.435 3.77551 2.22232 0
M  V30 7275 C 699.936 2.60017 3.59035 0
M  V30 7276 H 697.156 0.507544 0.438907 0
M  V30 7277 H 699.7 1.88752 0.786942 0
M  V30 7278 H 697.855 2.08985 3.26196 0
M  V30 7279 H 698.269 4.29001 3.01759 0
M  V30 7280 H 699.743 3.30887 4.41835 0
M  V30 7281 H 700.22 1.64861 4.07084 0
M  V30 7282 H 700.826 2.96918 3.045 0
M  V30 7283 N 699.141 -0.881989 1.30609 0
M  V30 7284 C 700.418 -1.61563 1.10258 0
M  V30 7285 C 700.798 -2.08228 -0.347053 0
M  V30 7286 O 700.146 -1.85151 -1.33908 0
M  V30 7287 C 700.356 -2.78287 2.10612 0
M  V30 7288 C 701.704 -3.48545 2.4249 0
M  V30 7289 O 702.728 -2.88479 2.08945 0
M  V30 7290 O 701.587 -4.56873 2.99883 0
M  V30 7291 H 698.681 -0.710238 0.423663 0
M  V30 7292 H 701.227 -0.928503 1.42045 0
M  V30 7293 H 699.999 -2.41131 3.08174 0
M  V30 7294 H 699.622 -3.54695 1.79659 0
M  V30 7295 N 700.619 -1.13374 -1.09472 0
M  V30 7296 C 701.529 -0.824029 -2.19652 0
M  V30 7297 C 702.545 0.19118 -1.72947 0
M  V30 7298 O 703.721 0.0223464 -2.01388 0
M  V30 7299 C 700.786 -0.294009 -3.45451 0
M  V30 7300 C 699.847 -1.3704 -4.0684 0
M  V30 7301 C 699.08 -0.86558 -5.26634 0
M  V30 7302 O 699.303 0.29702 -5.69626 0
M  V30 7303 O 698.237 -1.63968 -5.79136 0
M  V30 7304 H 702.063 -1.74454 -2.48595 0
M  V30 7305 H 699.648 -0.911155 -1.18399 0
M  V30 7306 H 701.53 -0.00381039 -4.214 0
M  V30 7307 H 700.205 0.598921 -3.18111 0
M  V30 7308 H 699.112 -1.71391 -3.3253 0
M  V30 7309 H 700.445 -2.23746 -4.38405 0
M  V30 7310 N 702.098 1.27442 -0.927168 0
M  V30 7311 C 703.323 1.99036 -0.583042 0
M  V30 7312 C 703.748 1.68711 0.83176 0
M  V30 7313 O 703.106 0.927081 1.55804 0
M  V30 7314 C 703.154 3.51271 -0.814925 0
M  V30 7315 O 702.258 4.12226 0.119742 0
M  V30 7316 H 701.599 0.624883 -0.224538 0
M  V30 7317 H 704.129 1.62263 -1.24628 0
M  V30 7318 H 704.139 4.01411 -0.730282 0
M  V30 7319 H 702.814 3.72676 -1.84623 0
M  V30 7320 H 701.391 3.72897 -0.0147688 0
M  V30 7321 N 703.576 0.692616 1.41565 0
M  V30 7322 C 704.486 0.0258451 2.34586 0
M  V30 7323 C 705.502 -0.769324 1.56069 0
M  V30 7324 O 706.678 -0.707563 1.88562 0
M  V30 7325 C 703.743 -0.901289 3.3478 0
M  V30 7326 C 702.804 -0.0986579 4.29187 0
M  V30 7327 C 702.037 -0.981634 5.24595 0
M  V30 7328 O 702.26 -2.22115 5.25377 0
M  V30 7329 O 701.194 -0.432892 6.00341 0
M  V30 7330 H 705.02 0.792537 2.93177 0
M  V30 7331 H 702.605 0.452935 1.42369 0
M  V30 7332 H 704.487 -1.43302 3.96286 0
M  V30 7333 H 703.162 -1.64752 2.78637 0
M  V30 7334 H 702.069 0.477604 3.71039 0
M  V30 7335 H 703.402 0.608848 4.8842 0
M  V30 7336 N 705.054 -1.51416 0.437162 0
M  V30 7337 C 705.986 -2.255 -0.410171 0
M  V30 7338 C 706.999 -1.29511 -0.986444 0
M  V30 7339 O 708.188 -1.55266 -0.880614 0
M  V30 7340 C 705.288 -2.99511 -1.58575 0
M  V30 7341 C 704.461 -4.22595 -1.12839 0
M  V30 7342 C 703.52 -4.79187 -2.17407 0
M  V30 7343 O 702.546 -5.4103 -1.76849 0
M  V30 7344 N 703.748 -4.63204 -3.49889 0
M  V30 7345 H 706.513 -2.98856 0.224783 0
M  V30 7346 H 704.074 -1.59699 0.266041 0
M  V30 7347 H 706.066 -3.34258 -2.28152 0
M  V30 7348 H 704.636 -2.29167 -2.12606 0
M  V30 7349 H 703.856 -3.93344 -0.259695 0
M  V30 7350 H 705.144 -5.02468 -0.800196 0
M  V30 7351 H 704.542 -4.13945 -3.85573 0
M  V30 7352 H 703.099 -5.02313 -4.15361 0
M  V30 7353 O 706.571 -0.309557 -1.58506 0
M  V30 7354 H 707.262 0.253272 -1.92037 0
M  V30 END ATOM
M  V30 BEGIN BOND
M  V30 END BOND
M  V30 END CTAB
M  END
$$$$
