drugbank_target|P0ACC1 Release factor glutamine methyltransferase (DB01752)
 OpenBabel12092120033D

  0  0  0     0  0            999 V3000
M  V30 BEGIN CTAB
M  V30 COUNTS 4312 4357 0 0 0
M  V30 BEGIN ATOM
M  V30 1 H -0.908 1.98254 -0.117106 0
M  V30 2 N 0 1.576 0 0
M  V30 3 C 0.933 2.03868 1.02534 0
M  V30 4 C 1.911 0.928543 1.3348 0
M  V30 5 O 3.095 1.19667 1.45644 0
M  V30 6 C 0.222 2.43627 2.35294 0
M  V30 7 C -0.732 3.65373 2.2001 0
M  V30 8 S 0.101 5.13292 1.52614 0
M  V30 9 C 1.257 5.56322 2.86805 0
M  V30 10 H 1.49 2.90518 0.631377 0
M  V30 11 H -0.977 1.52953 0.210867 0
M  V30 12 H 0.981 2.67203 3.11629 0
M  V30 13 H -0.358 1.57376 2.7183 0
M  V30 14 H -1.165 3.90944 3.18086 0
M  V30 15 H -1.563 3.418 1.51819 0
M  V30 16 H 0.729 5.58782 3.83104 0
M  V30 17 H 1.672 6.56266 2.65933 0
M  V30 18 H 2.08 4.83886 2.90714 0
M  V30 19 N 1.4781 -0.272755 1.55222 0
M  V30 20 C 2.3881 -1.35918 1.91216 0
M  V30 21 C 3.4041 -1.54026 0.809436 0
M  V30 22 O 4.5801 -1.68148 1.10852 0
M  V30 23 C 1.6451 -2.69834 2.17693 0
M  V30 24 C 0.7061 -2.6047 3.41253 0
M  V30 25 C -0.0609 -3.88 3.66458 0
M  V30 26 O 0.1621 -4.88693 2.94169 0
M  V30 27 O -0.9039 -3.88189 4.59992 0
M  V30 28 H 2.9221 -1.0839 2.83699 0
M  V30 29 H 0.5071 -0.471301 1.41771 0
M  V30 30 H 2.3891 -3.49017 2.36147 0
M  V30 31 H 1.0641 -2.97148 1.28392 0
M  V30 32 H -0.0289 -1.79663 3.28134 0
M  V30 33 H 1.3041 -2.38106 4.30774 0
M  V30 34 N 2.9562 -1.48159 -0.537278 0
M  V30 35 C 4.1862 -1.59223 -1.3165 0
M  V30 36 C 4.5942 -0.248849 -1.87556 0
M  V30 37 O 3.9372 0.770949 -1.6674 0
M  V30 38 C 3.9992 -2.57365 -2.51005 0
M  V30 39 C 3.6632 -4.02603 -2.16239 0
M  V30 40 C 4.6602 -4.90503 -1.72344 0
M  V30 41 C 2.3452 -4.48088 -2.26986 0
M  V30 42 C 4.3392 -6.21913 -1.39651 0
M  V30 43 C 2.0262 -5.7952 -1.93906 0
M  V30 44 C 3.0242 -6.66255 -1.50309 0
M  V30 45 O 2.7122 -7.95243 -1.17659 0
M  V30 46 H 2.4442 -0.539831 -0.406889 0
M  V30 47 H 4.9982 -1.94655 -0.655641 0
M  V30 48 H 3.2282 -2.1704 -3.20048 0
M  V30 49 H 4.9172 -2.58342 -3.13072 0
M  V30 50 H 5.6832 -4.56604 -1.63517 0
M  V30 51 H 1.5622 -3.80769 -2.59877 0
M  V30 52 H 5.1062 -6.89569 -1.0555 0
M  V30 53 H 1.0032 -6.12957 -2.02371 0
M  V30 54 H 1.7712 -8.0793 -1.31119 0
M  V30 55 N 4.4343 0.785586 -1.36625 0
M  V30 56 C 5.3663 1.90711 -1.2713 0
M  V30 57 C 6.3793 1.61688 -0.189986 0
M  V30 58 O 7.5683 1.72864 -0.445014 0
M  V30 59 C 4.6683 3.25611 -0.939713 0
M  V30 60 C 3.8413 3.82385 -2.12369 0
M  V30 61 C 2.9003 4.95732 -1.76456 0
M  V30 62 O 1.9263 5.12047 -2.48589 0
M  V30 63 N 3.1283 5.76258 -0.700492 0
M  V30 64 H 5.8933 1.99376 -2.23762 0
M  V30 65 H 3.4543 0.964041 -1.30069 0
M  V30 66 H 5.4463 3.98937 -0.680554 0
M  V30 67 H 4.0163 3.12538 -0.0624074 0
M  V30 68 H 3.2363 3.01001 -2.54543 0
M  V30 69 H 4.5243 4.17047 -2.9146 0
M  V30 70 H 3.9223 5.65609 -0.101624 0
M  V30 71 H 2.4793 6.4987 -0.501165 0
M  V30 72 N 5.9124 1.20967 1.01018 0
M  V30 73 C 6.8624 0.93182 2.08089 0
M  V30 74 C 7.8464 -0.110898 1.60517 0
M  V30 75 O 9.0384 0.0973392 1.76732 0
M  V30 76 C 6.1674 0.492719 3.39746 0
M  V30 77 C 5.2534 1.56922 3.94 0
M  V30 78 N 5.6444 2.79312 4.21686 0
M  V30 79 C 3.9424 1.43688 4.2222 0
M  V30 80 C 4.6434 3.48797 4.65527 0
M  V30 81 N 3.6194 2.76224 4.68189 0
M  V30 82 H 7.4214 1.86175 2.27412 0
M  V30 83 H 4.9354 1.10463 1.19045 0
M  V30 84 H 6.9324 0.275044 4.15992 0
M  V30 85 H 5.5924 -0.430509 3.21833 0
M  V30 86 H 6.6034 3.15903 4.10397 0
M  V30 87 H 3.2804 0.578548 4.13472 0
M  V30 88 H 4.6704 4.53561 4.95714 0
M  V30 89 N 7.3905 -1.2043 1.01659 0
M  V30 90 C 8.6365 -1.90356 0.716674 0
M  V30 91 C 8.9915 -1.77367 -0.745557 0
M  V30 92 O 8.2845 -1.1471 -1.53467 0
M  V30 93 C 8.4785 -3.40464 1.08714 0
M  V30 94 C 8.3075 -3.6806 2.58384 0
M  V30 95 C 7.0775 -3.86775 3.25167 0
M  V30 96 C 9.2755 -3.70623 3.56572 0
M  V30 97 N 7.2575 -4.01889 4.64067 0
M  V30 98 C 8.6285 -3.91161 4.81034 0
M  V30 99 C 10.6835 -3.53586 3.50544 0
M  V30 100 C 9.3865 -3.96428 6.00198 0
M  V30 101 C 11.4125 -3.60125 4.6911 0
M  V30 102 C 10.7745 -3.81135 5.92381 0
M  V30 103 H 6.8735 -0.716226 0.313918 0
M  V30 104 H 9.4575 -1.44815 1.30141 0
M  V30 105 H 7.6285 -3.84757 0.530745 0
M  V30 106 H 9.3605 -3.97863 0.740763 0
M  V30 107 H 6.1155 -3.85156 2.75594 0
M  V30 108 H 6.5395 -4.13323 5.36184 0
M  V30 109 H 11.1815 -3.36308 2.56235 0
M  V30 110 H 8.8995 -4.12502 6.94887 0
M  V30 111 H 12.4855 -3.4825 4.66062 0
M  V30 112 H 11.3655 -3.86054 6.82592 0
M  V30 113 N 8.8686 -0.792821 -1.36206 0
M  V30 114 C 9.7986 -0.207853 -2.32573 0
M  V30 115 C 10.7796 0.659055 -1.56813 0
M  V30 116 O 11.9646 0.592176 -1.84951 0
M  V30 117 C 9.0946 0.655449 -3.41059 0
M  V30 118 C 8.0486 -0.111842 -4.27854 0
M  V30 119 C 7.3746 0.872274 -5.27537 0
M  V30 120 C 8.6746 -1.30299 -5.05786 0
M  V30 121 H 10.3686 -1.01294 -2.81744 0
M  V30 122 H 7.9146 -0.48854 -1.3546 0
M  V30 123 H 9.8676 1.07464 -4.07467 0
M  V30 124 H 8.5916 1.49328 -2.90463 0
M  V30 125 H 7.2506 -0.512053 -3.63006 0
M  V30 126 H 6.8986 1.70523 -4.73214 0
M  V30 127 H 6.5986 0.363291 -5.86476 0
M  V30 128 H 8.1226 1.28996 -5.96818 0
M  V30 129 H 9.5366 -0.959379 -5.65216 0
M  V30 130 H 7.9336 -1.7455 -5.74154 0
M  V30 131 H 9.0036 -2.09663 -4.37229 0
M  V30 132 N 10.3467 1.47872 -0.545128 0
M  V30 133 C 11.7627 1.5829 -0.204032 0
M  V30 134 C 11.9627 1.54529 1.29317 0
M  V30 135 O 11.0187 1.44232 2.07252 0
M  V30 136 C 12.3317 2.89304 -0.819987 0
M  V30 137 C 13.8797 3.02864 -0.790105 0
M  V30 138 C 14.3547 4.3656 -1.38491 0
M  V30 139 N 15.8457 4.43165 -1.34755 0
M  V30 140 C 16.5807 5.45153 -1.77753 0
M  V30 141 N 16.0767 6.54016 -2.2855 0
M  V30 142 N 17.8697 5.36125 -1.68897 0
M  V30 143 H 10.0207 1.4856 -1.51802 0
M  V30 144 H 12.2837 0.706305 -0.632327 0
M  V30 145 H 11.9897 2.97757 -1.87173 0
M  V30 146 H 11.8637 3.75957 -0.305915 0
M  V30 147 H 14.2507 2.94014 0.252913 0
M  V30 148 H 14.3317 2.17782 -1.34181 0
M  V30 149 H 13.9757 4.46164 -2.42693 0
M  V30 150 H 13.9057 5.20353 -0.808754 0
M  V30 151 H 16.3967 3.65083 -0.975855 0
M  V30 152 H 16.7097 7.27994 -2.59314 0
M  V30 153 H 15.0547 6.54938 -2.32553 0
M  V30 154 H 18.2457 4.49975 -1.28998 0
M  V30 155 H 18.4187 6.15472 -2.02726 0
M  V30 156 N 11.8248 0.280983 1.55075 0
M  V30 157 C 12.7348 -0.61388 2.26426 0
M  V30 158 C 13.7508 -1.16521 1.29224 0
M  V30 159 O 14.9268 -1.19426 1.62171 0
M  V30 160 C 11.9918 -1.7788 2.9759 0
M  V30 161 C 11.0528 -1.26355 4.10284 0
M  V30 162 C 10.2858 -2.37295 4.78045 0
M  V30 163 O 10.5088 -3.56777 4.45047 0
M  V30 164 O 9.4428 -2.05119 5.65871 0
M  V30 165 H 13.2688 -0.0356932 3.03679 0
M  V30 166 H 10.8538 0.0481686 1.49322 0
M  V30 167 H 12.7358 -2.45791 3.42293 0
M  V30 168 H 11.4108 -2.34397 2.23249 0
M  V30 169 H 10.3178 -0.550735 3.70024 0
M  V30 170 H 11.6508 -0.744065 4.86543 0
M  V30 171 N 13.3029 -1.57598 0.00835791 0
M  V30 172 C 14.2659 -2.07884 -0.965242 0
M  V30 173 C 15.2659 -0.989825 -1.26725 0
M  V30 174 O 16.4559 -1.25218 -1.21104 0
M  V30 175 C 13.5879 -2.52731 -2.28779 0
M  V30 176 H 14.7809 -2.95178 -0.530112 0
M  V30 177 H 12.3339 -1.54458 -0.239283 0
M  V30 178 H 13.0689 -1.68705 -2.76964 0
M  V30 179 H 12.8539 -3.32272 -2.08177 0
M  V30 180 H 14.3439 -2.91933 -2.98605 0
M  V30 181 N 14.781 0.264519 -1.55364 0
M  V30 182 C 16.03 0.992812 -1.75574 0
M  V30 183 C 16.343 1.87142 -0.568979 0
M  V30 184 O 17.549 2.63513 -0.653682 0
M  V30 185 C 16.005 1.81519 -3.10771 0
M  V30 186 C 15.613 0.984839 -4.37041 0
M  V30 187 C 17.357 2.53727 -3.40327 0
M  V30 188 C 15.264 1.80209 -5.63275 0
M  V30 189 H 14.194 0.374412 -0.65447 0
M  V30 190 H 16.845 0.248138 -1.81815 0
M  V30 191 H 15.227 2.60115 -2.98591 0
M  V30 192 H 16.401 0.242455 -4.60162 0
M  V30 193 H 14.716 0.37691 -4.14691 0
M  V30 194 H 17.313 3.15292 -4.3185 0
M  V30 195 H 17.656 3.24447 -2.60845 0
M  V30 196 H 18.189 1.82156 -3.53644 0
M  V30 197 H 14.928 1.13896 -6.45529 0
M  V30 198 H 14.448 2.52022 -5.44284 0
M  V30 199 H 16.127 2.37364 -6.01887 0
M  V30 200 N 16.2591 1.48442 0.529413 0
M  V30 201 C 17.4841 1.60406 1.31471 0
M  V30 202 C 17.9091 0.264738 1.86228 0
M  V30 203 O 17.2671 -0.763668 1.64432 0
M  V30 204 C 17.3151 2.65419 2.44101 0
M  V30 205 O 16.4191 2.22618 3.47153 0
M  V30 206 H 15.7601 0.537863 0.389357 0
M  V30 207 H 18.2901 1.94432 0.636965 0
M  V30 208 H 18.3001 2.86709 2.90279 0
M  V30 209 H 16.9751 3.62652 2.03608 0
M  V30 210 H 15.5521 2.11543 3.0709 0
M  V30 211 N 17.7372 -0.778329 1.37039 0
M  V30 212 C 18.6692 -1.90034 1.2814 0
M  V30 213 C 19.6822 -1.61585 0.198558 0
M  V30 214 O 20.8712 -1.72625 0.454175 0
M  V30 215 C 17.9712 -3.25108 0.956968 0
M  V30 216 C 17.1442 -3.81253 2.14394 0
M  V30 217 C 16.2032 -4.94789 1.79082 0
M  V30 218 O 15.2292 -5.10721 2.51301 0
M  V30 219 N 16.4312 -5.75878 0.731043 0
M  V30 220 H 19.1962 -1.98186 2.24816 0
M  V30 221 H 16.7572 -0.957129 1.30578 0
M  V30 222 H 18.7492 -3.9857 0.701701 0
M  V30 223 H 17.3192 -3.125 0.0789812 0
M  V30 224 H 16.5392 -2.99647 2.56135 0
M  V30 225 H 17.8272 -4.15495 2.93668 0
M  V30 226 H 17.2252 -5.65547 0.131618 0
M  V30 227 H 15.7822 -6.49596 0.535622 0
M  V30 228 N 19.2153 -1.21501 -1.00376 0
M  V30 229 C 20.1453 -0.999478 -2.11028 0
M  V30 230 C 21.1263 0.0759671 -1.6993 0
M  V30 231 O 22.3113 -0.0841106 -1.94018 0
M  V30 232 C 19.4413 -0.564709 -3.42678 0
M  V30 233 C 18.3953 -1.58486 -3.97576 0
M  V30 234 C 17.7213 -1.00628 -5.25146 0
M  V30 235 C 19.0213 -2.97204 -4.29496 0
M  V30 236 H 20.7153 -1.92495 -2.29317 0
M  V30 237 H 18.2613 -0.92693 -1.102 0
M  V30 238 H 20.2143 -0.401091 -4.19487 0
M  V30 239 H 18.9383 0.396411 -3.24185 0
M  V30 240 H 17.5973 -1.73606 -3.22888 0
M  V30 241 H 17.2453 -0.0368439 -5.02987 0
M  V30 242 H 16.9453 -1.68771 -5.62841 0
M  V30 243 H 18.4693 -0.854015 -6.04598 0
M  V30 244 H 19.8833 -2.8552 -4.97143 0
M  V30 245 H 18.2803 -3.62372 -4.78338 0
M  V30 246 H 19.3503 -3.47956 -3.3772 0
M  V30 247 N 20.6934 1.19889 -1.02296 0
M  V30 248 C 21.6254 2.22334 -0.556787 0
M  V30 249 C 22.6384 1.58674 0.364199 0
M  V30 250 O 23.8274 1.77768 0.161533 0
M  V30 251 C 20.9274 3.38257 0.208694 0
M  V30 252 C 20.1004 4.31504 -0.71577 0
M  V30 253 C 19.1594 5.262 0.00325597 0
M  V30 254 O 18.1854 5.65798 -0.621357 0
M  V30 255 N 19.3874 5.66303 1.27599 0
M  V30 256 H 22.1524 2.62957 -1.43784 0
M  V30 257 H 19.7134 1.34495 -0.901261 0
M  V30 258 H 21.7054 3.98616 0.699111 0
M  V30 259 H 20.2754 2.96472 0.991102 0
M  V30 260 H 19.4954 3.69016 -1.38638 0
M  V30 261 H 20.7834 4.9072 -1.34428 0
M  V30 262 H 20.1814 5.36155 1.80429 0
M  V30 263 H 18.7384 6.28942 1.71102 0
M  V30 264 N 22.1715 0.800033 1.35784 0
M  V30 265 C 23.1345 0.211565 2.28221 0
M  V30 266 C 24.1345 -0.59728 1.49296 0
M  V30 267 O 25.3245 -0.416721 1.69142 0
M  V30 268 C 22.4565 -0.705846 3.33513 0
M  V30 269 H 23.6495 1.02677 2.81776 0
M  V30 270 H 21.2025 0.570211 1.45528 0
M  V30 271 H 21.9375 -1.54498 2.85133 0
M  V30 272 H 21.7225 -0.127655 3.91892 0
M  V30 273 H 23.2125 -1.11211 4.02519 0
M  V30 274 N 23.6496 -1.47581 0.552962 0
M  V30 275 C 24.8746 -2.07378 0.0300593 0
M  V30 276 C 25.2996 -1.40355 -1.25229 0
M  V30 277 O 24.6576 -0.477099 -1.7491 0
M  V30 278 C 24.7056 -3.60274 -0.153231 0
M  V30 279 O 23.8096 -3.94041 -1.21678 0
M  V30 280 H 23.1506 -0.662158 0.0494182 0
M  V30 281 H 25.6806 -1.89662 0.767434 0
M  V30 282 H 25.6906 -4.0633 -0.368761 0
M  V30 283 H 24.3656 -4.08455 0.783397 0
M  V30 284 H 22.9426 -3.59735 -0.982079 0
M  V30 285 N 25.1277 -0.289203 -1.54924 0
M  V30 286 C 26.0377 0.601863 -2.26748 0
M  V30 287 C 27.0537 1.15834 -1.2984 0
M  V30 288 O 28.2297 1.18564 -1.62802 0
M  V30 289 C 25.2947 1.76299 -2.98529 0
M  V30 290 C 24.3557 1.24178 -4.10948 0
M  V30 291 C 23.5887 2.34757 -4.79296 0
M  V30 292 O 23.8117 3.54411 -4.46933 0
M  V30 293 O 22.7457 2.02115 -5.66951 0
M  V30 294 H 26.5717 0.0195879 -3.03694 0
M  V30 295 H 24.1567 -0.0560868 -1.49295 0
M  V30 296 H 26.0387 2.43973 -3.43592 0
M  V30 297 H 24.7137 2.33209 -2.24488 0
M  V30 298 H 23.6207 0.531104 -3.70311 0
M  V30 299 H 24.9537 0.718252 -4.86931 0
M  V30 300 N 26.6058 1.57591 -0.0167156 0
M  V30 301 C 27.8308 1.9598 0.67872 0
M  V30 302 C 28.2558 0.892546 1.65575 0
M  V30 303 O 27.6138 -0.147772 1.80697 0
M  V30 304 C 27.6618 3.33468 1.37227 0
M  V30 305 O 26.7658 3.28954 2.48722 0
M  V30 306 H 26.1068 0.639339 0.17928 0
M  V30 307 H 28.6368 2.04463 -0.0748802 0
M  V30 308 H 28.6468 3.69417 1.7319 0
M  V30 309 H 27.3218 4.10694 0.656007 0
M  V30 310 H 25.8988 3.04705 2.14963 0
M  V30 311 N 28.0839 -0.256276 1.55502 0
M  V30 312 C 29.4949 -0.826068 1.67431 0
M  V30 313 C 29.8459 -1.86396 0.612446 0
M  V30 314 O 28.9709 -2.15031 -0.243025 0
M  V30 315 C 29.5659 -1.50512 3.03532 0
M  V30 316 C 28.1249 -2.02273 3.17431 0
M  V30 317 C 27.2719 -0.870548 2.63281 0
M  V30 318 H 30.2229 -0.0322728 1.58667 0
M  V30 319 H 30.2439 -2.37279 2.97454 0
M  V30 320 H 29.7559 -0.749484 3.80794 0
M  V30 321 H 27.8569 -2.80746 2.44974 0
M  V30 322 H 27.9699 -2.22655 4.24219 0
M  V30 323 H 26.3339 -1.26851 2.20864 0
M  V30 324 H 27.1169 -0.128149 3.43061 0
M  V30 325 N 29.562 -1.4872 -0.521534 0
M  V30 326 C 30.978 -1.35028 -0.850855 0
M  V30 327 C 31.178 -0.367712 -1.98116 0
M  V30 328 O 30.234 0.208037 -2.51642 0
M  V30 329 C 31.547 -2.75263 -1.21041 0
M  V30 330 C 33.095 -2.83813 -1.31981 0
M  V30 331 C 33.57 -4.24769 -1.71276 0
M  V30 332 N 35.061 -4.27482 -1.78363 0
M  V30 333 C 35.796 -5.33494 -2.1017 0
M  V30 334 N 35.292 -6.49775 -2.40343 0
M  V30 335 N 37.085 -5.20894 -2.11248 0
M  V30 336 H 29.236 -2.11214 0.22413 0
M  V30 337 H 31.499 -0.947252 0.0376439 0
M  V30 338 H 31.205 -3.48765 -0.453415 0
M  V30 339 H 31.079 -3.09327 -2.15863 0
M  V30 340 H 33.466 -2.10561 -2.06756 0
M  V30 341 H 33.547 -2.53358 -0.352596 0
M  V30 342 H 33.191 -4.9854 -0.970588 0
M  V30 343 H 33.121 -4.52673 -2.69062 0
M  V30 344 H 35.612 -3.43611 -1.57288 0
M  V30 345 H 35.925 -7.26402 -2.63743 0
M  V30 346 H 34.27 -6.53035 -2.37844 0
M  V30 347 H 37.461 -4.29065 -1.87139 0
M  V30 348 H 37.634 -6.03612 -2.35704 0
M  V30 349 N 31.0401 0.771051 -1.3745 0
M  V30 350 C 32.4561 1.07171 -1.18265 0
M  V30 351 C 32.6561 2.01491 -0.019287 0
M  V30 352 O 31.7121 2.44244 0.640408 0
M  V30 353 C 33.0251 1.66854 -2.50161 0
M  V30 354 C 34.5731 1.79109 -2.56689 0
M  V30 355 C 35.0481 2.42205 -3.88717 0
M  V30 356 N 36.5391 2.49655 -3.90162 0
M  V30 357 C 37.2741 2.9933 -4.8907 0
M  V30 358 N 36.7701 3.49172 -5.98374 0
M  V30 359 N 38.5631 2.9821 -4.76474 0
M  V30 360 H 30.7141 0.144796 -2.11906 0
M  V30 361 H 32.9771 0.126863 -0.939473 0
M  V30 362 H 32.6831 1.05017 -3.35655 0
M  V30 363 H 32.5571 2.6614 -2.673 0
M  V30 364 H 34.9441 2.40077 -1.71601 0
M  V30 365 H 35.0251 0.785757 -2.43433 0
M  V30 366 H 34.6691 1.81875 -4.74219 0
M  V30 367 H 34.5991 3.43345 -3.99276 0
M  V30 368 H 37.0901 2.14383 -3.11205 0
M  V30 369 H 37.4031 3.8548 -6.69795 0
M  V30 370 H 35.7481 3.47275 -6.02018 0
M  V30 371 H 38.9391 2.58572 -3.90203 0
M  V30 372 H 39.1121 3.36613 -5.53711 0
M  V30 373 N 32.5182 1.22032 0.997298 0
M  V30 374 C 33.7952 0.950823 1.70935 0
M  V30 375 C 34.1752 -0.535292 2.042 0
M  V30 376 O 33.5232 -1.50217 1.72183 0
M  V30 377 C 33.7332 1.84386 2.96315 0
M  V30 378 C 35.0812 2.09732 3.69185 0
M  V30 379 O 36.1052 1.81798 3.06314 0
M  V30 380 O 34.9642 2.57018 4.82291 0
M  V30 381 H 32.0582 0.357204 0.745878 0
M  V30 382 H 34.6042 1.32997 1.05404 0
M  V30 383 H 33.3762 2.84928 2.68201 0
M  V30 384 H 32.9992 1.46602 3.69586 0
M  V30 385 N 33.9963 -1.19345 1.0293 0
M  V30 386 C 34.9593 -2.20793 0.615069 0
M  V30 387 C 35.9593 -1.57553 -0.321533 0
M  V30 388 O 37.1493 -1.73862 -0.108483 0
M  V30 389 C 34.2813 -3.40754 -0.0999222 0
M  V30 390 H 35.4743 -2.58955 1.51269 0
M  V30 391 H 33.0273 -1.3303 0.820534 0
M  V30 392 H 33.7623 -3.0811 -1.01187 0
M  V30 393 H 33.5473 -3.87889 0.57309 0
M  V30 394 H 35.0373 -4.15898 -0.376645 0
M  V30 395 N 35.4744 -0.807222 -1.35358 0
M  V30 396 C 36.3844 -0.219594 -2.3357 0
M  V30 397 C 37.4004 0.637734 -1.61892 0
M  V30 398 O 38.5764 0.549336 -1.93763 0
M  V30 399 C 35.6414 0.62158 -3.41083 0
M  V30 400 C 34.7024 -0.256315 -4.28534 0
M  V30 401 C 33.9354 0.544807 -5.30912 0
M  V30 402 O 34.1584 1.77944 -5.41934 0
M  V30 403 O 33.0924 -0.0646478 -6.01865 0
M  V30 404 H 36.9184 -1.03208 -2.85625 0
M  V30 405 H 34.5034 -0.569025 -1.38139 0
M  V30 406 H 36.3854 1.10067 -4.06772 0
M  V30 407 H 35.0604 1.41165 -2.91297 0
M  V30 408 H 33.9674 -0.782559 -3.65823 0
M  V30 409 H 35.3004 -1.01034 -4.81719 0
M  V30 410 N 36.9525 1.47285 -0.560781 0
M  V30 411 C 38.2015 2.01668 -0.035895 0
M  V30 412 C 38.5145 1.44021 1.32353 0
M  V30 413 O 39.7205 1.90088 1.93853 0
M  V30 414 C 38.1765 3.59897 -0.0136659 0
M  V30 415 C 37.7845 4.26536 -1.37006 0
M  V30 416 C 39.5285 4.22017 0.458425 0
M  V30 417 C 37.4355 5.76782 -1.30675 0
M  V30 418 H 36.3655 0.753938 -0.00964879 0
M  V30 419 H 39.0165 1.69243 -0.709166 0
M  V30 420 H 37.3985 3.89301 0.725325 0
M  V30 421 H 38.5725 4.0877 -2.12705 0
M  V30 422 H 36.8875 3.76419 -1.78038 0
M  V30 423 H 39.4845 5.32124 0.524247 0
M  V30 424 H 39.8275 3.89437 1.4712 0
M  V30 425 H 40.3605 3.97159 -0.225818 0
M  V30 426 H 37.0995 6.13988 -2.29564 0
M  V30 427 H 36.6195 5.96875 -0.591622 0
M  V30 428 H 38.2985 6.39063 -1.01033 0
M  V30 429 N 38.4306 0.297415 1.54768 0
M  V30 430 C 39.3606 -0.573494 2.26348 0
M  V30 431 C 40.3416 -1.14085 1.26169 0
M  V30 432 O 41.5266 -1.17086 1.54934 0
M  V30 433 C 38.6566 -1.74716 3.00153 0
M  V30 434 C 37.6106 -1.31032 4.07449 0
M  V30 435 C 36.9366 -2.56887 4.68949 0
M  V30 436 C 38.2366 -0.444183 5.20408 0
M  V30 437 H 39.9306 0.0235131 2.99391 0
M  V30 438 H 37.4766 0.0127488 1.43994 0
M  V30 439 H 39.4296 -2.3625 3.48947 0
M  V30 440 H 38.1536 -2.37035 2.24682 0
M  V30 441 H 36.8126 -0.718066 3.59499 0
M  V30 442 H 36.4606 -3.17512 3.90122 0
M  V30 443 H 36.1606 -2.2836 5.41411 0
M  V30 444 H 37.6846 -3.19229 5.20505 0
M  V30 445 H 39.0986 -0.9651 5.65118 0
M  V30 446 H 37.4956 -0.252846 5.99567 0
M  V30 447 H 38.5656 0.531609 4.81977 0
M  V30 448 N 39.9087 -1.5758 0.0250728 0
M  V30 449 C 40.8387 -2.13007 -0.956575 0
M  V30 450 C 41.8197 -1.0452 -1.342 0
M  V30 451 O 43.0047 -1.32332 -1.42133 0
M  V30 452 C 40.1347 -2.65386 -2.24026 0
M  V30 453 C 39.0887 -3.78623 -1.99571 0
M  V30 454 C 38.4147 -4.17414 -3.3417 0
M  V30 455 C 39.7147 -5.04867 -1.33814 0
M  V30 456 H 41.4087 -2.9528 -0.494991 0
M  V30 457 H 38.9547 -1.42042 -0.236651 0
M  V30 458 H 40.9077 -3.02794 -2.93076 0
M  V30 459 H 39.6317 -1.80268 -2.72343 0
M  V30 460 H 38.2907 -3.41646 -1.32941 0
M  V30 461 H 37.9387 -3.29284 -3.80238 0
M  V30 462 H 37.6387 -4.93719 -3.18615 0
M  V30 463 H 39.1627 -4.57402 -4.04495 0
M  V30 464 H 40.5767 -5.39888 -1.92857 0
M  V30 465 H 38.9737 -5.86144 -1.28669 0
M  V30 466 H 40.0437 -4.83904 -0.310561 0
M  V30 467 N 41.3868 0.248026 -1.55636 0
M  V30 468 C 42.2968 1.32859 -1.93354 0
M  V30 469 C 43.3128 1.52719 -0.833838 0
M  V30 470 O 44.4888 1.66363 -1.13513 0
M  V30 471 C 41.5538 2.66337 -2.21958 0
M  V30 472 C 40.6148 2.55008 -3.45354 0
M  V30 473 C 39.8478 3.82121 -3.72584 0
M  V30 474 O 40.0708 4.83951 -3.01907 0
M  V30 475 O 39.0048 3.80822 -4.6611 0
M  V30 476 H 42.8308 1.03862 -2.85388 0
M  V30 477 H 40.4158 0.448686 -1.42503 0
M  V30 478 H 42.2978 3.45216 -2.4167 0
M  V30 479 H 40.9728 2.95068 -1.33103 0
M  V30 480 H 39.8798 1.7442 -3.30951 0
M  V30 481 H 41.2128 2.31222 -4.34508 0
M  V30 482 N 42.8649 1.48995 0.513639 0
M  V30 483 C 43.8149 1.61127 1.61314 0
M  V30 484 C 44.7989 0.467521 1.53958 0
M  V30 485 O 45.9909 0.719826 1.61702 0
M  V30 486 C 43.1199 1.66937 2.99978 0
M  V30 487 C 42.2059 2.86847 3.12377 0
M  V30 488 N 42.5969 4.11078 2.94701 0
M  V30 489 C 40.8949 2.84521 3.43459 0
M  V30 490 C 41.5959 4.91615 3.10949 0
M  V30 491 N 40.5719 4.24739 3.3926 0
M  V30 492 H 44.3739 2.54909 1.46282 0
M  V30 493 H 41.8879 1.45593 0.719483 0
M  V30 494 H 43.8849 1.73725 3.78979 0
M  V30 495 H 42.5449 0.742831 3.16089 0
M  V30 496 H 43.5559 4.41258 2.71131 0
M  V30 497 H 40.2329 2.01192 3.65825 0
M  V30 498 H 41.6229 6.00264 3.01882 0
M  V30 499 N 44.343 -0.763751 1.37857 0
M  V30 500 C 45.589 -1.52483 1.33704 0
M  V30 501 C 45.922 -1.94051 -0.0759612 0
M  V30 502 O 45.197 -1.64675 -1.03501 0
M  V30 503 C 45.48 -2.78441 2.28348 0
M  V30 504 C 45.333 -2.43075 3.78463 0
M  V30 505 C 46.652 -3.80415 2.21298 0
M  V30 506 H 43.771 -0.553169 0.487005 0
M  V30 507 H 46.413 -0.875562 1.68624 0
M  V30 508 H 44.563 -3.33842 1.987 0
M  V30 509 H 46.235 -1.93527 4.18742 0
M  V30 510 H 44.478 -1.75666 3.96641 0
M  V30 511 H 45.149 -3.33149 4.40132 0
M  V30 512 H 47.625 -3.34527 2.47449 0
M  V30 513 H 46.501 -4.66257 2.89647 0
M  V30 514 H 46.762 -4.25262 1.20849 0
M  V30 515 N 45.8211 -1.22559 -0.990812 0
M  V30 516 C 47.0491 -1.07779 -1.76611 0
M  V30 517 C 47.4641 0.371513 -1.85109 0
M  V30 518 O 46.8211 1.25737 -1.32274 0
M  V30 519 C 46.8721 -1.68512 -3.19822 0
M  V30 520 O 46.5931 -3.07774 -3.1178 0
M  V30 521 C 48.0941 -1.59035 -4.13791 0
M  V30 522 H 45.3141 -0.377729 -0.554583 0
M  V30 523 H 47.8581 -1.62195 -1.24551 0
M  V30 524 H 46.0131 -1.18154 -3.68942 0
M  V30 525 H 46.4271 -3.37062 -4.01858 0
M  V30 526 H 47.9011 -2.0625 -5.1202 0
M  V30 527 H 48.3781 -0.547273 -4.35777 0
M  V30 528 H 48.9841 -2.08709 -3.70568 0
M  V30 529 N 47.2992 1.18797 -1.03562 0
M  V30 530 C 48.5472 1.88278 -0.734569 0
M  V30 531 C 48.8682 1.8043 0.739586 0
M  V30 532 O 48.1382 1.21925 1.53333 0
M  V30 533 H 46.7182 0.696991 -0.268725 0
M  V30 534 H 49.3802 1.44192 -1.31129 0
M  V30 535 H 48.4762 2.94443 -1.03489 0
M  V30 536 N 48.7773 0.814389 1.34928 0
M  V30 537 C 50.1933 0.499084 1.51596 0
M  V30 538 C 50.3933 -0.978319 1.76157 0
M  V30 539 O 49.4493 -1.76309 1.80752 0
M  V30 540 C 50.7623 1.35121 2.68631 0
M  V30 541 C 52.3103 1.34746 2.82511 0
M  V30 542 C 52.7853 2.18388 4.0258 0
M  V30 543 N 54.2763 2.15966 4.09772 0
M  V30 544 C 55.0113 2.77437 5.01813 0
M  V30 545 N 54.5073 3.47866 5.99134 0
M  V30 546 N 56.3003 2.67037 4.94619 0
M  V30 547 H 48.4513 1.7711 1.17243 0
M  V30 548 H 50.7143 0.754256 0.574284 0
M  V30 549 H 50.4203 2.40001 2.57085 0
M  V30 550 H 50.2943 1.00991 3.63429 0
M  V30 551 H 52.6813 0.30648 2.93504 0
M  V30 552 H 52.7623 1.72869 1.88547 0
M  V30 553 H 52.4063 3.2253 3.92347 0
M  V30 554 H 52.3363 1.77621 4.9574 0
M  V30 555 H 54.8273 1.64729 3.40107 0
M  V30 556 H 55.1403 3.92038 6.65977 0
M  V30 557 H 53.4853 3.51972 5.99284 0
M  V30 558 H 56.6763 2.11597 4.17546 0
M  V30 559 H 56.8493 3.15232 5.66156 0
M  V30 560 N 50.2554 -1.46986 0.568584 0
M  V30 561 C 51.5034 -2.02041 0.0487022 0
M  V30 562 C 51.8244 -1.44408 -1.31039 0
M  V30 563 O 51.0944 -0.623477 -1.85714 0
M  V30 564 H 49.6744 -0.746849 0.015014 0
M  V30 565 H 52.3364 -1.80257 0.741168 0
M  V30 566 H 51.4324 -3.12085 -0.0308961 0
M  V30 567 N 51.7335 -0.305618 -1.54608 0
M  V30 568 C 53.1495 0.0476228 -1.59529 0
M  V30 569 C 53.3495 1.52025 -1.32252 0
M  V30 570 O 52.4055 2.27368 -1.09818 0
M  V30 571 C 53.7185 -0.354471 -2.98603 0
M  V30 572 C 55.2665 -0.303622 -3.11524 0
M  V30 573 C 55.7415 -0.680608 -4.52915 0
M  V30 574 N 57.2325 -0.63332 -4.5885 0
M  V30 575 C 57.9675 -0.897432 -5.66334 0
M  V30 576 N 57.4635 -1.22775 -6.81834 0
M  V30 577 N 59.2565 -0.824186 -5.56025 0
M  V30 578 H 51.4075 -1.2653 -1.70599 0
M  V30 579 H 53.6705 -0.513291 -0.797017 0
M  V30 580 H 53.3765 -1.3798 -3.23503 0
M  V30 581 H 53.2505 0.289568 -3.76087 0
M  V30 582 H 55.6375 0.712472 -2.8637 0
M  V30 583 H 55.7185 -0.982348 -2.36185 0
M  V30 584 H 55.3625 -1.69453 -4.78799 0
M  V30 585 H 55.2925 0.0202385 -5.26596 0
M  V30 586 H 57.7835 -0.389138 -3.75891 0
M  V30 587 H 58.0965 -1.41513 -7.59733 0
M  V30 588 H 56.4415 -1.26583 -6.83375 0
M  V30 589 H 59.6325 -0.565748 -4.64669 0
M  V30 590 H 59.8055 -1.03338 -6.39707 0
M  V30 591 N 53.2116 1.57565 -0.0334293 0
M  V30 592 C 54.4396 1.9628 0.654347 0
M  V30 593 C 54.8546 0.910138 1.65414 0
M  V30 594 O 54.2116 -0.107595 1.82183 0
M  V30 595 C 54.2626 3.35067 1.35693 0
M  V30 596 O 53.9836 4.36296 0.397191 0
M  V30 597 C 55.4846 3.88439 2.13613 0
M  V30 598 H 52.7046 0.646369 0.180132 0
M  V30 599 H 55.2486 2.04282 -0.0944721 0
M  V30 600 H 53.4036 3.2827 2.05712 0
M  V30 601 H 53.8176 5.1678 0.896597 0
M  V30 602 H 55.2916 4.8788 2.58219 0
M  V30 603 H 55.7686 3.22914 2.97696 0
M  V30 604 H 56.3746 3.98516 1.48543 0
M  V30 605 N 54.6897 -0.239769 1.55765 0
M  V30 606 C 55.9367 -0.966801 1.7793 0
M  V30 607 C 56.2647 -1.85046 0.599015 0
M  V30 608 O 55.5197 -1.91197 -0.417395 0
M  V30 609 C 55.8187 -1.852 3.05672 0
M  V30 610 C 55.4847 -1.1231 4.36689 0
M  V30 611 C 54.1467 -0.921689 4.72291 0
M  V30 612 C 56.4987 -0.607019 5.17653 0
M  V30 613 C 53.8267 -0.191996 5.86386 0
M  V30 614 C 56.1787 0.109241 6.32506 0
M  V30 615 C 54.8427 0.322073 6.66723 0
M  V30 616 H 54.1127 -0.353778 0.651093 0
M  V30 617 H 56.7597 -0.23634 1.90036 0
M  V30 618 H 55.0647 -2.64975 2.8861 0
M  V30 619 H 56.7617 -2.41635 3.20021 0
M  V30 620 H 53.3517 -1.29004 4.08725 0
M  V30 621 H 57.5357 -0.750153 4.90598 0
M  V30 622 H 52.7917 -0.0166949 6.11398 0
M  V30 623 H 56.9657 0.516737 6.9448 0
M  V30 624 H 54.5927 0.88944 7.54979 0
M  V30 625 N 56.1678 -1.49265 -0.50573 0
M  V30 626 C 57.4168 -1.57761 -1.25675 0
M  V30 627 C 57.7298 -0.267371 -1.93764 0
M  V30 628 O 58.9358 -0.230827 -2.70517 0
M  V30 629 C 57.3918 -2.78332 -2.28165 0
M  V30 630 C 56.9998 -4.16096 -1.66037 0
M  V30 631 C 58.7438 -2.96155 -3.04125 0
M  V30 632 C 56.6508 -5.27895 -2.6661 0
M  V30 633 H 55.5808 -0.587391 -0.472745 0
M  V30 634 H 58.2318 -1.75644 -0.53118 0
M  V30 635 H 56.6138 -2.53934 -3.03865 0
M  V30 636 H 57.7878 -4.50612 -0.963622 0
M  V30 637 H 56.1028 -4.03591 -1.02484 0
M  V30 638 H 58.6998 -3.76849 -3.79327 0
M  V30 639 H 59.0428 -2.06534 -3.61455 0
M  V30 640 H 59.5758 -3.2057 -2.35541 0
M  V30 641 H 56.3148 -6.1956 -2.14068 0
M  V30 642 H 55.8348 -4.97839 -3.34539 0
M  V30 643 H 57.5138 -5.57031 -3.29129 0
M  V30 644 N 57.6459 0.756429 -1.3826 0
M  V30 645 C 58.5759 1.88374 -1.37976 0
M  V30 646 C 59.5569 1.68311 -0.246082 0
M  V30 647 O 60.7419 1.88944 -0.44874 0
M  V30 648 C 57.8719 3.25864 -1.20125 0
M  V30 649 C 56.8259 3.60523 -2.30666 0
M  V30 650 C 56.1519 4.9672 -1.97923 0
M  V30 651 C 57.4519 3.65692 -3.72916 0
M  V30 652 H 59.1459 1.88869 -2.32312 0
M  V30 653 H 56.6919 0.907272 -1.11824 0
M  V30 654 H 58.6449 4.0438 -1.18552 0
M  V30 655 H 57.3689 3.25841 -0.222498 0
M  V30 656 H 56.0279 2.84324 -2.3142 0
M  V30 657 H 55.6759 4.93253 -0.985393 0
M  V30 658 H 55.3759 5.20878 -2.71955 0
M  V30 659 H 56.8999 5.77618 -1.97964 0
M  V30 660 H 58.3139 4.34328 -3.74208 0
M  V30 661 H 56.7109 4.01358 -4.4613 0
M  V30 662 H 57.7809 2.65987 -4.05436 0
M  V30 663 N 59.124 1.23083 0.984299 0
M  V30 664 C 60.087 1.00979 2.05757 0
M  V30 665 C 61.087 -0.0269573 1.60777 0
M  V30 666 O 62.277 0.212403 1.729 0
M  V30 667 C 59.409 0.527072 3.36801 0
M  V30 668 H 60.602 1.9622 2.26799 0
M  V30 669 H 58.155 1.05072 1.15714 0
M  V30 670 H 58.89 -0.429294 3.21446 0
M  V30 671 H 58.675 1.27515 3.70786 0
M  V30 672 H 60.165 0.392942 4.15747 0
M  V30 673 N 60.6021 -1.18246 1.0419 0
M  V30 674 C 61.8491 -1.88257 0.746017 0
M  V30 675 C 62.1771 -1.80429 -0.726331 0
M  V30 676 O 61.4321 -1.2 -1.54591 0
M  V30 677 C 61.7311 -3.38082 1.15911 0
M  V30 678 C 61.3971 -3.66114 2.63195 0
M  V30 679 C 60.0591 -3.73474 3.03432 0
M  V30 680 C 62.4111 -3.78398 3.5842 0
M  V30 681 C 59.7391 -3.90599 4.37778 0
M  V30 682 C 62.0911 -3.97039 4.92487 0
M  V30 683 C 60.7551 -4.02635 5.32392 0
M  V30 684 H 60.0251 -0.688883 0.272987 0
M  V30 685 H 62.6721 -1.3995 1.30715 0
M  V30 686 H 60.9771 -3.88377 0.516806 0
M  V30 687 H 62.6741 -3.90596 0.907516 0
M  V30 688 H 59.2641 -3.61003 2.3103 0
M  V30 689 H 63.4481 -3.72042 3.28479 0
M  V30 690 H 58.7041 -3.93175 4.68213 0
M  V30 691 H 62.8781 -4.05486 5.66175 0
M  V30 692 H 60.5051 -4.15657 6.36501 0
M  V30 693 N 62.0802 -0.821533 -1.34494 0
M  V30 694 C 63.3282 -0.408139 -1.97936 0
M  V30 695 C 63.6492 1.03193 -1.65457 0
M  V30 696 O 62.9192 1.71622 -0.944595 0
M  V30 697 H 61.4992 -0.147928 -0.732206 0
M  V30 698 H 64.1612 -1.05067 -1.64155 0
M  V30 699 H 63.2572 -0.52601 -3.07635 0
M  V30 700 N 63.5583 1.46682 -0.576371 0
M  V30 701 C 64.4683 2.34032 0.163141 0
M  V30 702 C 65.4843 1.49367 0.892501 0
M  V30 703 O 66.6603 1.82252 0.857106 0
M  V30 704 C 63.7253 3.26435 1.16795 0
M  V30 705 C 62.7863 4.26998 0.443944 0
M  V30 706 C 62.0193 5.14986 1.40088 0
M  V30 707 O 62.2423 5.05785 2.637 0
M  V30 708 O 61.1763 5.94906 0.914917 0
M  V30 709 H 65.0023 2.98607 -0.55388 0
M  V30 710 H 62.5873 1.45554 -0.336821 0
M  V30 711 H 64.4693 3.83459 1.74748 0
M  V30 712 H 63.1443 2.64465 1.86655 0
M  V30 713 H 62.0513 3.7368 -0.177271 0
M  V30 714 H 63.3843 4.91736 -0.213566 0
M  V30 715 N 65.0364 0.313813 1.54444 0
M  V30 716 C 66.2644 -0.293918 2.04802 0
M  V30 717 C 66.6794 -1.46537 1.19047 0
M  V30 718 O 66.0364 -1.81182 0.218939 0
M  V30 719 C 66.0874 -0.737806 3.53891 0
M  V30 720 O 65.8084 0.387038 4.36387 0
M  V30 721 C 67.3094 -1.40936 4.203 0
M  V30 722 H 64.5294 -0.0620057 0.668129 0
M  V30 723 H 67.0734 0.457169 1.99324 0
M  V30 724 H 65.2284 -1.43889 3.59687 0
M  V30 725 H 65.6424 0.0391274 5.24485 0
M  V30 726 H 67.1164 -1.67099 5.26101 0
M  V30 727 H 67.5934 -2.35355 3.70816 0
M  V30 728 H 68.1994 -0.751117 4.18615 0
M  V30 729 N 66.5145 -1.57545 0.0417849 0
M  V30 730 C 67.4465 -2.07904 -0.964799 0
M  V30 731 C 68.4595 -1.00497 -1.28079 0
M  V30 732 O 69.6485 -1.28087 -1.24322 0
M  V30 733 C 66.7485 -2.49928 -2.28887 0
M  V30 734 C 65.9215 -3.80562 -2.15619 0
M  V30 735 C 64.9805 -4.08999 -3.31069 0
M  V30 736 O 64.0065 -4.79061 -3.0739 0
M  V30 737 N 65.2085 -3.6017 -4.55256 0
M  V30 738 H 67.9735 -2.94886 -0.535029 0
M  V30 739 H 65.5345 -1.61252 -0.144681 0
M  V30 740 H 67.5265 -2.66034 -3.04972 0
M  V30 741 H 66.0965 -1.68245 -2.63463 0
M  V30 742 H 65.3165 -3.74129 -1.24183 0
M  V30 743 H 66.6045 -4.66126 -2.03971 0
M  V30 744 H 66.0025 -3.03512 -4.77386 0
M  V30 745 H 64.5595 -3.81532 -5.28466 0
M  V30 746 N 67.9926 0.231505 -1.5589 0
M  V30 747 C 68.9226 1.29022 -1.94617 0
M  V30 748 C 69.9036 1.4941 -0.813067 0
M  V30 749 O 71.0886 1.6176 -1.07459 0
M  V30 750 C 68.2186 2.64199 -2.25424 0
M  V30 751 C 67.1726 2.58484 -3.41131 0
M  V30 752 C 66.4986 3.97599 -3.57518 0
M  V30 753 C 67.7986 2.1413 -4.76388 0
M  V30 754 H 69.4926 0.968563 -2.83301 0
M  V30 755 H 67.0386 0.464479 -1.36303 0
M  V30 756 H 68.9916 3.38413 -2.51107 0
M  V30 757 H 67.7156 2.98032 -1.33583 0
M  V30 758 H 66.3746 1.86727 -3.15481 0
M  V30 759 H 66.0226 4.28723 -2.6307 0
M  V30 760 H 65.7226 3.94659 -4.35337 0
M  V30 761 H 67.2466 4.7349 -3.85538 0
M  V30 762 H 68.6606 2.78083 -5.01341 0
M  V30 763 H 67.0576 2.2227 -5.57419 0
M  V30 764 H 68.1276 1.09331 -4.72414 0
M  V30 765 N 69.4707 1.49531 0.497807 0
M  V30 766 C 70.6987 1.62893 1.27567 0
M  V30 767 C 71.1137 0.301585 1.86376 0
M  V30 768 O 70.4707 -0.713335 1.67982 0
M  V30 769 C 70.5217 2.70013 2.40364 0
M  V30 770 O 70.2427 3.976 1.83972 0
M  V30 771 C 71.7437 2.94109 3.31685 0
M  V30 772 H 68.9637 0.548298 0.386794 0
M  V30 773 H 71.5077 1.95584 0.597245 0
M  V30 774 H 69.6627 2.40092 3.04031 0
M  V30 775 H 70.0767 4.56631 2.58047 0
M  V30 776 H 71.5507 3.72788 4.07104 0
M  V30 777 H 72.0277 2.04147 3.88871 0
M  V30 778 H 72.6337 3.2546 2.73781 0
M  V30 779 N 70.9488 -0.749086 1.3866 0
M  V30 780 C 72.2258 -1.4992 1.25632 0
M  V30 781 C 72.6058 -2.10633 -0.140317 0
M  V30 782 O 71.9538 -1.97437 -1.15025 0
M  V30 783 C 72.1638 -2.56195 2.36992 0
M  V30 784 C 73.5118 -3.22972 2.75634 0
M  V30 785 O 74.5358 -2.66502 2.36337 0
M  V30 786 O 73.3948 -4.25122 3.43415 0
M  V30 787 H 70.4888 -0.665067 0.491544 0
M  V30 788 H 73.0348 -0.784113 1.50498 0
M  V30 789 H 71.8068 -2.09612 3.30422 0
M  V30 790 H 71.4298 -3.35279 2.13714 0
M  V30 791 N 72.4269 -1.23603 -0.977757 0
M  V30 792 C 73.3369 -1.03632 -2.1047 0
M  V30 793 C 74.3529 0.0199435 -1.73989 0
M  V30 794 O 75.5289 -0.176076 -2.00629 0
M  V30 795 C 72.5939 -0.63276 -3.40877 0
M  V30 796 C 71.6549 -1.76437 -3.91367 0
M  V30 797 C 70.8879 -1.37997 -5.15551 0
M  V30 798 O 71.1109 -0.265357 -5.69782 0
M  V30 799 O 70.0449 -2.20201 -5.60174 0
M  V30 800 H 73.8709 -1.98086 -2.30208 0
M  V30 801 H 71.4559 -1.02332 -1.08851 0
M  V30 802 H 73.3379 -0.418761 -4.19314 0
M  V30 803 H 72.0129 0.282754 -3.22463 0
M  V30 804 H 70.9199 -2.03304 -3.14036 0
M  V30 805 H 72.2529 -2.6583 -4.14241 0
M  V30 806 N 73.905 1.17692 -1.04816 0
M  V30 807 C 74.837 2.21103 -0.603822 0
M  V30 808 C 75.85 1.59411 0.33046 0
M  V30 809 O 77.039 1.7807 0.12379 0
M  V30 810 C 74.139 3.38623 0.136898 0
M  V30 811 C 73.312 4.29888 -0.807137 0
M  V30 812 C 72.371 5.26088 -0.10836 0
M  V30 813 O 71.397 5.64353 -0.741232 0
M  V30 814 N 72.599 5.68882 1.15558 0
M  V30 815 H 75.364 2.59848 -1.49329 0
M  V30 816 H 72.925 1.32553 -0.929587 0
M  V30 817 H 74.917 4.00009 0.614401 0
M  V30 818 H 73.487 2.98508 0.927993 0
M  V30 819 H 72.707 3.65993 -1.46434 0
M  V30 820 H 73.995 4.87759 -1.44807 0
M  V30 821 H 73.393 5.39861 1.69015 0
M  V30 822 H 71.95 6.32429 1.57722 0
M  V30 823 N 75.3831 0.828654 1.34056 0
M  V30 824 C 76.6231 0.425394 1.99924 0
M  V30 825 C 76.9871 -0.994294 1.64249 0
M  V30 826 O 78.1881 -1.50074 2.23005 0
M  V30 827 C 76.4591 0.628071 3.51838 0
M  V30 828 S 78.0181 0.318511 4.37642 0
M  V30 829 H 74.8361 0.160465 0.692656 0
M  V30 830 H 77.4381 1.07572 1.63244 0
M  V30 831 H 76.1421 1.66089 3.7529 0
M  V30 832 H 75.6731 -0.0367799 3.93383 0
M  V30 833 H 77.6881 -0.865632 4.88591 0
M  V30 834 N 76.8612 -1.46375 0.584142 0
M  V30 835 C 77.7932 -2.28443 -0.186119 0
M  V30 836 C 78.8062 -1.38596 -0.854115 0
M  V30 837 O 79.9952 -1.63183 -0.723438 0
M  V30 838 C 77.0952 -3.13671 -1.28311 0
M  V30 839 C 76.2682 -4.31652 -0.706758 0
M  V30 840 C 75.3272 -4.98267 -1.69163 0
M  V30 841 O 74.3532 -5.55815 -1.22712 0
M  V30 842 N 75.5552 -4.95408 -3.02575 0
M  V30 843 H 78.3202 -2.9519 0.517986 0
M  V30 844 H 75.8812 -1.56303 0.42201 0
M  V30 845 H 77.8732 -3.55101 -1.94128 0
M  V30 846 H 76.4432 -2.48989 -1.89005 0
M  V30 847 H 75.6632 -3.93989 0.128908 0
M  V30 848 H 76.9512 -5.07906 -0.301506 0
M  V30 849 H 76.3492 -4.49902 -3.42936 0
M  V30 850 H 74.9062 -5.40774 -3.63877 0
M  V30 851 N 78.3393 -0.321999 -1.54275 0
M  V30 852 C 79.2713 0.578671 -2.21775 0
M  V30 853 C 80.2843 1.08109 -1.21722 0
M  V30 854 O 81.4733 0.994938 -1.482 0
M  V30 855 C 78.5733 1.80661 -2.86731 0
M  V30 856 C 77.7463 1.44314 -4.12907 0
M  V30 857 C 76.8053 2.52845 -4.61472 0
M  V30 858 O 75.8313 2.17054 -5.2619 0
M  V30 859 N 77.0333 3.83748 -4.35566 0
M  V30 860 H 79.7983 0.000709447 -2.997 0
M  V30 861 H 77.3593 -0.145132 -1.61248 0
M  V30 862 H 79.3513 2.52655 -3.16145 0
M  V30 863 H 77.9213 2.29245 -2.12521 0
M  V30 864 H 77.1413 0.554906 -3.90275 0
M  V30 865 H 78.4293 1.17598 -4.95023 0
M  V30 866 H 77.8273 4.15625 -3.83761 0
M  V30 867 H 76.3843 4.51977 -4.69638 0
M  V30 868 N 79.8174 1.5752 -0.0501392 0
M  V30 869 C 80.7474 2.14502 0.922566 0
M  V30 870 C 81.7284 1.06642 1.3252 0
M  V30 871 O 82.9134 1.34577 1.4001 0
M  V30 872 C 80.0434 2.68916 2.19776 0
M  V30 873 C 78.9974 3.8175 1.93523 0
M  V30 874 C 78.3234 4.22677 3.27487 0
M  V30 875 C 79.6234 5.06932 1.25765 0
M  V30 876 H 81.3174 2.9603 0.447952 0
M  V30 877 H 78.8634 1.42401 0.214024 0
M  V30 878 H 80.8164 3.07419 2.88222 0
M  V30 879 H 79.5404 1.84578 2.69441 0
M  V30 880 H 78.1994 3.43718 1.27489 0
M  V30 881 H 77.8474 3.35291 3.74952 0
M  V30 882 H 77.5474 4.98725 3.1072 0
M  V30 883 H 79.0714 4.63779 3.97166 0
M  V30 884 H 80.4854 5.42888 1.84244 0
M  V30 885 H 78.8824 5.88116 1.19328 0
M  V30 886 H 79.9524 4.84337 0.233536 0
M  V30 887 N 81.2955 -0.223234 1.56011 0
M  V30 888 C 82.5725 -0.972108 1.69733 0
M  V30 889 C 82.9525 -2.02485 0.59691 0
M  V30 890 O 82.3005 -2.25037 -0.396324 0
M  V30 891 C 82.5105 -1.58407 3.10979 0
M  V30 892 C 83.8585 -2.07696 3.70334 0
M  V30 893 O 84.8825 -1.68304 3.1393 0
M  V30 894 O 83.7415 -2.80096 4.69264 0
M  V30 895 H 80.8355 -0.453993 0.691245 0
M  V30 896 H 83.3815 -0.215149 1.68331 0
M  V30 897 H 82.1535 -0.823831 3.82529 0
M  V30 898 H 81.7765 -2.40661 3.16493 0
M  V30 899 N 82.7736 -1.49793 -0.48987 0
M  V30 900 C 83.7366 -1.66752 -1.57246 0
M  V30 901 C 84.7366 -0.538867 -1.51502 0
M  V30 902 O 85.9266 -0.805545 -1.54456 0
M  V30 903 C 83.0586 -1.67528 -2.96896 0
M  V30 904 H 84.2516 -2.63321 -1.43534 0
M  V30 905 H 81.8046 -1.38992 -0.714914 0
M  V30 906 H 82.5396 -0.725837 -3.16073 0
M  V30 907 H 82.3246 -2.49504 -3.02473 0
M  V30 908 H 83.8146 -1.82667 -3.7553 0
M  V30 909 N 84.2517 0.741722 -1.39055 0
M  V30 910 C 85.1817 1.869 -1.39966 0
M  V30 911 C 86.1627 1.6804 -0.26392 0
M  V30 912 O 87.3477 1.88458 -0.468755 0
M  V30 913 C 84.4777 3.24572 -1.23574 0
M  V30 914 C 83.4317 3.58056 -2.34477 0
M  V30 915 C 82.7577 4.94593 -2.0318 0
M  V30 916 C 84.0577 3.61716 -3.76774 0
M  V30 917 H 85.7517 1.86395 -2.34302 0
M  V30 918 H 83.2977 0.895361 -1.1278 0
M  V30 919 H 85.2507 4.031 -1.22834 0
M  V30 920 H 83.9747 3.25587 -0.257045 0
M  V30 921 H 82.6337 2.81854 -2.34423 0
M  V30 922 H 82.2817 4.92181 -1.03765 0
M  V30 923 H 81.9817 5.17964 -2.77465 0
M  V30 924 H 83.5057 5.75486 -2.04079 0
M  V30 925 H 84.9197 4.30335 -3.78794 0
M  V30 926 H 83.3167 3.96603 -4.50362 0
M  V30 927 H 84.3867 2.61672 -4.08235 0
M  V30 928 N 85.7298 1.2412 0.971189 0
M  V30 929 C 86.6598 1.05508 2.08304 0
M  V30 930 C 87.6408 -0.0308864 1.70072 0
M  V30 931 O 88.8258 0.135521 1.93727 0
M  V30 932 C 85.9558 0.655365 3.4106 0
M  V30 933 C 84.9098 1.68971 3.93234 0
M  V30 934 C 84.2358 1.14516 5.22293 0
M  V30 935 C 85.5358 3.08487 4.21465 0
M  V30 936 H 87.2298 1.98507 2.24132 0
M  V30 937 H 84.7758 0.955821 1.07704 0
M  V30 938 H 86.7288 0.51217 4.18276 0
M  V30 939 H 85.4528 -0.31032 3.25122 0
M  V30 940 H 84.1118 1.82106 3.18171 0
M  V30 941 H 83.7598 0.170189 5.02712 0
M  V30 942 H 83.4598 1.83635 5.58168 0
M  V30 943 H 84.9838 1.01401 6.02121 0
M  V30 944 H 86.3978 2.98601 4.89398 0
M  V30 945 H 84.7948 3.74926 4.68562 0
M  V30 946 H 85.8648 3.56787 3.28376 0
M  V30 947 N 87.2079 -1.17134 1.05439 0
M  V30 948 C 88.4359 -1.91372 0.786414 0
M  V30 949 C 88.8509 -1.76955 -0.658202 0
M  V30 950 O 88.2079 -1.10838 -1.44987 0
M  V30 951 C 88.2589 -3.42356 1.1608 0
M  V30 952 O 87.9799 -3.56332 2.54871 0
M  V30 953 C 89.4809 -4.33663 0.919322 0
M  V30 954 H 86.7009 -0.607118 0.285743 0
M  V30 955 H 89.2449 -1.48525 1.40572 0
M  V30 956 H 87.3999 -3.82939 0.586191 0
M  V30 957 H 87.8139 -4.49896 2.69618 0
M  V30 958 H 89.2879 -5.38099 1.231 0
M  V30 959 H 89.7649 -4.38959 -0.145359 0
M  V30 960 H 90.3709 -3.98796 1.47789 0
M  V30 961 N 88.686 -0.835752 -1.33615 0
M  V30 962 C 90.102 -0.523139 -1.50783 0
M  V30 963 C 90.302 0.950171 -1.77691 0
M  V30 964 O 89.358 1.73411 -1.83534 0
M  V30 965 C 90.671 -1.39378 -2.66448 0
M  V30 966 C 92.219 -1.39223 -2.80332 0
M  V30 967 C 92.694 -2.24765 -3.99055 0
M  V30 968 N 94.185 -2.22458 -4.06284 0
M  V30 969 C 94.92 -2.85386 -4.97336 0
M  V30 970 N 94.416 -3.57354 -5.93523 0
M  V30 971 N 96.209 -2.74872 -4.90308 0
M  V30 972 H 88.36 -1.78952 -1.14411 0
M  V30 973 H 90.623 -0.763297 -0.562212 0
M  V30 974 H 90.329 -2.44061 -2.53234 0
M  V30 975 H 90.203 -1.0676 -3.61776 0
M  V30 976 H 92.59 -0.353136 -2.92979 0
M  V30 977 H 92.671 -1.75846 -1.85773 0
M  V30 978 H 92.315 -3.28732 -3.87167 0
M  V30 979 H 92.245 -1.85485 -4.92852 0
M  V30 980 H 94.736 -1.70119 -3.37443 0
M  V30 981 H 95.049 -4.02584 -6.59656 0
M  V30 982 H 93.394 -3.61461 -5.93608 0
M  V30 983 H 96.585 -2.18213 -4.14126 0
M  V30 984 H 96.758 -3.24199 -5.61069 0
M  V30 985 N 90.1641 1.46063 -0.591896 0
M  V30 986 C 91.5801 1.57561 -0.254288 0
M  V30 987 C 91.7801 1.58565 1.24336 0
M  V30 988 O 90.8361 1.50753 2.02558 0
M  V30 989 C 92.1491 2.86549 -0.911611 0
M  V30 990 C 93.6971 3.00197 -0.886059 0
M  V30 991 C 94.1721 4.31933 -1.5231 0
M  V30 992 N 95.6631 4.38654 -1.48786 0
M  V30 993 C 96.3981 5.39222 -1.95006 0
M  V30 994 N 95.8941 6.46414 -2.49241 0
M  V30 995 N 97.6871 5.3048 -1.85868 0
M  V30 996 H 89.8381 1.43655 -1.56451 0
M  V30 997 H 92.1011 0.68583 -0.654478 0
M  V30 998 H 91.8071 2.91651 -1.96551 0
M  V30 999 H 91.6811 3.74794 -0.425368 0
M  V30 1000 H 94.0681 2.9467 0.159246 0
M  V30 1001 H 94.1491 2.13403 -1.41041 0
M  V30 1002 H 93.7931 4.38217 -2.56765 0
M  V30 1003 H 93.7231 5.17516 -0.973891 0
M  V30 1004 H 96.2141 3.61793 -1.09151 0
M  V30 1005 H 96.5271 7.19376 -2.82344 0
M  V30 1006 H 94.8721 6.47208 -2.53272 0
M  V30 1007 H 98.0631 4.45643 -1.43248 0
M  V30 1008 H 98.2361 6.08711 -2.22204 0
M  V30 1009 N 91.6422 0.330177 1.54103 0
M  V30 1010 C 93.0582 -0.0222371 1.59585 0
M  V30 1011 C 93.2582 -1.49902 1.34654 0
M  V30 1012 O 92.3142 -2.25592 1.13421 0
M  V30 1013 C 93.6272 0.401932 2.98002 0
M  V30 1014 C 95.1752 0.353145 3.11001 0
M  V30 1015 C 95.6502 0.752576 4.51775 0
M  V30 1016 N 97.1412 0.706239 4.57784 0
M  V30 1017 C 97.8762 0.987417 5.64834 0
M  V30 1018 N 97.3722 1.33607 6.79795 0
M  V30 1019 N 99.1652 0.91254 5.54643 0
M  V30 1020 H 91.3162 1.29228 1.68564 0
M  V30 1021 H 93.5792 0.525906 0.78875 0
M  V30 1022 H 93.2852 1.4311 3.21267 0
M  V30 1023 H 93.1592 -0.229699 3.765 0
M  V30 1024 H 95.5462 -0.666822 2.87467 0
M  V30 1025 H 95.6272 1.0198 2.34593 0
M  V30 1026 H 95.2712 1.77049 4.76042 0
M  V30 1027 H 95.2012 0.0635409 5.26562 0
M  V30 1028 H 97.6922 0.44889 3.75224 0
M  V30 1029 H 98.0052 1.53582 7.57385 0
M  V30 1030 H 96.3502 1.37439 6.81275 0
M  V30 1031 H 99.5412 0.639601 4.6371 0
M  V30 1032 H 99.7142 1.13503 6.37982 0
M  V30 1033 N 93.1203 -1.57491 0.0584922 0
M  V30 1034 C 94.3973 -1.84346 -0.653918 0
M  V30 1035 C 94.7773 -0.948355 -1.88599 0
M  V30 1036 O 94.1253 -0.0112403 -2.28497 0
M  V30 1037 C 94.3353 -3.34239 -1.00425 0
M  V30 1038 C 95.6833 -4.01431 -1.38342 0
M  V30 1039 O 96.7073 -3.38907 -1.09637 0
M  V30 1040 O 95.5663 -5.11683 -1.91943 0
M  V30 1041 H 92.6603 -0.761112 -0.323478 0
M  V30 1042 H 95.2063 -1.6947 0.0884125 0
M  V30 1043 H 93.9783 -3.91089 -0.128625 0
M  V30 1044 H 93.6013 -3.54329 -1.80378 0
M  V30 1045 N 94.5984 0.214957 -1.56127 0
M  V30 1046 C 95.8464 0.936518 -1.79091 0
M  V30 1047 C 96.1674 1.84606 -0.628148 0
M  V30 1048 O 95.4374 1.92664 0.35462 0
M  V30 1049 H 94.0174 0.3488 -0.660566 0
M  V30 1050 H 96.6794 0.22523 -1.93594 0
M  V30 1051 H 95.7754 1.53943 -2.71492 0
M  V30 1052 N 96.0765 1.50051 0.48192 0
M  V30 1053 C 96.9865 1.7089 1.60728 0
M  V30 1054 C 98.0025 0.591788 1.63627 0
M  V30 1055 O 99.1785 0.868817 1.81696 0
M  V30 1056 C 96.2435 1.78855 2.97005 0
M  V30 1057 C 95.3045 3.02537 3.04581 0
M  V30 1058 C 94.5375 3.10112 4.34357 0
M  V30 1059 O 94.7605 2.24765 5.24249 0
M  V30 1060 O 93.6945 4.02747 4.47301 0
M  V30 1061 H 97.5205 2.66264 1.46072 0
M  V30 1062 H 95.1055 1.34018 0.660264 0
M  V30 1063 H 96.9875 1.86336 3.77964 0
M  V30 1064 H 95.6625 0.866628 3.11883 0
M  V30 1065 H 94.5695 3.00563 2.22739 0
M  V30 1066 H 95.9025 3.94272 2.94636 0
M  V30 1067 N 97.5546 -0.734337 1.39446 0
M  V30 1068 C 98.9656 -1.31264 1.32766 0
M  V30 1069 C 99.3166 -1.96198 -0.00767497 0
M  V30 1070 O 98.4416 -1.96346 -0.909796 0
M  V30 1071 C 99.0366 -2.38682 2.4045 0
M  V30 1072 C 97.5956 -2.92184 2.37288 0
M  V30 1073 C 96.7426 -1.6576 2.22304 0
M  V30 1074 H 99.6936 -0.531799 1.49525 0
M  V30 1075 H 99.7146 -3.19087 2.07276 0
M  V30 1076 H 99.2266 -1.91392 3.37625 0
M  V30 1077 H 97.3276 -3.43752 1.43754 0
M  V30 1078 H 97.4406 -3.45253 3.3217 0
M  V30 1079 H 95.8046 -1.9012 1.69489 0
M  V30 1080 H 96.5876 -1.20521 3.21449 0
M  V30 1081 N 99.0327 -1.24633 -0.964593 0
M  V30 1082 C 100.282 -1.08188 -1.7023 0
M  V30 1083 C 100.595 0.37873 -1.91898 0
M  V30 1084 O 101.801 0.663427 -2.6327 0
M  V30 1085 C 100.257 -1.88773 -3.06419 0
M  V30 1086 C 99.8647 -3.39263 -2.92582 0
M  V30 1087 C 101.609 -1.80867 -3.84041 0
M  V30 1088 C 99.5157 -4.1218 -4.24101 0
M  V30 1089 H 98.4457 -0.401245 -0.638372 0
M  V30 1090 H 101.097 -1.48742 -1.07462 0
M  V30 1091 H 99.4787 -1.41035 -3.70034 0
M  V30 1092 H 100.653 -3.94603 -2.37961 0
M  V30 1093 H 98.9677 -3.48154 -2.28424 0
M  V30 1094 H 101.565 -2.32646 -4.81435 0
M  V30 1095 H 101.908 -0.774543 -4.09031 0
M  V30 1096 H 102.441 -2.26301 -3.27159 0
M  V30 1097 H 99.1797 -5.15965 -4.04303 0
M  V30 1098 H 98.6997 -3.61626 -4.78526 0
M  V30 1099 H 100.379 -4.19349 -4.92702 0
M  V30 1100 N 100.511 1.16574 -1.06058 0
M  V30 1101 C 101.474 2.19085 -0.673392 0
M  V30 1102 C 102.474 1.5835 0.279648 0
M  V30 1103 O 103.664 1.74088 0.0623488 0
M  V30 1104 C 100.796 3.40899 0.00954234 0
M  V30 1105 H 101.989 2.54853 -1.58081 0
M  V30 1106 H 99.5418 1.30808 -0.855516 0
M  V30 1107 H 100.277 3.10684 0.929826 0
M  V30 1108 H 100.062 3.86233 -0.67573 0
M  V30 1109 H 101.552 4.1675 0.266245 0
M  V30 1110 N 101.989 0.842826 1.3317 0
M  V30 1111 C 102.939 0.250877 2.26616 0
M  V30 1112 C 103.923 -0.596427 1.49437 0
M  V30 1113 O 105.115 -0.447747 1.71243 0
M  V30 1114 C 102.244 -0.569779 3.38539 0
M  V30 1115 C 101.33 0.289254 4.23112 0
M  V30 1116 N 101.721 1.36987 4.86897 0
M  V30 1117 C 100.019 0.0769631 4.45934 0
M  V30 1118 C 100.72 1.89737 5.49886 0
M  V30 1119 N 99.6959 1.19827 5.30229 0
M  V30 1120 H 103.498 1.07718 2.73448 0
M  V30 1121 H 101.012 0.687693 1.47121 0
M  V30 1122 H 103.009 -1.01018 4.04476 0
M  V30 1123 H 101.669 -1.39401 2.93253 0
M  V30 1124 H 102.68 1.75277 4.87338 0
M  V30 1125 H 99.3569 -0.713507 4.11358 0
M  V30 1126 H 100.747 2.80253 6.10662 0
M  V30 1127 N 103.467 -1.45747 0.599634 0
M  V30 1128 C 104.397 -2.33235 -0.111306 0
M  V30 1129 C 105.378 -1.46359 -0.866781 0
M  V30 1130 O 106.563 -1.75146 -0.838904 0
M  V30 1131 C 103.693 -3.28932 -1.11451 0
M  V30 1132 C 102.647 -4.25381 -0.472772 0
M  V30 1133 C 101.973 -5.1071 -1.58365 0
M  V30 1134 C 103.273 -5.18831 0.600948 0
M  V30 1135 H 104.967 -2.92927 0.61919 0
M  V30 1136 H 102.513 -1.40857 0.299215 0
M  V30 1137 H 104.466 -3.89002 -1.62036 0
M  V30 1138 H 103.19 -2.67381 -1.8755 0
M  V30 1139 H 101.849 -3.66598 0.0121472 0
M  V30 1140 H 101.497 -4.45533 -2.33473 0
M  V30 1141 H 101.197 -5.7604 -1.15982 0
M  V30 1142 H 102.721 -5.73647 -2.09194 0
M  V30 1143 H 104.135 -5.73019 0.179491 0
M  V30 1144 H 102.532 -5.92595 0.946076 0
M  V30 1145 H 103.602 -4.6174 1.48068 0
M  V30 1146 N 104.945 -0.338344 -1.53925 0
M  V30 1147 C 106.173 0.261298 -2.05243 0
M  V30 1148 C 106.588 1.44625 -1.21363 0
M  V30 1149 O 105.945 1.80811 -0.247736 0
M  V30 1150 C 105.996 0.681412 -3.5502 0
M  V30 1151 O 105.717 -0.456414 -4.35716 0
M  V30 1152 C 107.218 1.34232 -4.22489 0
M  V30 1153 H 104.438 0.0513685 -0.669031 0
M  V30 1154 H 106.982 -0.488822 -1.98572 0
M  V30 1155 H 105.137 1.38148 -3.61931 0
M  V30 1156 H 105.551 -0.122564 -5.24357 0
M  V30 1157 H 107.025 1.58708 -5.28693 0
M  V30 1158 H 107.502 2.29426 -3.74514 0
M  V30 1159 H 108.108 0.684424 -4.19757 0
M  V30 1160 N 106.423 1.57458 -0.0668435 0
M  V30 1161 C 107.671 1.92919 0.602214 0
M  V30 1162 C 107.992 0.947215 1.70449 0
M  V30 1163 O 107.262 -0.00544117 1.95899 0
M  V30 1164 H 105.842 0.71217 0.22544 0
M  V30 1165 H 108.504 1.94508 -0.123535 0
M  V30 1166 H 107.6 2.94589 1.03073 0
M  V30 1167 N 107.901 -0.206675 1.56239 0
M  V30 1168 C 109.147 -0.930218 1.80208 0
M  V30 1169 C 109.48 -1.83387 0.638981 0
M  V30 1170 O 108.755 -1.91119 -0.361066 0
M  V30 1171 C 109.038 -1.75641 3.1436 0
M  V30 1172 C 108.891 -0.878257 4.41142 0
M  V30 1173 C 110.21 -2.73129 3.45092 0
M  V30 1174 H 107.329 -0.336742 0.655571 0
M  V30 1175 H 109.971 -0.198222 1.88963 0
M  V30 1176 H 108.121 -2.38048 3.07027 0
M  V30 1177 H 109.793 -0.269787 4.6051 0
M  V30 1178 H 108.036 -0.184385 4.33408 0
M  V30 1179 H 108.707 -1.49106 5.3148 0
M  V30 1180 H 111.183 -2.20856 3.52649 0
M  V30 1181 H 110.059 -3.28028 4.40101 0
M  V30 1182 H 110.32 -3.51606 2.68003 0
M  V30 1183 N 109.379 -1.50304 -0.473955 0
M  V30 1184 C 110.795 -1.37667 -0.807466 0
M  V30 1185 C 110.995 -0.430555 -1.96846 0
M  V30 1186 O 110.051 0.127874 -2.52176 0
M  V30 1187 C 111.364 -2.78974 -1.12223 0
M  V30 1188 C 112.912 -2.87868 -1.22885 0
M  V30 1189 C 113.387 -4.30003 -1.57676 0
M  V30 1190 N 114.878 -4.3294 -1.64673 0
M  V30 1191 C 115.613 -5.3991 -1.93091 0
M  V30 1192 N 115.109 -6.57092 -2.1955 0
M  V30 1193 N 116.902 -5.27351 -1.94569 0
M  V30 1194 H 109.053 -2.10394 0.291212 0
M  V30 1195 H 111.316 -0.945575 0.0677609 0
M  V30 1196 H 111.022 -3.50031 -0.342229 0
M  V30 1197 H 110.896 -3.16038 -2.05913 0
M  V30 1198 H 113.283 -2.17032 -1.99953 0
M  V30 1199 H 113.364 -2.54352 -0.271814 0
M  V30 1200 H 113.008 -5.01375 -0.81149 0
M  V30 1201 H 112.938 -4.61004 -2.54525 0
M  V30 1202 H 115.429 -3.48441 -1.46277 0
M  V30 1203 H 115.742 -7.34425 -2.405 0
M  V30 1204 H 114.087 -6.60272 -2.16948 0
M  V30 1205 H 117.278 -4.34801 -1.73394 0
M  V30 1206 H 117.451 -6.10805 -2.16381 0
M  V30 1207 N 110.857 0.726932 -1.39834 0
M  V30 1208 C 111.767 1.87131 -1.41489 0
M  V30 1209 C 112.783 1.71239 -0.308757 0
M  V30 1210 O 113.959 1.93701 -0.551529 0
M  V30 1211 C 111.024 3.22811 -1.26468 0
M  V30 1212 C 110.085 3.51039 -2.47124 0
M  V30 1213 C 109.318 4.80245 -2.3281 0
M  V30 1214 O 109.541 5.54537 -1.33585 0
M  V30 1215 O 108.475 5.08554 -3.21957 0
M  V30 1216 H 112.301 1.8869 -2.3797 0
M  V30 1217 H 109.886 0.875837 -1.21035 0
M  V30 1218 H 111.768 4.03877 -1.20255 0
M  V30 1219 H 110.443 3.22005 -0.330862 0
M  V30 1220 H 109.35 2.70027 -2.58914 0
M  V30 1221 H 110.683 3.56632 -3.39227 0
M  V30 1222 N 112.336 1.25143 0.95797 0
M  V30 1223 C 113.583 1.09692 1.70217 0
M  V30 1224 C 113.911 -0.362654 1.91089 0
M  V30 1225 O 113.166 -1.28386 1.47701 0
M  V30 1226 C 113.465 1.79272 3.09187 0
M  V30 1227 C 113.131 3.29196 3.08125 0
M  V30 1228 C 111.793 3.70096 3.07543 0
M  V30 1229 C 114.145 4.24995 3.0171 0
M  V30 1230 C 111.473 5.05213 2.9829 0
M  V30 1231 C 113.825 5.60132 2.93999 0
M  V30 1232 C 112.489 6.00365 2.9175 0
M  V30 1233 H 111.759 0.401393 0.622868 0
M  V30 1234 H 114.406 1.55372 1.11945 0
M  V30 1235 H 112.711 1.26014 3.70982 0
M  V30 1236 H 114.408 1.64773 3.65583 0
M  V30 1237 H 110.998 2.96651 3.09348 0
M  V30 1238 H 115.182 3.9439 3.01281 0
M  V30 1239 H 110.438 5.35569 2.94916 0
M  V30 1240 H 114.612 6.3406 2.87996 0
M  V30 1241 H 112.239 7.05023 2.84336 0
M  V30 1242 N 113.814 -1.1601 1.06675 0
M  V30 1243 C 115.06 -1.87145 0.796766 0
M  V30 1244 C 115.415 -1.8037 -0.669658 0
M  V30 1245 O 114.708 -1.21116 -1.48463 0
M  V30 1246 C 114.902 -3.35547 1.23057 0
M  V30 1247 C 114.731 -3.56769 2.73762 0
M  V30 1248 C 113.501 -3.72635 3.41279 0
M  V30 1249 C 115.699 -3.55166 3.7197 0
M  V30 1250 N 113.681 -3.81845 4.80695 0
M  V30 1251 C 115.052 -3.70406 4.97191 0
M  V30 1252 C 117.107 -3.384 3.65226 0
M  V30 1253 C 115.81 -3.70615 6.16471 0
M  V30 1254 C 117.836 -3.39904 4.83962 0
M  V30 1255 C 117.198 -3.55667 6.08013 0
M  V30 1256 H 113.297 -0.702267 0.344014 0
M  V30 1257 H 115.881 -1.39165 1.36166 0
M  V30 1258 H 114.052 -3.82159 0.693456 0
M  V30 1259 H 115.784 -3.94363 0.908844 0
M  V30 1260 H 112.539 -3.73121 2.91681 0
M  V30 1261 H 112.963 -3.90209 5.53232 0
M  V30 1262 H 117.605 -3.25138 2.70269 0
M  V30 1263 H 115.323 -3.82658 7.11757 0
M  V30 1264 H 118.909 -3.28169 4.80413 0
M  V30 1265 H 117.789 -3.56755 6.98352 0
M  V30 1266 N 115.292 -0.849877 -1.32721 0
M  V30 1267 C 116.517 -0.463856 -2.02146 0
M  V30 1268 C 116.942 0.930449 -1.63476 0
M  V30 1269 O 116.3 1.61033 -0.832952 0
M  V30 1270 C 116.348 -0.604955 -3.55489 0
M  V30 1271 O 115.452 0.36425 -4.10788 0
M  V30 1272 H 114.793 -0.187046 -0.637111 0
M  V30 1273 H 117.323 -1.14775 -1.69375 0
M  V30 1274 H 117.333 -0.490696 -4.05038 0
M  V30 1275 H 116.008 -1.62174 -3.82978 0
M  V30 1276 H 114.585 0.206628 -3.72327 0
M  V30 1277 N 116.77 1.45427 -0.607355 0
M  V30 1278 C 117.7 2.3329 0.0989352 0
M  V30 1279 C 118.681 1.46816 0.859007 0
M  V30 1280 O 119.866 1.75588 0.829604 0
M  V30 1281 C 116.996 3.29518 1.09705 0
M  V30 1282 C 115.95 4.25626 0.450206 0
M  V30 1283 C 115.276 5.11542 1.55655 0
M  V30 1284 C 116.576 5.18505 -0.628455 0
M  V30 1285 H 118.27 2.92595 -0.634716 0
M  V30 1286 H 115.816 1.40696 -0.306681 0
M  V30 1287 H 117.769 3.89855 1.59971 0
M  V30 1288 H 116.493 2.68372 1.86129 0
M  V30 1289 H 115.152 3.66586 -0.0315886 0
M  V30 1290 H 114.8 4.46765 2.31107 0
M  V30 1291 H 114.5 5.76647 1.12925 0
M  V30 1292 H 116.024 5.74748 2.06148 0
M  V30 1293 H 117.438 5.72916 -0.209877 0
M  V30 1294 H 115.835 5.92085 -0.977489 0
M  V30 1295 H 116.905 4.60948 -1.50514 0
M  V30 1296 N 118.248 0.346503 1.53744 0
M  V30 1297 C 119.659 -0.136779 1.86198 0
M  V30 1298 C 120.01 -1.49749 1.26766 0
M  V30 1299 O 119.135 -2.08417 0.582355 0
M  V30 1300 C 119.73 -0.254966 3.37839 0
M  V30 1301 C 118.289 -0.682482 3.70161 0
M  V30 1302 C 117.436 0.181981 2.76702 0
M  V30 1303 H 120.387 0.565994 1.48264 0
M  V30 1304 H 120.408 -1.08195 3.64793 0
M  V30 1305 H 119.92 0.735526 3.81066 0
M  V30 1306 H 118.021 -1.68189 3.3248 0
M  V30 1307 H 118.134 -0.470326 4.76786 0
M  V30 1308 H 116.498 -0.34615 2.52337 0
M  V30 1309 H 117.281 1.16966 3.2276 0
M  V30 1310 N 119.726 -1.57421 0.075193 0
M  V30 1311 C 120.656 -2.15942 -0.888324 0
M  V30 1312 C 121.637 -1.08737 -1.30806 0
M  V30 1313 O 122.822 -1.36787 -1.37851 0
M  V30 1314 C 119.952 -2.72379 -2.1547 0
M  V30 1315 C 118.906 -3.8478 -1.87425 0
M  V30 1316 C 118.232 -4.27834 -3.20721 0
M  V30 1317 C 119.532 -5.08869 -1.17684 0
M  V30 1318 H 121.226 -2.96705 -0.400799 0
M  V30 1319 H 118.772 -1.42723 -0.191342 0
M  V30 1320 H 120.725 -3.11965 -2.83295 0
M  V30 1321 H 119.449 -1.88841 -2.6647 0
M  V30 1322 H 118.108 -3.45703 -1.22004 0
M  V30 1323 H 117.756 -3.41214 -3.6957 0
M  V30 1324 H 117.456 -5.03605 -3.02746 0
M  V30 1325 H 118.98 -4.70039 -3.89738 0
M  V30 1326 H 120.394 -5.4575 -1.75584 0
M  V30 1327 H 118.791 -5.8994 -1.09956 0
M  V30 1328 H 119.861 -4.84648 -0.156453 0
M  V30 1329 N 121.204 0.198386 -1.56346 0
M  V30 1330 C 122.451 0.919286 -1.80431 0
M  V30 1331 C 122.779 1.83393 -0.647866 0
M  V30 1332 O 122.034 1.92236 0.366556 0
M  V30 1333 C 122.333 1.77031 -3.10475 0
M  V30 1334 C 121.999 1.00693 -4.39513 0
M  V30 1335 C 120.661 0.796145 -4.74568 0
M  V30 1336 C 123.013 0.469559 -5.19081 0
M  V30 1337 C 120.341 0.0364588 -5.86689 0
M  V30 1338 C 122.693 -0.2769 -6.31994 0
M  V30 1339 C 121.357 -0.49873 -6.65634 0
M  V30 1340 H 120.627 0.336391 -0.660244 0
M  V30 1341 H 123.274 0.185872 -1.90596 0
M  V30 1342 H 121.579 2.5723 -2.95533 0
M  V30 1343 H 123.276 2.33065 -3.26315 0
M  V30 1344 H 119.866 1.18122 -4.12001 0
M  V30 1345 H 124.05 0.619816 -4.92414 0
M  V30 1346 H 119.306 -0.145412 -6.11227 0
M  V30 1347 H 123.48 -0.700684 -6.92866 0
M  V30 1348 H 121.107 -1.0893 -7.52355 0
M  V30 1349 N 122.682 1.50554 0.465978 0
M  V30 1350 C 123.928 1.62038 1.21949 0
M  V30 1351 C 124.261 0.322116 1.9151 0
M  V30 1352 O 123.536 -0.676723 1.82348 0
M  V30 1353 C 123.819 2.80421 2.25912 0
M  V30 1354 C 123.672 4.20144 1.60622 0
M  V30 1355 C 124.991 2.94354 3.27176 0
M  V30 1356 H 122.11 0.589752 0.441998 0
M  V30 1357 H 124.752 1.82956 0.51257 0
M  V30 1358 H 122.902 2.62717 2.86203 0
M  V30 1359 H 124.574 4.49449 1.03889 0
M  V30 1360 H 122.817 4.24165 0.909211 0
M  V30 1361 H 123.488 4.98914 2.36196 0
M  V30 1362 H 125.964 3.10578 2.76913 0
M  V30 1363 H 124.84 3.788 3.97242 0
M  V30 1364 H 125.101 2.05186 3.916 0
M  V30 1365 N 124.16 -0.719506 1.40217 0
M  V30 1366 C 125.385 -1.51371 1.4178 0
M  V30 1367 C 125.81 -1.88091 0.0182355 0
M  V30 1368 O 125.168 -1.52997 -0.972707 0
M  V30 1369 C 125.216 -2.768 2.31115 0
M  V30 1370 O 124.32 -3.73349 1.7517 0
M  V30 1371 H 123.661 -0.456529 0.482159 0
M  V30 1372 H 126.191 -0.88644 1.844 0
M  V30 1373 H 126.201 -3.25371 2.46167 0
M  V30 1374 H 124.876 -2.49407 3.3282 0
M  V30 1375 H 123.453 -3.32179 1.69444 0
M  V30 1376 N 125.638 -1.25649 -0.95132 0
M  V30 1377 C 127.049 -1.09654 -1.51106 0
M  V30 1378 C 127.4 0.326615 -1.93462 0
M  V30 1379 O 126.525 1.21697 -1.78938 0
M  V30 1380 C 127.12 -1.98437 -2.74605 0
M  V30 1381 C 125.679 -1.86618 -3.2688 0
M  V30 1382 C 124.826 -1.9239 -1.99703 0
M  V30 1383 H 127.777 -1.38887 -0.767865 0
M  V30 1384 H 127.798 -1.5263 -3.48546 0
M  V30 1385 H 127.31 -3.02009 -2.43746 0
M  V30 1386 H 125.411 -0.859421 -3.62553 0
M  V30 1387 H 125.524 -2.71607 -3.94673 0
M  V30 1388 H 123.888 -1.36317 -2.15151 0
M  V30 1389 H 124.671 -2.97573 -1.71188 0
M  V30 1390 N 127.117 1.15442 -1.07289 0
M  V30 1391 C 128.08 2.18358 -0.696591 0
M  V30 1392 C 129.08 1.58637 0.262837 0
M  V30 1393 O 130.27 1.74145 0.0438809 0
M  V30 1394 C 127.402 3.4089 -0.0266151 0
M  V30 1395 H 128.595 2.53162 -1.60776 0
M  V30 1396 H 126.148 1.29893 -0.869342 0
M  V30 1397 H 126.883 3.11653 0.896822 0
M  V30 1398 H 126.668 3.85495 -0.716657 0
M  V30 1399 H 128.158 4.17009 0.222028 0
M  V30 1400 N 128.595 0.856903 1.32268 0
M  V30 1401 C 129.823 0.475439 2.01363 0
M  V30 1402 C 130.238 -0.928486 1.64392 0
M  V30 1403 O 129.595 -1.60624 0.866387 0
M  V30 1404 C 129.646 0.607545 3.56358 0
M  V30 1405 O 129.367 1.95617 3.92002 0
M  V30 1406 C 130.868 0.225382 4.42727 0
M  V30 1407 H 128.088 0.186636 0.644521 0
M  V30 1408 H 130.632 1.15446 1.68797 0
M  V30 1409 H 128.787 -0.0237719 3.87393 0
M  V30 1410 H 129.201 1.95455 4.86721 0
M  V30 1411 H 130.675 0.368813 5.50767 0
M  V30 1412 H 131.152 -0.834369 4.31202 0
M  V30 1413 H 131.758 0.831864 4.17085 0
M  V30 1414 N 130.073 -1.45103 0.615059 0
M  V30 1415 C 131.003 -2.33339 -0.0865619 0
M  V30 1416 C 131.984 -1.4727 -0.851209 0
M  V30 1417 O 133.169 -1.76026 -0.820281 0
M  V30 1418 C 130.299 -3.30095 -1.07956 0
M  V30 1419 C 129.253 -4.25858 -0.427628 0
M  V30 1420 C 128.579 -5.12361 -1.5294 0
M  V30 1421 C 129.879 -5.18165 0.655944 0
M  V30 1422 H 131.573 -2.92254 0.650224 0
M  V30 1423 H 129.119 -1.40532 0.314138 0
M  V30 1424 H 131.072 -3.90698 -1.57901 0
M  V30 1425 H 129.796 -2.69355 -1.84703 0
M  V30 1426 H 128.455 -3.66564 0.0510292 0
M  V30 1427 H 128.103 -4.47984 -2.28734 0
M  V30 1428 H 127.803 -5.77238 -1.09865 0
M  V30 1429 H 129.327 -5.75833 -2.03098 0
M  V30 1430 H 130.741 -5.72796 0.240257 0
M  V30 1431 H 129.138 -5.91559 1.00888 0
M  V30 1432 H 130.208 -4.60144 1.52957 0
M  V30 1433 N 131.551 -0.354651 -1.53558 0
M  V30 1434 C 132.8 0.239504 -2.00273 0
M  V30 1435 C 133.113 1.50759 -1.24623 0
M  V30 1436 O 134.319 2.17968 -1.61871 0
M  V30 1437 C 132.775 0.477341 -3.5672 0
M  V30 1438 C 132.383 -0.775488 -4.41237 0
M  V30 1439 C 134.127 1.02975 -4.11821 0
M  V30 1440 C 132.034 -0.507838 -5.89216 0
M  V30 1441 H 130.964 0.0932743 -0.748208 0
M  V30 1442 H 133.615 -0.471701 -1.77334 0
M  V30 1443 H 131.997 1.24953 -3.7577 0
M  V30 1444 H 133.171 -1.54963 -4.33962 0
M  V30 1445 H 131.486 -1.25033 -3.97185 0
M  V30 1446 H 134.083 1.24513 -5.2 0
M  V30 1447 H 134.426 1.98862 -3.65731 0
M  V30 1448 H 134.959 0.317994 -3.96527 0
M  V30 1449 H 131.698 -1.43674 -6.39561 0
M  V30 1450 H 131.218 0.228011 -5.99366 0
M  V30 1451 H 132.897 -0.129238 -6.46871 0
M  V30 1452 N 133.029 1.57378 -0.0835403 0
M  V30 1453 C 134.44 1.81261 0.447358 0
M  V30 1454 C 134.791 0.998331 1.68902 0
M  V30 1455 O 133.916 0.224282 2.15235 0
M  V30 1456 C 134.511 3.28767 0.818386 0
M  V30 1457 C 133.07 3.53455 1.29409 0
M  V30 1458 C 132.217 2.75831 0.285024 0
M  V30 1459 H 135.168 1.5566 -0.309115 0
M  V30 1460 H 135.189 3.41459 1.67887 0
M  V30 1461 H 134.701 3.88006 -0.0855019 0
M  V30 1462 H 132.802 2.99534 2.21608 0
M  V30 1463 H 132.915 4.62128 1.2639 0
M  V30 1464 H 131.279 2.42947 0.764767 0
M  V30 1465 H 132.062 3.37813 -0.611341 0
M  V30 1466 N 134.507 -0.190092 1.56449 0
M  V30 1467 C 135.923 -0.54113 1.50146 0
M  V30 1468 C 136.123 -1.85603 0.784465 0
M  V30 1469 O 135.179 -2.5024 0.337051 0
M  V30 1470 C 136.492 -0.591241 2.9483 0
M  V30 1471 C 138.04 -0.679732 3.0553 0
M  V30 1472 C 138.515 -0.760908 4.51635 0
M  V30 1473 N 140.006 -0.824302 4.55806 0
M  V30 1474 C 140.741 -0.907365 5.66175 0
M  V30 1475 N 140.237 -0.952422 6.86222 0
M  V30 1476 N 142.03 -0.94494 5.541 0
M  V30 1477 H 134.181 0.67235 2.01478 0
M  V30 1478 H 136.444 0.240127 0.917084 0
M  V30 1479 H 136.15 0.305905 3.50367 0
M  V30 1480 H 136.024 -1.44422 3.48457 0
M  V30 1481 H 138.411 -1.56731 2.50039 0
M  V30 1482 H 138.492 0.199549 2.5502 0
M  V30 1483 H 138.136 0.122336 5.07753 0
M  V30 1484 H 138.066 -1.65606 4.99882 0
M  V30 1485 H 140.557 -0.798526 3.69367 0
M  V30 1486 H 140.87 -1.01645 7.66086 0
M  V30 1487 H 139.215 -0.921014 6.8887 0
M  V30 1488 H 142.406 -0.906612 4.59236 0
M  V30 1489 H 142.579 -1.00622 6.4014 0
M  V30 1490 N 135.985 -1.50799 -0.457987 0
M  V30 1491 C 137.396 -1.55152 -1.0385 0
M  V30 1492 C 137.747 -0.362719 -1.92818 0
M  V30 1493 O 136.872 0.522915 -2.09987 0
M  V30 1494 C 137.467 -2.81173 -1.89017 0
M  V30 1495 C 136.026 -2.88164 -2.42154 0
M  V30 1496 C 135.173 -2.49591 -1.20829 0
M  V30 1497 H 138.124 -1.56874 -0.240068 0
M  V30 1498 H 138.145 -2.63769 -2.74238 0
M  V30 1499 H 137.657 -3.67677 -1.24238 0
M  V30 1500 H 135.758 -2.06042 -3.10447 0
M  V30 1501 H 135.871 -3.91356 -2.76364 0
M  V30 1502 H 134.235 -2.02322 -1.54719 0
M  V30 1503 H 135.018 -3.38418 -0.576927 0
M  V30 1504 N 137.463 0.71206 -1.40597 0
M  V30 1505 C 138.74 1.46536 -1.29563 0
M  V30 1506 C 139.12 2.10931 0.0844217 0
M  V30 1507 O 138.468 2.00418 1.0975 0
M  V30 1508 C 138.678 2.49821 -2.43701 0
M  V30 1509 C 140.026 3.15551 -2.841 0
M  V30 1510 O 141.05 2.60142 -2.4332 0
M  V30 1511 O 139.909 4.15867 -3.54566 0
M  V30 1512 H 137.003 0.651801 -0.509004 0
M  V30 1513 H 139.549 0.743935 -1.52524 0
M  V30 1514 H 138.321 2.00778 -3.35863 0
M  V30 1515 H 137.944 3.29495 -2.22528 0
M  V30 1516 N 138.941 1.26152 0.944643 0
M  V30 1517 C 140.169 1.14259 1.72489 0
M  V30 1518 C 140.584 -0.302555 1.8636 0
M  V30 1519 O 139.941 -1.20741 1.36849 0
M  V30 1520 C 139.992 1.80266 3.13347 0
M  V30 1521 O 139.713 3.19133 3.00143 0
M  V30 1522 C 141.214 1.74283 4.07603 0
M  V30 1523 H 138.434 0.398051 0.540181 0
M  V30 1524 H 140.978 1.66706 1.18446 0
M  V30 1525 H 139.133 1.31766 3.64303 0
M  V30 1526 H 139.547 3.51744 3.89071 0
M  V30 1527 H 141.021 2.25111 5.04013 0
M  V30 1528 H 141.498 0.708631 4.33446 0
M  V30 1529 H 142.104 2.22319 3.62567 0
M  V30 1530 N 140.419 -1.14872 1.07899 0
M  V30 1531 C 141.329 -2.2341 0.715915 0
M  V30 1532 C 142.345 -1.71808 -0.275306 0
M  V30 1533 O 143.521 -2.01039 -0.120545 0
M  V30 1534 C 140.586 -3.46474 0.125168 0
M  V30 1535 C 139.647 -4.13039 1.17034 0
M  V30 1536 C 138.88 -5.30229 0.607688 0
M  V30 1537 O 139.103 -5.675 -0.574497 0
M  V30 1538 O 138.037 -5.86444 1.35526 0
M  V30 1539 H 141.863 -2.56808 1.62121 0
M  V30 1540 H 139.448 -1.22702 0.852322 0
M  V30 1541 H 141.33 -4.20917 -0.201729 0
M  V30 1542 H 140.005 -3.14811 -0.753364 0
M  V30 1543 H 138.912 -3.40493 1.54968 0
M  V30 1544 H 140.245 -4.48796 2.02097 0
M  V30 1545 N 141.898 -0.863906 -1.31812 0
M  V30 1546 C 143.138 -0.47825 -1.98726 0
M  V30 1547 C 143.502 0.950397 -1.66828 0
M  V30 1548 O 144.703 1.44109 -2.26905 0
M  V30 1549 C 142.974 -0.721134 -3.50049 0
M  V30 1550 S 144.533 -0.434432 -4.36644 0
M  V30 1551 H 141.351 -0.178773 -0.688158 0
M  V30 1552 H 143.953 -1.11862 -1.60334 0
M  V30 1553 H 142.657 -1.75981 -3.70755 0
M  V30 1554 H 142.188 -0.0675315 -3.93342 0
M  V30 1555 H 144.203 0.735786 -4.90714 0
M  V30 1556 N 143.376 1.44774 -0.622745 0
M  V30 1557 C 144.306 2.33382 0.0741861 0
M  V30 1558 C 145.287 1.47719 0.843387 0
M  V30 1559 O 146.472 1.76458 0.810934 0
M  V30 1560 C 143.602 3.30663 1.06204 0
M  V30 1561 C 142.556 4.26079 0.405037 0
M  V30 1562 C 141.882 5.13165 1.5022 0
M  V30 1563 C 143.182 5.1781 -0.683414 0
M  V30 1564 H 144.876 2.91905 -0.665713 0
M  V30 1565 H 142.422 1.40363 -0.321587 0
M  V30 1566 H 144.375 3.9153 1.55827 0
M  V30 1567 H 143.099 2.70331 1.83272 0
M  V30 1568 H 141.758 3.66532 -0.0704683 0
M  V30 1569 H 141.406 4.49191 2.26355 0
M  V30 1570 H 141.106 5.77812 1.06803 0
M  V30 1571 H 142.63 5.76902 2.00041 0
M  V30 1572 H 144.044 5.72661 -0.270631 0
M  V30 1573 H 142.441 5.91015 -1.04023 0
M  V30 1574 H 143.511 4.59326 -1.55395 0
M  V30 1575 N 144.854 0.36279 1.53368 0
M  V30 1576 C 146.1 -0.228113 2.01513 0
M  V30 1577 C 146.433 -1.48648 1.2497 0
M  V30 1578 O 145.708 -1.91459 0.342616 0
M  V30 1579 C 145.991 -0.522884 3.56284 0
M  V30 1580 C 145.844 0.74892 4.43521 0
M  V30 1581 C 147.163 -1.32461 4.19693 0
M  V30 1582 H 144.282 -0.0814343 0.732487 0
M  V30 1583 H 146.924 0.48713 1.83649 0
M  V30 1584 H 145.074 -1.1322 3.71636 0
M  V30 1585 H 146.746 1.38648 4.39971 0
M  V30 1586 H 144.989 1.36986 4.11603 0
M  V30 1587 H 145.66 0.497667 5.49752 0
M  V30 1588 H 148.136 -0.809203 4.08156 0
M  V30 1589 H 147.012 -1.49961 5.28018 0
M  V30 1590 H 147.273 -2.33232 3.75573 0
M  V30 1591 N 146.332 -1.57332 0.0918853 0
M  V30 1592 C 147.242 -2.17368 -0.882505 0
M  V30 1593 C 148.258 -1.14226 -1.31257 0
M  V30 1594 O 149.434 -1.46582 -1.38115 0
M  V30 1595 C 146.499 -2.73962 -2.12476 0
M  V30 1596 C 145.56 -3.92048 -1.7492 0
M  V30 1597 C 144.793 -4.45933 -2.93223 0
M  V30 1598 O 145.016 -3.98764 -4.07852 0
M  V30 1599 O 143.95 -5.36999 -2.71875 0
M  V30 1600 H 147.776 -3.01031 -0.40172 0
M  V30 1601 H 145.361 -1.48813 -0.132291 0
M  V30 1602 H 147.243 -3.10147 -2.85283 0
M  V30 1603 H 145.918 -1.93347 -2.59613 0
M  V30 1604 H 144.825 -3.6068 -0.993025 0
M  V30 1605 H 146.158 -4.74017 -1.32548 0
M  V30 1606 N 147.81 0.181792 -1.56548 0
M  V30 1607 C 148.742 1.24956 -1.92142 0
M  V30 1608 C 149.755 1.41022 -0.813422 0
M  V30 1609 O 150.944 1.41212 -1.09186 0
M  V30 1610 C 148.044 2.61981 -2.14987 0
M  V30 1611 C 147.217 2.6735 -3.46183 0
M  V30 1612 C 146.276 3.85664 -3.5798 0
M  V30 1613 O 145.302 3.72148 -4.30691 0
M  V30 1614 N 146.504 5.01683 -2.92053 0
M  V30 1615 H 149.269 0.947329 -2.84334 0
M  V30 1616 H 146.83 0.371629 -1.57577 0
M  V30 1617 H 148.822 3.3958 -2.20154 0
M  V30 1618 H 147.392 2.84637 -1.2923 0
M  V30 1619 H 146.612 1.75925 -3.52766 0
M  V30 1620 H 147.9 2.67939 -4.32534 0
M  V30 1621 H 147.298 5.15564 -2.32832 0
M  V30 1622 H 145.855 5.77181 -3.0283 0
M  V30 1623 N 149.288 1.51039 0.449983 0
M  V30 1624 C 150.251 1.70863 1.5277 0
M  V30 1625 C 151.251 0.578846 1.5002 0
M  V30 1626 O 152.441 0.846213 1.52266 0
M  V30 1627 C 149.573 1.75341 2.9235 0
M  V30 1628 H 150.766 2.67034 1.36502 0
M  V30 1629 H 148.319 1.40838 0.677812 0
M  V30 1630 H 149.054 0.809383 3.14037 0
M  V30 1631 H 148.839 2.57436 2.95752 0
M  V30 1632 H 150.329 1.92559 3.70555 0
M  V30 1633 N 150.766 -0.704594 1.40972 0
M  V30 1634 C 151.696 -1.83124 1.44872 0
M  V30 1635 C 152.677 -1.67281 0.30838 0
M  V30 1636 O 153.862 -1.87149 0.518556 0
M  V30 1637 C 150.992 -3.21181 1.32136 0
M  V30 1638 C 149.946 -3.51714 2.43888 0
M  V30 1639 C 149.272 -4.89032 2.16222 0
M  V30 1640 C 150.572 -3.516 3.86232 0
M  V30 1641 H 152.266 -1.80117 2.39161 0
M  V30 1642 H 149.812 -0.865145 1.15114 0
M  V30 1643 H 151.765 -3.99702 1.33479 0
M  V30 1644 H 150.489 -3.24791 0.343279 0
M  V30 1645 H 149.148 -2.75539 2.41813 0
M  V30 1646 H 148.796 -4.89256 1.16778 0
M  V30 1647 H 148.496 -5.10426 2.911 0
M  V30 1648 H 150.02 -5.69873 2.19265 0
M  V30 1649 H 151.434 -4.2014 3.9007 0
M  V30 1650 H 149.831 -3.84523 4.60719 0
M  V30 1651 H 150.901 -2.50757 4.15029 0
M  V30 1652 N 152.244 -1.26651 -0.937939 0
M  V30 1653 C 153.207 -1.08546 -2.01867 0
M  V30 1654 C 154.207 -0.0327327 -1.60767 0
M  V30 1655 O 155.397 -0.276427 -1.71993 0
M  V30 1656 C 152.529 -0.651711 -3.34613 0
M  V30 1657 H 153.722 -2.04502 -2.1936 0
M  V30 1658 H 151.275 -1.09294 -1.11734 0
M  V30 1659 H 152.01 0.309696 -3.22818 0
M  V30 1660 H 151.795 -1.41189 -3.65798 0
M  V30 1661 H 153.285 -0.546973 -4.14002 0
M  V30 1662 N 153.722 1.14298 -1.08507 0
M  V30 1663 C 155.138 1.37347 -0.812901 0
M  V30 1664 C 155.338 1.93052 0.577325 0
M  V30 1665 O 154.394 2.14389 1.33393 0
M  V30 1666 C 155.707 2.33359 -1.89642 0
M  V30 1667 C 157.255 2.46996 -1.92255 0
M  V30 1668 C 157.73 3.46309 -2.99724 0
M  V30 1669 N 159.221 3.53853 -2.98902 0
M  V30 1670 C 159.956 4.3055 -3.787 0
M  V30 1671 N 159.452 5.10482 -4.6838 0
M  V30 1672 N 161.245 4.25757 -3.66998 0
M  V30 1673 H 153.396 0.764867 -1.9815 0
M  V30 1674 H 155.659 0.398966 -0.859959 0
M  V30 1675 H 155.365 1.99565 -2.89597 0
M  V30 1676 H 155.239 3.33274 -1.76659 0
M  V30 1677 H 157.626 2.80081 -0.929445 0
M  V30 1678 H 157.707 1.47039 -2.09316 0
M  V30 1679 H 157.351 3.13957 -3.99241 0
M  V30 1680 H 157.281 4.46049 -2.79907 0
M  V30 1681 H 159.772 2.96812 -2.33904 0
M  V30 1682 H 160.085 5.66284 -5.25873 0
M  V30 1683 H 158.43 5.09747 -4.72422 0
M  V30 1684 H 161.621 3.62383 -2.96304 0
M  V30 1685 H 161.794 4.85279 -4.29427 0
M  V30 1686 N 155.201 0.870884 1.31352 0
M  V30 1687 C 156.131 0.343096 2.30966 0
M  V30 1688 C 157.112 -0.566507 1.60389 0
M  V30 1689 O 158.297 -0.483336 1.88089 0
M  V30 1690 C 155.427 -0.455487 3.443 0
M  V30 1691 C 154.381 0.361103 4.26474 0
M  V30 1692 C 153.707 -0.563221 5.31725 0
M  V30 1693 C 155.007 1.59566 4.97329 0
M  V30 1694 H 156.701 1.17548 2.75359 0
M  V30 1695 H 154.247 0.566686 1.32381 0
M  V30 1696 H 156.2 -0.83525 4.13039 0
M  V30 1697 H 154.924 -1.32139 2.98675 0
M  V30 1698 H 153.583 0.722825 3.59403 0
M  V30 1699 H 153.231 -1.42643 4.82351 0
M  V30 1700 H 152.931 -0.0207409 5.87596 0
M  V30 1701 H 154.455 -0.939808 6.03324 0
M  V30 1702 H 155.869 1.28728 5.58661 0
M  V30 1703 H 154.266 2.07728 5.63 0
M  V30 1704 H 155.336 2.34798 4.24262 0
M  V30 1705 N 156.679 -1.44442 0.630414 0
M  V30 1706 C 158.09 -1.85434 0.217063 0
M  V30 1707 C 158.441 -1.52748 -1.23136 0
M  V30 1708 O 157.566 -0.965205 -1.93682 0
M  V30 1709 C 158.161 -3.36581 0.387168 0
M  V30 1710 C 156.72 -3.76389 0.0283297 0
M  V30 1711 C 155.867 -2.68296 0.700889 0
M  V30 1712 H 158.818 -1.34919 0.83562 0
M  V30 1713 H 158.839 -3.78657 -0.374086 0
M  V30 1714 H 158.351 -3.60339 1.44144 0
M  V30 1715 H 156.452 -3.58246 -1.02423 0
M  V30 1716 H 156.565 -4.77095 0.437892 0
M  V30 1717 H 154.929 -2.54335 0.136267 0
M  V30 1718 H 155.712 -2.94887 1.75774 0
M  V30 1719 N 158.157 -0.370918 -1.53173 0
M  V30 1720 C 159.067 0.480823 -2.2962 0
M  V30 1721 C 160.083 1.08789 -1.35798 0
M  V30 1722 O 161.259 1.09768 -1.68858 0
M  V30 1723 C 158.324 1.60227 -3.07454 0
M  V30 1724 C 157.385 1.0222 -4.16953 0
M  V30 1725 C 156.618 2.0902 -4.91066 0
M  V30 1726 O 156.841 3.30222 -4.65091 0
M  V30 1727 O 155.775 1.71778 -5.76867 0
M  V30 1728 H 159.601 -0.141421 -3.03371 0
M  V30 1729 H 157.186 -0.135146 -1.48787 0
M  V30 1730 H 159.068 2.25417 -3.56041 0
M  V30 1731 H 157.743 2.20982 -2.36535 0
M  V30 1732 H 156.65 0.334064 -3.72605 0
M  V30 1733 H 157.983 0.459131 -4.90054 0
M  V30 1734 N 159.635 1.57281 -0.100228 0
M  V30 1735 C 160.567 2.11342 0.886972 0
M  V30 1736 C 161.58 1.05182 1.24261 0
M  V30 1737 O 162.769 1.32613 1.19483 0
M  V30 1738 C 159.869 2.5825 2.19454 0
M  V30 1739 C 159.042 3.88302 2.01346 0
M  V30 1740 C 158.101 4.21004 3.15661 0
M  V30 1741 O 157.127 4.9014 2.89398 0
M  V30 1742 N 158.329 3.76818 4.41575 0
M  V30 1743 H 161.094 2.96668 0.425216 0
M  V30 1744 H 158.655 1.61678 0.0847334 0
M  V30 1745 H 160.647 2.7717 2.94888 0
M  V30 1746 H 159.217 1.77907 2.57037 0
M  V30 1747 H 158.437 3.7848 1.10212 0
M  V30 1748 H 159.725 4.73375 1.8653 0
M  V30 1749 H 159.123 3.2102 4.65792 0
M  V30 1750 H 157.68 4.00882 5.13942 0
M  V30 1751 N 161.113 -0.173488 1.56642 0
M  V30 1752 C 162.524 -0.736155 1.71574 0
M  V30 1753 C 162.875 -1.82888 0.710389 0
M  V30 1754 O 162 -2.16017 -0.1287 0
M  V30 1755 C 162.595 -1.34211 3.11083 0
M  V30 1756 C 161.154 -1.85162 3.27707 0
M  V30 1757 C 160.301 -0.729765 2.67525 0
M  V30 1758 H 163.252 0.0518786 1.58615 0
M  V30 1759 H 163.273 -2.21178 3.09613 0
M  V30 1760 H 162.785 -0.546579 3.84232 0
M  V30 1761 H 160.886 -2.67366 2.59512 0
M  V30 1762 H 160.999 -1.99855 4.35425 0
M  V30 1763 H 159.363 -1.14965 2.27278 0
M  V30 1764 H 160.146 0.0538806 3.43258 0
M  V30 1765 N 162.591 -1.51276 -0.441967 0
M  V30 1766 C 163.831 -1.65372 -1.20132 0
M  V30 1767 C 164.195 -0.359871 -1.88597 0
M  V30 1768 O 165.396 -0.376551 -2.66149 0
M  V30 1769 C 163.667 -2.8207 -2.1948 0
M  V30 1770 S 165.226 -3.16467 -3.03964 0
M  V30 1771 H 162.044 -0.582669 -0.407453 0
M  V30 1772 H 164.646 -1.89166 -0.493609 0
M  V30 1773 H 163.35 -3.74523 -1.67812 0
M  V30 1774 H 162.881 -2.6045 -2.94838 0
M  V30 1775 H 164.896 -2.62543 -4.21053 0
M  V30 1776 N 164.069 0.697108 -1.41344 0
M  V30 1777 C 165.485 1.00751 -1.2378 0
M  V30 1778 C 165.685 2.01105 -0.126066 0
M  V30 1779 O 164.741 2.47295 0.51004 0
M  V30 1780 C 166.054 1.53359 -2.58653 0
M  V30 1781 C 167.602 1.6525 -2.65822 0
M  V30 1782 C 168.077 2.2126 -4.01009 0
M  V30 1783 N 169.568 2.28622 -4.02847 0
M  V30 1784 C 170.303 2.72984 -5.04249 0
M  V30 1785 N 169.799 3.16962 -6.16041 0
M  V30 1786 N 171.592 2.72534 -4.91611 0
M  V30 1787 H 163.743 0.0322662 -2.12375 0
M  V30 1788 H 166.006 0.0768853 -0.944877 0
M  V30 1789 H 165.712 0.870773 -3.4075 0
M  V30 1790 H 165.586 2.51597 -2.81032 0
M  V30 1791 H 167.973 2.30644 -1.84086 0
M  V30 1792 H 168.054 0.655614 -2.47256 0
M  V30 1793 H 167.698 1.56482 -4.83193 0
M  V30 1794 H 167.628 3.21698 -4.16915 0
M  V30 1795 H 170.119 1.97585 -3.22131 0
M  V30 1796 H 170.432 3.49434 -6.89287 0
M  V30 1797 H 168.777 3.14875 -6.1958 0
M  V30 1798 H 171.968 2.37525 -4.0336 0
M  V30 1799 H 172.141 3.06789 -5.70775 0
M  V30 1800 N 165.547 1.27147 0.931209 0
M  V30 1801 C 166.796 1.12664 1.67302 0
M  V30 1802 C 167.109 -0.327718 1.92835 0
M  V30 1803 O 168.315 -0.593392 2.64936 0
M  V30 1804 C 166.771 1.9683 3.01307 0
M  V30 1805 C 166.379 3.46901 2.83485 0
M  V30 1806 C 168.123 1.90985 3.79111 0
M  V30 1807 C 166.03 4.23279 4.13024 0
M  V30 1808 H 164.96 0.41803 0.627509 0
M  V30 1809 H 167.611 1.51539 1.03481 0
M  V30 1810 H 165.993 1.50797 3.66164 0
M  V30 1811 H 167.167 4.00773 2.27415 0
M  V30 1812 H 165.482 3.54088 2.19113 0
M  V30 1813 H 168.079 2.45328 4.75098 0
M  V30 1814 H 168.422 0.882718 4.06834 0
M  V30 1815 H 168.955 2.34895 3.21044 0
M  V30 1816 H 165.694 5.26503 3.90481 0
M  V30 1817 H 165.214 3.74186 4.6877 0
M  V30 1818 H 166.893 4.32265 4.81411 0
M  V30 1819 N 167.025 -1.13721 1.09112 0
M  V30 1820 C 167.955 -2.21148 0.749385 0
M  V30 1821 C 168.936 -1.6792 -0.271475 0
M  V30 1822 O 170.121 -1.93693 -0.140251 0
M  V30 1823 C 167.251 -3.46905 0.165659 0
M  V30 1824 C 166.205 -4.13203 1.11567 0
M  V30 1825 C 165.531 -5.33248 0.393809 0
M  V30 1826 C 166.831 -4.60912 2.45678 0
M  V30 1827 H 168.525 -2.4999 1.64758 0
M  V30 1828 H 166.071 -1.20156 0.793626 0
M  V30 1829 H 168.024 -4.21313 -0.085466 0
M  V30 1830 H 166.748 -3.17449 -0.767714 0
M  V30 1831 H 165.407 -3.40758 1.35202 0
M  V30 1832 H 165.055 -5.00054 -0.543599 0
M  V30 1833 H 164.755 -5.78552 1.02721 0
M  V30 1834 H 166.279 -6.10413 0.150908 0
M  V30 1835 H 167.693 -5.26759 2.26269 0
M  V30 1836 H 166.09 -5.16944 3.04776 0
M  V30 1837 H 167.16 -3.75603 3.06677 0
M  V30 1838 N 168.503 -0.877838 -1.30888 0
M  V30 1839 C 169.78 -0.413052 -1.91189 0
M  V30 1840 C 170.16 1.1056 -1.79832 0
M  V30 1841 O 169.508 1.93771 -1.21099 0
M  V30 1842 C 169.718 -0.903191 -3.3711 0
M  V30 1843 C 171.066 -0.93395 -4.14201 0
M  V30 1844 O 172.09 -0.849373 -3.45925 0
M  V30 1845 O 170.949 -1.05772 -5.36167 0
M  V30 1846 H 168.043 -0.125035 -0.817493 0
M  V30 1847 H 170.589 -0.966269 -1.39504 0
M  V30 1848 H 169.361 -1.94692 -3.39427 0
M  V30 1849 H 168.984 -0.328732 -3.96239 0
M  V30 1850 N 169.982 1.44106 -0.638065 0
M  V30 1851 C 170.912 2.33448 0.0494287 0
M  V30 1852 C 171.893 1.48606 0.827672 0
M  V30 1853 O 173.078 1.77308 0.792173 0
M  V30 1854 C 170.208 3.31771 1.02691 0
M  V30 1855 C 169.162 4.26485 0.359823 0
M  V30 1856 C 168.488 5.14729 1.44769 0
M  V30 1857 C 169.788 5.17056 -0.738296 0
M  V30 1858 H 171.482 2.91183 -0.696636 0
M  V30 1859 H 169.028 1.40014 -0.336456 0
M  V30 1860 H 170.981 3.93161 1.51666 0
M  V30 1861 H 169.705 2.7226 1.80395 0
M  V30 1862 H 168.364 3.66437 -0.10934 0
M  V30 1863 H 168.012 4.51566 2.21578 0
M  V30 1864 H 167.712 5.78913 1.00668 0
M  V30 1865 H 169.236 5.78991 1.93911 0
M  V30 1866 H 170.65 5.72342 -0.331354 0
M  V30 1867 H 169.047 5.89879 -1.10286 0
M  V30 1868 H 170.117 4.57652 -1.60258 0
M  V30 1869 N 171.46 0.379036 1.52974 0
M  V30 1870 C 172.708 -0.206014 2.01047 0
M  V30 1871 C 173.029 -1.48175 1.26765 0
M  V30 1872 O 172.299 -1.92085 0.384743 0
M  V30 1873 H 170.879 -0.0791184 0.742798 0
M  V30 1874 H 173.541 0.508366 1.88153 0
M  V30 1875 H 172.637 -0.423501 3.09213 0
M  V30 1876 N 172.938 -1.57226 0.108567 0
M  V30 1877 C 174.166 -1.99179 -0.559954 0
M  V30 1878 C 174.581 -0.988022 -1.60884 0
M  V30 1879 O 173.938 0.0205512 -1.82488 0
M  V30 1880 C 173.989 -3.41159 -1.19552 0
M  V30 1881 O 173.71 -4.37694 -0.188577 0
M  V30 1882 C 175.211 -3.98188 -1.94837 0
M  V30 1883 H 172.431 -0.654228 -0.149088 0
M  V30 1884 H 174.975 -2.03598 0.19183 0
M  V30 1885 H 173.13 -3.37711 -1.89815 0
M  V30 1886 H 173.544 -5.20469 -0.649014 0
M  V30 1887 H 175.018 -4.99644 -2.34648 0
M  V30 1888 H 175.495 -3.3675 -2.81951 0
M  V30 1889 H 176.101 -4.0515 -1.2936 0
M  V30 1890 N 174.416 0.165178 -1.56732 0
M  V30 1891 C 175.664 0.879068 -1.8198 0
M  V30 1892 C 175.985 1.82514 -0.686561 0
M  V30 1893 O 175.255 1.93694 0.293146 0
M  V30 1894 H 173.835 0.327608 -0.671329 0
M  V30 1895 H 176.497 0.163526 -1.94213 0
M  V30 1896 H 175.593 1.45228 -2.76252 0
M  V30 1897 N 175.894 1.51508 0.433938 0
M  V30 1898 C 177.122 1.68157 1.20543 0
M  V30 1899 C 177.537 0.380362 1.84929 0
M  V30 1900 O 176.894 -0.641446 1.70856 0
M  V30 1901 C 176.945 2.79965 2.28696 0
M  V30 1902 O 176.666 4.05045 1.66943 0
M  V30 1903 C 178.167 3.07912 3.18912 0
M  V30 1904 H 175.387 0.56421 0.363191 0
M  V30 1905 H 177.931 1.97941 0.513754 0
M  V30 1906 H 176.086 2.5277 2.93574 0
M  V30 1907 H 176.5 4.67165 2.38448 0
M  V30 1908 H 177.974 3.89719 3.90926 0
M  V30 1909 H 178.451 2.20456 3.79863 0
M  V30 1910 H 179.057 3.36779 2.59731 0
M  V30 1911 N 177.372 -0.689602 1.41712 0
M  V30 1912 C 178.62 -1.4468 1.4111 0
M  V30 1913 C 178.941 -1.94986 0.0232196 0
M  V30 1914 O 178.211 -1.72097 -0.935913 0
M  V30 1915 H 176.791 -0.536847 0.519427 0
M  V30 1916 H 179.453 -0.815825 1.77004 0
M  V30 1917 H 178.549 -2.30706 2.10193 0
M  V30 1918 N 178.85 -1.27639 -0.924453 0
M  V30 1919 C 179.813 -1.10681 -2.00705 0
M  V30 1920 C 180.813 -0.0497823 -1.60723 0
M  V30 1921 O 182.003 -0.294654 -1.7169 0
M  V30 1922 C 179.135 -0.687164 -3.33902 0
M  V30 1923 H 180.328 -2.06817 -2.17179 0
M  V30 1924 H 177.881 -1.10473 -1.10569 0
M  V30 1925 H 178.616 0.275439 -3.23128 0
M  V30 1926 H 178.401 -1.45061 -3.6428 0
M  V30 1927 H 179.891 -0.590853 -4.13399 0
M  V30 1928 N 180.328 1.1314 -1.09713 0
M  V30 1929 C 181.577 1.83838 -0.829851 0
M  V30 1930 C 181.89 1.84599 0.646728 0
M  V30 1931 O 183.096 2.51218 1.02965 0
M  V30 1932 C 181.552 3.30069 -1.43466 0
M  V30 1933 C 181.16 3.37688 -2.94399 0
M  V30 1934 C 182.904 4.05788 -1.24645 0
M  V30 1935 C 180.811 4.78209 -3.47952 0
M  V30 1936 H 179.741 0.68877 -0.306777 0
M  V30 1937 H 182.392 1.27448 -1.3202 0
M  V30 1938 H 180.774 3.8628 -0.871996 0
M  V30 1939 H 181.948 2.91456 -3.56918 0
M  V30 1940 H 180.263 2.75436 -3.12289 0
M  V30 1941 H 182.86 5.09535 -1.62107 0
M  V30 1942 H 183.203 4.15878 -0.187357 0
M  V30 1943 H 183.736 3.55915 -1.77678 0
M  V30 1944 H 180.475 4.73311 -4.53495 0
M  V30 1945 H 179.995 5.24924 -2.90198 0
M  V30 1946 H 181.674 5.47133 -3.45332 0
M  V30 1947 N 181.806 0.884767 1.30421 0
M  V30 1948 C 182.769 0.356277 2.26414 0
M  V30 1949 C 183.769 -0.501124 1.52792 0
M  V30 1950 O 184.959 -0.30831 1.7145 0
M  V30 1951 C 182.091 -0.492316 3.37326 0
M  V30 1952 H 183.284 1.20389 2.74675 0
M  V30 1953 H 180.837 0.661607 1.41607 0
M  V30 1954 H 181.572 -1.36052 2.94381 0
M  V30 1955 H 181.357 0.121832 3.91911 0
M  V30 1956 H 182.847 -0.853871 4.08777 0
M  V30 1957 N 183.284 -1.43765 0.645699 0
M  V30 1958 C 184.214 -2.33471 -0.0370477 0
M  V30 1959 C 185.195 -1.49042 -0.819779 0
M  V30 1960 O 186.38 -1.77726 -0.782758 0
M  V30 1961 C 183.51 -3.32311 -1.0093 0
M  V30 1962 C 182.464 -4.2667 -0.337201 0
M  V30 1963 C 181.79 -5.1549 -1.42037 0
M  V30 1964 C 183.09 -5.16657 0.765706 0
M  V30 1965 H 184.784 -2.90809 0.712069 0
M  V30 1966 H 182.33 -1.39834 0.343876 0
M  V30 1967 H 184.283 -3.9396 -1.49578 0
M  V30 1968 H 183.007 -2.73213 -1.78948 0
M  V30 1969 H 181.666 -3.66374 0.128771 0
M  V30 1970 H 181.314 -4.52735 -2.1918 0
M  V30 1971 H 181.014 -5.79438 -0.975966 0
M  V30 1972 H 182.538 -5.80012 -1.90838 0
M  V30 1973 H 183.952 -5.72158 0.361702 0
M  V30 1974 H 182.349 -5.89286 1.13413 0
M  V30 1975 H 183.419 -4.56796 1.62683 0
M  V30 1976 N 184.763 -0.387143 -1.52771 0
M  V30 1977 C 185.726 0.436939 -2.24997 0
M  V30 1978 C 186.726 0.991991 -1.26555 0
M  V30 1979 O 187.916 0.874335 -1.50669 0
M  V30 1980 C 185.048 1.61281 -3.00335 0
M  V30 1981 H 186.241 -0.195365 -2.99263 0
M  V30 1982 H 183.794 -0.139218 -1.55679 0
M  V30 1983 H 184.529 2.2826 -2.30364 0
M  V30 1984 H 184.314 1.22154 -3.72587 0
M  V30 1985 H 185.804 2.19629 -3.5518 0
M  V30 1986 N 186.241 1.57166 -0.116904 0
M  V30 1987 C 187.171 2.18222 0.830759 0
M  V30 1988 C 188.152 1.12167 1.27877 0
M  V30 1989 O 189.337 1.40394 1.34176 0
M  V30 1990 C 186.467 2.77996 2.08172 0
M  V30 1991 C 185.421 3.89614 1.77157 0
M  V30 1992 C 184.747 4.36187 3.09265 0
M  V30 1993 C 186.047 5.1181 1.04151 0
M  V30 1994 H 187.741 2.97664 0.321992 0
M  V30 1995 H 185.287 1.4318 0.153434 0
M  V30 1996 H 187.24 3.19366 2.74924 0
M  V30 1997 H 185.964 1.9584 2.6137 0
M  V30 1998 H 184.623 3.48816 1.12796 0
M  V30 1999 H 184.271 3.50893 3.60393 0
M  V30 2000 H 183.971 5.11455 2.89288 0
M  V30 2001 H 185.495 4.80207 3.77139 0
M  V30 2002 H 186.909 5.50214 1.61052 0
M  V30 2003 H 185.306 5.92648 0.942762 0
M  V30 2004 H 186.376 4.84892 0.0279022 0
M  V30 2005 N 187.719 -0.156864 1.56817 0
M  V30 2006 C 188.682 -1.17781 1.96622 0
M  V30 2007 C 189.682 -1.36401 0.851555 0
M  V30 2008 O 190.872 -1.33561 1.11836 0
M  V30 2009 C 188.004 -2.54008 2.27361 0
M  V30 2010 H 189.197 -0.836564 2.87996 0
M  V30 2011 H 186.75 -0.39985 1.51099 0
M  V30 2012 H 187.485 -2.9312 1.38748 0
M  V30 2013 H 187.27 -2.41856 3.08623 0
M  V30 2014 H 188.76 -3.27558 2.59029 0
M  V30 2015 N 189.197 -1.51736 -0.425897 0
M  V30 2016 C 190.422 -1.69082 -1.20108 0
M  V30 2017 C 190.847 -0.392398 -1.83962 0
M  V30 2018 O 190.205 0.64858 -1.69302 0
M  V30 2019 C 190.253 -2.81604 -2.25237 0
M  V30 2020 O 189.357 -2.46004 -3.30992 0
M  V30 2021 H 188.698 -0.563408 -0.35138 0
M  V30 2022 H 191.228 -1.98358 -0.501512 0
M  V30 2023 H 191.238 -3.06025 -2.69838 0
M  V30 2024 H 189.913 -3.75817 -1.78142 0
M  V30 2025 H 188.49 -2.32195 -2.91787 0
M  V30 2026 N 190.675 0.682077 -1.42076 0
M  V30 2027 C 191.585 1.82535 -1.47371 0
M  V30 2028 C 192.601 1.7017 -0.363079 0
M  V30 2029 O 193.777 1.91848 -0.612875 0
M  V30 2030 C 190.842 3.18624 -1.36674 0
M  V30 2031 C 189.903 3.42999 -2.58167 0
M  V30 2032 C 189.136 4.72595 -2.4797 0
M  V30 2033 O 189.359 5.50006 -1.5116 0
M  V30 2034 O 188.293 4.98054 -3.37974 0
M  V30 2035 H 192.119 1.81023 -2.43853 0
M  V30 2036 H 189.704 0.836887 -1.2376 0
M  V30 2037 H 191.586 3.99847 -1.33043 0
M  V30 2038 H 190.261 3.20789 -0.433138 0
M  V30 2039 H 189.168 2.61653 -2.67373 0
M  V30 2040 H 190.501 3.45659 -3.50401 0
M  V30 2041 N 192.153 1.28127 0.917671 0
M  V30 2042 C 193.569 1.05749 1.19538 0
M  V30 2043 C 193.769 -0.202633 2.00479 0
M  V30 2044 O 192.825 -0.905382 2.3571 0
M  V30 2045 C 194.138 2.30273 1.93378 0
M  V30 2046 C 195.686 2.35412 2.06277 0
M  V30 2047 C 196.161 3.59692 2.83524 0
M  V30 2048 N 197.652 3.60309 2.91087 0
M  V30 2049 C 198.387 4.53147 3.51348 0
M  V30 2050 N 197.883 5.563 4.12919 0
M  V30 2051 N 199.676 4.40751 3.48849 0
M  V30 2052 H 191.827 2.09024 0.377184 0
M  V30 2053 H 194.09 0.919798 0.22951 0
M  V30 2054 H 193.796 3.22055 1.41328 0
M  V30 2055 H 193.67 2.36378 2.93947 0
M  V30 2056 H 196.057 1.4413 2.57508 0
M  V30 2057 H 196.138 2.33304 1.04895 0
M  V30 2058 H 195.782 4.51316 2.32973 0
M  V30 2059 H 195.712 3.59054 3.85211 0
M  V30 2060 H 198.203 2.85714 2.47338 0
M  V30 2061 H 198.516 6.2329 4.56869 0
M  V30 2062 H 196.861 5.60131 4.11435 0
M  V30 2063 H 200.052 3.59367 2.99955 0
M  V30 2064 H 200.225 5.13291 3.9552 0
M  V30 2065 N 193.631 -1.12557 1.10312 0
M  V30 2066 C 195.042 -1.65574 0.862678 0
M  V30 2067 C 195.393 -1.86566 -0.607256 0
M  V30 2068 O 194.518 -1.59121 -1.46662 0
M  V30 2069 C 195.113 -3.00776 1.55947 0
M  V30 2070 C 193.672 -3.50748 1.36576 0
M  V30 2071 C 192.819 -2.25797 1.60968 0
M  V30 2072 H 195.77 -0.963552 1.26101 0
M  V30 2073 H 195.791 -3.67185 0.997753 0
M  V30 2074 H 195.303 -2.85465 2.62928 0
M  V30 2075 H 193.404 -3.71245 0.317531 0
M  V30 2076 H 193.517 -4.30289 2.10686 0
M  V30 2077 H 191.881 -2.32841 1.03234 0
M  V30 2078 H 192.664 -2.13043 2.69198 0
M  V30 2079 N 195.109 -0.891671 -1.2995 0
M  V30 2080 C 196.386 -0.433307 -1.9074 0
M  V30 2081 C 196.766 1.08646 -1.80995 0
M  V30 2082 O 196.114 1.92476 -1.23147 0
M  V30 2083 C 196.324 -0.938895 -3.36134 0
M  V30 2084 C 197.672 -0.977829 -4.13187 0
M  V30 2085 O 198.696 -0.886015 -3.45005 0
M  V30 2086 O 197.555 -1.11453 -5.35015 0
M  V30 2087 H 194.649 -0.133699 -0.816121 0
M  V30 2088 H 197.195 -0.981011 -1.38471 0
M  V30 2089 H 195.967 -1.98281 -3.37343 0
M  V30 2090 H 195.59 -0.37074 -3.95868 0
M  V30 2091 N 196.587 1.43421 -0.653314 0
M  V30 2092 C 197.827 2.03689 -0.170346 0
M  V30 2093 C 198.191 1.50427 1.19314 0
M  V30 2094 O 199.392 2.0234 1.76952 0
M  V30 2095 C 197.663 3.56946 -0.180183 0
M  V30 2096 S 199.222 4.38171 0.234925 0
M  V30 2097 H 196.04 0.707345 -0.0719976 0
M  V30 2098 H 198.642 1.75486 -0.86167 0
M  V30 2099 H 197.346 3.93212 -1.17526 0
M  V30 2100 H 196.877 3.89791 0.531675 0
M  V30 2101 H 198.892 4.73808 1.47378 0
M  V30 2102 N 198.065 0.39524 1.52563 0
M  V30 2103 C 198.975 -0.444232 2.30356 0
M  V30 2104 C 199.991 -1.06615 1.37511 0
M  V30 2105 O 201.167 -1.07067 1.70583 0
M  V30 2106 C 198.232 -1.55315 3.09964 0
M  V30 2107 C 197.293 -0.955734 4.18526 0
M  V30 2108 C 196.526 -2.01181 4.9433 0
M  V30 2109 O 196.749 -3.22781 4.70285 0
M  V30 2110 O 195.683 -1.62579 5.79527 0
M  V30 2111 H 199.509 0.189667 3.03107 0
M  V30 2112 H 197.094 0.1588 1.48554 0
M  V30 2113 H 198.976 -2.19724 3.59582 0
M  V30 2114 H 197.651 -2.17191 2.4002 0
M  V30 2115 H 196.558 -0.274743 3.7309 0
M  V30 2116 H 197.891 -0.381109 4.90722 0
M  V30 2117 N 199.544 -1.57102 0.125237 0
M  V30 2118 C 200.793 -1.94582 -0.531095 0
M  V30 2119 C 201.106 -1.01126 -1.6743 0
M  V30 2120 O 202.312 -1.28097 -2.39381 0
M  V30 2121 C 200.768 -3.45839 -0.996164 0
M  V30 2122 C 200.376 -4.47842 0.118926 0
M  V30 2123 C 202.12 -3.92227 -1.62352 0
M  V30 2124 C 200.027 -5.90284 -0.363192 0
M  V30 2125 H 198.957 -0.726391 -0.20217 0
M  V30 2126 H 201.608 -1.82339 0.206092 0
M  V30 2127 H 199.99 -3.53338 -1.78796 0
M  V30 2128 H 201.164 -4.52018 0.895358 0
M  V30 2129 H 199.479 -4.11243 0.653324 0
M  V30 2130 H 202.076 -4.96069 -1.99548 0
M  V30 2131 H 202.419 -3.32552 -2.50429 0
M  V30 2132 H 202.952 -3.87554 -0.897019 0
M  V30 2133 H 199.691 -6.53728 0.481679 0
M  V30 2134 H 199.211 -5.89515 -1.10597 0
M  V30 2135 H 200.89 -6.41752 -0.822377 0
M  V30 2136 N 201.022 0.148545 -1.56898 0
M  V30 2137 C 202.271 0.85984 -1.82454 0
M  V30 2138 C 202.584 1.82406 -0.706229 0
M  V30 2139 O 203.79 2.57938 -0.847349 0
M  V30 2140 C 202.246 1.57967 -3.2338 0
M  V30 2141 C 201.854 0.65794 -4.43142 0
M  V30 2142 C 203.598 2.27784 -3.58211 0
M  V30 2143 C 201.505 1.3793 -5.75091 0
M  V30 2144 H 200.435 0.324834 -0.68044 0
M  V30 2145 H 203.086 0.112588 -1.83154 0
M  V30 2146 H 201.468 2.37249 -3.17063 0
M  V30 2147 H 202.642 -0.0995497 -4.60692 0
M  V30 2148 H 200.957 0.0682643 -4.16344 0
M  V30 2149 H 203.554 2.8239 -4.54048 0
M  V30 2150 H 203.897 3.04204 -2.84193 0
M  V30 2151 H 204.43 1.55421 -3.66182 0
M  V30 2152 H 201.169 0.656982 -6.52199 0
M  V30 2153 H 200.689 2.10954 -5.61479 0
M  V30 2154 H 202.368 1.92063 -6.17835 0
M  V30 2155 N 202.5 1.5196 0.417844 0
M  V30 2156 C 203.463 1.74065 1.49111 0
M  V30 2157 C 204.463 0.610537 1.48758 0
M  V30 2158 O 205.653 0.87832 1.50437 0
M  V30 2159 C 202.785 1.81502 2.88565 0
M  V30 2160 H 203.978 2.69869 1.30807 0
M  V30 2161 H 201.531 1.42244 0.647785 0
M  V30 2162 H 202.266 0.875813 3.1225 0
M  V30 2163 H 202.051 2.63651 2.90225 0
M  V30 2164 H 203.541 2.00376 3.66387 0
M  V30 2165 N 203.978 -0.674533 1.42435 0
M  V30 2166 C 205.224 -1.43671 1.43131 0
M  V30 2167 C 205.557 -1.94142 0.0476021 0
M  V30 2168 O 204.832 -1.70924 -0.928188 0
M  V30 2169 C 205.115 -2.63355 2.45594 0
M  V30 2170 C 204.968 -2.18514 3.93156 0
M  V30 2171 C 206.287 -3.65571 2.45043 0
M  V30 2172 H 203.406 -0.521077 0.521198 0
M  V30 2173 H 206.048 -0.766551 1.7385 0
M  V30 2174 H 204.198 -3.2053 2.19528 0
M  V30 2175 H 205.87 -1.66504 4.30202 0
M  V30 2176 H 204.113 -1.50086 4.07009 0
M  V30 2177 H 204.784 -3.04484 4.60428 0
M  V30 2178 H 207.26 -3.18113 2.68223 0
M  V30 2179 H 206.136 -4.46893 3.18713 0
M  V30 2180 H 206.397 -4.16716 1.47649 0
M  V30 2181 N 205.456 -1.28612 -0.910864 0
M  V30 2182 C 206.733 -1.06632 -1.63979 0
M  V30 2183 C 207.113 0.393351 -2.07403 0
M  V30 2184 O 206.461 1.37999 -1.82122 0
M  V30 2185 C 206.671 -2.0436 -2.8291 0
M  V30 2186 C 208.019 -2.34666 -3.5386 0
M  V30 2187 O 209.043 -2.02467 -2.93062 0
M  V30 2188 O 207.902 -2.89631 -4.63439 0
M  V30 2189 H 204.996 -0.407737 -0.7195 0
M  V30 2190 H 207.542 -1.39942 -0.959914 0
M  V30 2191 H 206.314 -3.02727 -2.47936 0
M  V30 2192 H 205.937 -1.71714 -3.58609 0
M  V30 2193 N 206.934 1.1197 -1.10907 0
M  V30 2194 C 208.35 1.35591 -0.841852 0
M  V30 2195 C 208.55 1.94233 0.536246 0
M  V30 2196 O 207.606 2.1717 1.28816 0
M  V30 2197 C 208.919 2.29284 -1.94549 0
M  V30 2198 C 210.467 2.42862 -1.97451 0
M  V30 2199 C 210.942 3.39873 -3.07002 0
M  V30 2200 N 212.433 3.47433 -3.06341 0
M  V30 2201 C 213.168 4.22421 -3.87748 0
M  V30 2202 N 212.664 5.00432 -4.79103 0
M  V30 2203 N 214.457 4.17876 -3.75946 0
M  V30 2204 H 206.608 0.722664 -1.99728 0
M  V30 2205 H 208.871 0.380635 -0.868229 0
M  V30 2206 H 208.577 1.93378 -2.93765 0
M  V30 2207 H 208.451 3.29452 -1.83688 0
M  V30 2208 H 210.838 2.78046 -0.988645 0
M  V30 2209 H 210.919 1.42566 -2.12388 0
M  V30 2210 H 210.563 3.05417 -4.05811 0
M  V30 2211 H 210.493 4.40011 -2.89306 0
M  V30 2212 H 212.984 2.91784 -2.40147 0
M  V30 2213 H 213.297 5.55002 -5.37766 0
M  V30 2214 H 211.642 4.99612 -4.83128 0
M  V30 2215 H 214.833 3.56016 -3.03924 0
M  V30 2216 H 215.006 4.76061 -4.39624 0
M  V30 2217 N 208.412 0.89855 1.29475 0
M  V30 2218 C 209.345 0.319981 2.25945 0
M  V30 2219 C 210.323 -0.567189 1.52387 0
M  V30 2220 O 211.507 -0.514254 1.8135 0
M  V30 2221 C 208.634 -0.544013 3.34303 0
M  V30 2222 C 207.68 0.275682 4.25608 0
M  V30 2223 S 208.513 1.67272 5.08704 0
M  V30 2224 C 209.669 0.815621 6.20563 0
M  V30 2225 H 209.902 1.13767 2.74671 0
M  V30 2226 H 207.435 0.69882 1.3768 0
M  V30 2227 H 209.393 -1.03673 3.97193 0
M  V30 2228 H 208.054 -1.33593 2.84274 0
M  V30 2229 H 207.247 -0.384263 5.02533 0
M  V30 2230 H 206.849 0.701496 3.67362 0
M  V30 2231 H 209.141 0.0385042 6.77489 0
M  V30 2232 H 210.084 1.55691 6.90772 0
M  V30 2233 H 210.492 0.370516 5.63283 0
M  V30 2234 N 209.89 -1.43072 0.660911 0
M  V30 2235 C 211.301 -1.84932 0.256348 0
M  V30 2236 C 211.652 -1.55325 -1.19868 0
M  V30 2237 O 210.777 -1.00607 -1.91591 0
M  V30 2238 C 211.372 -3.35684 0.458475 0
M  V30 2239 C 209.931 -3.76245 0.108161 0
M  V30 2240 C 209.078 -2.66749 0.757641 0
M  V30 2241 H 212.029 -1.33116 0.864051 0
M  V30 2242 H 212.05 -3.79365 -0.293683 0
M  V30 2243 H 211.562 -3.572 1.51755 0
M  V30 2244 H 209.663 -3.60338 -0.948014 0
M  V30 2245 H 209.776 -4.76058 0.538992 0
M  V30 2246 H 208.14 -2.53989 0.190185 0
M  V30 2247 H 208.923 -2.91092 1.81989 0
M  V30 2248 N 211.368 -0.403325 -1.52352 0
M  V30 2249 C 212.645 0.232611 -1.94212 0
M  V30 2250 C 213.025 1.63133 -1.33981 0
M  V30 2251 O 212.373 2.22659 -0.513344 0
M  V30 2252 C 212.583 0.244811 -3.4814 0
M  V30 2253 C 213.931 0.46698 -4.22024 0
M  V30 2254 O 214.955 0.324419 -3.5472 0
M  V30 2255 O 213.814 0.74747 -5.41364 0
M  V30 2256 H 210.908 0.148223 -0.813609 0
M  V30 2257 H 213.454 -0.458848 -1.63379 0
M  V30 2258 H 212.226 -0.734378 -3.84347 0
M  V30 2259 H 211.849 0.980611 -3.85318 0
M  V30 2260 N 212.846 1.57033 -0.133567 0
M  V30 2261 C 213.809 2.14897 0.796995 0
M  V30 2262 C 214.809 1.0874 1.18458 0
M  V30 2263 O 215.999 1.34446 1.1077 0
M  V30 2264 C 213.131 2.70112 2.07973 0
M  V30 2265 H 214.324 2.98457 0.293873 0
M  V30 2266 H 211.877 1.55871 0.115787 0
M  V30 2267 H 212.612 1.9018 2.62682 0
M  V30 2268 H 212.397 3.47764 1.81115 0
M  V30 2269 H 213.887 3.14738 2.74462 0
M  V30 2270 N 214.325 -0.140222 1.56975 0
M  V30 2271 C 215.571 -0.852949 1.83991 0
M  V30 2272 C 215.904 -1.80512 0.716187 0
M  V30 2273 O 215.179 -1.92479 -0.279681 0
M  V30 2274 C 215.462 -1.6215 3.21527 0
M  V30 2275 C 215.315 -0.690363 4.4447 0
M  V30 2276 C 216.634 -2.58247 3.56366 0
M  V30 2277 H 213.753 -0.308634 0.669264 0
M  V30 2278 H 216.395 -0.117898 1.89634 0
M  V30 2279 H 214.545 -2.24812 3.16847 0
M  V30 2280 H 216.217 -0.0742264 4.6124 0
M  V30 2281 H 214.46 -0.000396433 4.338 0
M  V30 2282 H 215.131 -1.2643 5.37326 0
M  V30 2283 H 217.607 -2.05701 3.61699 0
M  V30 2284 H 216.483 -3.09067 4.53617 0
M  V30 2285 H 216.744 -3.39923 2.82674 0
M  V30 2286 N 215.803 -1.52179 -0.40978 0
M  V30 2287 C 217.028 -1.70347 -1.18308 0
M  V30 2288 C 217.453 -0.411887 -1.83535 0
M  V30 2289 O 216.811 0.630587 -1.6998 0
M  V30 2290 C 216.859 -2.83977 -2.22238 0
M  V30 2291 O 215.963 -2.495 -3.28365 0
M  V30 2292 H 215.304 -0.567103 -0.345384 0
M  V30 2293 H 217.834 -1.98879 -0.480445 0
M  V30 2294 H 217.844 -3.0887 -2.66577 0
M  V30 2295 H 216.519 -3.77685 -1.74146 0
M  V30 2296 H 215.096 -2.35277 -2.89308 0
M  V30 2297 N 217.281 0.66697 -1.42791 0
M  V30 2298 C 218.211 1.79218 -1.49677 0
M  V30 2299 C 219.192 1.66405 -0.352623 0
M  V30 2300 O 220.377 1.85708 -0.567993 0
M  V30 2301 C 217.507 3.17565 -1.40605 0
M  V30 2302 C 216.461 3.45124 -2.53127 0
M  V30 2303 C 215.787 4.83127 -2.29112 0
M  V30 2304 C 217.087 3.41236 -3.95418 0
M  V30 2305 H 218.781 1.73713 -2.43853 0
M  V30 2306 H 216.327 0.83432 -1.17367 0
M  V30 2307 H 218.28 3.96022 -1.44029 0
M  V30 2308 H 217.004 3.23767 -0.429271 0
M  V30 2309 H 215.663 2.69031 -2.49034 0
M  V30 2310 H 215.311 4.85988 -1.29709 0
M  V30 2311 H 215.011 5.02528 -3.04531 0
M  V30 2312 H 216.535 5.63859 -2.34297 0
M  V30 2313 H 217.949 4.09651 -4.01073 0
M  V30 2314 H 216.346 3.72173 -4.70752 0
M  V30 2315 H 217.416 2.39665 -4.21532 0
M  V30 2316 N 218.759 1.29093 0.90403 0
M  V30 2317 C 219.722 1.1386 1.98919 0
M  V30 2318 C 220.722 0.0753457 1.60623 0
M  V30 2319 O 221.912 0.321931 1.71199 0
M  V30 2320 C 219.044 0.740198 3.32767 0
M  V30 2321 H 220.237 2.10246 2.13861 0
M  V30 2322 H 217.79 1.12218 1.08797 0
M  V30 2323 H 218.525 -0.223997 3.23525 0
M  V30 2324 H 218.31 1.50838 3.61926 0
M  V30 2325 H 219.8 0.656546 4.12407 0
M  V30 2326 N 220.237 -1.11381 1.11499 0
M  V30 2327 C 221.169 -2.17207 0.731704 0
M  V30 2328 C 222.182 -1.61066 -0.236957 0
M  V30 2329 O 223.371 -1.78489 -0.0197591 0
M  V30 2330 C 220.471 -3.38846 0.0607624 0
M  V30 2331 C 219.644 -4.24451 1.0564 0
M  V30 2332 C 218.703 -5.24562 0.4149 0
M  V30 2333 O 217.729 -5.59071 1.069 0
M  V30 2334 N 218.931 -5.74651 -0.821943 0
M  V30 2335 H 221.696 -2.50699 1.64225 0
M  V30 2336 H 219.257 -1.26908 1.00529 0
M  V30 2337 H 221.249 -4.02911 -0.380139 0
M  V30 2338 H 219.819 -3.03411 -0.752376 0
M  V30 2339 H 219.039 -3.56833 1.67524 0
M  V30 2340 H 220.327 -4.78486 1.72998 0
M  V30 2341 H 219.725 -5.48797 -1.37252 0
M  V30 2342 H 218.282 -6.40549 -1.20582 0
M  V30 2343 N 221.715 -0.905404 -1.28997 0
M  V30 2344 C 223.131 -0.60233 -1.47798 0
M  V30 2345 C 223.331 0.854645 -1.82478 0
M  V30 2346 O 222.387 1.63439 -1.92468 0
M  V30 2347 C 223.7 -1.53306 -2.58685 0
M  V30 2348 C 225.248 -1.53887 -2.72558 0
M  V30 2349 C 225.723 -2.45602 -3.86579 0
M  V30 2350 N 227.214 -2.43681 -3.93921 0
M  V30 2351 C 227.949 -3.11347 -4.81509 0
M  V30 2352 N 227.445 -3.88313 -5.73746 0
M  V30 2353 N 229.238 -3.00476 -4.75048 0
M  V30 2354 H 221.389 -1.84765 -1.04764 0
M  V30 2355 H 223.652 -0.792025 -0.520961 0
M  V30 2356 H 223.358 -2.57141 -2.39941 0
M  V30 2357 H 223.232 -1.25787 -3.55609 0
M  V30 2358 H 225.619 -0.507941 -2.90696 0
M  V30 2359 H 225.7 -1.85447 -1.76191 0
M  V30 2360 H 225.344 -3.48792 -3.69197 0
M  V30 2361 H 225.274 -2.11349 -4.82327 0
M  V30 2362 H 227.765 -1.87767 -3.27951 0
M  V30 2363 H 228.078 -4.36985 -6.37389 0
M  V30 2364 H 226.423 -3.92419 -5.73614 0
M  V30 2365 H 229.614 -2.39858 -4.01977 0
M  V30 2366 H 229.787 -3.53485 -5.43095 0
M  V30 2367 N 223.193 1.4272 -0.668489 0
M  V30 2368 C 224.141 2.32586 0.0254857 0
M  V30 2369 C 225.135 1.49471 0.797176 0
M  V30 2370 O 226.341 1.65583 0.705853 0
M  V30 2371 H 222.716 0.751514 0.0270339 0
M  V30 2372 H 224.687 2.88823 -0.749936 0
M  V30 2373 C 223.436 3.3397 0.967427 0
M  V30 2374 H 222.759 3.97961 0.383048 0
M  V30 2375 H 224.199 3.9945 1.42181 0
M  V30 2376 C 222.658 2.65744 2.0708 0
M  V30 2377 O 223.188 2.48454 3.15648 0
M  V30 2378 N 221.394 2.2487 1.8407 0
M  V30 2379 H 220.941 2.39132 0.95778 0
M  V30 2380 H 220.899 1.79552 2.58086 0
M  V30 2381 N 224.671 0.411399 1.52136 0
M  V30 2382 C 225.634 -0.401089 2.25663 0
M  V30 2383 C 226.634 -0.971732 1.28117 0
M  V30 2384 O 227.824 -0.850254 1.52041 0
M  V30 2385 C 224.956 -1.56483 3.02863 0
M  V30 2386 H 226.149 0.24295 2.98914 0
M  V30 2387 H 223.702 0.163968 1.55438 0
M  V30 2388 H 224.437 -2.24567 2.33967 0
M  V30 2389 H 224.222 -1.16211 3.74483 0
M  V30 2390 H 225.712 -2.13951 3.58629 0
M  V30 2391 N 226.149 -1.5696 0.141893 0
M  V30 2392 C 227.081 -2.13619 -0.830627 0
M  V30 2393 C 228.094 -1.08439 -1.21428 0
M  V30 2394 O 229.283 -1.35734 -1.15925 0
M  V30 2395 C 226.383 -2.63978 -2.12529 0
M  V30 2396 C 225.556 -3.93504 -1.9098 0
M  V30 2397 C 224.615 -4.29225 -3.04388 0
M  V30 2398 O 223.641 -4.97641 -2.76302 0
M  V30 2399 N 224.843 -3.88393 -4.31429 0
M  V30 2400 H 227.608 -2.97691 -0.34641 0
M  V30 2401 H 225.169 -1.61846 -0.0418375 0
M  V30 2402 H 227.161 -2.84891 -2.87436 0
M  V30 2403 H 225.731 -1.84659 -2.52229 0
M  V30 2404 H 224.951 -3.81269 -1.00139 0
M  V30 2405 H 226.239 -4.78154 -1.73914 0
M  V30 2406 H 225.637 -3.33257 -4.57117 0
M  V30 2407 H 224.194 -4.14368 -5.03133 0
M  V30 2408 N 227.627 0.131896 -1.57047 0
M  V30 2409 C 228.577 1.1679 -1.95816 0
M  V30 2410 C 229.561 1.37756 -0.831393 0
M  V30 2411 O 230.753 1.39065 -1.09499 0
M  V30 2412 C 227.882 2.49778 -2.35512 0
M  V30 2413 C 226.968 2.32342 -3.54793 0
M  V30 2414 N 227.359 1.8469 -4.70875 0
M  V30 2415 C 225.657 2.63043 -3.60173 0
M  V30 2416 C 226.358 1.80656 -5.52936 0
M  V30 2417 N 225.334 2.24528 -4.95064 0
M  V30 2418 H 229.136 0.791818 -2.83033 0
M  V30 2419 H 226.65 0.339791 -1.58805 0
M  V30 2420 H 228.647 3.24692 -2.61498 0
M  V30 2421 H 227.307 2.88156 -1.49654 0
M  V30 2422 H 228.318 1.54429 -4.9434 0
M  V30 2423 H 224.995 3.05193 -2.84892 0
M  V30 2424 H 226.385 1.45178 -6.56028 0
M  V30 2425 N 229.106 1.52395 0.401703 0
M  V30 2426 C 230.036 1.79231 1.49661 0
M  V30 2427 C 231.017 0.643654 1.57452 0
M  V30 2428 O 232.202 0.889989 1.72606 0
M  V30 2429 C 229.332 1.94971 2.87409 0
M  V30 2430 C 228.286 3.10604 2.94465 0
M  V30 2431 C 227.612 3.11577 4.34538 0
M  V30 2432 C 228.912 4.49921 2.6527 0
M  V30 2433 H 230.606 2.70917 1.27454 0
M  V30 2434 H 228.152 1.30362 0.6117 0
M  V30 2435 H 230.105 2.12328 3.63999 0
M  V30 2436 H 228.829 0.999632 3.10926 0
M  V30 2437 H 227.488 2.93009 2.20321 0
M  V30 2438 H 227.136 2.14277 4.55076 0
M  V30 2439 H 226.836 3.89247 4.40183 0
M  V30 2440 H 228.36 3.31073 5.13053 0
M  V30 2441 H 229.774 4.67683 3.31581 0
M  V30 2442 H 228.171 5.29564 2.82281 0
M  V30 2443 H 229.241 4.57507 1.60671 0
M  V30 2444 N 230.584 -0.659388 1.43143 0
M  V30 2445 C 231.547 -1.75432 1.47501 0
M  V30 2446 C 232.547 -1.56707 0.360512 0
M  V30 2447 O 233.737 -1.62717 0.622002 0
M  V30 2448 C 230.869 -3.14239 1.32162 0
M  V30 2449 H 232.062 -1.7295 2.45006 0
M  V30 2450 H 229.615 -0.870469 1.29817 0
M  V30 2451 H 230.35 -3.22336 0.356401 0
M  V30 2452 H 230.135 -3.29235 2.12948 0
M  V30 2453 H 231.625 -3.94094 1.3813 0
M  V30 2454 N 232.062 -1.29571 -0.897171 0
M  V30 2455 C 233.311 -1.1706 -1.64256 0
M  V30 2456 C 233.624 0.276476 -1.93636 0
M  V30 2457 O 234.83 0.52294 -2.66416 0
M  V30 2458 C 233.286 -2.0475 -2.95982 0
M  V30 2459 C 232.894 -3.54295 -2.74187 0
M  V30 2460 C 234.638 -2.0097 -3.73914 0
M  V30 2461 C 232.545 -4.34081 -4.01656 0
M  V30 2462 H 231.475 -0.43452 -0.616205 0
M  V30 2463 H 234.126 -1.54229 -0.994268 0
M  V30 2464 H 232.508 -1.60452 -3.62038 0
M  V30 2465 H 233.682 -4.06662 -2.1671 0
M  V30 2466 H 231.997 -3.59773 -2.09648 0
M  V30 2467 H 234.594 -2.57838 -4.68427 0
M  V30 2468 H 234.937 -0.990273 -4.0435 0
M  V30 2469 H 235.47 -2.43325 -3.14703 0
M  V30 2470 H 232.209 -5.36671 -3.76384 0
M  V30 2471 H 231.729 -3.86483 -4.58684 0
M  V30 2472 H 233.408 -4.44877 -4.69781 0
M  V30 2473 N 233.54 1.10788 -1.12088 0
M  V30 2474 C 234.487 2.17025 -0.785407 0
M  V30 2475 C 235.457 1.64265 0.246191 0
M  V30 2476 O 236.642 1.90412 0.121584 0
M  V30 2477 C 233.782 3.44249 -0.242177 0
M  V30 2478 C 232.895 4.1098 -1.33115 0
M  V30 2479 C 232.03 5.25911 -0.747741 0
M  V30 2480 C 231.069 5.84538 -1.81609 0
M  V30 2481 N 230.206 6.90853 -1.25167 0
M  V30 2482 H 235.046 2.45066 -1.69548 0
M  V30 2483 H 232.583 1.20297 -0.846582 0
M  V30 2484 H 234.541 4.17101 0.0908026 0
M  V30 2485 H 233.171 3.16571 0.631072 0
M  V30 2486 H 232.223 3.36133 -1.78097 0
M  V30 2487 H 233.535 4.50601 -2.13917 0
M  V30 2488 H 232.689 6.056 -0.365216 0
M  V30 2489 H 231.428 4.87614 0.0915188 0
M  V30 2490 H 230.433 5.03522 -2.20785 0
M  V30 2491 H 231.658 6.249 -2.6585 0
M  V30 2492 H 229.604 6.54562 -0.434174 0
M  V30 2493 H 229.521 7.29166 -1.99633 0
M  V30 2494 H 230.789 7.7433 -0.896259 0
M  V30 2495 N 235.018 0.912232 1.28515 0
M  V30 2496 C 235.966 0.389597 2.29314 0
M  V30 2497 C 236.96 -0.517915 1.61289 0
M  V30 2498 O 238.166 -0.399328 1.75515 0
M  V30 2499 H 234.541 0.107386 0.744293 0
M  V30 2500 H 236.512 1.25286 2.70825 0
M  V30 2501 C 235.261 -0.356496 3.45868 0
M  V30 2502 H 234.584 0.332608 3.98414 0
M  V30 2503 H 236.024 -0.686851 4.184 0
M  V30 2504 C 234.483 -1.56383 2.98406 0
M  V30 2505 O 235.013 -2.66294 3.00749 0
M  V30 2506 N 233.219 -1.41029 2.54085 0
M  V30 2507 H 232.766 -0.516089 2.52377 0
M  V30 2508 H 232.724 -2.21939 2.22689 0
M  V30 2509 N 236.496 -1.42363 0.676048 0
M  V30 2510 C 237.745 -2.00745 0.196037 0
M  V30 2511 C 238.058 -1.54083 -1.20489 0
M  V30 2512 O 239.264 -2.04891 -1.78134 0
M  V30 2513 C 237.72 -3.58651 0.299616 0
M  V30 2514 C 237.328 -4.143 1.70468 0
M  V30 2515 C 239.072 -4.24326 -0.121619 0
M  V30 2516 C 236.979 -5.64574 1.76096 0
M  V30 2517 H 235.909 -0.750787 0.0695301 0
M  V30 2518 H 238.56 -1.63072 0.841412 0
M  V30 2519 H 236.942 -3.93833 -0.413673 0
M  V30 2520 H 238.116 -3.90575 2.44515 0
M  V30 2521 H 236.431 -3.61081 2.07387 0
M  V30 2522 H 239.028 -5.34607 -0.0997362 0
M  V30 2523 H 239.371 -3.99897 -1.15708 0
M  V30 2524 H 239.904 -3.94108 0.540706 0
M  V30 2525 H 236.643 -5.93804 2.77628 0
M  V30 2526 H 236.163 -5.90286 1.06406 0
M  V30 2527 H 237.842 -6.29013 1.51496 0
M  V30 2528 N 237.974 -0.419461 -1.51915 0
M  V30 2529 C 238.924 0.418496 -2.24126 0
M  V30 2530 C 239.908 1.00495 -1.25656 0
M  V30 2531 O 241.1 0.926058 -1.50842 0
M  V30 2532 C 238.229 1.52899 -3.07371 0
M  V30 2533 C 237.315 0.952797 -4.13258 0
M  V30 2534 N 237.706 0.104175 -5.05693 0
M  V30 2535 C 236.004 1.22224 -4.28926 0
M  V30 2536 C 236.705 -0.21752 -5.81293 0
M  V30 2537 N 235.681 0.394293 -5.42168 0
M  V30 2538 H 239.483 -0.236048 -2.92951 0
M  V30 2539 H 236.997 -0.230481 -1.60756 0
M  V30 2540 H 238.994 2.14199 -3.57665 0
M  V30 2541 H 237.654 2.18605 -2.40088 0
M  V30 2542 H 238.665 -0.260924 -5.17242 0
M  V30 2543 H 235.342 1.87812 -3.72871 0
M  V30 2544 H 236.732 -0.906992 -6.6575 0
M  V30 2545 N 239.452 1.56882 -0.150215 0
M  V30 2546 C 240.701 1.95403 0.500071 0
M  V30 2547 C 241.014 1.03777 1.658 0
M  V30 2548 O 242.22 1.31889 2.37313 0
M  V30 2549 C 240.676 3.4738 0.941018 0
M  V30 2550 C 240.284 4.47596 -0.190158 0
M  V30 2551 C 242.028 3.9476 1.56091 0
M  V30 2552 C 239.935 5.90787 0.269237 0
M  V30 2553 H 238.865 0.729515 0.190588 0
M  V30 2554 H 241.516 1.81988 -0.235074 0
M  V30 2555 H 239.898 3.56138 1.73152 0
M  V30 2556 H 241.072 4.50536 -0.967157 0
M  V30 2557 H 239.387 4.10151 -0.718666 0
M  V30 2558 H 241.984 4.99181 1.9163 0
M  V30 2559 H 242.327 3.36494 2.45107 0
M  V30 2560 H 242.86 3.88932 0.835249 0
M  V30 2561 H 239.599 6.52879 -0.585621 0
M  V30 2562 H 239.119 5.912 1.01204 0
M  V30 2563 H 240.798 6.42979 0.720176 0
M  V30 2564 N 240.93 -0.123565 1.57115 0
M  V30 2565 C 241.86 -1.15309 2.03042 0
M  V30 2566 C 242.841 -1.43454 0.914061 0
M  V30 2567 O 244.026 -1.53973 1.18347 0
M  V30 2568 C 241.156 -2.48043 2.43089 0
M  V30 2569 C 240.11 -2.3437 3.58127 0
M  V30 2570 C 239.436 -3.72026 3.84059 0
M  V30 2571 C 240.736 -1.80804 4.90007 0
M  V30 2572 H 242.43 -0.771102 2.893 0
M  V30 2573 H 239.976 -0.369479 1.39179 0
M  V30 2574 H 241.929 -3.20311 2.73823 0
M  V30 2575 H 240.653 -2.88122 1.53796 0
M  V30 2576 H 239.312 -1.64551 3.27595 0
M  V30 2577 H 238.96 -4.09582 2.91979 0
M  V30 2578 H 238.66 -3.63732 4.6149 0
M  V30 2579 H 240.184 -4.45806 4.1724 0
M  V30 2580 H 241.598 -2.42886 5.19307 0
M  V30 2581 H 239.995 -1.83343 5.71407 0
M  V30 2582 H 241.065 -0.76528 4.78823 0
M  V30 2583 N 242.408 -1.52605 -0.393616 0
M  V30 2584 C 243.34 -1.73303 -1.49995 0
M  V30 2585 C 244.353 -0.613473 -1.50799 0
M  V30 2586 O 245.542 -0.889049 -1.54784 0
M  V30 2587 C 242.642 -1.77245 -2.88855 0
M  V30 2588 C 241.815 -3.06483 -3.12069 0
M  V30 2589 C 240.874 -3.02033 -4.30886 0
M  V30 2590 O 239.9 -3.75907 -4.27414 0
M  V30 2591 N 241.102 -2.20897 -5.36828 0
M  V30 2592 H 243.867 -2.68756 -1.32629 0
M  V30 2593 H 241.428 -1.51036 -0.583083 0
M  V30 2594 H 243.42 -1.7178 -3.66434 0
M  V30 2595 H 241.99 -0.891993 -2.99603 0
M  V30 2596 H 241.21 -3.25474 -2.22396 0
M  V30 2597 H 242.498 -3.91947 -3.2443 0
M  V30 2598 H 241.896 -1.60336 -5.42502 0
M  V30 2599 H 240.453 -2.21275 -6.13091 0
M  V30 2600 N 243.887 0.651787 -1.4349 0
M  V30 2601 C 245.112 1.44434 -1.48841 0
M  V30 2602 C 245.537 1.8779 -0.107955 0
M  V30 2603 O 244.895 1.57464 0.898602 0
M  V30 2604 C 244.943 2.65458 -2.44059 0
M  V30 2605 O 244.047 3.64566 -1.92784 0
M  V30 2606 H 243.388 0.433005 -0.503391 0
M  V30 2607 H 245.918 0.797451 -1.88419 0
M  V30 2608 H 245.928 3.13255 -2.6141 0
M  V30 2609 H 244.603 2.33244 -3.4434 0
M  V30 2610 H 243.18 3.23716 -1.851 0
M  V30 2611 N 245.365 1.30045 0.890287 0
M  V30 2612 C 246.642 1.09227 1.62262 0
M  V30 2613 C 247.022 -0.360305 2.08002 0
M  V30 2614 O 246.37 -1.35084 1.84295 0
M  V30 2615 C 246.58 2.08835 2.79623 0
M  V30 2616 C 247.928 2.40266 3.50082 0
M  V30 2617 O 248.952 2.07104 2.89804 0
M  V30 2618 O 247.811 2.96967 4.58773 0
M  V30 2619 H 244.905 0.419132 0.712922 0
M  V30 2620 H 247.451 1.41451 0.937529 0
M  V30 2621 H 246.223 3.06633 2.43089 0
M  V30 2622 H 245.846 1.77397 3.55832 0
M  V30 2623 N 246.843 -1.10192 1.12674 0
M  V30 2624 C 248.089 -1.82658 0.894847 0
M  V30 2625 C 248.444 -1.83666 -0.573107 0
M  V30 2626 O 247.737 -1.28816 -1.41835 0
M  V30 2627 C 247.931 -3.28552 1.4067 0
M  V30 2628 C 247.76 -3.41756 2.92289 0
M  V30 2629 C 246.53 -3.54021 3.60551 0
M  V30 2630 C 248.728 -3.34949 3.90274 0
M  V30 2631 N 246.71 -3.55827 5.0026 0
M  V30 2632 C 248.081 -3.43531 5.16127 0
M  V30 2633 C 250.136 -3.18565 3.8265 0
M  V30 2634 C 248.839 -3.37416 6.3525 0
M  V30 2635 C 250.865 -3.13772 5.01299 0
M  V30 2636 C 250.227 -3.22938 6.26012 0
M  V30 2637 H 246.326 -0.683044 0.380756 0
M  V30 2638 H 248.91 -1.31752 1.43351 0
M  V30 2639 H 247.081 -3.77946 0.895055 0
M  V30 2640 H 248.813 -3.88991 1.11661 0
M  V30 2641 H 245.568 -3.57135 3.1105 0
M  V30 2642 H 245.992 -3.60335 5.73138 0
M  V30 2643 H 250.634 -3.10354 2.87124 0
M  V30 2644 H 248.352 -3.44391 7.3104 0
M  V30 2645 H 251.938 -3.02242 4.97133 0
M  V30 2646 H 250.818 -3.19235 7.16281 0
M  V30 2647 N 248.321 -0.919034 -1.28029 0
M  V30 2648 C 249.568 -0.554934 -1.94748 0
M  V30 2649 C 249.896 0.90231 -1.72304 0
M  V30 2650 O 249.151 1.65767 -1.04018 0
M  V30 2651 C 249.45 -0.816855 -3.4794 0
M  V30 2652 C 249.116 -2.25448 -3.90492 0
M  V30 2653 C 247.778 -2.64752 -4.01821 0
M  V30 2654 C 250.13 -3.18977 -4.12193 0
M  V30 2655 C 247.458 -3.96727 -4.32232 0
M  V30 2656 C 249.81 -4.50523 -4.44086 0
M  V30 2657 C 248.474 -4.89673 -4.53626 0
M  V30 2658 H 247.744 -0.203065 -0.712633 0
M  V30 2659 H 250.391 -1.16136 -1.52265 0
M  V30 2660 H 248.696 -0.127677 -3.91592 0
M  V30 2661 H 250.393 -0.514238 -3.97689 0
M  V30 2662 H 246.983 -1.93952 -3.82205 0
M  V30 2663 H 251.167 -2.89817 -4.02889 0
M  V30 2664 H 246.423 -4.26754 -4.37825 0
M  V30 2665 H 250.597 -5.23005 -4.59825 0
M  V30 2666 H 248.224 -5.91969 -4.76946 0
M  V30 2667 N 249.799 1.42003 -0.683588 0
M  V30 2668 C 251.024 2.06265 -0.216647 0
M  V30 2669 C 251.449 1.51059 1.12083 0
M  V30 2670 O 250.807 0.632638 1.69904 0
M  V30 2671 C 250.855 3.60191 -0.171759 0
M  V30 2672 O 249.959 4.03396 0.857069 0
M  V30 2673 H 249.3 0.65502 -0.108834 0
M  V30 2674 H 251.83 1.81982 -0.935077 0
M  V30 2675 H 251.84 4.08 0.0014303 0
M  V30 2676 H 250.515 3.99743 -1.14796 0
M  V30 2677 H 249.092 3.67117 0.654208 0
M  V30 2678 N 251.277 0.427512 1.51691 0
M  V30 2679 C 252.24 -0.377132 2.26076 0
M  V30 2680 C 253.24 -0.958089 1.29141 0
M  V30 2681 O 254.43 -0.83408 1.52934 0
M  V30 2682 C 251.562 -1.53262 3.04506 0
M  V30 2683 H 252.755 0.27464 2.9864 0
M  V30 2684 H 250.308 0.180445 1.55255 0
M  V30 2685 H 251.043 -2.22072 2.36335 0
M  V30 2686 H 250.828 -1.12232 3.75694 0
M  V30 2687 H 252.318 -2.10135 3.60878 0
M  V30 2688 N 252.755 -1.56801 0.158532 0
M  V30 2689 C 253.685 -2.20347 -0.772609 0
M  V30 2690 C 254.666 -1.15518 -1.24859 0
M  V30 2691 O 255.851 -1.43902 -1.30406 0
M  V30 2692 C 252.981 -2.83417 -2.00729 0
M  V30 2693 C 251.935 -3.94174 -1.66765 0
M  V30 2694 C 251.261 -4.44233 -2.97592 0
M  V30 2695 C 252.561 -5.14392 -0.905447 0
M  V30 2696 H 254.255 -2.98413 -0.242959 0
M  V30 2697 H 251.801 -1.43537 -0.115419 0
M  V30 2698 H 253.754 -3.26543 -2.6636 0
M  V30 2699 H 252.478 -2.02701 -2.56086 0
M  V30 2700 H 251.137 -3.51684 -1.03508 0
M  V30 2701 H 250.785 -3.60325 -3.50963 0
M  V30 2702 H 250.485 -5.18945 -2.75626 0
M  V30 2703 H 252.009 -4.90037 -3.64274 0
M  V30 2704 H 253.423 -5.5429 -1.46408 0
M  V30 2705 H 251.82 -5.9494 -0.7853 0
M  V30 2706 H 252.89 -4.84795 0.100668 0
M  V30 2707 N 254.233 0.115231 -1.57178 0
M  V30 2708 C 255.196 1.12526 -1.99676 0
M  V30 2709 C 256.196 1.34095 -0.88742 0
M  V30 2710 O 257.386 1.30548 -1.15337 0
M  V30 2711 C 254.518 2.4789 -2.34015 0
M  V30 2712 H 255.711 0.759912 -2.90113 0
M  V30 2713 H 253.264 0.359648 -1.52106 0
M  V30 2714 H 253.999 2.89339 -1.4647 0
M  V30 2715 H 253.784 2.33588 -3.14927 0
M  V30 2716 H 255.274 3.20575 -2.67622 0
M  V30 2717 N 255.711 1.52812 0.385517 0
M  V30 2718 C 256.959 1.67694 1.12797 0
M  V30 2719 C 257.28 0.421115 1.90399 0
M  V30 2720 O 256.55 -0.564551 1.87589 0
M  V30 2721 H 255.13 0.618155 0.419396 0
M  V30 2722 H 257.792 1.89938 0.436972 0
M  V30 2723 H 256.888 2.52896 1.82894 0
M  V30 2724 N 257.189 -0.644168 1.43834 0
M  V30 2725 C 258.121 -1.76955 1.45669 0
M  V30 2726 C 259.134 -1.58956 0.351666 0
M  V30 2727 O 260.323 -1.6751 0.616644 0
M  V30 2728 C 257.423 -3.14507 1.26248 0
M  V30 2729 C 256.596 -3.59083 2.49757 0
M  V30 2730 C 255.655 -4.75467 2.25427 0
M  V30 2731 O 254.681 -4.84444 2.98836 0
M  V30 2732 N 255.883 -5.66289 1.27661 0
M  V30 2733 H 258.648 -1.75856 2.42682 0
M  V30 2734 H 256.209 -0.828312 1.39106 0
M  V30 2735 H 258.201 -3.90067 1.0784 0
M  V30 2736 H 256.771 -3.10325 0.376478 0
M  V30 2737 H 255.991 -2.7387 2.8353 0
M  V30 2738 H 257.279 -3.85613 3.31934 0
M  V30 2739 H 256.677 -5.61718 0.670064 0
M  V30 2740 H 255.234 -6.41533 1.15234 0
M  V30 2741 N 258.668 -1.30515 -0.883378 0
M  V30 2742 C 259.6 -1.12846 -1.99496 0
M  V30 2743 C 260.613 -0.0712571 -1.62644 0
M  V30 2744 O 261.802 -0.317432 -1.75655 0
M  V30 2745 C 258.902 -0.699123 -3.3161 0
M  V30 2746 C 258.075 -1.83842 -3.96889 0
M  V30 2747 C 257.134 -1.39737 -5.07307 0
M  V30 2748 O 256.16 -2.10485 -5.28852 0
M  V30 2749 N 257.362 -0.277279 -5.79837 0
M  V30 2750 H 260.127 -2.08585 -2.15203 0
M  V30 2751 H 257.688 -1.22672 -1.05656 0
M  V30 2752 H 259.68 -0.387044 -4.02845 0
M  V30 2753 H 258.25 0.166276 -3.12157 0
M  V30 2754 H 257.47 -2.31853 -3.18807 0
M  V30 2755 H 258.758 -2.60187 -4.37241 0
M  V30 2756 H 258.156 0.3122 -5.64838 0
M  V30 2757 H 256.713 -0.0246623 -6.51795 0
M  V30 2758 N 260.146 1.09593 -1.13257 0
M  V30 2759 C 261.393 1.81734 -0.893257 0
M  V30 2760 C 261.721 1.8563 0.580656 0
M  V30 2761 O 260.976 1.31906 1.44566 0
M  V30 2762 C 261.275 3.27802 -1.42411 0
M  V30 2763 C 260.941 3.44041 -2.91456 0
M  V30 2764 C 259.603 3.48181 -3.3215 0
M  V30 2765 C 261.955 3.48719 -3.87356 0
M  V30 2766 C 259.283 3.54575 -4.67433 0
M  V30 2767 C 261.635 3.56648 -5.2248 0
M  V30 2768 C 260.299 3.59055 -5.62704 0
M  V30 2769 H 259.569 0.665011 -0.326866 0
M  V30 2770 H 262.216 1.2912 -1.41422 0
M  V30 2771 H 260.521 3.83042 -0.823795 0
M  V30 2772 H 262.218 3.82149 -1.21503 0
M  V30 2773 H 258.808 3.41502 -2.58987 0
M  V30 2774 H 262.992 3.44763 -3.57004 0
M  V30 2775 H 258.248 3.54725 -4.97976 0
M  V30 2776 H 262.422 3.59212 -5.96607 0
M  V30 2777 H 260.049 3.63763 -6.67518 0
M  V30 2778 N 261.624 0.925811 1.2754 0
M  V30 2779 C 262.587 0.428129 2.25166 0
M  V30 2780 C 263.587 -0.452261 1.54309 0
M  V30 2781 O 264.777 -0.253608 1.72344 0
M  V30 2782 C 261.909 -0.384749 3.38722 0
M  V30 2783 H 263.102 1.29066 2.70706 0
M  V30 2784 H 260.655 0.706323 1.3943 0
M  V30 2785 H 261.39 -1.26618 2.98561 0
M  V30 2786 H 261.175 0.246454 3.91325 0
M  V30 2787 H 262.665 -0.723389 4.11287 0
M  V30 2788 N 263.102 -1.41638 0.69111 0
M  V30 2789 C 264.035 -2.28183 -0.0274913 0
M  V30 2790 C 265.013 -1.41984 -0.792424 0
M  V30 2791 O 266.197 -1.71415 -0.784169 0
M  V30 2792 C 263.324 -3.22135 -1.04628 0
M  V30 2793 C 262.37 -4.24848 -0.375037 0
M  V30 2794 S 263.203 -5.28231 0.879321 0
M  V30 2795 C 264.359 -6.25748 -0.137983 0
M  V30 2796 H 264.592 -2.88782 0.706553 0
M  V30 2797 H 262.125 -1.46709 0.481222 0
M  V30 2798 H 264.083 -3.76797 -1.62894 0
M  V30 2799 H 262.744 -2.6064 -1.75287 0
M  V30 2800 H 261.937 -4.90837 -1.14433 0
M  V30 2801 H 261.539 -3.73758 0.134434 0
M  V30 2802 H 263.831 -6.70188 -0.992659 0
M  V30 2803 H 264.774 -7.06417 0.487867 0
M  V30 2804 H 265.182 -5.62363 -0.490762 0
M  V30 2805 N 264.58 -0.43555 -1.51462 0
M  V30 2806 C 265.829 0.133007 -2.01261 0
M  V30 2807 C 266.142 1.43942 -1.32439 0
M  V30 2808 O 267.348 2.09081 -1.73198 0
M  V30 2809 C 265.804 0.287581 -3.58749 0
M  V30 2810 C 265.412 -1.00829 -4.36506 0
M  V30 2811 C 267.156 0.810004 -4.167 0
M  V30 2812 C 265.063 -0.819454 -5.85695 0
M  V30 2813 H 263.993 0.0534822 -0.752101 0
M  V30 2814 H 266.644 -0.565038 -1.74584 0
M  V30 2815 H 265.026 1.04859 -3.81865 0
M  V30 2816 H 266.2 -1.77749 -4.25138 0
M  V30 2817 H 264.515 -1.45911 -3.89999 0
M  V30 2818 H 267.112 0.967743 -5.2587 0
M  V30 2819 H 267.455 1.79196 -3.75758 0
M  V30 2820 H 267.988 0.107357 -3.97655 0
M  V30 2821 H 264.727 -1.77374 -6.31046 0
M  V30 2822 H 264.247 -0.0900208 -5.99732 0
M  V30 2823 H 265.926 -0.471949 -6.45276 0
M  V30 2824 N 266.058 1.56714 -0.166846 0
M  V30 2825 C 267.304 1.97039 0.479962 0
M  V30 2826 C 267.637 1.05264 1.63197 0
M  V30 2827 O 266.912 0.0988833 1.94248 0
M  V30 2828 C 267.195 3.46867 0.967212 0
M  V30 2829 C 267.048 4.49421 -0.18466 0
M  V30 2830 C 268.367 3.9968 1.84238 0
M  V30 2831 H 265.486 0.71641 0.172992 0
M  V30 2832 H 268.128 1.8832 -0.252079 0
M  V30 2833 H 266.278 3.54428 1.59101 0
M  V30 2834 H 267.95 4.53924 -0.821621 0
M  V30 2835 H 266.193 4.25573 -0.840837 0
M  V30 2836 H 266.864 5.51644 0.198317 0
M  V30 2837 H 269.34 3.94723 1.31655 0
M  V30 2838 H 268.216 5.04941 2.15234 0
M  V30 2839 H 268.477 3.43226 2.78654 0
M  V30 2840 N 267.536 -0.106894 1.57237 0
M  V30 2841 C 268.761 -0.830287 1.90055 0
M  V30 2842 C 269.186 -1.72064 0.75998 0
M  V30 2843 O 268.544 -1.78982 -0.288991 0
M  V30 2844 C 268.592 -1.6295 3.21683 0
M  V30 2845 O 267.696 -2.73748 3.08441 0
M  V30 2846 H 267.037 -0.228855 0.623315 0
M  V30 2847 H 269.567 -0.085658 2.04421 0
M  V30 2848 H 269.577 -2.01621 3.54701 0
M  V30 2849 H 268.252 -0.975989 4.04286 0
M  V30 2850 H 266.829 -2.38192 2.86913 0
M  V30 2851 N 269.014 -1.53014 -0.377408 0
M  V30 2852 C 269.962 -1.7927 -1.48206 0
M  V30 2853 C 270.956 -0.661195 -1.55963 0
M  V30 2854 O 272.162 -0.843908 -1.58991 0
M  V30 2855 H 268.537 -0.567425 -0.493491 0
M  V30 2856 H 270.508 -2.71753 -1.2326 0
M  V30 2857 C 269.257 -1.98894 -2.85196 0
M  V30 2858 H 268.58 -2.85395 -2.79981 0
M  V30 2859 H 270.02 -2.21249 -3.61698 0
M  V30 2860 C 268.479 -0.764691 -3.28107 0
M  V30 2861 O 269.009 0.0523226 -4.01666 0
M  V30 2862 N 267.215 -0.591493 -2.84517 0
M  V30 2863 H 266.762 -1.25749 -2.24822 0
M  V30 2864 H 266.72 0.226253 -3.13585 0
M  V30 2865 N 270.492 0.636531 -1.44174 0
M  V30 2866 C 271.903 1.21806 -1.41493 0
M  V30 2867 C 272.254 1.95785 -0.1275 0
M  V30 2868 O 271.379 2.02147 0.772376 0
M  V30 2869 C 271.974 2.21551 -2.56321 0
M  V30 2870 C 270.533 2.75143 -2.56853 0
M  V30 2871 C 269.68 1.50052 -2.33195 0
M  V30 2872 H 272.631 0.427531 -1.52833 0
M  V30 2873 H 272.652 3.0405 -2.28765 0
M  V30 2874 H 272.164 1.67679 -3.50008 0
M  V30 2875 H 270.265 3.33033 -1.67093 0
M  V30 2876 H 270.378 3.2155 -3.55165 0
M  V30 2877 H 268.742 1.77993 -1.82183 0
M  V30 2878 H 269.525 0.980903 -3.28988 0
M  V30 2879 N 271.97 1.30982 0.876444 0
M  V30 2880 C 273.381 1.18277 1.44456 0
M  V30 2881 C 273.732 -0.213265 1.95037 0
M  V30 2882 O 272.857 -1.11057 1.85729 0
M  V30 2883 C 273.452 2.1411 2.62569 0
M  V30 2884 C 272.011 2.05358 3.15444 0
M  V30 2885 C 271.158 2.03706 1.88146 0
M  V30 2886 H 274.109 1.43127 0.685584 0
M  V30 2887 H 274.13 1.72692 3.39054 0
M  V30 2888 H 273.642 3.15706 2.25724 0
M  V30 2889 H 271.743 1.06934 3.56926 0
M  V30 2890 H 271.856 2.94156 3.78166 0
M  V30 2891 H 270.22 1.48629 2.06837 0
M  V30 2892 H 271.003 3.07047 1.53547 0
M  V30 2893 N 273.449 -1.08991 1.13837 0
M  V30 2894 C 274.679 -1.84743 0.924859 0
M  V30 2895 C 275.087 -1.81629 -0.529874 0
M  V30 2896 O 274.43 -1.21397 -1.37872 0
M  V30 2897 C 274.492 -3.33568 1.34061 0
M  V30 2898 C 274.156 -3.60425 2.80968 0
M  V30 2899 C 275.153 -3.55771 3.79108 0
M  V30 2900 C 272.838 -3.88627 3.18236 0
M  V30 2901 C 274.832 -3.78939 5.12527 0
M  V30 2902 C 272.519 -4.11449 4.51833 0
M  V30 2903 C 273.517 -4.06598 5.48787 0
M  V30 2904 O 273.205 -4.28826 6.79973 0
M  V30 2905 H 272.937 -0.590258 0.329502 0
M  V30 2906 H 275.491 -1.38598 1.51591 0
M  V30 2907 H 273.721 -3.80442 0.692853 0
M  V30 2908 H 275.41 -3.90743 1.09886 0
M  V30 2909 H 276.176 -3.34005 3.51661 0
M  V30 2910 H 272.055 -3.91526 2.43369 0
M  V30 2911 H 275.599 -3.75068 5.88192 0
M  V30 2912 H 271.496 -4.32698 4.79002 0
M  V30 2913 H 272.264 -4.46264 6.86142 0
M  V30 2914 N 274.927 -0.932562 -1.27047 0
M  V30 2915 C 276.176 -0.571351 -1.93439 0
M  V30 2916 C 276.489 0.892467 -1.74053 0
M  V30 2917 O 277.695 1.36267 -2.34826 0
M  V30 2918 C 276.151 -0.97106 -3.46552 0
M  V30 2919 C 275.759 -2.4559 -3.74686 0
M  V30 2920 C 277.503 -0.681333 -4.18997 0
M  V30 2921 C 275.41 -2.79475 -5.21198 0
M  V30 2922 H 274.34 -0.209966 -0.724176 0
M  V30 2923 H 276.991 -1.13403 -1.44263 0
M  V30 2924 H 275.373 -0.336983 -3.94564 0
M  V30 2925 H 276.547 -3.13829 -3.37414 0
M  V30 2926 H 274.862 -2.71802 -3.15456 0
M  V30 2927 H 277.459 -0.910939 -5.26883 0
M  V30 2928 H 277.802 0.381628 -4.14547 0
M  V30 2929 H 278.335 -1.27473 -3.76823 0
M  V30 2930 H 275.074 -3.847 -5.30741 0
M  V30 2931 H 274.594 -2.1589 -5.596 0
M  V30 2932 H 276.273 -2.67478 -5.89122 0
M  V30 2933 N 276.405 1.4127 -0.698611 0
M  V30 2934 C 277.682 1.94955 -0.158762 0
M  V30 2935 C 278.062 1.63781 1.33188 0
M  V30 2936 O 277.41 0.946423 2.07979 0
M  V30 2937 C 277.62 3.46044 -0.453309 0
M  V30 2938 C 278.968 4.22872 -0.382707 0
M  V30 2939 O 279.992 3.54076 -0.388396 0
M  V30 2940 O 278.851 5.45407 -0.345463 0
M  V30 2941 H 275.945 0.82683 -0.0167505 0
M  V30 2942 H 278.491 1.50971 -0.77498 0
M  V30 2943 H 277.263 3.62028 -1.48498 0
M  V30 2944 H 276.886 3.97128 0.19373 0
M  V30 2945 N 277.883 0.443576 1.51229 0
M  V30 2946 C 278.793 -0.370721 2.31652 0
M  V30 2947 C 279.809 -1.02186 1.40833 0
M  V30 2948 O 280.985 -1.01586 1.73903 0
M  V30 2949 C 278.05 -1.45376 3.14749 0
M  V30 2950 C 277.111 -0.822099 4.21355 0
M  V30 2951 C 276.344 -1.85353 5.0048 0
M  V30 2952 O 276.567 -3.07656 4.80316 0
M  V30 2953 O 275.501 -1.4406 5.84406 0
M  V30 2954 H 279.327 0.286002 3.0235 0
M  V30 2955 H 276.912 0.20598 1.47973 0
M  V30 2956 H 278.794 -2.08173 3.66391 0
M  V30 2957 H 277.469 -2.09445 2.46809 0
M  V30 2958 H 276.376 -0.155909 3.73775 0
M  V30 2959 H 277.709 -0.224797 4.91686 0
M  V30 2960 N 279.361 -1.56624 0.175154 0
M  V30 2961 C 280.293 -2.15333 -0.785128 0
M  V30 2962 C 281.306 -1.1099 -1.19101 0
M  V30 2963 O 282.495 -1.38162 -1.13019 0
M  V30 2964 C 279.595 -2.68427 -2.06882 0
M  V30 2965 C 278.768 -3.97466 -1.8259 0
M  V30 2966 C 277.827 -4.35585 -2.95215 0
M  V30 2967 O 276.853 -5.03389 -2.65684 0
M  V30 2968 N 278.055 -3.97457 -4.23094 0
M  V30 2969 H 280.82 -2.98359 -0.283187 0
M  V30 2970 H 278.381 -1.61898 -0.00749817 0
M  V30 2971 H 280.373 -2.90924 -2.81328 0
M  V30 2972 H 278.943 -1.89968 -2.48256 0
M  V30 2973 H 278.163 -3.83307 -0.920287 0
M  V30 2974 H 279.451 -4.81736 -1.63733 0
M  V30 2975 H 278.849 -3.42878 -4.49945 0
M  V30 2976 H 277.406 -4.24947 -4.9423 0
M  V30 2977 N 280.839 0.0985539 -1.57292 0
M  V30 2978 C 282.116 0.834155 -1.76921 0
M  V30 2979 C 282.496 1.97101 -0.755928 0
M  V30 2980 O 281.844 2.27474 0.216245 0
M  V30 2981 C 282.054 1.33194 -3.22584 0
M  V30 2982 C 283.402 1.77611 -3.85668 0
M  V30 2983 O 284.426 1.42825 -3.26312 0
M  V30 2984 O 283.285 2.4192 -4.90038 0
M  V30 2985 H 280.379 0.397628 -0.725135 0
M  V30 2986 H 282.925 0.0807044 -1.69508 0
M  V30 2987 H 281.697 0.517248 -3.87866 0
M  V30 2988 H 281.32 2.1475 -3.34616 0
M  V30 2989 N 282.317 1.53212 0.369288 0
M  V30 2990 C 283.728 1.60943 0.946276 0
M  V30 2991 C 284.079 0.47452 1.90375 0
M  V30 2992 O 283.204 -0.399597 2.12679 0
M  V30 2993 C 283.799 2.91715 1.72302 0
M  V30 2994 C 282.358 3.01792 2.24941 0
M  V30 2995 C 281.505 2.56211 1.06072 0
M  V30 2996 H 284.456 1.58007 0.148198 0
M  V30 2997 H 284.477 2.79309 2.58393 0
M  V30 2998 H 283.989 3.74295 1.0259 0
M  V30 2999 H 282.09 2.23791 2.97906 0
M  V30 3000 H 282.203 4.06803 2.53077 0
M  V30 3001 H 280.567 2.10998 1.4266 0
M  V30 3002 H 281.35 3.41206 0.378639 0
M  V30 3003 N 283.795 -0.628877 1.44509 0
M  V30 3004 C 284.745 -1.7345 1.47983 0
M  V30 3005 C 285.729 -1.5715 0.345373 0
M  V30 3006 O 286.921 -1.66848 0.590829 0
M  V30 3007 C 284.05 -3.12143 1.42904 0
M  V30 3008 C 283.136 -3.33906 2.61472 0
M  V30 3009 N 283.527 -3.26024 3.86706 0
M  V30 3010 C 281.825 -3.64709 2.56716 0
M  V30 3011 C 282.526 -3.48536 4.65722 0
M  V30 3012 N 281.502 -3.71517 3.96832 0
M  V30 3013 H 285.304 -1.65818 2.42655 0
M  V30 3014 H 282.818 -0.831419 1.39503 0
M  V30 3015 H 284.815 -3.91433 1.43476 0
M  V30 3016 H 283.475 -3.2094 0.492717 0
M  V30 3017 H 284.486 -3.04893 4.18641 0
M  V30 3018 H 281.163 -3.80473 1.71891 0
M  V30 3019 H 282.553 -3.48016 5.74747 0
M  V30 3020 N 285.273 -1.31445 -0.869486 0
M  V30 3021 C 286.203 -1.21727 -1.99261 0
M  V30 3022 C 287.184 -0.104359 -1.6978 0
M  V30 3023 O 288.369 -0.289038 -1.92037 0
M  V30 3024 C 285.499 -0.924317 -3.34774 0
M  V30 3025 C 284.453 -1.99685 -3.78563 0
M  V30 3026 C 283.779 -1.55658 -5.11541 0
M  V30 3027 C 285.079 -3.41003 -3.95619 0
M  V30 3028 H 286.773 -2.1569 -2.07649 0
M  V30 3029 H 284.319 -1.03839 -0.997675 0
M  V30 3030 H 286.272 -0.842934 -4.12883 0
M  V30 3031 H 284.996 0.0509793 -3.2656 0
M  V30 3032 H 283.655 -2.06813 -3.02694 0
M  V30 3033 H 283.303 -0.569132 -4.9977 0
M  V30 3034 H 283.003 -2.27409 -5.41811 0
M  V30 3035 H 284.527 -1.48928 -5.92159 0
M  V30 3036 H 285.941 -3.36547 -4.64122 0
M  V30 3037 H 284.338 -4.10975 -4.37286 0
M  V30 3038 H 285.408 -3.81754 -2.98985 0
M  V30 3039 N 286.751 1.08385 -1.14413 0
M  V30 3040 C 287.683 2.1519 -0.789036 0
M  V30 3041 C 288.696 1.61638 0.19417 0
M  V30 3042 O 289.885 1.78479 -0.0275711 0
M  V30 3043 C 286.985 3.38565 -0.15058 0
M  V30 3044 C 286.158 4.21501 -1.16857 0
M  V30 3045 C 285.217 5.23277 -0.553832 0
M  V30 3046 O 284.243 5.56041 -1.21686 0
M  V30 3047 N 285.445 5.76629 0.669296 0
M  V30 3048 H 288.21 2.46257 -1.70814 0
M  V30 3049 H 285.771 1.24198 -1.03858 0
M  V30 3050 H 287.763 4.03777 0.273181 0
M  V30 3051 H 286.333 3.05299 0.671667 0
M  V30 3052 H 285.553 3.52265 -1.76926 0
M  V30 3053 H 286.841 4.73731 -1.85624 0
M  V30 3054 H 286.239 5.52243 1.22654 0
M  V30 3055 H 284.796 6.43521 1.03556 0
M  V30 3056 N 288.23 0.939286 1.26551 0
M  V30 3057 C 289.162 0.404704 2.25599 0
M  V30 3058 C 290.175 -0.470983 1.55838 0
M  V30 3059 O 291.364 -0.281734 1.76263 0
M  V30 3060 C 288.464 -0.43764 3.36062 0
M  V30 3061 C 287.637 0.421449 4.35365 0
M  V30 3062 C 286.696 -0.36015 5.24966 0
M  V30 3063 O 285.722 0.236167 5.6871 0
M  V30 3064 N 286.924 -1.65715 5.56344 0
M  V30 3065 H 289.689 1.25618 2.72103 0
M  V30 3066 H 287.25 0.807963 1.40298 0
M  V30 3067 H 289.242 -0.967866 3.92956 0
M  V30 3068 H 287.812 -1.18991 2.89067 0
M  V30 3069 H 287.032 1.1329 3.7757 0
M  V30 3070 H 288.32 1.00835 4.98708 0
M  V30 3071 H 287.718 -2.16378 5.22682 0
M  V30 3072 H 286.275 -2.13366 6.15888 0
M  V30 3073 N 289.708 -1.40897 0.706093 0
M  V30 3074 C 290.956 -2.00657 0.241054 0
M  V30 3075 C 291.277 -1.56241 -1.16678 0
M  V30 3076 O 290.547 -0.79765 -1.78926 0
M  V30 3077 H 289.127 -0.742018 0.0861308 0
M  V30 3078 H 291.789 -1.72372 0.909604 0
M  V30 3079 H 290.885 -3.10958 0.266705 0
M  V30 3080 N 291.186 -0.45159 -1.50991 0
M  V30 3081 C 292.463 0.170707 -1.94854 0
M  V30 3082 C 292.843 1.58788 -1.39103 0
M  V30 3083 O 292.191 2.20913 -0.583921 0
M  V30 3084 C 292.401 0.133929 -3.48743 0
M  V30 3085 C 293.749 0.33248 -4.23296 0
M  V30 3086 O 294.773 0.211403 -3.55572 0
M  V30 3087 O 293.632 0.57486 -5.43468 0
M  V30 3088 H 290.726 0.122264 -0.817912 0
M  V30 3089 H 293.272 -0.510594 -1.61836 0
M  V30 3090 H 292.044 -0.856283 -3.81816 0
M  V30 3091 H 291.667 0.857529 -3.88242 0
M  V30 3092 N 292.664 1.56529 -0.183458 0
M  V30 3093 C 293.91 1.97537 0.459036 0
M  V30 3094 C 294.243 1.06989 1.62071 0
M  V30 3095 O 293.518 0.11948 1.94133 0
M  V30 3096 C 293.801 3.47874 0.930368 0
M  V30 3097 C 293.654 4.492 -0.232317 0
M  V30 3098 C 294.973 4.01612 1.79989 0
M  V30 3099 H 292.092 0.718204 0.165383 0
M  V30 3100 H 294.734 1.88042 -0.272038 0
M  V30 3101 H 292.884 3.56095 1.55333 0
M  V30 3102 H 294.556 4.53027 -0.86972 0
M  V30 3103 H 292.799 4.24657 -0.885928 0
M  V30 3104 H 293.47 5.51823 0.139796 0
M  V30 3105 H 295.946 3.96097 1.27461 0
M  V30 3106 H 294.822 5.07195 2.09867 0
M  V30 3107 H 295.083 3.46163 2.74998 0
M  V30 3108 N 294.142 -0.090211 1.57342 0
M  V30 3109 C 295.558 -0.444547 1.53284 0
M  V30 3110 C 295.758 -1.80238 0.900914 0
M  V30 3111 O 294.814 -2.4759 0.495513 0
M  V30 3112 C 296.127 -0.402543 2.97993 0
M  V30 3113 C 297.675 -0.48405 3.09234 0
M  V30 3114 C 298.15 -0.472144 4.5556 0
M  V30 3115 N 299.641 -0.532757 4.60126 0
M  V30 3116 C 300.376 -0.545462 5.708 0
M  V30 3117 N 299.872 -0.514082 6.9089 0
M  V30 3118 N 301.665 -0.59064 5.58988 0
M  V30 3119 H 293.816 0.799121 1.96794 0
M  V30 3120 H 296.079 0.297965 0.899956 0
M  V30 3121 H 295.785 0.528106 3.47712 0
M  V30 3122 H 295.659 -1.21969 3.56936 0
M  V30 3123 H 298.046 -1.40512 2.595 0
M  V30 3124 H 298.127 0.361328 2.53235 0
M  V30 3125 H 297.771 0.445 5.05947 0
M  V30 3126 H 297.701 -1.3348 5.09402 0
M  V30 3127 H 300.192 -0.562006 3.73698 0
M  V30 3128 H 300.505 -0.527195 7.71 0
M  V30 3129 H 298.85 -0.481054 6.93333 0
M  V30 3130 H 302.041 -0.61272 4.64073 0
M  V30 3131 H 302.214 -0.597073 6.45243 0
M  V30 3132 N 295.62 -1.53406 -0.361157 0
M  V30 3133 C 296.867 -1.69802 -1.10333 0
M  V30 3134 C 297.195 -0.452087 -1.89173 0
M  V30 3135 O 296.45 0.566017 -1.87336 0
M  V30 3136 C 296.749 -2.90211 -2.08596 0
M  V30 3137 C 296.415 -4.26539 -1.46203 0
M  V30 3138 C 295.077 -4.6361 -1.28915 0
M  V30 3139 C 297.429 -5.113 -1.01101 0
M  V30 3140 C 294.757 -5.83075 -0.651157 0
M  V30 3141 C 297.109 -6.31415 -0.387007 0
M  V30 3142 C 295.773 -6.67195 -0.201657 0
M  V30 3143 H 295.043 -0.621351 -0.403737 0
M  V30 3144 H 297.69 -1.87598 -0.384609 0
M  V30 3145 H 295.995 -2.66946 -2.86788 0
M  V30 3146 H 297.692 -3.00091 -2.65982 0
M  V30 3147 H 294.282 -3.97352 -1.60653 0
M  V30 3148 H 298.466 -4.83206 -1.13249 0
M  V30 3149 H 293.722 -6.09385 -0.496006 0
M  V30 3150 H 297.896 -6.96394 -0.0293563 0
M  V30 3151 H 295.523 -7.59628 0.294766 0
M  V30 3152 N 297.098 0.621204 -1.44841 0
M  V30 3153 C 298.008 1.7612 -1.5498 0
M  V30 3154 C 299.024 1.68477 -0.434927 0
M  V30 3155 O 300.2 1.89076 -0.693693 0
M  V30 3156 C 297.265 3.1254 -1.50065 0
M  V30 3157 C 296.326 3.31741 -2.72482 0
M  V30 3158 C 295.559 4.61653 -2.67792 0
M  V30 3159 O 295.782 5.431 -1.74352 0
M  V30 3160 O 294.716 4.83271 -3.58794 0
M  V30 3161 H 298.542 1.70518 -2.51311 0
M  V30 3162 H 296.127 0.783643 -1.27198 0
M  V30 3163 H 298.009 3.93844 -1.49882 0
M  V30 3164 H 296.684 3.18663 -0.568806 0
M  V30 3165 H 295.591 2.50077 -2.7823 0
M  V30 3166 H 296.924 3.30486 -3.64746 0
M  V30 3167 N 298.576 1.31904 0.862503 0
M  V30 3168 C 299.987 1.19803 1.43193 0
M  V30 3169 C 300.338 -0.192567 1.95253 0
M  V30 3170 O 299.463 -1.09081 1.86896 0
M  V30 3171 C 300.058 2.16883 2.60283 0
M  V30 3172 C 298.617 2.08692 3.13248 0
M  V30 3173 C 297.764 2.05691 1.85975 0
M  V30 3174 H 300.715 1.43846 0.670365 0
M  V30 3175 H 300.736 1.76278 3.37204 0
M  V30 3176 H 300.248 3.18083 2.22363 0
M  V30 3177 H 298.349 1.10713 3.55771 0
M  V30 3178 H 298.462 2.9815 3.75025 0
M  V30 3179 H 296.826 1.50814 2.05249 0
M  V30 3180 H 297.609 3.08659 1.50282 0
M  V30 3181 N 300.054 -1.07777 1.14986 0
M  V30 3182 C 300.984 -2.16865 0.865557 0
M  V30 3183 C 301.965 -1.69123 -0.182083 0
M  V30 3184 O 303.15 -1.94164 -0.0373815 0
M  V30 3185 C 300.28 -3.45539 0.349313 0
M  V30 3186 C 299.234 -4.06708 1.33313 0
M  V30 3187 C 298.56 -5.30411 0.675918 0
M  V30 3188 C 299.86 -4.47241 2.69764 0
M  V30 3189 H 301.554 -2.40905 1.77778 0
M  V30 3190 H 299.1 -1.15781 0.856203 0
M  V30 3191 H 301.053 -4.21174 0.137983 0
M  V30 3192 H 299.777 -3.21072 -0.598362 0
M  V30 3193 H 298.436 -3.33112 1.53075 0
M  V30 3194 H 298.084 -5.02232 -0.277767 0
M  V30 3195 H 297.784 -5.72293 1.33244 0
M  V30 3196 H 299.308 -6.08755 0.474262 0
M  V30 3197 H 300.722 -5.14025 2.53873 0
M  V30 3198 H 299.119 -5.00062 3.3175 0
M  V30 3199 H 300.189 -3.58818 3.26156 0
M  V30 3200 N 301.532 -0.945985 -1.26051 0
M  V30 3201 C 302.76 -0.613025 -1.9761 0
M  V30 3202 C 303.175 0.813035 -1.70397 0
M  V30 3203 O 302.532 1.54274 -0.974979 0
M  V30 3204 C 302.583 -0.85159 -3.51326 0
M  V30 3205 O 302.304 -2.22157 -3.77595 0
M  V30 3206 C 303.805 -0.529831 -4.40122 0
M  V30 3207 H 301.025 -0.230593 -0.630133 0
M  V30 3208 H 303.569 -1.268 -1.60443 0
M  V30 3209 H 301.724 -0.243151 -3.86636 0
M  V30 3210 H 302.138 -2.2852 -4.721 0
M  V30 3211 H 303.612 -0.747348 -5.46917 0
M  V30 3212 H 304.089 0.535341 -4.35925 0
M  V30 3213 H 304.695 -1.11721 -4.10364 0
M  V30 3214 N 303.011 1.40521 -0.713556 0
M  V30 3215 C 303.974 2.29098 -0.0684347 0
M  V30 3216 C 304.974 1.45268 0.689472 0
M  V30 3217 O 306.164 1.66205 0.521677 0
M  V30 3218 C 303.296 3.28446 0.913024 0
M  V30 3219 H 304.489 2.87645 -0.84855 0
M  V30 3220 H 302.042 1.48809 -0.47809 0
M  V30 3221 H 302.777 2.74913 1.72027 0
M  V30 3222 H 302.562 3.90327 0.372472 0
M  V30 3223 H 304.052 3.94777 1.36165 0
M  V30 3224 N 304.489 0.459591 1.5075 0
M  V30 3225 C 305.419 -0.330644 2.31147 0
M  V30 3226 C 306.4 -1.00087 1.37538 0
M  V30 3227 O 307.585 -1.00025 1.66459 0
M  V30 3228 C 304.715 -1.41958 3.16962 0
M  V30 3229 C 303.669 -0.871608 4.19031 0
M  V30 3230 C 302.995 -2.05797 4.9351 0
M  V30 3231 C 304.295 0.109251 5.22186 0
M  V30 3232 H 305.989 0.340336 2.97459 0
M  V30 3233 H 303.535 0.165119 1.4305 0
M  V30 3234 H 305.488 -1.9798 3.71997 0
M  V30 3235 H 304.212 -2.11917 2.48513 0
M  V30 3236 H 302.871 -0.333442 3.6508 0
M  V30 3237 H 302.519 -2.74427 4.21544 0
M  V30 3238 H 302.219 -1.6976 5.62544 0
M  V30 3239 H 303.743 -2.62331 5.51375 0
M  V30 3240 H 305.157 -0.361405 5.7216 0
M  V30 3241 H 303.554 0.383316 5.98875 0
M  V30 3242 H 304.624 1.03887 4.73641 0
M  V30 3243 N 305.967 -1.56429 0.191757 0
M  V30 3244 C 307.213 -1.97777 -0.448554 0
M  V30 3245 C 307.546 -1.07847 -1.61501 0
M  V30 3246 O 306.821 -0.129774 -1.94067 0
M  V30 3247 C 307.104 -3.48362 -0.911906 0
M  V30 3248 C 306.957 -4.4907 0.256136 0
M  V30 3249 C 308.276 -4.02561 -1.77857 0
M  V30 3250 H 305.395 -0.719071 -0.161572 0
M  V30 3251 H 308.037 -1.87896 0.282007 0
M  V30 3252 H 306.187 -3.56914 -1.53442 0
M  V30 3253 H 307.859 -4.5256 0.893733 0
M  V30 3254 H 306.102 -4.24181 0.908436 0
M  V30 3255 H 306.773 -5.51889 -0.11053 0
M  V30 3256 H 309.249 -3.96767 -1.25359 0
M  V30 3257 H 308.125 -5.08301 -2.07174 0
M  V30 3258 H 308.386 -3.47616 -2.73158 0
M  V30 3259 N 307.445 0.0818655 -1.57387 0
M  V30 3260 C 308.408 1.08265 -2.02018 0
M  V30 3261 C 309.408 1.32183 -0.915664 0
M  V30 3262 O 310.598 1.28073 -1.18081 0
M  V30 3263 C 307.73 2.42871 -2.39221 0
M  V30 3264 H 308.923 0.698204 -2.91659 0
M  V30 3265 H 306.476 0.327303 -1.52835 0
M  V30 3266 H 307.211 2.86167 -1.52575 0
M  V30 3267 H 306.996 2.26855 -3.19811 0
M  V30 3268 H 308.486 3.14826 -2.74362 0
M  V30 3269 N 308.923 1.53595 0.353017 0
M  V30 3270 C 309.886 1.80232 1.41594 0
M  V30 3271 C 310.886 0.673081 1.46035 0
M  V30 3272 O 312.076 0.941335 1.46576 0
M  V30 3273 C 309.208 1.93578 2.80607 0
M  V30 3274 H 310.401 2.75174 1.19244 0
M  V30 3275 H 307.954 1.44864 0.586872 0
M  V30 3276 H 308.689 1.00746 3.08254 0
M  V30 3277 H 308.474 2.75724 2.78781 0
M  V30 3278 H 309.964 2.15735 3.57558 0
M  V30 3279 N 310.401 -0.613514 1.45168 0
M  V30 3280 C 311.678 -1.37263 1.39349 0
M  V30 3281 C 312.058 -2.11012 0.0610848 0
M  V30 3282 O 311.406 -2.07502 -0.956825 0
M  V30 3283 C 311.616 -2.3244 2.60332 0
M  V30 3284 C 312.964 -2.9523 3.05163 0
M  V30 3285 O 313.988 -2.42762 2.60663 0
M  V30 3286 O 312.847 -3.90454 3.82372 0
M  V30 3287 H 309.941 -0.615188 0.552696 0
M  V30 3288 H 312.487 -0.637097 1.57287 0
M  V30 3289 H 311.259 -1.77164 3.48896 0
M  V30 3290 H 310.882 -3.13383 2.44698 0
M  V30 3291 N 311.879 -1.3236 -0.855495 0
M  V30 3292 C 313.104 -1.2601 -1.64731 0
M  V30 3293 C 313.529 0.169068 -1.87339 0
M  V30 3294 O 312.887 1.12016 -1.42556 0
M  V30 3295 C 312.935 -2.02417 -2.98429 0
M  V30 3296 O 312.039 -1.3714 -3.8893 0
M  V30 3297 H 311.38 -0.434325 -0.502253 0
M  V30 3298 H 313.91 -1.74661 -1.06558 0
M  V30 3299 H 313.92 -2.12559 -3.48257 0
M  V30 3300 H 312.595 -3.06343 -2.81295 0
M  V30 3301 H 311.172 -1.3554 -3.47395 0
M  V30 3302 N 313.357 1.07166 -1.15556 0
M  V30 3303 C 314.605 1.79443 -0.929764 0
M  V30 3304 C 314.926 1.87246 0.544414 0
M  V30 3305 O 314.196 1.37473 1.39564 0
M  V30 3306 H 312.776 0.664625 -0.341003 0
M  V30 3307 H 315.438 1.29499 -1.45657 0
M  V30 3308 H 314.534 2.81832 -1.34079 0
M  V30 3309 N 314.835 0.952656 1.25548 0
M  V30 3310 C 315.768 0.415525 2.24385 0
M  V30 3311 C 316.746 -0.502046 1.54655 0
M  V30 3312 O 317.93 -0.436875 1.83368 0
M  V30 3313 C 315.057 -0.401734 3.36309 0
M  V30 3314 C 314.103 0.455949 4.24056 0
M  V30 3315 S 314.936 1.88698 5.01152 0
M  V30 3316 C 316.092 1.07809 6.16545 0
M  V30 3317 H 316.325 1.25315 2.69599 0
M  V30 3318 H 313.858 0.756587 1.34592 0
M  V30 3319 H 315.816 -0.867329 4.01233 0
M  V30 3320 H 314.477 -1.21416 2.89684 0
M  V30 3321 H 313.67 -0.170776 5.03711 0
M  V30 3322 H 313.272 0.856675 3.64056 0
M  V30 3323 H 315.564 0.325816 6.76716 0
M  V30 3324 H 316.507 1.84849 6.83547 0
M  V30 3325 H 316.915 0.60909 5.61204 0
M  V30 3326 N 316.313 -1.40141 0.720998 0
M  V30 3327 C 317.276 -2.29058 0.0805834 0
M  V30 3328 C 318.276 -1.45632 -0.681758 0
M  V30 3329 O 319.466 -1.6648 -0.512856 0
M  V30 3330 C 316.598 -3.28925 -0.895593 0
M  V30 3331 H 317.791 -2.87191 0.863793 0
M  V30 3332 H 315.344 -1.48553 0.485975 0
M  V30 3333 H 316.079 -2.75822 -1.70566 0
M  V30 3334 H 315.864 -3.90519 -0.351766 0
M  V30 3335 H 317.354 -3.95494 -1.34069 0
M  V30 3336 N 317.792 -0.46758 -1.50504 0
M  V30 3337 C 319.069 0.15003 -1.95024 0
M  V30 3338 C 319.449 1.57304 -1.40779 0
M  V30 3339 O 318.797 2.20281 -0.607319 0
M  V30 3340 C 319.007 0.0969324 -3.48865 0
M  V30 3341 C 320.355 0.287565 -4.23625 0
M  V30 3342 O 321.379 0.173678 -3.55776 0
M  V30 3343 O 320.238 0.517186 -5.44047 0
M  V30 3344 H 317.332 0.113582 -0.819163 0
M  V30 3345 H 319.878 -0.52773 -1.61286 0
M  V30 3346 H 318.65 -0.896732 -3.80886 0
M  V30 3347 H 318.273 0.816303 -3.8913 0
M  V30 3348 N 319.27 1.56325 -0.20005 0
M  V30 3349 C 320.519 1.96895 0.437652 0
M  V30 3350 C 320.832 1.08999 1.62415 0
M  V30 3351 O 322.038 1.39372 2.32997 0
M  V30 3352 C 320.494 3.50198 0.830025 0
M  V30 3353 C 320.102 4.46765 -0.332461 0
M  V30 3354 C 321.846 3.99526 1.43453 0
M  V30 3355 C 319.753 5.91344 0.0811468 0
M  V30 3356 H 318.683 0.735209 0.167282 0
M  V30 3357 H 321.334 1.81148 -0.292853 0
M  V30 3358 H 319.716 3.61467 1.61734 0
M  V30 3359 H 320.89 4.47231 -1.11 0
M  V30 3360 H 319.205 4.07657 -0.848789 0
M  V30 3361 H 321.802 5.05025 1.75652 0
M  V30 3362 H 322.145 3.44122 2.34277 0
M  V30 3363 H 322.678 3.91393 0.71109 0
M  V30 3364 H 319.417 6.50685 -0.793033 0
M  V30 3365 H 318.937 5.94121 0.823445 0
M  V30 3366 H 320.616 6.44945 0.515252 0
M  V30 3367 N 320.748 -0.0735177 1.57428 0
M  V30 3368 C 321.994 -0.774145 1.87443 0
M  V30 3369 C 322.327 -1.77311 0.792103 0
M  V30 3370 O 321.602 -1.93492 -0.197793 0
M  V30 3371 C 321.885 -1.48367 3.28115 0
M  V30 3372 C 321.738 -0.501227 4.46999 0
M  V30 3373 C 323.057 -2.429 3.66998 0
M  V30 3374 H 320.176 -0.279971 0.681752 0
M  V30 3375 H 322.818 -0.0373616 1.89963 0
M  V30 3376 H 320.968 -2.11171 3.26097 0
M  V30 3377 H 322.64 0.121468 4.6114 0
M  V30 3378 H 320.883 0.183593 4.33411 0
M  V30 3379 H 321.554 -1.03526 5.42205 0
M  V30 3380 H 324.03 -1.90175 3.70098 0
M  V30 3381 H 322.906 -2.89549 4.66318 0
M  V30 3382 H 323.167 -3.27628 2.96837 0
M  V30 3383 N 322.226 -1.5378 -0.344866 0
M  V30 3384 C 323.176 -1.78057 -1.42407 0
M  V30 3385 C 324.16 -0.635732 -1.47808 0
M  V30 3386 O 325.352 -0.89508 -1.527 0
M  V30 3387 C 322.481 -1.99242 -2.79566 0
M  V30 3388 C 321.567 -3.19787 -2.78562 0
M  V30 3389 N 321.958 -4.41284 -2.47189 0
M  V30 3390 C 320.256 -3.2093 -3.0971 0
M  V30 3391 C 320.957 -5.23128 -2.54385 0
M  V30 3392 N 319.933 -4.59813 -2.89953 0
M  V30 3393 H 323.735 -2.69588 -1.17046 0
M  V30 3394 H 321.249 -1.52687 -0.553217 0
M  V30 3395 H 323.246 -2.14768 -3.57324 0
M  V30 3396 H 321.906 -1.08953 -3.05875 0
M  V30 3397 H 322.917 -4.68657 -2.20411 0
M  V30 3398 H 319.594 -2.40603 -3.41199 0
M  V30 3399 H 320.984 -6.30096 -2.333 0
M  V30 3400 N 323.704 0.605807 -1.45491 0
M  V30 3401 C 324.953 1.36086 -1.48874 0
M  V30 3402 C 325.266 1.95131 -0.135333 0
M  V30 3403 O 326.472 2.7146 -0.0468144 0
M  V30 3404 C 324.928 2.46518 -2.62215 0
M  V30 3405 C 324.536 1.93877 -4.03876 0
M  V30 3406 C 326.28 3.23512 -2.74846 0
M  V30 3407 C 324.187 3.01801 -5.08596 0
M  V30 3408 H 323.117 0.511497 -0.553974 0
M  V30 3409 H 325.768 0.649089 -1.71636 0
M  V30 3410 H 324.15 3.20388 -2.32739 0
M  V30 3411 H 325.324 1.26704 -4.43038 0
M  V30 3412 H 323.639 1.29622 -3.95711 0
M  V30 3413 H 326.236 4.04013 -3.50253 0
M  V30 3414 H 326.579 3.74631 -1.81542 0
M  V30 3415 H 327.112 2.56742 -3.03856 0
M  V30 3416 H 323.851 2.55597 -6.03614 0
M  V30 3417 H 323.371 3.67535 -4.74002 0
M  V30 3418 H 325.05 3.66152 -5.33424 0
M  V30 3419 N 325.182 1.32811 0.848464 0
M  V30 3420 C 326.431 1.23075 1.59798 0
M  V30 3421 C 326.744 -0.204419 1.94529 0
M  V30 3422 O 327.95 -0.423701 2.68173 0
M  V30 3423 C 326.406 2.15594 2.88179 0
M  V30 3424 C 326.014 3.64228 2.60849 0
M  V30 3425 C 327.758 2.14709 3.66197 0
M  V30 3426 C 325.665 4.48689 3.85269 0
M  V30 3427 H 324.595 0.457091 0.599653 0
M  V30 3428 H 327.246 1.57813 0.936342 0
M  V30 3429 H 325.628 1.73778 3.55833 0
M  V30 3430 H 326.802 4.14424 2.01467 0
M  V30 3431 H 325.117 3.67306 1.96151 0
M  V30 3432 H 327.714 2.75046 4.58534 0
M  V30 3433 H 328.057 1.13966 4.00397 0
M  V30 3434 H 328.59 2.54837 3.05455 0
M  V30 3435 H 325.329 5.5027 3.56207 0
M  V30 3436 H 324.849 4.03241 4.44024 0
M  V30 3437 H 326.528 4.62006 4.52946 0
M  V30 3438 N 326.66 -1.06551 1.16123 0
M  V30 3439 C 327.57 -2.17484 0.879662 0
M  V30 3440 C 328.586 -1.73377 -0.147104 0
M  V30 3441 O 329.762 -2.01379 0.0289128 0
M  V30 3442 C 326.827 -3.44591 0.381829 0
M  V30 3443 C 325.888 -4.0322 1.4735 0
M  V30 3444 C 325.121 -5.24261 0.999324 0
M  V30 3445 O 325.344 -5.70198 -0.151957 0
M  V30 3446 O 324.278 -5.74775 1.78653 0
M  V30 3447 H 328.104 -2.44075 1.80724 0
M  V30 3448 H 325.689 -1.16042 0.940992 0
M  V30 3449 H 327.571 -4.21254 0.111053 0
M  V30 3450 H 326.246 -3.19532 -0.51777 0
M  V30 3451 H 325.153 -3.2806 1.79798 0
M  V30 3452 H 326.486 -4.32568 2.34831 0
M  V30 3453 N 328.138 -0.959301 -1.25041 0
M  V30 3454 C 329.07 -0.440543 -2.24926 0
M  V30 3455 C 330.083 0.446131 -1.56568 0
M  V30 3456 O 331.272 0.253657 -1.76689 0
M  V30 3457 C 328.372 0.38412 -3.36716 0
M  V30 3458 C 327.545 -0.490658 -4.34639 0
M  V30 3459 C 326.604 0.276587 -5.25473 0
M  V30 3460 O 325.63 -0.326614 -5.68262 0
M  V30 3461 N 326.832 1.56844 -5.5891 0
M  V30 3462 H 329.597 -1.29931 -2.70071 0
M  V30 3463 H 327.158 -0.830181 -1.38995 0
M  V30 3464 H 329.15 0.905228 -3.94446 0
M  V30 3465 H 327.72 1.14377 -2.90924 0
M  V30 3466 H 326.94 -1.19282 -3.7572 0
M  V30 3467 H 328.228 -1.08756 -4.97041 0
M  V30 3468 H 327.626 2.08036 -5.26059 0
M  V30 3469 H 326.183 2.03541 -6.19205 0
M  V30 3470 N 329.616 1.39756 -0.72842 0
M  V30 3471 C 330.841 2.05472 -0.282159 0
M  V30 3472 C 331.266 1.54549 1.07221 0
M  V30 3473 O 330.624 0.686372 1.67805 0
M  V30 3474 C 330.672 3.59462 -0.286264 0
M  V30 3475 O 329.776 4.05918 0.728298 0
M  V30 3476 H 329.117 0.651226 -0.129618 0
M  V30 3477 H 331.647 1.78915 -0.992499 0
M  V30 3478 H 331.657 4.07798 -0.128373 0
M  V30 3479 H 330.332 3.95889 -1.27456 0
M  V30 3480 H 328.909 3.69012 0.537081 0
M  V30 3481 N 331.094 0.475555 1.50254 0
M  V30 3482 C 332.51 0.12997 1.5907 0
M  V30 3483 C 332.71 -1.36385 1.48328 0
M  V30 3484 O 331.766 -2.13754 1.34407 0
M  V30 3485 C 333.079 0.684139 2.92814 0
M  V30 3486 C 334.627 0.647965 3.0622 0
M  V30 3487 C 335.102 1.17975 4.42545 0
M  V30 3488 N 336.593 1.13936 4.48969 0
M  V30 3489 C 337.328 1.52129 5.52851 0
M  V30 3490 N 336.824 1.97793 6.63965 0
M  V30 3491 N 338.617 1.43704 5.4342 0
M  V30 3492 H 330.768 1.44706 1.55479 0
M  V30 3493 H 333.031 0.598691 0.735033 0
M  V30 3494 H 332.737 1.73079 3.06164 0
M  V30 3495 H 332.611 0.130204 3.76975 0
M  V30 3496 H 334.998 -0.38979 2.92514 0
M  V30 3497 H 335.079 1.23876 2.23805 0
M  V30 3498 H 334.723 2.21616 4.57 0
M  V30 3499 H 334.653 0.565138 5.23559 0
M  V30 3500 H 337.144 0.804488 3.69238 0
M  V30 3501 H 337.457 2.25072 7.39299 0
M  V30 3502 H 335.802 2.01749 6.65073 0
M  V30 3503 H 338.993 1.07867 4.55502 0
M  V30 3504 H 339.166 1.73794 6.24259 0
M  V30 3505 N 332.573 -1.56217 0.208337 0
M  V30 3506 C 333.521 -2.21053 -0.723769 0
M  V30 3507 C 334.515 -1.18578 -1.20978 0
M  V30 3508 O 335.721 -1.36691 -1.17114 0
M  V30 3509 H 332.096 -0.708595 -0.251788 0
M  V30 3510 H 334.067 -2.98006 -0.153365 0
M  V30 3511 C 332.816 -2.89417 -1.927 0
M  V30 3512 H 332.139 -3.68019 -1.56212 0
M  V30 3513 H 333.579 -3.38201 -2.55727 0
M  V30 3514 C 332.038 -1.91166 -2.77411 0
M  V30 3515 O 332.568 -1.42026 -3.75754 0
M  V30 3516 N 330.774 -1.59105 -2.43175 0
M  V30 3517 H 330.321 -1.99259 -1.63259 0
M  V30 3518 H 330.279 -0.936255 -3.00136 0
M  V30 3519 N 334.051 0.0651679 -1.57465 0
M  V30 3520 C 335.014 1.06117 -2.03155 0
M  V30 3521 C 336.014 1.31204 -0.929632 0
M  V30 3522 O 337.204 1.26813 -1.19432 0
M  V30 3523 C 334.336 2.4032 -2.41783 0
M  V30 3524 H 335.529 0.667231 -2.92383 0
M  V30 3525 H 333.082 0.311075 -1.53173 0
M  V30 3526 H 333.817 2.84532 -1.55601 0
M  V30 3527 H 333.602 2.23451 -3.22199 0
M  V30 3528 H 335.092 3.11898 -2.77685 0
M  V30 3529 N 335.529 1.53961 0.336706 0
M  V30 3530 C 336.459 1.85417 1.41925 0
M  V30 3531 C 337.44 0.709856 1.5458 0
M  V30 3532 O 338.625 0.962396 1.68676 0
M  V30 3533 C 335.755 2.06985 2.78881 0
M  V30 3534 C 334.709 3.22813 2.81026 0
M  V30 3535 C 334.035 3.29727 4.20932 0
M  V30 3536 C 335.335 4.60767 2.45949 0
M  V30 3537 H 337.029 2.76079 1.15848 0
M  V30 3538 H 334.575 1.32839 0.555859 0
M  V30 3539 H 336.528 2.27575 3.54665 0
M  V30 3540 H 335.252 1.13061 3.06406 0
M  V30 3541 H 333.911 3.0209 2.07695 0
M  V30 3542 H 333.559 2.33385 4.45579 0
M  V30 3543 H 333.259 4.07566 4.23277 0
M  V30 3544 H 334.783 3.52536 4.98549 0
M  V30 3545 H 336.197 4.81325 3.11446 0
M  V30 3546 H 334.594 5.4106 2.59566 0
M  V30 3547 H 335.664 4.6391 1.41122 0
M  V30 3548 N 337.007 -0.598083 1.45811 0
M  V30 3549 C 338.253 -1.35882 1.50545 0
M  V30 3550 C 338.586 -1.93616 0.150445 0
M  V30 3551 O 337.861 -1.75604 -0.83628 0
M  V30 3552 C 338.144 -2.49966 2.59208 0
M  V30 3553 C 337.997 -1.97367 4.04186 0
M  V30 3554 C 339.316 -3.52068 2.64076 0
M  V30 3555 H 336.435 -0.492717 0.548087 0
M  V30 3556 H 339.077 -0.673319 1.77669 0
M  V30 3557 H 337.227 -3.08443 2.3621 0
M  V30 3558 H 338.899 -1.43466 4.38423 0
M  V30 3559 H 337.142 -1.283 4.14393 0
M  V30 3560 H 337.813 -2.79649 4.75921 0
M  V30 3561 H 340.289 -3.03448 2.84708 0
M  V30 3562 H 339.165 -4.2937 3.41954 0
M  V30 3563 H 339.426 -4.08304 1.69531 0
M  V30 3564 N 338.485 -1.33259 -0.841409 0
M  V30 3565 C 339.71 -1.2775 -1.63385 0
M  V30 3566 C 340.135 0.149188 -1.87507 0
M  V30 3567 O 339.493 1.10498 -1.43736 0
M  V30 3568 C 339.541 -2.05571 -2.96265 0
M  V30 3569 O 338.645 -1.41257 -3.87453 0
M  V30 3570 H 337.986 -0.439627 -0.497618 0
M  V30 3571 H 340.516 -1.75782 -1.04699 0
M  V30 3572 H 340.526 -2.16241 -3.45982 0
M  V30 3573 H 339.201 -3.09309 -2.7803 0
M  V30 3574 H 337.778 -1.39217 -3.45938 0
M  V30 3575 N 339.963 1.05934 -1.16686 0
M  V30 3576 C 341.211 1.78447 -0.948744 0
M  V30 3577 C 341.532 1.87813 0.524523 0
M  V30 3578 O 340.802 1.38945 1.38098 0
M  V30 3579 H 339.382 0.660971 -0.348033 0
M  V30 3580 H 342.044 1.27947 -1.47022 0
M  V30 3581 H 341.14 2.80394 -1.37061 0
M  V30 3582 N 341.441 0.965919 1.2453 0
M  V30 3583 C 342.689 0.625593 1.92174 0
M  V30 3584 C 343.01 -0.841652 1.75901 0
M  V30 3585 O 342.28 -1.60061 1.12948 0
M  V30 3586 H 340.86 0.228388 0.71123 0
M  V30 3587 H 343.522 1.2266 1.51461 0
M  V30 3588 H 342.618 0.864653 2.99884 0
M  V30 3589 N 342.919 -1.39368 0.735821 0
M  V30 3590 C 344.166 -2.00497 0.284123 0
M  V30 3591 C 344.494 -1.58387 -1.12889 0
M  V30 3592 O 343.749 -0.804359 -1.78406 0
M  V30 3593 C 344.048 -3.5583 0.334651 0
M  V30 3594 C 343.714 -4.17593 1.7008 0
M  V30 3595 C 342.376 -4.34176 2.07472 0
M  V30 3596 C 344.728 -4.51848 2.59775 0
M  V30 3597 C 342.056 -4.82304 3.34065 0
M  V30 3598 C 344.408 -5.01384 3.85741 0
M  V30 3599 C 343.072 -5.16175 4.23225 0
M  V30 3600 H 342.342 -0.73367 0.103968 0
M  V30 3601 H 344.989 -1.66683 0.942825 0
M  V30 3602 H 343.294 -3.89674 -0.407625 0
M  V30 3603 H 344.991 -4.00986 -0.0329927 0
M  V30 3604 H 341.581 -4.05087 1.40008 0
M  V30 3605 H 345.765 -4.38653 2.32157 0
M  V30 3606 H 341.021 -4.91941 3.63049 0
M  V30 3607 H 345.195 -5.26863 4.55399 0
M  V30 3608 H 342.822 -5.5323 5.21384 0
M  V30 3609 N 344.397 -0.483516 -1.5 0
M  V30 3610 C 345.327 0.293829 -2.31644 0
M  V30 3611 C 346.308 0.978864 -1.39112 0
M  V30 3612 O 347.493 0.973644 -1.68029 0
M  V30 3613 C 344.623 1.36897 -3.19181 0
M  V30 3614 C 343.577 0.804833 -4.20365 0
M  V30 3615 C 342.903 1.9792 -4.96721 0
M  V30 3616 C 344.203 -0.192313 -5.21946 0
M  V30 3617 H 345.897 -0.387616 -2.9688 0
M  V30 3618 H 343.443 -0.187856 -1.42769 0
M  V30 3619 H 345.396 1.92037 -3.751 0
M  V30 3620 H 344.12 2.07936 -2.51853 0
M  V30 3621 H 342.779 0.275319 -3.65565 0
M  V30 3622 H 342.427 2.67686 -4.25856 0
M  V30 3623 H 342.127 1.60789 -5.65173 0
M  V30 3624 H 343.651 2.53526 -5.55479 0
M  V30 3625 H 345.065 0.270333 -5.72662 0
M  V30 3626 H 343.462 -0.478543 -5.98189 0
M  V30 3627 H 344.532 -1.11409 -4.71928 0
M  V30 3628 N 345.875 1.56104 -0.216619 0
M  V30 3629 C 346.805 2.23063 0.690296 0
M  V30 3630 C 347.786 1.20072 1.20485 0
M  V30 3631 O 348.971 1.48643 1.24976 0
M  V30 3632 C 346.101 2.90672 1.90072 0
M  V30 3633 C 345.055 4.00092 1.5202 0
M  V30 3634 C 344.381 4.54972 2.80899 0
M  V30 3635 C 345.681 5.17398 0.71391 0
M  V30 3636 H 347.375 2.99109 0.132038 0
M  V30 3637 H 344.921 1.43866 0.0620664 0
M  V30 3638 H 346.874 3.36204 2.54057 0
M  V30 3639 H 345.598 2.12066 2.48386 0
M  V30 3640 H 344.257 3.55283 0.903839 0
M  V30 3641 H 343.905 3.73102 3.37348 0
M  V30 3642 H 343.605 5.28817 2.56176 0
M  V30 3643 H 345.129 5.0322 3.45836 0
M  V30 3644 H 346.543 5.59342 1.25735 0
M  V30 3645 H 344.94 5.97444 0.563951 0
M  V30 3646 H 346.01 4.84088 -0.280527 0
M  V30 3647 N 347.353 -0.0568162 1.57498 0
M  V30 3648 C 348.283 -1.06593 2.0775 0
M  V30 3649 C 349.264 -1.39448 0.974082 0
M  V30 3650 O 350.449 -1.48815 1.24771 0
M  V30 3651 C 347.579 -2.37509 2.5339 0
M  V30 3652 C 346.533 -2.1897 3.67745 0
M  V30 3653 C 345.859 -3.55402 3.99492 0
M  V30 3654 C 347.159 -1.59859 4.97235 0
M  V30 3655 H 348.853 -0.647706 2.9231 0
M  V30 3656 H 346.399 -0.310116 1.40621 0
M  V30 3657 H 348.352 -3.08409 2.87162 0
M  V30 3658 H 347.076 -2.8134 1.65878 0
M  V30 3659 H 345.735 -1.50508 3.3428 0
M  V30 3660 H 345.383 -3.9683 3.09088 0
M  V30 3661 H 345.083 -3.43831 4.76502 0
M  V30 3662 H 346.607 -4.27708 4.35773 0
M  V30 3663 H 348.021 -2.20642 5.29141 0
M  V30 3664 H 346.418 -1.58942 5.78669 0
M  V30 3665 H 347.488 -0.561506 4.81638 0
M  V30 3666 N 348.832 -1.54138 -0.328536 0
M  V30 3667 C 349.742 -1.86192 -1.42723 0
M  V30 3668 C 350.758 -0.753382 -1.56844 0
M  V30 3669 O 351.934 -1.04718 -1.72035 0
M  V30 3670 C 348.999 -2.07824 -2.77507 0
M  V30 3671 C 348.06 -3.31641 -2.72603 0
M  V30 3672 C 347.293 -3.52232 -4.00959 0
M  V30 3673 O 347.516 -2.7636 -4.9898 0
M  V30 3674 O 346.45 -4.45699 -4.0452 0
M  V30 3675 H 350.276 -2.79608 -1.18547 0
M  V30 3676 H 347.861 -1.3998 -0.522104 0
M  V30 3677 H 349.743 -2.23411 -3.57303 0
M  V30 3678 H 348.418 -1.17596 -3.01584 0
M  V30 3679 H 347.325 -3.21444 -1.91376 0
M  V30 3680 H 348.658 -4.2191 -2.53481 0
M  V30 3681 N 350.31 0.590341 -1.46126 0
M  V30 3682 C 351.26 1.69466 -1.5253 0
M  V30 3683 C 352.244 1.56179 -0.386917 0
M  V30 3684 O 353.436 1.65223 -0.634858 0
M  V30 3685 C 350.565 3.08245 -1.5113 0
M  V30 3686 C 349.651 3.26856 -2.70233 0
M  V30 3687 N 350.042 3.15657 -3.95214 0
M  V30 3688 C 348.34 3.57775 -2.66296 0
M  V30 3689 C 349.041 3.36066 -4.74799 0
M  V30 3690 N 348.017 3.60865 -4.06543 0
M  V30 3691 H 351.819 1.59326 -2.46966 0
M  V30 3692 H 349.333 0.79414 -1.41659 0
M  V30 3693 H 351.33 3.87492 -1.53804 0
M  V30 3694 H 349.99 3.19521 -0.577636 0
M  V30 3695 H 351.001 2.93686 -4.26578 0
M  V30 3696 H 347.678 3.75782 -1.81918 0
M  V30 3697 H 349.068 3.32655 -5.83772 0
M  V30 3698 N 351.788 1.33704 0.83433 0
M  V30 3699 C 353.036 1.25169 1.58673 0
M  V30 3700 C 353.357 -0.18127 1.94156 0
M  V30 3701 O 352.627 -1.11113 1.6134 0
M  V30 3702 H 351.207 0.4603 0.58833 0
M  V30 3703 H 353.869 1.67478 0.996847 0
M  V30 3704 H 352.965 1.84856 2.51465 0
M  V30 3705 N 353.266 -1.05314 1.17247 0
M  V30 3706 C 354.512 -1.78699 0.971513 0
M  V30 3707 C 354.867 -1.85932 -0.494692 0
M  V30 3708 O 354.16 -1.34716 -1.36243 0
M  V30 3709 C 354.354 -3.2229 1.54479 0
M  V30 3710 C 354.183 -3.29052 3.06521 0
M  V30 3711 C 352.953 -3.3841 3.75242 0
M  V30 3712 C 355.151 -3.18095 4.04129 0
M  V30 3713 N 353.133 -3.34289 5.14902 0
M  V30 3714 C 354.504 -3.21331 5.30232 0
M  V30 3715 C 356.559 -3.02049 3.95817 0
M  V30 3716 C 355.262 -3.10169 6.4899 0
M  V30 3717 C 357.288 -2.92228 5.14156 0
M  V30 3718 C 356.65 -2.96096 6.39145 0
M  V30 3719 H 352.749 -0.66628 0.409383 0
M  V30 3720 H 355.333 -1.25553 1.4881 0
M  V30 3721 H 353.504 -3.7381 1.05455 0
M  V30 3722 H 355.236 -3.83905 1.28059 0
M  V30 3723 H 351.991 -3.43621 3.25917 0
M  V30 3724 H 352.415 -3.35702 5.87906 0
M  V30 3725 H 357.057 -2.97897 3.00029 0
M  V30 3726 H 354.775 -3.13076 7.44989 0
M  V30 3727 H 358.361 -2.80885 5.09505 0
M  V30 3728 H 357.241 -2.88568 7.29176 0
M  V30 3729 N 354.744 -0.972509 -1.24016 0
M  V30 3730 C 355.676 -0.464375 -2.24446 0
M  V30 3731 C 356.689 0.4295 -1.57032 0
M  V30 3732 O 357.878 0.234902 -1.76948 0
M  V30 3733 C 354.978 0.348385 -3.37105 0
M  V30 3734 C 354.151 -0.53673 -4.34094 0
M  V30 3735 C 353.21 0.220838 -5.25736 0
M  V30 3736 O 352.236 -0.386867 -5.67884 0
M  V30 3737 N 353.438 1.50907 -5.60542 0
M  V30 3738 H 356.203 -1.32788 -2.68677 0
M  V30 3739 H 353.764 -0.844877 -1.38107 0
M  V30 3740 H 355.756 0.863341 -3.95384 0
M  V30 3741 H 354.326 1.11285 -2.92121 0
M  V30 3742 H 353.546 -1.23261 -3.74433 0
M  V30 3743 H 354.834 -1.14022 -4.95859 0
M  V30 3744 H 354.232 2.02444 -5.28236 0
M  V30 3745 H 352.789 1.96962 -6.21329 0
M  V30 3746 N 356.222 1.38976 -0.743202 0
M  V30 3747 C 357.154 2.29096 -0.0689228 0
M  V30 3748 C 358.167 1.47229 0.694791 0
M  V30 3749 O 359.356 1.70212 0.537597 0
M  V30 3750 C 356.456 3.25988 0.926548 0
M  V30 3751 C 355.629 4.36833 0.222647 0
M  V30 3752 C 354.688 5.13981 1.12739 0
M  V30 3753 O 353.714 5.6601 0.601795 0
M  V30 3754 N 354.916 5.25966 2.45641 0
M  V30 3755 H 357.681 2.87604 -0.842846 0
M  V30 3756 H 355.242 1.50645 -0.593109 0
M  V30 3757 H 357.234 3.74476 1.5346 0
M  V30 3758 H 355.804 2.68453 1.60162 0
M  V30 3759 H 355.024 3.90116 -0.565983 0
M  V30 3760 H 356.312 5.0811 -0.264841 0
M  V30 3761 H 355.71 4.85228 2.9081 0
M  V30 3762 H 354.267 5.77865 3.01522 0
M  V30 3763 N 357.7 0.491464 1.49741 0
M  V30 3764 C 358.948 -0.0563141 2.02022 0
M  V30 3765 C 359.269 -1.38363 1.37407 0
M  V30 3766 O 358.539 -1.88702 0.526166 0
M  V30 3767 H 357.119 -0.0238014 0.746621 0
M  V30 3768 H 359.781 0.646533 1.83864 0
M  V30 3769 H 358.877 -0.192967 3.11503 0
M  V30 3770 N 359.178 -1.55987 0.224894 0
M  V30 3771 C 360.088 -2.24066 -0.69511 0
M  V30 3772 C 361.104 -1.24939 -1.21104 0
M  V30 3773 O 362.28 -1.5776 -1.25195 0
M  V30 3774 C 359.345 -2.90983 -1.88493 0
M  V30 3775 C 358.406 -4.05462 -1.41064 0
M  V30 3776 C 357.639 -4.69179 -2.54375 0
M  V30 3777 O 357.862 -4.31895 -3.72589 0
M  V30 3778 O 356.796 -5.58108 -2.25386 0
M  V30 3779 H 360.622 -3.03353 -0.145149 0
M  V30 3780 H 358.207 -1.49399 -0.00569476 0
M  V30 3781 H 360.089 -3.33209 -2.57972 0
M  V30 3782 H 358.764 -2.14653 -2.42293 0
M  V30 3783 H 357.671 -3.67798 -0.683774 0
M  V30 3784 H 359.004 -4.83545 -0.918985 0
M  V30 3785 N 360.656 0.0484629 -1.57525 0
M  V30 3786 C 361.619 1.03956 -2.04269 0
M  V30 3787 C 362.619 1.30211 -0.943496 0
M  V30 3788 O 363.809 1.25539 -1.20771 0
M  V30 3789 C 360.941 2.37742 -2.44319 0
M  V30 3790 H 362.134 0.636182 -2.93075 0
M  V30 3791 H 359.687 0.294811 -1.53494 0
M  V30 3792 H 360.422 2.82866 -1.5861 0
M  V30 3793 H 360.207 2.20021 -3.24551 0
M  V30 3794 H 361.697 3.08936 -2.80978 0
M  V30 3795 N 362.134 1.5431 0.320358 0
M  V30 3796 C 363.38 1.72924 1.05949 0
M  V30 3797 C 363.713 0.503185 1.87568 0
M  V30 3798 O 362.988 -0.499839 1.87968 0
M  V30 3799 C 363.271 3.00676 1.98156 0
M  V30 3800 C 363.124 4.3354 1.19845 0
M  V30 3801 C 364.443 3.24198 2.9763 0
M  V30 3802 H 361.562 0.629195 0.383774 0
M  V30 3803 H 364.204 1.87008 0.335854 0
M  V30 3804 H 362.354 2.888 2.59859 0
M  V30 3805 H 364.026 4.57305 0.605773 0
M  V30 3806 H 362.269 4.309 0.500784 0
M  V30 3807 H 362.94 5.19156 1.87567 0
M  V30 3808 H 365.416 3.35557 2.4605 0
M  V30 3809 H 364.292 4.14938 3.59329 0
M  V30 3810 H 364.553 2.41577 3.7026 0
M  V30 3811 N 363.613 -0.582584 1.46437 0
M  V30 3812 C 365.029 -0.905962 1.31394 0
M  V30 3813 C 365.229 -1.99468 0.285476 0
M  V30 3814 O 364.285 -2.50566 -0.311914 0
M  V30 3815 C 365.598 -1.3232 2.70022 0
M  V30 3816 C 367.146 -1.43604 2.78113 0
M  V30 3817 C 367.621 -1.88694 4.17323 0
M  V30 3818 N 369.112 -1.95887 4.19741 0
M  V30 3819 C 369.847 -2.32051 5.24347 0
M  V30 3820 N 369.343 -2.67006 6.39281 0
M  V30 3821 N 371.136 -2.32606 5.11713 0
M  V30 3822 H 363.287 0.1366 2.1196 0
M  V30 3823 H 365.55 -0.00155736 0.947999 0
M  V30 3824 H 365.256 -0.597242 3.46592 0
M  V30 3825 H 365.13 -2.28469 3.00136 0
M  V30 3826 H 367.517 -2.15286 2.01832 0
M  V30 3827 H 367.598 -0.457059 2.51684 0
M  V30 3828 H 367.242 -1.1759 4.941 0
M  V30 3829 H 367.172 -2.8755 4.4116 0
M  V30 3830 H 369.663 -1.71362 3.36814 0
M  V30 3831 H 369.976 -2.93554 7.14875 0
M  V30 3832 H 368.321 -2.64644 6.42642 0
M  V30 3833 H 371.512 -2.04721 4.2096 0
M  V30 3834 H 371.685 -2.60462 5.93349 0
M  V30 3835 N 365.091 -1.34144 -0.827227 0
M  V30 3836 C 366.023 -1.21206 -1.9453 0
M  V30 3837 C 367.036 -0.140176 -1.62195 0
M  V30 3838 O 368.225 -0.391647 -1.7415 0
M  V30 3839 C 365.325 -0.839141 -3.28347 0
M  V30 3840 C 364.498 -2.0051 -3.88734 0
M  V30 3841 C 363.557 -1.61128 -5.00923 0
M  V30 3842 O 362.583 -2.32726 -5.19449 0
M  V30 3843 N 363.785 -0.522958 -5.7814 0
M  V30 3844 H 366.55 -2.17525 -2.06162 0
M  V30 3845 H 364.111 -1.27043 -1.00358 0
M  V30 3846 H 366.103 -0.557556 -4.00841 0
M  V30 3847 H 364.673 0.0337293 -3.12582 0
M  V30 3848 H 363.893 -2.45166 -3.08686 0
M  V30 3849 H 365.181 -2.78498 -4.25812 0
M  V30 3850 H 364.579 0.0723518 -5.65654 0
M  V30 3851 H 363.136 -0.301089 -6.51104 0
M  V30 3852 N 366.569 1.04691 -1.17803 0
M  V30 3853 C 367.532 2.10724 -0.901545 0
M  V30 3854 C 368.532 1.6042 0.110437 0
M  V30 3855 O 369.722 1.7377 -0.122303 0
M  V30 3856 C 366.854 3.39084 -0.351409 0
M  V30 3857 H 368.047 2.36686 -1.84174 0
M  V30 3858 H 365.6 1.21015 -0.98919 0
M  V30 3859 H 366.335 3.18782 0.59569 0
M  V30 3860 H 366.12 3.76909 -1.08083 0
M  V30 3861 H 367.61 4.17227 -0.176451 0
M  V30 3862 N 368.047 0.979072 1.23499 0
M  V30 3863 C 369.294 0.647219 1.91878 0
M  V30 3864 C 369.622 -0.819074 1.76413 0
M  V30 3865 O 368.877 -1.60616 1.11808 0
M  V30 3866 C 369.176 0.981932 3.43646 0
M  V30 3867 C 368.842 2.43822 3.79291 0
M  V30 3868 C 367.504 2.83622 3.88731 0
M  V30 3869 C 369.856 3.3828 3.96505 0
M  V30 3870 C 367.184 4.16897 4.12812 0
M  V30 3871 C 369.536 4.71197 4.22085 0
M  V30 3872 C 368.2 5.10758 4.29747 0
M  V30 3873 H 367.47 0.236834 0.702133 0
M  V30 3874 H 370.117 1.23268 1.46551 0
M  V30 3875 H 368.422 0.314365 3.90537 0
M  V30 3876 H 370.119 0.703395 3.94783 0
M  V30 3877 H 366.709 2.11966 3.72516 0
M  V30 3878 H 370.893 3.0871 3.88603 0
M  V30 3879 H 366.149 4.47157 4.16966 0
M  V30 3880 H 370.323 5.44348 4.34348 0
M  V30 3881 H 367.95 6.1405 4.48159 0
M  V30 3882 N 369.525 -1.3858 0.750561 0
M  V30 3883 C 370.774 -1.99424 0.302172 0
M  V30 3884 C 371.087 -1.60254 -1.12152 0
M  V30 3885 O 372.293 -2.14046 -1.67023 0
M  V30 3886 C 370.749 -3.56558 0.489307 0
M  V30 3887 C 370.357 -4.04682 1.92189 0
M  V30 3888 C 372.101 -4.24374 0.103478 0
M  V30 3889 C 370.008 -5.54446 2.05775 0
M  V30 3890 H 368.938 -0.746046 0.10923 0
M  V30 3891 H 371.589 -1.58383 0.92667 0
M  V30 3892 H 369.971 -3.95472 -0.204329 0
M  V30 3893 H 371.145 -3.77065 2.64875 0
M  V30 3894 H 369.46 -3.4958 2.26236 0
M  V30 3895 H 372.057 -5.34384 0.183787 0
M  V30 3896 H 372.4 -4.05468 -0.943481 0
M  V30 3897 H 372.933 -3.90688 0.748854 0
M  V30 3898 H 369.672 -5.78252 3.08714 0
M  V30 3899 H 369.192 -5.83816 1.37546 0
M  V30 3900 H 370.871 -6.20099 1.84626 0
M  V30 3901 N 371.003 -0.499398 -1.49478 0
M  V30 3902 C 371.933 0.269244 -2.31943 0
M  V30 3903 C 372.914 0.964054 -1.40143 0
M  V30 3904 O 374.099 0.955767 -1.69052 0
M  V30 3905 C 371.229 1.33504 -3.20615 0
M  V30 3906 C 370.183 0.760202 -4.21195 0
M  V30 3907 C 369.509 1.9264 -4.98792 0
M  V30 3908 C 370.809 -0.247661 -5.21712 0
M  V30 3909 H 372.503 -0.419082 -2.96452 0
M  V30 3910 H 370.049 -0.202988 -1.42562 0
M  V30 3911 H 372.002 1.88048 -3.77115 0
M  V30 3912 H 370.726 2.05253 -2.54045 0
M  V30 3913 H 369.385 0.23653 -3.65836 0
M  V30 3914 H 369.033 2.63154 -4.28671 0
M  V30 3915 H 368.733 1.54785 -5.66847 0
M  V30 3916 H 370.257 2.4762 -5.58137 0
M  V30 3917 H 371.671 0.209579 -5.72917 0
M  V30 3918 H 370.068 -0.541962 -5.97648 0
M  V30 3919 H 371.138 -1.16409 -4.7072 0
M  V30 3920 N 372.481 1.55866 -0.233164 0
M  V30 3921 C 373.444 2.1953 0.658715 0
M  V30 3922 C 374.444 1.16053 1.11303 0
M  V30 3923 O 375.634 1.41218 1.01996 0
M  V30 3924 C 372.766 2.82791 1.90373 0
M  V30 3925 H 373.959 2.99721 0.10347 0
M  V30 3926 H 371.512 1.56291 0.0164245 0
M  V30 3927 H 372.247 2.06501 2.50056 0
M  V30 3928 H 372.032 3.58578 1.58632 0
M  V30 3929 H 373.522 3.31556 2.53891 0
M  V30 3930 N 373.959 -0.0401083 1.57549 0
M  V30 3931 C 375.207 -0.731677 1.8839 0
M  V30 3932 C 375.528 -1.76481 0.829425 0
M  V30 3933 O 374.798 -1.95411 -0.1383 0
M  V30 3934 H 373.378 -0.273225 0.695239 0
M  V30 3935 H 376.04 -0.00867725 1.94898 0
M  V30 3936 H 375.136 -1.22816 2.86919 0
M  V30 3937 N 375.437 -1.54477 -0.31217 0
M  V30 3938 C 376.667 -1.76948 -1.06645 0
M  V30 3939 C 377.075 -0.523593 -1.81811 0
M  V30 3940 O 376.418 0.51578 -1.76311 0
M  V30 3941 C 376.48 -2.91668 -2.10166 0
M  V30 3942 C 376.144 -4.30165 -1.54296 0
M  V30 3943 C 377.141 -5.10603 -0.978793 0
M  V30 3944 C 374.826 -4.76738 -1.58196 0
M  V30 3945 C 376.82 -6.3573 -0.461048 0
M  V30 3946 C 374.507 -6.01831 -1.06034 0
M  V30 3947 C 375.505 -6.81161 -0.500844 0
M  V30 3948 O 375.193 -8.03899 0.0128958 0
M  V30 3949 H 374.925 -0.594088 -0.322546 0
M  V30 3950 H 377.479 -2.02213 -0.360441 0
M  V30 3951 H 375.709 -2.62001 -2.84416 0
M  V30 3952 H 377.398 -3.01817 -2.71406 0
M  V30 3953 H 378.164 -4.75771 -0.941651 0
M  V30 3954 H 374.043 -4.15027 -2.00683 0
M  V30 3955 H 377.587 -6.97596 -0.0236894 0
M  V30 3956 H 373.484 -6.36152 -1.09459 0
M  V30 3957 H 374.252 -8.18437 -0.101457 0
M  V30 3958 N 376.915 0.57481 -1.46744 0
M  V30 3959 C 377.865 1.67838 -1.54319 0
M  V30 3960 C 378.849 1.55759 -0.40346 0
M  V30 3961 O 380.041 1.6454 -0.652347 0
M  V30 3962 C 377.17 3.06624 -1.5439 0
M  V30 3963 C 376.256 3.23971 -2.73685 0
M  V30 3964 N 376.647 3.11447 -3.9854 0
M  V30 3965 C 374.945 3.5493 -2.70075 0
M  V30 3966 C 375.646 3.31011 -4.78337 0
M  V30 3967 N 374.622 3.56533 -4.10348 0
M  V30 3968 H 378.424 1.56698 -2.48642 0
M  V30 3969 H 375.938 0.779071 -1.42493 0
M  V30 3970 H 377.935 3.85839 -1.57905 0
M  V30 3971 H 376.595 3.1889 -0.611493 0
M  V30 3972 H 377.606 2.89145 -4.29669 0
M  V30 3973 H 374.283 3.73832 -1.85893 0
M  V30 3974 H 375.673 3.26445 -5.87268 0
M  V30 3975 N 378.394 1.34581 0.820102 0
M  V30 3976 C 379.671 1.17675 1.56244 0
M  V30 3977 C 380.051 -0.249541 2.0962 0
M  V30 3978 O 379.399 -1.25125 1.91196 0
M  V30 3979 C 379.609 2.23364 2.6816 0
M  V30 3980 C 380.957 2.58485 3.36854 0
M  V30 3981 O 381.981 2.22175 2.78418 0
M  V30 3982 O 380.84 3.20868 4.42386 0
M  V30 3983 H 377.934 0.456333 0.689702 0
M  V30 3984 H 380.48 1.46222 0.861231 0
M  V30 3985 H 379.252 3.19087 2.26493 0
M  V30 3986 H 378.875 1.96009 3.45928 0
M  V30 3987 N 379.872 -1.04064 1.18357 0
M  V30 3988 C 381.118 -1.77528 0.980397 0
M  V30 3989 C 381.451 -1.87948 -0.48879 0
M  V30 3990 O 380.726 -1.3876 -1.36293 0
M  V30 3991 C 381.009 -3.20797 1.63588 0
M  V30 3992 C 380.862 -3.1832 3.17793 0
M  V30 3993 C 382.181 -4.18911 1.34914 0
M  V30 3994 H 379.3 -0.644443 0.357578 0
M  V30 3995 H 381.942 -1.2156 1.46024 0
M  V30 3996 H 380.092 -3.68586 1.22788 0
M  V30 3997 H 381.764 -2.78521 3.67728 0
M  V30 3998 H 380.007 -2.56351 3.49952 0
M  V30 3999 H 380.678 -4.19489 3.58794 0
M  V30 4000 H 383.154 -3.7967 1.70265 0
M  V30 4001 H 382.03 -5.17374 1.83346 0
M  V30 4002 H 382.291 -4.41262 0.272027 0
M  V30 4003 N 381.35 -0.985608 -1.22978 0
M  V30 4004 C 382.26 -0.538548 -2.28335 0
M  V30 4005 C 383.276 0.409163 -1.69121 0
M  V30 4006 O 384.452 0.277797 -1.99475 0
M  V30 4007 C 381.517 0.146867 -3.46389 0
M  V30 4008 C 380.578 -0.842896 -4.20944 0
M  V30 4009 C 379.811 -0.190095 -5.33361 0
M  V30 4010 O 380.034 1.01767 -5.61248 0
M  V30 4011 O 378.968 -0.891289 -5.95264 0
M  V30 4012 H 382.794 -1.41487 -2.68729 0
M  V30 4013 H 380.379 -0.753495 -1.29007 0
M  V30 4014 H 382.261 0.531125 -4.1804 0
M  V30 4015 H 380.936 0.997871 -3.07935 0
M  V30 4016 H 379.843 -1.27795 -3.51595 0
M  V30 4017 H 381.176 -1.66287 -4.6326 0
M  V30 4018 N 382.828 1.3818 -0.7579 0
M  V30 4019 C 384.056 2.04301 -0.326937 0
M  V30 4020 C 384.471 1.57163 1.0462 0
M  V30 4021 O 383.828 0.746626 1.66529 0
M  V30 4022 C 383.879 3.59846 -0.345363 0
M  V30 4023 O 383.6 4.05256 -1.66432 0
M  V30 4024 C 385.101 4.4319 0.098927 0
M  V30 4025 H 382.321 0.656443 -0.139012 0
M  V30 4026 H 384.865 1.76786 -1.02796 0
M  V30 4027 H 383.02 3.86182 0.306955 0
M  V30 4028 H 383.434 4.99709 -1.59345 0
M  V30 4029 H 384.908 5.51989 0.0348745 0
M  V30 4030 H 385.385 4.23947 1.14741 0
M  V30 4031 H 385.991 4.22051 -0.52468 0
M  V30 4032 N 384.306 0.507319 1.49211 0
M  V30 4033 C 385.546 -0.0332372 2.04373 0
M  V30 4034 C 385.91 -1.33694 1.37804 0
M  V30 4035 O 387.111 -1.96213 1.83722 0
M  V30 4036 C 385.382 -0.17599 3.56966 0
M  V30 4037 S 386.941 -0.669882 4.33657 0
M  V30 4038 H 383.759 0.00123603 0.710999 0
M  V30 4039 H 386.361 0.682725 1.83191 0
M  V30 4040 H 385.065 0.778053 4.02957 0
M  V30 4041 H 384.596 -0.917005 3.82563 0
M  V30 4042 H 386.611 -1.93806 4.56786 0
M  V30 4043 N 385.784 -1.5574 0.241426 0
M  V30 4044 C 387.2 -1.59196 -0.113548 0
M  V30 4045 C 387.4 -1.25852 -1.57364 0
M  V30 4046 O 386.456 -1.00322 -2.31715 0
M  V30 4047 C 387.769 -2.99814 0.230695 0
M  V30 4048 C 389.317 -3.12513 0.174547 0
M  V30 4049 C 389.792 -4.55342 0.492744 0
M  V30 4050 N 391.283 -4.61076 0.443043 0
M  V30 4051 C 392.018 -5.6956 0.662484 0
M  V30 4052 N 391.514 -6.86328 0.944761 0
M  V30 4053 N 393.307 -5.58957 0.593564 0
M  V30 4054 H 385.458 -1.75685 1.19368 0
M  V30 4055 H 387.721 -0.81756 0.479896 0
M  V30 4056 H 387.427 -3.28932 1.24485 0
M  V30 4057 H 387.301 -3.74568 -0.444833 0
M  V30 4058 H 389.688 -2.83179 -0.830277 0
M  V30 4059 H 389.769 -2.40045 0.883845 0
M  V30 4060 H 389.413 -4.85396 1.4951 0
M  V30 4061 H 389.343 -5.26062 -0.23797 0
M  V30 4062 H 391.834 -3.77179 0.233374 0
M  V30 4063 H 392.147 -7.64935 1.09977 0
M  V30 4064 H 390.492 -6.88025 0.982175 0
M  V30 4065 H 393.683 -4.66611 0.373123 0
M  V30 4066 H 393.856 -6.43433 0.767981 0
M  V30 4067 N 387.262 0.0317525 -1.57568 0
M  V30 4068 C 388.539 0.758366 -1.803 0
M  V30 4069 C 388.919 1.93718 -0.838845 0
M  V30 4070 O 388.267 2.28187 0.119571 0
M  V30 4071 C 388.477 1.19392 -3.27943 0
M  V30 4072 C 389.825 1.61094 -3.92854 0
M  V30 4073 O 390.849 1.28857 -3.32076 0
M  V30 4074 O 389.708 2.20918 -4.99858 0
M  V30 4075 H 386.802 0.366514 -0.741348 0
M  V30 4076 H 389.348 0.00873765 -1.69698 0
M  V30 4077 H 388.12 0.352275 -3.89711 0
M  V30 4078 H 387.743 2.00365 -3.43424 0
M  V30 4079 N 388.74 1.54641 0.303973 0
M  V30 4080 C 389.97 1.77511 1.05705 0
M  V30 4081 C 390.378 0.533228 1.81531 0
M  V30 4082 O 389.721 -0.506423 1.76582 0
M  V30 4083 C 389.783 2.92779 2.08617 0
M  V30 4084 C 389.447 4.30977 1.52013 0
M  V30 4085 C 390.444 5.11115 0.9517 0
M  V30 4086 C 388.129 4.77571 1.55665 0
M  V30 4087 C 390.123 6.35966 0.427327 0
M  V30 4088 C 387.81 6.02384 1.02841 0
M  V30 4089 C 388.808 6.81417 0.464713 0
M  V30 4090 O 388.496 8.03881 -0.0555283 0
M  V30 4091 H 388.228 0.59579 0.319391 0
M  V30 4092 H 390.782 2.02401 0.349712 0
M  V30 4093 H 389.012 2.63506 2.83022 0
M  V30 4094 H 390.701 3.03252 2.69802 0
M  V30 4095 H 391.467 4.76264 0.916407 0
M  V30 4096 H 387.346 4.16085 1.9848 0
M  V30 4097 H 390.89 6.97599 -0.0133062 0
M  V30 4098 H 386.787 6.36723 1.06084 0
M  V30 4099 H 387.555 8.18479 0.0580522 0
M  V30 4100 N 390.218 -0.567019 1.47046 0
M  V30 4101 C 391.466 -1.322 1.52864 0
M  V30 4102 C 391.787 -1.94088 0.188388 0
M  V30 4103 O 391.057 -1.7941 -0.786693 0
M  V30 4104 H 389.637 -0.490894 0.563056 0
M  V30 4105 H 392.299 -0.662879 1.83281 0
M  V30 4106 H 391.395 -2.12062 2.2899 0
M  V30 4107 N 391.696 -1.35014 -0.812953 0
M  V30 4108 C 392.973 -1.18502 -1.55617 0
M  V30 4109 C 393.353 0.238421 -2.09749 0
M  V30 4110 O 392.701 1.2411 -1.91857 0
M  V30 4111 C 392.911 -2.24783 -2.66971 0
M  V30 4112 C 394.259 -2.60268 -3.35478 0
M  V30 4113 O 395.283 -2.23648 -2.77236 0
M  V30 4114 O 394.142 -3.2321 -4.40678 0
M  V30 4115 H 391.236 -0.459984 -0.687272 0
M  V30 4116 H 393.782 -1.46677 -0.853464 0
M  V30 4117 H 392.554 -3.20284 -2.24798 0
M  V30 4118 H 392.177 -1.97841 -3.44884 0
M  V30 4119 N 393.175 1.03435 -1.18907 0
M  V30 4120 C 394.123 2.13703 -0.918353 0
M  V30 4121 C 395.117 1.68947 0.123767 0
M  V30 4122 O 396.323 1.79983 -0.0249701 0
M  V30 4123 H 392.698 0.698112 -0.279542 0
M  V30 4124 H 394.669 2.33731 -1.85506 0
M  V30 4125 C 393.418 3.44542 -0.467532 0
M  V30 4126 H 392.741 3.79394 -1.26095 0
M  V30 4127 H 394.181 4.22812 -0.317164 0
M  V30 4128 C 392.64 3.26829 0.817588 0
M  V30 4129 O 393.17 3.54975 1.88031 0
M  V30 4130 N 391.376 2.80139 0.772677 0
M  V30 4131 H 390.923 2.57434 -0.0923883 0
M  V30 4132 H 390.881 2.68668 1.63294 0
M  V30 4133 N 394.653 0.992116 1.22453 0
M  V30 4134 C 395.563 0.55065 2.28046 0
M  V30 4135 C 396.579 -0.400189 1.69335 0
M  V30 4136 O 397.755 -0.267215 1.99619 0
M  V30 4137 C 394.82 -0.128496 3.46462 0
M  V30 4138 C 393.881 0.865208 4.20491 0
M  V30 4139 C 393.114 0.218377 5.33253 0
M  V30 4140 O 393.337 -0.987894 5.6178 0
M  V30 4141 O 392.271 0.922845 5.94783 0
M  V30 4142 H 396.097 1.4291 2.67975 0
M  V30 4143 H 393.682 0.760326 1.28606 0
M  V30 4144 H 395.564 -0.508947 4.18315 0
M  V30 4145 H 394.239 -0.981526 3.0846 0
M  V30 4146 H 393.146 1.29658 3.50913 0
M  V30 4147 H 394.479 1.68741 4.62371 0
M  V30 4148 N 396.131 -1.37776 0.765217 0
M  V30 4149 C 397.547 -1.53297 0.444108 0
M  V30 4150 C 397.747 -1.72515 -1.04119 0
M  V30 4151 O 396.803 -1.74278 -1.82711 0
M  V30 4152 C 398.116 -2.73328 1.25349 0
M  V30 4153 C 399.664 -2.87185 1.24473 0
M  V30 4154 C 400.139 -4.10191 2.03733 0
M  V30 4155 N 401.63 -4.17291 2.01053 0
M  V30 4156 C 402.365 -5.11488 2.59166 0
M  V30 4157 N 401.861 -6.11285 3.26041 0
M  V30 4158 N 403.654 -5.03924 2.49032 0
M  V30 4159 H 395.805 -1.23552 1.72768 0
M  V30 4160 H 398.068 -0.601103 0.733062 0
M  V30 4161 H 397.774 -2.6557 2.30577 0
M  V30 4162 H 397.648 -3.66834 0.87823 0
M  V30 4163 H 400.035 -2.94418 0.20047 0
M  V30 4164 H 400.116 -1.94657 1.65959 0
M  V30 4165 H 399.76 -4.0372 3.08176 0
M  V30 4166 H 399.69 -5.01821 1.59633 0
M  V30 4167 H 402.181 -3.45825 1.5236 0
M  V30 4168 H 402.494 -6.79678 3.67774 0
M  V30 4169 H 400.839 -6.11583 3.30138 0
M  V30 4170 H 404.03 -4.24902 1.96407 0
M  V30 4171 H 404.203 -5.77152 2.94617 0
M  V30 4172 N 397.609 -0.515225 -1.4894 0
M  V30 4173 C 398.855 0.0242508 -2.02785 0
M  V30 4174 C 399.188 1.35323 -1.39289 0
M  V30 4175 O 398.463 1.87041 -0.533469 0
M  V30 4176 C 398.746 0.16184 -3.59736 0
M  V30 4177 C 398.599 -1.19127 -4.33738 0
M  V30 4178 C 399.918 0.895719 -4.30888 0
M  V30 4179 H 397.037 0.00733914 -0.736963 0
M  V30 4180 H 399.679 -0.669395 -1.77818 0
M  V30 4181 H 397.829 0.752624 -3.8114 0
M  V30 4182 H 399.501 -1.82202 -4.23792 0
M  V30 4183 H 397.744 -1.77695 -3.95736 0
M  V30 4184 H 398.415 -1.04815 -5.41957 0
M  V30 4185 H 400.891 0.394528 -4.14225 0
M  V30 4186 H 399.767 0.960859 -5.40425 0
M  V30 4187 H 400.028 1.9427 -3.97129 0
M  V30 4188 N 399.087 1.5561 -0.249682 0
M  V30 4189 C 400.315 2.03411 0.378352 0
M  V30 4190 C 400.73 1.12886 1.51335 0
M  V30 4191 O 400.087 0.143833 1.81932 0
M  V30 4192 C 400.138 3.50537 0.88351 0
M  V30 4193 O 399.859 4.37614 -0.20626 0
M  V30 4194 C 401.36 4.14113 1.58195 0
M  V30 4195 H 398.58 0.664994 0.08958 0
M  V30 4196 H 401.124 2.01044 -0.374357 0
M  V30 4197 H 399.279 3.5343 1.58639 0
M  V30 4198 H 399.693 5.24199 0.177782 0
M  V30 4199 H 401.167 5.18741 1.8871 0
M  V30 4200 H 401.644 3.60767 2.50487 0
M  V30 4201 H 402.25 4.15151 0.923573 0
M  V30 4202 N 400.565 -0.0233959 1.57583 0
M  V30 4203 C 401.495 -1.02162 2.09965 0
M  V30 4204 C 402.476 -1.3735 1.00344 0
M  V30 4205 O 403.661 -1.46135 1.27899 0
M  V30 4206 C 400.791 -2.32081 2.58371 0
M  V30 4207 C 399.745 -2.1112 3.72307 0
M  V30 4208 C 399.071 -3.46848 4.06941 0
M  V30 4209 C 400.371 -1.49276 5.00514 0
M  V30 4210 H 402.065 -0.585557 2.93618 0
M  V30 4211 H 399.611 -0.280218 1.41247 0
M  V30 4212 H 401.564 -3.02249 2.93639 0
M  V30 4213 H 400.288 -2.77758 1.71808 0
M  V30 4214 H 398.947 -1.43384 3.37397 0
M  V30 4215 H 398.595 -3.90184 3.17436 0
M  V30 4216 H 398.295 -3.33646 4.83688 0
M  V30 4217 H 399.819 -4.18369 4.44747 0
M  V30 4218 H 401.233 -2.09368 5.33702 0
M  V30 4219 H 399.63 -1.46632 5.8191 0
M  V30 4220 H 400.7 -0.459217 4.82721 0
M  V30 4221 N 402.043 -1.548 -0.295768 0
M  V30 4222 C 403.291 -1.73985 -1.02828 0
M  V30 4223 C 403.612 -0.531406 -1.87619 0
M  V30 4224 O 402.882 0.454221 -1.90561 0
M  V30 4225 H 401.462 -0.641556 -0.382642 0
M  V30 4226 H 404.124 -1.92163 -0.325489 0
M  V30 4227 H 403.22 -2.63129 -1.67838 0
M  V30 4228 N 403.521 0.559213 -1.47345 0
M  V30 4229 C 404.937 0.884943 -1.32819 0
M  V30 4230 C 405.137 1.98988 -0.317173 0
M  V30 4231 O 404.193 2.51031 0.272011 0
M  V30 4232 C 405.506 1.28007 -2.72093 0
M  V30 4233 C 407.054 1.39161 -2.80363 0
M  V30 4234 C 407.529 1.82031 -4.20272 0
M  V30 4235 N 409.02 1.89185 -4.22804 0
M  V30 4236 C 409.755 2.2368 -5.27973 0
M  V30 4237 N 409.251 2.56802 -6.43447 0
M  V30 4238 N 411.044 2.24436 -5.15349 0
M  V30 4239 H 403.195 -0.170304 -2.11716 0
M  V30 4240 H 405.458 -0.0135247 -0.947904 0
M  V30 4241 H 405.164 0.542027 -3.47498 0
M  V30 4242 H 405.038 2.23665 -3.03733 0
M  V30 4243 H 407.425 2.12048 -2.05231 0
M  V30 4244 H 407.506 0.41696 -2.52379 0
M  V30 4245 H 407.15 1.09715 -4.95908 0
M  V30 4246 H 407.08 2.80495 -4.45679 0
M  V30 4247 H 409.571 1.65982 -3.39497 0
M  V30 4248 H 409.884 2.82144 -7.19454 0
M  V30 4249 H 408.229 2.54387 -6.46771 0
M  V30 4250 H 411.42 1.97998 -4.24163 0
M  V30 4251 H 411.593 2.50989 -5.97418 0
M  V30 4252 N 404.999 1.35443 0.805782 0
M  V30 4253 C 406.229 1.31687 1.59192 0
M  V30 4254 C 406.637 -0.10756 1.88894 0
M  V30 4255 O 405.98 -1.07017 1.49309 0
M  V30 4256 C 406.042 2.05686 2.94845 0
M  V30 4257 C 405.706 3.54868 2.87954 0
M  V30 4258 C 406.703 4.49444 2.61335 0
M  V30 4259 C 404.388 3.97528 3.07046 0
M  V30 4260 C 406.382 5.84655 2.53885 0
M  V30 4261 C 404.069 5.32833 2.99219 0
M  V30 4262 C 405.067 6.26209 2.72674 0
M  V30 4263 O 404.755 7.59032 2.64811 0
M  V30 4264 H 404.487 0.453878 0.50097 0
M  V30 4265 H 407.041 1.78892 1.0093 0
M  V30 4266 H 405.271 1.5312 3.55093 0
M  V30 4267 H 406.96 1.94998 3.55993 0
M  V30 4268 H 407.726 4.17804 2.46303 0
M  V30 4269 H 403.605 3.25233 3.26718 0
M  V30 4270 H 407.149 6.57508 2.33086 0
M  V30 4271 H 403.046 5.64087 3.13809 0
M  V30 4272 H 403.814 7.68967 2.80413 0
M  V30 4273 N 406.477 -1.02803 1.19454 0
M  V30 4274 C 407.707 -1.79581 1.02149 0
M  V30 4275 C 408.115 -1.84182 -0.432851 0
M  V30 4276 O 407.458 -1.28534 -1.31243 0
M  V30 4277 C 407.52 -3.25993 1.51554 0
M  V30 4278 C 407.184 -3.45025 2.99678 0
M  V30 4279 C 408.181 -3.35175 3.97434 0
M  V30 4280 C 405.866 -3.71212 3.38389 0
M  V30 4281 C 407.86 -3.51238 5.31893 0
M  V30 4282 C 405.547 -3.8692 4.73008 0
M  V30 4283 C 406.545 -3.76936 5.69569 0
M  V30 4284 O 406.233 -3.92179 7.01748 0
M  V30 4285 H 405.965 -0.571962 0.360327 0
M  V30 4286 H 408.519 -1.30367 1.58725 0
M  V30 4287 H 406.749 -3.76235 0.893543 0
M  V30 4288 H 408.438 -3.84368 1.30444 0
M  V30 4289 H 409.204 -3.14895 3.68872 0
M  V30 4290 H 405.083 -3.78075 2.6378 0
M  V30 4291 H 408.627 -3.43362 6.07247 0
M  V30 4292 H 404.524 -4.06699 5.01265 0
M  V30 4293 H 405.292 -4.09265 7.08833 0
M  V30 4294 N 407.956 -0.998596 -1.21925 0
M  V30 4295 C 408.888 -0.511879 -2.23411 0
M  V30 4296 C 409.901 0.396094 -1.57908 0
M  V30 4297 O 411.09 0.197316 -1.77406 0
M  V30 4298 C 408.19 0.276802 -3.37768 0
M  V30 4299 C 407.363 -0.628687 -4.32858 0
M  V30 4300 C 406.422 0.109272 -5.26087 0
M  V30 4301 O 405.448 -0.507237 -5.66935 0
M  V30 4302 N 406.65 1.38983 -5.63617 0
M  V30 4303 H 409.415 -1.38457 -2.658 0
M  V30 4304 H 406.976 -0.873981 -1.36283 0
M  V30 4305 H 408.968 0.77928 -3.97126 0
M  V30 4306 H 407.538 1.05063 -2.94415 0
M  V30 4307 H 406.758 -1.31175 -3.71735 0
M  V30 4308 H 408.046 -1.24514 -4.93329 0
M  V30 4309 H 407.444 1.91194 -5.32411 0
M  V30 4310 H 406.001 1.83739 -6.25367 0
M  V30 4311 O 409.473 1.33471 -0.909268 0
M  V30 4312 H 410.164 1.86473 -0.524175 0
M  V30 END ATOM
M  V30 BEGIN BOND
M  V30 END BOND
M  V30 END CTAB
M  END
$$$$
