drugbank_target|P0ADY7 50S ribosomal protein L16 (DB00446)
 OpenBabel12092120573D

  0  0  0     0  0            999 V3000
M  V30 BEGIN CTAB
M  V30 COUNTS 2231 2250 0 0 0
M  V30 BEGIN ATOM
M  V30 1 H -0.908 1.98254 -0.117106 0
M  V30 2 N 0 1.576 0 0
M  V30 3 C 0.933 2.03868 1.02534 0
M  V30 4 C 1.911 0.928543 1.3348 0
M  V30 5 O 3.095 1.19667 1.45644 0
M  V30 6 C 0.222 2.43627 2.35294 0
M  V30 7 C -0.732 3.65373 2.2001 0
M  V30 8 S 0.101 5.13292 1.52614 0
M  V30 9 C 1.257 5.56322 2.86805 0
M  V30 10 H 1.49 2.90518 0.631377 0
M  V30 11 H -0.977 1.52953 0.210867 0
M  V30 12 H 0.981 2.67203 3.11629 0
M  V30 13 H -0.358 1.57376 2.7183 0
M  V30 14 H -1.165 3.90944 3.18086 0
M  V30 15 H -1.563 3.418 1.51819 0
M  V30 16 H 0.729 5.58782 3.83104 0
M  V30 17 H 1.672 6.56266 2.65933 0
M  V30 18 H 2.08 4.83886 2.90714 0
M  V30 19 N 1.4781 -0.272755 1.55222 0
M  V30 20 C 2.4081 -1.34136 1.91127 0
M  V30 21 C 3.3891 -1.51513 0.773168 0
M  V30 22 O 4.5741 -1.64552 1.03132 0
M  V30 23 C 1.7041 -2.70083 2.1834 0
M  V30 24 C 0.6581 -2.67437 3.34158 0
M  V30 25 C -0.0159 -4.06938 3.46851 0
M  V30 26 C 1.2841 -2.26686 4.70543 0
M  V30 27 H 2.9781 -1.04333 2.80633 0
M  V30 28 H 0.5241 -0.500454 1.35024 0
M  V30 29 H 2.4771 -3.44952 2.42046 0
M  V30 30 H 1.2011 -3.01469 1.25634 0
M  V30 31 H -0.1399 -1.95026 3.1042 0
M  V30 32 H -0.4919 -4.35547 2.51611 0
M  V30 33 H -0.7919 -4.06062 4.2472 0
M  V30 34 H 0.7321 -4.83545 3.72849 0
M  V30 35 H 2.1461 -2.91277 4.93792 0
M  V30 36 H 0.5431 -2.36971 5.5133 0
M  V30 37 H 1.6131 -1.21818 4.69349 0
M  V30 38 N 2.9562 -1.48159 -0.537278 0
M  V30 39 C 3.8882 -1.58218 -1.65831 0
M  V30 40 C 4.9012 -0.466948 -1.5596 0
M  V30 41 O 6.0902 -0.73747 -1.62553 0
M  V30 42 C 3.1902 -1.48906 -3.04434 0
M  V30 43 C 2.3632 -2.75343 -3.3986 0
M  V30 44 C 1.4222 -2.59588 -4.57712 0
M  V30 45 O 0.4482 -3.33457 -4.61297 0
M  V30 46 N 1.6502 -1.68724 -5.55439 0
M  V30 47 H 4.4152 -2.54891 -1.57641 0
M  V30 48 H 1.9762 -1.4479 -0.724386 0
M  V30 49 H 3.9682 -1.36072 -3.81139 0
M  V30 50 H 2.5382 -0.602368 -3.06741 0
M  V30 51 H 1.7582 -3.02795 -2.52406 0
M  V30 52 H 3.0462 -3.5924 -3.60311 0
M  V30 53 H 2.4442 -1.07898 -5.55315 0
M  V30 54 H 1.0012 -1.61832 -6.3139 0
M  V30 55 N 4.4343 0.785586 -1.36625 0
M  V30 56 C 5.8453 1.36101 -1.27803 0
M  V30 57 C 6.1963 1.96035 0.0804875 0
M  V30 58 O 5.3213 1.92834 0.982042 0
M  V30 59 C 5.9163 2.47442 -2.31426 0
M  V30 60 C 4.4753 3.00789 -2.26281 0
M  V30 61 C 3.6223 1.73896 -2.15999 0
M  V30 62 H 6.5733 0.586928 -1.47448 0
M  V30 63 H 6.5943 3.2656 -1.95291 0
M  V30 64 H 6.1063 2.03791 -3.30289 0
M  V30 65 H 4.2073 3.48851 -1.30896 0
M  V30 66 H 4.3203 3.57343 -3.19128 0
M  V30 67 H 2.6843 1.9628 -1.62316 0
M  V30 68 H 3.4673 1.32368 -3.16755 0
M  V30 69 N 5.9124 1.20967 1.01018 0
M  V30 70 C 6.8594 0.964281 2.09691 0
M  V30 71 C 7.8294 -0.107853 1.65749 0
M  V30 72 O 9.0144 0.0381987 1.90762 0
M  V30 73 C 6.1544 0.52943 3.41015 0
M  V30 74 C 5.2674 1.67043 3.98398 0
M  V30 75 C 4.4024 1.18525 5.17808 0
M  V30 76 C 3.4414 2.29892 5.67288 0
M  V30 77 N 2.5784 1.82546 6.77954 0
M  V30 78 H 7.4184 1.89463 2.30017 0
M  V30 79 H 4.9554 0.944289 1.1279 0
M  V30 80 H 6.9134 0.258588 4.16398 0
M  V30 81 H 5.5434 -0.363919 3.20742 0
M  V30 82 H 4.5954 2.05603 3.20049 0
M  V30 83 H 5.9074 2.50877 4.31117 0
M  V30 84 H 5.0614 0.870762 6.00419 0
M  V30 85 H 3.8004 0.316887 4.86669 0
M  V30 86 H 2.8054 2.6215 4.83278 0
M  V30 87 H 4.0304 3.17216 6.00459 0
M  V30 88 H 1.9764 0.980454 6.48632 0
M  V30 89 H 1.8934 2.59956 7.09901 0
M  V30 90 H 3.1614 1.54115 7.64113 0
M  V30 91 N 7.3905 -1.2043 1.01659 0
M  V30 92 C 8.8065 -1.41852 0.731442 0
M  V30 93 C 9.0065 -1.89358 -0.688898 0
M  V30 94 O 8.0625 -2.06247 -1.45666 0
M  V30 95 C 9.3755 -2.44019 1.75714 0
M  V30 96 C 10.9235 -2.57785 1.77527 0
M  V30 97 C 11.3985 -3.63194 2.79023 0
M  V30 98 N 12.8895 -3.70678 2.77763 0
M  V30 99 C 13.6245 -4.51897 3.52954 0
M  V30 100 N 13.1205 -5.36921 4.37821 0
M  V30 101 N 14.9135 -4.4643 3.41551 0
M  V30 102 H 7.0645 -0.879093 1.93354 0
M  V30 103 H 9.3275 -0.448425 0.835236 0
M  V30 104 H 9.0335 -2.1611 2.77469 0
M  V30 105 H 8.9075 -3.43007 1.56927 0
M  V30 106 H 11.2945 -2.85023 0.764569 0
M  V30 107 H 11.3755 -1.58992 2.00387 0
M  V30 108 H 11.0195 -3.36699 3.80258 0
M  V30 109 H 10.9495 -4.61609 2.53425 0
M  V30 110 H 13.4405 -3.09944 2.16201 0
M  V30 111 H 13.7535 -5.95981 4.91962 0
M  V30 112 H 12.0985 -5.36424 4.41899 0
M  V30 113 H 15.2895 -3.79042 2.74672 0
M  V30 114 H 15.4625 -5.09491 4.00404 0
M  V30 115 N 8.8686 -0.792821 -1.36206 0
M  V30 116 C 10.0966 -0.378825 -2.03402 0
M  V30 117 C 10.5116 1.00586 -1.59774 0
M  V30 118 O 9.8686 1.64574 -0.788764 0
M  V30 119 C 9.9196 -0.43683 -3.58851 0
M  V30 120 O 9.6406 -1.76691 -4.00889 0
M  V30 121 C 11.1416 -0.0138943 -4.43298 0
M  V30 122 H 8.3616 -0.155673 -0.652692 0
M  V30 123 H 10.9056 -1.07261 -1.74113 0
M  V30 124 H 9.0606 0.208575 -3.86838 0
M  V30 125 H 9.4746 -1.72011 -4.95492 0
M  V30 126 H 10.9486 -0.105615 -5.51899 0
M  V30 127 H 11.4256 1.03915 -4.2673 0
M  V30 128 H 12.0316 -0.63192 -4.20579 0
M  V30 129 N 10.3467 1.47872 -0.545128 0
M  V30 130 C 11.2937 2.29849 0.2093 0
M  V30 131 C 12.2637 1.38313 0.919707 0
M  V30 132 O 13.4487 1.67277 0.917772 0
M  V30 133 C 10.5887 3.22019 1.24088 0
M  V30 134 C 9.7017 4.2864 0.537778 0
M  V30 135 C 8.8367 5.07973 1.5536 0
M  V30 136 C 7.8757 6.06381 0.8348 0
M  V30 137 N 7.0127 6.78717 1.79688 0
M  V30 138 H 11.8527 2.93845 -0.49591 0
M  V30 139 H 9.3897 1.44848 -0.256389 0
M  V30 140 H 11.3477 3.73868 1.85144 0
M  V30 141 H 9.9777 2.59914 1.91428 0
M  V30 142 H 9.0297 3.7994 -0.187046 0
M  V30 143 H 10.3417 4.98793 -0.0258907 0
M  V30 144 H 9.4957 5.63912 2.23803 0
M  V30 145 H 8.2347 4.37693 2.15118 0
M  V30 146 H 7.2397 5.49631 0.136388 0
M  V30 147 H 8.4647 6.78665 0.24313 0
M  V30 148 H 6.4107 6.11177 2.38326 0
M  V30 149 H 6.3277 7.44998 1.28505 0
M  V30 150 H 7.5957 7.39237 2.47282 0
M  V30 151 N 11.8248 0.280983 1.55075 0
M  V30 152 C 13.0718 -0.334115 1.99725 0
M  V30 153 C 13.3998 -1.5542 1.1694 0
M  V30 154 O 12.6548 -1.94361 0.228531 0
M  V30 155 C 12.9538 -0.754656 3.49342 0
M  V30 156 C 12.6198 0.361445 4.49449 0
M  V30 157 C 11.2818 0.667893 4.76542 0
M  V30 158 C 13.6338 1.11322 5.09173 0
M  V30 159 C 10.9618 1.7296 5.60626 0
M  V30 160 C 13.3138 2.1647 5.9441 0
M  V30 161 C 11.9778 2.47742 6.19822 0
M  V30 162 H 11.2478 -0.122261 0.730844 0
M  V30 163 H 13.8948 0.395917 1.87363 0
M  V30 164 H 12.1998 -1.56446 3.5921 0
M  V30 165 H 13.8968 -1.24142 3.813 0
M  V30 166 H 10.4868 0.112481 4.28452 0
M  V30 167 H 14.6708 0.88973 4.8826 0
M  V30 168 H 9.9268 1.97684 5.78559 0
M  V30 169 H 14.1008 2.75193 6.3972 0
M  V30 170 H 11.7278 3.30145 6.84769 0
M  V30 171 N 13.3029 -1.57598 0.00835791 0
M  V30 172 C 14.7189 -1.55764 -0.347822 0
M  V30 173 C 14.9189 -1.01186 -1.74252 0
M  V30 174 O 13.9749 -0.649371 -2.44007 0
M  V30 175 C 15.2879 -2.99927 -0.215407 0
M  V30 176 C 16.8359 -3.11656 -0.289725 0
M  V30 177 C 17.3109 -4.57621 -0.18634 0
M  V30 178 N 18.8019 -4.62557 -0.243978 0
M  V30 179 C 19.5369 -5.73094 -0.18745 0
M  V30 180 N 19.0329 -6.92753 -0.0810331 0
M  V30 181 N 20.8259 -5.61588 -0.239925 0
M  V30 182 H 12.9769 -1.91411 0.92062 0
M  V30 183 H 15.2399 -0.879562 0.353659 0
M  V30 184 H 14.9459 -3.43729 0.744512 0
M  V30 185 H 14.8199 -3.63865 -0.994097 0
M  V30 186 H 17.2069 -2.67779 -1.24009 0
M  V30 187 H 17.2879 -2.5048 0.51898 0
M  V30 188 H 16.9319 -5.02174 0.760519 0
M  V30 189 H 16.8619 -5.16752 -1.01364 0
M  V30 190 H 19.3529 -3.76481 -0.327217 0
M  V30 191 H 19.6659 -7.72787 -0.0440241 0
M  V30 192 H 18.0109 -6.94984 -0.0465419 0
M  V30 193 H 21.2019 -4.66996 -0.321317 0
M  V30 194 H 21.3749 -6.47714 -0.192407 0
M  V30 195 N 14.781 0.264519 -1.55364 0
M  V30 196 C 15.728 1.32717 -1.88825 0
M  V30 197 C 16.698 1.48675 -0.740605 0
M  V30 198 O 17.883 1.62945 -0.992657 0
M  V30 199 C 15.023 2.68089 -2.17307 0
M  V30 200 C 14.136 2.60284 -3.44785 0
M  V30 201 C 13.271 3.87892 -3.62924 0
M  V30 202 C 12.31 3.74631 -4.84064 0
M  V30 203 N 11.447 4.94092 -4.98816 0
M  V30 204 H 16.287 1.03481 -2.79456 0
M  V30 205 H 13.824 0.499757 -1.3835 0
M  V30 206 H 15.782 3.46864 -2.31821 0
M  V30 207 H 14.412 2.95509 -1.299 0
M  V30 208 H 13.464 1.73173 -3.38697 0
M  V30 209 H 14.776 2.46388 -4.33698 0
M  V30 210 H 13.93 4.75109 -3.77302 0
M  V30 211 H 12.669 4.04664 -2.7221 0
M  V30 212 H 11.674 2.85797 -4.69681 0
M  V30 213 H 12.899 3.5937 -5.76221 0
M  V30 214 H 10.845 5.11259 -4.11036 0
M  V30 215 H 10.762 4.8276 -5.81789 0
M  V30 216 H 12.03 5.82857 -5.17588 0
M  V30 217 N 16.2591 1.48442 0.529413 0
M  V30 218 C 17.1921 1.57577 1.65059 0
M  V30 219 C 18.1701 0.426198 1.56915 0
M  V30 220 O 19.3541 0.637877 1.77379 0
M  V30 221 C 16.4811 1.5043 3.03461 0
M  V30 222 C 15.5271 2.70235 3.29962 0
M  V30 223 S 16.3601 4.32198 3.16172 0
M  V30 224 C 17.5161 4.2765 4.57019 0
M  V30 225 H 17.7491 2.52427 1.5706 0
M  V30 226 H 15.2821 1.36982 0.712417 0
M  V30 227 H 17.2401 1.46992 3.8328 0
M  V30 228 H 15.9011 0.569167 3.089 0
M  V30 229 H 15.0941 2.61374 4.30929 0
M  V30 230 H 14.6961 2.70938 2.57815 0
M  V30 231 H 16.9881 3.97618 5.48549 0
M  V30 232 H 17.9311 5.28797 4.70934 0
M  V30 233 H 18.3391 3.5811 4.36368 0
M  V30 234 N 17.7372 -0.778329 1.37039 0
M  V30 235 C 18.6872 -1.88142 1.28789 0
M  V30 236 C 19.6712 -1.59923 0.177063 0
M  V30 237 O 20.8632 -1.72165 0.410873 0
M  V30 238 C 17.9922 -3.25518 1.09055 0
M  V30 239 C 17.0782 -3.5971 2.24654 0
M  V30 240 N 17.4692 -3.65131 3.50018 0
M  V30 241 C 15.7672 -3.89837 2.16663 0
M  V30 242 C 16.4682 -3.95882 4.26207 0
M  V30 243 N 15.4442 -4.11441 3.55271 0
M  V30 244 H 19.2462 -1.90575 2.23737 0
M  V30 245 H 16.7602 -0.974435 1.29917 0
M  V30 246 H 18.7572 -4.04423 1.0123 0
M  V30 247 H 17.4172 -3.24353 0.15018 0
M  V30 248 H 18.4282 -3.475 3.84011 0
M  V30 249 H 15.1052 -3.96533 1.30645 0
M  V30 250 H 16.4952 -4.06907 5.34674 0
M  V30 251 N 19.2153 -1.21501 -1.00376 0
M  V30 252 C 20.1623 -0.975387 -2.09177 0
M  V30 253 C 21.1323 0.0990615 -1.65804 0
M  V30 254 O 22.3173 -0.0483147 -1.90739 0
M  V30 255 C 19.4573 -0.547507 -3.40729 0
M  V30 256 C 18.5703 -1.69153 -3.97506 0
M  V30 257 C 17.7053 -1.2127 -5.17172 0
M  V30 258 C 16.7443 -2.32897 -5.66061 0
M  V30 259 N 15.8813 -1.86138 -6.76976 0
M  V30 260 H 20.7213 -1.9068 -2.29009 0
M  V30 261 H 18.2583 -0.950257 -1.12288 0
M  V30 262 H 20.2163 -0.280667 -4.16255 0
M  V30 263 H 18.8463 0.346904 -3.20931 0
M  V30 264 H 17.8983 -2.07298 -3.18954 0
M  V30 265 H 19.2103 -2.5316 -4.29781 0
M  V30 266 H 18.3643 -0.902591 -5.99948 0
M  V30 267 H 17.1033 -0.342692 -4.86495 0
M  V30 268 H 16.1083 -2.64709 -4.81881 0
M  V30 269 H 17.3333 -3.20396 -5.98768 0
M  V30 270 H 15.2793 -1.01484 -6.48103 0
M  V30 271 H 15.1963 -2.63717 -7.08512 0
M  V30 272 H 16.4643 -1.58165 -7.63285 0
M  V30 273 N 20.6934 1.19889 -1.02296 0
M  V30 274 C 21.9414 1.89046 -0.714558 0
M  V30 275 C 22.2624 1.79636 0.758681 0
M  V30 276 O 21.5324 1.20292 1.54618 0
M  V30 277 H 20.1124 0.699802 -0.261317 0
M  V30 278 H 22.7744 1.45574 -1.29592 0
M  V30 279 H 21.8704 2.95524 -1.0036 0
M  V30 280 N 22.1715 0.800033 1.35784 0
M  V30 281 C 23.5875 0.482977 1.52117 0
M  V30 282 C 23.7875 -0.996948 1.75109 0
M  V30 283 O 22.8435 -1.78216 1.78872 0
M  V30 284 C 24.1565 1.32264 2.70049 0
M  V30 285 C 25.7045 1.31742 2.83924 0
M  V30 286 C 26.1795 2.14106 4.04874 0
M  V30 287 N 27.6705 2.11607 4.12039 0
M  V30 288 C 28.4055 2.72099 5.04727 0
M  V30 289 N 27.9015 3.41492 6.02789 0
M  V30 290 N 29.6945 2.61776 4.97423 0
M  V30 291 H 21.8455 1.75856 1.19115 0
M  V30 292 H 24.1085 0.748122 0.582252 0
M  V30 293 H 23.8145 2.37261 2.59616 0
M  V30 294 H 23.6885 0.971303 3.6448 0
M  V30 295 H 26.0755 0.275333 2.93813 0
M  V30 296 H 26.1565 1.70859 1.9037 0
M  V30 297 H 25.8005 3.18351 3.95746 0
M  V30 298 H 25.7305 1.72353 4.97596 0
M  V30 299 H 28.2215 1.61112 3.41835 0
M  V30 300 H 28.5345 3.84953 6.70098 0
M  V30 301 H 26.8795 3.45596 6.02983 0
M  V30 302 H 30.0705 2.07157 4.19766 0
M  V30 303 H 30.2435 3.0921 5.69468 0
M  V30 304 N 23.6496 -1.47581 0.552962 0
M  V30 305 C 24.5976 -2.31648 -0.21023 0
M  V30 306 C 25.5916 -1.42663 -0.913432 0
M  V30 307 O 26.7976 -1.5945 -0.835201 0
M  V30 308 H 23.1726 -0.746989 -0.0866676 0
M  V30 309 H 25.1436 -2.93869 0.518051 0
M  V30 310 C 23.8926 -3.25226 -1.22976 0
M  V30 311 H 23.2156 -3.93658 -0.698077 0
M  V30 312 H 24.6556 -3.86889 -1.73473 0
M  V30 313 C 23.1146 -2.48448 -2.27542 0
M  V30 314 O 23.6446 -2.22585 -3.34393 0
M  V30 315 N 21.8506 -2.09532 -2.01357 0
M  V30 316 H 21.3976 -2.30765 -1.14478 0
M  V30 317 H 21.3556 -1.58476 -2.71538 0
M  V30 318 N 25.1277 -0.289203 -1.54924 0
M  V30 319 C 26.5437 0.0645403 -1.59469 0
M  V30 320 C 26.7437 1.53419 -1.30632 0
M  V30 321 O 25.7997 2.2852 -1.074 0
M  V30 322 C 27.1127 -0.32278 -2.98963 0
M  V30 323 C 28.6607 -0.270564 -3.11828 0
M  V30 324 C 29.1357 -0.632532 -4.53611 0
M  V30 325 N 30.6267 -0.584617 -4.59496 0
M  V30 326 C 31.3617 -0.837314 -5.67254 0
M  V30 327 N 30.8577 -1.15536 -6.83098 0
M  V30 328 N 32.6507 -0.765166 -5.56868 0
M  V30 329 H 24.8017 -1.24714 -1.71931 0
M  V30 330 H 27.0647 -0.504809 -0.802416 0
M  V30 331 H 26.7707 -1.34541 -3.24948 0
M  V30 332 H 26.6447 0.32944 -3.75759 0
M  V30 333 H 29.0317 0.742805 -2.85598 0
M  V30 334 H 29.1127 -0.957242 -2.37214 0
M  V30 335 H 28.7567 -1.64365 -4.80569 0
M  V30 336 H 28.6867 0.07609 -5.26545 0
M  V30 337 H 31.1777 -0.349248 -3.76283 0
M  V30 338 H 31.4907 -1.33447 -7.61191 0
M  V30 339 H 29.8357 -1.19328 -6.84679 0
M  V30 340 H 33.0267 -0.516432 -4.65243 0
M  V30 341 H 33.1997 -0.965477 -6.40767 0
M  V30 342 N 26.6058 1.57591 -0.0167156 0
M  V30 343 C 27.8538 1.90906 0.663285 0
M  V30 344 C 28.1748 0.892509 1.73376 0
M  V30 345 O 27.4448 -0.0677623 1.95783 0
M  V30 346 H 26.0248 0.704637 0.247983 0
M  V30 347 H 28.6868 1.94803 -0.0615909 0
M  V30 348 H 27.7828 2.9116 1.12393 0
M  V30 349 N 28.0839 -0.256276 1.55502 0
M  V30 350 C 29.0139 -1.32102 1.92539 0
M  V30 351 C 29.9949 -1.50684 0.789194 0
M  V30 352 O 31.1799 -1.63449 1.04872 0
M  V30 353 C 28.3099 -2.67752 2.21192 0
M  V30 354 C 27.2639 -2.63878 3.36975 0
M  V30 355 C 26.5899 -4.03236 3.51147 0
M  V30 356 C 27.8899 -2.21682 4.72921 0
M  V30 357 H 29.5839 -1.01351 2.81724 0
M  V30 358 H 27.1299 -0.486105 1.35547 0
M  V30 359 H 29.0829 -3.42365 2.45691 0
M  V30 360 H 27.8069 -3.0012 1.28824 0
M  V30 361 H 26.4659 -1.91722 3.12471 0
M  V30 362 H 26.1139 -4.32854 2.56216 0
M  V30 363 H 25.8139 -4.01535 4.29003 0
M  V30 364 H 27.3379 -4.79563 3.77957 0
M  V30 365 H 28.7519 -2.86023 4.96854 0
M  V30 366 H 27.1489 -2.3111 5.53812 0
M  V30 367 H 28.2189 -1.16833 4.70615 0
M  V30 368 N 29.562 -1.4872 -0.521534 0
M  V30 369 C 30.525 -1.63379 -1.60748 0
M  V30 370 C 31.525 -0.50661 -1.52611 0
M  V30 371 O 32.715 -0.772601 -1.5613 0
M  V30 372 C 29.847 -1.61192 -3.00383 0
M  V30 373 H 31.04 -2.60217 -1.49087 0
M  V30 374 H 28.593 -1.37444 -0.744235 0
M  V30 375 H 29.328 -0.65863 -3.17541 0
M  V30 376 H 29.113 -2.43032 -3.07698 0
M  V30 377 H 30.603 -1.7466 -3.7932 0
M  V30 378 N 31.0401 0.771051 -1.3745 0
M  V30 379 C 31.9721 1.89352 -1.29146 0
M  V30 380 C 32.9851 1.61477 -0.207124 0
M  V30 381 O 34.1741 1.72382 -0.463324 0
M  V30 382 C 31.2741 3.24596 -0.974195 0
M  V30 383 C 30.4471 3.80111 -2.16413 0
M  V30 384 C 29.5061 4.93832 -1.81703 0
M  V30 385 O 28.5321 5.09382 -2.54006 0
M  V30 386 N 29.7341 5.75483 -0.761573 0
M  V30 387 H 32.4991 1.96991 -2.25864 0
M  V30 388 H 30.0601 0.950191 -1.31084 0
M  V30 389 H 32.0521 3.98193 -0.722828 0
M  V30 390 H 30.6221 3.12454 -0.0955527 0
M  V30 391 H 29.8421 2.98284 -2.57721 0
M  V30 392 H 31.1301 4.13932 -2.95867 0
M  V30 393 H 30.5281 5.65469 -0.161609 0
M  V30 394 H 29.0851 6.49302 -0.570064 0
M  V30 395 N 32.5182 1.22032 0.997298 0
M  V30 396 C 33.7662 1.04016 1.73278 0
M  V30 397 C 34.0872 -0.426255 1.90284 0
M  V30 398 O 33.3572 -1.30694 1.45931 0
M  V30 399 H 31.9372 0.381897 0.642 0
M  V30 400 H 34.5992 1.5347 1.20137 0
M  V30 401 H 33.6952 1.51441 2.72896 0
M  V30 402 N 33.9963 -1.19345 1.0293 0
M  V30 403 C 35.2243 -1.92997 0.745644 0
M  V30 404 C 35.6393 -1.75519 -0.695589 0
M  V30 405 O 34.9963 -1.07737 -1.47306 0
M  V30 406 C 35.0473 -3.44741 1.08792 0
M  V30 407 O 34.7683 -3.61658 2.47256 0
M  V30 408 C 36.2693 -4.35515 0.827129 0
M  V30 409 H 33.4893 -0.613042 0.272801 0
M  V30 410 H 36.0333 -1.51473 1.3739 0
M  V30 411 H 34.1883 -3.84097 0.504832 0
M  V30 412 H 34.6023 -4.55514 2.60015 0
M  V30 413 H 36.0763 -5.40589 1.11658 0
M  V30 414 H 36.5533 -4.38552 -0.238436 0
M  V30 415 H 37.1593 -4.01841 1.39297 0
M  V30 416 N 35.4744 -0.807222 -1.35358 0
M  V30 417 C 36.7514 -0.311126 -1.9311 0
M  V30 418 C 37.1314 1.19937 -1.73719 0
M  V30 419 O 36.4794 1.99918 -1.10657 0
M  V30 420 C 36.6894 -0.723226 -3.41424 0
M  V30 421 C 38.0374 -0.713078 -4.18569 0
M  V30 422 O 39.0614 -0.664811 -3.49941 0
M  V30 423 O 37.9204 -0.772022 -5.41019 0
M  V30 424 H 35.0144 -0.081526 -0.822972 0
M  V30 425 H 37.5604 -0.890962 -1.4443 0
M  V30 426 H 36.3324 -1.76426 -3.4927 0
M  V30 427 H 35.9554 -0.118232 -3.97424 0
M  V30 428 N 36.9525 1.47285 -0.560781 0
M  V30 429 C 38.1985 2.02764 -0.0381184 0
M  V30 430 C 38.5315 1.43384 1.30976 0
M  V30 431 O 37.8065 0.590733 1.85312 0
M  V30 432 C 38.0895 3.60064 0.0511427 0
M  V30 433 C 37.9425 4.2987 -1.32408 0
M  V30 434 C 39.2615 4.33439 0.762795 0
M  V30 435 H 36.3805 0.736841 -0.0153264 0
M  V30 436 H 39.0225 1.75675 -0.723759 0
M  V30 437 H 37.1725 3.83274 0.635065 0
M  V30 438 H 38.8445 4.17989 -1.95148 0
M  V30 439 H 37.0875 3.90085 -1.8978 0
M  V30 440 H 37.7585 5.38478 -1.21431 0
M  V30 441 H 40.2345 4.15243 0.266965 0
M  V30 442 H 39.1105 5.43124 0.794221 0
M  V30 443 H 39.3715 4.02915 1.81966 0
M  V30 444 N 38.4306 0.297415 1.54768 0
M  V30 445 C 39.6556 -0.318435 2.04941 0
M  V30 446 C 40.0806 -1.4701 1.17345 0
M  V30 447 O 39.4386 -1.80436 0.176758 0
M  V30 448 C 39.4866 -0.755749 3.52592 0
M  V30 449 O 38.5906 -1.86088 3.68028 0
M  V30 450 H 37.9316 -0.062421 0.661059 0
M  V30 451 H 40.4616 0.438215 1.99852 0
M  V30 452 H 40.4716 -1.04552 3.94376 0
M  V30 453 H 39.1466 0.0867233 4.1581 0
M  V30 454 H 37.7236 -1.57193 3.38149 0
M  V30 455 N 39.9087 -1.5758 0.0250728 0
M  V30 456 C 41.1557 -1.91633 -0.654444 0
M  V30 457 C 41.4837 -0.901103 -1.72367 0
M  V30 458 O 40.7387 0.0905647 -1.9549 0
M  V30 459 C 41.0377 -3.32421 -1.31268 0
M  V30 460 C 40.7037 -4.49344 -0.374223 0
M  V30 461 C 39.3657 -4.8106 -0.115911 0
M  V30 462 C 41.7177 -5.20498 0.270432 0
M  V30 463 C 39.0457 -5.8129 0.79493 0
M  V30 464 C 41.3977 -6.21699 1.1693 0
M  V30 465 C 40.0617 -6.51859 1.43655 0
M  V30 466 H 39.3317 -0.701236 -0.239478 0
M  V30 467 H 41.9787 -1.91307 0.0859734 0
M  V30 468 H 40.2837 -3.28989 -2.12775 0
M  V30 469 H 41.9807 -3.56038 -1.84494 0
M  V30 470 H 38.5707 -4.24579 -0.58573 0
M  V30 471 H 42.7547 -4.96229 0.0839194 0
M  V30 472 H 38.0107 -6.03005 1.00973 0
M  V30 473 H 42.1847 -6.75955 1.67504 0
M  V30 474 H 39.8117 -7.2934 2.144 0
M  V30 475 N 41.3868 0.248026 -1.55636 0
M  V30 476 C 42.6348 0.974295 -1.77065 0
M  V30 477 C 42.9558 1.85897 -0.588849 0
M  V30 478 O 42.2258 1.91868 0.395407 0
M  V30 479 H 40.8058 0.362733 -0.653019 0
M  V30 480 H 43.4678 0.266244 -1.93073 0
M  V30 481 H 42.5638 1.59667 -2.68166 0
M  V30 482 N 42.8649 1.48995 0.513639 0
M  V30 483 C 44.0899 1.61792 1.29762 0
M  V30 484 C 44.5149 0.284475 1.85936 0
M  V30 485 O 43.8729 -0.746185 1.65232 0
M  V30 486 C 43.9209 2.67993 2.41272 0
M  V30 487 O 43.0249 2.26287 3.44772 0
M  V30 488 H 42.3659 0.541963 0.38363 0
M  V30 489 H 44.8959 1.95097 0.616307 0
M  V30 490 H 44.9059 2.89772 2.87221 0
M  V30 491 H 43.5809 3.64791 1.9975 0
M  V30 492 H 42.1579 2.14788 3.04829 0
M  V30 493 N 44.343 -0.763751 1.37857 0
M  V30 494 C 45.59 -1.52257 1.33506 0
M  V30 495 C 45.918 -1.94343 -0.078022 0
M  V30 496 O 45.173 -1.64958 -1.05297 0
M  V30 497 C 45.472 -2.79499 2.22745 0
M  V30 498 C 45.138 -2.56426 3.70886 0
M  V30 499 C 43.8 -2.49842 4.11257 0
M  V30 500 C 46.152 -2.36008 4.64704 0
M  V30 501 C 43.48 -2.20841 5.43549 0
M  V30 502 C 45.832 -2.0853 5.97242 0
M  V30 503 C 44.496 -2.00396 6.36709 0
M  V30 504 H 43.766 -0.557149 0.488534 0
M  V30 505 H 46.413 -0.879073 1.70131 0
M  V30 506 H 44.718 -3.48447 1.79142 0
M  V30 507 H 46.415 -3.37413 2.16688 0
M  V30 508 H 43.005 -2.62416 3.38874 0
M  V30 509 H 47.189 -2.40079 4.34368 0
M  V30 510 H 42.445 -2.13045 5.73081 0
M  V30 511 H 46.619 -1.91732 6.69486 0
M  V30 512 H 44.246 -1.77688 7.39142 0
M  V30 513 N 45.8211 -1.22559 -0.990812 0
M  V30 514 C 47.0691 -1.04933 -1.72724 0
M  V30 515 C 47.3901 0.416158 -1.90508 0
M  V30 516 O 46.6601 1.29918 -1.46622 0
M  V30 517 H 45.2401 -0.385296 -0.639965 0
M  V30 518 H 47.9021 -1.54105 -1.19322 0
M  V30 519 H 46.9981 -1.52886 -2.72089 0
M  V30 520 N 47.2992 1.18797 -1.03562 0
M  V30 521 C 48.2292 2.24472 -0.643019 0
M  V30 522 C 49.2102 1.66433 0.351283 0
M  V30 523 O 50.3952 1.92803 0.232505 0
M  V30 524 C 47.5252 3.473 4.24935e-05 0
M  V30 525 C 46.4792 4.18055 -0.917257 0
M  V30 526 C 45.8052 5.34519 -0.138941 0
M  V30 527 C 47.1052 4.72109 -2.23407 0
M  V30 528 H 48.7992 2.57566 -1.52643 0
M  V30 529 H 46.3452 1.23806 -0.735394 0
M  V30 530 H 48.2982 4.20426 0.286383 0
M  V30 531 H 47.0222 3.13424 0.918299 0
M  V30 532 H 45.6812 3.46821 -1.1879 0
M  V30 533 H 45.3292 4.96891 0.781562 0
M  V30 534 H 45.0292 5.82794 -0.750005 0
M  V30 535 H 46.5532 6.10438 0.1405 0
M  V30 536 H 47.9672 5.36955 -2.00879 0
M  V30 537 H 46.3642 5.30897 -2.79765 0
M  V30 538 H 47.4342 3.89807 -2.88407 0
M  V30 539 N 48.7773 0.814389 1.34928 0
M  V30 540 C 49.7243 0.22822 2.29669 0
M  V30 541 C 50.6943 -0.642164 1.53184 0
M  V30 542 O 51.8793 -0.585605 1.81591 0
M  V30 543 C 49.0193 -0.61089 3.3965 0
M  V30 544 C 48.1323 0.280792 4.31086 0
M  V30 545 C 47.2673 -0.567067 5.28165 0
M  V30 546 C 46.3063 0.324531 6.11239 0
M  V30 547 N 45.4433 -0.483756 7.00431 0
M  V30 548 H 50.2833 1.04153 2.79206 0
M  V30 549 H 47.8203 0.525133 1.37407 0
M  V30 550 H 49.7783 -1.11263 4.0209 0
M  V30 551 H 48.4083 -1.38939 2.91369 0
M  V30 552 H 47.4603 0.900688 3.69583 0
M  V30 553 H 48.7723 0.966723 4.89342 0
M  V30 554 H 47.9263 -1.13363 5.96015 0
M  V30 555 H 46.6653 -1.28654 4.70425 0
M  V30 556 H 45.6703 0.903298 5.42329 0
M  V30 557 H 46.8953 1.04198 6.71059 0
M  V30 558 H 44.8413 -1.18706 6.45171 0
M  V30 559 H 44.7583 0.143965 7.55863 0
M  V30 560 H 46.0263 -1.03334 7.7262 0
M  V30 561 N 50.2554 -1.46986 0.568584 0
M  V30 562 C 51.2184 -2.28624 -0.162366 0
M  V30 563 C 52.2184 -1.37596 -0.832103 0
M  V30 564 O 53.4084 -1.60115 -0.68622 0
M  V30 565 C 50.5404 -3.17596 -1.23878 0
M  V30 566 H 51.7334 -2.94722 0.554899 0
M  V30 567 H 49.2864 -1.52863 0.325976 0
M  V30 568 H 50.0214 -2.56214 -1.98808 0
M  V30 569 H 49.8064 -3.846 -0.763219 0
M  V30 570 H 51.2964 -3.79078 -1.75185 0
M  V30 571 N 51.7335 -0.305618 -1.54608 0
M  V30 572 C 52.9795 0.302746 -2.00528 0
M  V30 573 C 53.3125 1.53184 -1.19367 0
M  V30 574 O 52.5875 1.92598 -0.271321 0
M  V30 575 C 52.8705 0.654756 -3.54097 0
M  V30 576 C 52.7235 -0.583793 -4.45995 0
M  V30 577 C 54.0425 1.47947 -4.14487 0
M  V30 578 H 51.1615 0.108564 -0.72896 0
M  V30 579 H 53.8035 -0.418634 -1.85331 0
M  V30 580 H 51.9535 1.26935 -3.67178 0
M  V30 581 H 53.6255 -1.22224 -4.44814 0
M  V30 582 H 51.8685 -1.21615 -4.16404 0
M  V30 583 H 52.5395 -0.293287 -5.5122 0
M  V30 584 H 55.0155 0.96013 -4.04871 0
M  V30 585 H 53.8915 1.69454 -5.22088 0
M  V30 586 H 54.1525 2.47011 -3.66658 0
M  V30 587 N 53.2116 1.57565 -0.0334293 0
M  V30 588 C 54.4596 1.91598 0.642999 0
M  V30 589 C 54.7806 0.910847 1.7242 0
M  V30 590 O 54.0506 -0.0469931 1.95844 0
M  V30 591 H 52.6306 0.707228 0.240496 0
M  V30 592 H 55.2926 1.94726 -0.0822488 0
M  V30 593 H 54.3886 2.92336 1.09298 0
M  V30 594 N 54.6897 -0.239769 1.55765 0
M  V30 595 C 56.1057 -0.588624 1.48349 0
M  V30 596 C 56.3057 -1.88005 0.72502 0
M  V30 597 O 55.3617 -2.51186 0.257269 0
M  V30 598 C 56.6747 -0.68474 2.928 0
M  V30 599 C 58.2227 -0.77659 3.03213 0
M  V30 600 C 58.6977 -0.904207 4.48986 0
M  V30 601 N 60.1887 -0.968896 4.52953 0
M  V30 602 C 60.9237 -1.08703 5.63002 0
M  V30 603 N 60.4197 -1.17026 6.82845 0
M  V30 604 N 62.2127 -1.12074 5.50814 0
M  V30 605 H 54.3637 0.607911 2.03515 0
M  V30 606 H 56.6267 0.21083 0.924259 0
M  V30 607 H 56.3327 0.194284 3.51163 0
M  V30 608 H 56.2067 -1.55435 3.43686 0
M  V30 609 H 58.5937 -1.64606 2.44926 0
M  V30 610 H 58.6747 0.118315 2.55526 0
M  V30 611 H 58.3187 -0.0392633 5.07885 0
M  V30 612 H 58.2487 -1.81426 4.9436 0
M  V30 613 H 60.7397 -0.915633 3.6664 0
M  V30 614 H 61.0527 -1.25966 7.62465 0
M  V30 615 H 59.3977 -1.13971 6.85591 0
M  V30 616 H 62.5887 -1.05226 4.5612 0
M  V30 617 H 62.7617 -1.20936 6.36615 0
M  V30 618 N 56.1678 -1.49265 -0.50573 0
M  V30 619 C 57.4158 -1.582 -1.25766 0
M  V30 620 C 57.7368 -0.268482 -1.93143 0
M  V30 621 O 57.0068 0.711833 -1.8251 0
M  V30 622 H 55.5868 -0.582873 -0.467191 0
M  V30 623 H 58.2488 -1.85865 -0.586525 0
M  V30 624 H 57.3448 -2.37563 -2.02412 0
M  V30 625 N 57.6459 0.756429 -1.3826 0
M  V30 626 C 59.0619 1.0591 -1.19395 0
M  V30 627 C 59.2619 2.01459 -0.0406567 0
M  V30 628 O 58.3179 2.44909 0.614467 0
M  V30 629 C 59.6309 1.64191 -2.51916 0
M  V30 630 C 61.1789 1.76376 -2.58574 0
M  V30 631 C 61.6539 2.38069 -3.91264 0
M  V30 632 N 63.1449 2.45503 -3.92788 0
M  V30 633 C 63.8799 2.94126 -4.92217 0
M  V30 634 N 63.3759 3.42805 -6.02043 0
M  V30 635 N 65.1689 2.9314 -4.7961 0
M  V30 636 H 57.3199 0.122313 -2.12048 0
M  V30 637 H 59.5829 0.116892 -0.940766 0
M  V30 638 H 59.2889 1.01451 -3.3675 0
M  V30 639 H 59.1629 2.6329 -2.70108 0
M  V30 640 H 61.5499 2.38244 -1.74137 0
M  V30 641 H 61.6309 0.759894 -2.44252 0
M  V30 642 H 61.2749 1.76835 -4.76121 0
M  V30 643 H 61.2049 3.39091 -4.02895 0
M  V30 644 H 63.6959 2.1107 -3.13461 0
M  V30 645 H 64.0089 3.78354 -6.73846 0
M  V30 646 H 62.3539 3.4087 -6.05667 0
M  V30 647 H 65.5449 2.54419 -3.92923 0
M  V30 648 H 65.7179 3.30721 -5.5725 0
M  V30 649 N 59.124 1.23083 0.984299 0
M  V30 650 C 60.054 1.03292 2.09411 0
M  V30 651 C 61.035 -0.048923 1.7003 0
M  V30 652 O 62.22 0.114967 1.93859 0
M  V30 653 C 59.35 0.619155 3.41736 0
M  V30 654 C 58.304 1.64791 3.95004 0
M  V30 655 C 57.63 1.0897 5.23478 0
M  V30 656 C 58.93 3.03999 4.24714 0
M  V30 657 H 60.624 1.96119 2.26225 0
M  V30 658 H 58.17 0.944344 1.08711 0
M  V30 659 H 60.123 0.467777 4.18796 0
M  V30 660 H 58.847 -0.344786 3.24775 0
M  V30 661 H 57.506 1.78721 3.20085 0
M  V30 662 H 57.154 0.11686 5.02864 0
M  V30 663 H 56.854 1.77704 5.60085 0
M  V30 664 H 58.378 0.950093 6.03163 0
M  V30 665 H 59.792 2.93393 4.92538 0
M  V30 666 H 58.189 3.69936 4.72512 0
M  V30 667 H 59.259 3.53285 3.32142 0
M  V30 668 N 60.6021 -1.18246 1.0419 0
M  V30 669 C 61.8301 -1.92195 0.766072 0
M  V30 670 C 62.2451 -1.76247 -0.676933 0
M  V30 671 O 61.6021 -1.09293 -1.46155 0
M  V30 672 C 61.6531 -3.43568 1.12442 0
M  V30 673 O 61.3741 -3.59015 2.51078 0
M  V30 674 C 62.8751 -4.34613 0.873275 0
M  V30 675 H 60.0951 -0.610114 0.279288 0
M  V30 676 H 62.6391 -1.50007 1.38989 0
M  V30 677 H 60.7941 -3.8354 0.545542 0
M  V30 678 H 61.2081 -4.5273 2.64831 0
M  V30 679 H 62.6821 -5.39374 1.17385 0
M  V30 680 H 63.1591 -4.38781 -0.191909 0
M  V30 681 H 63.7651 -4.00341 1.43551 0
M  V30 682 N 62.0802 -0.821533 -1.34494 0
M  V30 683 C 63.0432 -0.247847 -2.27856 0
M  V30 684 C 64.0432 0.573453 -1.50227 0
M  V30 685 O 65.2332 0.389759 -1.69784 0
M  V30 686 C 62.3652 0.652698 -3.34593 0
M  V30 687 H 63.5582 -1.07146 -2.80107 0
M  V30 688 H 61.1112 -0.593291 -1.44602 0
M  V30 689 H 61.8462 1.49943 -2.87555 0
M  V30 690 H 61.6312 0.065292 -3.92046 0
M  V30 691 H 63.1212 1.04793 -4.04238 0
M  V30 692 N 63.5583 1.46682 -0.576371 0
M  V30 693 C 64.9743 1.57822 -0.237562 0
M  V30 694 C 65.1743 1.57237 1.26011 0
M  V30 695 O 64.2303 1.48596 2.04146 0
M  V30 696 C 65.5433 2.87499 -0.881168 0
M  V30 697 C 67.0913 3.01119 -0.85417 0
M  V30 698 C 67.5663 4.33524 -1.4772 0
M  V30 699 N 69.0573 4.40207 -1.44125 0
M  V30 700 C 69.7923 5.4126 -1.89276 0
M  V30 701 N 69.2883 6.49021 -2.42371 0
M  V30 702 N 71.0813 5.32422 -1.80231 0
M  V30 703 H 63.2323 1.45306 -1.54919 0
M  V30 704 H 65.4953 0.692733 -0.647167 0
M  V30 705 H 65.2013 2.9372 -1.93447 0
M  V30 706 H 65.0753 3.75224 -0.385592 0
M  V30 707 H 67.4623 2.94485 0.190491 0
M  V30 708 H 67.5433 2.14887 -1.3877 0
M  V30 709 H 67.1873 4.40916 -2.52103 0
M  V30 710 H 67.1173 5.1852 -0.918947 0
M  V30 711 H 69.6083 3.62931 -1.05307 0
M  V30 712 H 69.9213 7.2233 -2.74698 0
M  V30 713 H 68.2663 6.49858 -2.46393 0
M  V30 714 H 71.4573 4.47137 -1.38514 0
M  V30 715 H 71.6303 6.11034 -2.15735 0
M  V30 716 N 65.0364 0.313813 1.54444 0
M  V30 717 C 65.9684 -0.590425 2.21465 0
M  V30 718 C 66.9814 -1.08753 1.21147 0
M  V30 719 O 68.1704 -1.00278 1.4767 0
M  V30 720 C 65.2704 -1.82179 2.85769 0
M  V30 721 C 64.4434 -1.46502 4.12136 0
M  V30 722 C 63.5024 -2.55288 4.60124 0
M  V30 723 O 62.5284 -2.19842 5.25032 0
M  V30 724 N 63.7304 -3.86053 4.33525 0
M  V30 725 H 66.4954 -0.0166033 2.99695 0
M  V30 726 H 64.0564 0.136578 1.61323 0
M  V30 727 H 66.0484 -2.54328 3.14801 0
M  V30 728 H 64.6184 -2.30369 2.11303 0
M  V30 729 H 63.8384 -0.575595 3.89975 0
M  V30 730 H 65.1264 -1.20221 4.94393 0
M  V30 731 H 64.5244 -4.17654 3.81552 0
M  V30 732 H 63.0814 -4.54461 4.67235 0
M  V30 733 N 66.5145 -1.57545 0.0417849 0
M  V30 734 C 67.7635 -1.91494 -0.633492 0
M  V30 735 C 68.0765 -0.921084 -1.72556 0
M  V30 736 O 69.2825 -1.15228 -2.45835 0
M  V30 737 C 67.7385 -3.40072 -1.17808 0
M  V30 738 C 67.3465 -4.47843 -0.118633 0
M  V30 739 C 69.0905 -3.8307 -1.82915 0
M  V30 740 C 66.9975 -5.87529 -0.675578 0
M  V30 741 H 65.9275 -0.714653 -0.24039 0
M  V30 742 H 68.5785 -1.83175 0.109148 0
M  V30 743 H 66.9605 -3.43364 -1.97274 0
M  V30 744 H 68.1345 -4.56128 0.654494 0
M  V30 745 H 66.4495 -4.14128 0.434414 0
M  V30 746 H 69.0465 -4.84794 -2.25563 0
M  V30 747 H 69.3895 -3.1881 -2.67705 0
M  V30 748 H 69.9225 -3.82255 -1.10119 0
M  V30 749 H 66.6615 -6.55362 0.134475 0
M  V30 750 H 66.1815 -5.82824 -1.4169 0
M  V30 751 H 67.8605 -6.36491 -1.1614 0
M  V30 752 N 67.9926 0.231505 -1.5589 0
M  V30 753 C 68.9026 1.308 -1.94752 0
M  V30 754 C 69.9186 1.51826 -0.849989 0
M  V30 755 O 71.0946 1.6515 -1.15271 0
M  V30 756 C 68.1596 2.63968 -2.24771 0
M  V30 757 C 67.2206 2.51331 -3.48039 0
M  V30 758 C 66.4536 3.78148 -3.76616 0
M  V30 759 O 66.6766 4.80722 -3.07022 0
M  V30 760 O 65.6106 3.75857 -4.70123 0
M  V30 761 H 69.4366 1.0083 -2.86474 0
M  V30 762 H 67.0216 0.433547 -1.42971 0
M  V30 763 H 68.9036 3.42633 -2.45318 0
M  V30 764 H 67.5786 2.9364 -1.36225 0
M  V30 765 H 66.4856 1.709 -3.32782 0
M  V30 766 H 67.8186 2.26601 -4.36936 0
M  V30 767 N 69.4707 1.49531 0.497807 0
M  V30 768 C 70.4337 1.65916 1.58128 0
M  V30 769 C 71.4337 0.530825 1.51786 0
M  V30 770 O 72.6237 0.797342 1.54881 0
M  V30 771 C 69.7557 1.65951 2.9778 0
M  V30 772 H 70.9487 2.62556 1.44929 0
M  V30 773 H 68.5017 1.38611 0.722275 0
M  V30 774 H 69.2367 0.709065 3.16453 0
M  V30 775 H 69.0217 2.47897 3.03792 0
M  V30 776 H 70.5117 1.80673 3.76493 0
M  V30 777 N 70.9488 -0.749086 1.3866 0
M  V30 778 C 71.9118 -1.84457 1.36045 0
M  V30 779 C 72.9118 -1.58682 0.260122 0
M  V30 780 O 74.1018 -1.66343 0.517261 0
M  V30 781 C 71.2338 -3.22008 1.11911 0
M  V30 782 H 72.4268 -1.88182 2.33512 0
M  V30 783 H 69.9798 -0.951266 1.24019 0
M  V30 784 H 70.7148 -3.2395 0.150686 0
M  V30 785 H 70.4998 -3.42111 1.91579 0
M  V30 786 H 71.9898 -4.0208 1.12788 0
M  V30 787 N 72.4269 -1.23603 -0.977757 0
M  V30 788 C 73.8429 -0.999251 -1.24447 0
M  V30 789 C 74.0429 0.298053 -1.99283 0
M  V30 790 O 73.0989 1.01681 -2.31122 0
M  V30 791 C 74.4119 -2.20784 -2.04144 0
M  V30 792 C 75.9599 -2.25303 -2.17273 0
M  V30 793 C 76.4349 -3.45755 -3.00362 0
M  V30 794 N 77.9259 -3.4601 -3.07947 0
M  V30 795 C 78.6609 -4.35868 -3.72568 0
M  V30 796 N 78.1569 -5.35966 -4.38991 0
M  V30 797 N 79.9499 -4.23605 -3.6948 0
M  V30 798 H 72.1009 -2.06986 -0.476483 0
M  V30 799 H 74.3639 -0.907801 -0.273134 0
M  V30 800 H 74.0699 -3.14945 -1.56533 0
M  V30 801 H 73.9439 -2.22085 -3.04891 0
M  V30 802 H 76.3309 -1.3168 -2.64092 0
M  V30 803 H 76.4119 -2.28033 -1.15907 0
M  V30 804 H 76.0559 -4.39687 -2.5424 0
M  V30 805 H 75.9859 -3.40266 -4.01904 0
M  V30 806 H 78.4769 -2.73588 -2.60688 0
M  V30 807 H 78.7899 -6.00783 -4.86086 0
M  V30 808 H 77.1349 -5.39863 -4.37691 0
M  V30 809 H 80.3259 -3.44647 -3.16759 0
M  V30 810 H 80.4989 -4.93836 -4.1956 0
M  V30 811 N 73.905 1.17692 -1.04816 0
M  V30 812 C 75.321 1.39863 -0.768794 0
M  V30 813 C 75.521 1.91118 0.638451 0
M  V30 814 O 74.577 2.10036 1.40146 0
M  V30 815 C 75.89 2.39274 -1.82122 0
M  V30 816 C 77.438 2.52987 -1.843 0
M  V30 817 C 77.913 3.55669 -2.88555 0
M  V30 818 N 79.404 3.63183 -2.87493 0
M  V30 819 C 80.139 4.42381 -3.64811 0
M  V30 820 N 79.635 5.25125 -4.51903 0
M  V30 821 N 81.428 4.37217 -3.53267 0
M  V30 822 H 73.579 0.82752 -1.95617 0
M  V30 823 H 75.842 0.426123 -0.846831 0
M  V30 824 H 75.548 2.08678 -2.83102 0
M  V30 825 H 75.422 3.38725 -1.65967 0
M  V30 826 H 77.809 2.82896 -0.839869 0
M  V30 827 H 77.89 1.53623 -2.04532 0
M  V30 828 H 77.534 3.26499 -3.89051 0
M  V30 829 H 77.464 4.54728 -2.65575 0
M  V30 830 H 79.955 3.04103 -2.24343 0
M  V30 831 H 80.268 5.82728 -5.07591 0
M  V30 832 H 78.613 5.24519 -4.55966 0
M  V30 833 H 81.804 3.71626 -2.84625 0
M  V30 834 H 81.977 4.98696 -4.13771 0
M  V30 835 N 75.3831 0.828654 1.34056 0
M  V30 836 C 76.3461 0.259927 2.27721 0
M  V30 837 C 77.3461 -0.565478 1.50529 0
M  V30 838 O 78.5361 -0.38075 1.69988 0
M  V30 839 C 75.6681 -0.634944 3.34935 0
M  V30 840 H 76.8611 1.0863 2.79534 0
M  V30 841 H 74.4141 0.600951 1.44285 0
M  V30 842 H 75.1491 -1.48416 2.88346 0
M  V30 843 H 74.9341 -0.0444999 3.92075 0
M  V30 844 H 76.4241 -1.02648 4.04788 0
M  V30 845 N 76.8612 -1.46375 0.584142 0
M  V30 846 C 77.7942 -2.27351 -0.196676 0
M  V30 847 C 78.7722 -1.35715 -0.895561 0
M  V30 848 O 79.9562 -1.65126 -0.90916 0
M  V30 849 C 77.0832 -3.13486 -1.28235 0
M  V30 850 C 76.1292 -4.20896 -0.689145 0
M  V30 851 S 76.9622 -5.33299 0.48507 0
M  V30 852 C 78.1182 -6.23 -0.601767 0
M  V30 853 H 78.3512 -2.93228 0.490395 0
M  V30 854 H 75.8842 -1.49875 0.371071 0
M  V30 855 H 77.8422 -3.63676 -1.90395 0
M  V30 856 H 76.5032 -2.4692 -1.94138 0
M  V30 857 H 75.6962 -4.80997 -1.50527 0
M  V30 858 H 75.2982 -3.73726 -0.143181 0
M  V30 859 H 77.5902 -6.60979 -1.48705 0
M  V30 860 H 78.5332 -7.0809 -0.0374799 0
M  V30 861 H 78.9412 -5.57173 -0.906557 0
M  V30 862 N 78.3393 -0.321999 -1.54275 0
M  V30 863 C 79.5673 0.283052 -2.04955 0
M  V30 864 C 79.9823 1.45904 -1.19823 0
M  V30 865 O 79.3393 1.81063 -0.228545 0
M  V30 866 C 79.3903 0.719028 -3.54277 0
M  V30 867 O 79.1113 -0.410175 -4.36176 0
M  V30 868 C 80.6123 1.38705 -4.21041 0
M  V30 869 H 77.8323 0.0584616 -0.668448 0
M  V30 870 H 80.3763 -0.467734 -1.99079 0
M  V30 871 H 78.5313 1.41979 -3.60445 0
M  V30 872 H 78.9453 -0.0669416 -5.24457 0
M  V30 873 H 80.4193 1.64306 -5.2698 0
M  V30 874 H 80.8963 2.33385 -3.72059 0
M  V30 875 H 81.5023 0.728906 -4.19007 0
M  V30 876 N 79.8174 1.5752 -0.0501392 0
M  V30 877 C 81.2334 1.56631 0.306402 0
M  V30 878 C 81.4334 1.0577 1.71508 0
M  V30 879 O 80.4894 0.713837 2.422 0
M  V30 880 C 81.8024 3.00393 0.135811 0
M  V30 881 C 83.3504 3.12315 0.206993 0
M  V30 882 C 83.8254 4.57954 0.064944 0
M  V30 883 N 85.3164 4.63041 0.121254 0
M  V30 884 C 86.0514 5.73389 0.0354381 0
M  V30 885 N 85.5474 6.92724 -0.102666 0
M  V30 886 N 87.3404 5.62026 0.090946 0
M  V30 887 H 79.4914 1.88903 -0.971046 0
M  V30 888 H 81.7544 0.869876 -0.376855 0
M  V30 889 H 81.4604 3.41635 -0.835384 0
M  V30 890 H 81.3344 3.66373 0.897275 0
M  V30 891 H 83.7214 2.70973 1.16866 0
M  V30 892 H 83.8024 2.49016 -0.585208 0
M  V30 893 H 83.4464 4.99981 -0.893394 0
M  V30 894 H 83.3764 5.19258 0.876277 0
M  V30 895 H 85.8674 3.77216 0.227284 0
M  V30 896 H 86.1804 7.72633 -0.160882 0
M  V30 897 H 84.5254 6.94864 -0.137737 0
M  V30 898 H 87.7164 4.67684 0.197388 0
M  V30 899 H 87.8894 6.47997 0.0206089 0
M  V30 900 N 81.2955 -0.223234 1.56011 0
M  V30 901 C 82.2585 -1.26014 1.9145 0
M  V30 902 C 83.2585 -1.3989 0.792937 0
M  V30 903 O 84.4485 -1.38184 1.0607 0
M  V30 904 C 81.5805 -2.63422 2.16383 0
M  V30 905 H 82.7735 -0.95796 2.84189 0
M  V30 906 H 80.3265 -0.463576 1.49267 0
M  V30 907 H 81.0615 -2.98741 1.2619 0
M  V30 908 H 80.8465 -2.54728 2.98088 0
M  V30 909 H 82.3365 -3.38249 2.44903 0
M  V30 910 N 82.7736 -1.49793 -0.48987 0
M  V30 911 C 84.0196 -1.60078 -1.24511 0
M  V30 912 C 84.3526 -0.291608 -1.91998 0
M  V30 913 O 83.6276 0.705647 -1.81248 0
M  V30 914 C 83.9106 -2.76791 -2.30345 0
M  V30 915 C 83.7636 -4.17535 -1.67286 0
M  V30 916 C 85.0826 -2.89111 -3.31817 0
M  V30 917 H 82.2016 -0.582645 -0.451324 0
M  V30 918 H 84.8436 -1.82117 -0.541612 0
M  V30 919 H 82.9936 -2.5813 -2.90346 0
M  V30 920 H 84.6656 -4.4774 -1.11026 0
M  V30 921 H 82.9086 -4.22665 -0.976577 0
M  V30 922 H 83.5796 -4.95094 -2.44103 0
M  V30 923 H 86.0556 -3.06133 -2.81819 0
M  V30 924 H 84.9316 -3.72433 -4.03219 0
M  V30 925 H 85.1926 -1.9893 -3.94815 0
M  V30 926 N 84.2517 0.741722 -1.39055 0
M  V30 927 C 85.1987 1.85566 -1.37237 0
M  V30 928 C 86.1687 1.64457 -0.233072 0
M  V30 929 O 87.3537 1.85957 -0.427147 0
M  V30 930 C 84.4937 3.23004 -1.215 0
M  V30 931 C 83.6067 3.55864 -2.44918 0
M  V30 932 C 82.7417 4.82669 -2.21821 0
M  V30 933 C 81.7807 5.08351 -3.40948 0
M  V30 934 N 80.9177 6.26356 -3.17211 0
M  V30 935 H 85.7577 1.86455 -2.32462 0
M  V30 936 H 83.2947 0.911176 -1.15482 0
M  V30 937 H 85.2527 4.02331 -1.10389 0
M  V30 938 H 83.8827 3.21411 -0.29908 0
M  V30 939 H 82.9347 2.7129 -2.66657 0
M  V30 940 H 84.2467 3.70765 -3.33668 0
M  V30 941 H 83.4007 5.69962 -2.07914 0
M  V30 942 H 82.1397 4.69929 -1.30454 0
M  V30 943 H 81.1447 4.19522 -3.55361 0
M  V30 944 H 82.3697 5.22981 -4.33207 0
M  V30 945 H 80.3157 6.14917 -2.28502 0
M  V30 946 H 80.2327 6.41813 -3.99515 0
M  V30 947 H 81.5007 7.16506 -3.06984 0
M  V30 948 N 85.7298 1.2412 0.971189 0
M  V30 949 C 87.1458 1.00584 1.23916 0
M  V30 950 C 87.3458 -0.287481 1.99439 0
M  V30 951 O 86.4018 -1.00454 2.31658 0
M  V30 952 C 87.7148 2.21864 2.0297 0
M  V30 953 C 89.2628 2.26452 2.16076 0
M  V30 954 C 89.7378 3.47343 2.98524 0
M  V30 955 N 91.2288 3.47639 3.06107 0
M  V30 956 C 91.9638 4.37837 3.70251 0
M  V30 957 N 91.4598 5.38286 4.36142 0
M  V30 958 N 93.2528 4.25558 3.67228 0
M  V30 959 H 85.4038 2.07236 0.465499 0
M  V30 960 H 87.6668 0.909236 0.268315 0
M  V30 961 H 87.3728 3.15771 1.54861 0
M  V30 962 H 87.2468 2.23698 3.03709 0
M  V30 963 H 89.6338 1.33078 2.6339 0
M  V30 964 H 89.7148 2.28645 1.14696 0
M  V30 965 H 89.3588 4.41029 2.51905 0
M  V30 966 H 89.2888 3.42393 4.00093 0
M  V30 967 H 91.7798 2.74966 2.59233 0
M  V30 968 H 92.0928 6.03352 4.82894 0
M  V30 969 H 90.4378 5.42176 4.34822 0
M  V30 970 H 93.6288 3.46322 3.14927 0
M  V30 971 H 93.8018 4.96054 4.16935 0
M  V30 972 N 87.2079 -1.17134 1.05439 0
M  V30 973 C 88.1399 -2.2078 0.615539 0
M  V30 974 C 89.1529 -1.59584 -0.322001 0
M  V30 975 O 90.3419 -1.78133 -0.114344 0
M  V30 976 C 87.4419 -3.38691 -0.118938 0
M  V30 977 C 86.6149 -4.29454 0.829924 0
M  V30 978 C 85.6739 -5.26024 0.136258 0
M  V30 979 O 84.6999 -5.63952 0.77115 0
M  V30 980 N 85.9019 -5.69487 -1.1254 0
M  V30 981 H 88.6669 -2.59052 1.50705 0
M  V30 982 H 86.2279 -1.32058 0.936603 0
M  V30 983 H 88.2199 -4.00329 -0.593179 0
M  V30 984 H 86.7899 -2.98996 -0.91215 0
M  V30 985 H 86.0099 -3.65211 1.48373 0
M  V30 986 H 87.2979 -4.86984 1.47392 0
M  V30 987 H 86.6959 -5.4075 -1.6615 0
M  V30 988 H 85.2529 -6.33257 -1.54366 0
M  V30 989 N 88.686 -0.835752 -1.33615 0
M  V30 990 C 89.934 -0.429109 -1.97492 0
M  V30 991 C 90.255 1.01433 -1.66543 0
M  V30 992 O 89.525 1.70611 -0.962744 0
M  V30 993 H 88.105 -0.155686 -0.730596 0
M  V30 994 H 90.767 -1.06802 -1.63031 0
M  V30 995 H 89.863 -0.55861 -3.0706 0
M  V30 996 N 90.1641 1.46063 -0.591896 0
M  V30 997 C 91.1111 2.30399 0.136069 0
M  V30 998 C 92.0811 1.41169 0.875238 0
M  V30 999 O 93.2661 1.70112 0.86409 0
M  V30 1000 C 90.4061 3.25804 1.13781 0
M  V30 1001 C 89.5191 4.30134 0.401137 0
M  V30 1002 C 88.6541 5.12659 1.39121 0
M  V30 1003 C 87.6931 6.0873 0.641462 0
M  V30 1004 N 86.8301 6.8409 1.58004 0
M  V30 1005 H 91.6701 2.92118 -0.589144 0
M  V30 1006 H 89.2071 1.43959 -0.302342 0
M  V30 1007 H 91.1651 3.79569 1.73156 0
M  V30 1008 H 89.7951 2.65872 1.83062 0
M  V30 1009 H 88.8471 3.79152 -0.307826 0
M  V30 1010 H 90.1591 4.98458 -0.184565 0
M  V30 1011 H 89.3131 5.70747 2.05749 0
M  V30 1012 H 88.0521 4.44316 2.01084 0
M  V30 1013 H 87.0571 5.49786 -0.0385419 0
M  V30 1014 H 88.2821 6.79095 0.0270945 0
M  V30 1015 H 86.2281 6.18449 2.18761 0
M  V30 1016 H 86.1451 7.48709 1.04738 0
M  V30 1017 H 87.4131 7.4673 2.23639 0
M  V30 1018 N 91.6422 0.330177 1.54103 0
M  V30 1019 C 92.8912 -0.271336 1.99867 0
M  V30 1020 C 93.2042 -1.52723 1.22209 0
M  V30 1021 O 94.4102 -2.20515 1.58383 0
M  V30 1022 C 92.8662 -0.534032 3.55916 0
M  V30 1023 C 92.4742 0.705193 4.42415 0
M  V30 1024 C 94.2182 -1.09514 4.1013 0
M  V30 1025 C 92.1252 0.414035 5.89949 0
M  V30 1026 H 91.0552 -0.105166 0.74663 0
M  V30 1027 H 93.7062 0.443429 1.78062 0
M  V30 1028 H 92.0882 -1.30915 3.73734 0
M  V30 1029 H 93.2622 1.4804 4.36372 0
M  V30 1030 H 91.5772 1.18698 3.99124 0
M  V30 1031 H 94.1742 -1.3277 5.17954 0
M  V30 1032 H 94.5172 -2.04656 3.62521 0
M  V30 1033 H 95.0502 -0.381038 3.95971 0
M  V30 1034 H 91.7892 1.33481 6.41766 0
M  V30 1035 H 91.3092 -0.323336 5.98928 0
M  V30 1036 H 92.9882 0.0263105 6.46995 0
M  V30 1037 N 93.1203 -1.57491 0.0584922 0
M  V30 1038 C 94.3663 -1.94081 -0.608617 0
M  V30 1039 C 94.7213 -0.937438 -1.68017 0
M  V30 1040 O 94.0143 0.0423034 -1.91553 0
M  V30 1041 C 94.2083 -3.3513 -1.24188 0
M  V30 1042 C 94.0373 -4.49095 -0.233187 0
M  V30 1043 C 92.8073 -5.04988 0.177439 0
M  V30 1044 C 95.0053 -5.1162 0.524306 0
M  V30 1045 N 92.9873 -6.02487 1.17823 0
M  V30 1046 C 94.3583 -6.04493 1.37796 0
M  V30 1047 C 96.4133 -4.94489 0.581822 0
M  V30 1048 C 95.1163 -6.82075 2.28399 0
M  V30 1049 C 97.1423 -5.72703 1.47531 0
M  V30 1050 C 96.5043 -6.65214 2.31667 0
M  V30 1051 H 92.6033 -0.75752 -0.194134 0
M  V30 1052 H 95.1873 -1.94248 0.132533 0
M  V30 1053 H 93.3583 -3.35726 -1.95302 0
M  V30 1054 H 95.0903 -3.5899 -1.86838 0
M  V30 1055 H 91.8453 -4.73165 -0.203004 0
M  V30 1056 H 92.2693 -6.55933 1.67573 0
M  V30 1057 H 96.9113 -4.22765 -0.054443 0
M  V30 1058 H 94.6293 -7.53085 2.93067 0
M  V30 1059 H 98.2153 -5.61472 1.52448 0
M  V30 1060 H 97.0953 -7.24679 2.99683 0
M  V30 1061 N 94.5984 0.214957 -1.56127 0
M  V30 1062 C 95.8474 0.936451 -1.78643 0
M  V30 1063 C 96.1604 1.85237 -0.628229 0
M  V30 1064 O 97.3664 2.613 -0.737186 0
M  V30 1065 C 95.8224 1.7154 -3.16389 0
M  V30 1066 C 95.4304 0.845299 -4.39953 0
M  V30 1067 C 97.1744 2.42772 -3.48227 0
M  V30 1068 C 95.0814 1.62198 -5.68723 0
M  V30 1069 H 94.0114 0.353401 -0.666051 0
M  V30 1070 H 96.6624 0.190169 -1.82512 0
M  V30 1071 H 95.0444 2.50484 -3.06715 0
M  V30 1072 H 96.2184 0.0959353 -4.607 0
M  V30 1073 H 94.5334 0.244789 -4.1568 0
M  V30 1074 H 97.1304 3.01394 -4.41663 0
M  V30 1075 H 97.4734 3.15984 -2.71035 0
M  V30 1076 H 98.0064 1.70813 -3.5926 0
M  V30 1077 H 94.7454 0.933011 -6.48826 0
M  V30 1078 H 94.2654 2.34579 -5.52026 0
M  V30 1079 H 95.9444 2.18095 -6.09133 0
M  V30 1080 N 96.0765 1.50051 0.48192 0
M  V30 1081 C 97.4925 1.37237 0.814756 0
M  V30 1082 C 97.6925 0.420109 1.97072 0
M  V30 1083 O 96.7485 -0.141246 2.52105 0
M  V30 1084 C 98.0615 2.78375 1.13701 0
M  V30 1085 C 99.6095 2.87213 1.2441 0
M  V30 1086 C 100.084 4.29161 1.59954 0
M  V30 1087 N 101.575 4.32061 1.66967 0
M  V30 1088 C 102.31 5.38879 1.95952 0
M  V30 1089 N 101.806 6.55918 2.23031 0
M  V30 1090 N 103.599 5.26312 1.97363 0
M  V30 1091 H 95.7505 2.10546 -0.28005 0
M  V30 1092 H 98.0135 0.945921 -0.0627454 0
M  V30 1093 H 97.7195 3.49845 0.360787 0
M  V30 1094 H 97.5935 3.14941 2.07586 0
M  V30 1095 H 99.9805 2.15969 2.01101 0
M  V30 1096 H 100.061 2.54204 0.285299 0
M  V30 1097 H 99.7055 5.00938 0.838067 0
M  V30 1098 H 99.6355 4.59648 2.56966 0
M  V30 1099 H 102.126 3.47661 1.48123 0
M  V30 1100 H 102.439 7.33139 2.44391 0
M  V30 1101 H 100.784 6.59112 2.20447 0
M  V30 1102 H 103.975 4.33876 1.75697 0
M  V30 1103 H 104.148 6.09649 2.19618 0
M  V30 1104 N 97.5546 -0.734337 1.39446 0
M  V30 1105 C 98.8006 -1.49613 1.36908 0
M  V30 1106 C 99.1336 -1.94169 -0.0347829 0
M  V30 1107 O 98.4086 -1.66833 -0.999847 0
M  V30 1108 C 98.6916 -2.73534 2.34203 0
M  V30 1109 C 98.5446 -2.34993 3.83534 0
M  V30 1110 C 99.8636 -3.75635 2.29317 0
M  V30 1111 H 96.9826 -0.542714 0.498629 0
M  V30 1112 H 99.6246 -0.839597 1.70443 0
M  V30 1113 H 97.7746 -3.29553 2.05736 0
M  V30 1114 H 99.4466 -1.84601 4.22753 0
M  V30 1115 H 97.6896 -1.67213 4.00278 0
M  V30 1116 H 98.3606 -3.23738 4.47099 0
M  V30 1117 H 100.837 -3.29203 2.54489 0
M  V30 1118 H 99.7126 -4.60008 2.99472 0
M  V30 1119 H 99.9736 -4.22603 1.29842 0
M  V30 1120 N 99.0327 -1.24633 -0.964593 0
M  V30 1121 C 100.28 -1.08788 -1.70796 0
M  V30 1122 C 100.608 0.372783 -1.90894 0
M  V30 1123 O 99.8627 1.29167 -1.47018 0
M  V30 1124 C 100.162 -1.7763 -3.10133 0
M  V30 1125 C 99.8277 -3.27557 -3.09866 0
M  V30 1126 C 98.4897 -3.6846 -3.09501 0
M  V30 1127 C 100.842 -4.23389 -3.03959 0
M  V30 1128 C 98.1697 -5.03624 -3.00965 0
M  V30 1129 C 100.522 -5.58565 -2.96965 0
M  V30 1130 C 99.1857 -5.98809 -2.9493 0
M  V30 1131 H 98.4557 -0.398084 -0.624988 0
M  V30 1132 H 101.103 -1.54777 -1.12767 0
M  V30 1133 H 99.4077 -1.24044 -3.71645 0
M  V30 1134 H 101.105 -1.62832 -3.66451 0
M  V30 1135 H 97.6947 -2.95006 -3.10917 0
M  V30 1136 H 101.879 -3.92787 -3.03368 0
M  V30 1137 H 97.1347 -5.33998 -2.97752 0
M  V30 1138 H 101.309 -6.32523 -2.91354 0
M  V30 1139 H 98.9357 -7.03505 -2.88071 0
M  V30 1140 N 100.511 1.16574 -1.06058 0
M  V30 1141 C 101.922 1.68662 -0.800632 0
M  V30 1142 C 102.273 1.84184 0.67608 0
M  V30 1143 O 101.398 1.53568 1.52466 0
M  V30 1144 C 101.993 3.06356 -1.44676 0
M  V30 1145 C 100.552 3.55575 -1.23465 0
M  V30 1146 C 99.6988 2.31616 -1.52477 0
M  V30 1147 H 102.65 1.00969 -1.22438 0
M  V30 1148 H 102.671 3.70636 -0.860788 0
M  V30 1149 H 102.183 2.95027 -2.52152 0
M  V30 1150 H 100.284 3.72167 -0.179527 0
M  V30 1151 H 100.397 4.37812 -1.94571 0
M  V30 1152 H 98.7608 2.36512 -0.945209 0
M  V30 1153 H 99.5438 2.22887 -2.61106 0
M  V30 1154 N 101.989 0.842826 1.3317 0
M  V30 1155 C 103.266 0.362216 1.92217 0
M  V30 1156 C 103.646 -1.15289 1.76838 0
M  V30 1157 O 102.994 -1.96914 1.15919 0
M  V30 1158 C 103.204 0.813495 3.39387 0
M  V30 1159 C 104.552 0.823804 4.16532 0
M  V30 1160 O 105.576 0.757358 3.48055 0
M  V30 1161 O 104.435 0.915193 5.38782 0
M  V30 1162 H 101.529 0.103317 0.820521 0
M  V30 1163 H 104.075 0.928942 1.42017 0
M  V30 1164 H 102.847 1.85624 3.4447 0
M  V30 1165 H 102.47 0.223561 3.96971 0
M  V30 1166 N 103.467 -1.45747 0.599634 0
M  V30 1167 C 104.414 -2.30467 -0.123849 0
M  V30 1168 C 105.384 -1.41632 -0.86774 0
M  V30 1169 O 106.569 -1.70568 -0.855056 0
M  V30 1170 C 103.709 -3.26402 -1.12051 0
M  V30 1171 C 102.822 -4.3034 -0.37832 0
M  V30 1172 C 101.957 -5.13389 -1.364 0
M  V30 1173 C 100.996 -6.09061 -0.609171 0
M  V30 1174 N 100.133 -6.84918 -1.54374 0
M  V30 1175 H 104.973 -2.91802 0.604627 0
M  V30 1176 H 102.51 -1.43797 0.309972 0
M  V30 1177 H 104.468 -3.80482 -1.7114 0
M  V30 1178 H 103.098 -2.66839 -1.8165 0
M  V30 1179 H 102.15 -3.78984 0.327929 0
M  V30 1180 H 103.462 -4.98354 0.210997 0
M  V30 1181 H 102.616 -5.7183 -2.02719 0
M  V30 1182 H 101.355 -4.45376 -1.98725 0
M  V30 1183 H 100.36 -5.49758 0.0676979 0
M  V30 1184 H 101.585 -6.79099 0.00891991 0
M  V30 1185 H 99.531 -6.19601 -2.15478 0
M  V30 1186 H 99.448 -7.49254 -1.00766 0
M  V30 1187 H 100.716 -7.47906 -2.19676 0
M  V30 1188 N 104.945 -0.338344 -1.53925 0
M  V30 1189 C 106.356 0.146651 -1.86123 0
M  V30 1190 C 106.707 1.5042 -1.2597 0
M  V30 1191 O 105.832 2.08723 -0.571294 0
M  V30 1192 C 106.427 0.272879 -3.37699 0
M  V30 1193 C 104.986 0.702103 -3.69794 0
M  V30 1194 C 104.133 -0.167304 -2.76795 0
M  V30 1195 H 107.084 -0.558123 -1.48562 0
M  V30 1196 H 107.105 1.10128 -3.64214 0
M  V30 1197 H 106.617 -0.715307 -3.81451 0
M  V30 1198 H 104.718 1.6995 -3.31584 0
M  V30 1199 H 104.831 0.495604 -4.7653 0
M  V30 1200 H 103.195 0.359527 -2.5215 0
M  V30 1201 H 103.978 -1.15253 -3.23375 0
M  V30 1202 N 106.423 1.57458 -0.0668435 0
M  V30 1203 C 107.672 1.92477 0.602947 0
M  V30 1204 C 107.985 0.948419 1.71068 0
M  V30 1205 O 109.191 1.19124 2.43971 0
M  V30 1206 C 107.647 3.41903 1.12383 0
M  V30 1207 C 107.255 4.47975 0.04737 0
M  V30 1208 C 108.999 3.85931 1.76797 0
M  V30 1209 C 106.906 5.88529 0.582022 0
M  V30 1210 H 105.836 0.718387 0.22899 0
M  V30 1211 H 108.487 1.82978 -0.138276 0
M  V30 1212 H 106.869 3.46459 1.91787 0
M  V30 1213 H 108.043 4.55029 -0.726978 0
M  V30 1214 H 106.358 4.13384 -0.500243 0
M  V30 1215 H 108.955 4.88322 2.17821 0
M  V30 1216 H 109.298 3.23029 2.62599 0
M  V30 1217 H 109.831 3.83958 1.04024 0
M  V30 1218 H 106.57 6.55065 -0.238721 0
M  V30 1219 H 106.09 5.85004 1.324 0
M  V30 1220 H 107.769 6.38258 1.05999 0
M  V30 1221 N 107.901 -0.206675 1.56239 0
M  V30 1222 C 109.129 -0.945345 1.8404 0
M  V30 1223 C 109.544 -1.77336 0.647885 0
M  V30 1224 O 108.901 -1.78425 -0.383511 0
M  V30 1225 C 108.952 -1.8509 3.10522 0
M  V30 1226 O 108.673 -1.05634 4.25174 0
M  V30 1227 C 110.174 -2.70222 3.51418 0
M  V30 1228 H 107.394 -0.276372 0.61144 0
M  V30 1229 H 109.938 -0.217417 2.03341 0
M  V30 1230 H 108.093 -2.53259 2.93153 0
M  V30 1231 H 108.507 -1.67238 4.97124 0
M  V30 1232 H 109.981 -3.29438 4.42916 0
M  V30 1233 H 110.458 -3.43358 2.73864 0
M  V30 1234 H 111.064 -2.07443 3.71278 0
M  V30 1235 N 109.379 -1.50304 -0.473955 0
M  V30 1236 C 110.289 -1.7174 -1.5982 0
M  V30 1237 C 111.305 -0.600457 -1.63311 0
M  V30 1238 O 112.481 -0.878441 -1.81233 0
M  V30 1239 C 109.546 -1.80427 -2.96052 0
M  V30 1240 C 108.607 -3.04148 -3.02972 0
M  V30 1241 C 107.84 -3.12411 -4.32706 0
M  V30 1242 O 108.063 -2.27542 -5.23049 0
M  V30 1243 O 106.997 -4.05113 -4.45159 0
M  V30 1244 H 110.823 -2.67035 -1.44657 0
M  V30 1245 H 108.408 -1.34366 -0.653148 0
M  V30 1246 H 110.29 -1.88338 -3.7697 0
M  V30 1247 H 108.965 -0.883156 -3.11419 0
M  V30 1248 H 107.872 -3.0174 -2.21142 0
M  V30 1249 H 109.205 -3.95829 -2.92541 0
M  V30 1250 N 110.857 0.726932 -1.39834 0
M  V30 1251 C 111.804 1.841 -1.39197 0
M  V30 1252 C 112.774 1.642 -0.250502 0
M  V30 1253 O 113.959 1.85494 -0.446846 0
M  V30 1254 C 111.099 3.21697 -1.24919 0
M  V30 1255 C 110.212 3.53247 -2.48678 0
M  V30 1256 C 109.347 4.80289 -2.26928 0
M  V30 1257 C 108.386 5.04707 -3.4632 0
M  V30 1258 N 107.523 6.22956 -3.23836 0
M  V30 1259 H 112.363 1.83979 -2.34427 0
M  V30 1260 H 109.9 0.898876 -1.16442 0
M  V30 1261 H 111.858 4.01137 -1.1465 0
M  V30 1262 H 110.488 3.21076 -0.333153 0
M  V30 1263 H 109.54 2.68447 -2.69519 0
M  V30 1264 H 110.852 3.67205 -3.37582 0
M  V30 1265 H 110.006 5.67725 -2.13947 0
M  V30 1266 H 108.745 4.68519 -1.35431 0
M  V30 1267 H 107.75 4.1573 -3.5979 0
M  V30 1268 H 108.975 5.18357 -4.38729 0
M  V30 1269 H 106.921 6.12459 -2.35011 0
M  V30 1270 H 106.838 6.37539 -4.063 0
M  V30 1271 H 108.106 7.1321 -3.14566 0
M  V30 1272 N 112.336 1.25143 0.95797 0
M  V30 1273 C 113.747 1.08851 1.51685 0
M  V30 1274 C 114.098 -0.33687 1.93286 0
M  V30 1275 O 113.223 -1.22644 1.7829 0
M  V30 1276 C 113.818 1.96978 2.75654 0
M  V30 1277 C 112.377 1.84881 3.27866 0
M  V30 1278 C 111.524 1.91329 2.0072 0
M  V30 1279 H 114.475 1.38478 0.77522 0
M  V30 1280 H 114.496 1.5078 3.4935 0
M  V30 1281 H 114.008 3.00712 2.45345 0
M  V30 1282 H 112.109 0.840182 3.63004 0
M  V30 1283 H 112.222 2.6951 3.96107 0
M  V30 1284 H 110.586 1.35174 2.15871 0
M  V30 1285 H 111.369 2.96661 1.72764 0
M  V30 1286 N 113.814 -1.1601 1.06675 0
M  V30 1287 C 114.744 -2.22688 0.702307 0
M  V30 1288 C 115.725 -1.67306 -0.307032 0
M  V30 1289 O 116.91 -1.93352 -0.181305 0
M  V30 1290 C 114.04 -3.47178 0.092038 0
M  V30 1291 C 112.994 -4.15477 1.02777 0
M  V30 1292 C 112.32 -5.33963 0.28061 0
M  V30 1293 C 113.62 -4.66019 2.35846 0
M  V30 1294 H 115.314 -2.53429 1.59419 0
M  V30 1295 H 112.86 -1.21813 0.767961 0
M  V30 1296 H 114.813 -4.21037 -0.174814 0
M  V30 1297 H 113.537 -3.15749 -0.834877 0
M  V30 1298 H 112.196 -3.43549 1.27944 0
M  V30 1299 H 111.844 -4.98788 -0.649545 0
M  V30 1300 H 111.544 -5.806 0.904258 0
M  V30 1301 H 113.068 -6.10596 0.021396 0
M  V30 1302 H 114.482 -5.3144 2.15045 0
M  V30 1303 H 112.879 -5.23293 2.93743 0
M  V30 1304 H 113.949 -3.82023 2.98641 0
M  V30 1305 N 115.292 -0.849877 -1.32721 0
M  V30 1306 C 116.255 -0.296122 -2.27279 0
M  V30 1307 C 117.255 0.541458 -1.5141 0
M  V30 1308 O 118.445 0.353658 -1.70572 0
M  V30 1309 C 115.577 0.581579 -3.35902 0
M  V30 1310 H 116.77 -1.13064 -2.77771 0
M  V30 1311 H 114.323 -0.62383 -1.43311 0
M  V30 1312 H 115.058 1.43809 -2.9067 0
M  V30 1313 H 114.843 -0.0178814 -3.92096 0
M  V30 1314 H 116.333 0.961951 -4.0637 0
M  V30 1315 N 116.77 1.45427 -0.607355 0
M  V30 1316 C 118.016 2.0254 -0.102607 0
M  V30 1317 C 118.349 1.47478 1.26348 0
M  V30 1318 O 117.624 0.64939 1.83339 0
M  V30 1319 C 117.907 3.60044 -0.0634347 0
M  V30 1320 C 117.76 4.2544 -1.46017 0
M  V30 1321 C 119.079 4.35646 0.624514 0
M  V30 1322 H 116.198 0.73598 -0.0387607 0
M  V30 1323 H 118.84 1.73284 -0.779282 0
M  V30 1324 H 116.99 3.85101 0.512808 0
M  V30 1325 H 118.662 4.11569 -2.08347 0
M  V30 1326 H 116.905 3.83849 -2.02094 0
M  V30 1327 H 117.576 5.34342 -1.385 0
M  V30 1328 H 120.052 4.15882 0.134723 0
M  V30 1329 H 118.928 5.45376 0.621028 0
M  V30 1330 H 119.189 4.08501 1.69055 0
M  V30 1331 N 118.248 0.346503 1.53744 0
M  V30 1332 C 119.664 -0.00530975 1.59599 0
M  V30 1333 C 119.864 -1.48465 1.36236 0
M  V30 1334 O 118.92 -2.24376 1.15808 0
M  V30 1335 C 120.233 0.433516 2.97559 0
M  V30 1336 C 121.781 0.386111 3.10609 0
M  V30 1337 C 122.256 0.800451 4.50951 0
M  V30 1338 N 123.747 0.754753 4.5701 0
M  V30 1339 C 124.482 1.04727 5.63755 0
M  V30 1340 N 123.978 1.4081 6.7834 0
M  V30 1341 N 125.771 0.971316 5.53644 0
M  V30 1342 H 117.922 1.31009 1.67184 0
M  V30 1343 H 120.185 0.534242 0.783128 0
M  V30 1344 H 119.891 1.46509 3.19731 0
M  V30 1345 H 119.765 -0.189753 3.76722 0
M  V30 1346 H 122.152 -0.636295 2.88158 0
M  V30 1347 H 122.233 1.04462 2.33498 0
M  V30 1348 H 121.877 1.82088 4.74137 0
M  V30 1349 H 121.807 0.119386 5.26465 0
M  V30 1350 H 124.298 0.488662 3.74727 0
M  V30 1351 H 124.611 1.61607 7.55714 0
M  V30 1352 H 122.956 1.44657 6.79779 0
M  V30 1353 H 126.147 0.688748 4.63005 0
M  V30 1354 H 126.32 1.20263 6.36742 0
M  V30 1355 N 119.726 -1.57421 0.075193 0
M  V30 1356 C 120.659 -2.08528 -0.926904 0
M  V30 1357 C 121.637 -0.991171 -1.28898 0
M  V30 1358 O 122.821 -1.26479 -1.39769 0
M  V30 1359 C 119.948 -2.54576 -2.23402 0
M  V30 1360 C 118.994 -3.75454 -2.02327 0
M  V30 1361 S 119.827 -5.19989 -1.27951 0
M  V30 1362 C 120.983 -5.69372 -2.59935 0
M  V30 1363 H 121.216 -2.932 -0.492048 0
M  V30 1364 H 118.749 -1.53785 -0.137651 0
M  V30 1365 H 120.707 -2.81767 -2.98526 0
M  V30 1366 H 119.368 -1.70166 -2.64012 0
M  V30 1367 H 118.561 -4.05675 -2.99071 0
M  V30 1368 H 118.163 -3.48654 -1.35339 0
M  V30 1369 H 120.455 -5.76424 -3.56008 0
M  V30 1370 H 121.398 -6.68207 -2.34319 0
M  V30 1371 H 121.806 -4.97205 -2.67296 0
M  V30 1372 N 121.204 0.198386 -1.56346 0
M  V30 1373 C 122.452 0.91747 -1.80075 0
M  V30 1374 C 122.773 1.83929 -0.647692 0
M  V30 1375 O 122.043 1.93029 0.334166 0
M  V30 1376 H 120.623 0.341774 -0.664228 0
M  V30 1377 H 123.285 0.204684 -1.93822 0
M  V30 1378 H 122.381 1.51055 -2.7311 0
M  V30 1379 N 122.682 1.50554 0.465978 0
M  V30 1380 C 123.629 1.6979 1.56333 0
M  V30 1381 C 124.599 0.539239 1.57103 0
M  V30 1382 O 125.784 0.770401 1.74555 0
M  V30 1383 C 122.924 1.80273 2.94271 0
M  V30 1384 C 122.037 3.07674 3.0325 0
M  V30 1385 C 121.172 3.08922 4.32135 0
M  V30 1386 C 120.211 4.30755 4.34875 0
M  V30 1387 N 119.348 4.29714 5.55239 0
M  V30 1388 H 124.188 2.63472 1.39235 0
M  V30 1389 H 121.725 1.30602 0.676873 0
M  V30 1390 H 123.683 1.84332 3.74269 0
M  V30 1391 H 122.313 0.900258 3.09992 0
M  V30 1392 H 121.365 3.13062 2.16094 0
M  V30 1393 H 122.677 3.97642 3.01135 0
M  V30 1394 H 121.831 3.11738 5.20485 0
M  V30 1395 H 120.57 2.16792 4.36866 0
M  V30 1396 H 119.575 4.28146 3.44922 0
M  V30 1397 H 120.8 5.24117 4.31831 0
M  V30 1398 H 118.746 3.4044 5.60746 0
M  V30 1399 H 118.663 5.13456 5.54886 0
M  V30 1400 H 119.931 4.36683 6.457 0
M  V30 1401 N 124.16 -0.719506 1.40217 0
M  V30 1402 C 125.408 -1.47641 1.3801 0
M  V30 1403 C 125.729 -1.94992 -0.018145 0
M  V30 1404 O 124.999 -1.70073 -0.972207 0
M  V30 1405 H 123.579 -0.547744 0.507923 0
M  V30 1406 H 126.241 -0.853187 1.75233 0
M  V30 1407 H 125.337 -2.35112 2.05253 0
M  V30 1408 N 125.638 -1.25649 -0.95132 0
M  V30 1409 C 126.585 -1.06323 -2.04851 0
M  V30 1410 C 127.555 0.0286491 -1.66075 0
M  V30 1411 O 128.74 -0.12917 -1.90362 0
M  V30 1412 C 125.88 -0.691529 -3.381 0
M  V30 1413 C 124.993 -1.85861 -3.89974 0
M  V30 1414 C 124.128 -1.43096 -5.11563 0
M  V30 1415 C 123.167 -2.56696 -5.55674 0
M  V30 1416 N 122.304 -2.14684 -6.68472 0
M  V30 1417 H 127.144 -2.00222 -2.20715 0
M  V30 1418 H 124.681 -0.997027 -1.08156 0
M  V30 1419 H 126.639 -0.456963 -4.1469 0
M  V30 1420 H 125.269 0.210474 -3.22113 0
M  V30 1421 H 124.321 -2.20639 -3.09875 0
M  V30 1422 H 125.633 -2.71161 -4.18657 0
M  V30 1423 H 124.787 -1.15624 -5.9558 0
M  V30 1424 H 123.526 -0.548722 -4.84603 0
M  V30 1425 H 122.531 -2.84909 -4.7022 0
M  V30 1426 H 123.756 -3.45503 -5.8464 0
M  V30 1427 H 121.702 -1.28881 -6.43215 0
M  V30 1428 H 121.619 -2.9353 -6.96689 0
M  V30 1429 H 122.887 -1.90397 -7.5589 0
M  V30 1430 N 127.117 1.15442 -1.07289 0
M  V30 1431 C 128.365 1.85845 -0.794096 0
M  V30 1432 C 128.686 1.82692 0.681809 0
M  V30 1433 O 127.956 1.26741 1.49377 0
M  V30 1434 H 126.536 0.688089 -0.290763 0
M  V30 1435 H 129.198 1.39947 -1.3565 0
M  V30 1436 H 128.294 2.91001 -1.12804 0
M  V30 1437 N 128.595 0.856903 1.32268 0
M  V30 1438 C 129.543 0.291987 2.3076 0
M  V30 1439 C 130.537 -0.585857 1.58947 0
M  V30 1440 O 131.743 -0.47341 1.73663 0
M  V30 1441 H 128.118 0.075721 0.748178 0
M  V30 1442 H 130.089 1.13687 2.75895 0
M  V30 1443 C 128.838 -0.502869 3.44044 0
M  V30 1444 H 128.161 0.163328 3.99466 0
M  V30 1445 H 129.601 -0.863691 4.1511 0
M  V30 1446 C 128.06 -1.68898 2.91505 0
M  V30 1447 O 128.59 -2.78811 2.89184 0
M  V30 1448 N 126.796 -1.51679 2.47875 0
M  V30 1449 H 126.343 -0.622666 2.49961 0
M  V30 1450 H 126.301 -2.31184 2.13076 0
M  V30 1451 N 130.073 -1.45103 0.615059 0
M  V30 1452 C 131.319 -2.02483 0.113347 0
M  V30 1453 C 131.652 -1.48146 -1.25564 0
M  V30 1454 O 130.927 -0.659104 -1.82992 0
M  V30 1455 C 131.21 -3.60005 0.0825278 0
M  V30 1456 C 131.063 -4.2466 1.48271 0
M  V30 1457 C 132.382 -4.35972 -0.601401 0
M  V30 1458 H 129.501 -0.735764 0.0426632 0
M  V30 1459 H 132.143 -1.72868 0.788461 0
M  V30 1460 H 130.293 -3.85367 -0.492378 0
M  V30 1461 H 131.965 -4.10458 2.10527 0
M  V30 1462 H 130.208 -3.82772 2.04127 0
M  V30 1463 H 130.879 -5.336 1.41332 0
M  V30 1464 H 133.355 -4.15947 -0.112666 0
M  V30 1465 H 132.231 -5.45697 -0.592097 0
M  V30 1466 H 132.492 -4.09391 -1.66887 0
M  V30 1467 N 131.551 -0.354651 -1.53558 0
M  V30 1468 C 132.461 0.50515 -2.29097 0
M  V30 1469 C 133.477 1.10223 -1.34636 0
M  V30 1470 O 134.653 1.11553 -1.67684 0
M  V30 1471 C 131.718 1.63479 -3.05738 0
M  V30 1472 C 130.779 1.06636 -4.15845 0
M  V30 1473 C 130.012 2.14217 -4.88822 0
M  V30 1474 O 130.235 3.35137 -4.61562 0
M  V30 1475 O 129.169 1.77887 -5.75013 0
M  V30 1476 H 132.995 -0.109237 -3.03503 0
M  V30 1477 H 130.58 -0.119357 -1.48922 0
M  V30 1478 H 132.462 2.2918 -3.5363 0
M  V30 1479 H 131.137 2.23478 -2.34178 0
M  V30 1480 H 130.044 0.373565 -3.7223 0
M  V30 1481 H 131.377 0.511081 -4.89539 0
M  V30 1482 N 133.029 1.57378 -0.0835403 0
M  V30 1483 C 134.259 1.97975 0.590713 0
M  V30 1484 C 134.667 0.961083 1.62972 0
M  V30 1485 O 134.01 -0.0590879 1.83605 0
M  V30 1486 C 134.072 3.34915 1.3066 0
M  V30 1487 C 133.736 4.55069 0.419698 0
M  V30 1488 C 134.733 5.18868 -0.32749 0
M  V30 1489 C 132.418 5.0114 0.341137 0
M  V30 1490 C 134.412 6.27098 -1.14134 0
M  V30 1491 C 132.099 6.0924 -0.476374 0
M  V30 1492 C 133.097 6.72083 -1.21627 0
M  V30 1493 O 132.785 7.781 -2.02028 0
M  V30 1494 H 132.517 0.655818 0.163947 0
M  V30 1495 H 135.071 2.04807 -0.156021 0
M  V30 1496 H 133.301 3.24733 2.09966 0
M  V30 1497 H 134.99 3.60037 1.87424 0
M  V30 1498 H 135.756 4.84211 -0.276459 0
M  V30 1499 H 131.635 4.51996 0.90668 0
M  V30 1500 H 135.179 6.7608 -1.71935 0
M  V30 1501 H 131.076 6.43329 -0.528927 0
M  V30 1502 H 131.844 7.95034 -1.94586 0
M  V30 1503 N 134.507 -0.190092 1.56449 0
M  V30 1504 C 135.753 -0.906472 1.82084 0
M  V30 1505 C 136.108 -1.80677 0.661335 0
M  V30 1506 O 135.401 -1.88501 -0.343237 0
M  V30 1507 C 135.595 -1.75382 3.1141 0
M  V30 1508 C 135.424 -0.937053 4.39829 0
M  V30 1509 C 134.194 -0.619507 5.01488 0
M  V30 1510 C 136.392 -0.2874 5.13496 0
M  V30 1511 N 134.374 0.215367 6.13522 0
M  V30 1512 C 135.745 0.409454 6.18646 0
M  V30 1513 C 137.8 -0.203639 4.97483 0
M  V30 1514 C 136.503 1.1821 7.0952 0
M  V30 1515 C 138.529 0.555622 5.88784 0
M  V30 1516 C 137.891 1.24091 6.93384 0
M  V30 1517 H 133.99 -0.310931 0.717528 0
M  V30 1518 H 136.574 -0.174821 1.93914 0
M  V30 1519 H 134.745 -2.45703 3.00806 0
M  V30 1520 H 136.477 -2.41006 3.25112 0
M  V30 1521 H 133.232 -0.945126 4.64074 0
M  V30 1522 H 133.656 0.622562 6.74131 0
M  V30 1523 H 138.298 -0.719099 4.1664 0
M  V30 1524 H 136.016 1.70897 7.89823 0
M  V30 1525 H 139.602 0.621854 5.78467 0
M  V30 1526 H 138.482 1.81901 7.62812 0
M  V30 1527 N 135.985 -1.50799 -0.457987 0
M  V30 1528 C 137.231 -1.62683 -1.21088 0
M  V30 1529 C 137.564 -0.332268 -1.91336 0
M  V30 1530 O 136.839 0.667043 -1.82704 0
M  V30 1531 C 137.122 -2.81615 -2.24422 0
M  V30 1532 C 136.975 -4.20989 -1.58392 0
M  V30 1533 C 138.294 -2.96085 -3.2561 0
M  V30 1534 H 135.413 -0.592087 -0.438864 0
M  V30 1535 H 138.055 -1.83225 -0.50286 0
M  V30 1536 H 136.205 -2.64231 -2.84806 0
M  V30 1537 H 137.877 -4.49994 -1.01504 0
M  V30 1538 H 136.12 -4.24641 -0.886704 0
M  V30 1539 H 136.791 -5.0016 -2.33547 0
M  V30 1540 H 139.267 -3.12042 -2.75262 0
M  V30 1541 H 138.143 -3.80902 -3.95228 0
M  V30 1542 H 138.404 -2.0726 -3.90507 0
M  V30 1543 N 137.463 0.71206 -1.40597 0
M  V30 1544 C 138.426 1.80785 -1.40888 0
M  V30 1545 C 139.426 1.57937 -0.302103 0
M  V30 1546 O 140.616 1.64913 -0.561182 0
M  V30 1547 C 137.748 3.18927 -1.20409 0
M  V30 1548 H 138.941 1.81924 -2.38419 0
M  V30 1549 H 136.494 0.91805 -1.26497 0
M  V30 1550 H 137.229 3.23436 -0.236522 0
M  V30 1551 H 137.014 3.36911 -2.00582 0
M  V30 1552 H 138.504 3.98949 -1.23408 0
M  V30 1553 N 138.941 1.26152 0.944643 0
M  V30 1554 C 139.871 1.09902 2.06019 0
M  V30 1555 C 140.852 0.00519538 1.70099 0
M  V30 1556 O 142.037 0.176583 1.93396 0
M  V30 1557 C 139.167 0.727562 3.39594 0
M  V30 1558 C 138.121 1.77274 3.89561 0
M  V30 1559 C 137.447 1.25569 5.19747 0
M  V30 1560 C 138.747 3.17357 4.14827 0
M  V30 1561 H 140.441 2.03217 2.19871 0
M  V30 1562 H 137.987 0.978452 1.05652 0
M  V30 1563 H 139.94 0.600777 4.17095 0
M  V30 1564 H 138.664 -0.241287 3.25707 0
M  V30 1565 H 137.323 1.88814 3.14237 0
M  V30 1566 H 136.971 0.276783 5.02238 0
M  V30 1567 H 136.671 1.95433 5.54148 0
M  V30 1568 H 138.195 1.1415 5.99835 0
M  V30 1569 H 139.609 3.08914 4.82954 0
M  V30 1570 H 138.006 3.84781 4.60504 0
M  V30 1571 H 139.076 3.63673 3.20734 0
M  V30 1572 N 140.419 -1.14872 1.07899 0
M  V30 1573 C 141.668 -1.85135 0.800499 0
M  V30 1574 C 141.981 -1.83547 -0.676014 0
M  V30 1575 O 143.187 -2.49548 -1.06948 0
M  V30 1576 C 141.643 -3.3231 1.38197 0
M  V30 1577 C 141.251 -3.42329 2.8899 0
M  V30 1578 C 142.995 -4.0772 1.18174 0
M  V30 1579 C 140.902 -4.83684 3.403 0
M  V30 1580 H 139.832 -0.693563 0.29578 0
M  V30 1581 H 142.483 -1.29532 1.29976 0
M  V30 1582 H 140.865 -3.87618 0.810431 0
M  V30 1583 H 142.039 -2.97097 3.52236 0
M  V30 1584 H 140.354 -2.80369 3.07867 0
M  V30 1585 H 142.951 -5.12049 1.5398 0
M  V30 1586 H 143.294 -4.16124 0.12117 0
M  V30 1587 H 143.827 -3.58696 1.71994 0
M  V30 1588 H 140.566 -4.80465 4.45907 0
M  V30 1589 H 140.086 -5.29474 2.81811 0
M  V30 1590 H 141.765 -5.52558 3.36584 0
M  V30 1591 N 141.898 -0.863906 -1.31812 0
M  V30 1592 C 142.83 -0.272485 -2.27575 0
M  V30 1593 C 143.843 0.56104 -1.52827 0
M  V30 1594 O 145.032 0.384021 -1.7432 0
M  V30 1595 C 142.132 0.63283 -3.32939 0
M  V30 1596 C 141.305 -0.166902 -4.37081 0
M  V30 1597 C 140.364 0.665608 -5.21973 0
M  V30 1598 O 139.39 0.0958091 -5.69119 0
M  V30 1599 N 140.592 1.9787 -5.45736 0
M  V30 1600 H 143.357 -1.0954 -2.78964 0
M  V30 1601 H 140.918 -0.724791 -1.4477 0
M  V30 1602 H 142.91 1.19532 -3.86645 0
M  V30 1603 H 141.48 1.35642 -2.81638 0
M  V30 1604 H 140.7 -0.910838 -3.83533 0
M  V30 1605 H 141.988 -0.715874 -5.03739 0
M  V30 1606 H 141.386 2.46484 -5.09178 0
M  V30 1607 H 139.943 2.48911 -6.024 0
M  V30 1608 N 143.376 1.44774 -0.622745 0
M  V30 1609 C 144.787 1.85546 -0.207226 0
M  V30 1610 C 145.138 1.52093 1.23944 0
M  V30 1611 O 144.263 0.95492 1.94191 0
M  V30 1612 C 144.858 3.36781 -0.369313 0
M  V30 1613 C 143.417 3.76399 -0.00836847 0
M  V30 1614 C 142.564 2.68664 -0.686651 0
M  V30 1615 H 145.515 1.3536 -0.828454 0
M  V30 1616 H 145.536 3.78453 0.394162 0
M  V30 1617 H 145.048 3.61098 -1.42231 0
M  V30 1618 H 143.149 3.57698 1.04322 0
M  V30 1619 H 143.262 4.7732 -0.412584 0
M  V30 1620 H 141.626 2.54404 -0.122777 0
M  V30 1621 H 142.409 2.95815 -1.74208 0
M  V30 1622 N 144.854 0.36279 1.53368 0
M  V30 1623 C 146.102 -0.227326 2.00817 0
M  V30 1624 C 146.423 -1.49511 1.25186 0
M  V30 1625 O 145.693 -1.92482 0.364348 0
M  V30 1626 H 144.273 -0.0869923 0.741917 0
M  V30 1627 H 146.935 0.488381 1.88682 0
M  V30 1628 H 146.031 -0.456273 3.08747 0
M  V30 1629 N 146.332 -1.57332 0.0918853 0
M  V30 1630 C 147.279 -2.13847 -0.868211 0
M  V30 1631 C 148.249 -1.05618 -1.28196 0
M  V30 1632 O 149.434 -1.33387 -1.36427 0
M  V30 1633 C 146.574 -2.72062 -2.12312 0
M  V30 1634 C 145.687 -3.94514 -1.7602 0
M  V30 1635 C 144.822 -4.40903 -2.96273 0
M  V30 1636 C 143.861 -5.55953 -2.56092 0
M  V30 1637 N 142.998 -5.97209 -3.69169 0
M  V30 1638 H 147.838 -2.95575 -0.379406 0
M  V30 1639 H 145.375 -1.46048 -0.175606 0
M  V30 1640 H 147.333 -3.03931 -2.858 0
M  V30 1641 H 145.963 -1.93068 -2.58698 0
M  V30 1642 H 145.015 -3.68979 -0.925135 0
M  V30 1643 H 146.327 -4.7802 -1.42472 0
M  V30 1644 H 145.481 -4.74539 -3.78018 0
M  V30 1645 H 144.22 -3.56291 -3.33029 0
M  V30 1646 H 143.225 -5.21948 -1.72773 0
M  V30 1647 H 144.45 -6.42311 -2.20484 0
M  V30 1648 H 142.396 -5.15543 -4.05649 0
M  V30 1649 H 142.313 -6.75504 -3.39456 0
M  V30 1650 H 143.581 -6.35475 -4.51434 0
M  V30 1651 N 147.81 0.181792 -1.56548 0
M  V30 1652 C 149.056 0.901431 -1.81665 0
M  V30 1653 C 149.389 1.82347 -0.668075 0
M  V30 1654 O 148.664 1.91669 0.330615 0
M  V30 1655 C 148.947 1.70618 -3.17115 0
M  V30 1656 C 148.8 0.807964 -4.42484 0
M  V30 1657 C 150.119 2.67605 -3.49393 0
M  V30 1658 H 147.238 0.32627 -0.660846 0
M  V30 1659 H 149.88 0.168134 -1.89255 0
M  V30 1660 H 148.03 2.33133 -3.10775 0
M  V30 1661 H 149.702 0.19649 -4.60881 0
M  V30 1662 H 147.945 0.115411 -4.33646 0
M  V30 1663 H 148.616 1.40632 -5.33785 0
M  V30 1664 H 151.092 2.15218 -3.56118 0
M  V30 1665 H 149.968 3.20985 -4.45264 0
M  V30 1666 H 150.229 3.47298 -2.73563 0
M  V30 1667 N 149.288 1.51039 0.449983 0
M  V30 1668 C 150.218 1.74379 1.55288 0
M  V30 1669 C 151.199 0.593236 1.5942 0
M  V30 1670 O 152.384 0.834625 1.7535 0
M  V30 1671 C 149.514 1.85728 2.93466 0
M  V30 1672 C 148.468 3.01078 3.04197 0
M  V30 1673 C 147.794 2.97595 4.44231 0
M  V30 1674 C 149.094 4.41254 2.7945 0
M  V30 1675 H 150.788 2.66725 1.36008 0
M  V30 1676 H 148.334 1.2835 0.652864 0
M  V30 1677 H 150.287 2.0064 3.70569 0
M  V30 1678 H 149.011 0.900207 3.13949 0
M  V30 1679 H 147.67 2.85851 2.29531 0
M  V30 1680 H 147.318 1.99691 4.61663 0
M  V30 1681 H 147.018 3.75046 4.52343 0
M  V30 1682 H 148.542 3.14583 5.23326 0
M  V30 1683 H 149.956 4.56897 3.46292 0
M  V30 1684 H 148.353 5.20315 2.98985 0
M  V30 1685 H 149.423 4.52164 1.75144 0
M  V30 1686 N 150.766 -0.704594 1.40972 0
M  V30 1687 C 151.996 -1.49138 1.42974 0
M  V30 1688 C 152.404 -1.89175 0.0308406 0
M  V30 1689 O 151.747 -1.56734 -0.958138 0
M  V30 1690 C 151.809 -2.79016 2.26694 0
M  V30 1691 C 151.473 -2.61236 3.74973 0
M  V30 1692 C 152.47 -2.27773 4.67349 0
M  V30 1693 C 150.155 -2.77158 4.18914 0
M  V30 1694 C 152.149 -2.10457 6.01653 0
M  V30 1695 C 149.836 -2.59459 5.53285 0
M  V30 1696 C 150.834 -2.26158 6.4447 0
M  V30 1697 O 150.522 -2.08605 7.76363 0
M  V30 1698 H 150.254 -0.466443 0.489292 0
M  V30 1699 H 152.808 -0.8758 1.85793 0
M  V30 1700 H 151.038 -3.42947 1.78673 0
M  V30 1701 H 152.727 -3.40782 2.20504 0
M  V30 1702 H 153.493 -2.15095 4.34694 0
M  V30 1703 H 149.372 -3.02064 3.48251 0
M  V30 1704 H 152.916 -1.84387 6.72791 0
M  V30 1705 H 148.813 -2.71725 5.85522 0
M  V30 1706 H 149.581 -2.23439 7.87412 0
M  V30 1707 N 152.244 -1.26651 -0.937939 0
M  V30 1708 C 153.154 -1.10276 -2.07066 0
M  V30 1709 C 154.17 -0.0354197 -1.73964 0
M  V30 1710 O 155.346 -0.239816 -1.99967 0
M  V30 1711 C 152.411 -0.740887 -3.38691 0
M  V30 1712 C 151.472 -1.88799 -3.85556 0
M  V30 1713 C 150.705 -1.54329 -5.10899 0
M  V30 1714 O 150.928 -0.446494 -5.6865 0
M  V30 1715 O 149.862 -2.37911 -5.52885 0
M  V30 1716 H 153.688 -2.05309 -2.23789 0
M  V30 1717 H 151.273 -1.05743 -1.0554 0
M  V30 1718 H 153.155 -0.55195 -4.1777 0
M  V30 1719 H 151.83 0.180022 -3.23199 0
M  V30 1720 H 150.737 -2.13191 -3.07409 0
M  V30 1721 H 152.07 -2.78874 -4.05574 0
M  V30 1722 N 153.722 1.14298 -1.08507 0
M  V30 1723 C 154.655 2.18447 -0.660004 0
M  V30 1724 C 155.633 1.59242 0.328749 0
M  V30 1725 O 156.817 1.87062 0.232367 0
M  V30 1726 C 153.944 3.38688 0.0290807 0
M  V30 1727 C 152.99 4.1646 -0.919982 0
M  V30 1728 S 153.823 4.77334 -2.42718 0
M  V30 1729 C 154.979 6.00931 -1.75024 0
M  V30 1730 H 155.212 2.54166 -1.54231 0
M  V30 1731 H 152.745 1.25446 -0.900149 0
M  V30 1732 H 154.703 4.08342 0.420378 0
M  V30 1733 H 153.364 3.01289 0.887895 0
M  V30 1734 H 152.557 5.02529 -0.384751 0
M  V30 1735 H 152.159 3.52414 -1.25223 0
M  V30 1736 H 154.451 6.69017 -1.06877 0
M  V30 1737 H 155.394 6.59044 -2.58971 0
M  V30 1738 H 155.802 5.51089 -1.22317 0
M  V30 1739 N 155.201 0.870884 1.31352 0
M  V30 1740 C 156.478 0.402907 1.91405 0
M  V30 1741 C 156.858 -1.11512 1.79244 0
M  V30 1742 O 156.206 -1.94411 1.2007 0
M  V30 1743 C 156.416 0.885301 3.37585 0
M  V30 1744 C 157.764 0.911971 4.14691 0
M  V30 1745 O 158.788 0.831016 3.46371 0
M  V30 1746 O 157.647 1.02927 5.3672 0
M  V30 1747 H 154.741 0.120698 0.818145 0
M  V30 1748 H 157.287 0.958857 1.40014 0
M  V30 1749 H 156.059 1.92889 3.40455 0
M  V30 1750 H 155.682 0.307714 3.96407 0
M  V30 1751 N 156.679 -1.44442 0.630414 0
M  V30 1752 C 157.927 -2.01653 0.134351 0
M  V30 1753 C 158.248 -1.49836 -1.24796 0
M  V30 1754 O 157.518 -0.701684 -1.82902 0
M  V30 1755 H 156.098 -0.74554 0.0466769 0
M  V30 1756 H 158.76 -1.76952 0.816955 0
M  V30 1757 H 157.856 -3.11935 0.101498 0
M  V30 1758 N 158.157 -0.370918 -1.53173 0
M  V30 1759 C 159.403 0.217423 -2.01631 0
M  V30 1760 C 159.736 1.47983 -1.25756 0
M  V30 1761 O 159.011 1.91274 -0.352764 0
M  V30 1762 C 159.294 0.503982 -3.56556 0
M  V30 1763 C 159.147 -0.77243 -4.43118 0
M  V30 1764 C 160.466 1.30234 -4.20389 0
M  V30 1765 H 157.585 0.0775486 -0.732909 0
M  V30 1766 H 160.227 -0.496863 -1.83388 0
M  V30 1767 H 158.377 1.11248 -3.72231 0
M  V30 1768 H 160.049 -1.4098 -4.39229 0
M  V30 1769 H 158.292 -1.39167 -4.10871 0
M  V30 1770 H 158.963 -0.526815 -5.4948 0
M  V30 1771 H 161.439 0.787546 -4.08579 0
M  V30 1772 H 160.315 1.47158 -5.28806 0
M  V30 1773 H 160.576 2.31237 -3.76805 0
M  V30 1774 N 159.635 1.57281 -0.100228 0
M  V30 1775 C 161.046 1.81725 0.428107 0
M  V30 1776 C 161.397 1.01619 1.67833 0
M  V30 1777 O 160.522 0.247098 2.14985 0
M  V30 1778 C 161.117 3.29617 0.78347 0
M  V30 1779 C 159.676 3.54808 1.25653 0
M  V30 1780 C 158.823 2.76118 0.255752 0
M  V30 1781 H 161.774 1.55324 -0.325608 0
M  V30 1782 H 161.795 3.4322 1.64256 0
M  V30 1783 H 161.307 3.87893 -0.12665 0
M  V30 1784 H 159.408 3.01868 2.18418 0
M  V30 1785 H 159.521 4.63443 1.21482 0
M  V30 1786 H 157.885 2.43745 0.738956 0
M  V30 1787 H 158.668 3.37145 -0.647136 0
M  V30 1788 N 161.113 -0.173488 1.56642 0
M  V30 1789 C 162.023 -1.23482 1.99473 0
M  V30 1790 C 163.039 -1.48567 0.905752 0
M  V30 1791 O 164.215 -1.60758 1.21321 0
M  V30 1792 C 161.28 -2.55444 2.34413 0
M  V30 1793 C 160.341 -2.38241 3.57127 0
M  V30 1794 C 159.574 -3.63909 3.90392 0
M  V30 1795 O 159.797 -4.68996 3.24653 0
M  V30 1796 O 158.731 -3.58149 4.83749 0
M  V30 1797 H 162.557 -0.901279 2.90018 0
M  V30 1798 H 160.142 -0.380185 1.44482 0
M  V30 1799 H 162.024 -3.33292 2.57865 0
M  V30 1800 H 160.699 -2.88382 1.4703 0
M  V30 1801 H 159.606 -1.58431 3.38896 0
M  V30 1802 H 160.939 -2.10228 4.45045 0
M  V30 1803 N 162.591 -1.51276 -0.441967 0
M  V30 1804 C 163.501 -1.75092 -1.56141 0
M  V30 1805 C 164.517 -0.634963 -1.62001 0
M  V30 1806 O 165.693 -0.916686 -1.79329 0
M  V30 1807 C 162.758 -1.86666 -2.92158 0
M  V30 1808 C 161.819 -3.10506 -2.96453 0
M  V30 1809 C 161.052 -3.21519 -4.25982 0
M  V30 1810 O 161.275 -2.38586 -5.18105 0
M  V30 1811 O 160.209 -4.14465 -4.36466 0
M  V30 1812 H 164.035 -2.70044 -1.38961 0
M  V30 1813 H 161.62 -1.35722 -0.624499 0
M  V30 1814 H 163.502 -1.96292 -3.72891 0
M  V30 1815 H 162.177 -0.949014 -3.09476 0
M  V30 1816 H 161.084 -3.06363 -2.14692 0
M  V30 1817 H 162.417 -4.01945 -2.84079 0
M  V30 1818 N 164.069 0.697108 -1.41344 0
M  V30 1819 C 164.999 1.82353 -1.45841 0
M  V30 1820 C 165.98 1.67115 -0.317247 0
M  V30 1821 O 167.165 1.86871 -0.528474 0
M  V30 1822 C 164.295 3.20476 -1.33838 0
M  V30 1823 C 163.249 3.50415 -2.4575 0
M  V30 1824 C 162.575 4.87878 -2.18813 0
M  V30 1825 C 163.875 3.49546 -3.88091 0
M  V30 1826 H 165.569 1.78846 -2.40113 0
M  V30 1827 H 163.115 0.859028 -1.15571 0
M  V30 1828 H 165.068 3.98988 -1.35596 0
M  V30 1829 H 163.792 3.24604 -0.360498 0
M  V30 1830 H 162.451 2.74253 -2.43271 0
M  V30 1831 H 162.099 4.8863 -1.19371 0
M  V30 1832 H 161.799 5.08875 -2.93803 0
M  V30 1833 H 163.323 5.68702 -2.22284 0
M  V30 1834 H 164.737 4.18066 -3.92293 0
M  V30 1835 H 163.134 3.82075 -4.62751 0
M  V30 1836 H 164.204 2.48552 -4.16353 0
M  V30 1837 N 165.547 1.27147 0.931209 0
M  V30 1838 C 166.51 1.09615 2.01289 0
M  V30 1839 C 167.51 0.0412581 1.60747 0
M  V30 1840 O 168.7 0.285545 1.71844 0
M  V30 1841 C 165.832 0.669447 3.34262 0
M  V30 1842 H 167.025 2.05662 2.18273 0
M  V30 1843 H 164.578 1.09885 1.11153 0
M  V30 1844 H 165.313 -0.292572 3.22978 0
M  V30 1845 H 165.098 1.43127 3.65044 0
M  V30 1846 H 166.588 0.568921 4.13706 0
M  V30 1847 N 167.025 -1.13721 1.09112 0
M  V30 1848 C 168.441 -1.36914 0.820174 0
M  V30 1849 C 168.641 -1.93356 -0.567079 0
M  V30 1850 O 167.697 -2.15093 -1.32255 0
M  V30 1851 C 169.01 -2.3235 1.90877 0
M  V30 1852 C 170.558 -2.45973 1.93562 0
M  V30 1853 C 171.033 -3.44714 3.01556 0
M  V30 1854 N 172.524 -3.52263 3.00775 0
M  V30 1855 C 173.259 -4.28536 3.80978 0
M  V30 1856 N 172.755 -5.07991 4.71081 0
M  V30 1857 N 174.548 -4.23804 3.69251 0
M  V30 1858 H 166.699 -0.754348 1.98553 0
M  V30 1859 H 168.962 -0.3944 0.862063 0
M  V30 1860 H 168.668 -1.98027 2.90651 0
M  V30 1861 H 168.542 -3.32332 1.78424 0
M  V30 1862 H 170.929 -2.79584 0.944286 0
M  V30 1863 H 171.01 -1.45926 2.10093 0
M  V30 1864 H 170.654 -3.11835 4.00901 0
M  V30 1865 H 170.584 -4.44558 2.82269 0
M  V30 1866 H 173.075 -2.95567 2.35475 0
M  V30 1867 H 173.388 -5.63487 5.28869 0
M  V30 1868 H 171.733 -5.07235 4.75119 0
M  V30 1869 H 174.924 -3.60806 2.98222 0
M  V30 1870 H 175.097 -4.82995 4.31995 0
M  V30 1871 N 168.503 -0.877838 -1.30888 0
M  V30 1872 C 169.413 -0.343096 -2.32078 0
M  V30 1873 C 170.429 0.551022 -1.65045 0
M  V30 1874 O 171.605 0.445854 -1.96403 0
M  V30 1875 C 168.67 0.439905 -3.43898 0
M  V30 1876 C 167.731 -0.483111 -4.26573 0
M  V30 1877 C 166.964 0.262616 -5.33053 0
M  V30 1878 O 167.187 1.48967 -5.50604 0
M  V30 1879 O 166.121 -0.383593 -6.00676 0
M  V30 1880 H 169.947 -1.18203 -2.79753 0
M  V30 1881 H 167.532 -0.64145 -1.34929 0
M  V30 1882 H 169.414 0.883504 -4.12034 0
M  V30 1883 H 168.089 1.25526 -2.98371 0
M  V30 1884 H 166.996 -0.975374 -3.61161 0
M  V30 1885 H 168.329 -1.26427 -4.75686 0
M  V30 1886 N 169.982 1.44106 -0.638065 0
M  V30 1887 C 170.945 2.29138 0.0531013 0
M  V30 1888 C 171.945 1.41409 0.765506 0
M  V30 1889 O 173.135 1.63206 0.609046 0
M  V30 1890 C 170.267 3.23144 1.08584 0
M  V30 1891 H 171.46 2.91739 -0.694883 0
M  V30 1892 H 169.013 1.51134 -0.398538 0
M  V30 1893 H 169.748 2.65408 1.86357 0
M  V30 1894 H 169.533 3.87804 0.578852 0
M  V30 1895 H 171.023 3.87004 1.56899 0
M  V30 1896 N 171.46 0.379036 1.52974 0
M  V30 1897 C 172.707 -0.206421 2.01445 0
M  V30 1898 C 173.035 -1.47668 1.26587 0
M  V30 1899 O 172.29 -1.92514 0.351675 0
M  V30 1900 C 172.589 -0.53096 3.53434 0
M  V30 1901 C 172.255 0.646546 4.46241 0
M  V30 1902 C 170.917 0.969604 4.7133 0
M  V30 1903 C 173.269 1.43479 5.01062 0
M  V30 1904 C 170.597 2.08263 5.48492 0
M  V30 1905 C 172.949 2.53834 5.7944 0
M  V30 1906 C 171.613 2.86659 6.02812 0
M  V30 1907 H 170.883 -0.0755349 0.73714 0
M  V30 1908 H 173.53 0.514271 1.84465 0
M  V30 1909 H 171.835 -1.33285 3.68432 0
M  V30 1910 H 173.532 -0.996417 3.88423 0
M  V30 1911 H 170.122 0.384734 4.2687 0
M  V30 1912 H 174.306 1.19844 4.81613 0
M  V30 1913 H 169.562 2.34078 5.64816 0
M  V30 1914 H 173.736 3.15319 6.20924 0
M  V30 1915 H 171.363 3.73026 6.62387 0
M  V30 1916 N 172.938 -1.57226 0.108567 0
M  V30 1917 C 173.885 -2.14756 -0.845481 0
M  V30 1918 C 174.855 -1.06971 -1.27068 0
M  V30 1919 O 176.04 -1.34827 -1.35005 0
M  V30 1920 C 173.18 -2.74298 -2.09415 0
M  V30 1921 C 172.293 -3.96358 -1.71826 0
M  V30 1922 C 171.428 -4.44021 -2.9158 0
M  V30 1923 C 170.467 -5.58637 -2.50181 0
M  V30 1924 N 169.604 -6.01091 -3.62814 0
M  V30 1925 H 174.444 -2.95961 -0.348035 0
M  V30 1926 H 171.981 -1.46226 -0.160106 0
M  V30 1927 H 173.939 -3.06945 -2.82561 0
M  V30 1928 H 172.569 -1.95801 -2.56636 0
M  V30 1929 H 171.621 -3.69939 -0.885947 0
M  V30 1930 H 172.933 -4.79504 -1.37394 0
M  V30 1931 H 172.087 -4.78522 -3.72963 0
M  V30 1932 H 170.826 -3.59803 -3.29231 0
M  V30 1933 H 169.831 -5.23751 -1.67228 0
M  V30 1934 H 171.056 -6.44613 -2.13659 0
M  V30 1935 H 169.002 -5.19817 -4.00158 0
M  V30 1936 H 168.919 -6.79066 -3.32273 0
M  V30 1937 H 170.187 -6.40227 -4.44668 0
M  V30 1938 N 174.416 0.165178 -1.56732 0
M  V30 1939 C 175.346 1.20651 -1.99914 0
M  V30 1940 C 176.327 1.45827 -0.875705 0
M  V30 1941 O 177.512 1.57057 -1.14223 0
M  V30 1942 C 174.642 2.54401 -2.36427 0
M  V30 1943 C 173.596 2.43782 -3.51787 0
M  V30 1944 C 172.922 3.82078 -3.7406 0
M  V30 1945 C 174.222 1.93732 -4.85041 0
M  V30 1946 H 175.916 0.847534 -2.87154 0
M  V30 1947 H 173.462 0.40625 -1.38151 0
M  V30 1948 H 175.415 3.27458 -2.65234 0
M  V30 1949 H 174.139 2.92098 -1.46103 0
M  V30 1950 H 172.798 1.73178 -3.23117 0
M  V30 1951 H 172.446 4.17179 -2.81017 0
M  V30 1952 H 172.146 3.7584 -4.51684 0
M  V30 1953 H 173.67 4.56712 -4.05274 0
M  V30 1954 H 175.084 2.56569 -5.12684 0
M  V30 1955 H 173.481 1.98428 -5.66345 0
M  V30 1956 H 174.551 0.891962 -4.76626 0
M  V30 1957 N 175.894 1.51508 0.433938 0
M  V30 1958 C 176.857 1.72473 1.50949 0
M  V30 1959 C 177.857 0.594725 1.49398 0
M  V30 1960 O 179.047 0.862315 1.5136 0
M  V30 1961 C 176.179 1.78431 2.90474 0
M  V30 1962 H 177.372 2.68467 1.33662 0
M  V30 1963 H 174.925 1.41549 0.662836 0
M  V30 1964 H 175.66 0.842645 3.13161 0
M  V30 1965 H 175.445 2.60558 2.93005 0
M  V30 1966 H 176.935 1.96479 3.68491 0
M  V30 1967 N 177.372 -0.689602 1.41712 0
M  V30 1968 C 178.335 -1.78521 1.43746 0
M  V30 1969 C 179.335 -1.57436 0.327191 0
M  V30 1970 O 180.525 -1.64 0.587348 0
M  V30 1971 C 177.657 -3.16971 1.25467 0
M  V30 1972 H 178.85 -1.78108 2.41283 0
M  V30 1973 H 176.403 -0.89781 1.27942 0
M  V30 1974 H 177.138 -3.23019 0.287948 0
M  V30 1975 H 176.923 -3.33678 2.05917 0
M  V30 1976 H 178.413 -3.96935 1.2974 0
M  V30 1977 N 178.85 -1.27639 -0.924453 0
M  V30 1978 C 179.813 -1.10681 -2.00705 0
M  V30 1979 C 180.813 -0.0497823 -1.60723 0
M  V30 1980 O 182.003 -0.294654 -1.7169 0
M  V30 1981 C 179.135 -0.687164 -3.33902 0
M  V30 1982 H 180.328 -2.06817 -2.17179 0
M  V30 1983 H 177.881 -1.10473 -1.10569 0
M  V30 1984 H 178.616 0.275439 -3.23128 0
M  V30 1985 H 178.401 -1.45061 -3.6428 0
M  V30 1986 H 179.891 -0.590853 -4.13399 0
M  V30 1987 N 180.328 1.1314 -1.09713 0
M  V30 1988 C 181.275 2.18642 -0.739196 0
M  V30 1989 C 182.245 1.63706 0.280978 0
M  V30 1990 O 183.43 1.90111 0.161946 0
M  V30 1991 C 180.57 3.44685 -0.169102 0
M  V30 1992 C 179.683 4.13711 -1.24367 0
M  V30 1993 C 178.818 5.27379 -0.636019 0
M  V30 1994 C 177.857 5.88259 -1.69169 0
M  V30 1995 N 176.994 6.93352 -1.10485 0
M  V30 1996 H 181.834 2.48607 -1.64312 0
M  V30 1997 H 179.371 1.22066 -0.820875 0
M  V30 1998 H 181.329 4.16815 0.179256 0
M  V30 1999 H 179.959 3.15161 0.698079 0
M  V30 2000 H 179.011 3.39835 -1.70927 0
M  V30 2001 H 180.323 4.55037 -2.04311 0
M  V30 2002 H 179.477 6.06238 -0.236677 0
M  V30 2003 H 178.216 4.8731 0.194928 0
M  V30 2004 H 177.221 5.08092 -2.10055 0
M  V30 2005 H 178.446 6.30399 -2.52536 0
M  V30 2006 H 176.392 6.55335 -0.295234 0
M  V30 2007 H 176.309 7.33236 -1.84121 0
M  V30 2008 H 177.577 7.76057 -0.73181 0
M  V30 2009 N 181.806 0.884767 1.30421 0
M  V30 2010 C 182.736 0.367574 2.30589 0
M  V30 2011 C 183.717 -0.549464 1.60981 0
M  V30 2012 O 184.902 -0.46336 1.88591 0
M  V30 2013 C 182.032 -0.418944 3.44764 0
M  V30 2014 C 180.986 0.406316 4.26067 0
M  V30 2015 C 180.312 -0.506793 5.32293 0
M  V30 2016 C 181.612 1.64832 4.95608 0
M  V30 2017 H 183.306 1.20462 2.74097 0
M  V30 2018 H 180.852 0.580695 1.31772 0
M  V30 2019 H 182.805 -0.791395 4.13902 0
M  V30 2020 H 181.529 -1.28964 3.0006 0
M  V30 2021 H 180.188 0.760903 3.58617 0
M  V30 2022 H 179.836 -1.37519 4.83836 0
M  V30 2023 H 179.536 0.0415828 5.87585 0
M  V30 2024 H 181.06 -0.875764 6.04287 0
M  V30 2025 H 182.474 1.34646 5.57264 0
M  V30 2026 H 180.871 2.13688 5.60765 0
M  V30 2027 H 181.941 2.39284 4.21748 0
M  V30 2028 N 183.284 -1.43765 0.645699 0
M  V30 2029 C 184.695 -1.85193 0.236719 0
M  V30 2030 C 185.046 -1.54045 -1.21509 0
M  V30 2031 O 184.171 -0.985694 -1.92647 0
M  V30 2032 C 184.766 -3.36151 0.422845 0
M  V30 2033 C 183.325 -3.76338 0.0682492 0
M  V30 2034 C 182.472 -2.67538 0.729306 0
M  V30 2035 H 185.423 -1.34025 0.849883 0
M  V30 2036 H 185.444 -3.79032 -0.333904 0
M  V30 2037 H 184.956 -3.5879 1.47958 0
M  V30 2038 H 183.057 -3.59312 -0.986179 0
M  V30 2039 H 183.17 -4.76603 0.488469 0
M  V30 2040 H 181.534 -2.54176 0.163235 0
M  V30 2041 H 182.317 -2.93006 1.78892 0
M  V30 2042 N 184.763 -0.387143 -1.52771 0
M  V30 2043 C 186.012 0.19697 -2.00736 0
M  V30 2044 C 186.325 1.48082 -1.27793 0
M  V30 2045 O 187.531 2.14485 -1.66458 0
M  V30 2046 C 185.987 0.401568 -3.57653 0
M  V30 2047 C 185.595 -0.868907 -4.39493 0
M  V30 2048 C 187.339 0.942164 -4.13912 0
M  V30 2049 C 185.246 -0.632705 -5.88006 0
M  V30 2050 H 184.176 0.0773827 -0.750019 0
M  V30 2051 H 186.827 -0.50921 -1.76293 0
M  V30 2052 H 185.209 1.16954 -3.78335 0
M  V30 2053 H 186.383 -1.64133 -4.30577 0
M  V30 2054 H 184.698 -1.33429 -3.94443 0
M  V30 2055 H 187.295 1.13455 -5.22525 0
M  V30 2056 H 187.638 1.9106 -3.69867 0
M  V30 2057 H 188.171 0.233814 -3.97112 0
M  V30 2058 H 184.91 -1.57208 -6.36369 0
M  V30 2059 H 184.43 0.100825 -5.99715 0
M  V30 2060 H 186.109 -0.26642 -6.46451 0
M  V30 2061 N 186.241 1.57166 -0.116904 0
M  V30 2062 C 187.188 2.15202 0.83408 0
M  V30 2063 C 188.158 1.07644 1.26499 0
M  V30 2064 O 189.343 1.35541 1.34288 0
M  V30 2065 C 186.483 2.75405 2.07957 0
M  V30 2066 C 185.596 3.97264 1.69721 0
M  V30 2067 C 184.731 4.45561 2.89221 0
M  V30 2068 C 183.77 5.59956 2.47215 0
M  V30 2069 N 182.907 6.03006 3.59622 0
M  V30 2070 H 187.747 2.96141 0.332335 0
M  V30 2071 H 185.284 1.46309 0.152349 0
M  V30 2072 H 187.242 3.08439 2.80929 0
M  V30 2073 H 185.872 1.97159 2.55594 0
M  V30 2074 H 184.924 3.70404 0.866316 0
M  V30 2075 H 186.236 4.80226 1.34849 0
M  V30 2076 H 185.39 4.80493 3.7042 0
M  V30 2077 H 184.129 3.61544 3.27318 0
M  V30 2078 H 183.134 5.2463 1.64448 0
M  V30 2079 H 184.359 6.45738 2.10238 0
M  V30 2080 H 182.305 5.21931 3.97396 0
M  V30 2081 H 182.222 6.80819 3.28667 0
M  V30 2082 H 183.49 6.42576 4.41267 0
M  V30 2083 N 187.719 -0.156864 1.56817 0
M  V30 2084 C 188.947 -0.886316 1.86955 0
M  V30 2085 C 189.362 -1.75185 0.703975 0
M  V30 2086 O 188.719 -1.79555 -0.326552 0
M  V30 2087 C 188.77 -1.75117 3.16253 0
M  V30 2088 O 188.491 -0.920537 4.2832 0
M  V30 2089 C 189.992 -2.58905 3.59837 0
M  V30 2090 H 187.212 -0.25678 0.619923 0
M  V30 2091 H 189.756 -0.152615 2.0393 0
M  V30 2092 H 187.911 -2.43805 3.01062 0
M  V30 2093 H 188.325 -1.51337 5.02192 0
M  V30 2094 H 189.799 -3.1518 4.53172 0
M  V30 2095 H 190.276 -3.34472 2.84649 0
M  V30 2096 H 190.882 -1.95526 3.7769 0
M  V30 2097 N 189.197 -1.51736 -0.425897 0
M  V30 2098 C 190.425 -1.68794 -1.1965 0
M  V30 2099 C 190.84 -0.390164 -1.84725 0
M  V30 2100 O 190.197 0.632376 -1.71194 0
M  V30 2101 C 190.248 -2.81174 -2.27208 0
M  V30 2102 O 189.969 -4.05925 -1.64793 0
M  V30 2103 C 191.47 -3.09599 -3.17275 0
M  V30 2104 H 188.69 -0.566128 -0.360194 0
M  V30 2105 H 191.234 -1.98211 -0.503249 0
M  V30 2106 H 189.389 -2.54324 -2.9223 0
M  V30 2107 H 189.803 -4.68423 -2.35967 0
M  V30 2108 H 191.277 -3.91786 -3.88854 0
M  V30 2109 H 191.754 -2.22468 -3.78688 0
M  V30 2110 H 192.36 -3.38151 -2.57941 0
M  V30 2111 N 190.675 0.682077 -1.42076 0
M  V30 2112 C 191.922 1.44215 -1.42156 0
M  V30 2113 C 192.25 1.94468 -0.0354186 0
M  V30 2114 O 191.505 1.70816 0.955002 0
M  V30 2115 C 191.804 2.66036 -2.38662 0
M  V30 2116 C 191.47 2.34366 -3.85206 0
M  V30 2117 C 190.132 2.25439 -4.25124 0
M  V30 2118 C 192.484 2.08513 -4.77673 0
M  V30 2119 C 189.812 1.88775 -5.55501 0
M  V30 2120 C 192.164 1.73354 -6.08384 0
M  V30 2121 C 190.828 1.62933 -6.47309 0
M  V30 2122 H 190.098 0.527718 -0.520187 0
M  V30 2123 H 192.745 0.778387 -1.74967 0
M  V30 2124 H 191.05 3.3741 -1.99152 0
M  V30 2125 H 192.747 3.24205 -2.35991 0
M  V30 2126 H 189.337 2.42213 -3.53597 0
M  V30 2127 H 193.521 2.14346 -4.47626 0
M  V30 2128 H 188.777 1.7927 -5.84527 0
M  V30 2129 H 192.951 1.52373 -6.79526 0
M  V30 2130 H 190.578 1.34292 -7.48244 0
M  V30 2131 N 192.153 1.28127 0.917671 0
M  V30 2132 C 193.399 1.15223 1.66888 0
M  V30 2133 C 193.732 -0.299293 1.9188 0
M  V30 2134 O 193.007 -1.21805 1.51637 0
M  V30 2135 C 193.29 1.94706 3.02922 0
M  V30 2136 C 193.143 3.47898 2.85109 0
M  V30 2137 C 194.462 1.75939 4.03402 0
M  V30 2138 H 191.581 0.419946 0.605652 0
M  V30 2139 H 194.223 1.57398 1.06423 0
M  V30 2140 H 192.373 1.58864 3.54534 0
M  V30 2141 H 194.045 3.93624 2.40537 0
M  V30 2142 H 192.288 3.7373 2.20246 0
M  V30 2143 H 192.959 3.98765 3.81694 0
M  V30 2144 H 195.435 2.07209 3.60837 0
M  V30 2145 H 194.311 2.33931 4.96556 0
M  V30 2146 H 194.572 0.709877 4.36364 0
M  V30 2147 N 193.631 -1.12557 1.10312 0
M  V30 2148 C 194.859 -1.87864 0.866873 0
M  V30 2149 C 195.274 -1.79588 -0.582557 0
M  V30 2150 O 194.631 -1.16887 -1.40156 0
M  V30 2151 C 194.682 -3.37125 1.30496 0
M  V30 2152 O 194.403 -3.45201 2.69755 0
M  V30 2153 C 195.904 -4.29373 1.10243 0
M  V30 2154 H 193.124 -0.594452 0.311236 0
M  V30 2155 H 195.668 -1.42429 1.46745 0
M  V30 2156 H 193.823 -3.80109 0.748081 0
M  V30 2157 H 194.237 -4.38056 2.88457 0
M  V30 2158 H 195.711 -5.32394 1.45811 0
M  V30 2159 H 196.188 -4.39181 0.0409492 0
M  V30 2160 H 196.794 -3.92169 1.64571 0
M  V30 2161 N 195.109 -0.891671 -1.2995 0
M  V30 2162 C 196.056 -0.361736 -2.27948 0
M  V30 2163 C 197.026 0.551761 -1.56668 0
M  V30 2164 O 198.211 0.478736 -1.84696 0
M  V30 2165 C 195.351 0.411825 -3.42634 0
M  V30 2166 C 194.464 -0.531651 -4.28716 0
M  V30 2167 C 193.599 0.258167 -5.30572 0
M  V30 2168 C 192.638 -0.680349 -6.08307 0
M  V30 2169 N 191.775 0.0745613 -7.0206 0
M  V30 2170 H 196.615 -1.20254 -2.72659 0
M  V30 2171 H 194.152 -0.604352 -1.34112 0
M  V30 2172 H 196.11 0.876304 -4.07893 0
M  V30 2173 H 194.74 1.21715 -2.98974 0
M  V30 2174 H 193.792 -1.11463 -3.63703 0
M  V30 2175 H 195.104 -1.25038 -4.82874 0
M  V30 2176 H 194.258 0.784204 -6.0161 0
M  V30 2177 H 192.997 1.01008 -4.77126 0
M  V30 2178 H 192.002 -1.21796 -5.3614 0
M  V30 2179 H 193.227 -1.43145 -6.63842 0
M  V30 2180 H 191.173 0.808883 -6.50994 0
M  V30 2181 H 191.09 -0.584409 -7.53738 0
M  V30 2182 H 192.358 0.581123 -7.77331 0
M  V30 2183 N 196.587 1.43421 -0.653314 0
M  V30 2184 C 197.815 2.06163 -0.174491 0
M  V30 2185 C 198.23 1.48969 1.1599 0
M  V30 2186 O 197.587 0.621042 1.71608 0
M  V30 2187 C 197.638 3.61417 -0.0774865 0
M  V30 2188 O 197.359 4.16485 -1.35912 0
M  V30 2189 C 198.86 4.41235 0.427402 0
M  V30 2190 H 196.08 0.664946 -0.0899353 0
M  V30 2191 H 198.624 1.83924 -0.893988 0
M  V30 2192 H 196.779 3.82841 0.59257 0
M  V30 2193 H 197.193 5.10153 -1.21839 0
M  V30 2194 H 198.667 5.5021 0.44423 0
M  V30 2195 H 199.144 4.14268 1.45873 0
M  V30 2196 H 199.75 4.2478 -0.210167 0
M  V30 2197 N 198.065 0.39524 1.52563 0
M  V30 2198 C 199.311 -0.185318 2.01952 0
M  V30 2199 C 199.644 -1.45964 1.28095 0
M  V30 2200 O 198.919 -1.90689 0.38315 0
M  V30 2201 C 199.202 -0.447193 3.57312 0
M  V30 2202 C 199.055 0.842828 4.41833 0
M  V30 2203 C 200.374 -1.23529 4.22408 0
M  V30 2204 H 197.493 -0.0658788 0.73405 0
M  V30 2205 H 200.135 0.525975 1.82575 0
M  V30 2206 H 198.285 -1.05312 3.73954 0
M  V30 2207 H 199.957 1.4795 4.36931 0
M  V30 2208 H 198.2 1.45686 4.08605 0
M  V30 2209 H 198.871 0.614165 5.48573 0
M  V30 2210 H 201.347 -0.722445 4.0978 0
M  V30 2211 H 200.223 -1.38727 5.3108 0
M  V30 2212 H 200.484 -2.25213 3.80436 0
M  V30 2213 N 199.544 -1.57102 0.125237 0
M  V30 2214 C 200.477 -2.11371 -0.860094 0
M  V30 2215 C 201.455 -1.03168 -1.25679 0
M  V30 2216 O 202.639 -1.30862 -1.35674 0
M  V30 2217 C 199.766 -2.61555 -2.1519 0
M  V30 2218 C 198.812 -3.81701 -1.9028 0
M  V30 2219 S 199.645 -5.23797 -1.11343 0
M  V30 2220 C 200.801 -5.77353 -2.41689 0
M  V30 2221 H 201.034 -2.94617 -0.39852 0
M  V30 2222 H 198.567 -1.54145 -0.0886555 0
M  V30 2223 H 200.525 -2.91122 -2.89411 0
M  V30 2224 H 199.186 -1.78479 -2.58465 0
M  V30 2225 H 198.379 -4.14985 -2.86014 0
M  V30 2226 H 197.981 -3.52783 -1.24178 0
M  V30 2227 H 200.273 -5.87458 -3.37489 0
M  V30 2228 H 201.216 -6.75323 -2.12942 0
M  V30 2229 H 201.624 -5.05457 -2.51342 0
M  V30 2230 O 201.061 0.0139771 -1.61494 0
M  V30 2231 H 201.752 0.632534 -1.83081 0
M  V30 END ATOM
M  V30 BEGIN BOND
M  V30 END BOND
M  V30 END CTAB
M  END
$$$$
