drugbank_target|P0AEK2 3-oxoacyl-[acyl-carrier-protein] reductase FabG (DB03461)
 OpenBabel12092120043D

  0  0  0     0  0            999 V3000
M  V30 BEGIN CTAB
M  V30 COUNTS 3613 3629 0 0 0
M  V30 BEGIN ATOM
M  V30 1 H -0.908 1.98254 -0.117106 0
M  V30 2 N 0 1.576 0 0
M  V30 3 C 0.933 2.03868 1.02534 0
M  V30 4 C 1.911 0.928543 1.3348 0
M  V30 5 O 3.095 1.19667 1.45644 0
M  V30 6 C 0.222 2.43627 2.35294 0
M  V30 7 C -0.732 3.65373 2.2001 0
M  V30 8 S 0.101 5.13292 1.52614 0
M  V30 9 C 1.257 5.56322 2.86805 0
M  V30 10 H 1.49 2.90518 0.631377 0
M  V30 11 H -0.977 1.52953 0.210867 0
M  V30 12 H 0.981 2.67203 3.11629 0
M  V30 13 H -0.358 1.57376 2.7183 0
M  V30 14 H -1.165 3.90944 3.18086 0
M  V30 15 H -1.563 3.418 1.51819 0
M  V30 16 H 0.729 5.58782 3.83104 0
M  V30 17 H 1.672 6.56266 2.65933 0
M  V30 18 H 2.08 4.83886 2.90714 0
M  V30 19 N 1.4781 -0.272755 1.55222 0
M  V30 20 C 2.4261 -1.35705 1.88909 0
M  V30 21 C 3.4201 -1.5112 0.765456 0
M  V30 22 O 4.6261 -1.52901 0.949802 0
M  V30 23 H 1.0011 -0.453868 0.59959 0
M  V30 24 H 2.9721 -1.04544 2.79487 0
M  V30 25 C 1.7211 -2.71049 2.17779 0
M  V30 26 H 1.0441 -2.59979 3.03728 0
M  V30 27 H 2.4841 -3.45858 2.45272 0
M  V30 28 C 0.9431 -3.22165 0.985473 0
M  V30 29 O 1.4731 -4.01096 0.220233 0
M  V30 30 N -0.3209 -2.7985 0.783108 0
M  V30 31 H -0.7739 -2.15775 1.40708 0
M  V30 32 H -0.8159 -3.14397 -0.0130392 0
M  V30 33 N 2.9562 -1.48159 -0.537278 0
M  V30 34 C 4.2032 -1.55804 -1.29349 0
M  V30 35 C 4.5312 -0.228802 -1.9315 0
M  V30 36 O 3.7862 0.780242 -1.79473 0
M  V30 37 C 4.0852 -2.63956 -2.40961 0
M  V30 38 C 3.7512 -4.0662 -1.94861 0
M  V30 39 C 2.4132 -4.45452 -1.82006 0
M  V30 40 C 4.7652 -4.96055 -1.59933 0
M  V30 41 C 2.0932 -5.71531 -1.32547 0
M  V30 42 C 4.4452 -6.22617 -1.11939 0
M  V30 43 C 3.1092 -6.60312 -0.976951 0
M  V30 44 H 2.3792 -0.570129 -0.473322 0
M  V30 45 H 5.0262 -1.81845 -0.600372 0
M  V30 46 H 3.3312 -2.31747 -3.15912 0
M  V30 47 H 5.0282 -2.67089 -2.99107 0
M  V30 48 H 1.6182 -3.75949 -2.05815 0
M  V30 49 H 5.8022 -4.66738 -1.68728 0
M  V30 50 H 1.0582 -5.99468 -1.202 0
M  V30 51 H 5.2322 -6.91318 -0.839811 0
M  V30 52 H 2.8592 -7.57895 -0.591501 0
M  V30 53 N 4.4343 0.785586 -1.36625 0
M  V30 54 C 5.3443 1.92964 -1.33425 0
M  V30 55 C 6.3603 1.72394 -0.235851 0
M  V30 56 O 7.5363 1.95866 -0.468878 0
M  V30 57 C 4.6013 3.27884 -1.12662 0
M  V30 58 C 3.6623 3.61204 -2.32013 0
M  V30 59 C 2.8953 4.89687 -2.12231 0
M  V30 60 O 3.1183 5.59704 -1.09945 0
M  V30 61 O 2.0523 5.21752 -3.00098 0
M  V30 62 H 5.8783 1.98613 -2.29753 0
M  V30 63 H 3.4633 0.926384 -1.17211 0
M  V30 64 H 5.3453 4.08614 -1.03016 0
M  V30 65 H 4.0203 3.23118 -0.193991 0
M  V30 66 H 2.9273 2.80765 -2.47228 0
M  V30 67 H 4.2603 3.70698 -3.23796 0
M  V30 68 N 5.9124 1.20967 1.01018 0
M  V30 69 C 7.1604 1.02172 1.74371 0
M  V30 70 C 7.4814 -0.446414 1.89821 0
M  V30 71 O 6.7514 -1.32234 1.44537 0
M  V30 72 H 5.3314 0.375066 0.646014 0
M  V30 73 H 7.9934 1.52187 1.21758 0
M  V30 74 H 7.0894 1.48538 2.74487 0
M  V30 75 N 7.3905 -1.2043 1.01659 0
M  V30 76 C 8.3375 -2.23215 0.586822 0
M  V30 77 C 9.3075 -1.61382 -0.393085 0
M  V30 78 O 10.4925 -1.88544 -0.292525 0
M  V30 79 C 7.6325 -3.45032 -0.0687464 0
M  V30 80 C 6.7455 -4.21296 0.955724 0
M  V30 81 C 5.8805 -5.30507 0.271208 0
M  V30 82 C 4.9195 -5.98515 1.28244 0
M  V30 83 N 4.0565 -6.99316 0.62459 0
M  V30 84 H 8.8965 -2.59336 1.46796 0
M  V30 85 H 6.4335 -1.27431 0.734836 0
M  V30 86 H 8.3915 -4.1459 -0.465965 0
M  V30 87 H 7.0215 -3.09604 -0.913529 0
M  V30 88 H 6.0735 -3.50803 1.4711 0
M  V30 89 H 7.3855 -4.6803 1.72479 0
M  V30 90 H 6.5395 -6.06428 -0.18151 0
M  V30 91 H 5.2785 -4.8481 -0.530163 0
M  V30 92 H 4.2835 -5.21355 1.74554 0
M  V30 93 H 5.5085 -6.46298 2.08509 0
M  V30 94 H 3.4545 -6.55812 -0.156914 0
M  V30 95 H 3.3715 -7.44178 1.33172 0
M  V30 96 H 4.6395 -7.79255 0.195462 0
M  V30 97 N 8.8686 -0.792821 -1.36206 0
M  V30 98 C 10.1176 -0.363353 -1.984 0
M  V30 99 C 10.4306 1.07172 -1.63626 0
M  V30 100 O 11.6366 1.60362 -2.19081 0
M  V30 101 C 10.0926 -0.59872 -3.54885 0
M  V30 102 C 9.7006 -2.04543 -3.9858 0
M  V30 103 C 11.4446 -0.233926 -4.23855 0
M  V30 104 C 9.3516 -2.22727 -5.47856 0
M  V30 105 H 8.2816 -0.13212 -0.742334 0
M  V30 106 H 10.9326 -0.974935 -1.55458 0
M  V30 107 H 9.3146 0.0826222 -3.95914 0
M  V30 108 H 10.4886 -2.76345 -3.68741 0
M  V30 109 H 8.8036 -2.36879 -3.42458 0
M  V30 110 H 11.4006 -0.348027 -5.33566 0
M  V30 111 H 11.7436 0.818351 -4.08177 0
M  V30 112 H 12.2766 -0.868639 -3.882 0
M  V30 113 H 9.0156 -3.2635 -5.68486 0
M  V30 114 H 8.5356 -1.55434 -5.7931 0
M  V30 115 H 10.2146 -2.03607 -6.14128 0
M  V30 116 N 10.3467 1.47872 -0.545128 0
M  V30 117 C 11.3097 2.28337 0.198717 0
M  V30 118 C 12.3097 1.36255 0.853888 0
M  V30 119 O 13.4997 1.59003 0.711606 0
M  V30 120 C 10.6317 3.15585 1.28915 0
M  V30 121 H 11.8247 2.95567 -0.507941 0
M  V30 122 H 9.3777 1.53362 -0.301616 0
M  V30 123 H 10.1127 2.53019 2.02859 0
M  V30 124 H 9.8977 3.83337 0.824309 0
M  V30 125 H 11.3877 3.76243 1.81194 0
M  V30 126 N 11.8248 0.280983 1.55075 0
M  V30 127 C 12.7548 -0.597469 2.25727 0
M  V30 128 C 13.7358 -1.15417 1.24952 0
M  V30 129 O 14.9208 -1.18722 1.53684 0
M  V30 130 C 12.0508 -1.7789 2.98283 0
M  V30 131 C 11.0048 -1.35347 4.06036 0
M  V30 132 C 10.3308 -2.61846 4.66198 0
M  V30 133 C 11.6308 -0.499354 5.19907 0
M  V30 134 H 13.3248 -0.00824265 2.99399 0
M  V30 135 H 10.8708 -0.0025244 1.44 0
M  V30 136 H 12.8238 -2.39937 3.46422 0
M  V30 137 H 11.5478 -2.39405 2.22155 0
M  V30 138 H 10.2068 -0.756156 3.58717 0
M  V30 139 H 9.8548 -3.21632 3.86732 0
M  V30 140 H 9.5548 -2.3409 5.38958 0
M  V30 141 H 11.0788 -3.24732 5.1709 0
M  V30 142 H 12.4928 -1.02498 5.64063 0
M  V30 143 H 10.8898 -0.316424 5.99265 0
M  V30 144 H 11.9598 0.480459 4.82514 0
M  V30 145 N 13.3029 -1.57598 0.00835791 0
M  V30 146 C 14.5489 -1.91211 -0.675732 0
M  V30 147 C 14.8819 -0.883139 -1.72958 0
M  V30 148 O 14.1569 0.097016 -1.94258 0
M  V30 149 C 14.4399 -3.35379 -1.31123 0
M  V30 150 C 14.2929 -4.48999 -0.268356 0
M  V30 151 C 15.6119 -3.7912 -2.23508 0
M  V30 152 H 12.7309 -0.695374 -0.244179 0
M  V30 153 H 15.3729 -1.89901 0.0613655 0
M  V30 154 H 13.5229 -3.36626 -1.93946 0
M  V30 155 H 15.1949 -4.59887 0.360844 0
M  V30 156 H 13.4379 -4.31873 0.408482 0
M  V30 157 H 14.1089 -5.46851 -0.752218 0
M  V30 158 H 16.5849 -3.79477 -1.70693 0
M  V30 159 H 15.4609 -4.80729 -2.64936 0
M  V30 160 H 15.7219 -3.13455 -3.11766 0
M  V30 161 N 14.781 0.264519 -1.55364 0
M  V30 162 C 16.009 1.013 -1.80405 0
M  V30 163 C 16.424 1.79618 -0.581622 0
M  V30 164 O 15.781 1.76879 0.449468 0
M  V30 165 C 15.832 1.96487 -3.03439 0
M  V30 166 O 15.553 1.21341 -4.20961 0
M  V30 167 C 17.054 2.83079 -3.41147 0
M  V30 168 H 14.274 0.298875 -0.600762 0
M  V30 169 H 16.818 0.292736 -2.02394 0
M  V30 170 H 14.973 2.63965 -2.83551 0
M  V30 171 H 15.387 1.85573 -4.90574 0
M  V30 172 H 16.861 3.4565 -4.30384 0
M  V30 173 H 17.338 3.53286 -2.60932 0
M  V30 174 H 17.944 2.2108 -3.63323 0
M  V30 175 N 16.2591 1.48442 0.529413 0
M  V30 176 C 17.5071 1.56179 1.28267 0
M  V30 177 C 17.8281 0.237721 1.93546 0
M  V30 178 O 17.0981 -0.740779 1.81354 0
M  V30 179 H 15.6781 0.575367 0.476405 0
M  V30 180 H 18.3401 1.84909 0.61602 0
M  V30 181 H 17.4361 2.34312 2.06165 0
M  V30 182 N 17.7372 -0.778329 1.37039 0
M  V30 183 C 18.7002 -1.87301 1.32102 0
M  V30 184 C 19.7002 -1.59198 0.226405 0
M  V30 185 O 20.8902 -1.67403 0.481861 0
M  V30 186 C 18.0222 -3.24309 1.05055 0
M  V30 187 H 19.2152 -1.93093 2.29467 0
M  V30 188 H 16.7682 -0.977358 1.21973 0
M  V30 189 H 17.5032 -3.24196 0.0819373 0
M  V30 190 H 17.2882 -3.46098 1.84279 0
M  V30 191 H 18.7782 -4.04382 1.04234 0
M  V30 192 N 19.2153 -1.21501 -1.00376 0
M  V30 193 C 20.4403 -1.05977 -1.78279 0
M  V30 194 C 20.8653 0.385994 -1.84097 0
M  V30 195 O 20.2233 1.27849 -1.28547 0
M  V30 196 C 20.2713 -1.66302 -3.19963 0
M  V30 197 O 19.3753 -0.909333 -4.0225 0
M  V30 198 H 18.7163 -0.372906 -0.549397 0
M  V30 199 H 21.2463 -1.6107 -1.26165 0
M  V30 200 H 21.2563 -1.70574 -3.70632 0
M  V30 201 H 19.9313 -2.71515 -3.15043 0
M  V30 202 H 18.5083 -0.941795 -3.60811 0
M  V30 203 N 20.6934 1.19889 -1.02296 0
M  V30 204 C 22.1094 1.41462 -0.738954 0
M  V30 205 C 22.3094 1.89721 0.678846 0
M  V30 206 O 21.3654 2.07016 1.4457 0
M  V30 207 C 22.6784 2.43083 -1.77005 0
M  V30 208 C 24.2264 2.5684 -1.78892 0
M  V30 209 C 24.7014 3.61709 -2.80945 0
M  V30 210 N 26.1924 3.69199 -2.79725 0
M  V30 211 C 26.9274 4.50019 -3.55345 0
M  V30 212 N 26.4234 5.34592 -4.40662 0
M  V30 213 N 28.2164 4.44612 -3.43914 0
M  V30 214 H 20.3674 0.868827 -1.93817 0
M  V30 215 H 22.6304 0.44399 -0.837602 0
M  V30 216 H 22.3364 2.14636 -2.78612 0
M  V30 217 H 22.2104 3.4217 -1.58744 0
M  V30 218 H 24.5974 2.84614 -0.779674 0
M  V30 219 H 24.6784 1.57927 -2.01228 0
M  V30 220 H 24.3224 3.34678 -3.82038 0
M  V30 221 H 24.2524 4.60259 -2.5587 0
M  V30 222 H 26.7434 3.08794 -2.17842 0
M  V30 223 H 27.0564 5.93363 -4.95116 0
M  V30 224 H 25.4014 5.34073 -4.44737 0
M  V30 225 H 28.5924 3.7758 -2.76679 0
M  V30 226 H 28.7654 5.0736 -4.031 0
M  V30 227 N 22.1715 0.800033 1.35784 0
M  V30 228 C 23.4195 0.376597 1.9856 0
M  V30 229 C 23.7405 -1.05812 1.63795 0
M  V30 230 O 23.0105 -1.73103 0.917171 0
M  V30 231 H 21.5905 0.136261 0.734467 0
M  V30 232 H 24.2525 1.02442 1.65806 0
M  V30 233 H 23.3485 0.477002 3.08433 0
M  V30 234 N 23.6496 -1.47581 0.552962 0
M  V30 235 C 24.8986 -2.01684 0.0251995 0
M  V30 236 C 25.2116 -1.43317 -1.33115 0
M  V30 237 O 26.4176 -1.89057 -1.94858 0
M  V30 238 C 24.8736 -3.599 -0.00542052 0
M  V30 239 C 24.4816 -4.27257 1.34742 0
M  V30 240 C 26.2256 -4.21768 -0.4808 0
M  V30 241 C 24.1326 -5.77467 1.27614 0
M  V30 242 H 23.0626 -0.753979 0.00565033 0
M  V30 243 H 25.7136 -1.69616 0.70018 0
M  V30 244 H 24.0956 -3.88911 -0.745961 0
M  V30 245 H 25.2696 -4.09893 2.10534 0
M  V30 246 H 23.5846 -3.77358 1.76039 0
M  V30 247 H 26.1816 -5.31838 -0.55246 0
M  V30 248 H 26.5246 -3.88651 -1.49184 0
M  V30 249 H 27.0576 -3.97273 0.204752 0
M  V30 250 H 23.7966 -6.15196 2.26304 0
M  V30 251 H 23.3166 -5.9718 0.55996 0
M  V30 252 H 24.9956 -6.3959 0.976421 0
M  V30 253 N 25.1277 -0.289203 -1.54924 0
M  V30 254 C 26.3757 0.322879 -1.99504 0
M  V30 255 C 26.6967 1.55313 -1.1791 0
M  V30 256 O 25.9667 1.94001 -0.272097 0
M  V30 257 H 24.5467 0.122291 -0.736922 0
M  V30 258 H 27.2087 -0.397802 -1.90797 0
M  V30 259 H 26.3047 0.603061 -3.06218 0
M  V30 260 N 26.6058 1.57591 -0.0167156 0
M  V30 261 C 28.0218 1.55946 0.339557 0
M  V30 262 C 28.2218 1.02109 1.73713 0
M  V30 263 O 27.2778 0.662303 2.43659 0
M  V30 264 C 28.5908 3.00037 0.199499 0
M  V30 265 C 30.1388 3.11805 0.273193 0
M  V30 266 C 30.6138 4.57713 0.162068 0
M  V30 267 N 32.1048 4.6268 0.219444 0
M  V30 268 C 32.8398 5.73185 0.157054 0
M  V30 269 N 32.3358 6.92786 0.0442936 0
M  V30 270 N 34.1288 5.61707 0.21014 0
M  V30 271 H 26.2798 1.90921 -0.930758 0
M  V30 272 H 28.5428 0.877674 -0.358319 0
M  V30 273 H 28.2488 3.4333 -0.76273 0
M  V30 274 H 28.1228 3.64387 0.974786 0
M  V30 275 H 30.5098 2.68433 1.22587 0
M  V30 276 H 30.5908 2.50201 -0.532256 0
M  V30 277 H 30.2348 5.01763 -0.78714 0
M  V30 278 H 30.1648 5.17283 0.986222 0
M  V30 279 H 32.6558 3.76649 0.307246 0
M  V30 280 H 32.9688 7.728 0.00304069 0
M  V30 281 H 31.3138 6.94999 0.00968457 0
M  V30 282 H 34.5048 4.6716 0.296546 0
M  V30 283 H 34.6778 6.47807 0.158054 0
M  V30 284 N 28.0839 -0.256276 1.55502 0
M  V30 285 C 29.0469 -1.30047 1.88734 0
M  V30 286 C 30.0469 -1.4154 0.763086 0
M  V30 287 O 31.2369 -1.40403 1.03115 0
M  V30 288 C 28.3689 -2.67953 2.10747 0
M  V30 289 H 29.5619 -1.01802 2.82093 0
M  V30 290 H 27.1149 -0.495134 1.4825 0
M  V30 291 H 27.8499 -3.01351 1.19825 0
M  V30 292 H 27.6349 -2.60993 2.92617 0
M  V30 293 H 29.1249 -3.43368 2.37673 0
M  V30 294 N 29.562 -1.4872 -0.521534 0
M  V30 295 C 30.811 -1.56419 -1.27341 0
M  V30 296 C 31.124 -0.246805 -1.94037 0
M  V30 297 O 32.33 -0.202122 -2.70747 0
M  V30 298 C 30.786 -2.75896 -2.31105 0
M  V30 299 C 30.394 -4.14311 -1.70441 0
M  V30 300 C 32.138 -2.92913 -3.07249 0
M  V30 301 C 30.045 -5.25038 -2.72194 0
M  V30 302 H 28.975 -0.582344 -0.478949 0
M  V30 303 H 31.626 -1.75071 -0.549779 0
M  V30 304 H 30.008 -2.50697 -3.06541 0
M  V30 305 H 31.182 -4.49564 -1.01136 0
M  V30 306 H 29.497 -4.02482 -1.06759 0
M  V30 307 H 32.094 -3.72805 -3.83302 0
M  V30 308 H 32.437 -2.02689 -3.63625 0
M  V30 309 H 32.97 -3.18054 -2.38928 0
M  V30 310 H 29.709 -6.17255 -2.20627 0
M  V30 311 H 29.229 -4.94263 -3.39801 0
M  V30 312 H 30.908 -5.53508 -3.35019 0
M  V30 313 N 31.0401 0.771051 -1.3745 0
M  V30 314 C 32.0031 1.86598 -1.33093 0
M  V30 315 C 33.0031 1.59076 -0.234845 0
M  V30 316 O 34.1931 1.67145 -0.490732 0
M  V30 317 C 31.3251 3.23747 -1.06773 0
M  V30 318 H 32.5181 1.91873 -2.30488 0
M  V30 319 H 30.0711 0.970876 -1.2249 0
M  V30 320 H 30.8061 3.24148 -0.099129 0
M  V30 321 H 30.5911 3.45115 -1.86112 0
M  V30 322 H 32.0811 4.03824 -1.06377 0
M  V30 323 N 32.5182 1.22032 0.997298 0
M  V30 324 C 33.4282 1.00271 2.12092 0
M  V30 325 C 34.4442 -0.047621 1.73935 0
M  V30 326 O 35.6202 0.144136 2.00884 0
M  V30 327 C 32.6852 0.578449 3.4184 0
M  V30 328 C 31.7462 1.70189 3.94125 0
M  V30 329 C 30.9792 1.29778 5.17681 0
M  V30 330 O 31.2022 0.174676 5.70132 0
M  V30 331 O 30.1362 2.11261 5.63607 0
M  V30 332 H 33.9622 1.94398 2.3333 0
M  V30 333 H 31.5472 1.00587 1.10465 0
M  V30 334 H 33.4292 0.351998 4.19927 0
M  V30 335 H 32.1042 -0.334019 3.21972 0
M  V30 336 H 31.0112 1.98282 3.1723 0
M  V30 337 H 32.3442 2.59206 4.18417 0
M  V30 338 N 33.9963 -1.19345 1.0293 0
M  V30 339 C 35.2243 -1.92997 0.745644 0
M  V30 340 C 35.6393 -1.75519 -0.695589 0
M  V30 341 O 34.9963 -1.07737 -1.47306 0
M  V30 342 C 35.0473 -3.44741 1.08792 0
M  V30 343 O 34.7683 -3.61658 2.47256 0
M  V30 344 C 36.2693 -4.35515 0.827129 0
M  V30 345 H 33.4893 -0.613042 0.272801 0
M  V30 346 H 36.0333 -1.51473 1.3739 0
M  V30 347 H 34.1883 -3.84097 0.504832 0
M  V30 348 H 34.6023 -4.55514 2.60015 0
M  V30 349 H 36.0763 -5.40589 1.11658 0
M  V30 350 H 36.5533 -4.38552 -0.238436 0
M  V30 351 H 37.1593 -4.01841 1.39297 0
M  V30 352 N 35.4744 -0.807222 -1.35358 0
M  V30 353 C 36.4044 -0.232509 -2.3234 0
M  V30 354 C 37.3854 0.642386 -1.57504 0
M  V30 355 O 38.5704 0.572526 -1.85569 0
M  V30 356 C 35.7004 0.619238 -3.41735 0
M  V30 357 C 34.6544 -0.157215 -4.27711 0
M  V30 358 C 33.9804 0.816273 -5.28433 0
M  V30 359 C 35.2804 -1.35656 -5.04376 0
M  V30 360 H 36.9744 -1.04276 -2.80654 0
M  V30 361 H 34.5204 -0.50288 -1.34934 0
M  V30 362 H 36.4734 1.03137 -4.08584 0
M  V30 363 H 35.1974 1.46239 -2.92031 0
M  V30 364 H 33.8564 -0.550525 -3.62443 0
M  V30 365 H 33.5044 1.65494 -4.74996 0
M  V30 366 H 33.2044 0.301067 -5.86828 0
M  V30 367 H 34.7284 1.22659 -5.98153 0
M  V30 368 H 36.1424 -1.01927 -5.64166 0
M  V30 369 H 34.5394 -1.8063 -5.7227 0
M  V30 370 H 35.6094 -2.14288 -4.34981 0
M  V30 371 N 36.9525 1.47285 -0.560781 0
M  V30 372 C 37.9155 2.28535 0.174488 0
M  V30 373 C 38.9155 1.37153 0.839388 0
M  V30 374 O 40.1055 1.59748 0.694702 0
M  V30 375 C 37.2375 3.16934 1.25561 0
M  V30 376 H 38.4305 2.95012 -0.539262 0
M  V30 377 H 35.9835 1.53034 -0.317865 0
M  V30 378 H 36.7185 2.55157 2.00164 0
M  V30 379 H 36.5035 3.8419 0.783604 0
M  V30 380 H 37.9935 3.78143 1.77193 0
M  V30 381 N 38.4306 0.297415 1.54768 0
M  V30 382 C 39.3936 -0.567375 2.22066 0
M  V30 383 C 40.3936 -1.06409 1.20556 0
M  V30 384 O 41.5836 -0.960691 1.45315 0
M  V30 385 C 38.7156 -1.78517 2.90421 0
M  V30 386 H 39.9086 0.0205534 2.99893 0
M  V30 387 H 37.4616 0.0482163 1.56226 0
M  V30 388 H 38.1966 -2.41303 2.16664 0
M  V30 389 H 37.9816 -1.43669 3.64831 0
M  V30 390 H 39.4716 -2.39964 3.41771 0
M  V30 391 N 39.9087 -1.5758 0.0250728 0
M  V30 392 C 41.3247 -1.56124 -0.331282 0
M  V30 393 C 41.5247 -1.03029 -1.73169 0
M  V30 394 O 40.5807 -0.675215 -2.43305 0
M  V30 395 C 41.8937 -3.00139 -0.183584 0
M  V30 396 C 43.4417 -3.11946 -0.256654 0
M  V30 397 C 43.9167 -4.57793 -0.137792 0
M  V30 398 N 45.4077 -4.6279 -0.194904 0
M  V30 399 C 46.1427 -5.7326 -0.126655 0
M  V30 400 N 45.6387 -6.928 -0.00755288 0
M  V30 401 N 47.4317 -5.61811 -0.180348 0
M  V30 402 H 39.5827 -1.90424 0.94087 0
M  V30 403 H 41.8457 -0.875761 0.362968 0
M  V30 404 H 41.5517 -3.4292 0.780927 0
M  V30 405 H 41.4257 -3.64899 -0.955448 0
M  V30 406 H 43.8127 -2.69079 -1.21162 0
M  V30 407 H 43.8937 -2.49915 0.545517 0
M  V30 408 H 43.5377 -5.01339 0.813739 0
M  V30 409 H 43.4677 -5.17798 -0.958775 0
M  V30 410 H 45.9587 -3.76807 -0.287267 0
M  V30 411 H 46.2717 -7.72791 0.0379428 0
M  V30 412 H 44.6167 -6.94995 0.0271731 0
M  V30 413 H 47.8077 -4.6731 -0.271767 0
M  V30 414 H 47.9807 -6.47882 -0.123697 0
M  V30 415 N 41.3868 0.248026 -1.55636 0
M  V30 416 C 42.6348 0.974295 -1.77065 0
M  V30 417 C 42.9558 1.85897 -0.588849 0
M  V30 418 O 42.2258 1.91868 0.395407 0
M  V30 419 H 40.8058 0.362733 -0.653019 0
M  V30 420 H 43.4678 0.266244 -1.93073 0
M  V30 421 H 42.5638 1.59667 -2.68166 0
M  V30 422 N 42.8649 1.48995 0.513639 0
M  V30 423 C 43.8279 1.64229 1.59879 0
M  V30 424 C 44.8279 0.514696 1.5234 0
M  V30 425 O 46.0179 0.78087 1.55718 0
M  V30 426 C 43.1499 1.62783 2.99524 0
M  V30 427 H 44.3429 2.61004 1.47705 0
M  V30 428 H 41.8959 1.37837 0.736936 0
M  V30 429 H 42.6309 0.675461 3.17188 0
M  V30 430 H 42.4159 2.4466 3.06404 0
M  V30 431 H 43.9059 1.76669 3.78388 0
M  V30 432 N 44.343 -0.763751 1.37857 0
M  V30 433 C 45.29 -1.87726 1.34267 0
M  V30 434 C 46.26 -1.64807 0.206879 0
M  V30 435 O 47.445 -1.86613 0.397508 0
M  V30 436 C 44.585 -3.24896 1.16346 0
M  V30 437 C 43.698 -3.59716 2.39225 0
M  V30 438 C 42.833 -4.86137 2.14114 0
M  V30 439 C 41.872 -5.13711 3.32817 0
M  V30 440 N 41.009 -6.31323 3.07206 0
M  V30 441 H 45.849 -1.90129 2.29466 0
M  V30 442 H 43.386 -0.929433 1.14017 0
M  V30 443 H 45.344 -4.04036 1.03975 0
M  V30 444 H 43.974 -3.21847 0.247909 0
M  V30 445 H 43.026 -2.75498 2.62307 0
M  V30 446 H 44.338 -3.76027 3.27728 0
M  V30 447 H 43.492 -5.73198 1.9882 0
M  V30 448 H 42.231 -4.71945 1.22961 0
M  V30 449 H 41.236 -4.25123 3.48641 0
M  V30 450 H 42.461 -5.29807 4.24832 0
M  V30 451 H 40.407 -6.18474 2.1869 0
M  V30 452 H 40.324 -6.48087 3.89254 0
M  V30 453 H 41.592 -7.213 2.95546 0
M  V30 454 N 45.8211 -1.22559 -0.990812 0
M  V30 455 C 47.0671 -1.05297 -1.73322 0
M  V30 456 C 47.4001 0.410655 -1.89808 0
M  V30 457 O 46.6751 1.30439 -1.44277 0
M  V30 458 C 46.9581 -1.76713 -3.13759 0
M  V30 459 C 46.8111 -3.30684 -3.04907 0
M  V30 460 C 48.1301 -1.52121 -4.12974 0
M  V30 461 H 45.2491 -0.38392 -0.629106 0
M  V30 462 H 47.8911 -1.50926 -1.15418 0
M  V30 463 H 46.0411 -1.37924 -3.63193 0
M  V30 464 H 47.7131 -3.7893 -2.63077 0
M  V30 465 H 45.9561 -3.60253 -2.41661 0
M  V30 466 H 46.6271 -3.75833 -4.04294 0
M  V30 467 H 49.1031 -1.85819 -3.72304 0
M  V30 468 H 47.9791 -2.04582 -5.0935 0
M  V30 469 H 48.2401 -0.454257 -4.3976 0
M  V30 470 N 47.2992 1.18797 -1.03562 0
M  V30 471 C 48.5482 1.87978 -0.731235 0
M  V30 472 C 48.8612 1.80911 0.743671 0
M  V30 473 O 50.0672 2.45407 1.16137 0
M  V30 474 C 48.5232 3.3721 -1.25768 0
M  V30 475 C 48.1312 3.52818 -2.76085 0
M  V30 476 C 49.8752 4.11825 -1.0296 0
M  V30 477 C 47.7822 4.9598 -3.22114 0
M  V30 478 H 46.7122 0.704063 -0.269835 0
M  V30 479 H 49.3632 1.34266 -1.25079 0
M  V30 480 H 47.7452 3.90359 -0.666011 0
M  V30 481 H 48.9192 3.09965 -3.40966 0
M  V30 482 H 47.2342 2.91602 -2.97249 0
M  V30 483 H 49.8312 5.17411 -1.34869 0
M  V30 484 H 50.1742 4.16287 0.0333546 0
M  V30 485 H 50.7072 3.64833 -1.58562 0
M  V30 486 H 47.4462 4.96684 -4.27768 0
M  V30 487 H 46.9662 5.39569 -2.61965 0
M  V30 488 H 48.6452 5.6467 -3.15844 0
M  V30 489 N 48.7773 0.814389 1.34928 0
M  V30 490 C 50.0253 0.397636 1.9815 0
M  V30 491 C 50.3463 -1.04069 1.64908 0
M  V30 492 O 49.6163 -1.72121 0.93548 0
M  V30 493 H 48.1963 0.144043 0.732981 0
M  V30 494 H 50.8583 1.04195 1.6471 0
M  V30 495 H 49.9543 0.509688 3.0791 0
M  V30 496 N 50.2554 -1.46986 0.568584 0
M  V30 497 C 51.4834 -2.0683 0.0539956 0
M  V30 498 C 51.8984 -1.41953 -1.24478 0
M  V30 499 O 51.2554 -0.519933 -1.74937 0
M  V30 500 C 51.3064 -3.61254 -0.133362 0
M  V30 501 O 51.0274 -4.237 1.11399 0
M  V30 502 C 52.5284 -4.37992 -0.683927 0
M  V30 503 H 49.7484 -0.669058 0.0510141 0
M  V30 504 H 52.2924 -1.88824 0.785234 0
M  V30 505 H 50.4474 -3.78735 -0.81477 0
M  V30 506 H 50.8614 -5.16388 0.91888 0
M  V30 507 H 52.3354 -5.46684 -0.764263 0
M  V30 508 H 52.8124 -4.05058 -1.69778 0
M  V30 509 H 53.4184 -4.25283 -0.0378494 0
M  V30 510 N 51.7335 -0.305618 -1.54608 0
M  V30 511 C 52.6965 0.555591 -2.22364 0
M  V30 512 C 53.6965 1.05768 -1.21119 0
M  V30 513 O 54.8865 0.952972 -1.45822 0
M  V30 514 C 52.0185 1.76974 -2.91364 0
M  V30 515 H 53.2115 -0.0364572 -2.99878 0
M  V30 516 H 50.7645 -0.0565007 -1.56198 0
M  V30 517 H 51.4995 2.40151 -2.17941 0
M  V30 518 H 51.2845 1.41732 -3.65588 0
M  V30 519 H 52.7745 2.38148 -3.43038 0
M  V30 520 N 53.2116 1.57565 -0.0334293 0
M  V30 521 C 54.4396 1.9628 0.654347 0
M  V30 522 C 54.8546 0.910138 1.65414 0
M  V30 523 O 54.2116 -0.107595 1.82183 0
M  V30 524 C 54.2626 3.35067 1.35693 0
M  V30 525 O 53.9836 4.36296 0.397191 0
M  V30 526 C 55.4846 3.88439 2.13613 0
M  V30 527 H 52.7046 0.646369 0.180132 0
M  V30 528 H 55.2486 2.04282 -0.0944721 0
M  V30 529 H 53.4036 3.2827 2.05712 0
M  V30 530 H 53.8176 5.1678 0.896597 0
M  V30 531 H 55.2916 4.8788 2.58219 0
M  V30 532 H 55.7686 3.22914 2.97696 0
M  V30 533 H 56.3746 3.98516 1.48543 0
M  V30 534 N 54.6897 -0.239769 1.55765 0
M  V30 535 C 55.9147 -0.988373 1.82335 0
M  V30 536 C 56.3397 -1.77886 0.611421 0
M  V30 537 O 55.6977 -1.75889 -0.439639 0
M  V30 538 C 55.7457 -1.89627 3.06715 0
M  V30 539 O 54.8497 -2.98904 2.84131 0
M  V30 540 H 54.1907 -0.280858 0.601677 0
M  V30 541 H 56.7207 -0.258597 2.02959 0
M  V30 542 H 56.7307 -2.30957 3.36338 0
M  V30 543 H 55.4057 -1.31511 3.9456 0
M  V30 544 H 53.9827 -2.61651 2.65694 0
M  V30 545 N 56.1678 -1.49265 -0.50573 0
M  V30 546 C 57.0778 -1.68312 -1.63427 0
M  V30 547 C 58.0938 -0.565682 -1.64548 0
M  V30 548 O 59.2698 -0.839801 -1.83055 0
M  V30 549 C 56.3348 -1.74107 -2.99813 0
M  V30 550 C 55.3958 -2.97653 -3.09356 0
M  V30 551 C 54.6288 -3.03163 -4.39236 0
M  V30 552 O 54.8518 -2.16396 -5.27758 0
M  V30 553 O 53.7858 -3.9558 -4.53652 0
M  V30 554 H 57.6118 -2.63907 -1.50289 0
M  V30 555 H 55.1968 -1.32951 -0.681502 0
M  V30 556 H 57.0788 -1.803 -3.80881 0
M  V30 557 H 55.7538 -0.816901 -3.13223 0
M  V30 558 H 54.6608 -2.96981 -2.27493 0
M  V30 559 H 55.9938 -3.89535 -3.00871 0
M  V30 560 N 57.6459 0.756429 -1.3826 0
M  V30 561 C 58.5939 1.89149 -1.35372 0
M  V30 562 C 59.5879 1.67691 -0.24004 0
M  V30 563 O 60.7939 1.75294 -0.408919 0
M  V30 564 H 57.1689 0.622271 -0.422236 0
M  V30 565 H 59.1399 1.88701 -2.31159 0
M  V30 566 C 57.8889 3.26599 -1.19284 0
M  V30 567 H 57.2119 3.43695 -2.0424 0
M  V30 568 H 58.6519 4.06274 -1.21316 0
M  V30 569 C 57.1109 3.3675 0.100454 0
M  V30 570 O 57.6409 3.86951 1.07851 0
M  V30 571 N 55.8469 2.90179 0.15633 0
M  V30 572 H 55.3939 2.49517 -0.640253 0
M  V30 573 H 55.3519 2.97352 1.02123 0
M  V30 574 N 59.124 1.23083 0.984299 0
M  V30 575 C 60.372 1.05848 1.72165 0
M  V30 576 C 60.693 -0.406049 1.90726 0
M  V30 577 O 59.963 -1.29139 1.47309 0
M  V30 578 H 58.543 0.388685 0.637913 0
M  V30 579 H 61.205 1.54736 1.18503 0
M  V30 580 H 60.301 1.54327 2.71274 0
M  V30 581 N 60.6021 -1.18246 1.0419 0
M  V30 582 C 61.5651 -2.20128 0.638452 0
M  V30 583 C 62.5651 -1.57885 -0.304805 0
M  V30 584 O 63.7551 -1.73967 -0.0900369 0
M  V30 585 C 60.8871 -3.4084 -0.0637751 0
M  V30 586 H 62.0801 -2.57336 1.54007 0
M  V30 587 H 59.6331 -1.32152 0.834598 0
M  V30 588 H 60.3681 -3.09166 -0.979136 0
M  V30 589 H 60.1531 -3.8726 0.614198 0
M  V30 590 H 61.6431 -4.16274 -0.332512 0
M  V30 591 N 62.0802 -0.821533 -1.34494 0
M  V30 592 C 63.0122 -0.199946 -2.28326 0
M  V30 593 C 64.0252 0.609377 -1.50965 0
M  V30 594 O 65.2142 0.439285 -1.7301 0
M  V30 595 C 62.3142 0.738431 -3.30757 0
M  V30 596 C 61.4872 -0.0277632 -4.37391 0
M  V30 597 C 60.5462 0.831332 -5.19591 0
M  V30 598 O 59.5722 0.276822 -5.68526 0
M  V30 599 N 60.7742 2.15132 -5.39165 0
M  V30 600 H 63.5392 -1.00609 -2.82308 0
M  V30 601 H 61.1002 -0.678366 -1.47003 0
M  V30 602 H 63.0922 1.31773 -3.82646 0
M  V30 603 H 61.6622 1.44533 -2.7718 0
M  V30 604 H 60.8822 -0.788359 -3.86236 0
M  V30 605 H 62.1702 -0.555251 -5.05761 0
M  V30 606 H 61.5682 2.62559 -5.01078 0
M  V30 607 H 60.1252 2.6795 -5.94177 0
M  V30 608 N 63.5583 1.46682 -0.576371 0
M  V30 609 C 64.5213 2.28707 0.150239 0
M  V30 610 C 65.5213 1.38035 0.824794 0
M  V30 611 O 66.7113 1.60476 0.677719 0
M  V30 612 C 63.8433 3.18248 1.22192 0
M  V30 613 H 65.0363 2.94423 -0.570521 0
M  V30 614 H 62.5893 1.52688 -0.334078 0
M  V30 615 H 63.3243 2.57265 1.97447 0
M  V30 616 H 63.1093 3.85 0.742812 0
M  V30 617 H 64.5993 3.80001 1.73172 0
M  V30 618 N 65.0364 0.313813 1.54444 0
M  V30 619 C 66.2854 -0.292519 1.99568 0
M  V30 620 C 66.5984 -1.54011 1.20582 0
M  V30 621 O 67.8044 -2.22183 1.56035 0
M  V30 622 C 66.2604 -0.571752 3.55329 0
M  V30 623 C 65.8684 0.658229 4.43138 0
M  V30 624 C 67.6124 -1.13857 4.08946 0
M  V30 625 C 65.5194 0.351439 5.90355 0
M  V30 626 H 64.4494 -0.113079 0.745472 0
M  V30 627 H 67.1004 0.424518 1.78522 0
M  V30 628 H 65.4824 -1.34872 3.72325 0
M  V30 629 H 66.6564 1.43403 4.37918 0
M  V30 630 H 64.9714 1.14458 4.0036 0
M  V30 631 H 67.5684 -1.38257 5.16516 0
M  V30 632 H 67.9114 -2.08489 3.6033 0
M  V30 633 H 68.4444 -0.423015 3.95544 0
M  V30 634 H 65.1834 1.26667 6.43145 0
M  V30 635 H 64.7034 -0.386842 5.98551 0
M  V30 636 H 66.3824 -0.0423134 6.46986 0
M  V30 637 N 66.5145 -1.57545 0.0417849 0
M  V30 638 C 67.7395 -1.97035 -0.647455 0
M  V30 639 C 68.1645 -0.918775 -1.64135 0
M  V30 640 O 67.5225 0.119006 -1.80909 0
M  V30 641 C 67.5705 -3.35609 -1.31905 0
M  V30 642 O 66.6745 -3.3287 -2.43457 0
M  V30 643 H 66.0155 -0.64211 -0.169086 0
M  V30 644 H 68.5455 -2.04318 0.107399 0
M  V30 645 H 68.5555 -3.72126 -1.67291 0
M  V30 646 H 67.2305 -4.11685 -0.590586 0
M  V30 647 H 65.8075 -3.08087 -2.10088 0
M  V30 648 N 67.9926 0.231505 -1.5589 0
M  V30 649 C 69.2696 0.981096 -1.69215 0
M  V30 650 C 69.6496 2.02799 -0.586164 0
M  V30 651 O 68.9976 2.24823 0.408253 0
M  V30 652 C 69.2076 1.60054 -3.10135 0
M  V30 653 C 70.5556 2.09658 -3.69227 0
M  V30 654 O 71.5796 1.69967 -3.13033 0
M  V30 655 O 70.4386 2.8258 -4.67772 0
M  V30 656 H 67.5326 0.457653 -0.688827 0
M  V30 657 H 70.0786 0.224073 -1.68214 0
M  V30 658 H 68.8506 0.844105 -3.82087 0
M  V30 659 H 68.4736 2.42336 -3.15212 0
M  V30 660 N 69.4707 1.49531 0.497807 0
M  V30 661 C 70.7007 1.62657 1.27382 0
M  V30 662 C 71.1087 0.298488 1.86831 0
M  V30 663 O 70.4517 -0.72647 1.68725 0
M  V30 664 C 70.5137 2.6393 2.44093 0
M  V30 665 C 70.1777 4.08195 2.05489 0
M  V30 666 C 71.1747 4.949 1.59279 0
M  V30 667 C 68.8597 4.53948 2.15026 0
M  V30 668 C 70.8537 6.25397 1.23113 0
M  V30 669 C 68.5407 5.84458 1.78473 0
M  V30 670 C 69.5387 6.70006 1.32591 0
M  V30 671 O 69.2267 7.98083 0.965327 0
M  V30 672 H 68.9587 0.550429 0.392434 0
M  V30 673 H 71.5127 1.96325 0.603801 0
M  V30 674 H 69.7427 2.25449 3.14181 0
M  V30 675 H 71.4317 2.66552 3.06113 0
M  V30 676 H 72.1977 4.60779 1.51354 0
M  V30 677 H 68.0767 3.87525 2.4969 0
M  V30 678 H 71.6207 6.92125 0.872299 0
M  V30 679 H 67.5177 6.18107 1.86048 0
M  V30 680 H 68.2857 8.11122 1.09652 0
M  V30 681 N 70.9488 -0.749086 1.3866 0
M  V30 682 C 71.8788 -1.8764 1.38973 0
M  V30 683 C 72.8598 -1.68178 0.255004 0
M  V30 684 O 74.0448 -1.88704 0.458754 0
M  V30 685 C 71.1748 -3.25222 1.21851 0
M  V30 686 C 70.1288 -3.59295 2.32575 0
M  V30 687 C 69.4548 -4.95663 2.00555 0
M  V30 688 C 70.7548 -3.63709 3.7485 0
M  V30 689 H 72.4488 -1.87635 2.3331 0
M  V30 690 H 69.9948 -0.901329 1.12303 0
M  V30 691 H 71.9478 -4.03746 1.20695 0
M  V30 692 H 70.6718 -3.25719 0.239775 0
M  V30 693 H 69.3308 -2.83093 2.32925 0
M  V30 694 H 68.9788 -4.92724 1.01154 0
M  V30 695 H 68.6788 -5.19429 2.74714 0
M  V30 696 H 70.2028 -5.7656 2.01024 0
M  V30 697 H 71.6168 -4.32338 3.76506 0
M  V30 698 H 70.0138 -3.98986 4.48252 0
M  V30 699 H 71.0838 -2.63834 4.06841 0
M  V30 700 N 72.4269 -1.23603 -0.977757 0
M  V30 701 C 73.6749 -1.06759 -1.71601 0
M  V30 702 C 73.9959 0.395929 -1.90938 0
M  V30 703 O 73.2659 1.28356 -1.47992 0
M  V30 704 H 71.8459 -0.392062 -0.635843 0
M  V30 705 H 74.5079 -1.55362 -1.1768 0
M  V30 706 H 73.6039 -1.55763 -2.70452 0
M  V30 707 N 73.905 1.17692 -1.04816 0
M  V30 708 C 74.868 2.19787 -0.650117 0
M  V30 709 C 75.868 1.58044 0.296427 0
M  V30 710 O 77.058 1.74012 0.0808097 0
M  V30 711 C 74.19 3.40869 0.0456987 0
M  V30 712 H 75.383 2.56516 -1.5537 0
M  V30 713 H 72.936 1.31708 -0.841594 0
M  V30 714 H 73.671 3.09681 0.962726 0
M  V30 715 H 73.456 3.86928 -0.634727 0
M  V30 716 H 74.946 4.16445 0.310432 0
M  V30 717 N 75.3831 0.828654 1.34056 0
M  V30 718 C 76.3311 0.242973 2.31327 0
M  V30 719 C 77.3251 -0.61944 1.57668 0
M  V30 720 O 78.5311 -0.51014 1.7262 0
M  V30 721 H 74.9061 0.059834 0.749616 0
M  V30 722 H 76.8771 1.07809 2.78244 0
M  V30 723 C 75.6261 -0.575733 3.429 0
M  V30 724 H 74.9491 0.0785582 3.99723 0
M  V30 725 H 76.3891 -0.951547 4.13185 0
M  V30 726 C 74.8481 -1.75044 2.87856 0
M  V30 727 O 75.3781 -2.84882 2.83205 0
M  V30 728 N 73.5841 -1.56903 2.44602 0
M  V30 729 H 73.1311 -0.675547 2.48584 0
M  V30 730 H 73.0891 -2.35652 2.08124 0
M  V30 731 N 76.8612 -1.46375 0.584142 0
M  V30 732 C 78.1092 -2.01978 0.0701287 0
M  V30 733 C 78.4302 -1.4579 -1.295 0
M  V30 734 O 77.7002 -0.64314 -1.85042 0
M  V30 735 H 76.2802 -0.746648 0.0229345 0
M  V30 736 H 78.9422 -1.79461 0.760245 0
M  V30 737 H 78.0382 -3.121 0.0022064 0
M  V30 738 N 78.3393 -0.321999 -1.54275 0
M  V30 739 C 79.2863 0.544664 -2.24281 0
M  V30 740 C 80.2563 1.1129 -1.23303 0
M  V30 741 O 81.4413 1.15354 -1.51981 0
M  V30 742 C 78.5813 1.70045 -3.00298 0
M  V30 743 C 77.6943 1.16159 -4.1609 0
M  V30 744 C 76.8293 2.28293 -4.79641 0
M  V30 745 C 75.8683 1.71648 -5.8754 0
M  V30 746 N 75.0053 2.77438 -6.44959 0
M  V30 747 H 79.8453 -0.0588907 -2.97942 0
M  V30 748 H 77.3823 -0.0408345 -1.47043 0
M  V30 749 H 79.3403 2.38054 -3.42616 0
M  V30 750 H 77.9703 2.27531 -2.28975 0
M  V30 751 H 77.0223 0.373092 -3.78566 0
M  V30 752 H 78.3343 0.707087 -4.93763 0
M  V30 753 H 77.4883 3.0421 -5.2492 0
M  V30 754 H 76.2273 2.77079 -4.01346 0
M  V30 755 H 75.2323 0.942282 -5.41665 0
M  V30 756 H 76.4573 1.23741 -6.67731 0
M  V30 757 H 74.4033 3.25519 -5.69538 0
M  V30 758 H 74.3203 2.36547 -7.1804 0
M  V30 759 H 75.5883 3.53189 -6.94894 0
M  V30 760 N 79.8174 1.5752 -0.0501392 0
M  V30 761 C 81.0654 1.9227 0.622642 0
M  V30 762 C 81.3864 0.929083 1.71444 0
M  V30 763 O 80.6564 -0.0262186 1.95882 0
M  V30 764 H 79.2364 0.709739 0.232981 0
M  V30 765 H 81.8984 1.94628 -0.102898 0
M  V30 766 H 80.9944 2.93479 1.06191 0
M  V30 767 N 81.2955 -0.223234 1.56011 0
M  V30 768 C 82.2255 -1.27988 1.95298 0
M  V30 769 C 83.2065 -1.48976 0.820979 0
M  V30 770 O 84.3915 -1.61188 1.08315 0
M  V30 771 C 81.5215 -2.63 2.26822 0
M  V30 772 C 80.4755 -2.56671 3.42497 0
M  V30 773 C 79.8015 -3.95697 3.59622 0
M  V30 774 C 81.1015 -2.11601 4.77517 0
M  V30 775 H 82.7955 -0.953525 2.8381 0
M  V30 776 H 80.3415 -0.457244 1.36548 0
M  V30 777 H 82.2945 -3.37077 2.52898 0
M  V30 778 H 81.0185 -2.9732 1.35161 0
M  V30 779 H 79.6775 -1.85051 3.16467 0
M  V30 780 H 79.3255 -4.27322 2.6534 0
M  V30 781 H 79.0255 -3.92345 4.37424 0
M  V30 782 H 80.5495 -4.71438 3.88044 0
M  V30 783 H 81.9635 -2.7542 5.02809 0
M  V30 784 H 80.3605 -2.19311 5.5859 0
M  V30 785 H 81.4305 -1.06824 4.72987 0
M  V30 786 N 82.7736 -1.49793 -0.48987 0
M  V30 787 C 83.7066 -1.61898 -1.60823 0
M  V30 788 C 84.6846 -0.467651 -1.5573 0
M  V30 789 O 85.8686 -0.684682 -1.75626 0
M  V30 790 C 82.9956 -1.58422 -2.99366 0
M  V30 791 C 82.0416 -2.78889 -3.22682 0
M  V30 792 S 82.8746 -4.40429 -3.04602 0
M  V30 793 C 84.0306 -4.39617 -4.4552 0
M  V30 794 H 84.2636 -2.56502 -1.50312 0
M  V30 795 H 81.7966 -1.38822 -0.675849 0
M  V30 796 H 83.7546 -1.57103 -3.79248 0
M  V30 797 H 82.4156 -0.650866 -3.07283 0
M  V30 798 H 81.6086 -2.72708 -4.23847 0
M  V30 799 H 81.2106 -2.77678 -2.50541 0
M  V30 800 H 83.5026 -4.12022 -5.37814 0
M  V30 801 H 84.4456 -5.41097 -4.56749 0
M  V30 802 H 84.8536 -3.69554 -4.2672 0
M  V30 803 N 84.2517 0.741722 -1.39055 0
M  V30 804 C 85.1817 1.869 -1.39966 0
M  V30 805 C 86.1627 1.6804 -0.26392 0
M  V30 806 O 87.3477 1.88458 -0.468755 0
M  V30 807 C 84.4777 3.24572 -1.23574 0
M  V30 808 C 83.4317 3.58056 -2.34477 0
M  V30 809 C 82.7577 4.94593 -2.0318 0
M  V30 810 C 84.0577 3.61716 -3.76774 0
M  V30 811 H 85.7517 1.86395 -2.34302 0
M  V30 812 H 83.2977 0.895361 -1.1278 0
M  V30 813 H 85.2507 4.031 -1.22834 0
M  V30 814 H 83.9747 3.25587 -0.257045 0
M  V30 815 H 82.6337 2.81854 -2.34423 0
M  V30 816 H 82.2817 4.92181 -1.03765 0
M  V30 817 H 81.9817 5.17964 -2.77465 0
M  V30 818 H 83.5057 5.75486 -2.04079 0
M  V30 819 H 84.9197 4.30335 -3.78794 0
M  V30 820 H 83.3167 3.96603 -4.50362 0
M  V30 821 H 84.3867 2.61672 -4.08235 0
M  V30 822 N 85.7298 1.2412 0.971189 0
M  V30 823 C 86.6778 1.02812 2.08644 0
M  V30 824 C 87.6718 -0.0358403 1.69362 0
M  V30 825 O 88.8778 0.118429 1.7961 0
M  V30 826 H 85.2528 0.315428 0.682649 0
M  V30 827 H 87.2238 1.97397 2.23779 0
M  V30 828 C 85.9728 0.645874 3.41649 0
M  V30 829 H 85.2958 1.45632 3.72332 0
M  V30 830 H 86.7358 0.536366 4.20594 0
M  V30 831 C 85.1948 -0.646713 3.30635 0
M  V30 832 O 85.7248 -1.69338 3.64263 0
M  V30 833 N 83.9308 -0.626115 2.83775 0
M  V30 834 H 83.4778 0.225988 2.56607 0
M  V30 835 H 83.4358 -1.49117 2.76788 0
M  V30 836 N 87.2079 -1.17134 1.05439 0
M  V30 837 C 88.4539 -1.87733 0.767077 0
M  V30 838 C 88.7869 -1.8098 -0.704253 0
M  V30 839 O 88.0619 -1.21951 -1.5152 0
M  V30 840 C 88.3449 -3.37659 1.25133 0
M  V30 841 C 88.1979 -3.53149 2.78578 0
M  V30 842 C 89.5169 -4.31768 0.852324 0
M  V30 843 H 86.6359 -0.681687 0.280129 0
M  V30 844 H 89.2779 -1.37732 1.30881 0
M  V30 845 H 87.4279 -3.80373 0.790469 0
M  V30 846 H 89.0999 -3.19434 3.32806 0
M  V30 847 H 87.3429 -2.95345 3.17732 0
M  V30 848 H 88.0139 -4.58403 3.07523 0
M  V30 849 H 90.4899 -3.96909 1.24911 0
M  V30 850 H 89.3659 -5.35199 1.21873 0
M  V30 851 H 89.6269 -4.41429 -0.243485 0
M  V30 852 N 88.686 -0.835752 -1.33615 0
M  V30 853 C 89.914 -0.443344 -2.02094 0
M  V30 854 C 90.329 0.954522 -1.62894 0
M  V30 855 O 89.686 1.61982 -0.840723 0
M  V30 856 C 89.737 -0.550775 -3.5728 0
M  V30 857 O 89.458 -1.89356 -3.95065 0
M  V30 858 C 90.959 -0.154919 -4.43029 0
M  V30 859 H 88.179 -0.176359 -0.647409 0
M  V30 860 H 90.723 -1.12746 -1.70612 0
M  V30 861 H 88.878 0.0853997 -3.87306 0
M  V30 862 H 89.292 -1.87687 -4.89769 0
M  V30 863 H 90.766 -0.281144 -5.51284 0
M  V30 864 H 91.243 0.902863 -4.2982 0
M  V30 865 H 91.849 -0.765404 -4.18356 0
M  V30 866 N 90.1641 1.46063 -0.591896 0
M  V30 867 C 91.4411 1.95595 -0.0137119 0
M  V30 868 C 91.8211 1.5345 1.4497 0
M  V30 869 O 91.1691 0.789543 2.14426 0
M  V30 870 C 91.3791 3.48453 -0.195373 0
M  V30 871 C 92.7271 4.24546 -0.0679765 0
M  V30 872 O 93.7511 3.55982 -0.124681 0
M  V30 873 O 92.6101 5.46467 0.0600579 0
M  V30 874 H 89.7041 0.825795 0.0446279 0
M  V30 875 H 92.2501 1.56303 -0.660859 0
M  V30 876 H 91.0221 3.72045 -1.21235 0
M  V30 877 H 90.6451 3.94597 0.487775 0
M  V30 878 N 91.6422 0.330177 1.54103 0
M  V30 879 C 93.0532 -0.15652 1.86043 0
M  V30 880 C 93.4042 -1.51086 1.2517 0
M  V30 881 O 92.5292 -2.09023 0.560217 0
M  V30 882 C 93.1242 -0.290784 3.3755 0
M  V30 883 C 91.6832 -0.721705 3.69416 0
M  V30 884 C 90.8302 0.152622 2.7688 0
M  V30 885 H 93.7812 0.550237 1.48856 0
M  V30 886 H 93.8022 -1.12058 3.63625 0
M  V30 887 H 93.3142 0.695068 3.81825 0
M  V30 888 H 91.4152 -1.71706 3.30678 0
M  V30 889 H 91.5282 -0.520869 4.7626 0
M  V30 890 H 89.8922 -0.372894 2.51956 0
M  V30 891 H 90.6752 1.13536 3.23982 0
M  V30 892 N 93.1203 -1.57491 0.0584922 0
M  V30 893 C 94.0833 -2.1085 -0.898617 0
M  V30 894 C 95.0833 -1.02964 -1.23511 0
M  V30 895 O 96.2733 -1.29007 -1.17059 0
M  V30 896 C 93.4053 -2.59881 -2.20623 0
M  V30 897 H 94.5983 -2.96715 -0.435936 0
M  V30 898 H 92.1513 -1.55141 -0.190023 0
M  V30 899 H 92.8863 -1.77431 -2.71457 0
M  V30 900 H 92.6713 -3.38727 -1.97501 0
M  V30 901 H 94.1613 -3.01285 -2.89166 0
M  V30 902 N 94.5984 0.214957 -1.56127 0
M  V30 903 C 95.8234 0.95924 -1.83884 0
M  V30 904 C 96.2484 1.7689 -0.639644 0
M  V30 905 O 95.6064 1.76566 0.411601 0
M  V30 906 C 95.6544 1.84723 -3.09693 0
M  V30 907 O 94.7584 2.94346 -2.8885 0
M  V30 908 H 94.0994 0.27125 -0.606069 0
M  V30 909 H 96.6294 0.226276 -2.03345 0
M  V30 910 H 96.6394 2.25576 -3.39969 0
M  V30 911 H 95.3144 1.25218 -3.96602 0
M  V30 912 H 93.8914 2.57391 -2.69823 0
M  V30 913 N 96.0765 1.50051 0.48192 0
M  V30 914 C 97.3255 1.59741 1.23149 0
M  V30 915 C 97.6385 0.298163 1.93314 0
M  V30 916 O 98.8445 0.273835 2.70116 0
M  V30 917 C 97.3005 2.81926 2.23708 0
M  V30 918 C 96.9085 4.18685 1.59396 0
M  V30 919 C 98.6525 3.00956 2.99375 0
M  V30 920 C 96.5595 5.3207 2.58178 0
M  V30 921 H 95.4895 0.594838 0.46334 0
M  V30 922 H 98.1405 1.76467 0.503169 0
M  V30 923 H 96.5225 2.58736 2.99786 0
M  V30 924 H 97.6965 4.52088 0.891811 0
M  V30 925 H 96.0115 4.05171 0.960503 0
M  V30 926 H 98.6085 3.82836 3.73283 0
M  V30 927 H 98.9515 2.12258 3.58123 0
M  V30 928 H 99.4845 3.24277 2.30411 0
M  V30 929 H 96.2235 6.22888 2.04184 0
M  V30 930 H 95.7435 5.03098 3.26577 0
M  V30 931 H 97.4225 5.62196 3.20225 0
M  V30 932 N 97.5546 -0.734337 1.39446 0
M  V30 933 C 98.4646 -1.87879 1.40495 0
M  V30 934 C 99.4806 -1.714 0.299672 0
M  V30 935 O 100.657 -1.93991 0.541249 0
M  V30 936 C 97.7216 -3.23477 1.24754 0
M  V30 937 C 96.7826 -3.52344 2.45259 0
M  V30 938 C 96.0156 -4.81473 2.30259 0
M  V30 939 O 96.2386 -5.55237 1.30643 0
M  V30 940 O 95.1726 -5.10254 3.19256 0
M  V30 941 H 98.9986 -1.89949 2.36966 0
M  V30 942 H 96.5836 -0.882243 1.20569 0
M  V30 943 H 98.4656 -4.04509 1.18111 0
M  V30 944 H 97.1406 -3.22176 0.313781 0
M  V30 945 H 96.0476 -2.71396 2.57478 0
M  V30 946 H 97.3806 -3.58426 3.37331 0
M  V30 947 N 99.0327 -1.24633 -0.964593 0
M  V30 948 C 100.258 -1.11596 -1.74818 0
M  V30 949 C 100.683 0.32723 -1.85232 0
M  V30 950 O 100.041 1.23695 -1.32549 0
M  V30 951 C 100.089 -1.76397 -3.1451 0
M  V30 952 O 99.1927 -1.03685 -3.99153 0
M  V30 953 H 98.5337 -0.390196 -0.537255 0
M  V30 954 H 101.064 -1.65002 -1.20977 0
M  V30 955 H 101.074 -1.8228 -3.65018 0
M  V30 956 H 99.7487 -2.81401 -3.06246 0
M  V30 957 H 98.3257 -1.05611 -3.57632 0
M  V30 958 N 100.511 1.16574 -1.06058 0
M  V30 959 C 101.757 1.87324 -0.777022 0
M  V30 960 C 102.09 1.81351 0.694645 0
M  V30 961 O 101.365 1.22753 1.50871 0
M  V30 962 C 101.648 3.36991 -1.26922 0
M  V30 963 C 101.501 3.51667 -2.80447 0
M  V30 964 C 102.82 4.3131 -0.87521 0
M  V30 965 H 99.9388 0.680191 -0.28374 0
M  V30 966 H 102.581 1.37036 -1.3161 0
M  V30 967 H 100.731 3.79949 -0.81063 0
M  V30 968 H 102.403 3.17664 -3.34495 0
M  V30 969 H 100.646 2.93656 -3.19294 0
M  V30 970 H 101.317 4.56766 -3.0995 0
M  V30 971 H 103.793 3.9624 -1.27014 0
M  V30 972 H 102.669 5.34545 -1.2471 0
M  V30 973 H 102.93 4.41552 0.220071 0
M  V30 974 N 101.989 0.842826 1.3317 0
M  V30 975 C 102.919 0.294028 2.31641 0
M  V30 976 C 103.9 -0.600401 1.59151 0
M  V30 977 O 105.085 -0.523124 1.87022 0
M  V30 978 C 102.215 -0.528416 3.43257 0
M  V30 979 C 101.169 0.27056 4.27144 0
M  V30 980 C 100.495 -0.675881 5.30411 0
M  V30 981 C 101.795 1.48981 5.00602 0
M  V30 982 H 103.489 1.11681 2.77791 0
M  V30 983 H 101.035 0.538478 1.33553 0
M  V30 984 H 102.988 -0.922674 4.11175 0
M  V30 985 H 101.712 -1.38445 2.95805 0
M  V30 986 H 100.371 0.646427 3.60856 0
M  V30 987 H 100.019 -1.52842 4.79216 0
M  V30 988 H 99.7189 -0.145374 5.8742 0
M  V30 989 H 101.243 -1.06757 6.01195 0
M  V30 990 H 102.657 1.16849 5.61266 0
M  V30 991 H 101.054 1.95739 5.6728 0
M  V30 992 H 102.124 2.25746 4.29147 0
M  V30 993 N 103.467 -1.45747 0.599634 0
M  V30 994 C 104.377 -2.34262 -0.125888 0
M  V30 995 C 105.393 -1.50768 -0.868625 0
M  V30 996 O 106.569 -1.83592 -0.828003 0
M  V30 997 C 103.634 -3.28252 -1.11587 0
M  V30 998 C 102.695 -4.27651 -0.375956 0
M  V30 999 C 101.928 -5.1715 -1.31877 0
M  V30 1000 O 102.151 -5.09916 -2.55621 0
M  V30 1001 O 101.085 -5.96286 -0.820157 0
M  V30 1002 H 104.911 -2.97688 0.601315 0
M  V30 1003 H 102.496 -1.44999 0.359934 0
M  V30 1004 H 104.378 -3.86191 -1.68626 0
M  V30 1005 H 103.053 -2.67401 -1.82424 0
M  V30 1006 H 101.96 -3.7335 0.236698 0
M  V30 1007 H 103.293 -4.91334 0.29177 0
M  V30 1008 N 104.945 -0.338344 -1.53925 0
M  V30 1009 C 105.892 0.520845 -2.24846 0
M  V30 1010 C 106.862 1.09976 -1.24477 0
M  V30 1011 O 108.047 1.13735 -1.53196 0
M  V30 1012 C 105.187 1.6685 -3.02084 0
M  V30 1013 C 104.3 1.11739 -4.17299 0
M  V30 1014 C 103.435 2.23193 -4.82036 0
M  V30 1015 C 102.474 1.65407 -5.89328 0
M  V30 1016 N 101.611 2.70582 -6.47866 0
M  V30 1017 H 106.451 -0.0904881 -2.97863 0
M  V30 1018 H 103.988 -0.0564282 -1.46992 0
M  V30 1019 H 105.946 2.34407 -3.45122 0
M  V30 1020 H 104.576 2.2509 -2.31375 0
M  V30 1021 H 103.628 0.332919 -3.7894 0
M  V30 1022 H 104.94 0.654677 -4.94485 0
M  V30 1023 H 104.094 2.98626 -5.28117 0
M  V30 1024 H 102.833 2.72807 -4.04262 0
M  V30 1025 H 101.838 0.884779 -5.42634 0
M  V30 1026 H 103.063 1.16652 -6.69006 0
M  V30 1027 H 101.009 3.1946 -5.72959 0
M  V30 1028 H 100.926 2.28917 -7.20509 0
M  V30 1029 H 102.194 3.45799 -6.98601 0
M  V30 1030 N 106.423 1.57458 -0.0668435 0
M  V30 1031 C 107.672 1.92477 0.602947 0
M  V30 1032 C 107.985 0.948419 1.71068 0
M  V30 1033 O 109.191 1.19124 2.43971 0
M  V30 1034 C 107.647 3.41903 1.12383 0
M  V30 1035 C 107.255 4.47975 0.04737 0
M  V30 1036 C 108.999 3.85931 1.76797 0
M  V30 1037 C 106.906 5.88529 0.582022 0
M  V30 1038 H 105.836 0.718387 0.22899 0
M  V30 1039 H 108.487 1.82978 -0.138276 0
M  V30 1040 H 106.869 3.46459 1.91787 0
M  V30 1041 H 108.043 4.55029 -0.726978 0
M  V30 1042 H 106.358 4.13384 -0.500243 0
M  V30 1043 H 108.955 4.88322 2.17821 0
M  V30 1044 H 109.298 3.23029 2.62599 0
M  V30 1045 H 109.831 3.83958 1.04024 0
M  V30 1046 H 106.57 6.55065 -0.238721 0
M  V30 1047 H 106.09 5.85004 1.324 0
M  V30 1048 H 107.769 6.38258 1.05999 0
M  V30 1049 N 107.901 -0.206675 1.56239 0
M  V30 1050 C 109.317 -0.557025 1.49564 0
M  V30 1051 C 109.517 -1.86424 0.764735 0
M  V30 1052 O 108.573 -2.50584 0.310491 0
M  V30 1053 C 109.886 -0.622478 2.94186 0
M  V30 1054 C 111.434 -0.712099 3.04792 0
M  V30 1055 C 111.909 -0.808767 4.50803 0
M  V30 1056 N 113.4 -0.8726 4.54907 0
M  V30 1057 C 114.135 -0.967365 5.65181 0
M  V30 1058 N 113.631 -1.02515 6.85173 0
M  V30 1059 N 115.424 -1.00366 5.53067 0
M  V30 1060 H 107.575 0.650943 2.02179 0
M  V30 1061 H 109.838 0.230387 0.919579 0
M  V30 1062 H 109.544 0.268727 3.50672 0
M  V30 1063 H 109.418 -1.4811 3.46905 0
M  V30 1064 H 111.805 -1.59374 2.48363 0
M  V30 1065 H 111.886 0.172489 2.55218 0
M  V30 1066 H 111.53 0.0684754 5.07854 0
M  V30 1067 H 111.46 -1.70899 4.98098 0
M  V30 1068 H 113.951 -0.837657 3.68499 0
M  V30 1069 H 114.264 -1.09765 7.64965 0
M  V30 1070 H 112.609 -0.994026 6.87855 0
M  V30 1071 H 115.8 -0.95527 4.58249 0
M  V30 1072 H 115.973 -1.07405 6.39037 0
M  V30 1073 N 109.379 -1.50304 -0.473955 0
M  V30 1074 C 110.342 -1.6841 -1.55469 0
M  V30 1075 C 111.342 -0.554905 -1.50922 0
M  V30 1076 O 112.532 -0.821882 -1.53593 0
M  V30 1077 C 109.664 -1.70667 -2.95102 0
M  V30 1078 H 110.857 -2.64828 -1.40733 0
M  V30 1079 H 108.41 -1.39742 -0.700132 0
M  V30 1080 H 109.145 -0.75932 -3.15285 0
M  V30 1081 H 108.93 -2.52698 -2.9981 0
M  V30 1082 H 110.42 -1.8664 -3.73571 0
M  V30 1083 N 110.857 0.726932 -1.39834 0
M  V30 1084 C 111.767 1.87131 -1.41489 0
M  V30 1085 C 112.783 1.71239 -0.308757 0
M  V30 1086 O 113.959 1.93701 -0.551529 0
M  V30 1087 C 111.024 3.22811 -1.26468 0
M  V30 1088 C 110.085 3.51039 -2.47124 0
M  V30 1089 C 109.318 4.80245 -2.3281 0
M  V30 1090 O 109.541 5.54537 -1.33585 0
M  V30 1091 O 108.475 5.08554 -3.21957 0
M  V30 1092 H 112.301 1.8869 -2.3797 0
M  V30 1093 H 109.886 0.875837 -1.21035 0
M  V30 1094 H 111.768 4.03877 -1.20255 0
M  V30 1095 H 110.443 3.22005 -0.330862 0
M  V30 1096 H 109.35 2.70027 -2.58914 0
M  V30 1097 H 110.683 3.56632 -3.39227 0
M  V30 1098 N 112.336 1.25143 0.95797 0
M  V30 1099 C 113.583 1.09692 1.70217 0
M  V30 1100 C 113.911 -0.362654 1.91089 0
M  V30 1101 O 113.166 -1.28386 1.47701 0
M  V30 1102 C 113.465 1.79272 3.09187 0
M  V30 1103 C 113.131 3.29196 3.08125 0
M  V30 1104 C 111.793 3.70096 3.07543 0
M  V30 1105 C 114.145 4.24995 3.0171 0
M  V30 1106 C 111.473 5.05213 2.9829 0
M  V30 1107 C 113.825 5.60132 2.93999 0
M  V30 1108 C 112.489 6.00365 2.9175 0
M  V30 1109 H 111.759 0.401393 0.622868 0
M  V30 1110 H 114.406 1.55372 1.11945 0
M  V30 1111 H 112.711 1.26014 3.70982 0
M  V30 1112 H 114.408 1.64773 3.65583 0
M  V30 1113 H 110.998 2.96651 3.09348 0
M  V30 1114 H 115.182 3.9439 3.01281 0
M  V30 1115 H 110.438 5.35569 2.94916 0
M  V30 1116 H 114.612 6.3406 2.87996 0
M  V30 1117 H 112.239 7.05023 2.84336 0
M  V30 1118 N 113.814 -1.1601 1.06675 0
M  V30 1119 C 115.062 -1.86264 0.784229 0
M  V30 1120 C 115.383 -1.82328 -0.691488 0
M  V30 1121 O 114.653 -1.25947 -1.50047 0
M  V30 1122 H 113.233 -0.689621 0.28711 0
M  V30 1123 H 115.895 -1.40664 1.34906 0
M  V30 1124 H 114.991 -2.91595 1.11259 0
M  V30 1125 N 115.292 -0.849877 -1.32721 0
M  V30 1126 C 116.202 -0.293791 -2.32753 0
M  V30 1127 C 117.218 0.585906 -1.63839 0
M  V30 1128 O 118.394 0.487413 -1.95413 0
M  V30 1129 C 115.459 0.512752 -3.42887 0
M  V30 1130 C 114.52 -0.39252 -4.27502 0
M  V30 1131 C 113.753 0.375625 -5.32377 0
M  V30 1132 O 113.976 1.60613 -5.4732 0
M  V30 1133 O 112.91 -0.256094 -6.01355 0
M  V30 1134 H 116.736 -1.12242 -2.82197 0
M  V30 1135 H 114.321 -0.612685 -1.36259 0
M  V30 1136 H 116.203 0.970704 -4.10067 0
M  V30 1137 H 114.878 1.31826 -2.95641 0
M  V30 1138 H 113.785 -0.898547 -3.63149 0
M  V30 1139 H 115.118 -1.16309 -4.7826 0
M  V30 1140 N 116.77 1.45427 -0.607355 0
M  V30 1141 C 118.016 2.0254 -0.102607 0
M  V30 1142 C 118.349 1.47478 1.26348 0
M  V30 1143 O 117.624 0.64939 1.83339 0
M  V30 1144 C 117.907 3.60044 -0.0634347 0
M  V30 1145 C 117.76 4.2544 -1.46017 0
M  V30 1146 C 119.079 4.35646 0.624514 0
M  V30 1147 H 116.198 0.73598 -0.0387607 0
M  V30 1148 H 118.84 1.73284 -0.779282 0
M  V30 1149 H 116.99 3.85101 0.512808 0
M  V30 1150 H 118.662 4.11569 -2.08347 0
M  V30 1151 H 116.905 3.83849 -2.02094 0
M  V30 1152 H 117.576 5.34342 -1.385 0
M  V30 1153 H 120.052 4.15882 0.134723 0
M  V30 1154 H 118.928 5.45376 0.621028 0
M  V30 1155 H 119.189 4.08501 1.69055 0
M  V30 1156 N 118.248 0.346503 1.53744 0
M  V30 1157 C 119.525 -0.304532 1.93215 0
M  V30 1158 C 119.905 -1.67993 1.27834 0
M  V30 1159 O 119.253 -2.24411 0.430352 0
M  V30 1160 C 119.463 -0.373852 3.46992 0
M  V30 1161 C 120.811 -0.62329 4.2 0
M  V30 1162 O 121.835 -0.455847 3.53271 0
M  V30 1163 O 120.694 -0.947879 5.38217 0
M  V30 1164 H 117.788 -0.178318 0.807547 0
M  V30 1165 H 120.334 0.397895 1.64969 0
M  V30 1166 H 119.106 0.591224 3.86808 0
M  V30 1167 H 118.729 -1.12294 3.81413 0
M  V30 1168 N 119.726 -1.57421 0.075193 0
M  V30 1169 C 120.975 -1.92794 -0.592731 0
M  V30 1170 C 121.288 -0.957478 -1.70563 0
M  V30 1171 O 122.494 -1.20417 -2.43335 0
M  V30 1172 C 120.95 -3.42495 -1.10569 0
M  V30 1173 C 120.558 -4.47994 -0.0236121 0
M  V30 1174 C 122.302 -3.86864 -1.74748 0
M  V30 1175 C 120.209 -5.88829 -0.550803 0
M  V30 1176 H 119.139 -0.719591 -0.225177 0
M  V30 1177 H 121.79 -1.82902 0.147978 0
M  V30 1178 H 120.172 -3.47471 -1.89947 0
M  V30 1179 H 121.346 -4.54637 0.751099 0
M  V30 1180 H 119.661 -4.13113 0.522159 0
M  V30 1181 H 122.258 -4.8947 -2.15229 0
M  V30 1182 H 122.601 -3.24417 -2.60882 0
M  V30 1183 H 123.134 -3.84504 -1.01986 0
M  V30 1184 H 119.873 -6.54929 0.273457 0
M  V30 1185 H 119.393 -5.85698 -1.29296 0
M  V30 1186 H 121.072 -6.38811 -1.02613 0
M  V30 1187 N 121.204 0.198386 -1.56346 0
M  V30 1188 C 122.134 1.24865 -1.9731 0
M  V30 1189 C 123.115 1.47651 -0.844576 0
M  V30 1190 O 124.3 1.59444 -1.10866 0
M  V30 1191 C 121.43 2.59358 -2.30977 0
M  V30 1192 C 120.384 2.5119 -3.46537 0
M  V30 1193 C 119.71 3.89926 -3.65871 0
M  V30 1194 C 121.01 2.03977 -4.80823 0
M  V30 1195 H 122.704 0.908252 -2.85291 0
M  V30 1196 H 120.25 0.435462 -1.37258 0
M  V30 1197 H 122.203 3.33011 -2.58228 0
M  V30 1198 H 120.927 2.95132 -1.39874 0
M  V30 1199 H 119.586 1.79993 -3.19371 0
M  V30 1200 H 119.234 4.23046 -2.72105 0
M  V30 1201 H 118.934 3.85336 -4.4361 0
M  V30 1202 H 120.458 4.65205 -3.95495 0
M  V30 1203 H 121.872 2.67386 -5.07127 0
M  V30 1204 H 120.269 2.10397 -5.62008 0
M  V30 1205 H 121.339 0.992861 -4.74626 0
M  V30 1206 N 122.682 1.50554 0.465978 0
M  V30 1207 C 123.928 1.62038 1.21949 0
M  V30 1208 C 124.261 0.322116 1.9151 0
M  V30 1209 O 123.536 -0.676723 1.82348 0
M  V30 1210 C 123.819 2.80421 2.25912 0
M  V30 1211 C 123.672 4.20144 1.60622 0
M  V30 1212 C 124.991 2.94354 3.27176 0
M  V30 1213 H 122.11 0.589752 0.441998 0
M  V30 1214 H 124.752 1.82956 0.51257 0
M  V30 1215 H 122.902 2.62717 2.86203 0
M  V30 1216 H 124.574 4.49449 1.03889 0
M  V30 1217 H 122.817 4.24165 0.909211 0
M  V30 1218 H 123.488 4.98914 2.36196 0
M  V30 1219 H 125.964 3.10578 2.76913 0
M  V30 1220 H 124.84 3.788 3.97242 0
M  V30 1221 H 125.101 2.05186 3.916 0
M  V30 1222 N 124.16 -0.719506 1.40217 0
M  V30 1223 C 125.108 -1.85493 1.40339 0
M  V30 1224 C 126.102 -1.66995 0.284415 0
M  V30 1225 O 127.308 -1.74148 0.455252 0
M  V30 1226 H 123.683 -0.610857 0.438586 0
M  V30 1227 H 125.654 -1.82506 2.36081 0
M  V30 1228 C 124.403 -3.23321 1.27901 0
M  V30 1229 H 123.726 -3.38159 2.1328 0
M  V30 1230 H 125.166 -4.02914 1.32045 0
M  V30 1231 C 123.625 -3.36898 -0.0111355 0
M  V30 1232 O 124.155 -3.89674 -0.975538 0
M  V30 1233 N 122.361 -2.90492 -0.0793393 0
M  V30 1234 H 121.908 -2.47731 0.706183 0
M  V30 1235 H 121.866 -2.99955 -0.942038 0
M  V30 1236 N 125.638 -1.25649 -0.95132 0
M  V30 1237 C 126.586 -1.06118 -2.06982 0
M  V30 1238 C 127.58 0.00889169 -1.69398 0
M  V30 1239 O 128.786 -0.146988 -1.79399 0
M  V30 1240 H 125.161 -0.326248 -0.677544 0
M  V30 1241 H 127.132 -2.00932 -2.2061 0
M  V30 1242 C 125.881 -0.700145 -3.40578 0
M  V30 1243 H 125.204 -1.51537 -3.69968 0
M  V30 1244 H 126.644 -0.603211 -4.19687 0
M  V30 1245 C 125.103 0.59403 -3.31622 0
M  V30 1246 O 125.633 1.63522 -3.66911 0
M  V30 1247 N 123.839 0.58089 -2.84735 0
M  V30 1248 H 123.386 -0.266783 -2.56215 0
M  V30 1249 H 123.344 1.44695 -2.79125 0
M  V30 1250 N 127.117 1.15442 -1.07289 0
M  V30 1251 C 128.08 2.18358 -0.696591 0
M  V30 1252 C 129.08 1.58637 0.262837 0
M  V30 1253 O 130.27 1.74145 0.0438809 0
M  V30 1254 C 127.402 3.4089 -0.0266151 0
M  V30 1255 H 128.595 2.53162 -1.60776 0
M  V30 1256 H 126.148 1.29893 -0.869342 0
M  V30 1257 H 126.883 3.11653 0.896822 0
M  V30 1258 H 126.668 3.85495 -0.716657 0
M  V30 1259 H 128.158 4.17009 0.222028 0
M  V30 1260 N 128.595 0.856903 1.32268 0
M  V30 1261 C 129.843 0.460474 1.96784 0
M  V30 1262 C 130.164 -0.987701 1.68135 0
M  V30 1263 O 129.434 -1.69058 0.989765 0
M  V30 1264 H 128.014 0.167289 0.728027 0
M  V30 1265 H 130.676 1.09383 1.61312 0
M  V30 1266 H 129.772 0.60739 3.06133 0
M  V30 1267 N 130.073 -1.45103 0.615059 0
M  V30 1268 C 131.322 -2.01396 0.110718 0
M  V30 1269 C 131.635 -1.48834 -1.26916 0
M  V30 1270 O 132.841 -1.97152 -1.86664 0
M  V30 1271 C 131.297 -3.59599 0.14723 0
M  V30 1272 C 130.905 -4.21158 1.52743 0
M  V30 1273 C 132.649 -4.23428 -0.30148 0
M  V30 1274 C 130.556 -5.71535 1.51992 0
M  V30 1275 H 129.486 -0.753061 0.0376241 0
M  V30 1276 H 132.137 -1.66494 0.77149 0
M  V30 1277 H 130.519 -3.91724 -0.580339 0
M  V30 1278 H 131.693 -4.00594 2.2773 0
M  V30 1279 H 130.008 -3.69552 1.91886 0
M  V30 1280 H 132.605 -5.33703 -0.326392 0
M  V30 1281 H 132.948 -3.94629 -1.32565 0
M  V30 1282 H 133.481 -3.96047 0.373065 0
M  V30 1283 H 130.22 -6.05044 2.52193 0
M  V30 1284 H 129.74 -5.94268 0.81274 0
M  V30 1285 H 131.419 -6.34873 1.24681 0
M  V30 1286 N 131.551 -0.354651 -1.53558 0
M  V30 1287 C 132.779 0.239515 -2.05509 0
M  V30 1288 C 133.194 1.4333 -1.2289 0
M  V30 1289 O 132.551 1.80538 -0.266899 0
M  V30 1290 C 132.602 0.643719 -3.55723 0
M  V30 1291 O 132.323 -0.502602 -4.35207 0
M  V30 1292 C 133.824 1.29743 -4.23889 0
M  V30 1293 H 131.044 0.0442697 -0.669538 0
M  V30 1294 H 133.588 -0.509856 -1.98042 0
M  V30 1295 H 131.743 1.34302 -3.63376 0
M  V30 1296 H 132.157 -0.178172 -5.24197 0
M  V30 1297 H 133.631 1.53091 -5.30346 0
M  V30 1298 H 134.108 2.25441 -3.76926 0
M  V30 1299 H 134.714 0.639865 -4.20459 0
M  V30 1300 N 133.029 1.57378 -0.0835403 0
M  V30 1301 C 134.445 1.57246 0.273109 0
M  V30 1302 C 134.645 1.09385 1.69225 0
M  V30 1303 O 133.701 0.765051 2.40631 0
M  V30 1304 C 135.014 3.00614 0.0720628 0
M  V30 1305 C 136.562 3.12684 0.1407 0
M  V30 1306 C 137.037 4.57989 -0.0322094 0
M  V30 1307 N 138.528 4.63194 0.0230085 0
M  V30 1308 C 139.263 5.73335 -0.0861941 0
M  V30 1309 N 138.759 6.9235 -0.24958 0
M  V30 1310 N 140.552 5.62093 -0.0282886 0
M  V30 1311 H 132.703 1.86801 -1.0109 0
M  V30 1312 H 134.966 0.861687 -0.395222 0
M  V30 1313 H 134.672 3.39786 -0.907662 0
M  V30 1314 H 134.546 3.68193 0.81936 0
M  V30 1315 H 136.933 2.73391 1.11092 0
M  V30 1316 H 137.014 2.47719 -0.637896 0
M  V30 1317 H 136.658 4.97973 -0.999247 0
M  V30 1318 H 136.588 5.21 0.765937 0
M  V30 1319 H 139.079 3.77613 0.14722 0
M  V30 1320 H 139.392 7.72117 -0.324733 0
M  V30 1321 H 137.737 6.94415 -0.285097 0
M  V30 1322 H 140.928 4.67997 0.0981408 0
M  V30 1323 H 141.101 6.47895 -0.116845 0
M  V30 1324 N 134.507 -0.190092 1.56449 0
M  V30 1325 C 135.784 -0.935886 1.71757 0
M  V30 1326 C 136.164 -2.01173 0.639726 0
M  V30 1327 O 135.512 -2.25827 -0.348502 0
M  V30 1328 C 135.722 -1.51775 3.1427 0
M  V30 1329 C 137.07 -1.99794 3.74656 0
M  V30 1330 O 138.094 -1.61607 3.1743 0
M  V30 1331 O 136.953 -2.70079 4.751 0
M  V30 1332 H 134.047 -0.439229 0.700719 0
M  V30 1333 H 136.593 -0.179395 1.68749 0
M  V30 1334 H 135.365 -0.742505 3.84191 0
M  V30 1335 H 134.988 -2.33894 3.21527 0
M  V30 1336 N 135.985 -1.50799 -0.457987 0
M  V30 1337 C 136.933 -1.71162 -1.575 0
M  V30 1338 C 137.927 -0.577592 -1.59249 0
M  V30 1339 O 139.133 -0.758443 -1.63241 0
M  V30 1340 H 135.508 -0.540468 -0.522875 0
M  V30 1341 H 137.479 -2.64837 -1.37492 0
M  V30 1342 C 136.228 -1.83496 -2.95338 0
M  V30 1343 H 135.551 -2.70153 -2.94716 0
M  V30 1344 H 136.991 -2.01765 -3.72917 0
M  V30 1345 C 135.45 -0.589694 -3.31699 0
M  V30 1346 O 135.98 0.265163 -4.00824 0
M  V30 1347 N 134.186 -0.439845 -2.87252 0
M  V30 1348 H 133.733 -1.13655 -2.31172 0
M  V30 1349 H 133.691 0.392159 -3.11945 0
M  V30 1350 N 137.463 0.71206 -1.40597 0
M  V30 1351 C 138.393 1.83889 -1.43899 0
M  V30 1352 C 139.374 1.67442 -0.299504 0
M  V30 1353 O 140.559 1.87421 -0.508624 0
M  V30 1354 C 137.689 3.21877 -1.30431 0
M  V30 1355 C 136.643 3.53002 -2.42019 0
M  V30 1356 C 135.969 4.90172 -2.13626 0
M  V30 1357 C 137.269 3.53643 -3.84362 0
M  V30 1358 H 138.963 1.81383 -2.38203 0
M  V30 1359 H 136.509 0.871237 -1.14654 0
M  V30 1360 H 138.462 4.00404 -1.31357 0
M  V30 1361 H 137.186 3.24968 -0.326049 0
M  V30 1362 H 135.845 2.76818 -2.40349 0
M  V30 1363 H 135.493 4.89869 -1.14182 0
M  V30 1364 H 135.193 5.11962 -2.88389 0
M  V30 1365 H 136.717 5.71028 -2.1624 0
M  V30 1366 H 138.131 4.22203 -3.87837 0
M  V30 1367 H 136.528 3.86961 -4.58673 0
M  V30 1368 H 137.598 2.52954 -4.13693 0
M  V30 1369 N 138.941 1.26152 0.944643 0
M  V30 1370 C 139.871 1.09902 2.06019 0
M  V30 1371 C 140.852 0.00519538 1.70099 0
M  V30 1372 O 142.037 0.176583 1.93396 0
M  V30 1373 C 139.167 0.727562 3.39594 0
M  V30 1374 C 138.121 1.77274 3.89561 0
M  V30 1375 C 137.447 1.25569 5.19747 0
M  V30 1376 C 138.747 3.17357 4.14827 0
M  V30 1377 H 140.441 2.03217 2.19871 0
M  V30 1378 H 137.987 0.978452 1.05652 0
M  V30 1379 H 139.94 0.600777 4.17095 0
M  V30 1380 H 138.664 -0.241287 3.25707 0
M  V30 1381 H 137.323 1.88814 3.14237 0
M  V30 1382 H 136.971 0.276783 5.02238 0
M  V30 1383 H 136.671 1.95433 5.54148 0
M  V30 1384 H 138.195 1.1415 5.99835 0
M  V30 1385 H 139.609 3.08914 4.82954 0
M  V30 1386 H 138.006 3.84781 4.60504 0
M  V30 1387 H 139.076 3.63673 3.20734 0
M  V30 1388 N 140.419 -1.14872 1.07899 0
M  V30 1389 C 141.352 -2.18794 0.64841 0
M  V30 1390 C 142.33 -1.59065 -0.337189 0
M  V30 1391 O 143.514 -1.86936 -0.242284 0
M  V30 1392 C 140.641 -3.38667 -0.0470417 0
M  V30 1393 C 139.687 -4.16942 0.897884 0
M  V30 1394 S 140.52 -4.78615 2.40183 0
M  V30 1395 C 141.676 -6.0185 1.71834 0
M  V30 1396 H 141.909 -2.5498 1.52881 0
M  V30 1397 H 139.442 -1.25922 0.893484 0
M  V30 1398 H 141.4 -4.08113 -0.442027 0
M  V30 1399 H 140.061 -3.00814 -0.903861 0
M  V30 1400 H 139.254 -5.02726 0.358096 0
M  V30 1401 H 138.856 -3.53073 1.23352 0
M  V30 1402 H 141.148 -6.69574 1.03328 0
M  V30 1403 H 142.091 -6.60408 2.55473 0
M  V30 1404 H 142.499 -5.5173 1.19392 0
M  V30 1405 N 141.898 -0.863906 -1.31812 0
M  V30 1406 C 143.314 -0.555004 -1.49639 0
M  V30 1407 C 143.514 0.912266 -1.79666 0
M  V30 1408 O 142.57 1.69479 -1.87171 0
M  V30 1409 C 143.883 -1.44998 -2.63431 0
M  V30 1410 C 145.431 -1.45138 -2.77316 0
M  V30 1411 C 145.906 -2.33179 -3.94197 0
M  V30 1412 N 147.397 -2.31025 -4.01474 0
M  V30 1413 C 148.132 -2.95871 -4.9117 0
M  V30 1414 N 147.628 -3.69863 -5.8581 0
M  V30 1415 N 149.421 -2.85211 -4.84367 0
M  V30 1416 H 141.572 -1.81339 -1.10589 0
M  V30 1417 H 143.835 -0.77505 -0.545895 0
M  V30 1418 H 143.541 -2.49377 -2.48 0
M  V30 1419 H 143.415 -1.14409 -3.59431 0
M  V30 1420 H 145.802 -0.415201 -2.92164 0
M  V30 1421 H 145.883 -1.79747 -1.82001 0
M  V30 1422 H 145.527 -3.3687 -3.80107 0
M  V30 1423 H 145.457 -1.95897 -4.88807 0
M  V30 1424 H 147.948 -1.77238 -3.33759 0
M  V30 1425 H 148.261 -4.16486 -6.50968 0
M  V30 1426 H 146.606 -3.73971 -5.85808 0
M  V30 1427 H 149.797 -2.26948 -4.09405 0
M  V30 1428 H 149.97 -3.36027 -5.54066 0
M  V30 1429 N 143.376 1.44774 -0.622745 0
M  V30 1430 C 144.309 2.27792 0.136329 0
M  V30 1431 C 145.287 1.38041 0.859264 0
M  V30 1432 O 146.471 1.67478 0.86506 0
M  V30 1433 C 143.598 3.16776 1.19878 0
M  V30 1434 C 142.644 4.22575 0.57731 0
M  V30 1435 S 143.477 5.31825 -0.626294 0
M  V30 1436 C 144.633 6.24377 0.436378 0
M  V30 1437 H 144.866 2.91824 -0.567967 0
M  V30 1438 H 142.399 1.48838 -0.410677 0
M  V30 1439 H 144.357 3.68596 1.80686 0
M  V30 1440 H 143.018 2.5198 1.87523 0
M  V30 1441 H 142.211 4.84818 1.37721 0
M  V30 1442 H 141.813 3.73974 0.0440439 0
M  V30 1443 H 144.105 6.64689 1.31128 0
M  V30 1444 H 145.048 7.07941 -0.150271 0
M  V30 1445 H 145.456 5.59381 0.758513 0
M  V30 1446 N 144.854 0.36279 1.53368 0
M  V30 1447 C 145.801 -0.485008 2.25646 0
M  V30 1448 C 146.771 -1.07982 1.2621 0
M  V30 1449 O 147.956 -1.11284 1.54986 0
M  V30 1450 C 145.096 -1.62023 3.04701 0
M  V30 1451 C 144.209 -1.05086 4.19024 0
M  V30 1452 C 143.344 -2.15496 4.85525 0
M  V30 1453 C 142.383 -1.5601 5.91884 0
M  V30 1454 N 141.52 -2.60241 6.52088 0
M  V30 1455 H 146.36 0.137864 2.97681 0
M  V30 1456 H 143.897 0.0798061 1.46883 0
M  V30 1457 H 145.855 -2.28887 3.48807 0
M  V30 1458 H 144.485 -2.2138 2.34927 0
M  V30 1459 H 143.537 -0.27259 3.79422 0
M  V30 1460 H 144.849 -0.575926 4.95464 0
M  V30 1461 H 144.003 -2.90186 5.32801 0
M  V30 1462 H 142.742 -2.66341 4.08551 0
M  V30 1463 H 141.747 -0.798338 5.43973 0
M  V30 1464 H 142.972 -1.05994 6.70777 0
M  V30 1465 H 140.918 -3.10304 5.77968 0
M  V30 1466 H 140.835 -2.17426 7.24059 0
M  V30 1467 H 142.103 -3.34641 7.04014 0
M  V30 1468 N 146.332 -1.57332 0.0918853 0
M  V30 1469 C 147.609 -1.85691 -0.614668 0
M  V30 1470 C 147.989 -0.988146 -1.86545 0
M  V30 1471 O 147.337 -0.0597055 -2.28422 0
M  V30 1472 C 147.547 -3.36294 -0.933126 0
M  V30 1473 C 148.895 -4.04275 -1.29796 0
M  V30 1474 O 149.919 -3.41157 -1.02424 0
M  V30 1475 O 148.778 -5.1564 -1.81047 0
M  V30 1476 H 145.872 -0.767802 -0.307261 0
M  V30 1477 H 148.418 -1.69244 0.12434 0
M  V30 1478 H 147.19 -3.91273 -0.0456404 0
M  V30 1479 H 146.813 -3.58076 -1.72822 0
M  V30 1480 N 147.81 0.181792 -1.56548 0
M  V30 1481 C 148.72 1.24538 -1.98815 0
M  V30 1482 C 149.736 1.49045 -0.897861 0
M  V30 1483 O 150.912 1.61399 -1.20467 0
M  V30 1484 C 147.977 2.56683 -2.33055 0
M  V30 1485 C 147.038 2.40131 -3.55859 0
M  V30 1486 C 146.271 3.65975 -3.88456 0
M  V30 1487 O 146.494 4.70711 -3.22161 0
M  V30 1488 O 145.428 3.6071 -4.81842 0
M  V30 1489 H 149.254 0.916647 -2.89536 0
M  V30 1490 H 146.839 0.387842 -1.44278 0
M  V30 1491 H 148.721 3.34655 -2.56094 0
M  V30 1492 H 147.396 2.89157 -1.45498 0
M  V30 1493 H 146.303 1.60226 -3.38051 0
M  V30 1494 H 147.636 2.12585 -4.43924 0
M  V30 1495 N 149.288 1.51039 0.449983 0
M  V30 1496 C 150.198 1.74261 1.57067 0
M  V30 1497 C 151.214 0.626363 1.62335 0
M  V30 1498 O 152.39 0.907162 1.79812 0
M  V30 1499 C 149.455 1.85114 2.93144 0
M  V30 1500 C 148.516 3.0893 2.98095 0
M  V30 1501 C 147.749 3.19256 4.27681 0
M  V30 1502 O 147.972 2.35835 5.19363 0
M  V30 1503 O 146.906 4.12144 4.38658 0
M  V30 1504 H 150.732 2.69303 1.40391 0
M  V30 1505 H 148.317 1.35389 0.631688 0
M  V30 1506 H 150.199 1.94311 3.73926 0
M  V30 1507 H 148.874 0.932588 3.09975 0
M  V30 1508 H 147.781 3.0522 2.16314 0
M  V30 1509 H 149.114 4.00433 2.86206 0
M  V30 1510 N 150.766 -0.704594 1.40972 0
M  V30 1511 C 152.012 -1.46546 1.41053 0
M  V30 1512 C 152.367 -1.92393 0.0159714 0
M  V30 1513 O 151.66 -1.66017 -0.956506 0
M  V30 1514 C 151.854 -2.698 2.34399 0
M  V30 1515 C 151.683 -2.36008 3.82793 0
M  V30 1516 C 150.453 -2.26812 4.51536 0
M  V30 1517 C 152.651 -1.99565 4.74003 0
M  V30 1518 N 150.633 -1.8581 5.85105 0
M  V30 1519 C 152.004 -1.69251 5.96451 0
M  V30 1520 C 154.059 -1.86296 4.61734 0
M  V30 1521 C 152.762 -1.27003 7.07999 0
M  V30 1522 C 154.788 -1.45452 5.73234 0
M  V30 1523 C 154.15 -1.16043 6.94776 0
M  V30 1524 H 150.249 -0.533896 0.571383 0
M  V30 1525 H 152.833 -0.816061 1.76773 0
M  V30 1526 H 151.004 -3.32473 2.00789 0
M  V30 1527 H 152.736 -3.36214 2.25261 0
M  V30 1528 H 149.491 -2.44913 4.05357 0
M  V30 1529 H 149.915 -1.67817 6.55871 0
M  V30 1530 H 154.557 -2.0769 3.68273 0
M  V30 1531 H 152.275 -1.04353 8.01334 0
M  V30 1532 H 155.861 -1.35748 5.65742 0
M  V30 1533 H 154.741 -0.84915 7.79589 0
M  V30 1534 N 152.244 -1.26651 -0.937939 0
M  V30 1535 C 153.192 -1.08308 -2.05845 0
M  V30 1536 C 154.186 -0.0090757 -1.69398 0
M  V30 1537 O 155.392 -0.166007 -1.79233 0
M  V30 1538 H 151.767 -0.333416 -0.674046 0
M  V30 1539 H 153.738 -2.03261 -2.18467 0
M  V30 1540 C 152.487 -0.736229 -3.39816 0
M  V30 1541 H 151.81 -1.55453 -3.6834 0
M  V30 1542 H 153.25 -0.64769 -4.19024 0
M  V30 1543 C 151.709 0.558824 -3.32233 0
M  V30 1544 O 152.239 1.59621 -3.68624 0
M  V30 1545 N 150.445 0.550657 -2.85335 0
M  V30 1546 H 149.992 -0.293943 -2.55917 0
M  V30 1547 H 149.95 1.41726 -2.80644 0
M  V30 1548 N 153.722 1.14298 -1.08507 0
M  V30 1549 C 154.999 1.81544 -0.728088 0
M  V30 1550 C 155.379 1.95838 0.78808 0
M  V30 1551 O 154.727 1.51904 1.70697 0
M  V30 1552 C 154.937 3.17169 -1.45619 0
M  V30 1553 C 156.285 3.9265 -1.61591 0
M  V30 1554 O 157.309 3.26762 -1.41793 0
M  V30 1555 O 156.168 5.10807 -1.94263 0
M  V30 1556 H 153.262 0.78491 -0.260471 0
M  V30 1557 H 155.808 1.21307 -1.18671 0
M  V30 1558 H 154.58 3.01934 -2.489 0
M  V30 1559 H 154.203 3.851 -0.989124 0
M  V30 1560 N 155.201 0.870884 1.31352 0
M  V30 1561 C 156.45 0.478408 1.95944 0
M  V30 1562 C 156.763 -0.974493 1.69597 0
M  V30 1563 O 157.969 -1.47316 2.28058 0
M  V30 1564 C 156.425 0.804609 3.50791 0
M  V30 1565 C 156.033 2.27433 3.85977 0
M  V30 1566 C 157.777 0.480648 4.2177 0
M  V30 1567 C 155.684 2.5429 5.33939 0
M  V30 1568 H 154.614 0.175175 0.733369 0
M  V30 1569 H 157.265 1.06391 1.4951 0
M  V30 1570 H 155.647 0.148347 3.95722 0
M  V30 1571 H 156.821 2.97373 3.52002 0
M  V30 1572 H 155.136 2.56442 3.28065 0
M  V30 1573 H 157.733 0.658519 5.30629 0
M  V30 1574 H 158.076 -0.578979 4.12254 0
M  V30 1575 H 158.609 1.09349 3.82476 0
M  V30 1576 H 155.348 3.58939 5.48491 0
M  V30 1577 H 154.868 1.88945 5.69263 0
M  V30 1578 H 156.547 2.39066 6.01212 0
M  V30 1579 N 156.679 -1.44442 0.630414 0
M  V30 1580 C 157.928 -2.01267 0.132073 0
M  V30 1581 C 158.241 -1.50172 -1.25331 0
M  V30 1582 O 159.447 -1.9912 -1.84562 0
M  V30 1583 C 157.903 -3.59422 0.185362 0
M  V30 1584 C 157.511 -4.19514 1.57201 0
M  V30 1585 C 159.255 -4.23724 -0.256553 0
M  V30 1586 C 157.162 -5.69891 1.58045 0
M  V30 1587 H 156.092 -0.752619 0.0456092 0
M  V30 1588 H 158.743 -1.65666 0.789106 0
M  V30 1589 H 157.125 -3.92318 -0.538759 0
M  V30 1590 H 158.299 -3.98156 2.31966 0
M  V30 1591 H 156.614 -3.67496 1.95795 0
M  V30 1592 H 159.211 -5.34019 -0.269767 0
M  V30 1593 H 159.554 -3.96013 -1.28372 0
M  V30 1594 H 160.087 -3.95629 0.41505 0
M  V30 1595 H 156.826 -6.02336 2.58597 0
M  V30 1596 H 156.346 -5.93373 0.875725 0
M  V30 1597 H 158.025 -6.33515 1.31408 0
M  V30 1598 N 158.157 -0.370918 -1.53173 0
M  V30 1599 C 159.067 0.480823 -2.2962 0
M  V30 1600 C 160.083 1.08789 -1.35798 0
M  V30 1601 O 161.259 1.09768 -1.68858 0
M  V30 1602 C 158.324 1.60227 -3.07454 0
M  V30 1603 C 157.385 1.0222 -4.16953 0
M  V30 1604 C 156.618 2.0902 -4.91066 0
M  V30 1605 O 156.841 3.30222 -4.65091 0
M  V30 1606 O 155.775 1.71778 -5.76867 0
M  V30 1607 H 159.601 -0.141421 -3.03371 0
M  V30 1608 H 157.186 -0.135146 -1.48787 0
M  V30 1609 H 159.068 2.25417 -3.56041 0
M  V30 1610 H 157.743 2.20982 -2.36535 0
M  V30 1611 H 156.65 0.334064 -3.72605 0
M  V30 1612 H 157.983 0.459131 -4.90054 0
M  V30 1613 N 159.635 1.57281 -0.100228 0
M  V30 1614 C 160.863 1.98879 0.570509 0
M  V30 1615 C 161.278 0.979476 1.61405 0
M  V30 1616 O 160.635 -0.0302288 1.82475 0
M  V30 1617 C 160.686 3.4052 1.2136 0
M  V30 1618 O 160.407 4.37588 0.211786 0
M  V30 1619 C 161.908 3.97149 1.96945 0
M  V30 1620 H 159.128 0.653428 0.152555 0
M  V30 1621 H 161.672 2.03697 -0.18103 0
M  V30 1622 H 159.827 3.367 1.91603 0
M  V30 1623 H 160.241 5.20118 0.676607 0
M  V30 1624 H 161.715 4.98393 2.37294 0
M  V30 1625 H 162.192 3.3525 2.83733 0
M  V30 1626 H 162.798 4.04458 1.31506 0
M  V30 1627 N 161.113 -0.173488 1.56642 0
M  V30 1628 C 162.061 -1.23417 1.97157 0
M  V30 1629 C 163.055 -1.45946 0.860013 0
M  V30 1630 O 164.261 -1.46551 1.04512 0
M  V30 1631 H 160.636 -0.414818 0.62724 0
M  V30 1632 H 162.607 -0.865582 2.8557 0
M  V30 1633 C 161.356 -2.5665 2.34576 0
M  V30 1634 H 160.679 -2.40137 3.19647 0
M  V30 1635 H 162.119 -3.2956 2.6677 0
M  V30 1636 C 160.578 -3.15245 1.18836 0
M  V30 1637 O 161.108 -3.98883 0.474869 0
M  V30 1638 N 159.314 -2.74303 0.959497 0
M  V30 1639 H 158.861 -2.0639 1.54146 0
M  V30 1640 H 158.819 -3.13844 0.186932 0
M  V30 1641 N 162.591 -1.51276 -0.441967 0
M  V30 1642 C 163.521 -1.752 -1.54361 0
M  V30 1643 C 164.502 -0.601682 -1.59103 0
M  V30 1644 O 165.687 -0.843913 -1.74905 0
M  V30 1645 C 162.817 -1.87282 -2.92477 0
M  V30 1646 C 161.771 -3.02687 -3.02596 0
M  V30 1647 C 161.097 -2.99947 -4.42647 0
M  V30 1648 C 162.397 -4.4273 -2.77106 0
M  V30 1649 H 164.091 -2.67442 -1.34592 0
M  V30 1650 H 161.637 -1.28694 -0.646048 0
M  V30 1651 H 163.59 -2.02602 -3.695 0
M  V30 1652 H 162.314 -0.916844 -3.13467 0
M  V30 1653 H 160.973 -2.87065 -2.28012 0
M  V30 1654 H 160.621 -2.02136 -4.60597 0
M  V30 1655 H 160.321 -3.77439 -4.50348 0
M  V30 1656 H 161.845 -3.17354 -5.2165 0
M  V30 1657 H 163.259 -4.58727 -3.43864 0
M  V30 1658 H 161.656 -5.21893 -2.96222 0
M  V30 1659 H 162.726 -4.53087 -1.72744 0
M  V30 1660 N 164.069 0.697108 -1.41344 0
M  V30 1661 C 165.294 1.49096 -1.44171 0
M  V30 1662 C 165.719 1.88038 -0.0481568 0
M  V30 1663 O 165.077 1.54525 0.948243 0
M  V30 1664 C 165.125 2.73088 -2.3549 0
M  V30 1665 O 164.229 3.70514 -1.81088 0
M  V30 1666 H 163.57 0.448801 -0.489361 0
M  V30 1667 H 166.1 0.856992 -1.85787 0
M  V30 1668 H 166.11 3.21413 -2.51312 0
M  V30 1669 H 164.785 2.44081 -3.36745 0
M  V30 1670 H 163.362 3.29441 -1.74708 0
M  V30 1671 N 165.547 1.27147 0.931209 0
M  V30 1672 C 166.772 1.16191 1.71797 0
M  V30 1673 C 167.197 -0.278004 1.86034 0
M  V30 1674 O 166.555 -1.20137 1.35782 0
M  V30 1675 C 166.603 1.84673 3.09723 0
M  V30 1676 O 165.707 1.14231 3.96264 0
M  V30 1677 H 165.048 0.404303 0.526721 0
M  V30 1678 H 167.578 1.68152 1.1656 0
M  V30 1679 H 167.588 1.91893 3.60057 0
M  V30 1680 H 166.263 2.89421 2.98677 0
M  V30 1681 H 164.84 1.15056 3.54706 0
M  V30 1682 N 167.025 -1.13721 1.09112 0
M  V30 1683 C 168.271 -1.85198 0.826414 0
M  V30 1684 C 168.604 -1.83129 -0.646319 0
M  V30 1685 O 167.879 -1.2671 -1.47563 0
M  V30 1686 C 168.162 -3.33507 1.35812 0
M  V30 1687 C 168.015 -3.44108 2.89672 0
M  V30 1688 C 169.334 -4.28838 0.989256 0
M  V30 1689 H 166.453 -0.67243 0.301675 0
M  V30 1690 H 169.095 -1.33499 1.35197 0
M  V30 1691 H 167.245 -3.77666 0.911082 0
M  V30 1692 H 168.917 -3.08684 3.428 0
M  V30 1693 H 167.16 -2.85087 3.26967 0
M  V30 1694 H 167.831 -4.48388 3.21951 0
M  V30 1695 H 170.307 -3.92734 1.37475 0
M  V30 1696 H 169.183 -5.31051 1.38838 0
M  V30 1697 H 169.444 -4.4198 -0.102924 0
M  V30 1698 N 168.503 -0.877838 -1.30888 0
M  V30 1699 C 169.75 -0.492696 -1.96415 0
M  V30 1700 C 170.078 0.956671 -1.69346 0
M  V30 1701 O 169.333 1.68993 -0.986913 0
M  V30 1702 C 169.632 -0.705748 -3.50363 0
M  V30 1703 C 169.298 -2.1291 -3.97467 0
M  V30 1704 C 167.96 -2.51834 -4.1004 0
M  V30 1705 C 170.312 -3.05702 -4.22132 0
M  V30 1706 C 167.64 -3.82775 -4.44635 0
M  V30 1707 C 169.992 -4.36166 -4.58194 0
M  V30 1708 C 168.656 -4.74993 -4.68975 0
M  V30 1709 H 167.926 -0.18029 -0.718733 0
M  V30 1710 H 170.573 -1.11233 -1.55883 0
M  V30 1711 H 168.878 -0.00303058 -3.918 0
M  V30 1712 H 170.575 -0.387456 -3.99124 0
M  V30 1713 H 167.165 -1.81694 -3.88182 0
M  V30 1714 H 171.349 -2.76853 -4.11906 0
M  V30 1715 H 166.605 -4.12609 -4.51181 0
M  V30 1716 H 170.779 -5.08111 -4.76231 0
M  V30 1717 H 168.406 -5.76495 -4.95537 0
M  V30 1718 N 169.982 1.44106 -0.638065 0
M  V30 1719 C 171.398 1.56672 -0.304286 0
M  V30 1720 C 171.598 1.6244 1.19228 0
M  V30 1721 O 170.654 1.57121 1.9766 0
M  V30 1722 C 171.967 2.83503 -1.00231 0
M  V30 1723 C 173.515 2.97226 -0.981116 0
M  V30 1724 C 173.99 4.26868 -1.65974 0
M  V30 1725 N 175.481 4.33698 -1.62666 0
M  V30 1726 C 176.216 5.32745 -2.12063 0
M  V30 1727 N 175.712 6.38157 -2.6968 0
M  V30 1728 N 177.505 5.24299 -2.02651 0
M  V30 1729 H 169.656 1.38605 -1.60942 0
M  V30 1730 H 171.919 0.664661 -0.675965 0
M  V30 1731 H 171.625 2.85251 -2.0573 0
M  V30 1732 H 171.499 3.73251 -0.54439 0
M  V30 1733 H 173.886 2.95027 0.0654188 0
M  V30 1734 H 173.967 2.08808 -1.47759 0
M  V30 1735 H 173.611 4.29826 -2.70576 0
M  V30 1736 H 173.541 5.14156 -1.13804 0
M  V30 1737 H 176.032 3.58138 -1.20606 0
M  V30 1738 H 176.345 7.10029 -3.05087 0
M  V30 1739 H 174.69 6.38823 -2.73734 0
M  V30 1740 H 177.881 4.4086 -1.57353 0
M  V30 1741 H 178.054 6.01334 -2.41457 0
M  V30 1742 N 171.46 0.379036 1.52974 0
M  V30 1743 C 172.39 -0.452706 2.29069 0
M  V30 1744 C 173.371 -1.07237 1.32039 0
M  V30 1745 O 174.556 -1.08708 1.60923 0
M  V30 1746 C 171.686 -1.5856 3.08992 0
M  V30 1747 C 170.64 -1.0925 4.13822 0
M  V30 1748 C 169.966 -2.31668 4.81907 0
M  V30 1749 C 171.266 -0.167702 5.22031 0
M  V30 1750 H 172.96 0.182181 2.98845 0
M  V30 1751 H 170.506 0.0890592 1.43724 0
M  V30 1752 H 172.459 -2.1742 3.6098 0
M  V30 1753 H 171.183 -2.24792 2.36931 0
M  V30 1754 H 169.842 -0.526494 3.628 0
M  V30 1755 H 169.49 -2.96386 4.06404 0
M  V30 1756 H 169.19 -1.9934 5.52754 0
M  V30 1757 H 170.714 -2.91189 5.36695 0
M  V30 1758 H 172.128 -0.664186 5.6944 0
M  V30 1759 H 170.525 0.0653265 6.00064 0
M  V30 1760 H 171.595 0.786347 4.78482 0
M  V30 1761 N 172.938 -1.57226 0.108567 0
M  V30 1762 C 174.163 -1.99604 -0.563303 0
M  V30 1763 C 174.588 -0.987563 -1.6009 0
M  V30 1764 O 173.946 0.0421687 -1.81251 0
M  V30 1765 C 173.994 -3.40902 -1.17552 0
M  V30 1766 O 173.098 -3.42896 -2.2912 0
M  V30 1767 H 172.439 -0.648704 -0.1417 0
M  V30 1768 H 174.969 -2.03679 0.193961 0
M  V30 1769 H 174.979 -3.78886 -1.51357 0
M  V30 1770 H 173.654 -4.1382 -0.415445 0
M  V30 1771 H 172.231 -3.1672 -1.96832 0
M  V30 1772 N 174.416 0.165178 -1.56732 0
M  V30 1773 C 175.363 1.2044 -1.96883 0
M  V30 1774 C 176.333 1.43664 -0.833657 0
M  V30 1775 O 177.518 1.56302 -1.09427 0
M  V30 1776 C 174.658 2.53727 -2.33916 0
M  V30 1777 C 173.771 2.3783 -3.6064 0
M  V30 1778 C 172.906 3.64026 -3.86857 0
M  V30 1779 C 171.945 3.43088 -5.06909 0
M  V30 1780 N 171.082 4.61369 -5.29229 0
M  V30 1781 H 175.922 0.854996 -2.85471 0
M  V30 1782 H 173.459 0.41076 -1.41249 0
M  V30 1783 H 175.417 3.31419 -2.53411 0
M  V30 1784 H 174.047 2.8665 -1.48431 0
M  V30 1785 H 173.099 1.51282 -3.49024 0
M  V30 1786 H 174.411 2.18308 -4.4849 0
M  V30 1787 H 173.565 4.50152 -4.06753 0
M  V30 1788 H 172.304 3.86533 -2.97394 0
M  V30 1789 H 171.309 2.55349 -4.86906 0
M  V30 1790 H 172.534 3.21997 -5.97909 0
M  V30 1791 H 170.48 4.84084 -4.42718 0
M  V30 1792 H 170.397 4.44783 -6.11313 0
M  V30 1793 H 171.665 5.48761 -5.53608 0
M  V30 1794 N 175.894 1.51508 0.433938 0
M  V30 1795 C 176.857 1.72473 1.50949 0
M  V30 1796 C 177.857 0.594725 1.49398 0
M  V30 1797 O 179.047 0.862315 1.5136 0
M  V30 1798 C 176.179 1.78431 2.90474 0
M  V30 1799 H 177.372 2.68467 1.33662 0
M  V30 1800 H 174.925 1.41549 0.662836 0
M  V30 1801 H 175.66 0.842645 3.13161 0
M  V30 1802 H 175.445 2.60558 2.93005 0
M  V30 1803 H 176.935 1.96479 3.68491 0
M  V30 1804 N 177.372 -0.689602 1.41712 0
M  V30 1805 C 178.618 -1.45181 1.41599 0
M  V30 1806 C 178.951 -1.94181 0.0270081 0
M  V30 1807 O 178.226 -1.6993 -0.946265 0
M  V30 1808 C 178.509 -2.65945 2.42787 0
M  V30 1809 C 178.362 -2.22672 3.90816 0
M  V30 1810 C 179.681 -3.68149 2.41151 0
M  V30 1811 H 176.8 -0.526576 0.515642 0
M  V30 1812 H 179.442 -0.784947 1.73028 0
M  V30 1813 H 177.592 -3.2284 2.16116 0
M  V30 1814 H 179.264 -1.71058 4.28412 0
M  V30 1815 H 177.507 -1.54394 4.05395 0
M  V30 1816 H 178.178 -3.0935 4.57172 0
M  V30 1817 H 180.654 -3.2094 2.64834 0
M  V30 1818 H 179.53 -4.50248 3.13955 0
M  V30 1819 H 179.791 -4.18259 1.43221 0
M  V30 1820 N 178.85 -1.27639 -0.924453 0
M  V30 1821 C 179.783 -1.04966 -2.02626 0
M  V30 1822 C 180.761 0.0309505 -1.62571 0
M  V30 1823 O 181.945 -0.114846 -1.8815 0
M  V30 1824 C 179.072 -0.59292 -3.3347 0
M  V30 1825 C 178.118 -1.66858 -3.92506 0
M  V30 1826 S 178.951 -3.2619 -4.24689 0
M  V30 1827 C 180.107 -2.82325 -5.58609 0
M  V30 1828 H 180.34 -1.98252 -2.21547 0
M  V30 1829 H 177.873 -1.11506 -1.06798 0
M  V30 1830 H 179.831 -0.336086 -4.09122 0
M  V30 1831 H 178.492 0.319939 -3.12466 0
M  V30 1832 H 177.685 -1.30038 -4.86935 0
M  V30 1833 H 177.287 -1.87766 -3.2345 0
M  V30 1834 H 179.579 -2.2783 -6.38044 0
M  V30 1835 H 180.522 -3.75511 -6.00331 0
M  V30 1836 H 180.93 -2.21367 -5.19285 0
M  V30 1837 N 180.328 1.1314 -1.09713 0
M  V30 1838 C 181.744 1.36477 -0.827423 0
M  V30 1839 C 181.944 1.93654 0.556817 0
M  V30 1840 O 181 2.15791 1.31112 0
M  V30 1841 C 182.313 2.31334 -1.92106 0
M  V30 1842 C 183.861 2.44943 -1.94864 0
M  V30 1843 C 184.336 3.4311 -3.0338 0
M  V30 1844 N 185.827 3.50662 -3.02639 0
M  V30 1845 C 186.562 4.2651 -3.83246 0
M  V30 1846 N 186.058 5.05485 -4.73768 0
M  V30 1847 N 187.851 4.2184 -3.71493 0
M  V30 1848 H 180.002 0.743807 -1.9895 0
M  V30 1849 H 182.265 0.389823 -0.864143 0
M  V30 1850 H 181.971 1.96483 -2.91698 0
M  V30 1851 H 181.845 3.31381 -1.80184 0
M  V30 1852 H 184.232 2.79079 -0.959099 0
M  V30 1853 H 184.313 1.4481 -2.10864 0
M  V30 1854 H 183.957 3.09704 -4.02549 0
M  V30 1855 H 183.887 4.43055 -2.84622 0
M  V30 1856 H 186.378 2.94315 -2.37039 0
M  V30 1857 H 186.691 5.60675 -5.3185 0
M  V30 1858 H 185.036 5.04708 -4.77802 0
M  V30 1859 H 188.227 3.5922 -3.00131 0
M  V30 1860 H 188.4 4.80697 -4.3455 0
M  V30 1861 N 181.806 0.884767 1.30421 0
M  V30 1862 C 182.769 0.356277 2.26414 0
M  V30 1863 C 183.769 -0.501124 1.52792 0
M  V30 1864 O 184.959 -0.30831 1.7145 0
M  V30 1865 C 182.091 -0.492316 3.37326 0
M  V30 1866 H 183.284 1.20389 2.74675 0
M  V30 1867 H 180.837 0.661607 1.41607 0
M  V30 1868 H 181.572 -1.36052 2.94381 0
M  V30 1869 H 181.357 0.121832 3.91911 0
M  V30 1870 H 182.847 -0.853871 4.08777 0
M  V30 1871 N 183.284 -1.43765 0.645699 0
M  V30 1872 C 184.217 -2.2798 -0.100072 0
M  V30 1873 C 185.195 -1.39391 -0.837194 0
M  V30 1874 O 186.379 -1.68833 -0.838306 0
M  V30 1875 C 183.506 -3.18643 -1.14823 0
M  V30 1876 C 182.552 -4.2344 -0.510009 0
M  V30 1877 S 183.385 -5.30761 0.710824 0
M  V30 1878 C 184.541 -6.24992 -0.33699 0
M  V30 1879 H 184.774 -2.90884 0.614322 0
M  V30 1880 H 182.307 -1.48166 0.434304 0
M  V30 1881 H 184.265 -3.71424 -1.74799 0
M  V30 1882 H 182.926 -2.54932 -1.8349 0
M  V30 1883 H 182.119 -4.86948 -1.29991 0
M  V30 1884 H 181.721 -3.73997 0.0154577 0
M  V30 1885 H 184.013 -6.66691 -1.20537 0
M  V30 1886 H 184.956 -7.07612 0.262879 0
M  V30 1887 H 185.364 -5.60517 -0.669425 0
M  V30 1888 N 184.763 -0.387143 -1.52771 0
M  V30 1889 C 185.696 0.493123 -2.22808 0
M  V30 1890 C 186.674 1.0658 -1.22798 0
M  V30 1891 O 187.858 1.11785 -1.51777 0
M  V30 1892 C 184.985 1.68238 -2.93962 0
M  V30 1893 C 184.031 1.23515 -4.08223 0
M  V30 1894 S 184.864 0.21848 -5.35054 0
M  V30 1895 C 186.02 1.41357 -6.09729 0
M  V30 1896 H 186.253 -0.101625 -2.97126 0
M  V30 1897 H 183.786 -0.171323 -1.53447 0
M  V30 1898 H 185.744 2.36443 -3.35567 0
M  V30 1899 H 184.405 2.24842 -2.19328 0
M  V30 1900 H 183.598 2.12304 -4.57103 0
M  V30 1901 H 183.2 0.632044 -3.68621 0
M  V30 1902 H 185.492 2.34101 -6.3577 0
M  V30 1903 H 186.435 0.965736 -7.01484 0
M  V30 1904 H 186.843 1.6294 -5.40473 0
M  V30 1905 N 186.241 1.57166 -0.116904 0
M  V30 1906 C 187.188 2.15202 0.83408 0
M  V30 1907 C 188.158 1.07644 1.26499 0
M  V30 1908 O 189.343 1.35541 1.34288 0
M  V30 1909 C 186.483 2.75405 2.07957 0
M  V30 1910 C 185.596 3.97264 1.69721 0
M  V30 1911 C 184.731 4.45561 2.89221 0
M  V30 1912 C 183.77 5.59956 2.47215 0
M  V30 1913 N 182.907 6.03006 3.59622 0
M  V30 1914 H 187.747 2.96141 0.332335 0
M  V30 1915 H 185.284 1.46309 0.152349 0
M  V30 1916 H 187.242 3.08439 2.80929 0
M  V30 1917 H 185.872 1.97159 2.55594 0
M  V30 1918 H 184.924 3.70404 0.866316 0
M  V30 1919 H 186.236 4.80226 1.34849 0
M  V30 1920 H 185.39 4.80493 3.7042 0
M  V30 1921 H 184.129 3.61544 3.27318 0
M  V30 1922 H 183.134 5.2463 1.64448 0
M  V30 1923 H 184.359 6.45738 2.10238 0
M  V30 1924 H 182.305 5.21931 3.97396 0
M  V30 1925 H 182.222 6.80819 3.28667 0
M  V30 1926 H 183.49 6.42576 4.41267 0
M  V30 1927 N 187.719 -0.156864 1.56817 0
M  V30 1928 C 188.666 -1.19394 1.97519 0
M  V30 1929 C 189.636 -1.4322 0.841265 0
M  V30 1930 O 190.821 -1.55719 1.10255 0
M  V30 1931 C 187.961 -2.52483 2.35258 0
M  V30 1932 C 187.074 -2.35914 3.61896 0
M  V30 1933 C 186.209 -3.61969 3.88782 0
M  V30 1934 C 185.248 -3.40395 5.08722 0
M  V30 1935 N 184.385 -4.58556 5.31668 0
M  V30 1936 H 189.225 -0.839845 2.85921 0
M  V30 1937 H 186.762 -0.403264 1.41464 0
M  V30 1938 H 188.72 -3.30071 2.55165 0
M  V30 1939 H 187.35 -2.85859 1.49949 0
M  V30 1940 H 186.402 -1.49429 3.49821 0
M  V30 1941 H 187.714 -2.15926 4.49641 0
M  V30 1942 H 186.868 -4.47989 4.09135 0
M  V30 1943 H 185.607 -3.84951 2.9944 0
M  V30 1944 H 184.612 -2.52763 4.88253 0
M  V30 1945 H 185.837 -3.18822 5.99608 0
M  V30 1946 H 183.783 -4.81729 4.45279 0
M  V30 1947 H 183.7 -4.41535 6.13664 0
M  V30 1948 H 184.968 -5.45817 5.5651 0
M  V30 1949 N 189.197 -1.51736 -0.425897 0
M  V30 1950 C 190.613 -1.40166 -0.76326 0
M  V30 1951 C 190.813 -0.492962 -1.95377 0
M  V30 1952 O 189.869 0.0475815 -2.52455 0
M  V30 1953 C 191.182 -2.82403 -1.03291 0
M  V30 1954 C 192.73 -2.91632 -1.13665 0
M  V30 1955 C 193.205 -4.34801 -1.43916 0
M  V30 1956 N 194.696 -4.3796 -1.50816 0
M  V30 1957 C 195.431 -5.4578 -1.75817 0
M  V30 1958 N 194.927 -6.63744 -1.98534 0
M  V30 1959 N 196.72 -5.33274 -1.77694 0
M  V30 1960 H 188.871 -2.09361 0.358 0
M  V30 1961 H 191.134 -0.942941 0.0978094 0
M  V30 1962 H 190.84 -3.50943 -0.230696 0
M  V30 1963 H 190.714 -3.22428 -1.95754 0
M  V30 1964 H 193.101 -2.23284 -1.92947 0
M  V30 1965 H 193.182 -2.55088 -0.190756 0
M  V30 1966 H 192.826 -5.03703 -0.65157 0
M  V30 1967 H 192.756 -4.68868 -2.39729 0
M  V30 1968 H 195.247 -3.52919 -1.35118 0
M  V30 1969 H 195.56 -7.41704 -2.17013 0
M  V30 1970 H 193.905 -6.66839 -1.95832 0
M  V30 1971 H 197.096 -4.40098 -1.59473 0
M  V30 1972 H 197.269 -6.1738 -1.9684 0
M  V30 1973 N 190.675 0.682077 -1.42076 0
M  V30 1974 C 191.625 1.78823 -1.41444 0
M  V30 1975 C 192.609 1.58323 -0.28681 0
M  V30 1976 O 193.801 1.68926 -0.528498 0
M  V30 1977 C 190.93 3.17232 -1.3122 0
M  V30 1978 C 190.016 3.4338 -2.489 0
M  V30 1979 N 190.407 3.40152 -3.7434 0
M  V30 1980 C 188.705 3.73986 -2.43003 0
M  V30 1981 C 189.406 3.65581 -4.52466 0
M  V30 1982 N 188.382 3.85989 -3.8277 0
M  V30 1983 H 192.184 1.7471 -2.36334 0
M  V30 1984 H 189.698 0.882622 -1.36321 0
M  V30 1985 H 191.695 3.96489 -1.2885 0
M  V30 1986 H 190.355 3.22547 -0.373263 0
M  V30 1987 H 191.366 3.20221 -4.07037 0
M  V30 1988 H 188.043 3.86591 -1.57651 0
M  V30 1989 H 189.433 3.69108 -5.61435 0
M  V30 1990 N 192.153 1.28127 0.917671 0
M  V30 1991 C 193.401 1.14825 1.66312 0
M  V30 1992 C 193.722 -0.304379 1.9261 0
M  V30 1993 O 192.992 -1.21149 1.53947 0
M  V30 1994 H 191.572 0.421953 0.616413 0
M  V30 1995 H 194.234 1.608 1.10134 0
M  V30 1996 H 193.33 1.68489 2.62712 0
M  V30 1997 N 193.631 -1.12557 1.10312 0
M  V30 1998 C 195.047 -1.36036 0.834649 0
M  V30 1999 C 195.247 -1.93946 -0.546539 0
M  V30 2000 O 194.303 -2.16484 -1.29966 0
M  V30 2001 C 195.616 -2.30312 1.9333 0
M  V30 2002 C 197.164 -2.43906 1.9616 0
M  V30 2003 C 197.639 -3.41496 3.05195 0
M  V30 2004 N 199.13 -3.49053 3.04494 0
M  V30 2005 C 199.865 -4.24471 3.85502 0
M  V30 2006 N 199.361 -5.02966 4.76442 0
M  V30 2007 N 201.154 -4.19864 3.73725 0
M  V30 2008 H 193.305 -0.733246 1.99342 0
M  V30 2009 H 195.568 -0.385234 0.866198 0
M  V30 2010 H 195.274 -1.94933 2.92735 0
M  V30 2011 H 195.148 -3.30421 1.81939 0
M  V30 2012 H 197.535 -2.78567 0.973886 0
M  V30 2013 H 197.616 -1.4369 2.11629 0
M  V30 2014 H 197.26 -3.07565 4.04186 0
M  V30 2015 H 197.19 -4.41539 2.86968 0
M  V30 2016 H 199.681 -2.93053 2.38596 0
M  V30 2017 H 199.994 -5.57846 5.34815 0
M  V30 2018 H 198.339 -5.02167 4.80472 0
M  V30 2019 H 201.53 -3.57623 3.02032 0
M  V30 2020 H 201.703 -4.78386 4.37093 0
M  V30 2021 N 195.109 -0.891671 -1.2995 0
M  V30 2022 C 196.358 -0.509521 -1.95158 0
M  V30 2023 C 196.671 0.947388 -1.71125 0
M  V30 2024 O 197.877 1.43669 -2.30372 0
M  V30 2025 C 196.333 -0.860315 -3.49466 0
M  V30 2026 C 195.941 -2.33545 -3.8231 0
M  V30 2027 C 197.685 -0.547687 -4.20952 0
M  V30 2028 C 195.592 -2.62752 -5.29826 0
M  V30 2029 H 194.522 -0.18682 -0.730489 0
M  V30 2030 H 197.173 -1.08756 -1.47798 0
M  V30 2031 H 195.555 -0.211285 -3.95436 0
M  V30 2032 H 196.729 -3.02936 -3.47227 0
M  V30 2033 H 195.044 -2.61629 -3.23944 0
M  V30 2034 H 197.641 -0.742854 -5.29515 0
M  V30 2035 H 197.984 0.51332 -4.13123 0
M  V30 2036 H 198.517 -1.1542 -3.80688 0
M  V30 2037 H 195.256 -3.6762 -5.42712 0
M  V30 2038 H 194.776 -1.97977 -5.66185 0
M  V30 2039 H 196.455 -2.48601 -5.97333 0
M  V30 2040 N 196.587 1.43421 -0.653314 0
M  V30 2041 C 197.836 2.01032 -0.164076 0
M  V30 2042 C 198.149 1.52147 1.22926 0
M  V30 2043 O 199.355 2.02031 1.81371 0
M  V30 2044 C 197.811 3.59082 -0.24252 0
M  V30 2045 C 197.419 4.1696 -1.63855 0
M  V30 2046 C 199.163 4.24079 0.18911 0
M  V30 2047 C 197.07 5.67304 -1.67092 0
M  V30 2048 H 196 0.751798 -0.0575769 0
M  V30 2049 H 198.651 1.6439 -0.815362 0
M  V30 2050 H 197.033 3.93125 0.476276 0
M  V30 2051 H 198.207 3.94416 -2.38271 0
M  V30 2052 H 196.522 3.64335 -2.01616 0
M  V30 2053 H 199.119 5.34381 0.184775 0
M  V30 2054 H 199.462 3.98005 1.22056 0
M  V30 2055 H 199.995 3.94918 -0.477938 0
M  V30 2056 H 196.734 5.98145 -2.68146 0
M  V30 2057 H 196.254 5.91904 -0.970014 0
M  V30 2058 H 197.933 6.31344 -1.4147 0
M  V30 2059 N 198.065 0.39524 1.52563 0
M  V30 2060 C 199.293 -0.184943 2.06072 0
M  V30 2061 C 199.708 -1.40021 1.26647 0
M  V30 2062 O 199.065 -1.79767 0.314672 0
M  V30 2063 C 199.116 -0.549179 3.57304 0
M  V30 2064 O 198.837 0.617813 4.33722 0
M  V30 2065 C 200.338 -1.18459 4.2718 0
M  V30 2066 H 197.558 -0.0265025 0.670476 0
M  V30 2067 H 200.102 0.562184 1.96621 0
M  V30 2068 H 198.257 -1.2462 3.66809 0
M  V30 2069 H 198.671 0.317091 5.23541 0
M  V30 2070 H 200.145 -1.38976 5.34219 0
M  V30 2071 H 200.622 -2.15368 3.82771 0
M  V30 2072 H 201.228 -0.528163 4.22008 0
M  V30 2073 N 199.544 -1.57102 0.125237 0
M  V30 2074 C 200.793 -1.94582 -0.531095 0
M  V30 2075 C 201.106 -1.01126 -1.6743 0
M  V30 2076 O 202.312 -1.28097 -2.39381 0
M  V30 2077 C 200.768 -3.45839 -0.996164 0
M  V30 2078 C 200.376 -4.47842 0.118926 0
M  V30 2079 C 202.12 -3.92227 -1.62352 0
M  V30 2080 C 200.027 -5.90284 -0.363192 0
M  V30 2081 H 198.957 -0.726391 -0.20217 0
M  V30 2082 H 201.608 -1.82339 0.206092 0
M  V30 2083 H 199.99 -3.53338 -1.78796 0
M  V30 2084 H 201.164 -4.52018 0.895358 0
M  V30 2085 H 199.479 -4.11243 0.653324 0
M  V30 2086 H 202.076 -4.96069 -1.99548 0
M  V30 2087 H 202.419 -3.32552 -2.50429 0
M  V30 2088 H 202.952 -3.87554 -0.897019 0
M  V30 2089 H 199.691 -6.53728 0.481679 0
M  V30 2090 H 199.211 -5.89515 -1.10597 0
M  V30 2091 H 200.89 -6.41752 -0.822377 0
M  V30 2092 N 201.022 0.148545 -1.56898 0
M  V30 2093 C 202.27 0.859717 -1.82902 0
M  V30 2094 C 202.591 1.81775 -0.70588 0
M  V30 2095 O 201.861 1.93994 0.272586 0
M  V30 2096 H 200.441 0.320469 -0.674766 0
M  V30 2097 H 203.103 0.142918 -1.94375 0
M  V30 2098 H 202.199 1.4229 -2.77777 0
M  V30 2099 N 202.5 1.5196 0.417844 0
M  V30 2100 C 203.725 1.69717 1.1921 0
M  V30 2101 C 204.15 0.402148 1.83751 0
M  V30 2102 O 203.508 -0.639593 1.69643 0
M  V30 2103 C 203.556 2.82794 2.2374 0
M  V30 2104 O 202.66 2.47756 3.29683 0
M  V30 2105 H 202.001 0.565263 0.348387 0
M  V30 2106 H 204.531 1.98621 0.490985 0
M  V30 2107 H 204.541 3.07452 2.68212 0
M  V30 2108 H 203.216 3.76756 1.76146 0
M  V30 2109 H 201.793 2.33739 2.90552 0
M  V30 2110 N 203.978 -0.674533 1.42435 0
M  V30 2111 C 205.224 -1.43671 1.43131 0
M  V30 2112 C 205.557 -1.94142 0.0476021 0
M  V30 2113 O 204.832 -1.70924 -0.928188 0
M  V30 2114 C 205.115 -2.63355 2.45594 0
M  V30 2115 C 204.968 -2.18514 3.93156 0
M  V30 2116 C 206.287 -3.65571 2.45043 0
M  V30 2117 H 203.406 -0.521077 0.521198 0
M  V30 2118 H 206.048 -0.766551 1.7385 0
M  V30 2119 H 204.198 -3.2053 2.19528 0
M  V30 2120 H 205.87 -1.66504 4.30202 0
M  V30 2121 H 204.113 -1.50086 4.07009 0
M  V30 2122 H 204.784 -3.04484 4.60428 0
M  V30 2123 H 207.26 -3.18113 2.68223 0
M  V30 2124 H 206.136 -4.46893 3.18713 0
M  V30 2125 H 206.397 -4.16716 1.47649 0
M  V30 2126 N 205.456 -1.28612 -0.910864 0
M  V30 2127 C 206.702 -1.16106 -1.66274 0
M  V30 2128 C 207.035 0.289113 -1.92036 0
M  V30 2129 O 206.31 1.21 -1.52281 0
M  V30 2130 C 206.593 -1.96309 -3.01885 0
M  V30 2131 C 206.446 -3.49405 -2.8326 0
M  V30 2132 C 207.765 -1.78076 -4.02463 0
M  V30 2133 H 204.884 -0.423152 -0.603417 0
M  V30 2134 H 207.526 -1.57961 -1.05586 0
M  V30 2135 H 205.676 -1.60742 -3.53687 0
M  V30 2136 H 207.348 -3.94894 -2.38446 0
M  V30 2137 H 205.591 -3.74893 -2.18261 0
M  V30 2138 H 206.262 -4.00784 -3.79574 0
M  V30 2139 H 208.738 -2.0912 -3.59733 0
M  V30 2140 H 207.614 -2.36561 -4.95308 0
M  V30 2141 H 207.875 -0.733008 -4.35981 0
M  V30 2142 N 206.934 1.1197 -1.10907 0
M  V30 2143 C 208.182 1.83225 -0.852819 0
M  V30 2144 C 208.503 1.84769 0.623341 0
M  V30 2145 O 207.773 1.3143 1.45269 0
M  V30 2146 H 206.353 0.67849 -0.312507 0
M  V30 2147 H 209.015 1.3556 -1.40033 0
M  V30 2148 H 208.111 2.87265 -1.22005 0
M  V30 2149 N 208.412 0.89855 1.29475 0
M  V30 2150 C 209.64 0.539261 1.99749 0
M  V30 2151 C 210.055 -0.875716 1.67262 0
M  V30 2152 O 209.412 -1.57786 0.917049 0
M  V30 2153 C 209.463 0.72061 3.54245 0
M  V30 2154 O 209.184 2.07989 3.8558 0
M  V30 2155 C 210.685 0.366118 4.41786 0
M  V30 2156 H 207.905 0.207047 0.638258 0
M  V30 2157 H 210.449 1.20758 1.65039 0
M  V30 2158 H 208.604 0.0994862 3.87272 0
M  V30 2159 H 209.018 2.10841 4.80257 0
M  V30 2160 H 210.492 0.543848 5.49314 0
M  V30 2161 H 210.969 -0.696763 4.33638 0
M  V30 2162 H 211.575 0.964135 4.14228 0
M  V30 2163 N 209.89 -1.43072 0.660911 0
M  V30 2164 C 210.823 -2.28074 -0.0758862 0
M  V30 2165 C 211.801 -1.40271 -0.822362 0
M  V30 2166 O 212.985 -1.69713 -0.820352 0
M  V30 2167 C 210.112 -3.19843 -1.11437 0
M  V30 2168 C 209.158 -4.23957 -0.465069 0
M  V30 2169 S 209.991 -5.29978 0.767078 0
M  V30 2170 C 211.147 -6.25314 -0.270682 0
M  V30 2171 H 211.38 -2.90216 0.645139 0
M  V30 2172 H 208.913 -1.47697 0.449995 0
M  V30 2173 H 210.871 -3.73257 -1.70849 0
M  V30 2174 H 209.532 -2.56863 -1.80776 0
M  V30 2175 H 208.725 -4.88299 -1.24819 0
M  V30 2176 H 208.327 -3.73959 0.0551242 0
M  V30 2177 H 210.619 -6.67932 -1.13459 0
M  V30 2178 H 211.562 -7.07293 0.337916 0
M  V30 2179 H 211.97 -5.61195 -0.609937 0
M  V30 2180 N 211.368 -0.403325 -1.52352 0
M  V30 2181 C 212.616 0.174003 -2.0135 0
M  V30 2182 C 212.937 1.46139 -1.29106 0
M  V30 2183 O 212.207 1.91448 -0.415253 0
M  V30 2184 H 210.787 0.0672911 -0.743963 0
M  V30 2185 H 213.449 -0.538235 -1.87321 0
M  V30 2186 H 212.545 0.374254 -3.09848 0
M  V30 2187 N 212.846 1.57033 -0.133567 0
M  V30 2188 C 213.794 2.17348 0.828412 0
M  V30 2189 C 214.788 1.12671 1.26498 0
M  V30 2190 O 215.994 1.30947 1.23502 0
M  V30 2191 H 212.369 0.695775 0.285309 0
M  V30 2192 H 214.34 2.96935 0.295372 0
M  V30 2193 C 213.089 2.79893 2.06289 0
M  V30 2194 H 212.412 3.60147 1.73592 0
M  V30 2195 H 213.852 3.25615 2.71572 0
M  V30 2196 C 212.311 1.77713 2.86216 0
M  V30 2197 O 212.841 1.23937 3.82103 0
M  V30 2198 N 211.047 1.47321 2.50489 0
M  V30 2199 H 210.594 1.91243 1.7258 0
M  V30 2200 H 210.552 0.79199 3.04261 0
M  V30 2201 N 214.325 -0.140222 1.56975 0
M  V30 2202 C 215.573 -0.850005 1.83356 0
M  V30 2203 C 215.894 -1.81399 0.71551 0
M  V30 2204 O 215.164 -1.94136 -0.262294 0
M  V30 2205 H 213.744 -0.316886 0.676456 0
M  V30 2206 H 216.406 -0.132608 1.94448 0
M  V30 2207 H 215.502 -1.40814 2.78528 0
M  V30 2208 N 215.803 -1.52179 -0.40978 0
M  V30 2209 C 217.051 -1.65878 -1.15451 0
M  V30 2210 C 217.372 -0.390771 -1.91044 0
M  V30 2211 O 216.642 0.594323 -1.86667 0
M  V30 2212 H 215.222 -0.611405 -0.429177 0
M  V30 2213 H 217.884 -1.89219 -0.467134 0
M  V30 2214 H 216.98 -2.49954 -1.86894 0
M  V30 2215 N 217.281 0.66697 -1.42791 0
M  V30 2216 C 218.213 1.7925 -1.42836 0
M  V30 2217 C 219.226 1.59496 -0.326333 0
M  V30 2218 O 220.415 1.6847 -0.589916 0
M  V30 2219 C 217.515 3.16476 -1.21229 0
M  V30 2220 C 216.688 3.63011 -2.44013 0
M  V30 2221 C 215.747 4.78993 -2.17834 0
M  V30 2222 O 214.773 4.89137 -2.91091 0
M  V30 2223 N 215.975 5.68248 -1.18635 0
M  V30 2224 H 218.74 1.79695 -2.39854 0
M  V30 2225 H 216.301 0.850338 -1.37771 0
M  V30 2226 H 218.293 3.91734 -1.01621 0
M  V30 2227 H 216.863 3.10884 -0.32706 0
M  V30 2228 H 216.083 2.78346 -2.79137 0
M  V30 2229 H 217.371 3.90845 -3.25757 0
M  V30 2230 H 216.769 5.62712 -0.580615 0
M  V30 2231 H 215.326 6.43285 -1.05013 0
M  V30 2232 N 218.759 1.29093 0.90403 0
M  V30 2233 C 219.722 1.1386 1.98919 0
M  V30 2234 C 220.722 0.0753457 1.60623 0
M  V30 2235 O 221.912 0.321931 1.71199 0
M  V30 2236 C 219.044 0.740198 3.32767 0
M  V30 2237 H 220.237 2.10246 2.13861 0
M  V30 2238 H 217.79 1.12218 1.08797 0
M  V30 2239 H 218.525 -0.223997 3.23525 0
M  V30 2240 H 218.31 1.50838 3.61926 0
M  V30 2241 H 219.8 0.656546 4.12407 0
M  V30 2242 N 220.237 -1.11381 1.11499 0
M  V30 2243 C 221.185 -2.19522 0.768956 0
M  V30 2244 C 222.179 -1.67693 -0.239857 0
M  V30 2245 O 223.385 -1.79727 -0.0990755 0
M  V30 2246 H 219.76 -0.715711 0.230786 0
M  V30 2247 H 221.731 -2.45954 1.68964 0
M  V30 2248 C 220.48 -3.46945 0.229073 0
M  V30 2249 H 219.803 -3.8718 0.996596 0
M  V30 2250 H 221.243 -4.23993 0.0251441 0
M  V30 2251 C 219.702 -3.2042 -1.04079 0
M  V30 2252 O 220.232 -3.41178 -2.12038 0
M  V30 2253 N 218.438 -2.74151 -0.963823 0
M  V30 2254 H 217.985 -2.57459 -0.0851722 0
M  V30 2255 H 217.943 -2.56781 -1.81414 0
M  V30 2256 N 221.715 -0.905404 -1.28997 0
M  V30 2257 C 222.945 -0.549049 -1.99171 0
M  V30 2258 C 223.353 0.87203 -1.67906 0
M  V30 2259 O 222.696 1.58796 -0.923561 0
M  V30 2260 C 222.758 -0.668306 -3.53234 0
M  V30 2261 C 222.422 -2.0574 -4.08069 0
M  V30 2262 C 223.419 -3.0292 -4.22534 0
M  V30 2263 C 221.104 -2.36833 -4.42962 0
M  V30 2264 C 223.098 -4.29314 -4.71135 0
M  V30 2265 C 220.785 -3.63467 -4.91258 0
M  V30 2266 C 221.783 -4.59522 -5.053 0
M  V30 2267 O 221.471 -5.83907 -5.52546 0
M  V30 2268 H 221.203 -0.208784 -0.64295 0
M  V30 2269 H 223.757 -1.21836 -1.65363 0
M  V30 2270 H 221.987 0.0580547 -3.86656 0
M  V30 2271 H 223.676 -0.320273 -4.04634 0
M  V30 2272 H 224.442 -2.80216 -3.95859 0
M  V30 2273 H 220.321 -1.62824 -4.31288 0
M  V30 2274 H 223.865 -5.04293 -4.8201 0
M  V30 2275 H 219.762 -3.86 -5.17372 0
M  V30 2276 H 220.53 -5.86578 -5.70849 0
M  V30 2277 N 223.193 1.4272 -0.668489 0
M  V30 2278 C 224.156 2.292 0.00448567 0
M  V30 2279 C 225.156 1.43001 0.735339 0
M  V30 2280 O 226.346 1.64461 0.57429 0
M  V30 2281 C 223.478 3.25375 1.01705 0
M  V30 2282 H 224.671 2.90199 -0.756608 0
M  V30 2283 H 222.224 1.50254 -0.430506 0
M  V30 2284 H 222.959 2.69301 1.80686 0
M  V30 2285 H 222.744 3.88944 0.496463 0
M  V30 2286 H 224.234 3.90245 1.48655 0
M  V30 2287 N 224.671 0.411399 1.52136 0
M  V30 2288 C 225.634 -0.401089 2.25663 0
M  V30 2289 C 226.634 -0.971732 1.28117 0
M  V30 2290 O 227.824 -0.850254 1.52041 0
M  V30 2291 C 224.956 -1.56483 3.02863 0
M  V30 2292 H 226.149 0.24295 2.98914 0
M  V30 2293 H 223.702 0.163968 1.55438 0
M  V30 2294 H 224.437 -2.24567 2.33967 0
M  V30 2295 H 224.222 -1.16211 3.74483 0
M  V30 2296 H 225.712 -2.13951 3.58629 0
M  V30 2297 N 226.149 -1.5696 0.141893 0
M  V30 2298 C 227.112 -2.15316 -0.785587 0
M  V30 2299 C 228.112 -1.09366 -1.1788 0
M  V30 2300 O 229.302 -1.35031 -1.10056 0
M  V30 2301 C 226.434 -2.71211 -2.06537 0
M  V30 2302 H 227.627 -2.98608 -0.278041 0
M  V30 2303 H 225.18 -1.5593 -0.107519 0
M  V30 2304 H 225.915 -1.91571 -2.6167 0
M  V30 2305 H 225.7 -3.4872 -1.79268 0
M  V30 2306 H 227.19 -3.16189 -2.72789 0
M  V30 2307 N 227.627 0.131896 -1.57047 0
M  V30 2308 C 228.574 1.16236 -1.99393 0
M  V30 2309 C 229.544 1.41863 -0.863943 0
M  V30 2310 O 230.729 1.53946 -1.12718 0
M  V30 2311 C 227.869 2.48708 -2.39245 0
M  V30 2312 C 226.982 2.30127 -3.65603 0
M  V30 2313 C 226.117 3.55738 -3.94492 0
M  V30 2314 C 225.156 3.32259 -5.14073 0
M  V30 2315 N 224.293 4.50039 -5.38896 0
M  V30 2316 H 229.133 0.794251 -2.87221 0
M  V30 2317 H 226.67 0.380707 -1.42088 0
M  V30 2318 H 228.628 3.25969 -2.60384 0
M  V30 2319 H 227.258 2.83437 -1.54478 0
M  V30 2320 H 226.31 1.43845 -3.52154 0
M  V30 2321 H 227.622 2.08746 -4.5302 0
M  V30 2322 H 226.776 4.41423 -4.1621 0
M  V30 2323 H 225.515 3.80138 -3.05526 0
M  V30 2324 H 224.52 2.44963 -4.92212 0
M  V30 2325 H 225.745 3.09242 -6.04604 0
M  V30 2326 H 223.691 4.74584 -4.52886 0
M  V30 2327 H 223.608 4.31716 -6.2061 0
M  V30 2328 H 224.876 5.36895 -5.65123 0
M  V30 2329 N 229.106 1.52395 0.401703 0
M  V30 2330 C 230.069 1.75636 1.47257 0
M  V30 2331 C 231.069 0.62628 1.48103 0
M  V30 2332 O 232.259 0.894227 1.49497 0
M  V30 2333 C 229.391 1.84553 2.86624 0
M  V30 2334 H 230.584 2.71241 1.27938 0
M  V30 2335 H 228.137 1.42923 0.632662 0
M  V30 2336 H 228.872 0.908882 3.11303 0
M  V30 2337 H 228.657 2.66715 2.87412 0
M  V30 2338 H 230.147 2.04251 3.64241 0
M  V30 2339 N 230.584 -0.659388 1.43143 0
M  V30 2340 C 231.832 -1.41654 1.44147 0
M  V30 2341 C 232.153 -1.94893 0.0645739 0
M  V30 2342 O 231.423 -1.74044 -0.899198 0
M  V30 2343 H 230.003 -0.525708 0.530697 0
M  V30 2344 H 232.665 -0.778097 1.78694 0
M  V30 2345 H 231.761 -2.26195 2.1504 0
M  V30 2346 N 232.062 -1.29571 -0.897171 0
M  V30 2347 C 232.992 -1.17473 -2.01798 0
M  V30 2348 C 233.973 -0.068323 -1.69963 0
M  V30 2349 O 235.158 -0.248239 -1.92607 0
M  V30 2350 C 232.288 -0.853099 -3.36659 0
M  V30 2351 C 231.242 -1.9161 -3.82713 0
M  V30 2352 C 230.568 -1.44773 -5.14728 0
M  V30 2353 C 231.868 -3.32535 -4.02763 0
M  V30 2354 H 233.562 -2.11237 -2.12177 0
M  V30 2355 H 231.108 -1.01699 -1.01948 0
M  V30 2356 H 233.061 -0.755165 -4.14578 0
M  V30 2357 H 231.785 0.120236 -3.26379 0
M  V30 2358 H 230.444 -2.00346 -3.07013 0
M  V30 2359 H 230.092 -0.462995 -5.00865 0
M  V30 2360 H 229.792 -2.15865 -5.46513 0
M  V30 2361 H 231.316 -1.36334 -5.95185 0
M  V30 2362 H 232.73 -3.26626 -4.71156 0
M  V30 2363 H 231.127 -4.01607 -4.45905 0
M  V30 2364 H 232.197 -3.75326 -3.07016 0
M  V30 2365 N 233.54 1.10788 -1.12088 0
M  V30 2366 C 234.789 1.82036 -0.868659 0
M  V30 2367 C 235.102 1.85929 0.607426 0
M  V30 2368 O 236.308 2.53346 0.97613 0
M  V30 2369 C 234.764 3.26951 -1.50435 0
M  V30 2370 C 234.372 3.31367 -3.01496 0
M  V30 2371 C 236.116 4.03053 -1.33225 0
M  V30 2372 C 234.023 4.7072 -3.58017 0
M  V30 2373 H 232.953 0.682108 -0.321318 0
M  V30 2374 H 235.604 1.24618 -1.34694 0
M  V30 2375 H 233.986 3.84343 -0.953735 0
M  V30 2376 H 235.16 2.83819 -3.6302 0
M  V30 2377 H 233.475 2.6875 -3.18061 0
M  V30 2378 H 236.072 5.05981 -1.72878 0
M  V30 2379 H 236.415 4.15387 -0.275529 0
M  V30 2380 H 236.948 3.52066 -1.85188 0
M  V30 2381 H 233.687 4.63585 -4.63432 0
M  V30 2382 H 233.207 5.1865 -3.01268 0
M  V30 2383 H 234.886 5.39685 -3.56859 0
M  V30 2384 N 235.018 0.912232 1.28515 0
M  V30 2385 C 236.266 0.543523 1.94654 0
M  V30 2386 C 236.587 -0.9155 1.72173 0
M  V30 2387 O 235.857 -1.64708 1.06058 0
M  V30 2388 H 234.437 0.198017 0.720277 0
M  V30 2389 H 237.099 1.16126 1.56527 0
M  V30 2390 H 236.195 0.736684 3.03281 0
M  V30 2391 N 236.496 -1.42363 0.676048 0
M  V30 2392 C 237.743 -2.01522 0.19883 0
M  V30 2393 C 238.071 -1.53456 -1.19505 0
M  V30 2394 O 237.326 -0.727967 -1.81657 0
M  V30 2395 C 237.625 -3.56929 0.183431 0
M  V30 2396 C 237.291 -4.24431 1.52215 0
M  V30 2397 C 235.953 -4.42585 1.8887 0
M  V30 2398 C 238.305 -4.62459 2.40377 0
M  V30 2399 C 235.633 -4.96039 3.13309 0
M  V30 2400 C 237.985 -5.17294 3.64129 0
M  V30 2401 C 236.649 -5.33661 4.00951 0
M  V30 2402 H 235.919 -0.737419 0.0727571 0
M  V30 2403 H 238.566 -1.70531 0.871281 0
M  V30 2404 H 236.871 -3.87594 -0.572532 0
M  V30 2405 H 238.568 -4.00486 -0.203035 0
M  V30 2406 H 235.158 -4.10661 1.22701 0
M  V30 2407 H 239.342 -4.48105 2.13343 0
M  V30 2408 H 234.598 -5.06896 3.41857 0
M  V30 2409 H 238.772 -5.45704 4.32644 0
M  V30 2410 H 236.399 -5.74845 4.9745 0
M  V30 2411 N 237.974 -0.419461 -1.51915 0
M  V30 2412 C 239.199 0.154572 -2.06823 0
M  V30 2413 C 239.624 1.3722 -1.28656 0
M  V30 2414 O 238.982 1.78461 -0.319583 0
M  V30 2415 C 239.03 0.473172 -3.57482 0
M  V30 2416 O 238.134 1.56255 -3.81652 0
M  V30 2417 H 237.475 0.0096924 -0.663929 0
M  V30 2418 H 240.005 -0.595642 -1.95738 0
M  V30 2419 H 240.015 0.728825 -4.01438 0
M  V30 2420 H 238.69 -0.416873 -4.13805 0
M  V30 2421 H 237.267 1.29825 -3.49571 0
M  V30 2422 N 239.452 1.56882 -0.150215 0
M  V30 2423 C 240.399 2.16922 0.788244 0
M  V30 2424 C 241.369 1.10303 1.24187 0
M  V30 2425 O 242.554 1.38359 1.31383 0
M  V30 2426 C 239.694 2.79754 2.02068 0
M  V30 2427 C 238.807 4.00775 1.61257 0
M  V30 2428 C 237.942 4.51595 2.79705 0
M  V30 2429 C 236.981 5.65074 2.35282 0
M  V30 2430 N 236.118 6.10499 3.4675 0
M  V30 2431 H 240.958 2.96779 0.269444 0
M  V30 2432 H 238.495 1.46599 0.12128 0
M  V30 2433 H 240.453 3.14329 2.74323 0
M  V30 2434 H 239.083 2.02536 2.51354 0
M  V30 2435 H 238.135 3.72158 0.787553 0
M  V30 2436 H 239.447 4.82978 1.24633 0
M  V30 2437 H 238.601 4.88242 3.60145 0
M  V30 2438 H 237.34 3.68406 3.19576 0
M  V30 2439 H 236.345 5.28 1.53283 0
M  V30 2440 H 237.57 6.50052 1.96493 0
M  V30 2441 H 235.516 5.30243 3.86236 0
M  V30 2442 H 235.433 6.87637 3.14152 0
M  V30 2443 H 236.701 6.51791 4.27537 0
M  V30 2444 N 240.93 -0.123565 1.57115 0
M  V30 2445 C 242.155 -0.850398 1.89164 0
M  V30 2446 C 242.58 -1.7286 0.741688 0
M  V30 2447 O 241.938 -1.78665 -0.307958 0
M  V30 2448 C 241.986 -1.66353 3.19936 0
M  V30 2449 O 241.09 -2.77004 3.0552 0
M  V30 2450 H 240.431 -0.235454 0.620852 0
M  V30 2451 H 242.961 -0.107335 2.04318 0
M  V30 2452 H 242.971 -2.05372 3.52543 0
M  V30 2453 H 241.646 -1.01881 4.03228 0
M  V30 2454 H 240.223 -2.41221 2.84371 0
M  V30 2455 N 242.408 -1.52605 -0.393616 0
M  V30 2456 C 243.338 -1.80022 -1.48709 0
M  V30 2457 C 244.319 -0.651995 -1.57108 0
M  V30 2458 O 245.504 -0.89913 -1.72132 0
M  V30 2459 C 242.634 -1.96492 -2.86371 0
M  V30 2460 C 241.588 -3.12161 -2.92813 0
M  V30 2461 C 240.914 -3.13877 -4.3288 0
M  V30 2462 C 242.214 -4.51322 -2.6288 0
M  V30 2463 H 243.908 -2.71589 -1.26015 0
M  V30 2464 H 241.454 -1.30684 -0.604778 0
M  V30 2465 H 243.407 -2.14255 -3.62867 0
M  V30 2466 H 242.131 -1.01611 -3.10391 0
M  V30 2467 H 240.79 -2.94173 -2.18764 0
M  V30 2468 H 240.438 -2.16687 -4.53933 0
M  V30 2469 H 240.138 -3.91576 -4.38112 0
M  V30 2470 H 241.662 -3.33789 -5.1129 0
M  V30 2471 H 243.076 -4.69435 -3.29096 0
M  V30 2472 H 241.473 -5.31053 -2.79468 0
M  V30 2473 H 242.543 -4.58353 -1.58242 0
M  V30 2474 N 243.887 0.651787 -1.4349 0
M  V30 2475 C 244.85 1.74647 -1.48429 0
M  V30 2476 C 245.85 1.56513 -0.368817 0
M  V30 2477 O 247.04 1.62385 -0.630623 0
M  V30 2478 C 244.172 3.13533 -1.33827 0
M  V30 2479 H 245.365 1.71649 -2.4592 0
M  V30 2480 H 242.918 0.863573 -1.30277 0
M  V30 2481 H 243.653 3.22142 -0.37349 0
M  V30 2482 H 243.438 3.28101 -2.14691 0
M  V30 2483 H 244.928 3.93356 -1.40218 0
M  V30 2484 N 245.365 1.30045 0.890287 0
M  V30 2485 C 246.781 1.08261 1.17268 0
M  V30 2486 C 246.981 -0.160063 2.00863 0
M  V30 2487 O 246.037 -0.855181 2.37577 0
M  V30 2488 C 247.35 2.34323 1.8845 0
M  V30 2489 C 248.898 2.39735 2.01237 0
M  V30 2490 C 249.373 3.65625 2.7583 0
M  V30 2491 N 250.864 3.66402 2.83379 0
M  V30 2492 C 251.599 4.60498 3.41657 0
M  V30 2493 N 251.095 5.64933 4.01026 0
M  V30 2494 N 252.888 4.48051 3.39421 0
M  V30 2495 H 245.039 2.09777 0.332762 0
M  V30 2496 H 247.302 0.92446 0.209948 0
M  V30 2497 H 247.008 3.2498 1.34465 0
M  V30 2498 H 246.882 2.4256 2.88867 0
M  V30 2499 H 249.269 1.4956 2.54393 0
M  V30 2500 H 249.35 2.35476 0.999232 0
M  V30 2501 H 248.994 4.56156 2.23347 0
M  V30 2502 H 248.924 3.67144 3.77509 0
M  V30 2503 H 251.415 2.90896 2.41222 0
M  V30 2504 H 251.728 6.32841 4.43545 0
M  V30 2505 H 250.073 5.68732 3.99461 0
M  V30 2506 H 253.264 3.65649 2.92264 0
M  V30 2507 H 253.437 5.21565 3.84544 0
M  V30 2508 N 246.843 -1.10192 1.12674 0
M  V30 2509 C 247.753 -2.20172 0.810026 0
M  V30 2510 C 248.769 -1.72821 -0.202188 0
M  V30 2511 O 249.945 -2.01369 -0.0351691 0
M  V30 2512 C 247.01 -3.45631 0.272007 0
M  V30 2513 C 246.071 -4.07704 1.34447 0
M  V30 2514 C 245.304 -5.27175 0.832029 0
M  V30 2515 O 245.527 -5.69425 -0.333284 0
M  V30 2516 O 244.461 -5.80168 1.60277 0
M  V30 2517 H 248.287 -2.49701 1.72867 0
M  V30 2518 H 245.872 -1.18977 0.903597 0
M  V30 2519 H 247.754 -4.21394 -0.0230219 0
M  V30 2520 H 246.429 -3.17723 -0.619164 0
M  V30 2521 H 245.336 -3.33614 1.6927 0
M  V30 2522 H 246.669 -4.3982 2.2095 0
M  V30 2523 N 248.321 -0.919034 -1.28029 0
M  V30 2524 C 249.567 -0.555757 -1.95036 0
M  V30 2525 C 249.9 0.899198 -1.72128 0
M  V30 2526 O 249.175 1.64023 -1.04531 0
M  V30 2527 C 249.458 -0.872024 -3.49382 0
M  V30 2528 C 249.311 -2.3801 -3.81669 0
M  V30 2529 C 250.63 -0.37185 -4.38526 0
M  V30 2530 H 247.749 -0.203386 -0.708381 0
M  V30 2531 H 250.391 -1.14924 -1.51303 0
M  V30 2532 H 248.541 -0.366946 -3.86763 0
M  V30 2533 H 250.213 -2.9562 -3.54128 0
M  V30 2534 H 248.456 -2.83289 -3.28526 0
M  V30 2535 H 249.127 -2.55192 -4.8947 0
M  V30 2536 H 251.603 -0.804602 -4.08247 0
M  V30 2537 H 250.479 -0.622173 -5.45362 0
M  V30 2538 H 250.74 0.727934 -4.36066 0
M  V30 2539 N 249.799 1.42003 -0.683588 0
M  V30 2540 C 250.762 2.29191 -0.0198243 0
M  V30 2541 C 251.762 1.43773 0.72013 0
M  V30 2542 O 252.952 1.65061 0.556815 0
M  V30 2543 C 250.084 3.26435 0.982487 0
M  V30 2544 H 251.277 2.8938 -0.787345 0
M  V30 2545 H 248.83 1.49789 -0.446418 0
M  V30 2546 H 249.565 2.71203 1.77819 0
M  V30 2547 H 249.35 3.89449 0.455182 0
M  V30 2548 H 250.84 3.918 1.44508 0
M  V30 2549 N 251.277 0.427512 1.51691 0
M  V30 2550 C 252.502 -0.143601 2.06902 0
M  V30 2551 C 252.927 -1.36536 1.29382 0
M  V30 2552 O 252.285 -1.78289 0.329043 0
M  V30 2553 C 252.333 -0.454207 3.57728 0
M  V30 2554 O 251.437 -1.54228 3.82475 0
M  V30 2555 H 250.778 -0.00617128 0.663971 0
M  V30 2556 H 253.308 0.606014 1.95419 0
M  V30 2557 H 253.318 -0.707525 4.01818 0
M  V30 2558 H 251.993 0.438812 4.13579 0
M  V30 2559 H 250.57 -1.2797 3.50254 0
M  V30 2560 N 252.755 -1.56801 0.158532 0
M  V30 2561 C 254.171 -1.5837 -0.197774 0
M  V30 2562 C 254.371 -1.17334 -1.63814 0
M  V30 2563 O 253.427 -0.878988 -2.36707 0
M  V30 2564 C 254.74 -3.00615 0.0714459 0
M  V30 2565 C 256.288 -3.12999 0.00864533 0
M  V30 2566 C 256.763 -4.57313 0.250685 0
M  V30 2567 N 258.254 -4.62777 0.198014 0
M  V30 2568 C 258.989 -5.72271 0.359642 0
M  V30 2569 N 258.485 -6.90371 0.579625 0
M  V30 2570 N 260.278 -5.61318 0.296438 0
M  V30 2571 H 252.429 -1.81765 1.09887 0
M  V30 2572 H 254.692 -0.841849 0.435884 0
M  V30 2573 H 254.398 -3.35068 1.06874 0
M  V30 2574 H 254.272 -3.71683 -0.642757 0
M  V30 2575 H 256.659 -2.7838 -0.979217 0
M  V30 2576 H 256.74 -2.44393 0.755359 0
M  V30 2577 H 256.384 -4.92639 1.2357 0
M  V30 2578 H 256.314 -5.24061 -0.516489 0
M  V30 2579 H 258.805 -3.77885 0.0331115 0
M  V30 2580 H 259.118 -7.69689 0.69275 0
M  V30 2581 H 257.463 -6.92264 0.616087 0
M  V30 2582 H 260.654 -4.67932 0.125258 0
M  V30 2583 H 260.827 -6.46599 0.425831 0
M  V30 2584 N 254.233 0.115231 -1.57178 0
M  V30 2585 C 255.481 0.820727 -1.84685 0
M  V30 2586 C 255.802 1.80237 -0.744279 0
M  V30 2587 O 255.072 1.94529 0.231375 0
M  V30 2588 H 253.652 0.306084 -0.681411 0
M  V30 2589 H 256.314 0.101656 -1.94635 0
M  V30 2590 H 255.41 1.36366 -2.80733 0
M  V30 2591 N 255.711 1.52812 0.385517 0
M  V30 2592 C 256.96 1.67249 1.12741 0
M  V30 2593 C 257.273 0.4205 1.91027 0
M  V30 2594 O 258.479 0.445064 2.67827 0
M  V30 2595 C 256.935 2.95583 2.05326 0
M  V30 2596 C 256.543 4.27974 1.32447 0
M  V30 2597 C 258.287 3.19386 2.7963 0
M  V30 2598 C 256.194 5.47412 2.23818 0
M  V30 2599 H 255.124 0.6231 0.424573 0
M  V30 2600 H 257.775 1.79309 0.389924 0
M  V30 2601 H 256.157 2.77277 2.82725 0
M  V30 2602 H 257.331 4.56844 0.602495 0
M  V30 2603 H 255.646 4.10459 0.700885 0
M  V30 2604 H 258.243 4.05801 3.48181 0
M  V30 2605 H 258.586 2.34604 3.43899 0
M  V30 2606 H 259.119 3.38274 2.09322 0
M  V30 2607 H 255.858 6.34612 1.64157 0
M  V30 2608 H 255.378 5.22849 2.93921 0
M  V30 2609 H 257.057 5.81423 2.83824 0
M  V30 2610 N 257.189 -0.644168 1.43834 0
M  V30 2611 C 258.417 -1.43147 1.49387 0
M  V30 2612 C 258.832 -1.88452 0.114583 0
M  V30 2613 O 258.189 -1.60047 -0.876989 0
M  V30 2614 C 258.24 -2.66046 2.44748 0
M  V30 2615 O 257.961 -2.22633 3.77314 0
M  V30 2616 C 259.462 -3.59311 2.59635 0
M  V30 2617 H 256.682 -0.439447 0.507077 0
M  V30 2618 H 259.226 -0.78895 1.88669 0
M  V30 2619 H 257.381 -3.26418 2.08638 0
M  V30 2620 H 257.795 -3.02216 4.28679 0
M  V30 2621 H 259.269 -4.42187 3.30416 0
M  V30 2622 H 259.746 -4.07259 1.64427 0
M  V30 2623 H 260.352 -3.04816 2.96593 0
M  V30 2624 N 258.668 -1.30515 -0.883378 0
M  V30 2625 C 259.914 -1.19607 -1.63774 0
M  V30 2626 C 260.247 0.248314 -1.92606 0
M  V30 2627 O 259.522 1.17742 -1.54813 0
M  V30 2628 C 259.805 -2.02669 -2.97653 0
M  V30 2629 C 259.658 -3.55335 -2.75784 0
M  V30 2630 C 260.977 -1.86573 -3.98596 0
M  V30 2631 H 258.096 -0.435856 -0.594305 0
M  V30 2632 H 260.738 -1.60165 -1.02212 0
M  V30 2633 H 258.888 -1.68208 -3.50197 0
M  V30 2634 H 260.56 -3.99863 -2.30016 0
M  V30 2635 H 258.803 -3.79438 -2.1026 0
M  V30 2636 H 259.474 -4.08745 -3.70988 0
M  V30 2637 H 261.95 -2.16703 -3.55217 0
M  V30 2638 H 260.826 -2.47014 -4.90179 0
M  V30 2639 H 261.087 -0.825321 -4.34328 0
M  V30 2640 N 260.146 1.09593 -1.13257 0
M  V30 2641 C 261.094 2.18271 -0.803783 0
M  V30 2642 C 262.088 1.68054 0.213148 0
M  V30 2643 O 263.294 1.79862 0.0704699 0
M  V30 2644 H 259.669 0.711949 -0.242143 0
M  V30 2645 H 261.64 2.43235 -1.72856 0
M  V30 2646 C 260.389 3.46536 -0.28424 0
M  V30 2647 H 259.712 3.85545 -1.05807 0
M  V30 2648 H 261.152 4.23899 -0.0925945 0
M  V30 2649 C 259.611 3.22036 0.989684 0
M  V30 2650 O 260.141 3.44509 2.06584 0
M  V30 2651 N 258.347 2.7565 0.920086 0
M  V30 2652 H 257.894 2.57562 0.0442019 0
M  V30 2653 H 257.852 2.59635 1.77306 0
M  V30 2654 N 261.624 0.925811 1.2754 0
M  V30 2655 C 262.87 0.566092 1.94739 0
M  V30 2656 C 263.203 -0.890057 1.72603 0
M  V30 2657 O 262.478 -1.63467 1.05399 0
M  V30 2658 C 262.761 0.89054 3.48915 0
M  V30 2659 C 262.614 2.4003 3.80402 0
M  V30 2660 C 263.933 0.395101 4.38323 0
M  V30 2661 H 261.052 0.20714 0.707292 0
M  V30 2662 H 263.694 1.15725 1.50691 0
M  V30 2663 H 261.844 0.387452 3.86563 0
M  V30 2664 H 263.516 2.97494 3.52555 0
M  V30 2665 H 261.759 2.85028 3.2702 0
M  V30 2666 H 262.43 2.57785 4.8811 0
M  V30 2667 H 264.906 0.826241 4.07814 0
M  V30 2668 H 263.782 0.651086 5.45025 0
M  V30 2669 H 264.043 -0.704798 4.36446 0
M  V30 2670 N 263.102 -1.41638 0.69111 0
M  V30 2671 C 264.348 -2.01598 0.220519 0
M  V30 2672 C 264.681 -1.54594 -1.17535 0
M  V30 2673 O 263.956 -0.755177 -1.79241 0
M  V30 2674 C 264.239 -3.59062 0.273243 0
M  V30 2675 C 264.092 -4.16203 1.70573 0
M  V30 2676 C 265.411 -4.38546 -0.369457 0
M  V30 2677 H 262.53 -0.732468 0.0816045 0
M  V30 2678 H 265.172 -1.68445 0.878986 0
M  V30 2679 H 263.322 -3.87435 -0.287411 0
M  V30 2680 H 264.994 -3.98722 2.31989 0
M  V30 2681 H 263.237 -3.71414 2.2413 0
M  V30 2682 H 263.908 -5.25358 1.69419 0
M  V30 2683 H 266.384 -4.1596 0.107977 0
M  V30 2684 H 265.26 -5.48069 -0.302002 0
M  V30 2685 H 265.521 -4.17662 -1.44951 0
M  V30 2686 N 264.58 -0.43555 -1.51462 0
M  V30 2687 C 265.543 0.365137 -2.26273 0
M  V30 2688 C 266.543 0.951227 -1.29647 0
M  V30 2689 O 267.733 0.825958 -1.53374 0
M  V30 2690 C 264.865 1.51645 -3.05314 0
M  V30 2691 H 266.058 -0.290474 -2.9849 0
M  V30 2692 H 263.611 -0.188676 -1.55157 0
M  V30 2693 H 264.346 2.20816 -2.3751 0
M  V30 2694 H 264.131 1.10238 -3.76284 0
M  V30 2695 H 265.621 2.08218 -3.61987 0
M  V30 2696 N 266.058 1.56714 -0.166846 0
M  V30 2697 C 267.469 1.83378 0.350646 0
M  V30 2698 C 267.82 1.08646 1.63372 0
M  V30 2699 O 266.945 0.338058 2.13743 0
M  V30 2700 C 267.54 3.32643 0.642963 0
M  V30 2701 C 266.099 3.59818 1.10491 0
M  V30 2702 C 265.246 2.76954 0.138411 0
M  V30 2703 H 268.197 1.53803 -0.391193 0
M  V30 2704 H 268.218 3.49878 1.49551 0
M  V30 2705 H 267.73 3.87007 -0.291055 0
M  V30 2706 H 265.831 3.1086 2.05418 0
M  V30 2707 H 265.944 4.68178 1.01716 0
M  V30 2708 H 264.308 2.4666 0.634911 0
M  V30 2709 H 265.091 3.34097 -0.789549 0
M  V30 2710 N 267.536 -0.106894 1.57237 0
M  V30 2711 C 268.784 -0.810921 1.85117 0
M  V30 2712 C 269.105 -1.7984 0.753827 0
M  V30 2713 O 268.375 -1.94649 -0.221056 0
M  V30 2714 H 266.955 -0.302466 0.683025 0
M  V30 2715 H 269.617 -0.0913324 1.94686 0
M  V30 2716 H 268.713 -1.34875 2.81452 0
M  V30 2717 N 269.014 -1.53014 -0.377408 0
M  V30 2718 C 270.261 -1.68623 -1.12128 0
M  V30 2719 C 270.589 -0.431997 -1.89642 0
M  V30 2720 O 269.844 0.585855 -1.86725 0
M  V30 2721 C 270.143 -2.87982 -2.11663 0
M  V30 2722 C 269.809 -4.24964 -1.50719 0
M  V30 2723 C 268.471 -4.62217 -1.33825 0
M  V30 2724 C 270.823 -5.10199 -1.06519 0
M  V30 2725 C 268.151 -5.82352 -0.712963 0
M  V30 2726 C 270.503 -6.30969 -0.453955 0
M  V30 2727 C 269.167 -6.66944 -0.272411 0
M  V30 2728 H 268.437 -0.617034 -0.410305 0
M  V30 2729 H 271.084 -1.8718 -0.404484 0
M  V30 2730 H 269.389 -2.63889 -2.89603 0
M  V30 2731 H 271.086 -2.97253 -2.6915 0
M  V30 2732 H 267.676 -3.95626 -1.64858 0
M  V30 2733 H 271.86 -4.81978 -1.18368 0
M  V30 2734 H 267.116 -6.08824 -0.560611 0
M  V30 2735 H 271.29 -6.96324 -0.103217 0
M  V30 2736 H 268.917 -7.59898 0.214181 0
M  V30 2737 N 270.492 0.636531 -1.44174 0
M  V30 2738 C 271.741 1.39213 -1.45954 0
M  V30 2739 C 272.054 1.95374 -0.0939119 0
M  V30 2740 O 273.26 2.71498 0.0107767 0
M  V30 2741 C 271.716 2.52025 -2.56927 0
M  V30 2742 C 271.324 2.024 -3.99673 0
M  V30 2743 C 273.068 3.29269 -2.67922 0
M  V30 2744 C 270.975 3.12521 -5.0208 0
M  V30 2745 H 269.905 0.523132 -0.542999 0
M  V30 2746 H 272.556 0.685349 -1.70221 0
M  V30 2747 H 270.938 3.25253 -2.25891 0
M  V30 2748 H 272.112 1.36073 -4.40251 0
M  V30 2749 H 270.427 1.37987 -3.92872 0
M  V30 2750 H 273.024 4.11352 -3.41605 0
M  V30 2751 H 273.367 3.78397 -1.73555 0
M  V30 2752 H 273.9 2.63129 -2.98342 0
M  V30 2753 H 270.639 2.68343 -5.98057 0
M  V30 2754 H 270.159 3.77507 -4.66099 0
M  V30 2755 H 271.838 3.77385 -5.25538 0
M  V30 2756 N 271.97 1.30982 0.876444 0
M  V30 2757 C 272.88 1.2003 2.01569 0
M  V30 2758 C 273.896 0.11838 1.73597 0
M  V30 2759 O 275.072 0.33495 1.98595 0
M  V30 2760 C 272.137 0.901637 3.34771 0
M  V30 2761 C 271.198 2.06979 3.76109 0
M  V30 2762 C 270.431 1.78529 5.02954 0
M  V30 2763 O 270.654 0.717296 5.65872 0
M  V30 2764 O 269.588 2.64019 5.40905 0
M  V30 2765 H 273.414 2.15753 2.13739 0
M  V30 2766 H 270.999 1.10658 1.00375 0
M  V30 2767 H 272.881 0.750645 4.1466 0
M  V30 2768 H 271.556 -0.0256141 3.2369 0
M  V30 2769 H 270.463 2.27616 2.96887 0
M  V30 2770 H 271.796 2.97907 3.91807 0
M  V30 2771 N 273.449 -1.08991 1.13837 0
M  V30 2772 C 274.677 -1.85011 0.926202 0
M  V30 2773 C 275.092 -1.8135 -0.525127 0
M  V30 2774 O 274.449 -1.21287 -1.36366 0
M  V30 2775 C 274.5 -3.32802 1.41155 0
M  V30 2776 O 274.221 -3.36444 2.80601 0
M  V30 2777 C 275.722 -4.25649 1.23847 0
M  V30 2778 H 272.942 -0.584249 0.32999 0
M  V30 2779 H 275.486 -1.37688 1.51202 0
M  V30 2780 H 273.641 -3.77536 0.868631 0
M  V30 2781 H 274.055 -4.28657 3.02248 0
M  V30 2782 H 275.529 -5.27485 1.62675 0
M  V30 2783 H 276.006 -4.38828 0.18065 0
M  V30 2784 H 276.612 -3.86735 1.76964 0
M  V30 2785 N 274.927 -0.932562 -1.27047 0
M  V30 2786 C 276.204 -0.49377 -1.89265 0
M  V30 2787 C 276.584 1.02833 -1.8436 0
M  V30 2788 O 275.932 1.88461 -1.29209 0
M  V30 2789 C 276.142 -1.04536 -3.32976 0
M  V30 2790 C 277.49 -1.10879 -4.09867 0
M  V30 2791 O 278.514 -0.995327 -3.42011 0
M  V30 2792 O 277.373 -1.28417 -5.31198 0
M  V30 2793 H 274.467 -0.159596 -0.811454 0
M  V30 2794 H 277.013 -1.02457 -1.3528 0
M  V30 2795 H 275.785 -2.08913 -3.30864 0
M  V30 2796 H 275.408 -0.496494 -3.94488 0
M  V30 2797 N 276.405 1.4127 -0.698611 0
M  V30 2798 C 277.338 2.28195 0.0153898 0
M  V30 2799 C 278.316 1.42402 0.784883 0
M  V30 2800 O 279.5 1.71828 0.775067 0
M  V30 2801 C 276.627 3.22685 1.02918 0
M  V30 2802 C 275.673 4.25041 0.352501 0
M  V30 2803 S 276.506 5.27757 -0.907322 0
M  V30 2804 C 277.662 6.25812 0.104796 0
M  V30 2805 H 277.895 2.88403 -0.721858 0
M  V30 2806 H 275.428 1.46452 -0.488996 0
M  V30 2807 H 277.386 3.77655 1.60893 0
M  V30 2808 H 276.047 2.61566 1.73902 0
M  V30 2809 H 275.24 4.91437 1.11828 0
M  V30 2810 H 274.842 3.73682 -0.154254 0
M  V30 2811 H 277.134 6.70705 0.957103 0
M  V30 2812 H 278.077 7.06149 -0.525323 0
M  V30 2813 H 278.485 5.62615 0.460931 0
M  V30 2814 N 277.883 0.443576 1.51229 0
M  V30 2815 C 279.111 -0.11929 2.06556 0
M  V30 2816 C 279.526 -1.35921 1.31038 0
M  V30 2817 O 278.883 -1.78675 0.371704 0
M  V30 2818 C 278.934 -0.435228 3.5887 0
M  V30 2819 O 278.655 0.755486 4.31537 0
M  V30 2820 C 280.156 -1.04808 4.30732 0
M  V30 2821 H 277.376 -0.0051584 0.67098 0
M  V30 2822 H 279.92 0.624453 1.94733 0
M  V30 2823 H 278.075 -1.12887 3.70588 0
M  V30 2824 H 278.489 0.483491 5.22267 0
M  V30 2825 H 279.963 -1.2191 5.3837 0
M  V30 2826 H 280.44 -2.03081 3.89429 0
M  V30 2827 H 281.046 -0.393637 4.23474 0
M  V30 2828 N 279.361 -1.56624 0.175154 0
M  V30 2829 C 280.777 -1.58571 -0.180966 0
M  V30 2830 C 280.977 -1.19065 -1.6256 0
M  V30 2831 O 280.033 -0.904044 -2.35761 0
M  V30 2832 C 281.346 -3.00522 0.103326 0
M  V30 2833 C 282.894 -3.12972 0.0418426 0
M  V30 2834 C 283.369 -4.57022 0.299175 0
M  V30 2835 N 284.86 -4.62541 0.247086 0
M  V30 2836 C 285.595 -5.71857 0.420318 0
M  V30 2837 N 285.091 -6.89717 0.652816 0
M  V30 2838 N 286.884 -5.60972 0.355957 0
M  V30 2839 H 279.035 -1.80589 1.11809 0
M  V30 2840 H 281.298 -0.837178 0.444788 0
M  V30 2841 H 281.004 -3.33916 1.10422 0
M  V30 2842 H 280.878 -3.72344 -0.603299 0
M  V30 2843 H 283.265 -2.79403 -0.949636 0
M  V30 2844 H 283.346 -2.43578 0.781238 0
M  V30 2845 H 282.99 -4.913 1.28788 0
M  V30 2846 H 282.92 -5.24579 -0.460876 0
M  V30 2847 H 285.411 -3.77829 0.0731895 0
M  V30 2848 H 285.724 -7.68911 0.774347 0
M  V30 2849 H 284.069 -6.91572 0.689476 0
M  V30 2850 H 287.26 -4.67773 0.174882 0
M  V30 2851 H 287.433 -6.46111 0.494388 0
M  V30 2852 N 280.839 0.0985539 -1.57292 0
M  V30 2853 C 281.802 1.10402 -2.00858 0
M  V30 2854 C 282.802 1.33146 -0.901593 0
M  V30 2855 O 283.992 1.29318 -1.16716 0
M  V30 2856 C 281.124 2.45394 -2.36632 0
M  V30 2857 H 282.317 0.729099 -2.90902 0
M  V30 2858 H 279.87 0.343495 -1.52479 0
M  V30 2859 H 280.605 2.87769 -1.49531 0
M  V30 2860 H 280.39 2.30235 -3.17387 0
M  V30 2861 H 281.88 3.17718 -2.71007 0
M  V30 2862 N 282.317 1.53212 0.369288 0
M  V30 2863 C 283.247 1.82365 1.45826 0
M  V30 2864 C 284.228 0.676907 1.56051 0
M  V30 2865 O 285.413 0.926401 1.70679 0
M  V30 2866 C 282.543 2.01023 2.83208 0
M  V30 2867 C 281.497 3.1678 2.8781 0
M  V30 2868 C 280.823 3.20724 4.27832 0
M  V30 2869 C 282.123 4.55447 2.55667 0
M  V30 2870 H 283.817 2.73559 1.21678 0
M  V30 2871 H 281.363 1.3163 0.583911 0
M  V30 2872 H 283.316 2.20001 3.59413 0
M  V30 2873 H 282.04 1.06536 3.08736 0
M  V30 2874 H 280.699 2.97616 2.14056 0
M  V30 2875 H 280.347 2.23882 4.50429 0
M  V30 2876 H 280.047 3.98496 4.31827 0
M  V30 2877 H 281.571 3.41881 5.05915 0
M  V30 2878 H 282.985 4.74611 3.21586 0
M  V30 2879 H 281.382 5.35432 2.70984 0
M  V30 2880 H 282.452 4.60812 1.5093 0
M  V30 2881 N 283.795 -0.628877 1.44509 0
M  V30 2882 C 285.02 -1.42048 1.5112 0
M  V30 2883 C 285.445 -1.87594 0.137818 0
M  V30 2884 O 284.803 -1.58873 -0.873437 0
M  V30 2885 C 284.851 -2.61541 2.48251 0
M  V30 2886 O 283.955 -3.61453 1.98559 0
M  V30 2887 H 283.296 -0.424942 0.510216 0
M  V30 2888 H 285.826 -0.767374 1.89664 0
M  V30 2889 H 285.836 -3.09057 2.66361 0
M  V30 2890 H 284.511 -2.27736 3.48007 0
M  V30 2891 H 283.088 -3.20731 1.90227 0
M  V30 2892 N 285.273 -1.31445 -0.869486 0
M  V30 2893 C 286.55 -1.11795 -1.60503 0
M  V30 2894 C 286.93 0.327168 -2.08549 0
M  V30 2895 O 286.278 1.32135 -1.8642 0
M  V30 2896 C 286.488 -2.13258 -2.76265 0
M  V30 2897 C 287.836 -2.45805 -3.46215 0
M  V30 2898 O 288.86 -2.11688 -2.86473 0
M  V30 2899 O 287.719 -3.04228 -4.5399 0
M  V30 2900 H 284.813 -0.430421 -0.706163 0
M  V30 2901 H 287.359 -1.42925 -0.914907 0
M  V30 2902 H 286.131 -3.10461 -2.3818 0
M  V30 2903 H 285.754 -1.83035 -3.52964 0
M  V30 2904 N 286.751 1.08385 -1.14413 0
M  V30 2905 C 288.028 1.77429 -0.823297 0
M  V30 2906 C 288.408 1.9974 0.683163 0
M  V30 2907 O 287.756 1.60739 1.62405 0
M  V30 2908 C 287.966 3.09004 -1.62227 0
M  V30 2909 C 289.314 3.83532 -1.82177 0
M  V30 2910 O 290.338 3.18786 -1.58915 0
M  V30 2911 O 289.197 4.99792 -2.21067 0
M  V30 2912 H 286.291 0.769999 -0.301712 0
M  V30 2913 H 288.837 1.14846 -1.24934 0
M  V30 2914 H 287.609 2.88316 -2.64555 0
M  V30 2915 H 287.232 3.79316 -1.19187 0
M  V30 2916 N 288.23 0.939286 1.26551 0
M  V30 2917 C 289.162 0.404704 2.25599 0
M  V30 2918 C 290.175 -0.470983 1.55838 0
M  V30 2919 O 291.364 -0.281734 1.76263 0
M  V30 2920 C 288.464 -0.43764 3.36062 0
M  V30 2921 C 287.637 0.421449 4.35365 0
M  V30 2922 C 286.696 -0.36015 5.24966 0
M  V30 2923 O 285.722 0.236167 5.6871 0
M  V30 2924 N 286.924 -1.65715 5.56344 0
M  V30 2925 H 289.689 1.25618 2.72103 0
M  V30 2926 H 287.25 0.807963 1.40298 0
M  V30 2927 H 289.242 -0.967866 3.92956 0
M  V30 2928 H 287.812 -1.18991 2.89067 0
M  V30 2929 H 287.032 1.1329 3.7757 0
M  V30 2930 H 288.32 1.00835 4.98708 0
M  V30 2931 H 287.718 -2.16378 5.22682 0
M  V30 2932 H 286.275 -2.13366 6.15888 0
M  V30 2933 N 289.708 -1.40897 0.706093 0
M  V30 2934 C 291.124 -1.55042 0.37869 0
M  V30 2935 C 291.324 -1.67944 -1.11342 0
M  V30 2936 O 290.38 -1.66372 -1.89938 0
M  V30 2937 C 291.693 -2.78398 1.13643 0
M  V30 2938 C 293.241 -2.92206 1.12181 0
M  V30 2939 C 293.716 -4.18463 1.86152 0
M  V30 2940 N 295.207 -4.25443 1.83173 0
M  V30 2941 C 295.942 -5.2202 2.37239 0
M  V30 2942 N 295.438 -6.24563 2.99821 0
M  V30 2943 N 297.231 -5.14033 2.27435 0
M  V30 2944 H 289.382 -1.30769 1.67372 0
M  V30 2945 H 291.645 -0.631653 0.706907 0
M  V30 2946 H 291.351 -2.7511 2.19106 0
M  V30 2947 H 291.225 -3.70228 0.721853 0
M  V30 2948 H 293.612 -2.95004 0.0754171 0
M  V30 2949 H 293.693 -2.01521 1.57554 0
M  V30 2950 H 293.337 -4.16427 2.90776 0
M  V30 2951 H 293.267 -5.08141 1.38206 0
M  V30 2952 H 295.758 -3.51976 1.37556 0
M  V30 2953 H 296.071 -6.94665 3.38616 0
M  V30 2954 H 294.416 -6.25035 3.03902 0
M  V30 2955 H 297.607 -4.3285 1.78208 0
M  V30 2956 H 297.78 -5.89129 2.69873 0
M  V30 2957 N 291.186 -0.45159 -1.50991 0
M  V30 2958 C 292.149 0.341117 -2.26647 0
M  V30 2959 C 293.149 0.937422 -1.30649 0
M  V30 2960 O 294.339 0.809644 -1.54241 0
M  V30 2961 C 291.471 1.48398 -3.06905 0
M  V30 2962 H 292.664 -0.322117 -2.98165 0
M  V30 2963 H 290.217 -0.205122 -1.54948 0
M  V30 2964 H 290.952 2.18284 -2.39838 0
M  V30 2965 H 290.737 1.06241 -3.77432 0
M  V30 2966 H 292.227 2.04367 -3.64176 0
M  V30 2967 N 292.664 1.56529 -0.183458 0
M  V30 2968 C 293.912 1.96855 0.457452 0
M  V30 2969 C 294.233 1.07104 1.62953 0
M  V30 2970 O 293.503 0.139887 1.954 0
M  V30 2971 H 292.083 0.72693 0.171992 0
M  V30 2972 H 294.745 1.93056 -0.267476 0
M  V30 2973 H 293.841 3.01423 0.809368 0
M  V30 2974 N 294.142 -0.090211 1.57342 0
M  V30 2975 C 295.391 -0.791531 1.8552 0
M  V30 2976 C 295.704 -1.79659 0.773441 0
M  V30 2977 O 296.91 -2.54616 0.942497 0
M  V30 2978 C 295.366 -1.45856 3.2902 0
M  V30 2979 C 294.974 -0.493017 4.45279 0
M  V30 2980 C 296.718 -2.14332 3.66418 0
M  V30 2981 C 294.625 -1.16491 5.79814 0
M  V30 2982 H 293.555 -0.299356 0.692027 0
M  V30 2983 H 296.206 -0.0445343 1.83446 0
M  V30 2984 H 294.588 -2.25318 3.2565 0
M  V30 2985 H 295.762 0.270464 4.60006 0
M  V30 2986 H 294.077 0.0863061 4.16311 0
M  V30 2987 H 296.674 -2.65344 4.64216 0
M  V30 2988 H 297.017 -2.93447 2.95287 0
M  V30 2989 H 297.55 -1.41724 3.71698 0
M  V30 2990 H 294.289 -0.41447 6.54188 0
M  V30 2991 H 293.809 -1.8997 5.68921 0
M  V30 2992 H 295.488 -1.69001 6.24538 0
M  V30 2993 N 295.62 -1.53406 -0.361157 0
M  V30 2994 C 296.55 -1.83136 -1.44857 0
M  V30 2995 C 297.531 -0.685174 -1.5569 0
M  V30 2996 O 298.716 -0.93544 -1.70186 0
M  V30 2997 C 295.846 -2.02522 -2.82138 0
M  V30 2998 C 294.8 -3.18302 -2.86126 0
M  V30 2999 C 294.126 -3.22989 -4.26125 0
M  V30 3000 C 295.426 -4.56796 -2.53248 0
M  V30 3001 H 297.12 -2.74201 -1.20226 0
M  V30 3002 H 294.666 -1.31938 -0.576922 0
M  V30 3003 H 296.619 -2.21904 -3.58241 0
M  V30 3004 H 295.343 -1.08172 -3.08166 0
M  V30 3005 H 294.002 -2.98747 -2.12475 0
M  V30 3006 H 293.65 -2.26267 -4.49235 0
M  V30 3007 H 293.35 -4.00781 -4.29708 0
M  V30 3008 H 294.874 -3.44559 -5.04094 0
M  V30 3009 H 296.288 -4.7631 -3.19064 0
M  V30 3010 H 294.685 -5.36862 -2.68141 0
M  V30 3011 H 295.755 -4.61606 -1.48484 0
M  V30 3012 N 297.098 0.621204 -1.44841 0
M  V30 3013 C 298.061 1.71459 -1.521 0
M  V30 3014 C 299.061 1.55696 -0.401933 0
M  V30 3015 O 300.251 1.61011 -0.664925 0
M  V30 3016 C 297.383 3.10624 -1.40447 0
M  V30 3017 H 298.576 1.66394 -2.49506 0
M  V30 3018 H 296.129 0.835745 -1.3208 0
M  V30 3019 H 296.864 3.21277 -0.441737 0
M  V30 3020 H 296.649 3.23473 -2.21602 0
M  V30 3021 H 298.139 3.90293 -1.4853 0
M  V30 3022 N 298.576 1.31904 0.862503 0
M  V30 3023 C 299.508 1.16005 1.97675 0
M  V30 3024 C 300.521 0.0971234 1.6251 0
M  V30 3025 O 301.71 0.345337 1.75128 0
M  V30 3026 C 298.81 0.751791 3.30456 0
M  V30 3027 C 297.983 1.90133 3.93914 0
M  V30 3028 C 297.042 1.4779 5.05019 0
M  V30 3029 O 296.068 2.18872 5.25437 0
M  V30 3030 N 297.27 0.369491 5.79323 0
M  V30 3031 H 300.035 2.11982 2.11857 0
M  V30 3032 H 297.596 1.24337 1.03691 0
M  V30 3033 H 299.588 0.451084 4.02178 0
M  V30 3034 H 298.158 -0.116593 3.12382 0
M  V30 3035 H 297.378 2.36896 3.15078 0
M  V30 3036 H 298.666 2.67111 4.33047 0
M  V30 3037 H 298.064 -0.222299 5.65263 0
M  V30 3038 H 296.621 0.128354 6.51674 0
M  V30 3039 N 300.054 -1.07777 1.14986 0
M  V30 3040 C 301.3 -1.80557 0.923422 0
M  V30 3041 C 301.633 -1.86298 -0.548337 0
M  V30 3042 O 300.908 -1.34354 -1.40639 0
M  V30 3043 C 301.191 -3.25839 1.53299 0
M  V30 3044 C 301.044 -3.28269 3.07505 0
M  V30 3045 C 302.363 -4.22991 1.21518 0
M  V30 3046 H 299.482 -0.655493 0.336894 0
M  V30 3047 H 302.124 -1.26144 1.42083 0
M  V30 3048 H 300.274 -3.72306 1.10999 0
M  V30 3049 H 301.946 -2.90079 3.58681 0
M  V30 3050 H 300.189 -2.67355 3.4162 0
M  V30 3051 H 300.86 -4.30691 3.45266 0
M  V30 3052 H 303.336 -3.84894 1.581 0
M  V30 3053 H 302.212 -5.22945 1.66793 0
M  V30 3054 H 302.473 -4.41904 0.131505 0
M  V30 3055 N 301.532 -0.945985 -1.26051 0
M  V30 3056 C 302.943 -0.638096 -1.75457 0
M  V30 3057 C 303.294 0.846672 -1.76991 0
M  V30 3058 O 302.419 1.66262 -1.38513 0
M  V30 3059 C 303.014 -1.15157 -3.18629 0
M  V30 3060 C 301.573 -0.894004 -3.65629 0
M  V30 3061 C 300.72 -1.29967 -2.44957 0
M  V30 3062 H 303.671 -1.12376 -1.1206 0
M  V30 3063 H 303.692 -0.507615 -3.77099 0
M  V30 3064 H 303.204 -2.23222 -3.1748 0
M  V30 3065 H 301.305 0.172057 -3.72203 0
M  V30 3066 H 301.418 -1.52439 -4.54202 0
M  V30 3067 H 299.782 -0.718078 -2.44368 0
M  V30 3068 H 300.565 -2.38935 -2.46505 0
M  V30 3069 N 303.011 1.40521 -0.713556 0
M  V30 3070 C 303.974 2.29098 -0.0684347 0
M  V30 3071 C 304.974 1.45268 0.689472 0
M  V30 3072 O 306.164 1.66205 0.521677 0
M  V30 3073 C 303.296 3.28446 0.913024 0
M  V30 3074 H 304.489 2.87645 -0.84855 0
M  V30 3075 H 302.042 1.48809 -0.47809 0
M  V30 3076 H 302.777 2.74913 1.72027 0
M  V30 3077 H 302.562 3.90327 0.372472 0
M  V30 3078 H 304.052 3.94777 1.36165 0
M  V30 3079 N 304.489 0.459591 1.5075 0
M  V30 3080 C 305.737 -0.0991532 2.01857 0
M  V30 3081 C 306.058 -1.41247 1.34441 0
M  V30 3082 O 305.328 -1.89775 0.486022 0
M  V30 3083 H 303.908 -0.039633 0.745948 0
M  V30 3084 H 306.57 0.607387 1.85194 0
M  V30 3085 H 305.666 -0.258998 3.11023 0
M  V30 3086 N 305.967 -1.56429 0.191757 0
M  V30 3087 C 307.383 -1.58754 -0.164137 0
M  V30 3088 C 307.583 -1.20782 -1.61288 0
M  V30 3089 O 306.639 -0.928999 -2.34789 0
M  V30 3090 C 307.952 -3.00396 0.135195 0
M  V30 3091 C 309.5 -3.1291 0.0750351 0
M  V30 3092 C 309.975 -4.56679 0.347632 0
M  V30 3093 N 311.466 -4.62252 0.296131 0
M  V30 3094 C 312.201 -5.71379 0.480948 0
M  V30 3095 N 311.697 -6.88986 0.725933 0
M  V30 3096 N 313.49 -5.60563 0.415435 0
M  V30 3097 H 305.641 -1.79393 1.13718 0
M  V30 3098 H 307.904 -0.832414 0.453643 0
M  V30 3099 H 307.61 -3.32726 1.13958 0
M  V30 3100 H 307.484 -3.72963 -0.563773 0
M  V30 3101 H 309.871 -2.80394 -0.919948 0
M  V30 3102 H 309.952 -2.42736 0.807029 0
M  V30 3103 H 309.596 -4.89907 1.33992 0
M  V30 3104 H 309.526 -5.25039 -0.405212 0
M  V30 3105 H 312.017 -3.7773 0.113259 0
M  V30 3106 H 312.33 -7.68046 0.855857 0
M  V30 3107 H 310.675 -6.90801 0.762788 0
M  V30 3108 H 313.866 -4.67561 0.224486 0
M  V30 3109 H 314.039 -6.45551 0.562889 0
M  V30 3110 N 307.445 0.0818655 -1.57387 0
M  V30 3111 C 308.375 1.09885 -2.06028 0
M  V30 3112 C 309.356 1.4098 -0.951774 0
M  V30 3113 O 310.541 1.50781 -1.22387 0
M  V30 3114 C 307.671 2.4151 -2.4958 0
M  V30 3115 C 306.625 2.24792 -3.64215 0
M  V30 3116 C 305.951 3.61712 -3.93787 0
M  V30 3117 C 307.251 1.67749 -4.94629 0
M  V30 3118 H 308.945 0.694128 -2.91243 0
M  V30 3119 H 306.491 0.332448 -1.4011 0
M  V30 3120 H 308.444 3.12939 -2.82219 0
M  V30 3121 H 307.168 2.83943 -1.61381 0
M  V30 3122 H 305.827 1.55807 -3.31843 0
M  V30 3123 H 305.475 4.01697 -3.02735 0
M  V30 3124 H 305.175 3.51368 -4.70971 0
M  V30 3125 H 306.699 4.34587 -4.28913 0
M  V30 3126 H 308.113 2.29032 -5.25564 0
M  V30 3127 H 306.51 1.68128 -5.76067 0
M  V30 3128 H 307.58 0.638059 -4.80684 0
M  V30 3129 N 308.923 1.53595 0.353017 0
M  V30 3130 C 310.171 1.70049 1.09215 0
M  V30 3131 C 310.492 0.461406 1.89463 0
M  V30 3132 O 309.762 -0.524633 1.88744 0
M  V30 3133 H 308.342 0.626912 0.40619 0
M  V30 3134 H 311.004 1.90822 0.396585 0
M  V30 3135 H 310.1 2.56718 1.77488 0
M  V30 3136 N 310.401 -0.613514 1.45168 0
M  V30 3137 C 311.649 -1.36997 1.48581 0
M  V30 3138 C 311.97 -1.94589 0.126545 0
M  V30 3139 O 311.24 -1.76816 -0.843372 0
M  V30 3140 H 309.82 -0.508558 0.547154 0
M  V30 3141 H 312.482 -0.720853 1.81079 0
M  V30 3142 H 311.578 -2.1924 2.22127 0
M  V30 3143 N 311.879 -1.3236 -0.855495 0
M  V30 3144 C 312.842 -1.21164 -1.94556 0
M  V30 3145 C 313.842 -0.134908 -1.60233 0
M  V30 3146 O 315.032 -0.385249 -1.69887 0
M  V30 3147 C 312.164 -0.863192 -3.29791 0
M  V30 3148 H 313.357 -2.18038 -2.05911 0
M  V30 3149 H 310.91 -1.16179 -1.04557 0
M  V30 3150 H 311.645 0.103769 -3.24134 0
M  V30 3151 H 311.43 -1.64166 -3.56078 0
M  V30 3152 H 312.92 -0.809156 -4.09686 0
M  V30 3153 N 313.357 1.07166 -1.15556 0
M  V30 3154 C 314.289 2.14341 -0.811815 0
M  V30 3155 C 315.302 1.61835 0.177015 0
M  V30 3156 O 316.491 1.78439 -0.0464996 0
M  V30 3157 C 313.591 3.38387 -0.186481 0
M  V30 3158 C 312.764 4.20238 -1.21321 0
M  V30 3159 C 311.823 5.2266 -0.609302 0
M  V30 3160 O 310.849 5.54719 -1.27576 0
M  V30 3161 N 312.051 5.77306 0.608099 0
M  V30 3162 H 314.816 2.44431 -1.73417 0
M  V30 3163 H 312.377 1.23089 -1.0517 0
M  V30 3164 H 314.369 4.04044 0.230339 0
M  V30 3165 H 312.939 3.05994 0.639249 0
M  V30 3166 H 312.159 3.50369 -1.80652 0
M  V30 3167 H 313.447 4.71736 -1.90638 0
M  V30 3168 H 312.845 5.53513 1.1679 0
M  V30 3169 H 311.402 6.44583 0.96725 0
M  V30 3170 N 314.835 0.952656 1.25548 0
M  V30 3171 C 315.745 0.47782 2.29682 0
M  V30 3172 C 316.761 -0.453859 1.67977 0
M  V30 3173 O 317.937 -0.330587 1.98668 0
M  V30 3174 C 315.002 -0.238655 3.45878 0
M  V30 3175 C 314.063 0.730994 4.23031 0
M  V30 3176 C 313.296 0.0486165 5.33678 0
M  V30 3177 O 313.519 -1.16612 5.58353 0
M  V30 3178 O 312.453 0.733152 5.97418 0
M  V30 3179 H 316.279 1.34312 2.72386 0
M  V30 3180 H 313.864 0.719026 1.30959 0
M  V30 3181 H 315.746 -0.641774 4.16484 0
M  V30 3182 H 314.421 -1.07916 3.05181 0
M  V30 3183 H 313.328 1.18428 3.5486 0
M  V30 3184 H 314.661 1.53946 4.67506 0
M  V30 3185 N 316.313 -1.40141 0.720998 0
M  V30 3186 C 317.562 -2.0002 0.259804 0
M  V30 3187 C 317.875 -1.57839 -1.15526 0
M  V30 3188 O 319.081 -2.10455 -1.71525 0
M  V30 3189 C 317.537 -3.57516 0.413566 0
M  V30 3190 C 317.145 -4.08667 1.83562 0
M  V30 3191 C 318.889 -4.24498 0.0134387 0
M  V30 3192 C 316.796 -5.58686 1.93968 0
M  V30 3193 H 315.726 -0.748195 0.0933806 0
M  V30 3194 H 318.377 -1.60313 0.892866 0
M  V30 3195 H 316.759 -3.9495 -0.288169 0
M  V30 3196 H 317.933 -3.82598 2.56817 0
M  V30 3197 H 316.248 -3.543 2.1877 0
M  V30 3198 H 318.845 -5.34654 0.0703954 0
M  V30 3199 H 319.188 -4.03375 -1.02927 0
M  V30 3200 H 319.721 -3.92188 0.665815 0
M  V30 3201 H 316.46 -5.8467 2.96379 0
M  V30 3202 H 315.98 -5.86602 1.25131 0
M  V30 3203 H 317.659 -6.23875 1.71431 0
M  V30 3204 N 317.792 -0.46758 -1.50504 0
M  V30 3205 C 318.755 0.317059 -2.26996 0
M  V30 3206 C 319.755 0.923513 -1.31635 0
M  V30 3207 O 320.945 0.793239 -1.55091 0
M  V30 3208 C 318.077 1.45134 -3.08462 0
M  V30 3209 H 319.27 -0.353723 -2.97807 0
M  V30 3210 H 316.823 -0.221545 -1.54722 0
M  V30 3211 H 317.558 2.15728 -2.4214 0
M  V30 3212 H 317.343 1.02232 -3.78538 0
M  V30 3213 H 318.833 2.00493 -3.66323 0
M  V30 3214 N 319.27 1.56325 -0.20005 0
M  V30 3215 C 320.218 2.20666 0.735482 0
M  V30 3216 C 321.212 1.17934 1.21605 0
M  V30 3217 O 322.418 1.36068 1.17837 0
M  V30 3218 H 318.793 0.70725 0.255542 0
M  V30 3219 H 320.764 2.9792 0.169166 0
M  V30 3220 C 319.513 2.88391 1.94232 0
M  V30 3221 H 318.836 3.67185 1.58161 0
M  V30 3222 H 320.276 3.3684 2.57517 0
M  V30 3223 C 318.735 1.89692 2.78421 0
M  V30 3224 O 319.265 1.40032 3.76502 0
M  V30 3225 N 317.471 1.57813 2.44015 0
M  V30 3226 H 317.018 1.9839 1.64314 0
M  V30 3227 H 316.976 0.920325 3.00628 0
M  V30 3228 N 320.748 -0.0735177 1.57428 0
M  V30 3229 C 321.711 -1.07192 2.02589 0
M  V30 3230 C 322.711 -1.31695 0.922661 0
M  V30 3231 O 323.901 -1.27445 1.18758 0
M  V30 3232 C 321.033 -2.41599 2.40506 0
M  V30 3233 H 322.226 -0.682727 2.92025 0
M  V30 3234 H 319.779 -0.319193 1.53006 0
M  V30 3235 H 320.514 -2.85354 1.5409 0
M  V30 3236 H 320.299 -2.25156 3.21009 0
M  V30 3237 H 321.789 -3.13367 2.76027 0
M  V30 3238 N 322.226 -1.5378 -0.344866 0
M  V30 3239 C 323.472 -1.71216 -1.08687 0
M  V30 3240 C 323.805 -0.473281 -1.88345 0
M  V30 3241 O 323.08 0.52968 -1.87149 0
M  V30 3242 C 323.363 -2.97486 -2.02914 0
M  V30 3243 C 323.216 -4.31579 -1.26727 0
M  V30 3244 C 324.535 -3.19422 -3.0275 0
M  V30 3245 H 321.654 -0.62301 -0.393735 0
M  V30 3246 H 324.296 -1.8645 -0.365563 0
M  V30 3247 H 322.446 -2.84629 -2.64421 0
M  V30 3248 H 324.118 -4.56284 -0.67845 0
M  V30 3249 H 322.361 -4.30049 -0.569273 0
M  V30 3250 H 323.032 -5.16106 -1.95803 0
M  V30 3251 H 325.508 -3.316 -2.51357 0
M  V30 3252 H 324.384 -4.09169 -3.65885 0
M  V30 3253 H 324.645 -2.35656 -3.74057 0
M  V30 3254 N 323.704 0.605807 -1.45491 0
M  V30 3255 C 324.667 1.69836 -1.5391 0
M  V30 3256 C 325.667 1.55261 -0.418424 0
M  V30 3257 O 326.857 1.60296 -0.681965 0
M  V30 3258 C 323.989 3.09117 -1.43734 0
M  V30 3259 H 325.182 1.63738 -2.51257 0
M  V30 3260 H 322.735 0.821689 -1.32959 0
M  V30 3261 H 323.47 3.20791 -0.475788 0
M  V30 3262 H 323.255 3.21104 -2.25021 0
M  V30 3263 H 324.745 3.88696 -1.52661 0
M  V30 3264 N 325.182 1.32811 0.848464 0
M  V30 3265 C 326.429 1.23724 1.60308 0
M  V30 3266 C 326.757 -0.1994 1.93475 0
M  V30 3267 O 326.012 -1.15406 1.5805 0
M  V30 3268 C 326.311 2.04831 2.92881 0
M  V30 3269 C 325.977 3.54125 2.79117 0
M  V30 3270 C 324.639 3.94829 2.7507 0
M  V30 3271 C 326.991 4.49036 2.64606 0
M  V30 3272 C 324.319 5.28675 2.544 0
M  V30 3273 C 326.671 5.83033 2.4547 0
M  V30 3274 C 325.335 6.22931 2.39819 0
M  V30 3275 H 324.605 0.452737 0.586609 0
M  V30 3276 H 327.252 1.64301 0.983743 0
M  V30 3277 H 325.557 1.57001 3.58968 0
M  V30 3278 H 327.254 1.95164 3.50303 0
M  V30 3279 H 323.844 3.21801 2.83094 0
M  V30 3280 H 328.028 4.18505 2.66772 0
M  V30 3281 H 323.284 5.58637 2.48465 0
M  V30 3282 H 327.458 6.56186 2.33222 0
M  V30 3283 H 325.085 7.26584 2.23562 0
M  V30 3284 N 326.66 -1.06551 1.16123 0
M  V30 3285 C 327.59 -2.15935 0.88851 0
M  V30 3286 C 328.571 -1.69306 -0.164135 0
M  V30 3287 O 329.756 -1.94193 -0.0167857 0
M  V30 3288 C 326.886 -3.45149 0.385942 0
M  V30 3289 C 325.84 -4.05271 1.3762 0
M  V30 3290 C 325.166 -5.29664 0.732137 0
M  V30 3291 C 326.466 -4.44355 2.74493 0
M  V30 3292 H 328.16 -2.39006 1.80323 0
M  V30 3293 H 325.706 -1.14866 0.868435 0
M  V30 3294 H 327.659 -4.21004 0.182647 0
M  V30 3295 H 326.383 -3.21689 -0.564274 0
M  V30 3296 H 325.042 -3.3147 1.56599 0
M  V30 3297 H 324.69 -5.02499 -0.224483 0
M  V30 3298 H 324.39 -5.70848 1.39307 0
M  V30 3299 H 325.914 -6.08218 0.538802 0
M  V30 3300 H 327.328 -5.11303 2.59311 0
M  V30 3301 H 325.725 -4.96515 3.37035 0
M  V30 3302 H 326.795 -3.55339 3.29943 0
M  V30 3303 N 328.138 -0.959301 -1.25041 0
M  V30 3304 C 329.101 -0.487677 -2.23952 0
M  V30 3305 C 330.101 0.41119 -1.55454 0
M  V30 3306 O 331.291 0.207825 -1.72956 0
M  V30 3307 C 328.423 0.294807 -3.39623 0
M  V30 3308 H 329.616 -1.36198 -2.67189 0
M  V30 3309 H 327.169 -0.743042 -1.37508 0
M  V30 3310 H 327.904 1.18658 -3.01813 0
M  V30 3311 H 327.689 -0.35012 -3.90534 0
M  V30 3312 H 329.179 0.614089 -4.1306 0
M  V30 3313 N 329.616 1.39756 -0.72842 0
M  V30 3314 C 330.841 2.05472 -0.282159 0
M  V30 3315 C 331.266 1.54549 1.07221 0
M  V30 3316 O 330.624 0.686372 1.67805 0
M  V30 3317 C 330.672 3.59462 -0.286264 0
M  V30 3318 O 329.776 4.05918 0.728298 0
M  V30 3319 H 329.117 0.651226 -0.129618 0
M  V30 3320 H 331.647 1.78915 -0.992499 0
M  V30 3321 H 331.657 4.07798 -0.128373 0
M  V30 3322 H 330.332 3.95889 -1.27456 0
M  V30 3323 H 328.909 3.69012 0.537081 0
M  V30 3324 N 331.094 0.475555 1.50254 0
M  V30 3325 C 332.371 -0.139685 1.95101 0
M  V30 3326 C 332.751 -1.56555 1.41611 0
M  V30 3327 O 332.099 -2.19956 0.618993 0
M  V30 3328 C 332.309 -0.0784298 3.48912 0
M  V30 3329 C 333.657 -0.265095 4.23772 0
M  V30 3330 O 334.681 -0.154808 3.55863 0
M  V30 3331 O 333.54 -0.488327 5.44314 0
M  V30 3332 H 330.634 -0.109236 0.819754 0
M  V30 3333 H 333.18 0.536276 1.61004 0
M  V30 3334 H 331.952 0.916918 3.80405 0
M  V30 3335 H 331.575 -0.795655 3.89558 0
M  V30 3336 N 332.573 -1.56217 0.208337 0
M  V30 3337 C 333.483 -2.23316 -0.718836 0
M  V30 3338 C 334.499 -1.23648 -1.22422 0
M  V30 3339 O 335.675 -1.56423 -1.26861 0
M  V30 3340 C 332.74 -2.88968 -1.91568 0
M  V30 3341 C 331.801 -4.03943 -1.45357 0
M  V30 3342 C 331.034 -4.66455 -2.59337 0
M  V30 3343 O 331.257 -4.27919 -3.77149 0
M  V30 3344 O 330.191 -5.55686 -2.31293 0
M  V30 3345 H 334.017 -3.03182 -0.177315 0
M  V30 3346 H 331.602 -1.49384 -0.0215402 0
M  V30 3347 H 333.484 -3.30455 -2.61491 0
M  V30 3348 H 332.159 -2.12071 -2.44556 0
M  V30 3349 H 331.066 -3.67052 -0.722746 0
M  V30 3350 H 332.399 -4.82543 -0.970219 0
M  V30 3351 N 334.051 0.0651679 -1.57465 0
M  V30 3352 C 335.014 1.06117 -2.03155 0
M  V30 3353 C 336.014 1.31204 -0.929632 0
M  V30 3354 O 337.204 1.26813 -1.19432 0
M  V30 3355 C 334.336 2.4032 -2.41783 0
M  V30 3356 H 335.529 0.667231 -2.92383 0
M  V30 3357 H 333.082 0.311075 -1.53173 0
M  V30 3358 H 333.817 2.84532 -1.55601 0
M  V30 3359 H 333.602 2.23451 -3.22199 0
M  V30 3360 H 335.092 3.11898 -2.77685 0
M  V30 3361 N 335.529 1.53961 0.336706 0
M  V30 3362 C 336.492 1.81724 1.39675 0
M  V30 3363 C 337.492 0.688532 1.45313 0
M  V30 3364 O 338.682 0.956829 1.45569 0
M  V30 3365 C 335.814 1.96543 2.78538 0
M  V30 3366 H 337.007 2.76424 1.16318 0
M  V30 3367 H 334.56 1.45478 0.571474 0
M  V30 3368 H 335.295 1.0401 3.07168 0
M  V30 3369 H 335.08 2.78665 2.75841 0
M  V30 3370 H 336.57 2.19516 3.5525 0
M  V30 3371 N 337.007 -0.598083 1.45811 0
M  V30 3372 C 338.237 -1.38121 1.53643 0
M  V30 3373 C 338.645 -1.88425 0.171081 0
M  V30 3374 O 337.988 -1.63409 -0.839237 0
M  V30 3375 C 338.05 -2.61432 2.46766 0
M  V30 3376 C 337.714 -2.32702 3.93318 0
M  V30 3377 C 338.711 -1.92479 4.82957 0
M  V30 3378 C 336.396 -2.45321 4.38318 0
M  V30 3379 C 338.39 -1.65248 6.15607 0
M  V30 3380 C 336.077 -2.17703 5.71007 0
M  V30 3381 C 337.075 -1.7773 6.5947 0
M  V30 3382 O 336.763 -1.50441 7.89698 0
M  V30 3383 H 336.495 -0.428863 0.522544 0
M  V30 3384 H 339.049 -0.73557 1.91777 0
M  V30 3385 H 337.279 -3.28749 2.0362 0
M  V30 3386 H 338.968 -3.23487 2.45175 0
M  V30 3387 H 339.734 -1.82258 4.49452 0
M  V30 3388 H 335.613 -2.75399 3.69697 0
M  V30 3389 H 339.157 -1.33973 6.84614 0
M  V30 3390 H 335.054 -2.27544 6.04065 0
M  V30 3391 H 335.822 -1.64415 8.01817 0
M  V30 3392 N 338.485 -1.33259 -0.841409 0
M  V30 3393 C 339.734 -1.23921 -1.59143 0
M  V30 3394 C 340.047 0.1941 -1.94635 0
M  V30 3395 O 341.253 0.409474 -2.68394 0
M  V30 3396 C 339.709 -2.17119 -2.87032 0
M  V30 3397 C 339.317 -3.65606 -2.58914 0
M  V30 3398 C 341.061 -2.16648 -3.65053 0
M  V30 3399 C 338.968 -4.50726 -3.82884 0
M  V30 3400 H 337.898 -0.460264 -0.597221 0
M  V30 3401 H 340.549 -1.58307 -0.927959 0
M  V30 3402 H 338.931 -1.75663 -3.54906 0
M  V30 3403 H 340.105 -4.15487 -1.99267 0
M  V30 3404 H 338.42 -3.68341 -1.942 0
M  V30 3405 H 341.017 -2.77474 -4.57069 0
M  V30 3406 H 341.36 -1.16088 -3.99787 0
M  V30 3407 H 341.893 -2.56453 -3.041 0
M  V30 3408 H 338.632 -5.52151 -3.53283 0
M  V30 3409 H 338.152 -4.0559 -4.41879 0
M  V30 3410 H 339.831 -4.64401 -4.50489 0
M  V30 3411 N 339.963 1.05934 -1.16686 0
M  V30 3412 C 341.191 1.8249 -0.974929 0
M  V30 3413 C 341.606 1.82679 0.476861 0
M  V30 3414 O 340.963 1.2486 1.33103 0
M  V30 3415 C 341.014 3.28943 -1.49929 0
M  V30 3416 O 340.735 3.28886 -2.89423 0
M  V30 3417 C 342.236 4.22215 -1.35089 0
M  V30 3418 H 339.456 0.575295 -0.345365 0
M  V30 3419 H 342 1.33631 -1.548 0
M  V30 3420 H 340.155 3.751 -0.968423 0
M  V30 3421 H 340.569 4.20493 -3.13506 0
M  V30 3422 H 342.043 5.22987 -1.76603 0
M  V30 3423 H 342.52 4.38195 -0.296935 0
M  V30 3424 H 343.126 3.81907 -1.87155 0
M  V30 3425 N 341.441 0.965919 1.2453 0
M  V30 3426 C 342.689 0.625593 1.92174 0
M  V30 3427 C 343.01 -0.841652 1.75901 0
M  V30 3428 O 342.28 -1.60061 1.12948 0
M  V30 3429 H 340.86 0.228388 0.71123 0
M  V30 3430 H 343.522 1.2266 1.51461 0
M  V30 3431 H 342.618 0.864653 2.99884 0
M  V30 3432 N 342.919 -1.39368 0.735821 0
M  V30 3433 C 343.829 -2.34395 0.0979693 0
M  V30 3434 C 344.845 -1.58361 -0.720968 0
M  V30 3435 O 346.021 -1.90648 -0.649245 0
M  V30 3436 C 343.086 -3.37393 -0.797916 0
M  V30 3437 C 342.147 -4.29287 0.0333662 0
M  V30 3438 C 341.38 -5.27365 -0.819854 0
M  V30 3439 O 341.603 -5.31959 -2.05855 0
M  V30 3440 O 340.537 -6.01389 -0.248079 0
M  V30 3441 H 344.363 -2.90601 0.882315 0
M  V30 3442 H 341.948 -1.40909 0.4965 0
M  V30 3443 H 343.83 -4.00505 -1.31048 0
M  V30 3444 H 342.505 -2.83571 -1.56106 0
M  V30 3445 H 341.412 -3.69395 0.591475 0
M  V30 3446 H 342.745 -4.86317 0.758752 0
M  V30 3447 N 344.397 -0.483516 -1.5 0
M  V30 3448 C 345.625 0.0644831 -2.06799 0
M  V30 3449 C 346.04 1.32399 -1.34596 0
M  V30 3450 O 345.397 1.77626 -0.418946 0
M  V30 3451 C 345.448 0.339927 -3.59898 0
M  V30 3452 O 345.169 -0.869635 -4.29382 0
M  V30 3453 C 346.67 0.933515 -4.33359 0
M  V30 3454 H 343.89 -0.0126333 -0.670881 0
M  V30 3455 H 346.434 -0.675864 -1.93009 0
M  V30 3456 H 344.589 1.03022 -3.7345 0
M  V30 3457 H 345.003 -0.62179 -5.20801 0
M  V30 3458 H 346.477 1.07593 -5.41413 0
M  V30 3459 H 346.954 1.92685 -3.94676 0
M  V30 3460 H 347.56 0.281221 -4.24369 0
M  V30 3461 N 345.875 1.56104 -0.216619 0
M  V30 3462 C 346.805 2.23063 0.690296 0
M  V30 3463 C 347.786 1.20072 1.20485 0
M  V30 3464 O 348.971 1.48643 1.24976 0
M  V30 3465 C 346.101 2.90672 1.90072 0
M  V30 3466 C 345.055 4.00092 1.5202 0
M  V30 3467 C 344.381 4.54972 2.80899 0
M  V30 3468 C 345.681 5.17398 0.71391 0
M  V30 3469 H 347.375 2.99109 0.132038 0
M  V30 3470 H 344.921 1.43866 0.0620664 0
M  V30 3471 H 346.874 3.36204 2.54057 0
M  V30 3472 H 345.598 2.12066 2.48386 0
M  V30 3473 H 344.257 3.55283 0.903839 0
M  V30 3474 H 343.905 3.73102 3.37348 0
M  V30 3475 H 343.605 5.28817 2.56176 0
M  V30 3476 H 345.129 5.0322 3.45836 0
M  V30 3477 H 346.543 5.59342 1.25735 0
M  V30 3478 H 344.94 5.97444 0.563951 0
M  V30 3479 H 346.01 4.84088 -0.280527 0
M  V30 3480 N 347.353 -0.0568162 1.57498 0
M  V30 3481 C 348.303 -1.07315 2.01166 0
M  V30 3482 C 349.287 -1.33632 0.896171 0
M  V30 3483 O 350.479 -1.33682 1.16009 0
M  V30 3484 C 347.608 -2.38257 2.47161 0
M  V30 3485 C 346.694 -2.1515 3.65474 0
M  V30 3486 N 347.085 -1.62014 4.7915 0
M  V30 3487 C 345.383 -2.45559 3.72313 0
M  V30 3488 C 346.084 -1.54069 5.60926 0
M  V30 3489 N 345.06 -2.00652 5.05213 0
M  V30 3490 H 348.862 -0.655878 2.86488 0
M  V30 3491 H 346.376 -0.263635 1.60246 0
M  V30 3492 H 348.373 -3.11845 2.76691 0
M  V30 3493 H 347.033 -2.80687 1.63232 0
M  V30 3494 H 348.044 -1.30667 5.01145 0
M  V30 3495 H 344.721 -2.91253 2.99129 0
M  V30 3496 H 346.111 -1.13712 6.62208 0
M  V30 3497 N 348.832 -1.54138 -0.328536 0
M  V30 3498 C 350.078 -1.7236 -1.06865 0
M  V30 3499 C 350.411 -0.493231 -1.87832 0
M  V30 3500 O 349.686 0.5098 -1.877 0
M  V30 3501 C 349.969 -2.99621 -1.99747 0
M  V30 3502 C 349.822 -4.32899 -1.22143 0
M  V30 3503 C 351.141 -3.22615 -2.99345 0
M  V30 3504 H 348.26 -0.627151 -0.387105 0
M  V30 3505 H 350.902 -1.86827 -0.345767 0
M  V30 3506 H 349.052 -2.87418 -2.61387 0
M  V30 3507 H 350.724 -4.56978 -0.630017 0
M  V30 3508 H 348.967 -4.30628 -0.523628 0
M  V30 3509 H 349.638 -5.18154 -1.90318 0
M  V30 3510 H 352.114 -3.34248 -2.47826 0
M  V30 3511 H 350.99 -4.13027 -3.61524 0
M  V30 3512 H 351.251 -2.3961 -3.71536 0
M  V30 3513 N 350.31 0.590341 -1.46126 0
M  V30 3514 C 351.258 1.72105 -1.5647 0
M  V30 3515 C 352.252 1.63756 -0.433612 0
M  V30 3516 O 353.458 1.69342 -0.610194 0
M  V30 3517 H 349.833 0.568889 -0.491802 0
M  V30 3518 H 351.804 1.6051 -2.51553 0
M  V30 3519 C 350.553 3.10493 -1.56491 0
M  V30 3520 H 349.876 3.17583 -2.4286 0
M  V30 3521 H 351.316 3.8939 -1.67785 0
M  V30 3522 C 349.775 3.3563 -0.292231 0
M  V30 3523 O 350.305 3.96875 0.620739 0
M  V30 3524 N 348.511 2.90026 -0.182523 0
M  V30 3525 H 348.058 2.40367 -0.926356 0
M  V30 3526 H 348.016 3.07218 0.668152 0
M  V30 3527 N 351.788 1.33704 0.83433 0
M  V30 3528 C 353.036 1.25169 1.58673 0
M  V30 3529 C 353.357 -0.18127 1.94156 0
M  V30 3530 O 352.627 -1.11113 1.6134 0
M  V30 3531 H 351.207 0.4603 0.58833 0
M  V30 3532 H 353.869 1.67478 0.996847 0
M  V30 3533 H 352.965 1.84856 2.51465 0
M  V30 3534 N 353.266 -1.05314 1.17247 0
M  V30 3535 C 354.514 -1.77941 0.958194 0
M  V30 3536 C 354.835 -1.88089 -0.514556 0
M  V30 3537 O 354.105 -1.39676 -1.37359 0
M  V30 3538 H 352.685 -0.659116 0.351533 0
M  V30 3539 H 355.347 -1.27166 1.47699 0
M  V30 3540 H 354.443 -2.79663 1.38546 0
M  V30 3541 N 354.744 -0.972509 -1.24016 0
M  V30 3542 C 355.677 -0.45117 -2.23696 0
M  V30 3543 C 356.655 0.477378 -1.55434 0
M  V30 3544 O 357.839 0.407647 -1.84039 0
M  V30 3545 C 354.966 0.34818 -3.36906 0
M  V30 3546 C 354.012 -0.523355 -4.23277 0
M  V30 3547 S 354.845 -1.96647 -4.98087 0
M  V30 3548 C 356.001 -1.17604 -6.14752 0
M  V30 3549 H 356.234 -1.29588 -2.67571 0
M  V30 3550 H 353.767 -0.777903 -1.33372 0
M  V30 3551 H 355.725 0.803387 -4.02562 0
M  V30 3552 H 354.386 1.16792 -2.91579 0
M  V30 3553 H 353.579 0.0906181 -5.03919 0
M  V30 3554 H 353.181 -0.914485 -3.62647 0
M  V30 3555 H 355.473 -0.433434 -6.76112 0
M  V30 3556 H 356.416 -1.95701 -6.8052 0
M  V30 3557 H 356.824 -0.698295 -5.60164 0
M  V30 3558 N 356.222 1.38976 -0.743202 0
M  V30 3559 C 357.452 2.04339 -0.304807 0
M  V30 3560 C 357.86 1.56162 1.06819 0
M  V30 3561 O 357.203 0.725284 1.68776 0
M  V30 3562 C 357.265 3.58716 -0.237369 0
M  V30 3563 C 356.929 4.29905 -1.55018 0
M  V30 3564 C 357.926 4.55987 -2.49744 0
M  V30 3565 C 355.611 4.68294 -1.81675 0
M  V30 3566 C 357.605 5.19478 -3.69353 0
M  V30 3567 C 355.292 5.31512 -3.0156 0
M  V30 3568 C 356.29 5.57037 -3.9522 0
M  V30 3569 O 355.978 6.18941 -5.12998 0
M  V30 3570 H 355.71 0.663439 -0.12971 0
M  V30 3571 H 358.264 1.78852 -1.01001 0
M  V30 3572 H 356.494 3.83133 0.524003 0
M  V30 3573 H 358.183 4.05543 0.170121 0
M  V30 3574 H 358.949 4.26767 -2.30423 0
M  V30 3575 H 354.828 4.47779 -1.09615 0
M  V30 3576 H 358.372 5.39318 -4.42473 0
M  V30 3577 H 354.269 5.60153 -3.20778 0
M  V30 3578 H 355.037 6.37433 -5.13441 0
M  V30 3579 N 357.7 0.491464 1.49741 0
M  V30 3580 C 358.633 -0.338464 2.25676 0
M  V30 3581 C 359.611 -0.978676 1.29849 0
M  V30 3582 O 360.795 -1.01064 1.59117 0
M  V30 3583 C 357.922 -1.47588 3.04853 0
M  V30 3584 C 356.968 -0.951 4.15762 0
M  V30 3585 S 357.801 0.150626 5.35288 0
M  V30 3586 C 358.957 -0.990178 6.18018 0
M  V30 3587 H 359.19 0.306068 2.9572 0
M  V30 3588 H 356.723 0.276622 1.51902 0
M  V30 3589 H 358.681 -2.12764 3.51058 0
M  V30 3590 H 357.342 -2.09199 2.34296 0
M  V30 3591 H 356.535 -1.80311 4.70642 0
M  V30 3592 H 356.137 -0.376607 3.72099 0
M  V30 3593 H 358.429 -1.89748 6.50386 0
M  V30 3594 H 359.372 -0.480205 7.0647 0
M  V30 3595 H 359.78 -1.25321 5.50413 0
M  V30 3596 N 359.178 -1.55987 0.224894 0
M  V30 3597 C 360.424 -1.98684 -0.406502 0
M  V30 3598 C 360.757 -1.11248 -1.59177 0
M  V30 3599 O 360.032 -0.170909 -1.93748 0
M  V30 3600 C 360.315 -3.50218 -0.837808 0
M  V30 3601 C 360.168 -4.48426 0.351332 0
M  V30 3602 C 361.487 -4.06243 -1.69278 0
M  V30 3603 H 358.606 -0.722337 -0.146283 0
M  V30 3604 H 361.248 -1.87255 0.321799 0
M  V30 3605 H 359.398 -3.60089 -1.45837 0
M  V30 3606 H 361.07 -4.50562 0.989526 0
M  V30 3607 H 359.313 -4.22159 0.998207 0
M  V30 3608 H 359.984 -5.52 0.00655905 0
M  V30 3609 H 362.46 -3.99337 -1.16914 0
M  V30 3610 H 361.336 -5.12581 -1.96346 0
M  V30 3611 H 361.597 -3.53332 -2.65723 0
M  V30 3612 O 360.695 -0.0887553 -1.61256 0
M  V30 3613 H 361.386 0.514821 -1.86733 0
M  V30 END ATOM
M  V30 BEGIN BOND
M  V30 END BOND
M  V30 END CTAB
M  END
$$$$
