drugbank_target|P0AEG4 Thiol:disulfide interchange protein DsbA (DB08689)
 OpenBabel12092120523D

  0  0  0     0  0            999 V3000
M  V30 BEGIN CTAB
M  V30 COUNTS 3247 3282 0 0 0
M  V30 BEGIN ATOM
M  V30 1 H -0.908 1.98254 -0.117106 0
M  V30 2 N 0 1.576 0 0
M  V30 3 C 0.933 2.03868 1.02534 0
M  V30 4 C 1.911 0.928543 1.3348 0
M  V30 5 O 3.095 1.19667 1.45644 0
M  V30 6 C 0.222 2.43627 2.35294 0
M  V30 7 C -0.732 3.65373 2.2001 0
M  V30 8 S 0.101 5.13292 1.52614 0
M  V30 9 C 1.257 5.56322 2.86805 0
M  V30 10 H 1.49 2.90518 0.631377 0
M  V30 11 H -0.977 1.52953 0.210867 0
M  V30 12 H 0.981 2.67203 3.11629 0
M  V30 13 H -0.358 1.57376 2.7183 0
M  V30 14 H -1.165 3.90944 3.18086 0
M  V30 15 H -1.563 3.418 1.51819 0
M  V30 16 H 0.729 5.58782 3.83104 0
M  V30 17 H 1.672 6.56266 2.65933 0
M  V30 18 H 2.08 4.83886 2.90714 0
M  V30 19 N 1.4781 -0.272755 1.55222 0
M  V30 20 C 2.4251 -1.33716 1.88119 0
M  V30 21 C 3.3951 -1.49066 0.73271 0
M  V30 22 O 4.5801 -1.63469 0.984002 0
M  V30 23 C 1.7201 -2.69238 2.15882 0
M  V30 24 C 0.8331 -2.62108 3.43399 0
M  V30 25 C -0.0319 -3.89811 3.60861 0
M  V30 26 C -0.9929 -3.77193 4.8207 0
M  V30 27 N -1.8559 -4.9673 4.96189 0
M  V30 28 H 2.9841 -1.04962 2.78903 0
M  V30 29 H 0.5211 -0.507088 1.38083 0
M  V30 30 H 2.4791 -3.48089 2.29978 0
M  V30 31 H 1.1091 -2.96194 1.28331 0
M  V30 32 H 0.1611 -1.74967 3.37773 0
M  V30 33 H 1.4731 -2.48685 4.32386 0
M  V30 34 H 0.6271 -4.77103 3.74777 0
M  V30 35 H -0.6339 -4.06102 2.7006 0
M  V30 36 H -1.6289 -2.88284 4.68159 0
M  V30 37 H -0.4039 -3.62421 5.74307 0
M  V30 38 H -2.4579 -5.13431 4.08319 0
M  V30 39 H -2.5409 -4.85839 5.79221 0
M  V30 40 H -1.2729 -5.85594 5.1449 0
M  V30 41 N 2.9562 -1.48159 -0.537278 0
M  V30 42 C 3.9032 -1.62138 -1.64256 0
M  V30 43 C 4.8732 -0.463668 -1.59497 0
M  V30 44 O 6.0582 -0.686241 -1.78032 0
M  V30 45 C 3.1982 -1.66028 -3.02537 0
M  V30 46 C 2.3112 -2.92855 -3.17585 0
M  V30 47 C 1.4462 -2.87952 -4.46382 0
M  V30 48 C 0.4852 -4.09516 -4.54932 0
M  V30 49 N -0.3778 -4.02733 -5.75109 0
M  V30 50 H 4.4622 -2.56529 -1.51647 0
M  V30 51 H 1.9992 -1.27224 -0.738414 0
M  V30 52 H 3.9572 -1.66265 -3.82638 0
M  V30 53 H 2.5872 -0.751331 -3.13934 0
M  V30 54 H 1.6392 -3.02395 -2.30784 0
M  V30 55 H 2.9512 -3.82822 -3.19764 0
M  V30 56 H 2.1052 -2.8655 -5.34765 0
M  V30 57 H 0.8442 -1.95702 -4.46712 0
M  V30 58 H -0.1508 -4.11201 -3.64957 0
M  V30 59 H 1.0742 -5.02917 -4.56346 0
M  V30 60 H -0.9798 -3.13299 -5.76351 0
M  V30 61 H -1.0628 -4.86397 -5.78752 0
M  V30 62 H 0.2052 -4.05379 -6.65799 0
M  V30 63 N 4.4343 0.785586 -1.36625 0
M  V30 64 C 5.6833 1.53883 -1.30396 0
M  V30 65 C 5.9963 1.95271 0.113452 0
M  V30 66 O 7.2023 2.69858 0.298142 0
M  V30 67 C 5.6583 2.77808 -2.28802 0
M  V30 68 C 5.2663 2.43574 -3.75999 0
M  V30 69 C 7.0103 3.55783 -2.31558 0
M  V30 70 C 4.9173 3.63919 -4.66173 0
M  V30 71 H 3.8473 0.577678 -0.484566 0
M  V30 72 H 6.4983 0.861705 -1.62009 0
M  V30 73 H 4.8803 3.47339 -1.90188 0
M  V30 74 H 6.0543 1.81916 -4.23371 0
M  V30 75 H 4.3693 1.78803 -3.76056 0
M  V30 76 H 6.9663 4.45205 -2.96137 0
M  V30 77 H 7.3093 3.94644 -1.3252 0
M  V30 78 H 7.8423 2.93235 -2.68809 0
M  V30 79 H 4.5813 3.3015 -5.66287 0
M  V30 80 H 4.1013 4.2473 -4.23515 0
M  V30 81 H 5.7803 4.30901 -4.82632 0
M  V30 82 N 5.9124 1.20967 1.01018 0
M  V30 83 C 7.1584 1.0353 1.7508 0
M  V30 84 C 7.5134 -0.42734 1.87594 0
M  V30 85 O 6.8064 -1.31298 1.3954 0
M  V30 86 C 7.0004 1.65997 3.16512 0
M  V30 87 C 6.8294 3.18184 3.17788 0
M  V30 88 C 5.5994 3.87198 3.24662 0
M  V30 89 C 7.7974 4.15334 3.03319 0
M  V30 90 N 5.7794 5.26618 3.15509 0
M  V30 91 C 7.1504 5.41472 3.02007 0
M  V30 92 C 9.2054 4.06449 2.87583 0
M  V30 93 C 7.9084 6.5975 2.86571 0
M  V30 94 C 9.9344 5.24357 2.73503 0
M  V30 95 C 9.2964 6.49404 2.72862 0
M  V30 96 H 5.3954 0.433137 0.651089 0
M  V30 97 H 7.9794 1.5324 1.20107 0
M  V30 98 H 6.1504 1.18863 3.69765 0
M  V30 99 H 7.8824 1.41816 3.79039 0
M  V30 100 H 4.6374 3.38093 3.31648 0
M  V30 101 H 5.0614 5.99626 3.14289 0
M  V30 102 H 9.7034 3.10573 2.86887 0
M  V30 103 H 7.4214 7.55792 2.86015 0
M  V30 104 H 11.0074 5.19299 2.62334 0
M  V30 105 H 9.8874 7.39105 2.62093 0
M  V30 106 N 7.3905 -1.2043 1.01659 0
M  V30 107 C 8.3205 -2.25466 0.607226 0
M  V30 108 C 9.3015 -1.65853 -0.377716 0
M  V30 109 O 10.4865 -1.92409 -0.263149 0
M  V30 110 C 7.6165 -3.47256 -0.0552949 0
M  V30 111 C 6.5705 -4.19462 0.850632 0
M  V30 112 C 5.8965 -5.34673 0.0538859 0
M  V30 113 C 7.1965 -4.75603 2.15868 0
M  V30 114 H 8.8905 -2.59962 1.48526 0
M  V30 115 H 6.4365 -1.2496 0.715605 0
M  V30 116 H 8.3895 -4.19917 -0.353233 0
M  V30 117 H 7.1135 -3.11924 -0.968045 0
M  V30 118 H 5.7725 -3.48667 1.13257 0
M  V30 119 H 5.4205 -4.95585 -0.860514 0
M  V30 120 H 5.1205 -5.83913 0.657192 0
M  V30 121 H 6.6445 -6.10138 -0.237598 0
M  V30 122 H 8.0585 -5.40083 1.92311 0
M  V30 123 H 6.4555 -5.3528 2.71284 0
M  V30 124 H 7.5255 -3.94346 2.82169 0
M  V30 125 N 8.8686 -0.792821 -1.36206 0
M  V30 126 C 9.8316 -0.199459 -2.2833 0
M  V30 127 C 10.8316 0.605189 -1.48977 0
M  V30 128 O 12.0216 0.425685 -1.68919 0
M  V30 129 C 9.1536 0.723523 -3.33134 0
M  V30 130 H 10.3466 -1.01181 -2.82316 0
M  V30 131 H 7.8996 -0.562485 -1.45828 0
M  V30 132 H 8.6346 1.56008 -2.84309 0
M  V30 133 H 8.4196 0.148436 -3.91819 0
M  V30 134 H 9.9096 1.13344 -4.01924 0
M  V30 135 N 10.3467 1.47872 -0.545128 0
M  V30 136 C 11.2767 2.32661 0.197793 0
M  V30 137 C 12.2577 1.43041 0.920504 0
M  V30 138 O 13.4427 1.71912 0.90333 0
M  V30 139 C 10.5727 3.24569 1.23582 0
M  V30 140 C 9.5267 4.23333 0.630323 0
M  V30 141 C 8.8527 5.0448 1.77211 0
M  V30 142 C 10.1527 5.20704 -0.407974 0
M  V30 143 H 11.8467 2.95024 -0.510045 0
M  V30 144 H 9.3927 1.4187 -0.246731 0
M  V30 145 H 11.3457 3.8272 1.76362 0
M  V30 146 H 10.0697 2.60236 1.97344 0
M  V30 147 H 8.7287 3.6639 0.123922 0
M  V30 148 H 8.3767 4.36561 2.49847 0
M  V30 149 H 8.0767 5.71339 1.37281 0
M  V30 150 H 9.6007 5.65487 2.3034 0
M  V30 151 H 11.0147 5.7329 0.033305 0
M  V30 152 H 9.4117 5.95699 -0.725486 0
M  V30 153 H 10.4817 4.66917 -1.30828 0
M  V30 154 N 11.8248 0.280983 1.55075 0
M  V30 155 C 12.7878 -0.590896 2.21452 0
M  V30 156 C 13.7878 -1.07682 1.19421 0
M  V30 157 O 14.9778 -0.97605 1.44288 0
M  V30 158 C 12.1098 -1.81587 2.88511 0
M  V30 159 H 13.3028 -0.0112554 2.99898 0
M  V30 160 H 10.8558 0.0316438 1.56268 0
M  V30 161 H 11.5908 -2.43587 2.14093 0
M  V30 162 H 11.3758 -1.4753 3.63287 0
M  V30 163 H 12.8658 -2.43575 3.39206 0
M  V30 164 N 13.3029 -1.57598 0.00835791 0
M  V30 165 C 14.5509 -1.90551 -0.6734 0
M  V30 166 C 14.8719 -0.883301 -1.73847 0
M  V30 167 O 14.1419 0.0781442 -1.95744 0
M  V30 168 H 12.7219 -0.703312 -0.251717 0
M  V30 169 H 15.3839 -1.94833 0.0512592 0
M  V30 170 H 14.4799 -2.9056 -1.13935 0
M  V30 171 N 14.781 0.264519 -1.55364 0
M  V30 172 C 15.711 1.33121 -1.91836 0
M  V30 173 C 16.692 1.51101 -0.781192 0
M  V30 174 O 17.877 1.64003 -1.04003 0
M  V30 175 C 15.007 2.68921 -2.19769 0
M  V30 176 C 13.961 2.65661 -3.35571 0
M  V30 177 C 13.287 4.05093 -3.49004 0
M  V30 178 C 14.587 2.24187 -4.71739 0
M  V30 179 H 16.281 1.02844 -2.81182 0
M  V30 180 H 13.827 0.493286 -1.35287 0
M  V30 181 H 15.78 3.43663 -2.43872 0
M  V30 182 H 14.504 3.00799 -1.27231 0
M  V30 183 H 13.163 1.93377 -3.1145 0
M  V30 184 H 12.811 4.34206 -2.53917 0
M  V30 185 H 12.511 4.03804 -4.26868 0
M  V30 186 H 14.035 4.81561 -3.75408 0
M  V30 187 H 15.449 2.88654 -4.9533 0
M  V30 188 H 13.846 2.34044 -5.52579 0
M  V30 189 H 14.916 1.19327 -4.69988 0
M  V30 190 N 16.2591 1.48442 0.529413 0
M  V30 191 C 17.5051 1.5672 1.28711 0
M  V30 192 C 17.8381 0.2406 1.92704 0
M  V30 193 O 17.1131 -0.753454 1.79313 0
M  V30 194 C 17.3961 2.70587 2.37603 0
M  V30 195 C 17.2491 4.12953 1.78297 0
M  V30 196 C 18.5681 2.80212 3.39366 0
M  V30 197 H 15.6871 0.570474 0.466613 0
M  V30 198 H 18.3291 1.80617 0.589706 0
M  V30 199 H 16.4791 2.50342 2.97088 0
M  V30 200 H 18.1511 4.44639 1.22858 0
M  V30 201 H 16.3941 4.19927 1.0883 0
M  V30 202 H 17.0651 4.88448 2.57144 0
M  V30 203 H 19.5411 2.98553 2.89836 0
M  V30 204 H 18.4171 3.61611 4.12951 0
M  V30 205 H 18.6781 1.88393 3.99951 0
M  V30 206 N 17.7372 -0.778329 1.37039 0
M  V30 207 C 18.6672 -1.90546 1.34962 0
M  V30 208 C 19.6482 -1.68681 0.219274 0
M  V30 209 O 20.8332 -1.89634 0.418624 0
M  V30 210 C 17.9632 -3.27734 1.14925 0
M  V30 211 C 16.9172 -3.64147 2.24902 0
M  V30 212 C 16.2432 -4.99806 1.89996 0
M  V30 213 C 17.5432 -3.71579 3.67051 0
M  V30 214 H 19.2372 -1.92541 2.29277 0
M  V30 215 H 16.7832 -0.924948 1.10366 0
M  V30 216 H 18.7362 -4.06215 1.12104 0
M  V30 217 H 17.4602 -3.26154 0.170631 0
M  V30 218 H 16.1192 -2.8797 2.26868 0
M  V30 219 H 15.7672 -4.94759 0.906796 0
M  V30 220 H 15.4672 -5.25139 2.63634 0
M  V30 221 H 16.9912 -5.80694 1.88749 0
M  V30 222 H 18.4052 -4.40227 3.67251 0
M  V30 223 H 16.8022 -4.08405 4.39688 0
M  V30 224 H 17.8722 -2.72404 4.01154 0
M  V30 225 N 19.2153 -1.21501 -1.00376 0
M  V30 226 C 20.1783 -0.976927 -2.07337 0
M  V30 227 C 21.1783 0.0525322 -1.60714 0
M  V30 228 O 22.3683 -0.184869 -1.73216 0
M  V30 229 C 19.5003 -0.473423 -3.37597 0
M  V30 230 H 20.6933 -1.92587 -2.29892 0
M  V30 231 H 18.2463 -1.03217 -1.17371 0
M  V30 232 H 18.9813 0.480379 -3.20722 0
M  V30 233 H 18.7663 -1.216 -3.72768 0
M  V30 234 H 20.2563 -0.32675 -4.1632 0
M  V30 235 N 20.6934 1.19889 -1.02296 0
M  V30 236 C 21.9404 1.8942 -0.715972 0
M  V30 237 C 22.2684 1.79251 0.754944 0
M  V30 238 O 21.5234 1.17526 1.56481 0
M  V30 239 C 21.8224 3.39883 -1.10518 0
M  V30 240 C 21.4884 3.70254 -2.57337 0
M  V30 241 C 20.1504 3.78254 -2.97452 0
M  V30 242 C 22.5024 3.84052 -3.52354 0
M  V30 243 C 19.8304 3.97514 -4.31509 0
M  V30 244 C 22.1824 4.04824 -4.86108 0
M  V30 245 C 20.8464 4.11054 -5.25919 0
M  V30 246 H 20.1164 0.693138 -0.261993 0
M  V30 247 H 22.7634 1.42012 -1.28472 0
M  V30 248 H 21.0684 3.8915 -0.454953 0
M  V30 249 H 22.7654 3.9199 -0.845261 0
M  V30 250 H 19.3554 3.64632 -2.25258 0
M  V30 251 H 23.5394 3.77221 -3.22518 0
M  V30 252 H 18.7954 4.00574 -4.61898 0
M  V30 253 H 22.9694 4.14442 -5.59653 0
M  V30 254 H 20.5964 4.2573 -6.29808 0
M  V30 255 N 22.1715 0.800033 1.35784 0
M  V30 256 C 23.3965 0.388511 2.03729 0
M  V30 257 C 23.8215 -0.990481 1.5991 0
M  V30 258 O 23.1795 -1.64013 0.772612 0
M  V30 259 C 23.2275 0.4726 3.5749 0
M  V30 260 O 22.3315 -0.51646 4.09153 0
M  V30 261 H 21.6725 0.163271 0.643614 0
M  V30 262 H 24.2025 1.0841 1.73518 0
M  V30 263 H 24.2125 0.34003 4.06581 0
M  V30 264 H 22.8875 1.47848 3.88734 0
M  V30 265 H 21.4645 -0.344673 3.71304 0
M  V30 266 N 23.6496 -1.47581 0.552962 0
M  V30 267 C 24.6126 -2.28439 -0.186605 0
M  V30 268 C 25.6126 -1.36706 -0.84665 0
M  V30 269 O 26.8026 -1.59378 -0.703164 0
M  V30 270 C 23.9346 -3.16264 -1.2724 0
M  V30 271 H 25.1276 -2.95294 0.523609 0
M  V30 272 H 22.6806 -1.532 0.309745 0
M  V30 273 H 23.4156 -2.54091 -2.01514 0
M  V30 274 H 23.2006 -3.83769 -0.803968 0
M  V30 275 H 24.6906 -3.77198 -1.79196 0
M  V30 276 N 25.1277 -0.289203 -1.54924 0
M  V30 277 C 26.3527 0.329299 -2.04769 0
M  V30 278 C 26.7777 1.4763 -1.16564 0
M  V30 279 O 26.1357 1.80527 -0.167186 0
M  V30 280 C 26.1837 0.774438 -3.52186 0
M  V30 281 O 25.2877 1.88038 -3.67036 0
M  V30 282 H 24.6287 0.0659259 -0.660719 0
M  V30 283 H 27.1587 -0.42761 -2.00082 0
M  V30 284 H 27.1687 1.06642 -3.93816 0
M  V30 285 H 25.8437 -0.0646707 -4.1585 0
M  V30 286 H 24.4207 1.58985 -3.3731 0
M  V30 287 N 26.6058 1.57591 -0.0167156 0
M  V30 288 C 27.5688 2.08393 0.954204 0
M  V30 289 C 28.5688 0.996531 1.26198 0
M  V30 290 O 29.7588 1.25858 1.20438 0
M  V30 291 C 26.8908 2.5394 2.27436 0
M  V30 292 H 28.0838 2.95455 0.514451 0
M  V30 293 H 25.6368 1.54582 0.231089 0
M  V30 294 H 26.3718 1.70171 2.76066 0
M  V30 295 H 26.1568 3.33371 2.06412 0
M  V30 296 H 27.6468 2.93512 2.97053 0
M  V30 297 N 28.0839 -0.256276 1.55502 0
M  V30 298 C 29.0469 -1.30047 1.88734 0
M  V30 299 C 30.0469 -1.4154 0.763086 0
M  V30 300 O 31.2369 -1.40403 1.03115 0
M  V30 301 C 28.3689 -2.67953 2.10747 0
M  V30 302 H 29.5619 -1.01802 2.82093 0
M  V30 303 H 27.1149 -0.495134 1.4825 0
M  V30 304 H 27.8499 -3.01351 1.19825 0
M  V30 305 H 27.6349 -2.60993 2.92617 0
M  V30 306 H 29.1249 -3.43368 2.37673 0
M  V30 307 N 29.562 -1.4872 -0.521534 0
M  V30 308 C 30.494 -1.59968 -1.64143 0
M  V30 309 C 31.507 -0.483463 -1.55456 0
M  V30 310 O 32.696 -0.75467 -1.61762 0
M  V30 311 C 29.796 -1.52127 -3.02838 0
M  V30 312 C 28.969 -2.78932 -3.36921 0
M  V30 313 C 28.028 -2.64428 -4.54933 0
M  V30 314 O 27.054 -3.38331 -4.57735 0
M  V30 315 N 28.256 -1.74606 -5.53618 0
M  V30 316 H 31.021 -2.56548 -1.54929 0
M  V30 317 H 28.582 -1.45551 -0.708988 0
M  V30 318 H 30.574 -1.40106 -3.79674 0
M  V30 319 H 29.144 -0.634868 -3.06085 0
M  V30 320 H 28.364 -3.05455 -2.4918 0
M  V30 321 H 29.652 -3.63041 -3.56481 0
M  V30 322 H 29.05 -1.13782 -5.54139 0
M  V30 323 H 27.607 -1.6852 -6.29638 0
M  V30 324 N 31.0401 0.771051 -1.3745 0
M  V30 325 C 32.2701 1.55789 -1.35696 0
M  V30 326 C 32.6781 1.89107 0.0594523 0
M  V30 327 O 32.0211 1.51984 1.03183 0
M  V30 328 C 32.0831 2.89515 -2.13123 0
M  V30 329 C 31.7471 2.78829 -3.62082 0
M  V30 330 C 32.7441 2.49812 -4.5595 0
M  V30 331 C 30.4291 2.9683 -4.05213 0
M  V30 332 C 32.4231 2.38923 -5.90927 0
M  V30 333 C 30.1101 2.85562 -5.40276 0
M  V30 334 C 31.1081 2.56649 -6.32946 0
M  V30 335 O 30.7961 2.45408 -7.65526 0
M  V30 336 H 30.5281 0.489257 -0.466481 0
M  V30 337 H 33.0821 0.963446 -1.81403 0
M  V30 338 H 31.3121 3.51081 -1.62107 0
M  V30 339 H 33.0011 3.50915 -2.03994 0
M  V30 340 H 33.7671 2.3559 -4.23937 0
M  V30 341 H 29.6461 3.18335 -3.33442 0
M  V30 342 H 33.1901 2.16277 -6.63227 0
M  V30 343 H 29.0871 2.99351 -5.71891 0
M  V30 344 H 29.8551 2.60753 -7.75855 0
M  V30 345 N 32.5182 1.22032 0.997298 0
M  V30 346 C 33.4282 1.00271 2.12092 0
M  V30 347 C 34.4442 -0.047621 1.73935 0
M  V30 348 O 35.6202 0.144136 2.00884 0
M  V30 349 C 32.6852 0.578449 3.4184 0
M  V30 350 C 31.7462 1.70189 3.94125 0
M  V30 351 C 30.9792 1.29778 5.17681 0
M  V30 352 O 31.2022 0.174676 5.70132 0
M  V30 353 O 30.1362 2.11261 5.63607 0
M  V30 354 H 33.9622 1.94398 2.3333 0
M  V30 355 H 31.5472 1.00587 1.10465 0
M  V30 356 H 33.4292 0.351998 4.19927 0
M  V30 357 H 32.1042 -0.334019 3.21972 0
M  V30 358 H 31.0112 1.98282 3.1723 0
M  V30 359 H 32.3442 2.59206 4.18417 0
M  V30 360 N 33.9963 -1.19345 1.0293 0
M  V30 361 C 35.2733 -1.84811 0.640642 0
M  V30 362 C 35.6533 -1.91855 -0.88062 0
M  V30 363 O 35.0013 -1.43587 -1.7775 0
M  V30 364 C 35.2113 -3.23755 1.30321 0
M  V30 365 C 36.5593 -3.99912 1.42673 0
M  V30 366 O 37.5833 -3.33155 1.26041 0
M  V30 367 O 36.4423 -5.19494 1.6967 0
M  V30 368 H 33.5363 -0.796443 0.222726 0
M  V30 369 H 36.0823 -1.26831 1.12748 0
M  V30 370 H 34.8543 -3.13466 2.34211 0
M  V30 371 H 34.4773 -3.89381 0.804261 0
M  V30 372 N 35.4744 -0.807222 -1.35358 0
M  V30 373 C 36.7224 -0.387122 -1.98358 0
M  V30 374 C 37.0434 1.04942 -1.64354 0
M  V30 375 O 36.3134 1.72615 -0.926339 0
M  V30 376 H 34.8934 -0.140154 -0.733734 0
M  V30 377 H 37.5554 -1.0332 -1.6526 0
M  V30 378 H 36.6514 -0.493352 -3.08176 0
M  V30 379 N 36.9525 1.47285 -0.560781 0
M  V30 380 C 37.8995 2.30058 0.18491 0
M  V30 381 C 38.8695 1.39281 0.904986 0
M  V30 382 O 40.0545 1.68241 0.899979 0
M  V30 383 C 37.1945 3.23317 1.20666 0
M  V30 384 C 36.3075 4.29186 0.492285 0
M  V30 385 C 35.4425 5.09592 1.49964 0
M  V30 386 C 34.4815 6.07232 0.770439 0
M  V30 387 N 33.6185 6.80584 1.72479 0
M  V30 388 H 38.4585 2.93302 -0.527048 0
M  V30 389 H 35.9955 1.44568 -0.271738 0
M  V30 390 H 37.9535 3.75811 1.81168 0
M  V30 391 H 36.5835 2.61929 1.88661 0
M  V30 392 H 35.6355 3.7972 -0.227333 0
M  V30 393 H 36.9475 4.98738 -0.0787929 0
M  V30 394 H 36.1015 5.66254 2.17809 0
M  V30 395 H 34.8405 4.3995 2.10464 0
M  V30 396 H 33.8455 5.49745 0.0780846 0
M  V30 397 H 35.0705 6.78884 0.171134 0
M  V30 398 H 33.0165 6.1367 2.3183 0
M  V30 399 H 32.9335 7.46319 1.20596 0
M  V30 400 H 34.2015 7.41818 2.39428 0
M  V30 401 N 38.4306 0.297415 1.54768 0
M  V30 402 C 39.3626 -0.613881 2.20826 0
M  V30 403 C 40.3756 -1.10032 1.19987 0
M  V30 404 O 41.5646 -1.01839 1.46598 0
M  V30 405 C 38.6646 -1.852 2.83821 0
M  V30 406 C 37.8376 -1.50865 4.10559 0
M  V30 407 C 36.8966 -2.60154 4.57391 0
M  V30 408 O 35.9226 -2.25398 5.2267 0
M  V30 409 N 37.1246 -3.90629 4.29406 0
M  V30 410 H 39.8896 -0.048389 2.99661 0
M  V30 411 H 37.4506 0.11946 1.61459 0
M  V30 412 H 39.4426 -2.57652 3.12086 0
M  V30 413 H 38.0126 -2.32597 2.08847 0
M  V30 414 H 37.2326 -0.616925 3.89343 0
M  V30 415 H 38.5206 -1.25458 4.9309 0
M  V30 416 H 37.9186 -4.21677 3.77101 0
M  V30 417 H 36.4756 -4.59391 4.62388 0
M  V30 418 N 39.9087 -1.5758 0.0250728 0
M  V30 419 C 41.1387 -1.95646 -0.663783 0
M  V30 420 C 41.5467 -0.899935 -1.66427 0
M  V30 421 O 40.8897 0.127191 -1.83259 0
M  V30 422 C 40.9517 -3.29835 -1.43 0
M  V30 423 C 40.6157 -4.53197 -0.588305 0
M  V30 424 C 41.6127 -5.19726 0.13469 0
M  V30 425 C 39.2977 -4.99529 -0.526897 0
M  V30 426 C 41.2917 -6.30902 0.90781 0
M  V30 427 C 38.9787 -6.10589 0.24993 0
M  V30 428 C 39.9767 -6.76134 0.965994 0
M  V30 429 O 39.6647 -7.85062 1.7301 0
M  V30 430 H 39.3967 -0.649282 -0.188174 0
M  V30 431 H 41.9507 -2.05245 0.0799006 0
M  V30 432 H 40.1807 -3.16716 -2.21873 0
M  V30 433 H 41.8697 -3.52833 -2.00658 0
M  V30 434 H 42.6357 -4.84904 0.0965562 0
M  V30 435 H 38.5147 -4.48319 -1.07381 0
M  V30 436 H 42.0587 -6.81995 1.46724 0
M  V30 437 H 37.9557 -6.44849 0.289795 0
M  V30 438 H 38.7237 -8.01708 1.64944 0
M  V30 439 N 41.3868 0.248026 -1.55636 0
M  V30 440 C 42.6148 0.993808 -1.81469 0
M  V30 441 C 43.0298 1.78991 -0.60064 0
M  V30 442 O 42.3868 1.77345 0.430682 0
M  V30 443 C 42.4378 1.93258 -3.05506 0
M  V30 444 O 42.1588 1.16869 -4.22224 0
M  V30 445 C 43.6598 2.79444 -3.4413 0
M  V30 446 H 40.8798 0.292486 -0.603898 0
M  V30 447 H 43.4238 0.271253 -2.02693 0
M  V30 448 H 41.5788 2.60943 -2.86335 0
M  V30 449 H 41.9928 1.80359 -4.92515 0
M  V30 450 H 43.4668 3.41066 -4.34026 0
M  V30 451 H 43.9438 3.50499 -2.64665 0
M  V30 452 H 44.5498 2.17214 -3.65648 0
M  V30 453 N 42.8649 1.48995 0.513639 0
M  V30 454 C 44.0929 1.61531 1.29288 0
M  V30 455 C 44.5079 0.281801 1.86685 0
M  V30 456 O 43.8649 -0.731111 1.67215 0
M  V30 457 C 43.9159 2.67449 2.43215 0
M  V30 458 O 43.6369 3.95626 1.88179 0
M  V30 459 C 45.1379 2.90575 3.34785 0
M  V30 460 H 42.3579 0.544165 0.392588 0
M  V30 461 H 44.9019 1.9494 0.617956 0
M  V30 462 H 43.0569 2.36853 3.0656 0
M  V30 463 H 43.4709 4.53868 2.62876 0
M  V30 464 H 44.9449 3.68449 4.11035 0
M  V30 465 H 45.4219 2.00011 3.91015 0
M  V30 466 H 46.0279 3.22538 2.77218 0
M  V30 467 N 44.343 -0.763751 1.37857 0
M  V30 468 C 45.273 -1.89103 1.36975 0
M  V30 469 C 46.254 -1.68439 0.237152 0
M  V30 470 O 47.439 -1.8918 0.438713 0
M  V30 471 C 44.569 -3.26496 1.18395 0
M  V30 472 C 43.523 -3.61741 2.28751 0
M  V30 473 C 42.849 -4.97762 1.95286 0
M  V30 474 C 44.149 -3.67665 3.70972 0
M  V30 475 H 45.843 -1.90099 2.31307 0
M  V30 476 H 43.389 -0.91319 1.11341 0
M  V30 477 H 45.342 -4.05003 1.16406 0
M  V30 478 H 44.066 -3.25955 0.205215 0
M  V30 479 H 42.725 -2.85547 2.29909 0
M  V30 480 H 42.373 -4.93769 0.959221 0
M  V30 481 H 42.073 -5.22313 2.69189 0
M  V30 482 H 43.597 -5.7866 1.94898 0
M  V30 483 H 45.011 -4.36307 3.719 0
M  V30 484 H 43.408 -4.03718 4.43995 0
M  V30 485 H 44.478 -2.68134 4.0402 0
M  V30 486 N 45.8211 -1.22559 -0.990812 0
M  V30 487 C 46.7311 -1.01394 -2.11557 0
M  V30 488 C 47.7471 0.0383962 -1.73958 0
M  V30 489 O 48.9231 -0.154787 -2.00804 0
M  V30 490 C 45.9881 -0.596569 -3.41529 0
M  V30 491 C 45.0491 -1.72276 -3.93217 0
M  V30 492 C 44.2821 -1.32521 -5.16985 0
M  V30 493 O 44.5051 -0.204909 -5.70032 0
M  V30 494 O 43.4391 -2.14247 -5.62478 0
M  V30 495 H 47.2651 -1.95633 -2.32296 0
M  V30 496 H 44.8501 -1.01172 -1.0993 0
M  V30 497 H 46.7321 -0.374263 -4.19735 0
M  V30 498 H 45.4071 0.316939 -3.22145 0
M  V30 499 H 44.3141 -1.99961 -3.16174 0
M  V30 500 H 45.6471 -2.61421 -4.17037 0
M  V30 501 N 47.2992 1.18797 -1.03562 0
M  V30 502 C 48.2462 2.22253 -0.622259 0
M  V30 503 C 49.2162 1.61987 0.36736 0
M  V30 504 O 50.4012 1.88986 0.262492 0
M  V30 505 C 47.5412 3.45097 0.0138462 0
M  V30 506 C 46.6542 4.19722 -1.02263 0
M  V30 507 C 45.7892 5.30009 -0.355573 0
M  V30 508 C 44.8282 5.96399 -1.37749 0
M  V30 509 N 43.9652 6.98234 -0.735766 0
M  V30 510 H 48.8052 2.56968 -1.50903 0
M  V30 511 H 46.3422 1.26245 -0.755017 0
M  V30 512 H 48.3002 4.15279 0.399948 0
M  V30 513 H 46.9302 3.11018 0.864158 0
M  V30 514 H 45.9822 3.48418 -1.52673 0
M  V30 515 H 47.2942 4.65227 -1.79903 0
M  V30 516 H 46.4482 6.0664 0.0850095 0
M  V30 517 H 45.1872 4.85592 0.452967 0
M  V30 518 H 44.1922 5.18512 -1.82826 0
M  V30 519 H 45.4172 6.42899 -2.18764 0
M  V30 520 H 43.3632 6.55979 0.0525597 0
M  V30 521 H 43.2802 7.41965 -1.44995 0
M  V30 522 H 44.5482 7.78845 -0.31941 0
M  V30 523 N 48.7773 0.814389 1.34928 0
M  V30 524 C 50.1883 0.458364 1.80986 0
M  V30 525 C 50.5393 -1.02042 1.67577 0
M  V30 526 O 49.6643 -1.79352 1.21086 0
M  V30 527 C 50.2593 0.825212 3.28597 0
M  V30 528 C 48.8183 0.521677 3.72767 0
M  V30 529 C 47.9653 1.04668 2.56788 0
M  V30 530 H 50.9163 1.00533 1.22795 0
M  V30 531 H 50.9373 0.12571 3.80292 0
M  V30 532 H 50.4493 1.90154 3.38324 0
M  V30 533 H 48.5503 -0.545589 3.68584 0
M  V30 534 H 48.6633 1.05977 4.67232 0
M  V30 535 H 47.0273 0.468622 2.50352 0
M  V30 536 H 47.8103 2.12927 2.6929 0
M  V30 537 N 50.2554 -1.46986 0.568584 0
M  V30 538 C 51.5014 -2.02741 0.0488709 0
M  V30 539 C 51.8344 -1.44077 -1.30214 0
M  V30 540 O 51.1094 -0.600552 -1.84996 0
M  V30 541 C 51.3924 -3.60086 -0.032047 0
M  V30 542 C 51.2454 -4.29162 1.34686 0
M  V30 543 C 52.5644 -4.33838 -0.739798 0
M  V30 544 H 49.6834 -0.736749 0.0192338 0
M  V30 545 H 52.3254 -1.75289 0.733065 0
M  V30 546 H 50.4754 -3.83606 -0.61473 0
M  V30 547 H 52.1474 -4.16948 1.97362 0
M  V30 548 H 50.3904 -3.89073 1.91846 0
M  V30 549 H 51.0614 -5.37826 1.24285 0
M  V30 550 H 53.5374 -4.15378 -0.244939 0
M  V30 551 H 52.4134 -5.43537 -0.765406 0
M  V30 552 H 52.6744 -4.03875 -1.79827 0
M  V30 553 N 51.7335 -0.305618 -1.54608 0
M  V30 554 C 52.6965 0.555591 -2.22364 0
M  V30 555 C 53.6965 1.05768 -1.21119 0
M  V30 556 O 54.8865 0.952972 -1.45822 0
M  V30 557 C 52.0185 1.76974 -2.91364 0
M  V30 558 H 53.2115 -0.0364572 -2.99878 0
M  V30 559 H 50.7645 -0.0565007 -1.56198 0
M  V30 560 H 51.4995 2.40151 -2.17941 0
M  V30 561 H 51.2845 1.41732 -3.65588 0
M  V30 562 H 52.7745 2.38148 -3.43038 0
M  V30 563 N 53.2116 1.57565 -0.0334293 0
M  V30 564 C 54.4596 1.91598 0.642999 0
M  V30 565 C 54.7806 0.910847 1.7242 0
M  V30 566 O 54.0506 -0.0469931 1.95844 0
M  V30 567 H 52.6306 0.707228 0.240496 0
M  V30 568 H 55.2926 1.94726 -0.0822488 0
M  V30 569 H 54.3886 2.92336 1.09298 0
M  V30 570 N 54.6897 -0.239769 1.55765 0
M  V30 571 C 55.6527 -1.28038 1.90103 0
M  V30 572 C 56.6527 -1.40723 0.778055 0
M  V30 573 O 57.8427 -1.39301 1.04599 0
M  V30 574 C 54.9747 -2.65702 2.13577 0
M  V30 575 H 56.1677 -0.988048 2.83157 0
M  V30 576 H 53.7207 -0.479382 1.48767 0
M  V30 577 H 54.4557 -3.00063 1.23015 0
M  V30 578 H 54.2407 -2.57875 2.95369 0
M  V30 579 H 55.7307 -3.40828 2.41301 0
M  V30 580 N 56.1678 -1.49265 -0.50573 0
M  V30 581 C 57.5788 -1.51769 -1.08734 0
M  V30 582 C 57.9298 -0.301192 -1.93874 0
M  V30 583 O 57.0548 0.589456 -2.08217 0
M  V30 584 C 57.6498 -2.75017 -1.97867 0
M  V30 585 C 56.2088 -2.80314 -2.51199 0
M  V30 586 C 55.3558 -2.4562 -1.28709 0
M  V30 587 H 58.3068 -1.56031 -0.289855 0
M  V30 588 H 58.3278 -2.5491 -2.82491 0
M  V30 589 H 57.8398 -3.63539 -1.35873 0
M  V30 590 H 55.9408 -1.96061 -3.16845 0
M  V30 591 H 56.0538 -3.82366 -2.88675 0
M  V30 592 H 54.4178 -1.97297 -1.61078 0
M  V30 593 H 55.2008 -3.36411 -0.6843 0
M  V30 594 N 57.6459 0.756429 -1.3826 0
M  V30 595 C 58.5779 1.87971 -1.31147 0
M  V30 596 C 59.5909 1.61248 -0.224239 0
M  V30 597 O 60.7799 1.71881 -0.481581 0
M  V30 598 C 57.8799 3.23545 -1.00857 0
M  V30 599 C 57.0529 3.77794 -2.20432 0
M  V30 600 C 56.1119 4.91877 -1.86931 0
M  V30 601 O 55.1379 5.06659 -2.59395 0
M  V30 602 N 56.3399 5.74643 -0.822568 0
M  V30 603 H 59.1049 1.94585 -2.2794 0
M  V30 604 H 56.6659 0.936234 -1.32084 0
M  V30 605 H 58.6579 3.97403 -0.765021 0
M  V30 606 H 57.2279 3.12335 -0.128687 0
M  V30 607 H 56.4479 2.95534 -2.6087 0
M  V30 608 H 57.7359 4.10771 -3.00241 0
M  V30 609 H 57.1339 5.65266 -0.221575 0
M  V30 610 H 55.6909 6.48661 -0.638899 0
M  V30 611 N 59.124 1.23083 0.984299 0
M  V30 612 C 60.37 1.06214 1.72761 0
M  V30 613 C 60.703 -0.400584 1.90024 0
M  V30 614 O 59.978 -1.29672 1.44967 0
M  V30 615 C 60.261 1.78375 3.12817 0
M  V30 616 C 60.114 3.32296 3.03149 0
M  V30 617 C 61.433 1.54309 4.12161 0
M  V30 618 H 58.552 0.387251 0.627061 0
M  V30 619 H 61.194 1.51536 1.14616 0
M  V30 620 H 59.344 1.39848 3.62457 0
M  V30 621 H 61.016 3.8032 2.61064 0
M  V30 622 H 59.259 3.6153 2.39747 0
M  V30 623 H 59.93 3.77972 4.02295 0
M  V30 624 H 62.406 1.87791 3.71314 0
M  V30 625 H 61.282 2.07281 5.08258 0
M  V30 626 H 61.543 0.477572 4.39513 0
M  V30 627 N 60.6021 -1.18246 1.0419 0
M  V30 628 C 61.5321 -2.24127 0.654914 0
M  V30 629 C 62.5131 -1.66617 -0.342451 0
M  V30 630 O 63.6981 -1.92924 -0.222277 0
M  V30 631 C 60.8281 -3.47295 0.0183757 0
M  V30 632 C 59.7821 -4.17563 0.939414 0
M  V30 633 C 59.1081 -5.34438 0.167286 0
M  V30 634 C 60.4081 -4.70917 2.25908 0
M  V30 635 H 62.1021 -2.56753 1.54007 0
M  V30 636 H 59.6481 -1.23414 0.74195 0
M  V30 637 H 61.6011 -4.20572 -0.264082 0
M  V30 638 H 60.3251 -3.13907 -0.901664 0
M  V30 639 H 58.9841 -3.46186 1.20628 0
M  V30 640 H 58.6321 -4.97298 -0.7552 0
M  V30 641 H 58.3321 -5.82388 0.780901 0
M  V30 642 H 59.8561 -6.10504 -0.108125 0
M  V30 643 H 61.2701 -5.35882 2.03724 0
M  V30 644 H 59.6671 -5.29406 2.82577 0
M  V30 645 H 60.7371 -3.88272 2.9047 0
M  V30 646 N 62.0802 -0.821533 -1.34494 0
M  V30 647 C 62.9902 -0.244355 -2.33324 0
M  V30 648 C 64.0062 0.620527 -1.62559 0
M  V30 649 O 65.1822 0.528754 -1.94335 0
M  V30 650 C 62.2472 0.585368 -3.41723 0
M  V30 651 C 61.3082 -0.301752 -4.28238 0
M  V30 652 C 60.5412 0.488466 -5.3146 0
M  V30 653 O 60.7642 1.72186 -5.4379 0
M  V30 654 O 59.6982 -0.12848 -6.01763 0
M  V30 655 H 63.5242 -1.06231 -2.84515 0
M  V30 656 H 61.1092 -0.583645 -1.37528 0
M  V30 657 H 62.9912 1.05747 -4.07916 0
M  V30 658 H 61.6662 1.38068 -2.92778 0
M  V30 659 H 60.5732 -0.821315 -3.64973 0
M  V30 660 H 61.9062 -1.06138 -4.8062 0
M  V30 661 N 63.5583 1.46682 -0.576371 0
M  V30 662 C 64.8053 2.02412 -0.0595339 0
M  V30 663 C 65.1333 1.44859 1.29793 0
M  V30 664 O 64.3883 0.601099 1.8624 0
M  V30 665 C 64.6873 3.57345 0.062886 0
M  V30 666 C 64.3533 4.33908 -1.22616 0
M  V30 667 C 63.0153 4.54544 -1.57933 0
M  V30 668 C 65.3673 4.77919 -2.07948 0
M  V30 669 C 62.6953 5.16444 -2.78393 0
M  V30 670 C 65.0473 5.41149 -3.27629 0
M  V30 671 C 63.7113 5.60014 -3.63236 0
M  V30 672 H 62.9813 0.74068 -0.021785 0
M  V30 673 H 65.6283 1.76128 -0.751735 0
M  V30 674 H 63.9333 3.82729 0.838178 0
M  V30 675 H 65.6303 3.98136 0.478439 0
M  V30 676 H 62.2203 4.18138 -0.941202 0
M  V30 677 H 66.4043 4.61738 -1.81967 0
M  V30 678 H 61.6603 5.29242 -3.06126 0
M  V30 679 H 65.8343 5.74211 -3.94023 0
M  V30 680 H 63.4613 6.07748 -4.56669 0
M  V30 681 N 65.0364 0.313813 1.54444 0
M  V30 682 C 66.2834 -0.291675 2.00388 0
M  V30 683 C 66.6114 -1.52904 1.2021 0
M  V30 684 O 65.8664 -1.93833 0.269707 0
M  V30 685 C 66.1654 -0.680386 3.50864 0
M  V30 686 C 65.8314 0.456699 4.48581 0
M  V30 687 C 64.4934 0.768824 4.75018 0
M  V30 688 C 66.8454 1.22098 5.06697 0
M  V30 689 C 64.1734 1.84812 5.56831 0
M  V30 690 C 66.5254 2.29029 5.89685 0
M  V30 691 C 65.1894 2.60834 6.14428 0
M  V30 692 H 64.4594 -0.106732 0.733273 0
M  V30 693 H 67.1064 0.43557 1.86481 0
M  V30 694 H 65.4114 -1.48791 3.62448 0
M  V30 695 H 67.1084 -1.16026 3.83847 0
M  V30 696 H 63.6984 0.203337 4.28117 0
M  V30 697 H 67.8824 0.993096 4.86263 0
M  V30 698 H 63.1384 2.09912 5.74236 0
M  V30 699 H 67.3124 2.887 6.33739 0
M  V30 700 H 64.9394 3.44596 6.77612 0
M  V30 701 N 66.5145 -1.57545 0.0417849 0
M  V30 702 C 67.7395 -1.97035 -0.647455 0
M  V30 703 C 68.1645 -0.918775 -1.64135 0
M  V30 704 O 67.5225 0.119006 -1.80909 0
M  V30 705 C 67.5705 -3.35609 -1.31905 0
M  V30 706 O 66.6745 -3.3287 -2.43457 0
M  V30 707 H 66.0155 -0.64211 -0.169086 0
M  V30 708 H 68.5455 -2.04318 0.107399 0
M  V30 709 H 68.5555 -3.72126 -1.67291 0
M  V30 710 H 67.2305 -4.11685 -0.590586 0
M  V30 711 H 65.8075 -3.08087 -2.10088 0
M  V30 712 N 67.9926 0.231505 -1.5589 0
M  V30 713 C 69.2396 0.957352 -1.78441 0
M  V30 714 C 69.5676 1.84726 -0.60882 0
M  V30 715 O 68.8226 1.91416 0.40725 0
M  V30 716 C 69.1216 1.83577 -3.0665 0
M  V30 717 C 68.7876 1.09993 -4.37278 0
M  V30 718 C 67.4496 0.896629 -4.72773 0
M  V30 719 C 69.8016 0.579558 -5.17968 0
M  V30 720 C 67.1296 0.160896 -5.86479 0
M  V30 721 C 69.4816 -0.142783 -6.32439 0
M  V30 722 C 68.1456 -0.357427 -6.66542 0
M  V30 723 H 67.4156 0.35032 -0.65296 0
M  V30 724 H 70.0626 0.226259 -1.90159 0
M  V30 725 H 68.3676 2.63441 -2.90011 0
M  V30 726 H 70.0646 2.39934 -3.21298 0
M  V30 727 H 66.6546 1.26835 -4.09403 0
M  V30 728 H 70.8386 0.724125 -4.90989 0
M  V30 729 H 66.0946 -0.0157293 -6.11398 0
M  V30 730 H 70.2686 -0.553559 -6.94196 0
M  V30 731 H 67.8956 -0.929466 -7.54497 0
M  V30 732 N 69.4707 1.49531 0.497807 0
M  V30 733 C 70.7177 1.59179 1.25173 0
M  V30 734 C 71.0457 0.279932 1.92475 0
M  V30 735 O 70.3007 -0.732383 1.81479 0
M  V30 736 C 70.5997 2.70252 2.33878 0
M  V30 737 C 70.2657 4.11644 1.84012 0
M  V30 738 C 68.9277 4.50121 1.70132 0
M  V30 739 C 71.2797 5.00121 1.46725 0
M  V30 740 C 68.6077 5.74845 1.17348 0
M  V30 741 C 70.9597 6.25366 0.95392 0
M  V30 742 C 69.6237 6.6267 0.801538 0
M  V30 743 H 68.8937 0.582478 0.45804 0
M  V30 744 H 71.5407 1.83373 0.551948 0
M  V30 745 H 69.8457 2.40041 3.09657 0
M  V30 746 H 71.5427 2.74925 2.9192 0
M  V30 747 H 68.1327 3.81274 1.95775 0
M  V30 748 H 72.3167 4.71048 1.56294 0
M  V30 749 H 67.5727 6.02444 1.04264 0
M  V30 750 H 71.7467 6.93301 0.656225 0
M  V30 751 H 69.3737 7.59197 0.390351 0
M  V30 752 N 70.9488 -0.749086 1.3866 0
M  V30 753 C 72.1888 -1.52112 1.36534 0
M  V30 754 C 72.5528 -1.91951 -0.0432316 0
M  V30 755 O 73.7538 -2.68132 -0.189396 0
M  V30 756 C 72.0248 -2.73704 2.29828 0
M  V30 757 S 73.5838 -3.63519 2.45763 0
M  V30 758 H 70.4018 -0.520482 0.484375 0
M  V30 759 H 73.0038 -0.878963 1.74627 0
M  V30 760 H 71.7078 -2.42552 3.31054 0
M  V30 761 H 71.2388 -3.4286 1.929 0
M  V30 762 H 73.2538 -4.66712 1.68505 0
M  V30 763 N 72.4269 -1.23603 -0.977757 0
M  V30 764 C 73.8379 -1.06424 -1.53398 0
M  V30 765 C 74.1889 0.367578 -1.92726 0
M  V30 766 O 73.3139 1.25465 -1.76316 0
M  V30 767 C 73.9089 -1.92568 -2.78753 0
M  V30 768 C 72.4679 -1.79642 -3.30765 0
M  V30 769 C 71.6149 -1.88111 -2.03739 0
M  V30 770 H 74.5659 -1.37227 -0.797152 0
M  V30 771 H 74.5869 -1.45203 -3.51705 0
M  V30 772 H 74.0989 -2.96771 -2.50098 0
M  V30 773 H 72.1999 -0.782325 -3.64294 0
M  V30 774 H 72.3129 -2.63174 -4.00345 0
M  V30 775 H 70.6769 -1.31723 -2.17994 0
M  V30 776 H 71.4599 -2.93875 -1.77461 0
M  V30 777 N 73.905 1.17692 -1.04816 0
M  V30 778 C 74.855 2.1952 -0.616042 0
M  V30 779 C 75.839 1.57147 0.345485 0
M  V30 780 O 77.031 1.76245 0.163325 0
M  V30 781 C 74.16 3.43298 0.0116917 0
M  V30 782 C 73.246 4.12777 -0.973435 0
M  V30 783 N 73.637 4.5814 -2.14339 0
M  V30 784 C 71.935 4.38747 -0.80108 0
M  V30 785 C 72.636 5.11713 -2.7663 0
M  V30 786 N 71.612 5.03686 -2.04453 0
M  V30 787 H 75.414 2.52293 -1.5075 0
M  V30 788 H 72.928 1.3398 -0.917776 0
M  V30 789 H 74.925 4.15519 0.339006 0
M  V30 790 H 73.585 3.12018 0.898593 0
M  V30 791 H 74.596 4.52349 -2.52191 0
M  V30 792 H 71.273 4.17485 0.0350934 0
M  V30 793 H 72.663 5.56962 -3.75823 0
M  V30 794 N 75.3831 0.828654 1.34056 0
M  V30 795 C 76.6231 0.425394 1.99924 0
M  V30 796 C 76.9871 -0.994294 1.64249 0
M  V30 797 O 78.1881 -1.50074 2.23005 0
M  V30 798 C 76.4591 0.628071 3.51838 0
M  V30 799 S 78.0181 0.318511 4.37642 0
M  V30 800 H 74.8361 0.160465 0.692656 0
M  V30 801 H 77.4381 1.07572 1.63244 0
M  V30 802 H 76.1421 1.66089 3.7529 0
M  V30 803 H 75.6731 -0.0367799 3.93383 0
M  V30 804 H 77.6881 -0.865632 4.88591 0
M  V30 805 N 76.8612 -1.46375 0.584142 0
M  V30 806 C 78.0912 -2.06461 0.0758195 0
M  V30 807 C 78.4992 -1.43322 -1.23512 0
M  V30 808 O 77.8422 -0.533216 -1.75791 0
M  V30 809 C 77.9042 -3.59131 -0.162773 0
M  V30 810 C 77.5682 -4.4447 1.06279 0
M  V30 811 C 78.5652 -4.80918 1.97519 0
M  V30 812 C 76.2502 -4.85584 1.28504 0
M  V30 813 C 78.2442 -5.57309 3.09331 0
M  V30 814 C 75.9312 -5.61734 2.4062 0
M  V30 815 C 76.9292 -5.9751 3.30863 0
M  V30 816 O 76.6172 -6.72121 4.41032 0
M  V30 817 H 76.3492 -0.673745 0.0551725 0
M  V30 818 H 78.9032 -1.88969 0.804984 0
M  V30 819 H 77.1332 -3.74936 -0.946565 0
M  V30 820 H 78.8222 -4.0114 -0.619782 0
M  V30 821 H 79.5882 -4.49732 1.81565 0
M  V30 822 H 75.4672 -4.57187 0.591702 0
M  V30 823 H 79.0112 -5.85152 3.79793 0
M  V30 824 H 74.9082 -5.92334 2.56537 0
M  V30 825 H 75.6762 -6.90547 4.39417 0
M  V30 826 N 78.3393 -0.321999 -1.54275 0
M  V30 827 C 79.2713 0.578671 -2.21775 0
M  V30 828 C 80.2843 1.08109 -1.21722 0
M  V30 829 O 81.4733 0.994938 -1.482 0
M  V30 830 C 78.5733 1.80661 -2.86731 0
M  V30 831 C 77.7463 1.44314 -4.12907 0
M  V30 832 C 76.8053 2.52845 -4.61472 0
M  V30 833 O 75.8313 2.17054 -5.2619 0
M  V30 834 N 77.0333 3.83748 -4.35566 0
M  V30 835 H 79.7983 0.000709447 -2.997 0
M  V30 836 H 77.3593 -0.145132 -1.61248 0
M  V30 837 H 79.3513 2.52655 -3.16145 0
M  V30 838 H 77.9213 2.29245 -2.12521 0
M  V30 839 H 77.1413 0.554906 -3.90275 0
M  V30 840 H 78.4293 1.17598 -4.95023 0
M  V30 841 H 77.8273 4.15625 -3.83761 0
M  V30 842 H 76.3843 4.51977 -4.69638 0
M  V30 843 N 79.8174 1.5752 -0.0501392 0
M  V30 844 C 81.0644 1.9265 0.623874 0
M  V30 845 C 81.3924 0.928411 1.70912 0
M  V30 846 O 80.6474 -0.0594525 1.9561 0
M  V30 847 C 80.9464 3.34467 1.25963 0
M  V30 848 C 80.6124 4.49883 0.302689 0
M  V30 849 C 79.2744 4.81184 0.0393636 0
M  V30 850 C 81.6264 5.20002 -0.353205 0
M  V30 851 C 78.9544 5.79951 -0.887308 0
M  V30 852 C 81.3064 6.1976 -1.26806 0
M  V30 853 C 79.9704 6.49491 -1.54007 0
M  V30 854 H 79.2404 0.704957 0.228292 0
M  V30 855 H 81.8874 1.91146 -0.116398 0
M  V30 856 H 80.1924 3.32333 2.07514 0
M  V30 857 H 81.8894 3.58928 1.78806 0
M  V30 858 H 78.4794 4.25457 0.518109 0
M  V30 859 H 82.6634 4.96033 -0.162854 0
M  V30 860 H 77.9194 6.01322 -1.10553 0
M  V30 861 H 82.0934 6.73205 -1.78236 0
M  V30 862 H 79.7204 7.25837 -2.25976 0
M  V30 863 N 81.2955 -0.223234 1.56011 0
M  V30 864 C 82.2055 -1.29766 1.95443 0
M  V30 865 C 83.2215 -1.51373 0.858028 0
M  V30 866 O 84.3975 -1.64536 1.16146 0
M  V30 867 C 81.4625 -2.62772 2.26167 0
M  V30 868 C 80.5235 -2.49482 3.49367 0
M  V30 869 C 79.7565 -3.76145 3.78616 0
M  V30 870 O 79.9795 -4.79087 3.09568 0
M  V30 871 O 78.9135 -3.73358 4.72109 0
M  V30 872 H 82.7395 -0.99309 2.87004 0
M  V30 873 H 80.3245 -0.425958 1.43199 0
M  V30 874 H 82.2065 -3.41327 2.47131 0
M  V30 875 H 80.8815 -2.92913 1.37781 0
M  V30 876 H 79.7885 -1.69133 3.33684 0
M  V30 877 H 81.1215 -2.2428 4.38131 0
M  V30 878 N 82.7736 -1.49793 -0.48987 0
M  V30 879 C 83.6836 -1.70036 -1.61632 0
M  V30 880 C 84.6996 -0.583102 -1.63939 0
M  V30 881 O 85.8756 -0.859169 -1.82154 0
M  V30 882 C 82.9406 -1.77277 -2.97949 0
M  V30 883 C 82.0016 -3.00918 -3.06181 0
M  V30 884 C 81.2346 -3.07804 -4.35996 0
M  V30 885 O 81.4576 -2.21982 -5.25433 0
M  V30 886 O 80.3916 -4.00369 -4.49431 0
M  V30 887 H 84.2176 -2.65486 -1.47482 0
M  V30 888 H 81.8026 -1.33666 -0.667362 0
M  V30 889 H 83.6846 -1.84329 -3.78947 0
M  V30 890 H 82.3596 -0.850076 -3.12339 0
M  V30 891 H 81.2666 -2.99377 -2.2433 0
M  V30 892 H 82.5996 -3.92704 -2.96723 0
M  V30 893 N 84.2517 0.741722 -1.39055 0
M  V30 894 C 85.4977 1.50336 -1.36113 0
M  V30 895 C 85.8307 1.94148 0.0450796 0
M  V30 896 O 85.1057 1.66301 1.00868 0
M  V30 897 C 85.3887 2.74773 -2.32749 0
M  V30 898 C 85.2417 2.37023 -3.82283 0
M  V30 899 C 86.5607 3.76846 -2.27322 0
M  V30 900 H 83.6797 0.545351 -0.495743 0
M  V30 901 H 86.3217 0.848624 -1.69995 0
M  V30 902 H 84.4717 3.30639 -2.03986 0
M  V30 903 H 86.1437 1.8684 -4.21768 0
M  V30 904 H 84.3867 1.69334 -3.99385 0
M  V30 905 H 85.0577 3.26104 -4.45376 0
M  V30 906 H 87.5337 3.30548 -2.5274 0
M  V30 907 H 86.4097 4.6159 -2.97028 0
M  V30 908 H 86.6707 4.23286 -1.27599 0
M  V30 909 N 85.7298 1.2412 0.971189 0
M  V30 910 C 86.6598 1.05508 2.08304 0
M  V30 911 C 87.6408 -0.0308864 1.70072 0
M  V30 912 O 88.8258 0.135521 1.93727 0
M  V30 913 C 85.9558 0.655365 3.4106 0
M  V30 914 C 84.9098 1.68971 3.93234 0
M  V30 915 C 84.2358 1.14516 5.22293 0
M  V30 916 C 85.5358 3.08487 4.21465 0
M  V30 917 H 87.2298 1.98507 2.24132 0
M  V30 918 H 84.7758 0.955821 1.07704 0
M  V30 919 H 86.7288 0.51217 4.18276 0
M  V30 920 H 85.4528 -0.31032 3.25122 0
M  V30 921 H 84.1118 1.82106 3.18171 0
M  V30 922 H 83.7598 0.170189 5.02712 0
M  V30 923 H 83.4598 1.83635 5.58168 0
M  V30 924 H 84.9838 1.01401 6.02121 0
M  V30 925 H 86.3978 2.98601 4.89398 0
M  V30 926 H 84.7948 3.74926 4.68562 0
M  V30 927 H 85.8648 3.56787 3.28376 0
M  V30 928 N 87.2079 -1.17134 1.05439 0
M  V30 929 C 88.1579 -2.1919 0.627675 0
M  V30 930 C 89.1419 -1.57328 -0.337147 0
M  V30 931 O 90.3339 -1.76329 -0.153976 0
M  V30 932 C 87.4629 -3.43299 0.00651435 0
M  V30 933 C 86.5489 -4.12255 0.995312 0
M  V30 934 N 86.9399 -4.56997 2.16765 0
M  V30 935 C 85.2379 -4.38316 0.824336 0
M  V30 936 C 85.9389 -5.10239 2.7934 0
M  V30 937 N 84.9149 -5.02595 2.07122 0
M  V30 938 H 88.7169 -2.5149 1.52086 0
M  V30 939 H 86.2309 -1.33491 0.924868 0
M  V30 940 H 88.2279 -4.15693 -0.316965 0
M  V30 941 H 86.8879 -3.1249 -0.882033 0
M  V30 942 H 87.8989 -4.51006 2.54587 0
M  V30 943 H 84.5759 -4.17498 -0.0129526 0
M  V30 944 H 85.9659 -5.54961 3.78772 0
M  V30 945 N 88.686 -0.835752 -1.33615 0
M  V30 946 C 89.935 -0.426289 -1.97144 0
M  V30 947 C 90.248 1.01912 -1.66953 0
M  V30 948 O 91.454 1.53311 -2.24072 0
M  V30 949 C 89.91 -0.711321 -3.52801 0
M  V30 950 C 89.518 -2.1712 -3.91871 0
M  V30 951 C 91.262 -0.368654 -4.22896 0
M  V30 952 C 89.169 -2.40044 -5.40493 0
M  V30 953 H 88.099 -0.15567 -0.737755 0
M  V30 954 H 90.75 -1.0239 -1.52278 0
M  V30 955 H 89.132 -0.0433766 -3.95976 0
M  V30 956 H 90.306 -2.87936 -3.59763 0
M  V30 957 H 88.621 -2.47654 -3.34749 0
M  V30 958 H 91.218 -0.517601 -5.32189 0
M  V30 959 H 91.561 0.688078 -4.10574 0
M  V30 960 H 92.094 -0.991702 -3.8524 0
M  V30 961 H 88.833 -3.44271 -5.57815 0
M  V30 962 H 88.353 -1.73785 -5.74072 0
M  V30 963 H 90.032 -2.23042 -6.0734 0
M  V30 964 N 90.1641 1.46063 -0.591896 0
M  V30 965 C 91.3891 2.07226 -0.0850314 0
M  V30 966 C 91.8141 1.43625 1.21463 0
M  V30 967 O 91.1721 0.523305 1.73583 0
M  V30 968 C 91.2201 3.60554 0.0576567 0
M  V30 969 O 90.3241 3.97128 1.11188 0
M  V30 970 H 89.6651 0.660615 -0.0669568 0
M  V30 971 H 92.1951 1.8756 -0.81745 0
M  V30 972 H 92.2051 4.07165 0.2609 0
M  V30 973 H 90.8801 4.06235 -0.891416 0
M  V30 974 H 89.4571 3.62213 0.886356 0
M  V30 975 N 91.6422 0.330177 1.54103 0
M  V30 976 C 92.9192 -0.325007 1.92881 0
M  V30 977 C 93.2992 -1.6934 1.26045 0
M  V30 978 O 92.6472 -2.24855 0.406526 0
M  V30 979 C 92.8572 -0.410634 3.46576 0
M  V30 980 C 94.2052 -0.667801 4.19316 0
M  V30 981 O 95.2292 -0.49329 3.52768 0
M  V30 982 O 94.0882 -1.00491 5.37181 0
M  V30 983 H 91.1822 -0.186873 0.80561 0
M  V30 984 H 93.7282 0.380376 1.65382 0
M  V30 985 H 92.5002 0.550164 3.87413 0
M  V30 986 H 92.1232 -1.16333 3.802 0
M  V30 987 N 93.1203 -1.57491 0.0584922 0
M  V30 988 C 94.0683 -2.13148 -0.931168 0
M  V30 989 C 95.0623 -1.06507 -1.31729 0
M  V30 990 O 96.2683 -1.24906 -1.29609 0
M  V30 991 H 92.6433 -0.68137 -0.31818 0
M  V30 992 H 94.6143 -2.95187 -0.436707 0
M  V30 993 C 93.3633 -2.69732 -2.19408 0
M  V30 994 H 92.6863 -3.51454 -1.90578 0
M  V30 995 H 94.1263 -3.12287 -2.86798 0
M  V30 996 C 92.5853 -1.63855 -2.94369 0
M  V30 997 O 93.1153 -1.05565 -3.87581 0
M  V30 998 N 91.3213 -1.35202 -2.57233 0
M  V30 999 H 90.8683 -1.82791 -1.81508 0
M  V30 1000 H 90.8263 -0.645922 -3.07693 0
M  V30 1001 N 94.5984 0.214957 -1.56127 0
M  V30 1002 C 95.8444 0.939762 -1.79712 0
M  V30 1003 C 96.1774 1.83723 -0.629247 0
M  V30 1004 O 95.4524 1.90925 0.371197 0
M  V30 1005 C 95.7354 1.77306 -3.13424 0
M  V30 1006 C 95.5884 0.90164 -4.40671 0
M  V30 1007 C 96.9074 2.74956 -3.43638 0
M  V30 1008 H 94.0264 0.340214 -0.653776 0
M  V30 1009 H 96.6684 0.20824 -1.88855 0
M  V30 1010 H 94.8184 2.39673 -3.0576 0
M  V30 1011 H 96.4904 0.294206 -4.60361 0
M  V30 1012 H 94.7334 0.207368 -4.33304 0
M  V30 1013 H 95.4044 1.51923 -5.30682 0
M  V30 1014 H 97.8804 2.22724 -3.51473 0
M  V30 1015 H 96.7564 3.30358 -4.38355 0
M  V30 1016 H 97.0174 3.53023 -2.66134 0
M  V30 1017 N 96.0765 1.50051 0.48192 0
M  V30 1018 C 97.0235 1.68122 1.58125 0
M  V30 1019 C 97.9935 0.522545 1.57666 0
M  V30 1020 O 99.1785 0.751844 1.75362 0
M  V30 1021 C 96.3185 1.77142 2.96167 0
M  V30 1022 C 95.4315 3.0444 3.06497 0
M  V30 1023 C 94.5665 3.04321 4.35387 0
M  V30 1024 C 93.6055 4.26118 4.3942 0
M  V30 1025 N 92.7425 4.238 5.59766 0
M  V30 1026 H 97.5825 2.6198 1.42022 0
M  V30 1027 H 95.1195 1.29877 0.690687 0
M  V30 1028 H 97.0775 1.80352 3.76203 0
M  V30 1029 H 95.7075 0.867329 3.1093 0
M  V30 1030 H 94.7595 3.10752 2.19402 0
M  V30 1031 H 96.0715 3.94426 3.05336 0
M  V30 1032 H 95.2255 3.062 5.23762 0
M  V30 1033 H 93.9645 2.12147 4.39141 0
M  V30 1034 H 92.9695 4.24463 3.49444 0
M  V30 1035 H 94.1945 5.19507 4.37366 0
M  V30 1036 H 92.1405 3.34474 5.64326 0
M  V30 1037 H 92.0575 5.07542 5.60301 0
M  V30 1038 H 93.3255 4.2981 6.50295 0
M  V30 1039 N 97.5546 -0.734337 1.39446 0
M  V30 1040 C 98.5016 -1.84835 1.38219 0
M  V30 1041 C 99.4716 -1.64331 0.24179 0
M  V30 1042 O 100.657 -1.85728 0.437002 0
M  V30 1043 C 97.7966 -3.22355 1.23212 0
M  V30 1044 C 96.9096 -3.5456 2.46801 0
M  V30 1045 C 96.0446 -4.81485 2.24377 0
M  V30 1046 C 95.0836 -5.06536 3.43639 0
M  V30 1047 N 94.2206 -6.24665 3.20528 0
M  V30 1048 H 99.0606 -1.85219 2.33448 0
M  V30 1049 H 96.5976 -0.905039 1.15963 0
M  V30 1050 H 98.5556 -4.0174 1.12522 0
M  V30 1051 H 97.1856 -3.21248 0.316121 0
M  V30 1052 H 96.2376 -2.69872 2.68092 0
M  V30 1053 H 97.5496 -3.6899 3.3563 0
M  V30 1054 H 96.7036 -5.68852 2.10933 0
M  V30 1055 H 95.4426 -4.6923 1.32944 0
M  V30 1056 H 94.4476 -4.17632 3.5758 0
M  V30 1057 H 95.6726 -5.20676 4.35974 0
M  V30 1058 H 93.6186 -6.13696 2.3176 0
M  V30 1059 H 93.5356 -6.39685 4.02913 0
M  V30 1060 H 94.8036 -7.14868 3.10779 0
M  V30 1061 N 99.0327 -1.24633 -0.964593 0
M  V30 1062 C 99.9797 -1.04144 -2.05968 0
M  V30 1063 C 100.95 0.046262 -1.66036 0
M  V30 1064 O 102.135 -0.108972 -1.90489 0
M  V30 1065 C 99.2747 -0.65563 -3.38815 0
M  V30 1066 C 98.3877 -1.81714 -3.91923 0
M  V30 1067 C 97.5227 -1.37662 -5.13052 0
M  V30 1068 C 96.5617 -2.50788 -5.58365 0
M  V30 1069 N 95.6987 -2.07582 -6.70712 0
M  V30 1070 H 100.539 -1.9787 -2.22827 0
M  V30 1071 H 98.0757 -0.9855 -1.09208 0
M  V30 1072 H 100.034 -0.412954 -4.15151 0
M  V30 1073 H 98.6637 0.244627 -3.21872 0
M  V30 1074 H 97.7157 -2.1734 -3.12198 0
M  V30 1075 H 99.0277 -2.66705 -4.21509 0
M  V30 1076 H 98.1817 -1.093 -5.96773 0
M  V30 1077 H 96.9207 -0.497293 -4.85158 0
M  V30 1078 H 95.9257 -2.79906 -4.73215 0
M  V30 1079 H 97.1507 -3.39283 -5.88272 0
M  V30 1080 H 95.0967 -1.22051 -6.44546 0
M  V30 1081 H 95.0137 -2.86125 -6.99763 0
M  V30 1082 H 96.2817 -1.82369 -7.57867 0
M  V30 1083 N 100.511 1.16574 -1.06058 0
M  V30 1084 C 101.441 2.23057 -0.690488 0
M  V30 1085 C 102.422 1.67141 0.315901 0
M  V30 1086 O 103.607 1.93253 0.191556 0
M  V30 1087 C 100.737 3.47222 -0.073625 0
M  V30 1088 C 99.6908 4.16016 -1.00573 0
M  V30 1089 C 99.0168 5.34104 -0.252289 0
M  V30 1090 C 100.317 4.67264 -2.33371 0
M  V30 1091 H 102.011 2.54271 -1.58072 0
M  V30 1092 H 99.5568 1.22218 -0.76149 0
M  V30 1093 H 101.51 4.20939 0.19714 0
M  V30 1094 H 100.234 3.15302 0.85161 0
M  V30 1095 H 98.8928 3.44223 -1.2612 0
M  V30 1096 H 98.5408 4.98437 0.675988 0
M  V30 1097 H 98.2408 5.81072 -0.873455 0
M  V30 1098 H 99.7648 6.10599 0.0109857 0
M  V30 1099 H 101.179 5.32573 -2.12223 0
M  V30 1100 H 99.5758 5.24843 -2.90963 0
M  V30 1101 H 100.646 3.83602 -2.96611 0
M  V30 1102 N 101.989 0.842826 1.3317 0
M  V30 1103 C 103.4 0.496651 1.79973 0
M  V30 1104 C 103.751 -0.984641 1.69703 0
M  V30 1105 O 102.876 -1.76743 1.24863 0
M  V30 1106 C 103.471 0.894727 3.26772 0
M  V30 1107 C 102.03 0.600629 3.71577 0
M  V30 1108 C 101.177 1.10091 2.5451 0
M  V30 1109 H 104.128 1.03116 1.20635 0
M  V30 1110 H 104.149 0.206347 3.7994 0
M  V30 1111 H 103.661 1.97287 3.34215 0
M  V30 1112 H 101.762 -0.467284 3.69658 0
M  V30 1113 H 101.875 1.15863 4.64879 0
M  V30 1114 H 100.239 0.52162 2.49301 0
M  V30 1115 H 101.022 2.18591 2.64713 0
M  V30 1116 N 103.467 -1.45747 0.599634 0
M  V30 1117 C 104.377 -2.34262 -0.125888 0
M  V30 1118 C 105.393 -1.50768 -0.868625 0
M  V30 1119 O 106.569 -1.83592 -0.828003 0
M  V30 1120 C 103.634 -3.28252 -1.11587 0
M  V30 1121 C 102.695 -4.27651 -0.375956 0
M  V30 1122 C 101.928 -5.1715 -1.31877 0
M  V30 1123 O 102.151 -5.09916 -2.55621 0
M  V30 1124 O 101.085 -5.96286 -0.820157 0
M  V30 1125 H 104.911 -2.97688 0.601315 0
M  V30 1126 H 102.496 -1.44999 0.359934 0
M  V30 1127 H 104.378 -3.86191 -1.68626 0
M  V30 1128 H 103.053 -2.67401 -1.82424 0
M  V30 1129 H 101.96 -3.7335 0.236698 0
M  V30 1130 H 103.293 -4.91334 0.29177 0
M  V30 1131 N 104.945 -0.338344 -1.53925 0
M  V30 1132 C 106.193 0.259245 -2.0043 0
M  V30 1133 C 106.514 1.51484 -1.22791 0
M  V30 1134 O 105.784 1.93037 -0.33368 0
M  V30 1135 H 104.364 0.0987845 -0.740439 0
M  V30 1136 H 107.026 -0.458302 -1.89435 0
M  V30 1137 H 106.122 0.505334 -3.07982 0
M  V30 1138 N 106.423 1.57458 -0.0668435 0
M  V30 1139 C 107.669 1.93587 0.6043 0
M  V30 1140 C 108.002 0.946722 1.69561 0
M  V30 1141 O 107.277 -0.0248516 1.94484 0
M  V30 1142 C 107.56 3.40014 1.18585 0
M  V30 1143 C 107.413 4.49685 0.101529 0
M  V30 1144 C 108.732 3.87154 2.09284 0
M  V30 1145 H 105.851 0.703958 0.218202 0
M  V30 1146 H 108.493 1.89542 -0.131804 0
M  V30 1147 H 106.643 3.43592 1.81319 0
M  V30 1148 H 108.315 4.5823 -0.531279 0
M  V30 1149 H 106.558 4.30059 -0.568487 0
M  V30 1150 H 107.229 5.49266 0.54874 0
M  V30 1151 H 109.705 3.85551 1.56491 0
M  V30 1152 H 108.581 4.90231 2.46911 0
M  V30 1153 H 108.842 3.2481 2.99918 0
M  V30 1154 N 107.901 -0.206675 1.56239 0
M  V30 1155 C 108.848 -1.25617 1.93621 0
M  V30 1156 C 109.818 -1.45824 0.795274 0
M  V30 1157 O 111.003 -1.59148 1.05245 0
M  V30 1158 C 108.143 -2.59839 2.27107 0
M  V30 1159 C 107.256 -2.47308 3.54207 0
M  V30 1160 C 106.391 -3.74155 3.7707 0
M  V30 1161 C 105.43 -3.56407 4.97635 0
M  V30 1162 N 104.567 -4.75238 5.1681 0
M  V30 1163 H 109.407 -0.930383 2.83104 0
M  V30 1164 H 106.944 -0.448065 1.4011 0
M  V30 1165 H 108.902 -3.38021 2.44535 0
M  V30 1166 H 107.532 -2.90485 1.40778 0
M  V30 1167 H 106.584 -1.60483 3.4489 0
M  V30 1168 H 107.896 -2.30122 4.42544 0
M  V30 1169 H 107.05 -4.60778 3.94675 0
M  V30 1170 H 105.789 -3.94282 2.87042 0
M  V30 1171 H 104.794 -2.68168 4.79964 0
M  V30 1172 H 106.019 -3.37736 5.89161 0
M  V30 1173 H 103.965 -4.95651 4.29728 0
M  V30 1174 H 103.882 -4.60835 5.99306 0
M  V30 1175 H 105.15 -5.63246 5.38864 0
M  V30 1176 N 109.379 -1.50304 -0.473955 0
M  V30 1177 C 110.312 -1.63595 -1.59097 0
M  V30 1178 C 111.29 -0.484142 -1.55225 0
M  V30 1179 O 112.474 -0.703271 -1.7489 0
M  V30 1180 C 109.601 -1.61589 -2.97669 0
M  V30 1181 C 108.647 -2.82295 -3.19705 0
M  V30 1182 S 109.48 -4.43635 -2.99913 0
M  V30 1183 C 110.636 -4.44317 -4.40832 0
M  V30 1184 H 110.869 -2.58082 -1.47583 0
M  V30 1185 H 108.402 -1.39531 -0.661087 0
M  V30 1186 H 110.36 -1.61116 -3.7756 0
M  V30 1187 H 109.021 -0.683421 -3.06575 0
M  V30 1188 H 108.214 -2.77188 -4.20931 0
M  V30 1189 H 107.816 -2.8032 -2.47582 0
M  V30 1190 H 110.108 -4.17703 -5.33414 0
M  V30 1191 H 111.051 -5.45911 -4.50984 0
M  V30 1192 H 111.459 -3.74059 -4.22777 0
M  V30 1193 N 110.857 0.726932 -1.39834 0
M  V30 1194 C 112.085 1.51613 -1.40787 0
M  V30 1195 C 112.5 1.88799 -0.00451505 0
M  V30 1196 O 111.857 1.54662 0.968809 0
M  V30 1197 C 111.908 2.79863 -2.28821 0
M  V30 1198 O 111.629 2.44253 -3.63692 0
M  V30 1199 C 113.13 3.73837 -2.38245 0
M  V30 1200 H 110.35 0.468264 -0.480593 0
M  V30 1201 H 112.894 0.897607 -1.83748 0
M  V30 1202 H 111.049 3.38027 -1.89252 0
M  V30 1203 H 111.463 3.26695 -4.1033 0
M  V30 1204 H 112.937 4.60699 -3.04073 0
M  V30 1205 H 113.414 4.16153 -1.40403 0
M  V30 1206 H 114.02 3.21589 -2.78317 0
M  V30 1207 N 112.336 1.25143 0.95797 0
M  V30 1208 C 113.283 1.05235 2.05412 0
M  V30 1209 C 114.253 -0.0374561 1.66058 0
M  V30 1210 O 115.438 0.119073 1.90428 0
M  V30 1211 C 112.578 0.673589 3.38462 0
M  V30 1212 C 111.691 1.8379 3.90954 0
M  V30 1213 C 110.826 1.40381 5.12315 0
M  V30 1214 C 109.865 2.53746 5.57027 0
M  V30 1215 N 109.002 2.11136 6.69601 0
M  V30 1216 H 113.842 1.99048 2.21774 0
M  V30 1217 H 111.379 0.991277 1.08683 0
M  V30 1218 H 113.337 0.434964 4.14926 0
M  V30 1219 H 111.967 -0.227554 3.21997 0
M  V30 1220 H 111.019 2.18992 3.11041 0
M  V30 1221 H 112.331 2.68937 4.20089 0
M  V30 1222 H 111.485 1.12464 5.96185 0
M  V30 1223 H 110.224 0.523015 4.84887 0
M  V30 1224 H 109.229 2.82412 4.71724 0
M  V30 1225 H 110.454 3.42398 5.86464 0
M  V30 1226 H 108.4 1.25468 6.4389 0
M  V30 1227 H 108.317 2.89832 6.98236 0
M  V30 1228 H 109.585 1.86385 7.56889 0
M  V30 1229 N 113.814 -1.1601 1.06675 0
M  V30 1230 C 115.044 -1.90251 0.805497 0
M  V30 1231 C 115.452 -1.77891 -0.64431 0
M  V30 1232 O 114.795 -1.12383 -1.45313 0
M  V30 1233 C 114.857 -3.41419 1.12576 0
M  V30 1234 C 114.521 -3.77564 2.57477 0
M  V30 1235 C 115.518 -3.79161 3.55715 0
M  V30 1236 C 113.203 -4.08079 2.92877 0
M  V30 1237 C 115.197 -4.10767 4.8739 0
M  V30 1238 C 112.884 -4.39351 4.24751 0
M  V30 1239 C 113.882 -4.40675 5.21818 0
M  V30 1240 O 113.57 -4.71202 6.51325 0
M  V30 1241 H 113.302 -0.610018 0.291297 0
M  V30 1242 H 115.856 -1.47958 1.4247 0
M  V30 1243 H 114.086 -3.84079 0.449503 0
M  V30 1244 H 115.775 -3.9694 0.84814 0
M  V30 1245 H 116.541 -3.55693 3.29708 0
M  V30 1246 H 112.42 -4.06211 2.17976 0
M  V30 1247 H 115.964 -4.11715 5.63148 0
M  V30 1248 H 111.861 -4.62285 4.50514 0
M  V30 1249 H 112.629 -4.88996 6.56373 0
M  V30 1250 N 115.292 -0.849877 -1.32721 0
M  V30 1251 C 116.242 -0.262892 -2.26479 0
M  V30 1252 C 117.226 0.588493 -1.49752 0
M  V30 1253 O 118.418 0.438659 -1.71478 0
M  V30 1254 C 115.547 0.551818 -3.38836 0
M  V30 1255 C 114.633 -0.311689 -4.22953 0
M  V30 1256 N 115.024 -1.39567 -4.86163 0
M  V30 1257 C 113.322 -0.100611 -4.45887 0
M  V30 1258 C 114.023 -1.92651 -5.48872 0
M  V30 1259 N 112.999 -1.22637 -5.29586 0
M  V30 1260 H 116.801 -1.09166 -2.72873 0
M  V30 1261 H 114.315 -0.695486 -1.46754 0
M  V30 1262 H 116.312 0.988713 -4.05006 0
M  V30 1263 H 114.972 1.37844 -2.93988 0
M  V30 1264 H 115.983 -1.77859 -4.86402 0
M  V30 1265 H 112.66 0.691681 -4.11731 0
M  V30 1266 H 114.05 -2.83487 -6.09167 0
M  V30 1267 N 116.77 1.45427 -0.607355 0
M  V30 1268 C 118.016 2.0254 -0.102607 0
M  V30 1269 C 118.349 1.47478 1.26348 0
M  V30 1270 O 117.624 0.64939 1.83339 0
M  V30 1271 C 117.907 3.60044 -0.0634347 0
M  V30 1272 C 117.76 4.2544 -1.46017 0
M  V30 1273 C 119.079 4.35646 0.624514 0
M  V30 1274 H 116.198 0.73598 -0.0387607 0
M  V30 1275 H 118.84 1.73284 -0.779282 0
M  V30 1276 H 116.99 3.85101 0.512808 0
M  V30 1277 H 118.662 4.11569 -2.08347 0
M  V30 1278 H 116.905 3.83849 -2.02094 0
M  V30 1279 H 117.576 5.34342 -1.385 0
M  V30 1280 H 120.052 4.15882 0.134723 0
M  V30 1281 H 118.928 5.45376 0.621028 0
M  V30 1282 H 119.189 4.08501 1.69055 0
M  V30 1283 N 118.248 0.346503 1.53744 0
M  V30 1284 C 119.196 -0.52422 2.26616 0
M  V30 1285 C 120.19 -1.09948 1.28871 0
M  V30 1286 O 121.396 -1.04488 1.46568 0
M  V30 1287 H 117.771 -0.187743 0.728187 0
M  V30 1288 H 119.742 0.11239 2.98188 0
M  V30 1289 C 118.491 -1.66186 3.05414 0
M  V30 1290 H 117.814 -1.22848 3.80458 0
M  V30 1291 H 119.254 -2.24622 3.59612 0
M  V30 1292 C 117.713 -2.59302 2.1509 0
M  V30 1293 O 118.243 -3.61628 1.74895 0
M  V30 1294 N 116.449 -2.28055 1.8011 0
M  V30 1295 H 115.996 -1.44883 2.12994 0
M  V30 1296 H 115.954 -2.90615 1.19958 0
M  V30 1297 N 119.726 -1.57421 0.075193 0
M  V30 1298 C 120.973 -1.93618 -0.593146 0
M  V30 1299 C 121.301 -0.955484 -1.69413 0
M  V30 1300 O 120.556 0.0283251 -1.9568 0
M  V30 1301 C 120.855 -3.36428 -1.20626 0
M  V30 1302 C 120.521 -4.50307 -0.231078 0
M  V30 1303 C 119.183 -4.81186 0.0371936 0
M  V30 1304 C 121.535 -5.19374 0.435888 0
M  V30 1305 C 118.863 -5.78466 0.979461 0
M  V30 1306 C 121.215 -6.17665 1.3665 0
M  V30 1307 C 119.879 -6.46958 1.6432 0
M  V30 1308 H 119.149 -0.708499 -0.217047 0
M  V30 1309 H 121.796 -1.90937 0.146793 0
M  V30 1310 H 120.101 -3.35592 -2.02201 0
M  V30 1311 H 121.798 -3.61727 -1.73073 0
M  V30 1312 H 118.388 -4.26227 -0.450357 0
M  V30 1313 H 122.572 -4.95711 0.241748 0
M  V30 1314 H 117.828 -5.99487 1.20106 0
M  V30 1315 H 122.002 -6.70284 1.88924 0
M  V30 1316 H 119.629 -7.2215 2.37494 0
M  V30 1317 N 121.204 0.198386 -1.56346 0
M  V30 1318 C 122.137 1.27381 -1.89339 0
M  V30 1319 C 123.115 1.44106 -0.753134 0
M  V30 1320 O 124.299 1.59549 -1.00381 0
M  V30 1321 C 121.426 2.6409 -2.12071 0
M  V30 1322 C 120.472 2.64253 -3.34772 0
M  V30 1323 S 121.305 2.16013 -4.89999 0
M  V30 1324 C 122.461 3.54553 -5.15794 0
M  V30 1325 H 122.694 0.992058 -2.8026 0
M  V30 1326 H 120.227 0.401726 -1.49082 0
M  V30 1327 H 122.185 3.42786 -2.2585 0
M  V30 1328 H 120.846 2.89478 -1.21906 0
M  V30 1329 H 120.039 3.64768 -3.47794 0
M  V30 1330 H 119.641 1.93637 -3.1997 0
M  V30 1331 H 121.933 4.50396 -5.06112 0
M  V30 1332 H 122.876 3.46428 -6.1757 0
M  V30 1333 H 123.284 3.49313 -4.43442 0
M  V30 1334 N 122.682 1.50554 0.465978 0
M  V30 1335 C 123.93 1.61479 1.21528 0
M  V30 1336 C 124.251 0.319596 1.92363 0
M  V30 1337 O 123.521 -0.663194 1.84333 0
M  V30 1338 H 122.101 0.595055 0.451573 0
M  V30 1339 H 124.763 1.87355 0.53704 0
M  V30 1340 H 123.859 2.42846 1.96042 0
M  V30 1341 N 124.16 -0.719506 1.40217 0
M  V30 1342 C 125.408 -1.47641 1.3801 0
M  V30 1343 C 125.729 -1.94992 -0.018145 0
M  V30 1344 O 124.999 -1.70073 -0.972207 0
M  V30 1345 H 123.579 -0.547744 0.507923 0
M  V30 1346 H 126.241 -0.853187 1.75233 0
M  V30 1347 H 125.337 -2.35112 2.05253 0
M  V30 1348 N 125.638 -1.25649 -0.95132 0
M  V30 1349 C 126.915 -1.01361 -1.67288 0
M  V30 1350 C 127.295 0.459135 -2.06046 0
M  V30 1351 O 126.643 1.43723 -1.7764 0
M  V30 1352 C 126.853 -1.95256 -2.89268 0
M  V30 1353 C 128.201 -2.23289 -3.61147 0
M  V30 1354 O 129.225 -1.93041 -2.99355 0
M  V30 1355 O 128.084 -2.74741 -4.72419 0
M  V30 1356 H 125.178 -0.38464 -0.732107 0
M  V30 1357 H 127.724 -1.36817 -1.00395 0
M  V30 1358 H 126.496 -2.94685 -2.57442 0
M  V30 1359 H 126.119 -1.60218 -3.6389 0
M  V30 1360 N 127.117 1.15442 -1.07289 0
M  V30 1361 C 128.047 2.22312 -0.714107 0
M  V30 1362 C 129.028 1.67467 0.298155 0
M  V30 1363 O 130.213 1.93445 0.171048 0
M  V30 1364 C 127.343 3.47124 -0.110448 0
M  V30 1365 C 126.297 4.14926 -1.04979 0
M  V30 1366 C 125.623 5.33807 -0.308924 0
M  V30 1367 C 126.923 4.64762 -2.38314 0
M  V30 1368 H 128.617 2.5258 -1.6076 0
M  V30 1369 H 126.163 1.21404 -0.77441 0
M  V30 1370 H 128.116 4.21124 0.152482 0
M  V30 1371 H 126.84 3.16187 0.81812 0
M  V30 1372 H 125.499 3.42866 -1.29764 0
M  V30 1373 H 125.147 4.99126 0.623084 0
M  V30 1374 H 124.847 5.80113 -0.935036 0
M  V30 1375 H 126.371 6.10576 -0.0537771 0
M  V30 1376 H 127.785 5.30292 -2.1786 0
M  V30 1377 H 126.182 5.21728 -2.96514 0
M  V30 1378 H 127.252 3.80434 -3.00663 0
M  V30 1379 N 128.595 0.856903 1.32268 0
M  V30 1380 C 129.843 0.460474 1.96784 0
M  V30 1381 C 130.164 -0.987701 1.68135 0
M  V30 1382 O 129.434 -1.69058 0.989765 0
M  V30 1383 H 128.014 0.167289 0.728027 0
M  V30 1384 H 130.676 1.09383 1.61312 0
M  V30 1385 H 129.772 0.60739 3.06133 0
M  V30 1386 N 130.073 -1.45103 0.615059 0
M  V30 1387 C 131.02 -2.30586 -0.0993978 0
M  V30 1388 C 131.99 -1.42544 -0.852669 0
M  V30 1389 O 133.175 -1.71465 -0.836917 0
M  V30 1390 C 130.315 -3.27572 -1.08583 0
M  V30 1391 C 129.428 -4.30717 -0.332656 0
M  V30 1392 C 128.563 -5.14807 -1.30947 0
M  V30 1393 C 127.602 -6.09673 -0.544538 0
M  V30 1394 N 126.739 -6.86517 -1.47101 0
M  V30 1395 H 131.579 -2.91144 0.635542 0
M  V30 1396 H 129.116 -1.4346 0.325206 0
M  V30 1397 H 131.074 -3.82276 -1.67095 0
M  V30 1398 H 129.704 -2.68751 -1.78809 0
M  V30 1399 H 128.756 -3.78615 0.368107 0
M  V30 1400 H 130.068 -4.98102 0.263842 0
M  V30 1401 H 129.222 -5.73948 -1.96643 0
M  V30 1402 H 127.961 -4.47458 -1.9399 0
M  V30 1403 H 126.966 -5.49656 0.126003 0
M  V30 1404 H 128.191 -6.79052 0.080947 0
M  V30 1405 H 126.137 -6.21851 -2.08895 0
M  V30 1406 H 126.054 -7.50281 -0.928137 0
M  V30 1407 H 127.322 -7.50194 -2.11731 0
M  V30 1408 N 131.551 -0.354651 -1.53558 0
M  V30 1409 C 132.828 0.294281 -1.93374 0
M  V30 1410 C 133.208 1.67313 -1.28723 0
M  V30 1411 O 132.556 2.24179 -0.442247 0
M  V30 1412 C 132.766 0.355445 -3.47185 0
M  V30 1413 C 134.114 0.601007 -4.20325 0
M  V30 1414 O 135.138 0.437106 -3.53508 0
M  V30 1415 O 133.997 0.919322 -5.38712 0
M  V30 1416 H 131.091 0.174033 -0.808481 0
M  V30 1417 H 133.637 -0.406638 -1.64756 0
M  V30 1418 H 132.409 -0.611729 -3.86489 0
M  V30 1419 H 132.032 1.1027 -3.82003 0
M  V30 1420 N 133.029 1.57378 -0.0835403 0
M  V30 1421 C 133.959 2.1641 0.87686 0
M  V30 1422 C 134.94 1.09429 1.30228 0
M  V30 1423 O 136.125 1.37516 1.37124 0
M  V30 1424 C 133.255 2.73517 2.14022 0
M  V30 1425 C 132.209 3.85769 1.85381 0
M  V30 1426 C 131.535 4.29529 3.18448 0
M  V30 1427 C 132.835 5.09486 1.14984 0
M  V30 1428 H 134.529 2.96914 0.385059 0
M  V30 1429 H 132.075 1.42823 0.18377 0
M  V30 1430 H 134.028 3.13463 2.81636 0
M  V30 1431 H 132.752 1.90252 2.65465 0
M  V30 1432 H 131.411 3.46345 1.20169 0
M  V30 1433 H 131.059 3.43169 3.67755 0
M  V30 1434 H 130.759 5.05204 3.00071 0
M  V30 1435 H 132.283 4.72099 3.8724 0
M  V30 1436 H 133.697 5.46674 1.72687 0
M  V30 1437 H 132.094 5.90515 1.06826 0
M  V30 1438 H 133.164 4.84724 0.130749 0
M  V30 1439 N 134.507 -0.190092 1.56449 0
M  V30 1440 C 135.735 -0.925772 1.85033 0
M  V30 1441 C 136.15 -1.76638 0.666658 0
M  V30 1442 O 135.507 -1.78822 -0.364565 0
M  V30 1443 C 135.558 -1.81786 3.12468 0
M  V30 1444 O 135.279 -1.01118 4.26271 0
M  V30 1445 C 136.78 -2.6648 3.54265 0
M  V30 1446 H 134 -0.269872 0.614337 0
M  V30 1447 H 136.544 -0.195837 2.0356 0
M  V30 1448 H 134.699 -2.50136 2.95822 0
M  V30 1449 H 135.113 -1.61956 4.98869 0
M  V30 1450 H 136.587 -3.24722 4.46385 0
M  V30 1451 H 137.064 -3.40434 2.77491 0
M  V30 1452 H 137.67 -2.03493 3.73458 0
M  V30 1453 N 135.985 -1.50799 -0.457987 0
M  V30 1454 C 136.917 -1.66786 -1.57211 0
M  V30 1455 C 137.93 -0.548962 -1.53265 0
M  V30 1456 O 139.119 -0.8226 -1.58416 0
M  V30 1457 C 136.219 -1.64834 -2.96113 0
M  V30 1458 C 135.392 -2.92971 -3.24787 0
M  V30 1459 C 134.451 -2.83485 -4.43309 0
M  V30 1460 O 133.477 -3.5744 -4.42973 0
M  V30 1461 N 134.679 -1.97929 -5.45714 0
M  V30 1462 H 137.444 -2.62889 -1.43909 0
M  V30 1463 H 135.005 -1.48427 -0.646617 0
M  V30 1464 H 136.997 -1.56084 -3.7339 0
M  V30 1465 H 135.567 -0.764118 -3.03117 0
M  V30 1466 H 134.787 -3.15749 -2.36 0
M  V30 1467 H 136.075 -3.77834 -3.40762 0
M  V30 1468 H 135.473 -1.37182 -5.48815 0
M  V30 1469 H 134.03 -1.95073 -6.21924 0
M  V30 1470 N 137.463 0.71206 -1.40597 0
M  V30 1471 C 138.426 1.80785 -1.40888 0
M  V30 1472 C 139.426 1.57937 -0.302103 0
M  V30 1473 O 140.616 1.64913 -0.561182 0
M  V30 1474 C 137.748 3.18927 -1.20409 0
M  V30 1475 H 138.941 1.81924 -2.38419 0
M  V30 1476 H 136.494 0.91805 -1.26497 0
M  V30 1477 H 137.229 3.23436 -0.236522 0
M  V30 1478 H 137.014 3.36911 -2.00582 0
M  V30 1479 H 138.504 3.98949 -1.23408 0
M  V30 1480 N 138.941 1.26152 0.944643 0
M  V30 1481 C 140.187 1.12665 1.69346 0
M  V30 1482 C 140.542 -0.3273 1.89596 0
M  V30 1483 O 139.835 -1.23717 1.46303 0
M  V30 1484 C 140.029 1.82541 3.07268 0
M  V30 1485 C 139.858 3.34582 3.00475 0
M  V30 1486 C 138.628 4.03863 3.03681 0
M  V30 1487 C 140.826 4.30828 2.80877 0
M  V30 1488 N 138.808 5.42603 2.87151 0
M  V30 1489 C 140.179 5.5672 2.7288 0
M  V30 1490 C 142.234 4.21122 2.65633 0
M  V30 1491 C 140.937 6.74013 2.51196 0
M  V30 1492 C 142.963 5.38118 2.45323 0
M  V30 1493 C 142.325 6.62955 2.38055 0
M  V30 1494 H 138.424 0.467041 0.627214 0
M  V30 1495 H 141.008 1.59391 1.11815 0
M  V30 1496 H 139.179 1.38296 3.62945 0
M  V30 1497 H 140.911 1.61708 3.70989 0
M  V30 1498 H 137.666 3.55198 3.1326 0
M  V30 1499 H 138.09 6.15443 2.82063 0
M  V30 1500 H 142.732 3.25344 2.70021 0
M  V30 1501 H 140.45 7.6989 2.4555 0
M  V30 1502 H 144.036 5.32475 2.34439 0
M  V30 1503 H 142.916 7.51959 2.22546 0
M  V30 1504 N 140.419 -1.14872 1.07899 0
M  V30 1505 C 141.382 -2.17986 0.708161 0
M  V30 1506 C 142.382 -1.58775 -0.25442 0
M  V30 1507 O 143.572 -1.74166 -0.034645 0
M  V30 1508 C 140.704 -3.40871 0.0446929 0
M  V30 1509 H 141.897 -2.52306 1.62116 0
M  V30 1510 H 139.45 -1.2943 0.876218 0
M  V30 1511 H 140.185 -3.12124 -0.880281 0
M  V30 1512 H 139.97 -3.8511 0.737091 0
M  V30 1513 H 141.46 -4.17121 -0.19991 0
M  V30 1514 N 141.898 -0.863906 -1.31812 0
M  V30 1515 C 143.144 -0.472535 -1.97218 0
M  V30 1516 C 143.477 0.971394 -1.68159 0
M  V30 1517 O 142.752 1.68309 -0.974798 0
M  V30 1518 C 143.035 -0.723054 -3.52766 0
M  V30 1519 C 142.888 -2.21608 -3.91421 0
M  V30 1520 C 144.207 -0.185522 -4.39709 0
M  V30 1521 H 141.326 -0.173158 -0.71637 0
M  V30 1522 H 143.968 -1.08403 -1.56041 0
M  V30 1523 H 142.118 -0.202577 -3.87971 0
M  V30 1524 H 143.79 -2.80334 -3.66347 0
M  V30 1525 H 142.033 -2.691 -3.40246 0
M  V30 1526 H 142.704 -2.34203 -4.99853 0
M  V30 1527 H 145.18 -0.630726 -4.11292 0
M  V30 1528 H 144.056 -0.390306 -5.47511 0
M  V30 1529 H 144.317 0.912229 -4.32586 0
M  V30 1530 N 143.376 1.44774 -0.622745 0
M  V30 1531 C 144.339 2.29069 0.0774015 0
M  V30 1532 C 145.339 1.4059 0.780461 0
M  V30 1533 O 146.529 1.62551 0.626322 0
M  V30 1534 C 143.661 3.21974 1.12006 0
M  V30 1535 H 144.854 2.92459 -0.663901 0
M  V30 1536 H 142.407 1.51548 -0.382486 0
M  V30 1537 H 143.142 2.63417 1.89162 0
M  V30 1538 H 142.927 3.87168 0.619951 0
M  V30 1539 H 144.417 3.85318 1.60995 0
M  V30 1540 N 144.854 0.36279 1.53368 0
M  V30 1541 C 145.787 -0.528507 2.21996 0
M  V30 1542 C 146.765 -1.0852 1.21087 0
M  V30 1543 O 147.949 -1.14186 1.4998 0
M  V30 1544 C 145.076 -1.72893 2.91249 0
M  V30 1545 C 144.122 -1.29994 4.06207 0
M  V30 1546 S 144.955 -0.303575 5.34639 0
M  V30 1547 C 146.111 -1.51039 6.07403 0
M  V30 1548 H 146.344 0.0543423 2.9725 0
M  V30 1549 H 143.877 0.146889 1.537 0
M  V30 1550 H 145.835 -2.41751 3.31763 0
M  V30 1551 H 144.496 -2.28303 2.15724 0
M  V30 1552 H 143.689 -2.19549 4.53667 0
M  V30 1553 H 143.291 -0.690608 3.67569 0
M  V30 1554 H 145.583 -2.44186 6.31965 0
M  V30 1555 H 146.526 -1.07721 6.99858 0
M  V30 1556 H 146.934 -1.71518 5.37812 0
M  V30 1557 N 146.332 -1.57332 0.0918853 0
M  V30 1558 C 147.295 -2.12708 -0.85369 0
M  V30 1559 C 148.295 -1.05561 -1.213 0
M  V30 1560 O 149.485 -1.31461 -1.14296 0
M  V30 1561 C 146.617 -2.64503 -2.15061 0
M  V30 1562 H 147.81 -2.97573 -0.3729 0
M  V30 1563 H 145.363 -1.55509 -0.157072 0
M  V30 1564 H 146.098 -1.83149 -2.67632 0
M  V30 1565 H 145.883 -3.4284 -1.90272 0
M  V30 1566 H 147.373 -3.07351 -2.82711 0
M  V30 1567 N 147.81 0.181792 -1.56548 0
M  V30 1568 C 148.74 1.22765 -1.98623 0
M  V30 1569 C 149.721 1.46747 -0.860189 0
M  V30 1570 O 150.906 1.58259 -1.12551 0
M  V30 1571 C 148.036 2.56894 -2.33715 0
M  V30 1572 C 146.99 2.475 -3.49182 0
M  V30 1573 C 146.316 3.86023 -3.69986 0
M  V30 1574 C 147.616 1.98866 -4.82959 0
M  V30 1575 H 149.31 0.877942 -2.86239 0
M  V30 1576 H 146.856 0.42088 -1.37712 0
M  V30 1577 H 148.809 3.30253 -2.61746 0
M  V30 1578 H 147.533 2.93632 -1.42997 0
M  V30 1579 H 146.192 1.76596 -3.21262 0
M  V30 1580 H 145.84 4.20136 -2.76576 0
M  V30 1581 H 145.54 3.80609 -4.47672 0
M  V30 1582 H 147.064 4.60984 -4.00407 0
M  V30 1583 H 148.478 2.61992 -5.09934 0
M  V30 1584 H 146.875 2.04424 -5.64208 0
M  V30 1585 H 147.945 0.942465 -4.75653 0
M  V30 1586 N 149.288 1.51039 0.449983 0
M  V30 1587 C 150.536 1.62759 1.19808 0
M  V30 1588 C 150.857 0.339981 1.92013 0
M  V30 1589 O 150.127 -0.643606 1.85026 0
M  V30 1590 H 148.707 0.599811 0.445237 0
M  V30 1591 H 151.369 1.87914 0.517138 0
M  V30 1592 H 150.465 2.44911 1.93455 0
M  V30 1593 N 150.766 -0.704594 1.40972 0
M  V30 1594 C 152.012 -1.46675 1.40051 0
M  V30 1595 C 152.345 -1.94199 0.00641102 0
M  V30 1596 O 151.62 -1.68916 -0.964235 0
M  V30 1597 C 151.903 -2.68505 2.39952 0
M  V30 1598 C 151.756 -2.26805 3.88432 0
M  V30 1599 C 153.075 -3.70686 2.37233 0
M  V30 1600 H 150.194 -0.532015 0.510028 0
M  V30 1601 H 152.836 -0.803255 1.72185 0
M  V30 1602 H 150.986 -3.25114 2.1268 0
M  V30 1603 H 152.658 -1.75592 4.26574 0
M  V30 1604 H 150.901 -1.58685 4.03734 0
M  V30 1605 H 151.572 -3.14181 4.53866 0
M  V30 1606 H 154.048 -3.23731 2.61415 0
M  V30 1607 H 152.924 -4.53553 3.09162 0
M  V30 1608 H 153.185 -4.19754 1.38777 0
M  V30 1609 N 152.244 -1.26651 -0.937939 0
M  V30 1610 C 153.154 -1.10276 -2.07066 0
M  V30 1611 C 154.17 -0.0354197 -1.73964 0
M  V30 1612 O 155.346 -0.239816 -1.99967 0
M  V30 1613 C 152.411 -0.740887 -3.38691 0
M  V30 1614 C 151.472 -1.88799 -3.85556 0
M  V30 1615 C 150.705 -1.54329 -5.10899 0
M  V30 1616 O 150.928 -0.446494 -5.6865 0
M  V30 1617 O 149.862 -2.37911 -5.52885 0
M  V30 1618 H 153.688 -2.05309 -2.23789 0
M  V30 1619 H 151.273 -1.05743 -1.0554 0
M  V30 1620 H 153.155 -0.55195 -4.1777 0
M  V30 1621 H 151.83 0.180022 -3.23199 0
M  V30 1622 H 150.737 -2.13191 -3.07409 0
M  V30 1623 H 152.07 -2.78874 -4.05574 0
M  V30 1624 N 153.722 1.14298 -1.08507 0
M  V30 1625 C 154.999 1.81544 -0.728088 0
M  V30 1626 C 155.379 1.95838 0.78808 0
M  V30 1627 O 154.727 1.51904 1.70697 0
M  V30 1628 C 154.937 3.17169 -1.45619 0
M  V30 1629 C 156.285 3.9265 -1.61591 0
M  V30 1630 O 157.309 3.26762 -1.41793 0
M  V30 1631 O 156.168 5.10807 -1.94263 0
M  V30 1632 H 153.262 0.78491 -0.260471 0
M  V30 1633 H 155.808 1.21307 -1.18671 0
M  V30 1634 H 154.58 3.01934 -2.489 0
M  V30 1635 H 154.203 3.851 -0.989124 0
M  V30 1636 N 155.201 0.870884 1.31352 0
M  V30 1637 C 156.148 0.325425 2.28494 0
M  V30 1638 C 157.118 -0.576615 1.5577 0
M  V30 1639 O 158.303 -0.508059 1.83911 0
M  V30 1640 C 155.443 -0.466283 3.41935 0
M  V30 1641 C 154.556 0.463378 4.29508 0
M  V30 1642 C 153.691 -0.342544 5.30094 0
M  V30 1643 C 152.73 0.583486 6.09313 0
M  V30 1644 N 151.867 -0.186244 7.01853 0
M  V30 1645 H 156.707 1.15901 2.74538 0
M  V30 1646 H 154.244 0.58294 1.35056 0
M  V30 1647 H 156.202 -0.941085 4.06447 0
M  V30 1648 H 154.832 -1.26456 2.97 0
M  V30 1649 H 153.884 1.05663 3.65431 0
M  V30 1650 H 155.196 1.1734 4.84802 0
M  V30 1651 H 154.35 -0.879816 6.00287 0
M  V30 1652 H 153.089 -1.08585 4.75458 0
M  V30 1653 H 152.094 1.13251 5.3801 0
M  V30 1654 H 153.319 1.32566 6.66035 0
M  V30 1655 H 151.265 -0.912348 6.49625 0
M  V30 1656 H 151.182 0.464422 7.54572 0
M  V30 1657 H 152.45 -0.704716 7.76308 0
M  V30 1658 N 156.679 -1.44442 0.630414 0
M  V30 1659 C 157.925 -2.02351 0.134816 0
M  V30 1660 C 158.258 -1.4947 -1.23986 0
M  V30 1661 O 157.533 -0.678475 -1.82283 0
M  V30 1662 C 157.816 -3.59898 0.120707 0
M  V30 1663 C 157.669 -4.23063 1.52767 0
M  V30 1664 C 158.988 -4.36585 -0.555127 0
M  V30 1665 H 156.107 -0.73527 0.0504646 0
M  V30 1666 H 158.749 -1.72022 0.806751 0
M  V30 1667 H 156.899 -3.85868 -0.451477 0
M  V30 1668 H 158.571 -4.08202 2.14869 0
M  V30 1669 H 156.814 -3.80586 2.08175 0
M  V30 1670 H 157.485 -5.32071 1.46984 0
M  V30 1671 H 159.961 -4.16044 -0.0685429 0
M  V30 1672 H 158.837 -5.46294 -0.534185 0
M  V30 1673 H 159.098 -4.11138 -1.62535 0
M  V30 1674 N 158.157 -0.370918 -1.53173 0
M  V30 1675 C 159.385 0.217704 -2.05751 0
M  V30 1676 C 159.8 1.42018 -1.24404 0
M  V30 1677 O 159.157 1.80245 -0.286033 0
M  V30 1678 C 159.208 0.605954 -3.56385 0
M  V30 1679 O 158.929 -0.548734 -4.3465 0
M  V30 1680 C 160.43 1.2524 -4.25241 0
M  V30 1681 H 157.65 0.0371659 -0.66997 0
M  V30 1682 H 160.194 -0.530832 -1.9749 0
M  V30 1683 H 158.349 1.3044 -3.6478 0
M  V30 1684 H 158.763 -0.23376 -5.23979 0
M  V30 1685 H 160.237 1.47458 -5.3194 0
M  V30 1686 H 160.714 2.2143 -3.79296 0
M  V30 1687 H 161.32 0.595233 -4.21114 0
M  V30 1688 N 159.635 1.57281 -0.100228 0
M  V30 1689 C 160.881 1.94826 0.563101 0
M  V30 1690 C 161.214 0.982475 1.67514 0
M  V30 1691 O 160.489 0.0164069 1.94493 0
M  V30 1692 C 160.772 3.42453 1.11346 0
M  V30 1693 C 160.625 4.498 0.00612081 0
M  V30 1694 C 161.944 3.91506 2.01024 0
M  V30 1695 H 159.063 0.708428 0.203221 0
M  V30 1696 H 161.705 1.8922 -0.171979 0
M  V30 1697 H 159.855 3.47361 1.7399 0
M  V30 1698 H 161.527 4.57 -0.628357 0
M  V30 1699 H 159.77 4.28756 -0.659581 0
M  V30 1700 H 160.441 5.50306 0.432109 0
M  V30 1701 H 162.917 3.88784 1.48278 0
M  V30 1702 H 161.793 4.95358 2.36457 0
M  V30 1703 H 162.054 3.31099 2.92961 0
M  V30 1704 N 161.113 -0.173488 1.56642 0
M  V30 1705 C 162.524 -0.736155 1.71574 0
M  V30 1706 C 162.875 -1.82888 0.710389 0
M  V30 1707 O 162 -2.16017 -0.1287 0
M  V30 1708 C 162.595 -1.34211 3.11083 0
M  V30 1709 C 161.154 -1.85162 3.27707 0
M  V30 1710 C 160.301 -0.729765 2.67525 0
M  V30 1711 H 163.252 0.0518786 1.58615 0
M  V30 1712 H 163.273 -2.21178 3.09613 0
M  V30 1713 H 162.785 -0.546579 3.84232 0
M  V30 1714 H 160.886 -2.67366 2.59512 0
M  V30 1715 H 160.999 -1.99855 4.35425 0
M  V30 1716 H 159.363 -1.14965 2.27278 0
M  V30 1717 H 160.146 0.0538806 3.43258 0
M  V30 1718 N 162.591 -1.51276 -0.441967 0
M  V30 1719 C 163.521 -1.752 -1.54361 0
M  V30 1720 C 164.502 -0.601682 -1.59103 0
M  V30 1721 O 165.687 -0.843913 -1.74905 0
M  V30 1722 C 162.817 -1.87282 -2.92477 0
M  V30 1723 C 161.771 -3.02687 -3.02596 0
M  V30 1724 C 161.097 -2.99947 -4.42647 0
M  V30 1725 C 162.397 -4.4273 -2.77106 0
M  V30 1726 H 164.091 -2.67442 -1.34592 0
M  V30 1727 H 161.637 -1.28694 -0.646048 0
M  V30 1728 H 163.59 -2.02602 -3.695 0
M  V30 1729 H 162.314 -0.916844 -3.13467 0
M  V30 1730 H 160.973 -2.87065 -2.28012 0
M  V30 1731 H 160.621 -2.02136 -4.60597 0
M  V30 1732 H 160.321 -3.77439 -4.50348 0
M  V30 1733 H 161.845 -3.17354 -5.2165 0
M  V30 1734 H 163.259 -4.58727 -3.43864 0
M  V30 1735 H 161.656 -5.21893 -2.96222 0
M  V30 1736 H 162.726 -4.53087 -1.72744 0
M  V30 1737 N 164.069 0.697108 -1.41344 0
M  V30 1738 C 165.316 1.45714 -1.40619 0
M  V30 1739 C 165.644 1.94494 -0.0147907 0
M  V30 1740 O 164.899 1.69794 0.973066 0
M  V30 1741 C 165.198 2.68553 -2.35826 0
M  V30 1742 C 164.864 2.38438 -3.82698 0
M  V30 1743 C 163.526 2.29936 -4.22709 0
M  V30 1744 C 165.878 2.13567 -4.75435 0
M  V30 1745 C 163.206 1.94656 -5.53467 0
M  V30 1746 C 165.558 1.79797 -6.06511 0
M  V30 1747 C 164.222 1.69789 -6.45545 0
M  V30 1748 H 163.492 0.533206 -0.51456 0
M  V30 1749 H 166.139 0.796901 -1.74131 0
M  V30 1750 H 164.444 3.39503 -1.95563 0
M  V30 1751 H 166.141 3.2669 -2.32539 0
M  V30 1752 H 162.731 2.4595 -3.51008 0
M  V30 1753 H 166.915 2.19082 -4.45328 0
M  V30 1754 H 162.171 1.8546 -5.82593 0
M  V30 1755 H 166.345 1.59572 -6.77872 0
M  V30 1756 H 163.972 1.4222 -7.46778 0
M  V30 1757 N 165.547 1.27147 0.931209 0
M  V30 1758 C 166.457 1.11372 2.06478 0
M  V30 1759 C 167.473 0.044645 1.73943 0
M  V30 1760 O 168.649 0.250417 1.99837 0
M  V30 1761 C 165.714 0.758838 3.38294 0
M  V30 1762 C 164.775 1.90841 3.84549 0
M  V30 1763 C 164.008 1.57036 5.10074 0
M  V30 1764 O 164.231 0.476645 5.68405 0
M  V30 1765 O 163.165 2.40839 5.51616 0
M  V30 1766 H 166.991 2.06493 2.22698 0
M  V30 1767 H 164.576 1.06301 1.04978 0
M  V30 1768 H 166.458 0.574098 4.17471 0
M  V30 1769 H 165.133 -0.162879 3.2329 0
M  V30 1770 H 164.04 2.14819 3.06274 0
M  V30 1771 H 165.373 2.81021 4.04089 0
M  V30 1772 N 167.025 -1.13721 1.09112 0
M  V30 1773 C 168.273 -1.84559 0.823562 0
M  V30 1774 C 168.594 -1.83754 -0.652658 0
M  V30 1775 O 167.864 -1.29102 -1.47342 0
M  V30 1776 H 166.444 -0.683376 0.301673 0
M  V30 1777 H 169.106 -1.37771 1.37859 0
M  V30 1778 H 168.202 -2.8917 1.17419 0
M  V30 1779 N 168.503 -0.877838 -1.30888 0
M  V30 1780 C 169.749 -0.493426 -1.96706 0
M  V30 1781 C 170.082 0.953504 -1.6918 0
M  V30 1782 O 169.357 1.67266 -0.992594 0
M  V30 1783 C 169.64 -0.760429 -3.51979 0
M  V30 1784 C 169.493 -2.25747 -3.89048 0
M  V30 1785 C 170.812 -0.232148 -4.39487 0
M  V30 1786 H 167.931 -0.180746 -0.714493 0
M  V30 1787 H 170.573 -1.10052 -1.54882 0
M  V30 1788 H 168.723 -0.243715 -3.87735 0
M  V30 1789 H 170.395 -2.84204 -3.63354 0
M  V30 1790 H 168.638 -2.72694 -3.37373 0
M  V30 1791 H 169.309 -2.39491 -4.97341 0
M  V30 1792 H 171.785 -0.674314 -4.106 0
M  V30 1793 H 170.661 -0.448355 -5.47066 0
M  V30 1794 H 170.922 0.866297 -4.33529 0
M  V30 1795 N 169.982 1.44106 -0.638065 0
M  V30 1796 C 170.914 2.28976 0.101205 0
M  V30 1797 C 171.927 1.4167 0.802088 0
M  V30 1798 O 173.116 1.65755 0.662375 0
M  V30 1799 C 170.216 3.18217 1.16581 0
M  V30 1800 C 169.389 4.33978 0.546066 0
M  V30 1801 C 168.448 5.04202 1.50554 0
M  V30 1802 O 167.474 5.59986 1.01999 0
M  V30 1803 N 168.676 5.06296 2.8398 0
M  V30 1804 H 171.441 2.93064 -0.627186 0
M  V30 1805 H 169.002 1.54629 -0.479731 0
M  V30 1806 H 170.994 3.62061 1.80815 0
M  V30 1807 H 169.564 2.55833 1.79634 0
M  V30 1808 H 168.784 3.93239 -0.275046 0
M  V30 1809 H 170.072 5.08675 0.112793 0
M  V30 1810 H 169.47 4.62319 3.26002 0
M  V30 1811 H 168.027 5.53907 3.43556 0
M  V30 1812 N 171.46 0.379036 1.52974 0
M  V30 1813 C 172.407 -0.461048 2.26148 0
M  V30 1814 C 173.377 -1.06637 1.27349 0
M  V30 1815 O 174.562 -1.09633 1.56157 0
M  V30 1816 C 171.702 -1.58782 3.06402 0
M  V30 1817 C 170.815 -1.00636 4.20115 0
M  V30 1818 C 169.95 -2.10334 4.87784 0
M  V30 1819 C 168.989 -1.49724 5.93506 0
M  V30 1820 N 168.126 -2.5331 6.54812 0
M  V30 1821 H 172.966 0.169429 2.97518 0
M  V30 1822 H 170.503 0.0953806 1.4679 0
M  V30 1823 H 172.461 -2.25174 3.51215 0
M  V30 1824 H 171.091 -2.18876 2.37261 0
M  V30 1825 H 170.143 -0.232332 3.7969 0
M  V30 1826 H 171.455 -0.523343 4.96047 0
M  V30 1827 H 170.609 -2.84519 5.35849 0
M  V30 1828 H 169.348 -2.61992 4.11353 0
M  V30 1829 H 168.353 -0.740598 5.44789 0
M  V30 1830 H 169.578 -0.988732 6.71864 0
M  V30 1831 H 167.524 -3.04156 5.81227 0
M  V30 1832 H 167.441 -2.09734 7.26325 0
M  V30 1833 H 168.709 -3.27155 7.07524 0
M  V30 1834 N 172.938 -1.57226 0.108567 0
M  V30 1835 C 174.166 -1.99179 -0.559954 0
M  V30 1836 C 174.581 -0.988022 -1.60884 0
M  V30 1837 O 173.938 0.0205512 -1.82488 0
M  V30 1838 C 173.989 -3.41159 -1.19552 0
M  V30 1839 O 173.71 -4.37694 -0.188577 0
M  V30 1840 C 175.211 -3.98188 -1.94837 0
M  V30 1841 H 172.431 -0.654228 -0.149088 0
M  V30 1842 H 174.975 -2.03598 0.19183 0
M  V30 1843 H 173.13 -3.37711 -1.89815 0
M  V30 1844 H 173.544 -5.20469 -0.649014 0
M  V30 1845 H 175.018 -4.99644 -2.34648 0
M  V30 1846 H 175.495 -3.3675 -2.81951 0
M  V30 1847 H 176.101 -4.0515 -1.2936 0
M  V30 1848 N 174.416 0.165178 -1.56732 0
M  V30 1849 C 175.348 1.22911 -1.93457 0
M  V30 1850 C 176.361 1.40152 -0.828333 0
M  V30 1851 O 177.55 1.40046 -1.10677 0
M  V30 1852 C 174.65 2.59686 -2.17753 0
M  V30 1853 C 173.823 2.63663 -3.48999 0
M  V30 1854 C 172.882 3.81845 -3.62051 0
M  V30 1855 O 171.908 3.67559 -4.34613 0
M  V30 1856 N 173.11 4.98557 -2.97357 0
M  V30 1857 H 175.875 0.917118 -2.85323 0
M  V30 1858 H 173.436 0.354895 -1.57962 0
M  V30 1859 H 175.428 3.37225 -2.23743 0
M  V30 1860 H 173.998 2.83251 -1.32242 0
M  V30 1861 H 173.218 1.72173 -3.54612 0
M  V30 1862 H 174.506 2.63336 -4.35352 0
M  V30 1863 H 173.904 5.13065 -2.38287 0
M  V30 1864 H 172.461 5.73936 -3.08934 0
M  V30 1865 N 175.894 1.51508 0.433938 0
M  V30 1866 C 177.122 1.68157 1.20543 0
M  V30 1867 C 177.537 0.380362 1.84929 0
M  V30 1868 O 176.894 -0.641446 1.70856 0
M  V30 1869 C 176.945 2.79965 2.28696 0
M  V30 1870 O 176.666 4.05045 1.66943 0
M  V30 1871 C 178.167 3.07912 3.18912 0
M  V30 1872 H 175.387 0.56421 0.363191 0
M  V30 1873 H 177.931 1.97941 0.513754 0
M  V30 1874 H 176.086 2.5277 2.93574 0
M  V30 1875 H 176.5 4.67165 2.38448 0
M  V30 1876 H 177.974 3.89719 3.90926 0
M  V30 1877 H 178.451 2.20456 3.79863 0
M  V30 1878 H 179.057 3.36779 2.59731 0
M  V30 1879 N 177.372 -0.689602 1.41712 0
M  V30 1880 C 178.621 -1.44534 1.40686 0
M  V30 1881 C 178.934 -1.95588 0.0213352 0
M  V30 1882 O 180.14 -2.71271 -0.111534 0
M  V30 1883 C 178.596 -2.61387 2.47396 0
M  V30 1884 C 178.204 -2.17094 3.91885 0
M  V30 1885 C 179.948 -3.38986 2.55517 0
M  V30 1886 C 177.855 -3.3094 4.90135 0
M  V30 1887 H 176.785 -0.542925 0.52321 0
M  V30 1888 H 179.436 -0.748054 1.6756 0
M  V30 1889 H 177.818 -3.33412 2.13664 0
M  V30 1890 H 178.992 -1.52318 4.34897 0
M  V30 1891 H 177.307 -1.52473 3.8748 0
M  V30 1892 H 179.904 -4.23747 3.26102 0
M  V30 1893 H 180.247 -3.84578 1.59391 0
M  V30 1894 H 180.78 -2.74021 2.8837 0
M  V30 1895 H 177.519 -2.90355 5.87685 0
M  V30 1896 H 177.039 -3.94546 4.51767 0
M  V30 1897 H 178.718 -3.9663 5.11169 0
M  V30 1898 N 178.85 -1.27639 -0.924453 0
M  V30 1899 C 180.266 -1.05113 -1.20097 0
M  V30 1900 C 180.466 0.213262 -2.00368 0
M  V30 1901 O 179.522 0.91787 -2.35226 0
M  V30 1902 C 180.835 -2.29244 -1.94596 0
M  V30 1903 C 182.383 -2.34315 -2.07522 0
M  V30 1904 C 182.858 -3.58183 -2.85427 0
M  V30 1905 N 184.349 -3.5876 -2.92994 0
M  V30 1906 C 185.084 -4.51277 -3.53746 0
M  V30 1907 N 184.58 -5.54102 -4.15863 0
M  V30 1908 N 186.373 -4.38894 -3.51181 0
M  V30 1909 H 178.524 -2.08821 -0.388264 0
M  V30 1910 H 180.787 -0.918568 -0.234385 0
M  V30 1911 H 180.493 -3.21301 -1.43034 0
M  V30 1912 H 180.367 -2.34816 -2.95197 0
M  V30 1913 H 182.754 -1.42762 -2.58269 0
M  V30 1914 H 182.835 -2.32744 -1.06131 0
M  V30 1915 H 182.479 -4.50074 -2.35363 0
M  V30 1916 H 182.409 -3.57006 -3.8711 0
M  V30 1917 H 184.9 -2.84398 -2.4885 0
M  V30 1918 H 185.213 -6.20859 -4.60168 0
M  V30 1919 H 183.558 -5.57941 -4.144 0
M  V30 1920 H 186.749 -3.57772 -3.01856 0
M  V30 1921 H 186.922 -5.11186 -3.98237 0
M  V30 1922 N 180.328 1.1314 -1.09713 0
M  V30 1923 C 181.553 1.88862 -0.857081 0
M  V30 1924 C 181.978 1.78729 0.586304 0
M  V30 1925 O 181.336 1.13692 1.41222 0
M  V30 1926 C 181.384 3.36325 -1.30069 0
M  V30 1927 O 180.488 4.09815 -0.461007 0
M  V30 1928 H 179.829 0.587108 -0.310162 0
M  V30 1929 H 182.359 1.43129 -1.46203 0
M  V30 1930 H 182.369 3.87157 -1.28738 0
M  V30 1931 H 181.044 3.43017 -2.35185 0
M  V30 1932 H 179.621 3.68986 -0.538888 0
M  V30 1933 N 181.806 0.884767 1.30421 0
M  V30 1934 C 182.769 0.356277 2.26414 0
M  V30 1935 C 183.769 -0.501124 1.52792 0
M  V30 1936 O 184.959 -0.30831 1.7145 0
M  V30 1937 C 182.091 -0.492316 3.37326 0
M  V30 1938 H 183.284 1.20389 2.74675 0
M  V30 1939 H 180.837 0.661607 1.41607 0
M  V30 1940 H 181.572 -1.36052 2.94381 0
M  V30 1941 H 181.357 0.121832 3.91911 0
M  V30 1942 H 182.847 -0.853871 4.08777 0
M  V30 1943 N 183.284 -1.43765 0.645699 0
M  V30 1944 C 184.509 -2.06767 0.161883 0
M  V30 1945 C 184.934 -1.48034 -1.16049 0
M  V30 1946 O 184.292 -0.587369 -1.71522 0
M  V30 1947 C 184.34 -3.60519 0.0762003 0
M  V30 1948 O 183.444 -4.00982 -0.963721 0
M  V30 1949 H 182.785 -0.657675 0.091429 0
M  V30 1950 H 185.315 -1.84397 0.886499 0
M  V30 1951 H 185.325 -4.07853 -0.109604 0
M  V30 1952 H 184 -4.02646 1.04157 0
M  V30 1953 H 182.577 -3.65253 -0.751312 0
M  V30 1954 N 184.763 -0.387143 -1.52771 0
M  V30 1955 C 186.04 0.253197 -1.93954 0
M  V30 1956 C 186.42 1.64545 -1.32243 0
M  V30 1957 O 185.768 2.23191 -0.489699 0
M  V30 1958 C 185.978 0.281722 -3.47861 0
M  V30 1959 C 187.326 0.511715 -4.21505 0
M  V30 1960 O 188.35 0.362023 -3.54356 0
M  V30 1961 O 187.209 0.804847 -5.40541 0
M  V30 1962 H 184.303 0.156845 -0.811991 0
M  V30 1963 H 186.849 -0.441494 -1.63856 0
M  V30 1964 H 185.621 -0.693571 -3.85104 0
M  V30 1965 H 185.244 1.02142 -3.84256 0
M  V30 1966 N 186.241 1.57166 -0.116904 0
M  V30 1967 C 187.49 1.94298 0.541407 0
M  V30 1968 C 187.803 1.00236 1.67964 0
M  V30 1969 O 189.009 1.26826 2.40057 0
M  V30 1970 C 187.465 3.45306 1.01449 0
M  V30 1971 C 187.073 4.47899 -0.0951738 0
M  V30 1972 C 188.817 3.91361 1.6443 0
M  V30 1973 C 186.724 5.90083 0.394491 0
M  V30 1974 H 185.654 0.725308 0.206019 0
M  V30 1975 H 188.305 1.82446 -0.196419 0
M  V30 1976 H 186.687 3.52385 1.80667 0
M  V30 1977 H 187.861 4.52486 -0.871374 0
M  V30 1978 H 186.176 4.11583 -0.631505 0
M  V30 1979 H 188.773 4.95004 2.02176 0
M  V30 1980 H 189.116 3.3122 2.52189 0
M  V30 1981 H 189.649 3.87073 0.917559 0
M  V30 1982 H 186.388 6.53974 -0.447004 0
M  V30 1983 H 185.908 5.88921 1.13722 0
M  V30 1984 H 187.587 6.41307 0.856399 0
M  V30 1985 N 187.719 -0.156864 1.56817 0
M  V30 1986 C 189.135 -0.50916 1.5126 0
M  V30 1987 C 189.335 -1.83897 0.823658 0
M  V30 1988 O 188.391 -2.49469 0.390055 0
M  V30 1989 C 189.704 -0.52857 2.96018 0
M  V30 1990 C 191.252 -0.614771 3.06903 0
M  V30 1991 C 191.727 -0.664938 4.53147 0
M  V30 1992 N 193.218 -0.727433 4.57452 0
M  V30 1993 C 193.953 -0.787067 5.67973 0
M  V30 1994 N 193.449 -0.806649 6.88088 0
M  V30 1995 N 195.242 -0.827195 5.5598 0
M  V30 1996 H 187.393 0.714935 2.00006 0
M  V30 1997 H 189.656 0.259526 0.911784 0
M  V30 1998 H 189.362 0.380154 3.49639 0
M  V30 1999 H 189.236 -1.36998 3.51442 0
M  V30 2000 H 191.623 -1.51392 2.53307 0
M  V30 2001 H 191.704 0.253597 2.5454 0
M  V30 2002 H 191.348 0.230011 5.07379 0
M  V30 2003 H 191.278 -1.54966 5.03282 0
M  V30 2004 H 193.769 -0.719998 3.70978 0
M  V30 2005 H 194.082 -0.853727 7.6807 0
M  V30 2006 H 192.427 -0.774687 6.90669 0
M  V30 2007 H 195.618 -0.808998 4.61056 0
M  V30 2008 H 195.791 -0.870206 6.4213 0
M  V30 2009 N 189.197 -1.51736 -0.425897 0
M  V30 2010 C 190.474 -1.55519 -1.1863 0
M  V30 2011 C 190.854 -0.326219 -2.08564 0
M  V30 2012 O 190.202 0.688012 -2.17896 0
M  V30 2013 C 190.412 -2.87521 -1.9782 0
M  V30 2014 C 191.76 -3.39899 -2.54468 0
M  V30 2015 O 192.784 -2.89148 -2.08019 0
M  V30 2016 O 191.643 -4.2848 -3.39215 0
M  V30 2017 H 188.737 -0.625739 -0.540721 0
M  V30 2018 H 191.283 -1.64055 -0.434038 0
M  V30 2019 H 190.055 -3.68422 -1.31836 0
M  V30 2020 H 189.678 -2.822 -2.80088 0
M  V30 2021 N 190.675 0.682077 -1.42076 0
M  V30 2022 C 191.921 1.44428 -1.42367 0
M  V30 2023 C 192.254 1.94164 -0.0373056 0
M  V30 2024 O 191.529 1.70429 0.937239 0
M  V30 2025 C 191.812 2.64654 -2.44194 0
M  V30 2026 C 191.665 2.20596 -3.91991 0
M  V30 2027 C 192.984 3.66865 -2.431 0
M  V30 2028 H 190.103 0.523834 -0.518428 0
M  V30 2029 H 192.745 0.77576 -1.73442 0
M  V30 2030 H 190.895 3.2169 -2.17826 0
M  V30 2031 H 192.567 1.68783 -4.29313 0
M  V30 2032 H 190.81 1.52242 -4.06208 0
M  V30 2033 H 191.481 3.06921 -4.58807 0
M  V30 2034 H 193.957 3.19531 -2.66532 0
M  V30 2035 H 192.833 4.48577 -3.16339 0
M  V30 2036 H 193.094 4.17493 -1.45437 0
M  V30 2037 N 192.153 1.28127 0.917671 0
M  V30 2038 C 193.4 1.15052 1.66641 0
M  V30 2039 C 193.728 -0.301677 1.92146 0
M  V30 2040 O 192.983 -1.23622 1.51711 0
M  V30 2041 C 193.282 1.89018 3.03327 0
M  V30 2042 C 192.948 3.38832 2.97496 0
M  V30 2043 C 191.61 3.79693 2.95613 0
M  V30 2044 C 193.962 4.34378 2.88036 0
M  V30 2045 C 191.29 5.14447 2.82066 0
M  V30 2046 C 193.642 5.69201 2.7603 0
M  V30 2047 C 192.306 6.09343 2.72502 0
M  V30 2048 H 191.576 0.421006 0.609783 0
M  V30 2049 H 194.223 1.58855 1.06945 0
M  V30 2050 H 192.528 1.37752 3.66785 0
M  V30 2051 H 194.225 1.76321 3.60156 0
M  V30 2052 H 190.815 3.06342 2.99754 0
M  V30 2053 H 194.999 4.03775 2.88581 0
M  V30 2054 H 190.255 5.44681 2.77728 0
M  V30 2055 H 194.429 6.42901 2.67678 0
M  V30 2056 H 192.056 7.13712 2.61762 0
M  V30 2057 N 193.631 -1.12557 1.10312 0
M  V30 2058 C 194.88 -1.83395 0.839588 0
M  V30 2059 C 195.193 -1.84939 -0.636929 0
M  V30 2060 O 196.399 -2.51761 -1.01631 0
M  V30 2061 C 194.855 -3.29303 1.45215 0
M  V30 2062 C 194.463 -3.36122 2.96186 0
M  V30 2063 C 196.207 -4.05121 1.26796 0
M  V30 2064 C 194.114 -4.76357 3.50483 0
M  V30 2065 H 193.044 -0.687133 0.310425 0
M  V30 2066 H 195.695 -1.26746 1.32694 0
M  V30 2067 H 194.077 -3.85812 0.892469 0
M  V30 2068 H 195.251 -2.89559 3.58458 0
M  V30 2069 H 193.566 -2.73776 3.13745 0
M  V30 2070 H 196.163 -5.08668 1.64806 0
M  V30 2071 H 196.506 -4.15773 0.209409 0
M  V30 2072 H 197.039 -3.54967 1.79563 0
M  V30 2073 H 193.778 -4.70899 4.55998 0
M  V30 2074 H 193.298 -5.23377 2.92978 0
M  V30 2075 H 194.977 -5.45294 3.48228 0
M  V30 2076 N 195.109 -0.891671 -1.2995 0
M  V30 2077 C 196.057 -0.353066 -2.29905 0
M  V30 2078 C 197.051 0.543509 -1.60444 0
M  V30 2079 O 198.257 0.4272 -1.74857 0
M  V30 2080 H 194.632 -0.095531 -0.745907 0
M  V30 2081 H 196.603 -1.20961 -2.72784 0
M  V30 2082 C 195.352 0.411475 -3.45257 0
M  V30 2083 H 194.675 -0.269182 -3.98893 0
M  V30 2084 H 196.115 0.753328 -4.17254 0
M  V30 2085 C 194.574 1.6111 -2.9588 0
M  V30 2086 O 195.104 2.71045 -2.96475 0
M  V30 2087 N 193.31 1.45054 -2.51809 0
M  V30 2088 H 192.857 0.556175 -2.51524 0
M  V30 2089 H 192.815 2.25453 -2.1913 0
M  V30 2090 N 196.587 1.43421 -0.653314 0
M  V30 2091 C 197.55 2.29182 0.0287951 0
M  V30 2092 C 198.55 1.42213 0.750465 0
M  V30 2093 O 199.74 1.63843 0.591701 0
M  V30 2094 C 196.872 3.24278 1.05151 0
M  V30 2095 H 198.065 2.90985 -0.725786 0
M  V30 2096 H 195.618 1.50702 -0.414545 0
M  V30 2097 H 196.353 2.6737 1.83532 0
M  V30 2098 H 196.138 3.88396 0.537687 0
M  V30 2099 H 197.628 3.88647 1.52786 0
M  V30 2100 N 198.065 0.39524 1.52563 0
M  V30 2101 C 199.313 -0.184678 2.01254 0
M  V30 2102 C 199.634 -1.46822 1.28329 0
M  V30 2103 O 198.904 -1.91666 0.405094 0
M  V30 2104 H 197.484 -0.0712355 0.743596 0
M  V30 2105 H 200.146 0.528293 1.87603 0
M  V30 2106 H 199.242 -0.390681 3.09645 0
M  V30 2107 N 199.544 -1.57102 0.125237 0
M  V30 2108 C 200.793 -1.94582 -0.531095 0
M  V30 2109 C 201.106 -1.01126 -1.6743 0
M  V30 2110 O 202.312 -1.28097 -2.39381 0
M  V30 2111 C 200.768 -3.45839 -0.996164 0
M  V30 2112 C 200.376 -4.47842 0.118926 0
M  V30 2113 C 202.12 -3.92227 -1.62352 0
M  V30 2114 C 200.027 -5.90284 -0.363192 0
M  V30 2115 H 198.957 -0.726391 -0.20217 0
M  V30 2116 H 201.608 -1.82339 0.206092 0
M  V30 2117 H 199.99 -3.53338 -1.78796 0
M  V30 2118 H 201.164 -4.52018 0.895358 0
M  V30 2119 H 199.479 -4.11243 0.653324 0
M  V30 2120 H 202.076 -4.96069 -1.99548 0
M  V30 2121 H 202.419 -3.32552 -2.50429 0
M  V30 2122 H 202.952 -3.87554 -0.897019 0
M  V30 2123 H 199.691 -6.53728 0.481679 0
M  V30 2124 H 199.211 -5.89515 -1.10597 0
M  V30 2125 H 200.89 -6.41752 -0.822377 0
M  V30 2126 N 201.022 0.148545 -1.56898 0
M  V30 2127 C 201.969 1.18345 -1.98149 0
M  V30 2128 C 202.939 1.42772 -0.848848 0
M  V30 2129 O 204.124 1.55132 -1.11079 0
M  V30 2130 C 201.264 2.51231 -2.36594 0
M  V30 2131 C 200.377 2.33991 -3.63142 0
M  V30 2132 C 199.512 3.59902 -3.90697 0
M  V30 2133 C 198.551 3.37692 -5.1052 0
M  V30 2134 N 197.688 4.5573 -5.34092 0
M  V30 2135 H 202.528 0.82467 -2.86362 0
M  V30 2136 H 200.065 0.395756 -1.41676 0
M  V30 2137 H 202.023 3.28713 -2.56912 0
M  V30 2138 H 200.653 2.85059 -1.51463 0
M  V30 2139 H 199.705 1.47572 -3.50609 0
M  V30 2140 H 201.017 2.13539 -4.5078 0
M  V30 2141 H 200.171 4.45813 -4.11505 0
M  V30 2142 H 198.91 3.83357 -3.01477 0
M  V30 2143 H 197.915 2.5017 -4.89587 0
M  V30 2144 H 199.14 3.15637 -6.0129 0
M  V30 2145 H 197.086 4.79361 -4.47827 0
M  V30 2146 H 197.003 4.38274 -6.15996 0
M  V30 2147 H 198.271 5.42858 -5.59397 0
M  V30 2148 N 202.5 1.5196 0.417844 0
M  V30 2149 C 203.748 1.65263 1.16329 0
M  V30 2150 C 204.069 0.380634 1.91249 0
M  V30 2151 O 203.339 -0.604214 1.86349 0
M  V30 2152 H 201.919 0.60912 0.432414 0
M  V30 2153 H 204.581 1.88969 0.477162 0
M  V30 2154 H 203.677 2.4896 1.88217 0
M  V30 2155 N 203.978 -0.674533 1.42435 0
M  V30 2156 C 204.888 -1.81751 1.48337 0
M  V30 2157 C 205.904 -1.69975 0.372099 0
M  V30 2158 O 207.08 -1.91521 0.62304 0
M  V30 2159 C 204.145 -3.17895 1.38361 0
M  V30 2160 C 203.206 -3.41625 2.59982 0
M  V30 2161 C 202.439 -4.71274 2.50473 0
M  V30 2162 O 202.662 -5.49197 1.54075 0
M  V30 2163 O 201.596 -4.96254 3.4061 0
M  V30 2164 H 205.422 -1.79728 2.44809 0
M  V30 2165 H 203.007 -0.830312 1.24202 0
M  V30 2166 H 204.889 -3.99136 1.35161 0
M  V30 2167 H 203.564 -3.20555 0.450144 0
M  V30 2168 H 202.471 -2.60231 2.68757 0
M  V30 2169 H 203.804 -3.43796 3.52229 0
M  V30 2170 N 205.456 -1.28612 -0.910864 0
M  V30 2171 C 206.366 -1.14643 -2.0468 0
M  V30 2172 C 207.382 -0.0723121 -1.7385 0
M  V30 2173 O 208.558 -0.282178 -1.99413 0
M  V30 2174 C 205.623 -0.812561 -3.37044 0
M  V30 2175 C 204.684 -1.96935 -3.81465 0
M  V30 2176 C 203.917 -1.65131 -5.07511 0
M  V30 2177 O 204.14 -0.567013 -5.67575 0
M  V30 2178 O 203.074 -2.49585 -5.47714 0
M  V30 2179 H 206.9 -2.1001 -2.19384 0
M  V30 2180 H 204.485 -1.07958 -1.03274 0
M  V30 2181 H 206.367 -0.640441 -4.16505 0
M  V30 2182 H 205.042 0.111426 -3.23508 0
M  V30 2183 H 203.949 -2.19664 -3.02818 0
M  V30 2184 H 205.282 -2.87414 -3.99567 0
M  V30 2185 N 206.934 1.1197 -1.10907 0
M  V30 2186 C 208.164 1.8713 -0.875553 0
M  V30 2187 C 208.572 1.8016 0.577843 0
M  V30 2188 O 207.915 1.17699 1.41042 0
M  V30 2189 C 207.977 3.37005 -1.2517 0
M  V30 2190 C 207.641 3.67748 -2.71313 0
M  V30 2191 C 208.638 3.65698 -3.69542 0
M  V30 2192 C 206.323 3.96928 -3.07821 0
M  V30 2193 C 208.317 3.92395 -5.023 0
M  V30 2194 C 206.004 4.23284 -4.40765 0
M  V30 2195 C 207.002 4.21005 -5.37814 0
M  V30 2196 O 206.69 4.46704 -6.68364 0
M  V30 2197 H 206.422 0.598786 -0.313737 0
M  V30 2198 H 208.976 1.42568 -1.47863 0
M  V30 2199 H 207.206 3.82146 -0.591741 0
M  V30 2200 H 208.895 3.93519 -0.994877 0
M  V30 2201 H 209.661 3.43211 -3.42682 0
M  V30 2202 H 205.54 3.97841 -2.32902 0
M  V30 2203 H 209.084 3.90531 -5.78041 0
M  V30 2204 H 204.981 4.45246 -4.67361 0
M  V30 2205 H 205.749 4.64299 -6.74069 0
M  V30 2206 N 208.412 0.89855 1.29475 0
M  V30 2207 C 209.689 0.443416 1.90508 0
M  V30 2208 C 210.069 -1.07685 1.81569 0
M  V30 2209 O 209.417 -1.9182 1.24166 0
M  V30 2210 C 209.627 0.956708 3.35631 0
M  V30 2211 C 210.975 0.999728 4.12663 0
M  V30 2212 O 211.999 0.904299 3.4453 0
M  V30 2213 O 210.858 1.14289 5.34416 0
M  V30 2214 H 207.952 0.138025 0.815401 0
M  V30 2215 H 210.498 0.98834 1.37949 0
M  V30 2216 H 209.27 2.00067 3.36287 0
M  V30 2217 H 208.893 0.391728 3.95666 0
M  V30 2218 N 209.89 -1.43072 0.660911 0
M  V30 2219 C 210.853 -2.29194 -0.0166406 0
M  V30 2220 C 211.853 -1.42609 -0.742912 0
M  V30 2221 O 213.043 -1.64155 -0.583004 0
M  V30 2222 C 210.175 -3.24831 -1.0343 0
M  V30 2223 H 211.368 -2.90596 0.741208 0
M  V30 2224 H 208.921 -1.5048 0.422532 0
M  V30 2225 H 209.656 -2.68339 -1.82111 0
M  V30 2226 H 209.441 -3.88676 -0.517082 0
M  V30 2227 H 210.931 -3.89451 -1.50723 0
M  V30 2228 N 211.368 -0.403325 -1.52352 0
M  V30 2229 C 212.331 0.413051 -2.25447 0
M  V30 2230 C 213.331 0.978513 -1.276 0
M  V30 2231 O 214.521 0.858305 -1.51587 0
M  V30 2232 C 211.653 1.58087 -3.02029 0
M  V30 2233 H 212.846 -0.227094 -2.99039 0
M  V30 2234 H 210.399 -0.155722 -1.55522 0
M  V30 2235 H 211.134 2.25804 -2.32772 0
M  V30 2236 H 210.919 1.18195 -3.73861 0
M  V30 2237 H 212.409 2.1585 -3.57489 0
M  V30 2238 N 212.846 1.57033 -0.133567 0
M  V30 2239 C 214.092 1.96764 0.515326 0
M  V30 2240 C 214.447 1.01653 1.63353 0
M  V30 2241 O 213.74 0.0491374 1.91537 0
M  V30 2242 C 213.934 3.40674 1.08057 0
M  V30 2243 C 213.763 4.49696 0.0186522 0
M  V30 2244 C 212.533 5.03567 -0.418174 0
M  V30 2245 C 214.731 5.08536 -0.767809 0
M  V30 2246 N 212.713 5.9618 -1.46434 0
M  V30 2247 C 214.084 5.97231 -1.6648 0
M  V30 2248 C 216.139 4.9115 -0.817087 0
M  V30 2249 C 214.842 6.70401 -2.60681 0
M  V30 2250 C 216.868 5.65012 -1.74687 0
M  V30 2251 C 216.23 6.53403 -2.63141 0
M  V30 2252 H 212.329 0.765919 0.157771 0
M  V30 2253 H 214.913 1.93395 -0.22506 0
M  V30 2254 H 213.084 3.44662 1.79061 0
M  V30 2255 H 214.816 3.67495 1.69497 0
M  V30 2256 H 211.571 4.73594 -0.0229803 0
M  V30 2257 H 211.995 6.47191 -1.98678 0
M  V30 2258 H 216.637 4.22543 -0.147326 0
M  V30 2259 H 214.355 7.38245 -3.28664 0
M  V30 2260 H 217.941 5.53559 -1.79063 0
M  V30 2261 H 216.821 7.09556 -3.33917 0
M  V30 2262 N 214.325 -0.140222 1.56975 0
M  V30 2263 C 215.273 -1.19207 1.99731 0
M  V30 2264 C 216.267 -1.44089 0.890777 0
M  V30 2265 O 217.473 -1.44301 1.07597 0
M  V30 2266 H 213.848 -0.40142 0.635898 0
M  V30 2267 H 215.819 -0.804813 2.87342 0
M  V30 2268 C 214.568 -2.51617 2.39967 0
M  V30 2269 H 213.891 -2.33303 3.24669 0
M  V30 2270 H 215.331 -3.23827 2.73701 0
M  V30 2271 C 213.79 -3.12654 1.25496 0
M  V30 2272 O 214.32 -3.97786 0.559371 0
M  V30 2273 N 212.526 -2.72206 1.01746 0
M  V30 2274 H 212.073 -2.03074 1.58489 0
M  V30 2275 H 212.031 -3.13377 0.253461 0
M  V30 2276 N 215.803 -1.52179 -0.40978 0
M  V30 2277 C 217.028 -1.70347 -1.18308 0
M  V30 2278 C 217.453 -0.411887 -1.83535 0
M  V30 2279 O 216.811 0.630587 -1.6998 0
M  V30 2280 C 216.859 -2.83977 -2.22238 0
M  V30 2281 O 215.963 -2.495 -3.28365 0
M  V30 2282 H 215.304 -0.567103 -0.345384 0
M  V30 2283 H 217.834 -1.98879 -0.480445 0
M  V30 2284 H 217.844 -3.0887 -2.66577 0
M  V30 2285 H 216.519 -3.77685 -1.74146 0
M  V30 2286 H 215.096 -2.35277 -2.89308 0
M  V30 2287 N 217.281 0.66697 -1.42791 0
M  V30 2288 C 218.528 1.42699 -1.43678 0
M  V30 2289 C 218.856 1.94419 -0.0560425 0
M  V30 2290 O 218.111 1.7182 0.936831 0
M  V30 2291 C 218.41 2.6349 -2.4147 0
M  V30 2292 C 218.076 2.30267 -3.8767 0
M  V30 2293 C 216.738 2.20918 -4.27491 0
M  V30 2294 C 219.09 2.03435 -4.79858 0
M  V30 2295 C 216.418 1.82873 -5.57471 0
M  V30 2296 C 218.77 1.66892 -6.10188 0
M  V30 2297 C 217.434 1.56058 -6.49001 0
M  V30 2298 H 216.704 0.522171 -0.525755 0
M  V30 2299 H 219.351 0.759785 -1.75783 0
M  V30 2300 H 217.656 3.35279 -2.0272 0
M  V30 2301 H 219.353 3.21684 -2.39417 0
M  V30 2302 H 215.943 2.38449 -3.56146 0
M  V30 2303 H 220.127 2.09586 -4.49875 0
M  V30 2304 H 215.383 1.7306 -5.86396 0
M  V30 2305 H 219.557 1.45157 -6.81104 0
M  V30 2306 H 217.184 1.26348 -7.49627 0
M  V30 2307 N 218.759 1.29093 0.90403 0
M  V30 2308 C 220.005 1.16986 1.65656 0
M  V30 2309 C 220.338 -0.278925 1.92186 0
M  V30 2310 O 219.613 -1.2019 1.5292 0
M  V30 2311 C 219.896 1.97908 3.0084 0
M  V30 2312 C 219.749 3.50903 2.81403 0
M  V30 2313 C 221.068 1.80208 4.01513 0
M  V30 2314 H 218.187 0.426346 0.601164 0
M  V30 2315 H 220.829 1.58518 1.04747 0
M  V30 2316 H 218.979 1.62616 3.52829 0
M  V30 2317 H 220.651 3.96153 2.36348 0
M  V30 2318 H 218.894 3.76045 2.1627 0
M  V30 2319 H 219.565 4.02791 3.77443 0
M  V30 2320 H 222.041 2.11025 3.58619 0
M  V30 2321 H 220.917 2.39184 4.94047 0
M  V30 2322 H 221.178 0.756119 4.35586 0
M  V30 2323 N 220.237 -1.11381 1.11499 0
M  V30 2324 C 221.483 -1.83403 0.865512 0
M  V30 2325 C 221.816 -1.84459 -0.607329 0
M  V30 2326 O 221.091 -1.29811 -1.44842 0
M  V30 2327 C 221.374 -3.30552 1.42855 0
M  V30 2328 C 221.227 -3.37886 2.96906 0
M  V30 2329 C 222.546 -4.26643 1.08 0
M  V30 2330 H 219.665 -0.665879 0.31587 0
M  V30 2331 H 222.307 -1.30601 1.37998 0
M  V30 2332 H 220.457 -3.75648 0.990985 0
M  V30 2333 H 222.129 -3.01343 3.49271 0
M  V30 2334 H 220.372 -2.78088 3.32941 0
M  V30 2335 H 221.043 -4.41458 3.31389 0
M  V30 2336 H 223.519 -3.89729 1.45775 0
M  V30 2337 H 222.395 -5.27986 1.50072 0
M  V30 2338 H 222.656 -4.42099 -0.00915037 0
M  V30 2339 N 221.715 -0.905404 -1.28997 0
M  V30 2340 C 222.662 -0.385892 -2.27551 0
M  V30 2341 C 223.632 0.535113 -1.57244 0
M  V30 2342 O 224.817 0.459119 -1.85194 0
M  V30 2343 C 221.957 0.375461 -3.43051 0
M  V30 2344 C 221.07 -0.577092 -4.28128 0
M  V30 2345 C 220.205 0.201879 -5.30816 0
M  V30 2346 C 219.244 -0.744829 -6.07551 0
M  V30 2347 N 218.381 9.42587e-05 -7.021 0
M  V30 2348 H 223.221 -1.23139 -2.71368 0
M  V30 2349 H 220.758 -0.618542 -1.33463 0
M  V30 2350 H 222.716 0.832992 -4.088 0
M  V30 2351 H 221.346 1.18537 -3.00248 0
M  V30 2352 H 220.398 -1.15315 -3.62501 0
M  V30 2353 H 221.71 -1.30152 -4.8152 0
M  V30 2354 H 220.864 0.720351 -6.02408 0
M  V30 2355 H 219.603 0.959413 -4.7817 0
M  V30 2356 H 218.608 -1.27475 -5.34818 0
M  V30 2357 H 219.833 -1.50178 -6.62286 0
M  V30 2358 H 217.779 0.739791 -6.51815 0
M  V30 2359 H 217.696 -0.664321 -7.53076 0
M  V30 2360 H 218.964 0.498644 -7.77903 0
M  V30 2361 N 223.193 1.4272 -0.668489 0
M  V30 2362 C 224.418 2.06484 -0.194758 0
M  V30 2363 C 224.843 1.49862 1.13679 0
M  V30 2364 O 224.201 0.614582 1.70565 0
M  V30 2365 C 224.249 3.60353 -0.133546 0
M  V30 2366 O 223.353 4.02464 0.899806 0
M  V30 2367 H 222.694 0.656137 -0.10188 0
M  V30 2368 H 225.224 1.82964 -0.915722 0
M  V30 2369 H 225.234 4.07976 0.0447041 0
M  V30 2370 H 223.909 4.00938 -1.1055 0
M  V30 2371 H 222.486 3.66402 0.693109 0
M  V30 2372 N 224.671 0.411399 1.52136 0
M  V30 2373 C 225.601 -0.404015 2.29978 0
M  V30 2374 C 226.582 -1.04412 1.34284 0
M  V30 2375 O 227.767 -1.0527 1.63192 0
M  V30 2376 C 224.897 -1.5197 3.12286 0
M  V30 2377 C 223.851 -1.00448 4.16046 0
M  V30 2378 C 223.177 -2.21393 4.86712 0
M  V30 2379 C 224.477 -0.0569336 5.22269 0
M  V30 2380 H 226.171 0.245529 2.98392 0
M  V30 2381 H 223.717 0.119525 1.43503 0
M  V30 2382 H 225.67 -2.09715 3.6551 0
M  V30 2383 H 224.394 -2.19716 2.41646 0
M  V30 2384 H 223.053 -0.449421 3.63835 0
M  V30 2385 H 222.701 -2.87699 4.12599 0
M  V30 2386 H 222.401 -1.87571 5.56858 0
M  V30 2387 H 223.925 -2.7974 5.4275 0
M  V30 2388 H 225.339 -0.54325 5.7072 0
M  V30 2389 H 223.736 0.192594 5.99791 0
M  V30 2390 H 224.806 0.887663 4.76706 0
M  V30 2391 N 226.149 -1.5696 0.141893 0
M  V30 2392 C 227.395 -1.9625 -0.511248 0
M  V30 2393 C 227.728 -1.02654 -1.64851 0
M  V30 2394 O 227.003 -0.0679676 -1.94381 0
M  V30 2395 C 227.286 -3.45285 -1.02227 0
M  V30 2396 C 227.139 -4.49658 0.113138 0
M  V30 2397 C 228.458 -3.96698 -1.90574 0
M  V30 2398 H 225.577 -0.713567 -0.184367 0
M  V30 2399 H 228.219 -1.88698 0.222087 0
M  V30 2400 H 226.369 -3.51852 -1.64719 0
M  V30 2401 H 228.041 -4.55174 0.749302 0
M  V30 2402 H 226.284 -4.26857 0.773026 0
M  V30 2403 H 226.955 -5.51258 -0.286053 0
M  V30 2404 H 229.431 -3.92578 -1.37918 0
M  V30 2405 H 228.307 -5.01453 -2.2324 0
M  V30 2406 H 228.568 -3.3875 -2.84079 0
M  V30 2407 N 227.627 0.131896 -1.57047 0
M  V30 2408 C 228.59 1.14638 -1.98471 0
M  V30 2409 C 229.59 1.35029 -0.873148 0
M  V30 2410 O 230.78 1.31764 -1.13946 0
M  V30 2411 C 227.912 2.50358 -2.31373 0
M  V30 2412 H 229.105 0.79064 -2.8929 0
M  V30 2413 H 226.658 0.375761 -1.51716 0
M  V30 2414 H 227.393 2.90876 -1.43393 0
M  V30 2415 H 227.178 2.36915 -3.12432 0
M  V30 2416 H 228.668 3.23395 -2.64207 0
M  V30 2417 N 229.106 1.52395 0.401703 0
M  V30 2418 C 230.038 1.72505 1.50912 0
M  V30 2419 C 231.051 0.605468 1.51122 0
M  V30 2420 O 232.24 0.880828 1.55254 0
M  V30 2421 C 229.34 1.75711 2.89791 0
M  V30 2422 C 228.513 3.04824 3.1369 0
M  V30 2423 C 227.572 2.99743 4.32482 0
M  V30 2424 O 226.598 3.73635 4.29402 0
M  V30 2425 N 227.8 2.18047 5.37992 0
M  V30 2426 H 230.565 2.68049 1.34052 0
M  V30 2427 H 228.126 1.50724 0.591084 0
M  V30 2428 H 230.118 1.69834 3.6734 0
M  V30 2429 H 228.688 0.876092 3.00072 0
M  V30 2430 H 227.908 3.2429 2.24119 0
M  V30 2431 H 229.196 3.90221 3.26504 0
M  V30 2432 H 228.594 1.57456 5.43345 0
M  V30 2433 H 227.151 2.18021 6.14256 0
M  V30 2434 N 230.584 -0.659388 1.43143 0
M  V30 2435 C 231.516 -1.7849 1.43784 0
M  V30 2436 C 232.529 -1.5932 0.334787 0
M  V30 2437 O 233.718 -1.68155 0.598842 0
M  V30 2438 C 230.818 -3.15828 1.22906 0
M  V30 2439 C 229.991 -3.61711 2.45934 0
M  V30 2440 C 229.05 -4.77831 2.20371 0
M  V30 2441 O 228.076 -4.87586 2.93681 0
M  V30 2442 N 229.278 -5.67611 1.21647 0
M  V30 2443 H 232.043 -1.7842 2.40803 0
M  V30 2444 H 229.604 -0.84302 1.3822 0
M  V30 2445 H 231.596 -3.91189 1.03697 0
M  V30 2446 H 230.166 -3.10707 0.343542 0
M  V30 2447 H 229.386 -2.76861 2.80609 0
M  V30 2448 H 230.674 -3.89112 3.27825 0
M  V30 2449 H 230.072 -5.62397 0.610449 0
M  V30 2450 H 228.629 -6.42719 1.08423 0
M  V30 2451 N 232.062 -1.29571 -0.897171 0
M  V30 2452 C 232.972 -1.16808 -2.03453 0
M  V30 2453 C 233.988 -0.0907471 -1.73763 0
M  V30 2454 O 235.164 -0.303312 -1.99103 0
M  V30 2455 C 232.229 -0.848264 -3.36163 0
M  V30 2456 C 231.29 -2.0097 -3.79354 0
M  V30 2457 C 230.523 -1.70505 -5.05731 0
M  V30 2458 O 230.746 -0.62718 -5.66941 0
M  V30 2459 O 229.68 -2.5538 -5.45036 0
M  V30 2460 H 233.506 -2.12325 -2.17144 0
M  V30 2461 H 231.091 -1.09047 -1.02123 0
M  V30 2462 H 232.973 -0.684581 -4.15802 0
M  V30 2463 H 231.648 0.0771071 -3.23608 0
M  V30 2464 H 230.555 -2.22863 -3.00471 0
M  V30 2465 H 231.888 -2.91636 -3.96496 0
M  V30 2466 N 233.54 1.10788 -1.12088 0
M  V30 2467 C 234.487 2.17025 -0.785407 0
M  V30 2468 C 235.457 1.64265 0.246191 0
M  V30 2469 O 236.642 1.90412 0.121584 0
M  V30 2470 C 233.782 3.44249 -0.242177 0
M  V30 2471 C 232.895 4.1098 -1.33115 0
M  V30 2472 C 232.03 5.25911 -0.747741 0
M  V30 2473 C 231.069 5.84538 -1.81609 0
M  V30 2474 N 230.206 6.90853 -1.25167 0
M  V30 2475 H 235.046 2.45066 -1.69548 0
M  V30 2476 H 232.583 1.20297 -0.846582 0
M  V30 2477 H 234.541 4.17101 0.0908026 0
M  V30 2478 H 233.171 3.16571 0.631072 0
M  V30 2479 H 232.223 3.36133 -1.78097 0
M  V30 2480 H 233.535 4.50601 -2.13917 0
M  V30 2481 H 232.689 6.056 -0.365216 0
M  V30 2482 H 231.428 4.87614 0.0915188 0
M  V30 2483 H 230.433 5.03522 -2.20785 0
M  V30 2484 H 231.658 6.249 -2.6585 0
M  V30 2485 H 229.604 6.54562 -0.434174 0
M  V30 2486 H 229.521 7.29166 -1.99633 0
M  V30 2487 H 230.789 7.7433 -0.896259 0
M  V30 2488 N 235.018 0.912232 1.28515 0
M  V30 2489 C 235.981 0.404223 2.25607 0
M  V30 2490 C 236.981 -0.468602 1.53821 0
M  V30 2491 O 238.171 -0.271873 1.72065 0
M  V30 2492 C 235.303 -0.420653 3.38295 0
M  V30 2493 H 236.496 1.26188 2.7206 0
M  V30 2494 H 234.049 0.691495 1.40171 0
M  V30 2495 H 234.784 -1.29777 2.97201 0
M  V30 2496 H 234.569 0.204935 3.91564 0
M  V30 2497 H 236.059 -0.766971 4.10496 0
M  V30 2498 N 236.496 -1.42363 0.676048 0
M  V30 2499 C 237.459 -2.29199 0.00766941 0
M  V30 2500 C 238.459 -1.43389 -0.727745 0
M  V30 2501 O 239.649 -1.64764 -0.56556 0
M  V30 2502 C 236.781 -3.2591 -0.999785 0
M  V30 2503 H 237.974 -2.89794 0.771988 0
M  V30 2504 H 235.527 -1.50024 0.438468 0
M  V30 2505 H 236.262 -2.70256 -1.79255 0
M  V30 2506 H 236.047 -3.89202 -0.475829 0
M  V30 2507 H 237.537 -3.91028 -1.46583 0
M  V30 2508 N 237.974 -0.419461 -1.51915 0
M  V30 2509 C 238.937 0.389116 -2.25873 0
M  V30 2510 C 239.937 0.964924 -1.28631 0
M  V30 2511 O 241.127 0.842179 -1.52489 0
M  V30 2512 C 238.259 1.54874 -3.03689 0
M  V30 2513 H 239.452 -0.258799 -2.98781 0
M  V30 2514 H 237.005 -0.172209 -1.55348 0
M  V30 2515 H 237.74 2.23323 -2.35154 0
M  V30 2516 H 237.525 1.14223 -3.75094 0
M  V30 2517 H 239.015 2.12046 -3.59759 0
M  V30 2518 N 239.452 1.56882 -0.150215 0
M  V30 2519 C 240.729 1.87844 0.545327 0
M  V30 2520 C 241.109 1.0567 1.82749 0
M  V30 2521 O 240.457 0.144442 2.28043 0
M  V30 2522 C 240.667 3.39526 0.80767 0
M  V30 2523 C 242.015 4.08814 1.14703 0
M  V30 2524 O 243.039 3.44723 0.896917 0
M  V30 2525 O 241.898 5.22004 1.61784 0
M  V30 2526 H 238.992 0.778677 0.278553 0
M  V30 2527 H 241.538 1.68666 -0.187068 0
M  V30 2528 H 240.31 3.91173 -0.0996096 0
M  V30 2529 H 239.933 3.64243 1.59413 0
M  V30 2530 N 240.93 -0.123565 1.57115 0
M  V30 2531 C 242.176 -0.833386 1.84885 0
M  V30 2532 C 242.509 -1.79742 0.735292 0
M  V30 2533 O 241.784 -1.92764 -0.25925 0
M  V30 2534 C 242.067 -1.5873 3.23228 0
M  V30 2535 C 241.92 -0.643183 4.45178 0
M  V30 2536 C 243.239 -2.54453 3.59085 0
M  V30 2537 H 240.358 -0.301518 0.6725 0
M  V30 2538 H 243 -0.097778 1.89748 0
M  V30 2539 H 241.15 -2.21438 3.19214 0
M  V30 2540 H 242.822 -0.0253015 4.61293 0
M  V30 2541 H 241.065 0.0456139 4.33776 0
M  V30 2542 H 241.736 -1.20724 5.38637 0
M  V30 2543 H 244.212 -2.01853 3.63861 0
M  V30 2544 H 243.088 -3.04238 4.5687 0
M  V30 2545 H 243.349 -3.36906 2.86264 0
M  V30 2546 N 242.408 -1.52605 -0.393616 0
M  V30 2547 C 243.34 -1.73303 -1.49995 0
M  V30 2548 C 244.353 -0.613473 -1.50799 0
M  V30 2549 O 245.542 -0.889049 -1.54784 0
M  V30 2550 C 242.642 -1.77245 -2.88855 0
M  V30 2551 C 241.815 -3.06483 -3.12069 0
M  V30 2552 C 240.874 -3.02033 -4.30886 0
M  V30 2553 O 239.9 -3.75907 -4.27414 0
M  V30 2554 N 241.102 -2.20897 -5.36828 0
M  V30 2555 H 243.867 -2.68756 -1.32629 0
M  V30 2556 H 241.428 -1.51036 -0.583083 0
M  V30 2557 H 243.42 -1.7178 -3.66434 0
M  V30 2558 H 241.99 -0.891993 -2.99603 0
M  V30 2559 H 241.21 -3.25474 -2.22396 0
M  V30 2560 H 242.498 -3.91947 -3.2443 0
M  V30 2561 H 241.896 -1.60336 -5.42502 0
M  V30 2562 H 240.453 -2.21275 -6.13091 0
M  V30 2563 N 243.887 0.651787 -1.4349 0
M  V30 2564 C 244.817 1.77621 -1.51569 0
M  V30 2565 C 245.798 1.66022 -0.370253 0
M  V30 2566 O 246.983 1.85095 -0.587658 0
M  V30 2567 C 244.113 3.16056 -1.43966 0
M  V30 2568 C 243.067 3.4242 -2.56774 0
M  V30 2569 C 242.393 4.8067 -2.34223 0
M  V30 2570 C 243.693 3.37023 -3.99015 0
M  V30 2571 H 245.387 1.71117 -2.45681 0
M  V30 2572 H 242.933 0.821825 -1.18246 0
M  V30 2573 H 244.886 3.94472 -1.48221 0
M  V30 2574 H 243.61 3.23293 -0.463586 0
M  V30 2575 H 242.269 2.66375 -2.51873 0
M  V30 2576 H 241.917 4.84585 -1.34856 0
M  V30 2577 H 241.617 4.9927 -3.09844 0
M  V30 2578 H 243.141 5.61342 -2.40265 0
M  V30 2579 H 244.555 4.05374 -4.05395 0
M  V30 2580 H 242.952 3.67159 -4.74673 0
M  V30 2581 H 244.022 2.3518 -4.2405 0
M  V30 2582 N 245.365 1.30045 0.890287 0
M  V30 2583 C 246.781 1.08261 1.17268 0
M  V30 2584 C 246.981 -0.160063 2.00863 0
M  V30 2585 O 246.037 -0.855181 2.37577 0
M  V30 2586 C 247.35 2.34323 1.8845 0
M  V30 2587 C 248.898 2.39735 2.01237 0
M  V30 2588 C 249.373 3.65625 2.7583 0
M  V30 2589 N 250.864 3.66402 2.83379 0
M  V30 2590 C 251.599 4.60498 3.41657 0
M  V30 2591 N 251.095 5.64933 4.01026 0
M  V30 2592 N 252.888 4.48051 3.39421 0
M  V30 2593 H 245.039 2.09777 0.332762 0
M  V30 2594 H 247.302 0.92446 0.209948 0
M  V30 2595 H 247.008 3.2498 1.34465 0
M  V30 2596 H 246.882 2.4256 2.88867 0
M  V30 2597 H 249.269 1.4956 2.54393 0
M  V30 2598 H 249.35 2.35476 0.999232 0
M  V30 2599 H 248.994 4.56156 2.23347 0
M  V30 2600 H 248.924 3.67144 3.77509 0
M  V30 2601 H 251.415 2.90896 2.41222 0
M  V30 2602 H 251.728 6.32841 4.43545 0
M  V30 2603 H 250.073 5.68732 3.99461 0
M  V30 2604 H 253.264 3.65649 2.92264 0
M  V30 2605 H 253.437 5.21565 3.84544 0
M  V30 2606 N 246.843 -1.10192 1.12674 0
M  V30 2607 C 248.091 -1.81845 0.881861 0
M  V30 2608 C 248.412 -1.85737 -0.593867 0
M  V30 2609 O 247.682 -1.33724 -1.4316 0
M  V30 2610 H 246.262 -0.673432 0.323261 0
M  V30 2611 H 248.924 -1.33316 1.42172 0
M  V30 2612 H 248.02 -2.85288 1.2656 0
M  V30 2613 N 248.321 -0.919034 -1.28029 0
M  V30 2614 C 249.567 -0.555757 -1.95036 0
M  V30 2615 C 249.9 0.899198 -1.72128 0
M  V30 2616 O 249.175 1.64023 -1.04531 0
M  V30 2617 C 249.458 -0.872024 -3.49382 0
M  V30 2618 C 249.311 -2.3801 -3.81669 0
M  V30 2619 C 250.63 -0.37185 -4.38526 0
M  V30 2620 H 247.749 -0.203386 -0.708381 0
M  V30 2621 H 250.391 -1.14924 -1.51303 0
M  V30 2622 H 248.541 -0.366946 -3.86763 0
M  V30 2623 H 250.213 -2.9562 -3.54128 0
M  V30 2624 H 248.456 -2.83289 -3.28526 0
M  V30 2625 H 249.127 -2.55192 -4.8947 0
M  V30 2626 H 251.603 -0.804602 -4.08247 0
M  V30 2627 H 250.479 -0.622173 -5.45362 0
M  V30 2628 H 250.74 0.727934 -4.36066 0
M  V30 2629 N 249.799 1.42003 -0.683588 0
M  V30 2630 C 251.21 1.84501 -0.285736 0
M  V30 2631 C 251.561 1.57213 1.17382 0
M  V30 2632 O 250.686 1.03642 1.89966 0
M  V30 2633 C 251.281 3.34912 -0.511821 0
M  V30 2634 C 249.84 3.76025 -0.168005 0
M  V30 2635 C 248.987 2.6551 -0.799983 0
M  V30 2636 H 251.938 1.31724 -0.885119 0
M  V30 2637 H 251.959 3.79784 0.233292 0
M  V30 2638 H 251.471 3.54741 -1.57418 0
M  V30 2639 H 249.572 3.61801 0.890567 0
M  V30 2640 H 249.685 4.75141 -0.614661 0
M  V30 2641 H 248.049 2.53654 -0.230568 0
M  V30 2642 H 248.832 2.8816 -1.86597 0
M  V30 2643 N 251.277 0.427512 1.51691 0
M  V30 2644 C 252.24 -0.377132 2.26076 0
M  V30 2645 C 253.24 -0.958089 1.29141 0
M  V30 2646 O 254.43 -0.83408 1.52934 0
M  V30 2647 C 251.562 -1.53262 3.04506 0
M  V30 2648 H 252.755 0.27464 2.9864 0
M  V30 2649 H 250.308 0.180445 1.55255 0
M  V30 2650 H 251.043 -2.22072 2.36335 0
M  V30 2651 H 250.828 -1.12232 3.75694 0
M  V30 2652 H 252.318 -2.10135 3.60878 0
M  V30 2653 N 252.755 -1.56801 0.158532 0
M  V30 2654 C 253.688 -2.13148 -0.815065 0
M  V30 2655 C 254.666 -1.0581 -1.23462 0
M  V30 2656 O 255.85 -1.3371 -1.32868 0
M  V30 2657 C 252.977 -2.6606 -2.09594 0
M  V30 2658 C 252.023 -3.85651 -1.82141 0
M  V30 2659 S 252.856 -5.26041 -1.00207 0
M  V30 2660 C 254.012 -5.8235 -2.29389 0
M  V30 2661 H 254.245 -2.95396 -0.335937 0
M  V30 2662 H 251.778 -1.54299 -0.0559391 0
M  V30 2663 H 253.736 -2.97195 -2.8317 0
M  V30 2664 H 252.397 -1.83921 -2.54621 0
M  V30 2665 H 251.59 -4.20958 -2.77147 0
M  V30 2666 H 251.192 -3.55338 -1.16667 0
M  V30 2667 H 253.484 -5.94485 -3.24952 0
M  V30 2668 H 254.427 -6.79688 -1.9857 0
M  V30 2669 H 254.835 -5.10675 -2.40564 0
M  V30 2670 N 254.233 0.115231 -1.57178 0
M  V30 2671 C 255.48 0.822351 -1.8505 0
M  V30 2672 C 255.808 1.79701 -0.744168 0
M  V30 2673 O 255.063 1.93909 0.26414 0
M  V30 2674 C 255.362 1.60324 -3.19423 0
M  V30 2675 C 255.028 0.772536 -4.44233 0
M  V30 2676 C 253.69 0.543468 -4.78121 0
M  V30 2677 C 256.042 0.193746 -5.2084 0
M  V30 2678 C 253.37 -0.274583 -5.86057 0
M  V30 2679 C 255.722 -0.611517 -6.29637 0
M  V30 2680 C 254.386 -0.850867 -6.62055 0
M  V30 2681 H 253.656 0.30092 -0.677147 0
M  V30 2682 H 256.303 0.0845802 -1.91313 0
M  V30 2683 H 254.608 2.41203 -3.08753 0
M  V30 2684 H 256.305 2.1544 -3.38211 0
M  V30 2685 H 252.895 0.96117 -4.17683 0
M  V30 2686 H 257.079 0.357926 -4.95008 0
M  V30 2687 H 252.335 -0.469206 -6.09597 0
M  V30 2688 H 256.509 -1.06697 -6.88178 0
M  V30 2689 H 254.136 -1.48657 -7.45523 0
M  V30 2690 N 255.711 1.52812 0.385517 0
M  V30 2691 C 256.957 1.68275 1.13188 0
M  V30 2692 C 257.29 0.423179 1.89533 0
M  V30 2693 O 256.565 -0.579113 1.85679 0
M  V30 2694 C 256.848 2.92001 2.1073 0
M  V30 2695 C 256.701 4.28067 1.38125 0
M  V30 2696 C 258.02 3.11283 3.11113 0
M  V30 2697 H 255.139 0.612352 0.410115 0
M  V30 2698 H 257.781 1.85415 0.414869 0
M  V30 2699 H 255.931 2.77519 2.71874 0
M  V30 2700 H 257.603 4.54324 0.799187 0
M  V30 2701 H 255.846 4.28388 0.683092 0
M  V30 2702 H 256.517 5.10733 2.09417 0
M  V30 2703 H 258.993 3.2482 2.6006 0
M  V30 2704 H 257.869 3.99325 3.76605 0
M  V30 2705 H 258.13 2.25656 3.80173 0
M  V30 2706 N 257.189 -0.644168 1.43834 0
M  V30 2707 C 258.137 -1.77793 1.49974 0
M  V30 2708 C 259.131 -1.65253 0.372536 0
M  V30 2709 O 260.337 -1.7149 0.546924 0
M  V30 2710 H 256.712 -0.58675 0.47035 0
M  V30 2711 H 258.683 -1.69736 2.45423 0
M  V30 2712 C 257.432 -3.16087 1.4486 0
M  V30 2713 H 256.755 -3.26378 2.30905 0
M  V30 2714 H 258.195 -3.95349 1.53217 0
M  V30 2715 C 256.654 -3.36484 0.167463 0
M  V30 2716 O 257.184 -3.94298 -0.767609 0
M  V30 2717 N 255.39 -2.90504 0.0747556 0
M  V30 2718 H 254.937 -2.4364 0.836507 0
M  V30 2719 H 254.895 -3.04527 -0.781714 0
M  V30 2720 N 258.668 -1.30515 -0.883378 0
M  V30 2721 C 259.916 -1.19194 -1.63209 0
M  V30 2722 C 260.237 0.253205 -1.93349 0
M  V30 2723 O 259.507 1.17025 -1.57105 0
M  V30 2724 H 258.087 -0.438148 -0.605009 0
M  V30 2725 H 260.749 -1.63663 -1.05832 0
M  V30 2726 H 259.845 -1.75396 -2.58153 0
M  V30 2727 N 260.146 1.09593 -1.13257 0
M  V30 2728 C 261.093 2.1618 -0.808381 0
M  V30 2729 C 262.063 1.64517 0.228754 0
M  V30 2730 O 263.248 1.9053 0.101381 0
M  V30 2731 C 260.388 3.43973 -0.278675 0
M  V30 2732 C 259.501 4.09545 -1.37466 0
M  V30 2733 C 258.636 5.25088 -0.803479 0
M  V30 2734 C 257.675 5.82579 -1.87799 0
M  V30 2735 N 256.812 6.89486 -1.32488 0
M  V30 2736 H 261.652 2.43254 -1.72138 0
M  V30 2737 H 259.189 1.19392 -0.859294 0
M  V30 2738 H 261.147 4.17174 0.0465583 0
M  V30 2739 H 259.777 3.17223 0.597459 0
M  V30 2740 H 258.829 3.34226 -1.81652 0
M  V30 2741 H 260.141 4.48307 -2.18684 0
M  V30 2742 H 259.295 6.05178 -0.429427 0
M  V30 2743 H 258.034 4.87684 0.0397956 0
M  V30 2744 H 257.039 5.01152 -2.26113 0
M  V30 2745 H 258.264 6.22045 -2.72463 0
M  V30 2746 H 256.21 6.54064 -0.503575 0
M  V30 2747 H 256.127 7.27007 -2.07355 0
M  V30 2748 H 257.395 7.73336 -0.978336 0
M  V30 2749 N 261.624 0.925811 1.2754 0
M  V30 2750 C 262.854 0.580666 1.98272 0
M  V30 2751 C 263.262 -0.845207 1.69272 0
M  V30 2752 O 262.605 -1.57306 0.948707 0
M  V30 2753 C 262.667 0.724418 3.52126 0
M  V30 2754 C 262.331 2.12206 4.04744 0
M  V30 2755 C 263.328 3.09604 4.17662 0
M  V30 2756 C 261.013 2.4385 4.39138 0
M  V30 2757 C 263.007 4.36755 4.64246 0
M  V30 2758 C 260.694 3.71237 4.85414 0
M  V30 2759 C 261.692 4.67503 4.97926 0
M  V30 2760 O 261.38 5.92624 5.43187 0
M  V30 2761 H 261.112 0.218987 0.639547 0
M  V30 2762 H 263.666 1.24452 1.63404 0
M  V30 2763 H 261.896 0.0034663 3.867 0
M  V30 2764 H 263.585 0.384607 4.04074 0
M  V30 2765 H 264.351 2.86478 3.91351 0
M  V30 2766 H 260.23 1.69665 4.28643 0
M  V30 2767 H 263.774 5.11898 4.73927 0
M  V30 2768 H 259.671 3.94182 5.11166 0
M  V30 2769 H 260.439 5.95585 5.61445 0
M  V30 2770 N 263.102 -1.41638 0.69111 0
M  V30 2771 C 264.034 -2.29194 -0.0161523 0
M  V30 2772 C 265.047 -1.44549 -0.748955 0
M  V30 2773 O 266.236 -1.681 -0.6004 0
M  V30 2774 C 263.336 -3.22325 -1.0469 0
M  V30 2775 C 262.509 -4.35706 -0.384621 0
M  V30 2776 C 261.568 -5.09443 -1.31737 0
M  V30 2777 O 260.594 -5.63386 -0.811451 0
M  V30 2778 N 261.796 -5.16487 -2.64993 0
M  V30 2779 H 264.561 -2.90534 0.735523 0
M  V30 2780 H 262.122 -1.52742 0.53679 0
M  V30 2781 H 264.114 -3.68522 -1.67252 0
M  V30 2782 H 262.684 -2.62323 -1.70015 0
M  V30 2783 H 261.904 -3.91948 0.420804 0
M  V30 2784 H 263.192 -5.08743 0.0760765 0
M  V30 2785 H 262.59 -4.741 -3.08619 0
M  V30 2786 H 261.147 -5.66276 -3.22761 0
M  V30 2787 N 264.58 -0.43555 -1.51462 0
M  V30 2788 C 265.51 0.367376 -2.30592 0
M  V30 2789 C 266.491 1.02263 -1.35928 0
M  V30 2790 O 267.676 1.02661 -1.64847 0
M  V30 2791 C 264.806 1.46983 -3.14664 0
M  V30 2792 C 263.76 0.938161 -4.17591 0
M  V30 2793 C 263.086 2.13622 -4.90173 0
M  V30 2794 C 264.386 -0.0261621 -5.22293 0
M  V30 2795 H 266.08 -0.292969 -2.97963 0
M  V30 2796 H 263.626 -0.14234 -1.43295 0
M  V30 2797 H 265.579 2.03873 -3.688 0
M  V30 2798 H 264.303 2.15843 -2.4511 0
M  V30 2799 H 262.962 0.391481 -3.64504 0
M  V30 2800 H 262.61 2.81098 -4.17124 0
M  V30 2801 H 262.31 1.78688 -5.59772 0
M  V30 2802 H 263.834 2.7107 -5.47132 0
M  V30 2803 H 265.248 0.452384 -5.71512 0
M  V30 2804 H 263.645 -0.287992 -5.99409 0
M  V30 2805 H 264.715 -0.963391 -4.75233 0
M  V30 2806 N 266.058 1.56714 -0.166846 0
M  V30 2807 C 267.006 2.19056 0.782123 0
M  V30 2808 C 268 1.15328 1.24079 0
M  V30 2809 O 269.206 1.33537 1.20697 0
M  V30 2810 H 265.581 0.70167 0.270486 0
M  V30 2811 H 267.552 2.97494 0.232322 0
M  V30 2812 C 266.301 2.84206 2.00306 0
M  V30 2813 H 265.624 3.63748 1.65914 0
M  V30 2814 H 267.064 3.31302 2.64604 0
M  V30 2815 C 265.523 1.83744 2.82382 0
M  V30 2816 O 266.053 1.32014 3.79388 0
M  V30 2817 N 264.259 1.52601 2.47308 0
M  V30 2818 H 263.806 1.9486 1.68485 0
M  V30 2819 H 263.764 0.856351 3.02513 0
M  V30 2820 N 267.536 -0.106894 1.57237 0
M  V30 2821 C 268.947 -0.662723 1.74542 0
M  V30 2822 C 269.298 -1.7971 0.787319 0
M  V30 2823 O 268.423 -2.16368 -0.0369636 0
M  V30 2824 C 269.018 -1.20896 3.16496 0
M  V30 2825 C 267.577 -1.71096 3.35266 0
M  V30 2826 C 266.724 -0.615642 2.7038 0
M  V30 2827 H 269.675 0.119106 1.58252 0
M  V30 2828 H 269.696 -2.07847 3.18716 0
M  V30 2829 H 269.208 -0.383122 3.86204 0
M  V30 2830 H 267.309 -2.56119 2.70618 0
M  V30 2831 H 267.422 -1.81208 4.43509 0
M  V30 2832 H 265.786 -1.05222 2.31949 0
M  V30 2833 H 266.569 0.199419 3.4272 0
M  V30 2834 N 269.014 -1.53014 -0.377408 0
M  V30 2835 C 269.946 -1.74884 -1.48149 0
M  V30 2836 C 270.959 -0.629433 -1.5014 0
M  V30 2837 O 272.148 -0.905416 -1.53833 0
M  V30 2838 C 269.248 -1.80299 -2.86959 0
M  V30 2839 C 268.421 -3.09776 -3.08801 0
M  V30 2840 C 267.48 -3.06586 -4.27658 0
M  V30 2841 O 266.506 -3.80419 -4.23403 0
M  V30 2842 N 267.708 -2.26578 -5.34455 0
M  V30 2843 H 270.473 -2.70147 -1.29771 0
M  V30 2844 H 268.034 -1.51646 -0.56703 0
M  V30 2845 H 270.026 -1.75657 -3.64591 0
M  V30 2846 H 268.596 -0.92372 -2.98641 0
M  V30 2847 H 267.816 -3.27815 -2.18931 0
M  V30 2848 H 269.104 -3.95366 -3.20255 0
M  V30 2849 H 268.502 -1.66081 -5.40771 0
M  V30 2850 H 267.059 -2.27766 -6.10709 0
M  V30 2851 N 270.492 0.636531 -1.44174 0
M  V30 2852 C 271.74 1.39343 -1.46383 0
M  V30 2853 C 272.061 1.94766 -0.0955715 0
M  V30 2854 O 271.331 1.75452 0.871395 0
M  V30 2855 H 269.911 0.517199 -0.538994 0
M  V30 2856 H 272.573 0.74957 -1.7991 0
M  V30 2857 H 271.669 2.22746 -2.18611 0
M  V30 2858 N 271.97 1.30982 0.876444 0
M  V30 2859 C 272.903 1.12414 1.98591 0
M  V30 2860 C 273.881 0.0294078 1.62573 0
M  V30 2861 O 275.065 0.184598 1.87594 0
M  V30 2862 C 272.192 0.716276 3.3104 0
M  V30 2863 C 271.238 1.81311 3.86042 0
M  V30 2864 S 272.071 3.41727 4.1229 0
M  V30 2865 C 273.227 3.02863 5.47745 0
M  V30 2866 H 273.46 2.06338 2.14037 0
M  V30 2867 H 270.993 1.15393 1.02586 0
M  V30 2868 H 272.951 0.487697 4.07593 0
M  V30 2869 H 271.612 -0.203749 3.13438 0
M  V30 2870 H 270.805 1.48021 4.81774 0
M  V30 2871 H 270.407 1.99641 3.16259 0
M  V30 2872 H 272.699 2.51353 6.29148 0
M  V30 2873 H 273.642 3.97533 5.8598 0
M  V30 2874 H 274.05 2.40487 5.10711 0
M  V30 2875 N 273.449 -1.08991 1.13837 0
M  V30 2876 C 274.726 -1.77863 0.813876 0
M  V30 2877 C 275.106 -1.99375 -0.693746 0
M  V30 2878 O 274.454 -1.59875 -1.63255 0
M  V30 2879 C 274.664 -3.0986 1.60586 0
M  V30 2880 C 276.012 -3.84493 1.8014 0
M  V30 2881 O 277.036 -3.19624 1.57222 0
M  V30 2882 O 275.895 -5.00957 2.18413 0
M  V30 2883 H 272.989 -0.771589 0.297624 0
M  V30 2884 H 275.535 -1.15507 1.24323 0
M  V30 2885 H 274.307 -2.89715 2.63022 0
M  V30 2886 H 273.93 -3.79942 1.17173 0
M  V30 2887 N 274.927 -0.932562 -1.27047 0
M  V30 2888 C 276.155 -0.592031 -1.98249 0
M  V30 2889 C 276.57 0.831062 -1.69525 0
M  V30 2890 O 275.927 1.55299 -0.958561 0
M  V30 2891 C 275.978 -0.814279 -3.5221 0
M  V30 2892 O 275.699 -2.18139 -3.7993 0
M  V30 2893 C 277.2 -0.483121 -4.4066 0
M  V30 2894 H 274.42 -0.223896 -0.632544 0
M  V30 2895 H 276.964 -1.25091 -1.61779 0
M  V30 2896 H 275.119 -0.20213 -3.86872 0
M  V30 2897 H 275.533 -2.235 -4.74498 0
M  V30 2898 H 277.007 -0.689298 -5.47679 0
M  V30 2899 H 277.484 0.581546 -4.35333 0
M  V30 2900 H 278.09 -1.07362 -4.11526 0
M  V30 2901 N 276.405 1.4127 -0.698611 0
M  V30 2902 C 277.63 2.06024 -0.238512 0
M  V30 2903 C 278.055 1.5224 1.10475 0
M  V30 2904 O 277.413 0.650623 1.69223 0
M  V30 2905 C 277.461 3.59988 -0.209952 0
M  V30 2906 O 276.565 4.04282 0.814235 0
M  V30 2907 H 275.906 0.653829 -0.115775 0
M  V30 2908 H 278.436 1.8098 -0.954326 0
M  V30 2909 H 278.446 4.07979 -0.0418436 0
M  V30 2910 H 277.121 3.98503 -1.1903 0
M  V30 2911 H 275.698 3.6779 0.615234 0
M  V30 2912 N 277.883 0.443576 1.51229 0
M  V30 2913 C 278.831 -0.37904 2.29491 0
M  V30 2914 C 279.825 -1.0153 1.35603 0
M  V30 2915 O 281.031 -0.94955 1.52917 0
M  V30 2916 H 277.406 -0.141053 0.738653 0
M  V30 2917 H 279.377 0.301799 2.9687 0
M  V30 2918 C 278.126 -1.46426 3.15364 0
M  V30 2919 H 277.449 -0.984037 3.87501 0
M  V30 2920 H 278.889 -2.01297 3.7317 0
M  V30 2921 C 277.348 -2.45099 2.31146 0
M  V30 2922 O 277.878 -3.49773 1.9754 0
M  V30 2923 N 276.084 -2.16139 1.94249 0
M  V30 2924 H 275.631 -1.31044 2.21777 0
M  V30 2925 H 275.589 -2.82398 1.38198 0
M  V30 2926 N 279.361 -1.56624 0.175154 0
M  V30 2927 C 280.294 -2.14 -0.792412 0
M  V30 2928 C 281.272 -1.07114 -1.22333 0
M  V30 2929 O 282.456 -1.35112 -1.31442 0
M  V30 2930 C 279.583 -2.68268 -2.0676 0
M  V30 2931 C 278.629 -3.87562 -1.7804 0
M  V30 2932 S 279.462 -5.27074 -0.946222 0
M  V30 2933 C 280.618 -5.8475 -2.23199 0
M  V30 2934 H 280.851 -2.95736 -0.304588 0
M  V30 2935 H 278.384 -1.54349 -0.0395705 0
M  V30 2936 H 280.342 -3.00182 -2.80002 0
M  V30 2937 H 279.003 -1.86612 -2.52656 0
M  V30 2938 H 278.196 -4.23874 -2.72666 0
M  V30 2939 H 277.798 -3.56555 -1.12891 0
M  V30 2940 H 280.09 -5.97898 -3.18629 0
M  V30 2941 H 281.033 -6.81756 -1.91349 0
M  V30 2942 H 281.441 -5.13198 -2.35134 0
M  V30 2943 N 280.839 0.0985539 -1.57292 0
M  V30 2944 C 282.116 0.834155 -1.76921 0
M  V30 2945 C 282.496 1.97101 -0.755928 0
M  V30 2946 O 281.844 2.27474 0.216245 0
M  V30 2947 C 282.054 1.33194 -3.22584 0
M  V30 2948 C 283.402 1.77611 -3.85668 0
M  V30 2949 O 284.426 1.42825 -3.26312 0
M  V30 2950 O 283.285 2.4192 -4.90038 0
M  V30 2951 H 280.379 0.397628 -0.725135 0
M  V30 2952 H 282.925 0.0807044 -1.69508 0
M  V30 2953 H 281.697 0.517248 -3.87866 0
M  V30 2954 H 281.32 2.1475 -3.34616 0
M  V30 2955 N 282.317 1.53212 0.369288 0
M  V30 2956 C 283.563 1.69466 1.11397 0
M  V30 2957 C 283.896 0.443257 1.89074 0
M  V30 2958 O 283.171 -0.559386 1.86282 0
M  V30 2959 C 283.454 2.9422 2.07621 0
M  V30 2960 C 283.307 4.29508 1.33577 0
M  V30 2961 C 284.626 3.14565 3.07794 0
M  V30 2962 H 281.745 0.616667 0.403597 0
M  V30 2963 H 284.387 1.85845 0.395179 0
M  V30 2964 H 282.537 2.80387 2.68916 0
M  V30 2965 H 284.209 4.55147 0.750955 0
M  V30 2966 H 282.452 4.29088 0.637618 0
M  V30 2967 H 283.123 5.12926 2.03989 0
M  V30 2968 H 285.599 3.2756 2.56601 0
M  V30 2969 H 284.475 4.03297 3.72348 0
M  V30 2970 H 284.736 2.29675 3.77759 0
M  V30 2971 N 283.795 -0.628877 1.44509 0
M  V30 2972 C 285.042 -1.38839 1.47411 0
M  V30 2973 C 285.37 -1.94202 0.10757 0
M  V30 2974 O 284.625 -1.74243 -0.890947 0
M  V30 2975 C 284.924 -2.56995 2.48371 0
M  V30 2976 C 284.59 -2.19908 3.93639 0
M  V30 2977 C 283.252 -2.09506 4.33198 0
M  V30 2978 C 285.604 -1.9064 4.85083 0
M  V30 2979 C 282.932 -1.68028 5.62124 0
M  V30 2980 C 285.284 -1.50655 6.14399 0
M  V30 2981 C 283.948 -1.38796 6.5291 0
M  V30 2982 H 283.218 -0.508048 0.539414 0
M  V30 2983 H 285.865 -0.712913 1.77735 0
M  V30 2984 H 284.17 -3.29786 2.11538 0
M  V30 2985 H 285.867 -3.15223 2.47861 0
M  V30 2986 H 282.457 -2.28922 3.62343 0
M  V30 2987 H 286.641 -1.97585 4.55273 0
M  V30 2988 H 281.897 -1.57452 5.90778 0
M  V30 2989 H 286.071 -1.27048 6.84713 0
M  V30 2990 H 283.698 -1.06429 7.52713 0
M  V30 2991 N 285.273 -1.31445 -0.869486 0
M  V30 2992 C 286.519 -1.21337 -1.62496 0
M  V30 2993 C 286.852 0.227872 -1.92858 0
M  V30 2994 O 286.127 1.16094 -1.56053 0
M  V30 2995 C 286.41 -2.05814 -2.95487 0
M  V30 2996 C 286.263 -3.5824 -2.72 0
M  V30 2997 C 287.582 -1.9079 -3.96594 0
M  V30 2998 H 284.701 -0.442135 -0.589649 0
M  V30 2999 H 287.343 -1.6124 -1.00507 0
M  V30 3000 H 285.493 -1.71913 -3.48394 0
M  V30 3001 H 287.165 -4.0228 -2.25762 0
M  V30 3002 H 285.408 -3.81647 -2.06224 0
M  V30 3003 H 286.079 -4.12657 -3.66631 0
M  V30 3004 H 288.555 -2.20459 -3.52898 0
M  V30 3005 H 287.431 -2.52199 -4.87531 0
M  V30 3006 H 287.692 -0.871341 -4.33428 0
M  V30 3007 N 286.751 1.08385 -1.14413 0
M  V30 3008 C 287.683 2.1519 -0.789036 0
M  V30 3009 C 288.696 1.61638 0.19417 0
M  V30 3010 O 289.885 1.78479 -0.0275711 0
M  V30 3011 C 286.985 3.38565 -0.15058 0
M  V30 3012 C 286.158 4.21501 -1.16857 0
M  V30 3013 C 285.217 5.23277 -0.553832 0
M  V30 3014 O 284.243 5.56041 -1.21686 0
M  V30 3015 N 285.445 5.76629 0.669296 0
M  V30 3016 H 288.21 2.46257 -1.70814 0
M  V30 3017 H 285.771 1.24198 -1.03858 0
M  V30 3018 H 287.763 4.03777 0.273181 0
M  V30 3019 H 286.333 3.05299 0.671667 0
M  V30 3020 H 285.553 3.52265 -1.76926 0
M  V30 3021 H 286.841 4.73731 -1.85624 0
M  V30 3022 H 286.239 5.52243 1.22654 0
M  V30 3023 H 284.796 6.43521 1.03556 0
M  V30 3024 N 288.23 0.939286 1.26551 0
M  V30 3025 C 289.162 0.404704 2.25599 0
M  V30 3026 C 290.175 -0.470983 1.55838 0
M  V30 3027 O 291.364 -0.281734 1.76263 0
M  V30 3028 C 288.464 -0.43764 3.36062 0
M  V30 3029 C 287.637 0.421449 4.35365 0
M  V30 3030 C 286.696 -0.36015 5.24966 0
M  V30 3031 O 285.722 0.236167 5.6871 0
M  V30 3032 N 286.924 -1.65715 5.56344 0
M  V30 3033 H 289.689 1.25618 2.72103 0
M  V30 3034 H 287.25 0.807963 1.40298 0
M  V30 3035 H 289.242 -0.967866 3.92956 0
M  V30 3036 H 287.812 -1.18991 2.89067 0
M  V30 3037 H 287.032 1.1329 3.7757 0
M  V30 3038 H 288.32 1.00835 4.98708 0
M  V30 3039 H 287.718 -2.16378 5.22682 0
M  V30 3040 H 286.275 -2.13366 6.15888 0
M  V30 3041 N 289.708 -1.40897 0.706093 0
M  V30 3042 C 290.938 -2.05075 0.250523 0
M  V30 3043 C 291.346 -1.53275 -1.10921 0
M  V30 3044 O 290.689 -0.680281 -1.7064 0
M  V30 3045 C 290.751 -3.59219 0.142178 0
M  V30 3046 C 290.415 -4.33864 1.43566 0
M  V30 3047 C 291.412 -4.62448 2.37566 0
M  V30 3048 C 289.097 -4.72946 1.69195 0
M  V30 3049 C 291.091 -5.29088 3.5545 0
M  V30 3050 C 288.778 -5.3932 2.87362 0
M  V30 3051 C 289.776 -5.6732 3.80312 0
M  V30 3052 O 289.464 -6.32325 4.96408 0
M  V30 3053 H 289.196 -0.666645 0.112074 0
M  V30 3054 H 291.75 -1.81467 0.962239 0
M  V30 3055 H 289.98 -3.81609 -0.6254 0
M  V30 3056 H 291.669 -4.0495 -0.277584 0
M  V30 3057 H 292.435 -4.32727 2.19027 0
M  V30 3058 H 288.314 -4.50527 0.977042 0
M  V30 3059 H 291.858 -5.50859 4.28018 0
M  V30 3060 H 287.755 -5.68461 3.05814 0
M  V30 3061 H 288.523 -6.50821 4.9636 0
M  V30 3062 N 291.186 -0.45159 -1.50991 0
M  V30 3063 C 292.149 0.341117 -2.26647 0
M  V30 3064 C 293.149 0.937422 -1.30649 0
M  V30 3065 O 294.339 0.809644 -1.54241 0
M  V30 3066 C 291.471 1.48398 -3.06905 0
M  V30 3067 H 292.664 -0.322117 -2.98165 0
M  V30 3068 H 290.217 -0.205122 -1.54948 0
M  V30 3069 H 290.952 2.18284 -2.39838 0
M  V30 3070 H 290.737 1.06241 -3.77432 0
M  V30 3071 H 292.227 2.04367 -3.64176 0
M  V30 3072 N 292.664 1.56529 -0.183458 0
M  V30 3073 C 293.941 1.88959 0.50536 0
M  V30 3074 C 294.321 1.09523 1.80466 0
M  V30 3075 O 293.669 0.19278 2.27685 0
M  V30 3076 C 293.879 3.41162 0.73547 0
M  V30 3077 C 295.227 4.11155 1.06005 0
M  V30 3078 O 296.251 3.46548 0.823594 0
M  V30 3079 O 295.11 5.25318 1.50675 0
M  V30 3080 H 292.204 0.78441 0.261973 0
M  V30 3081 H 294.75 1.68231 -0.222802 0
M  V30 3082 H 293.522 3.90874 -0.182561 0
M  V30 3083 H 293.145 3.67543 1.51651 0
M  V30 3084 N 294.142 -0.090211 1.57342 0
M  V30 3085 C 295.37 -0.806224 1.90546 0
M  V30 3086 C 295.785 -1.72041 0.777644 0
M  V30 3087 O 295.142 -1.80778 -0.250103 0
M  V30 3088 C 295.193 -1.61546 3.23396 0
M  V30 3089 O 294.914 -0.738043 4.31839 0
M  V30 3090 C 296.415 -2.4341 3.70495 0
M  V30 3091 H 293.635 -0.230256 0.630257 0
M  V30 3092 H 296.179 -0.0659843 2.04394 0
M  V30 3093 H 294.334 -2.30816 3.11131 0
M  V30 3094 H 294.748 -1.29901 5.08159 0
M  V30 3095 H 296.222 -2.95676 4.66133 0
M  V30 3096 H 296.699 -3.22098 2.98579 0
M  V30 3097 H 297.305 -1.79331 3.85643 0
M  V30 3098 N 295.62 -1.53406 -0.361157 0
M  V30 3099 C 296.866 -1.70054 -1.10496 0
M  V30 3100 C 297.199 -0.453278 -1.88836 0
M  V30 3101 O 296.474 0.5495 -1.86576 0
M  V30 3102 C 296.757 -2.95317 -2.06058 0
M  V30 3103 C 296.61 -4.3021 -1.31298 0
M  V30 3104 C 297.929 -3.16193 -3.06121 0
M  V30 3105 H 295.048 -0.618799 -0.400321 0
M  V30 3106 H 297.69 -1.86052 -0.385318 0
M  V30 3107 H 295.84 -2.81809 -2.67425 0
M  V30 3108 H 297.512 -4.55538 -0.726807 0
M  V30 3109 H 295.755 -4.29421 -0.614853 0
M  V30 3110 H 296.426 -5.14 -2.01265 0
M  V30 3111 H 298.902 -3.28916 -2.5486 0
M  V30 3112 H 297.778 -4.05266 -3.70204 0
M  V30 3113 H 298.039 -2.31676 -3.76535 0
M  V30 3114 N 297.098 0.621204 -1.44841 0
M  V30 3115 C 298.045 1.73267 -1.5247 0
M  V30 3116 C 299.015 1.6189 -0.371611 0
M  V30 3117 O 300.2 1.81668 -0.58321 0
M  V30 3118 C 297.34 3.11545 -1.48438 0
M  V30 3119 C 296.453 3.33827 -2.74196 0
M  V30 3120 C 295.588 4.62133 -2.61929 0
M  V30 3121 C 294.627 4.77627 -3.82804 0
M  V30 3122 N 293.764 5.97219 -3.69153 0
M  V30 3123 H 298.604 1.66082 -2.47428 0
M  V30 3124 H 296.141 0.810026 -1.22788 0
M  V30 3125 H 298.099 3.91528 -1.4409 0
M  V30 3126 H 296.729 3.1772 -0.570402 0
M  V30 3127 H 295.781 2.47715 -2.88689 0
M  V30 3128 H 297.093 3.41153 -3.6389 0
M  V30 3129 H 296.247 5.50291 -2.5547 0
M  V30 3130 H 294.986 4.57182 -1.69811 0
M  V30 3131 H 293.991 3.87896 -3.89637 0
M  V30 3132 H 295.216 4.84385 -4.75971 0
M  V30 3133 H 293.162 5.93339 -2.79794 0
M  V30 3134 H 293.079 6.05644 -4.52472 0
M  V30 3135 H 294.347 6.87912 -3.66603 0
M  V30 3136 N 298.576 1.31904 0.862503 0
M  V30 3137 C 299.806 1.24817 1.64634 0
M  V30 3138 C 300.214 -0.187579 1.88268 0
M  V30 3139 O 299.557 -1.13253 1.44635 0
M  V30 3140 C 299.619 1.92996 3.03303 0
M  V30 3141 C 299.283 3.42336 3.02746 0
M  V30 3142 C 300.28 4.37956 2.80162 0
M  V30 3143 C 297.965 3.84147 3.2363 0
M  V30 3144 C 299.959 5.73361 2.78453 0
M  V30 3145 C 297.646 5.19663 3.21549 0
M  V30 3146 C 298.644 6.14081 2.98988 0
M  V30 3147 O 298.332 7.47118 2.96766 0
M  V30 3148 H 298.064 0.432222 0.519769 0
M  V30 3149 H 300.618 1.7445 1.08427 0
M  V30 3150 H 298.848 1.37922 3.61268 0
M  V30 3151 H 300.537 1.79723 3.63943 0
M  V30 3152 H 301.303 4.06981 2.63802 0
M  V30 3153 H 297.182 3.11083 3.40218 0
M  V30 3154 H 300.726 6.4703 2.60763 0
M  V30 3155 H 296.623 5.5027 3.37451 0
M  V30 3156 H 297.391 7.56382 3.12775 0
M  V30 3157 N 300.054 -1.07777 1.14986 0
M  V30 3158 C 300.984 -2.16865 0.865557 0
M  V30 3159 C 301.965 -1.69123 -0.182083 0
M  V30 3160 O 303.15 -1.94164 -0.0373815 0
M  V30 3161 C 300.28 -3.45539 0.349313 0
M  V30 3162 C 299.234 -4.06708 1.33313 0
M  V30 3163 C 298.56 -5.30411 0.675918 0
M  V30 3164 C 299.86 -4.47241 2.69764 0
M  V30 3165 H 301.554 -2.40905 1.77778 0
M  V30 3166 H 299.1 -1.15781 0.856203 0
M  V30 3167 H 301.053 -4.21174 0.137983 0
M  V30 3168 H 299.777 -3.21072 -0.598362 0
M  V30 3169 H 298.436 -3.33112 1.53075 0
M  V30 3170 H 298.084 -5.02232 -0.277767 0
M  V30 3171 H 297.784 -5.72293 1.33244 0
M  V30 3172 H 299.308 -6.08755 0.474262 0
M  V30 3173 H 300.722 -5.14025 2.53873 0
M  V30 3174 H 299.119 -5.00062 3.3175 0
M  V30 3175 H 300.189 -3.58818 3.26156 0
M  V30 3176 N 301.532 -0.945985 -1.26051 0
M  V30 3177 C 302.757 -0.612525 -1.98149 0
M  V30 3178 C 303.182 0.806623 -1.69927 0
M  V30 3179 O 302.54 1.54411 -0.950108 0
M  V30 3180 C 302.588 -0.866981 -3.50023 0
M  V30 3181 O 301.692 0.0585333 -4.12358 0
M  V30 3182 H 301.033 -0.23379 -0.621481 0
M  V30 3183 H 303.563 -1.27023 -1.60395 0
M  V30 3184 H 303.573 -0.789792 -4.00283 0
M  V30 3185 H 302.248 -1.90135 -3.69894 0
M  V30 3186 H 300.825 -0.0701241 -3.72834 0
M  V30 3187 N 303.011 1.40521 -0.713556 0
M  V30 3188 C 303.921 2.34522 -0.0606667 0
M  V30 3189 C 304.937 1.57193 0.74607 0
M  V30 3190 O 306.113 1.89591 0.679493 0
M  V30 3191 C 303.178 3.36081 0.851491 0
M  V30 3192 C 302.239 4.29286 0.0349339 0
M  V30 3193 C 301.472 5.25994 0.903649 0
M  V30 3194 O 301.695 5.28616 2.14292 0
M  V30 3195 O 300.629 6.00918 0.343723 0
M  V30 3196 H 304.455 2.91968 -0.835972 0
M  V30 3197 H 302.04 1.41681 -0.47402 0
M  V30 3198 H 303.922 3.98369 1.37404 0
M  V30 3199 H 302.597 2.81052 1.60598 0
M  V30 3200 H 301.504 3.70289 -0.532633 0
M  V30 3201 H 302.837 4.87462 -0.681287 0
M  V30 3202 N 304.489 0.459591 1.5075 0
M  V30 3203 C 305.436 -0.340524 2.28274 0
M  V30 3204 C 306.406 -0.997371 1.32822 0
M  V30 3205 O 307.591 -1.01202 1.61749 0
M  V30 3206 C 304.731 -1.42317 3.14388 0
M  V30 3207 C 303.844 -0.782251 4.24859 0
M  V30 3208 C 302.979 -1.84182 4.98247 0
M  V30 3209 C 302.018 -1.18053 6.00608 0
M  V30 3210 N 301.155 -2.18244 6.67319 0
M  V30 3211 H 305.995 0.326899 2.96202 0
M  V30 3212 H 303.532 0.173057 1.46078 0
M  V30 3213 H 305.49 -2.06241 3.62658 0
M  V30 3214 H 304.12 -2.05992 2.4853 0
M  V30 3215 H 303.172 -0.0307404 3.80388 0
M  V30 3216 H 304.484 -0.259663 4.98124 0
M  V30 3217 H 303.638 -2.55714 5.50177 0
M  V30 3218 H 302.377 -2.39819 4.24662 0
M  V30 3219 H 301.382 -0.450776 5.47949 0
M  V30 3220 H 302.607 -0.631202 6.7616 0
M  V30 3221 H 300.553 -2.72919 5.96533 0
M  V30 3222 H 300.47 -1.70938 7.36421 0
M  V30 3223 H 301.738 -2.89191 7.23871 0
M  V30 3224 N 305.967 -1.56429 0.191757 0
M  V30 3225 C 306.914 -2.18936 -0.730454 0
M  V30 3226 C 307.884 -1.13557 -1.21219 0
M  V30 3227 O 309.069 -1.41794 -1.27668 0
M  V30 3228 C 306.209 -2.85013 -1.9458 0
M  V30 3229 C 305.322 -4.04909 -1.50574 0
M  V30 3230 C 304.457 -4.58853 -2.67634 0
M  V30 3231 C 303.496 -5.71114 -2.20217 0
M  V30 3232 N 302.633 -6.19478 -3.30442 0
M  V30 3233 H 307.473 -2.97389 -0.190664 0
M  V30 3234 H 305.01 -1.46869 -0.0823694 0
M  V30 3235 H 306.968 -3.21492 -2.65893 0
M  V30 3236 H 305.598 -2.09129 -2.45896 0
M  V30 3237 H 304.65 -3.74115 -0.688605 0
M  V30 3238 H 305.962 -4.86113 -1.11784 0
M  V30 3239 H 305.116 -4.97619 -3.47074 0
M  V30 3240 H 303.855 -3.76749 -3.09696 0
M  V30 3241 H 302.86 -5.31879 -1.3923 0
M  V30 3242 H 304.085 -6.55033 -1.79189 0
M  V30 3243 H 302.031 -5.40297 -3.72041 0
M  V30 3244 H 301.948 -6.95725 -2.9581 0
M  V30 3245 H 303.216 -6.62898 -4.10106 0
M  V30 3246 O 307.484 -0.0545306 -1.61408 0
M  V30 3247 H 308.175 0.554314 -1.85599 0
M  V30 END ATOM
M  V30 BEGIN BOND
M  V30 END BOND
M  V30 END CTAB
M  END
$$$$
