drugbank_target|P0AEZ1 5,10-methylenetetrahydrofolate reductase (DB03147)
 OpenBabel12092120033D

  0  0  0     0  0            999 V3000
M  V30 BEGIN CTAB
M  V30 COUNTS 4636 4685 0 0 0
M  V30 BEGIN ATOM
M  V30 1 H -0.908 1.98254 -0.117106 0
M  V30 2 N 0 1.576 0 0
M  V30 3 C 0.933 2.03868 1.02534 0
M  V30 4 C 1.911 0.928543 1.3348 0
M  V30 5 O 3.095 1.19667 1.45644 0
M  V30 6 C 0.222 2.43627 2.35294 0
M  V30 7 C -0.732 3.65373 2.2001 0
M  V30 8 S 0.101 5.13292 1.52614 0
M  V30 9 C 1.257 5.56322 2.86805 0
M  V30 10 H 1.49 2.90518 0.631377 0
M  V30 11 H -0.977 1.52953 0.210867 0
M  V30 12 H 0.981 2.67203 3.11629 0
M  V30 13 H -0.358 1.57376 2.7183 0
M  V30 14 H -1.165 3.90944 3.18086 0
M  V30 15 H -1.563 3.418 1.51819 0
M  V30 16 H 0.729 5.58782 3.83104 0
M  V30 17 H 1.672 6.56266 2.65933 0
M  V30 18 H 2.08 4.83886 2.90714 0
M  V30 19 N 1.4781 -0.272755 1.55222 0
M  V30 20 C 2.7031 -1.02683 1.80197 0
M  V30 21 C 3.1281 -1.79142 0.573551 0
M  V30 22 O 2.4861 -1.74917 -0.476849 0
M  V30 23 C 2.5341 -1.9609 3.02624 0
M  V30 24 O 1.6381 -3.04863 2.77727 0
M  V30 25 H 0.9791 -0.293557 0.595584 0
M  V30 26 H 3.5091 -0.30159 2.02365 0
M  V30 27 H 3.5191 -2.38039 3.31363 0
M  V30 28 H 2.1941 -1.39851 3.91682 0
M  V30 29 H 0.7711 -2.67228 2.60084 0
M  V30 30 N 2.9562 -1.48159 -0.537278 0
M  V30 31 C 4.2032 -1.55804 -1.29349 0
M  V30 32 C 4.5312 -0.228802 -1.9315 0
M  V30 33 O 3.7862 0.780242 -1.79473 0
M  V30 34 C 4.0852 -2.63956 -2.40961 0
M  V30 35 C 3.7512 -4.0662 -1.94861 0
M  V30 36 C 2.4132 -4.45452 -1.82006 0
M  V30 37 C 4.7652 -4.96055 -1.59933 0
M  V30 38 C 2.0932 -5.71531 -1.32547 0
M  V30 39 C 4.4452 -6.22617 -1.11939 0
M  V30 40 C 3.1092 -6.60312 -0.976951 0
M  V30 41 H 2.3792 -0.570129 -0.473322 0
M  V30 42 H 5.0262 -1.81845 -0.600372 0
M  V30 43 H 3.3312 -2.31747 -3.15912 0
M  V30 44 H 5.0282 -2.67089 -2.99107 0
M  V30 45 H 1.6182 -3.75949 -2.05815 0
M  V30 46 H 5.8022 -4.66738 -1.68728 0
M  V30 47 H 1.0582 -5.99468 -1.202 0
M  V30 48 H 5.2322 -6.91318 -0.839811 0
M  V30 49 H 2.8592 -7.57895 -0.591501 0
M  V30 50 N 4.4343 0.785586 -1.36625 0
M  V30 51 C 5.6813 1.54362 -1.31067 0
M  V30 52 C 6.0093 1.94195 0.10893 0
M  V30 53 O 5.2643 1.63262 1.07908 0
M  V30 54 C 5.5633 2.83007 -2.1827 0
M  V30 55 C 5.2293 2.62294 -3.6676 0
M  V30 56 C 3.8913 2.56353 -4.0723 0
M  V30 57 C 6.2433 2.43371 -4.6089 0
M  V30 58 C 3.5713 2.29461 -5.39967 0
M  V30 59 C 5.9233 2.18005 -5.93849 0
M  V30 60 C 4.5873 2.105 -6.3344 0
M  V30 61 H 3.8573 0.564851 -0.479609 0
M  V30 62 H 6.5043 0.906028 -1.68711 0
M  V30 63 H 4.8093 3.51253 -1.73576 0
M  V30 64 H 6.5063 3.40817 -2.11292 0
M  V30 65 H 3.0963 2.67774 -3.34656 0
M  V30 66 H 7.2803 2.46959 -4.30494 0
M  V30 67 H 2.5363 2.22135 -5.69619 0
M  V30 68 H 6.7103 2.02359 -6.66351 0
M  V30 69 H 4.3373 1.89425 -7.36222 0
M  V30 70 N 5.9124 1.20967 1.01018 0
M  V30 71 C 6.8624 0.93182 2.08089 0
M  V30 72 C 7.8464 -0.110898 1.60517 0
M  V30 73 O 9.0384 0.0973392 1.76732 0
M  V30 74 C 6.1674 0.492719 3.39746 0
M  V30 75 C 5.2534 1.56922 3.94 0
M  V30 76 N 5.6444 2.79312 4.21686 0
M  V30 77 C 3.9424 1.43688 4.2222 0
M  V30 78 C 4.6434 3.48797 4.65527 0
M  V30 79 N 3.6194 2.76224 4.68189 0
M  V30 80 H 7.4214 1.86175 2.27412 0
M  V30 81 H 4.9354 1.10463 1.19045 0
M  V30 82 H 6.9324 0.275044 4.15992 0
M  V30 83 H 5.5924 -0.430509 3.21833 0
M  V30 84 H 6.6034 3.15903 4.10397 0
M  V30 85 H 3.2804 0.578548 4.13472 0
M  V30 86 H 4.6704 4.53561 4.95714 0
M  V30 87 N 7.3905 -1.2043 1.01659 0
M  V30 88 C 8.3535 -2.21433 0.591616 0
M  V30 89 C 9.3535 -1.57203 -0.338226 0
M  V30 90 O 10.5435 -1.73737 -0.126918 0
M  V30 91 C 7.6755 -3.40628 -0.136058 0
M  V30 92 H 8.8685 -2.60545 1.48514 0
M  V30 93 H 6.4215 -1.33893 0.806379 0
M  V30 94 H 7.1565 -3.07019 -1.04449 0
M  V30 95 H 6.9415 -3.88475 0.531917 0
M  V30 96 H 8.4315 -4.15475 -0.420735 0
M  V30 97 N 8.8686 -0.792821 -1.36206 0
M  V30 98 C 10.0936 -0.377701 -2.03932 0
M  V30 99 C 10.5186 0.998947 -1.59382 0
M  V30 100 O 9.8766 1.64421 -0.763903 0
M  V30 101 C 9.9246 -0.453635 -3.57735 0
M  V30 102 O 9.0286 0.538151 -4.08874 0
M  V30 103 H 8.3696 -0.159855 -0.644471 0
M  V30 104 H 10.8996 -1.07488 -1.7409 0
M  V30 105 H 10.9096 -0.318464 -4.06755 0
M  V30 106 H 9.5846 -1.45784 -3.89512 0
M  V30 107 H 8.1616 0.364359 -3.71116 0
M  V30 108 N 10.3467 1.47872 -0.545128 0
M  V30 109 C 11.2787 2.27869 0.246621 0
M  V30 110 C 12.2917 1.36282 0.890561 0
M  V30 111 O 13.4807 1.61207 0.766449 0
M  V30 112 C 10.5807 3.10159 1.36582 0
M  V30 113 C 9.7537 4.29627 0.820954 0
M  V30 114 C 8.8127 4.93607 1.82314 0
M  V30 115 O 7.8387 5.52366 1.37406 0
M  V30 116 N 9.0407 4.87211 3.15603 0
M  V30 117 H 11.8057 2.96459 -0.439539 0
M  V30 118 H 9.3667 1.57367 -0.380421 0
M  V30 119 H 11.3587 3.49829 2.03474 0
M  V30 120 H 9.9287 2.43891 1.9554 0
M  V30 121 H 9.1487 3.94192 -0.0244032 0
M  V30 122 H 10.4367 5.06928 0.436063 0
M  V30 123 H 9.8347 4.40651 3.54744 0
M  V30 124 H 8.3917 5.30937 3.78087 0
M  V30 125 N 11.8248 0.280983 1.55075 0
M  V30 126 C 13.2408 -0.0729964 1.59433 0
M  V30 127 C 13.4408 -1.5411 1.29817 0
M  V30 128 O 12.4968 -2.29086 1.06187 0
M  V30 129 C 13.8098 0.306921 2.9913 0
M  V30 130 C 15.3578 0.254023 3.11968 0
M  V30 131 C 15.8328 0.608467 4.5394 0
M  V30 132 N 17.3238 0.560241 4.59799 0
M  V30 133 C 18.0588 0.80722 5.6769 0
M  V30 134 N 17.5548 1.11912 6.83701 0
M  V30 135 N 19.3478 0.735623 5.57266 0
M  V30 136 H 11.4988 1.238 1.7259 0
M  V30 137 H 13.7618 0.500547 0.805082 0
M  V30 138 H 13.4678 1.32816 3.25657 0
M  V30 139 H 13.3418 -0.349363 3.75579 0
M  V30 140 H 15.7288 -0.75794 2.852 0
M  V30 141 H 15.8098 0.944649 2.37718 0
M  V30 142 H 15.4538 1.61814 4.81434 0
M  V30 143 H 15.3838 -0.104013 5.26497 0
M  V30 144 H 17.8748 0.329288 3.76463 0
M  V30 145 H 18.1878 1.29409 7.61888 0
M  V30 146 H 16.5328 1.15695 6.85303 0
M  V30 147 H 19.7238 0.491752 4.6551 0
M  V30 148 H 19.8968 0.931482 6.4127 0
M  V30 149 N 13.3029 -1.57598 0.00835791 0
M  V30 150 C 14.5799 -1.82172 -0.712235 0
M  V30 151 C 14.9599 -0.887873 -1.9152 0
M  V30 152 O 14.3079 0.06146 -2.28417 0
M  V30 153 C 14.5179 -3.30875 -1.11008 0
M  V30 154 C 15.8659 -3.96826 -1.51044 0
M  V30 155 O 16.8899 -3.35248 -1.20364 0
M  V30 156 O 15.7489 -5.05318 -2.08125 0
M  V30 157 H 12.8429 -0.750435 -0.347529 0
M  V30 158 H 15.3889 -1.69665 0.0344523 0
M  V30 159 H 14.1609 -3.90481 -0.252982 0
M  V30 160 H 13.7839 -3.48412 -1.9156 0
M  V30 161 N 14.781 0.264519 -1.55364 0
M  V30 162 C 15.744 1.31046 -1.88042 0
M  V30 163 C 16.744 1.41943 -0.755569 0
M  V30 164 O 17.934 1.40947 -1.02369 0
M  V30 165 C 15.066 2.69067 -2.09323 0
M  V30 166 H 16.259 1.03297 -2.81549 0
M  V30 167 H 13.812 0.502989 -1.47986 0
M  V30 168 H 14.547 3.01982 -1.18226 0
M  V30 169 H 14.332 2.62542 -2.91229 0
M  V30 170 H 15.822 3.44623 -2.35848 0
M  V30 171 N 16.2591 1.48442 0.529413 0
M  V30 172 C 17.1891 1.65902 1.64313 0
M  V30 173 C 18.1701 0.507897 1.6234 0
M  V30 174 O 19.3551 0.740503 1.79528 0
M  V30 175 C 16.4851 1.69911 3.02898 0
M  V30 176 C 15.4391 2.8453 3.19729 0
M  V30 177 C 14.7651 2.73629 4.59381 0
M  V30 178 C 16.0651 4.25821 3.02447 0
M  V30 179 H 17.7591 2.5914 1.49955 0
M  V30 180 H 15.3051 1.24709 0.719982 0
M  V30 181 H 17.2581 1.80715 3.80684 0
M  V30 182 H 15.9821 0.732524 3.18279 0
M  V30 183 H 14.6411 2.73283 2.44361 0
M  V30 184 H 14.2891 1.74938 4.71599 0
M  V30 185 H 13.9891 3.50541 4.71588 0
M  V30 186 H 15.5131 2.86401 5.39265 0
M  V30 187 H 16.9271 4.37898 3.70024 0
M  V30 188 H 15.3241 5.03735 3.26146 0
M  V30 189 H 16.3941 4.42244 1.98867 0
M  V30 190 N 17.7372 -0.778329 1.37039 0
M  V30 191 C 18.6852 -1.91278 1.32345 0
M  V30 192 C 19.6792 -1.68051 0.213331 0
M  V30 193 O 20.8852 -1.75922 0.38098 0
M  V30 194 H 17.2602 -0.628909 0.412283 0
M  V30 195 H 19.2312 -1.92355 2.28127 0
M  V30 196 C 17.9802 -3.28455 1.14073 0
M  V30 197 H 17.3032 -3.46901 1.98746 0
M  V30 198 H 18.7432 -4.08152 1.14837 0
M  V30 199 C 17.2022 -3.36548 -0.154015 0
M  V30 200 O 17.7322 -3.85186 -1.13993 0
M  V30 201 N 15.9382 -2.89894 -0.202475 0
M  V30 202 H 15.4852 -2.50504 0.600476 0
M  V30 203 H 15.4432 -2.9569 -1.06841 0
M  V30 204 N 19.2153 -1.21501 -1.00376 0
M  V30 205 C 20.1473 -0.933174 -2.09343 0
M  V30 206 C 21.1603 0.0840896 -1.62583 0
M  V30 207 O 22.3493 -0.148563 -1.77881 0
M  V30 208 C 19.4493 -0.379869 -3.36764 0
M  V30 209 C 18.6223 -1.45176 -4.12605 0
M  V30 210 C 17.6813 -0.907476 -5.18316 0
M  V30 211 O 16.7073 -1.5912 -5.46507 0
M  V30 212 N 17.9093 0.276649 -5.7984 0
M  V30 213 H 20.6743 -1.87124 -2.34104 0
M  V30 214 H 18.2353 -1.12043 -1.16867 0
M  V30 215 H 20.2273 -0.00131488 -4.047 0
M  V30 216 H 18.7973 0.463048 -3.09151 0
M  V30 217 H 18.0173 -2.00411 -3.39454 0
M  V30 218 H 19.3053 -2.17328 -4.6005 0
M  V30 219 H 18.7033 0.849147 -5.59291 0
M  V30 220 H 17.2603 0.596702 -6.49063 0
M  V30 221 N 20.6934 1.19889 -1.02296 0
M  V30 222 C 21.9184 1.9393 -0.735237 0
M  V30 223 C 22.3434 1.74639 0.698782 0
M  V30 224 O 21.7014 1.04481 1.48167 0
M  V30 225 C 21.7494 3.43916 -1.08417 0
M  V30 226 O 20.8534 4.11917 -0.199446 0
M  V30 227 H 20.1944 0.605645 -0.272196 0
M  V30 228 H 22.7244 1.52137 -1.36804 0
M  V30 229 H 22.7344 3.9456 -1.03856 0
M  V30 230 H 21.4094 3.5728 -2.12894 0
M  V30 231 H 19.9864 3.71666 -0.303136 0
M  V30 232 N 22.1715 0.800033 1.35784 0
M  V30 233 C 23.1015 0.220184 2.3246 0
M  V30 234 C 24.0825 -0.65073 1.57161 0
M  V30 235 O 25.2675 -0.582359 1.85263 0
M  V30 236 C 22.3975 -0.637353 3.41402 0
M  V30 237 C 21.3515 0.134531 4.27789 0
M  V30 238 C 20.6775 -0.844285 5.27992 0
M  V30 239 C 21.9775 1.32979 5.05088 0
M  V30 240 H 23.6715 1.02787 2.81203 0
M  V30 241 H 21.2175 0.495717 1.35199 0
M  V30 242 H 23.1705 -1.05302 4.08031 0
M  V30 243 H 21.8945 -1.47785 2.91251 0
M  V30 244 H 20.5535 0.531296 3.6273 0
M  V30 245 H 20.2015 -1.68011 4.74111 0
M  V30 246 H 19.9015 -0.332184 5.8666 0
M  V30 247 H 21.4255 -1.2583 5.97494 0
M  V30 248 H 22.8395 0.98934 5.64699 0
M  V30 249 H 21.2365 1.77593 5.7322 0
M  V30 250 H 22.3065 2.11978 4.36111 0
M  V30 251 N 23.6496 -1.47581 0.552962 0
M  V30 252 C 24.6126 -2.28439 -0.186605 0
M  V30 253 C 25.6126 -1.36706 -0.84665 0
M  V30 254 O 26.8026 -1.59378 -0.703164 0
M  V30 255 C 23.9346 -3.16264 -1.2724 0
M  V30 256 H 25.1276 -2.95294 0.523609 0
M  V30 257 H 22.6806 -1.532 0.309745 0
M  V30 258 H 23.4156 -2.54091 -2.01514 0
M  V30 259 H 23.2006 -3.83769 -0.803968 0
M  V30 260 H 24.6906 -3.77198 -1.79196 0
M  V30 261 N 25.1277 -0.289203 -1.54924 0
M  V30 262 C 26.0377 0.601863 -2.26748 0
M  V30 263 C 27.0537 1.15834 -1.2984 0
M  V30 264 O 28.2297 1.18564 -1.62802 0
M  V30 265 C 25.2947 1.76299 -2.98529 0
M  V30 266 C 24.3557 1.24178 -4.10948 0
M  V30 267 C 23.5887 2.34757 -4.79296 0
M  V30 268 O 23.8117 3.54411 -4.46933 0
M  V30 269 O 22.7457 2.02115 -5.66951 0
M  V30 270 H 26.5717 0.0195879 -3.03694 0
M  V30 271 H 24.1567 -0.0560868 -1.49295 0
M  V30 272 H 26.0387 2.43973 -3.43592 0
M  V30 273 H 24.7137 2.33209 -2.24488 0
M  V30 274 H 23.6207 0.531104 -3.70311 0
M  V30 275 H 24.9537 0.718252 -4.86931 0
M  V30 276 N 26.6058 1.57591 -0.0167156 0
M  V30 277 C 27.8518 1.91567 0.665582 0
M  V30 278 C 28.1848 0.892298 1.72487 0
M  V30 279 O 27.4598 -0.0867127 1.94307 0
M  V30 280 C 27.7428 3.36069 1.29342 0
M  V30 281 C 27.5958 4.49135 0.244541 0
M  V30 282 C 28.9148 3.803 2.21495 0
M  V30 283 H 26.0338 0.69666 0.240488 0
M  V30 284 H 28.6758 1.89866 -0.0714356 0
M  V30 285 H 26.8258 3.3765 1.92158 0
M  V30 286 H 28.4978 4.59689 -0.385228 0
M  V30 287 H 26.7408 4.3165 -0.431379 0
M  V30 288 H 27.4118 5.47242 0.723207 0
M  V30 289 H 29.8878 3.80377 1.68678 0
M  V30 290 H 28.7638 4.82127 2.62382 0
M  V30 291 H 29.0248 3.15104 3.101 0
M  V30 292 N 28.0839 -0.256276 1.55502 0
M  V30 293 C 29.0159 -1.33981 1.85962 0
M  V30 294 C 30.0289 -1.44743 0.745212 0
M  V30 295 O 31.2179 -1.4626 1.02324 0
M  V30 296 C 28.3179 -2.7194 2.02242 0
M  V30 297 C 27.4909 -2.83562 3.33033 0
M  V30 298 C 26.5499 -4.02304 3.39172 0
M  V30 299 O 25.5759 -3.92273 4.12444 0
M  V30 300 N 26.7779 -5.15045 2.67784 0
M  V30 301 H 29.5429 -1.08191 2.7949 0
M  V30 302 H 27.1039 -0.446388 1.55624 0
M  V30 303 H 29.0959 -3.49697 2.03701 0
M  V30 304 H 27.6659 -2.90479 1.15502 0
M  V30 305 H 26.8859 -1.92555 3.43971 0
M  V30 306 H 28.1739 -2.88271 4.19258 0
M  V30 307 H 27.5719 -5.26085 2.07968 0
M  V30 308 H 26.1289 -5.90972 2.74947 0
M  V30 309 N 29.562 -1.4872 -0.521534 0
M  V30 310 C 30.81 -1.56857 -1.27437 0
M  V30 311 C 31.131 -0.247982 -1.93417 0
M  V30 312 O 30.401 0.731151 -1.81744 0
M  V30 313 H 28.981 -0.577885 -0.473347 0
M  V30 314 H 31.643 -1.85233 -0.606205 0
M  V30 315 H 30.739 -2.35402 -2.0492 0
M  V30 316 N 31.0401 0.771051 -1.3745 0
M  V30 317 C 31.9721 1.89352 -1.29146 0
M  V30 318 C 32.9851 1.61477 -0.207124 0
M  V30 319 O 34.1741 1.72382 -0.463324 0
M  V30 320 C 31.2741 3.24596 -0.974195 0
M  V30 321 C 30.4471 3.80111 -2.16413 0
M  V30 322 C 29.5061 4.93832 -1.81703 0
M  V30 323 O 28.5321 5.09382 -2.54006 0
M  V30 324 N 29.7341 5.75483 -0.761573 0
M  V30 325 H 32.4991 1.96991 -2.25864 0
M  V30 326 H 30.0601 0.950191 -1.31084 0
M  V30 327 H 32.0521 3.98193 -0.722828 0
M  V30 328 H 30.6221 3.12454 -0.0955527 0
M  V30 329 H 29.8421 2.98284 -2.57721 0
M  V30 330 H 31.1301 4.13932 -2.95867 0
M  V30 331 H 30.5281 5.65469 -0.161609 0
M  V30 332 H 29.0851 6.49302 -0.570064 0
M  V30 333 N 32.5182 1.22032 0.997298 0
M  V30 334 C 33.7672 1.03637 1.73038 0
M  V30 335 C 34.0802 -0.429475 1.90827 0
M  V30 336 O 35.2862 -0.732995 2.61418 0
M  V30 337 C 33.7422 1.80582 3.11317 0
M  V30 338 C 33.3502 3.31387 3.01474 0
M  V30 339 C 35.0942 1.70621 3.88701 0
M  V30 340 C 33.0012 4.00791 4.3488 0
M  V30 341 H 31.9312 0.384179 0.648785 0
M  V30 342 H 34.5822 1.4584 1.11368 0
M  V30 343 H 32.9642 1.31175 3.73643 0
M  V30 344 H 34.1382 3.88155 2.4834 0
M  V30 345 H 32.4532 3.41976 2.37575 0
M  V30 346 H 35.0502 2.19799 4.87434 0
M  V30 347 H 35.3932 0.665823 4.10941 0
M  V30 348 H 35.9262 2.17547 3.33044 0
M  V30 349 H 32.6652 5.05064 4.1784 0
M  V30 350 H 32.1852 3.48811 4.87945 0
M  V30 351 H 33.8642 4.06139 5.03647 0
M  V30 352 N 33.9963 -1.19345 1.0293 0
M  V30 353 C 34.9443 -2.24621 0.604001 0
M  V30 354 C 35.9383 -1.65452 -0.363587 0
M  V30 355 O 37.1443 -1.78497 -0.23212 0
M  V30 356 H 33.5193 -0.730858 0.177061 0
M  V30 357 H 35.4903 -2.5781 1.50255 0
M  V30 358 C 34.2393 -3.47688 -0.0289127 0
M  V30 359 H 33.5623 -3.93505 0.706651 0
M  V30 360 H 35.0023 -4.23011 -0.289432 0
M  V30 361 C 33.4613 -3.11817 -1.2756 0
M  V30 362 O 33.9913 -3.2451 -2.36762 0
M  V30 363 N 32.1973 -2.66246 -1.16453 0
M  V30 364 H 31.7443 -2.56118 -0.275914 0
M  V30 365 H 31.7023 -2.42617 -1.99961 0
M  V30 366 N 35.4744 -0.807222 -1.35358 0
M  V30 367 C 36.7204 -0.388463 -1.99045 0
M  V30 368 C 37.0534 1.04184 -1.63888 0
M  V30 369 O 36.3284 1.72292 -0.902535 0
M  V30 370 C 36.6114 -0.572783 -3.55515 0
M  V30 371 C 36.4644 -2.04807 -4.00468 0
M  V30 372 C 37.7834 0.00114064 -4.401 0
M  V30 373 H 34.9024 -0.142619 -0.723069 0
M  V30 374 H 37.5444 -1.01687 -1.60498 0
M  V30 375 H 35.6944 -0.0378425 -3.88482 0
M  V30 376 H 37.3664 -2.64544 -3.77908 0
M  V30 377 H 35.6094 -2.54427 -3.51353 0
M  V30 378 H 36.2804 -2.12792 -5.09337 0
M  V30 379 H 38.7564 -0.455716 -4.13597 0
M  V30 380 H 37.6324 -0.157737 -5.48673 0
M  V30 381 H 37.8934 1.09488 -4.28328 0
M  V30 382 N 36.9525 1.47285 -0.560781 0
M  V30 383 C 38.1775 2.07359 -0.0410566 0
M  V30 384 C 38.6025 1.41017 1.24483 0
M  V30 385 O 37.9605 0.486368 1.74654 0
M  V30 386 C 38.0085 3.6035 0.134123 0
M  V30 387 O 37.1125 3.94681 1.19587 0
M  V30 388 H 36.4535 0.661887 -0.0529291 0
M  V30 389 H 38.9835 1.89252 -0.777482 0
M  V30 390 H 38.9935 4.0652 0.347207 0
M  V30 391 H 37.6685 4.08034 -0.805047 0
M  V30 392 H 36.2455 3.60251 0.962987 0
M  V30 393 N 38.4306 0.297415 1.54768 0
M  V30 394 C 39.6776 -0.312913 2.00068 0
M  V30 395 C 40.0056 -1.54171 1.18582 0
M  V30 396 O 39.2606 -1.94108 0.249133 0
M  V30 397 C 39.5596 -0.717561 3.50123 0
M  V30 398 C 39.2256 0.409095 4.4904 0
M  V30 399 C 37.8876 0.718399 4.75807 0
M  V30 400 C 40.2396 1.16717 5.07963 0
M  V30 401 C 37.5676 1.78896 5.5876 0
M  V30 402 C 39.9196 2.22762 5.92081 0
M  V30 403 C 38.5836 2.54303 6.1716 0
M  V30 404 H 37.8536 -0.114503 0.7321 0
M  V30 405 H 40.5006 0.415767 1.86932 0
M  V30 406 H 38.8056 -1.52627 3.60849 0
M  V30 407 H 40.5026 -1.20091 3.82595 0
M  V30 408 H 37.0926 0.157918 4.28309 0
M  V30 409 H 41.2766 0.941466 4.87289 0
M  V30 410 H 36.5326 2.0381 5.7643 0
M  V30 411 H 40.7066 2.81962 6.36765 0
M  V30 412 H 38.3336 3.3739 6.81229 0
M  V30 413 N 39.9087 -1.5758 0.0250728 0
M  V30 414 C 40.8187 -2.1343 -0.973905 0
M  V30 415 C 41.8347 -1.08556 -1.35984 0
M  V30 416 O 43.0107 -1.40592 -1.44207 0
M  V30 417 C 40.0757 -2.64703 -2.23904 0
M  V30 418 C 39.1367 -3.84276 -1.91391 0
M  V30 419 C 38.3697 -4.33095 -3.11873 0
M  V30 420 O 38.5927 -3.81107 -4.24398 0
M  V30 421 O 37.5267 -5.24984 -2.94406 0
M  V30 422 H 41.3527 -2.99057 -0.529036 0
M  V30 423 H 38.9377 -1.48118 -0.195288 0
M  V30 424 H 40.8197 -2.97769 -2.98181 0
M  V30 425 H 39.4947 -1.82161 -2.6758 0
M  V30 426 H 38.4017 -3.56143 -1.14511 0
M  V30 427 H 39.7347 -4.67968 -1.52534 0
M  V30 428 N 41.3868 0.248026 -1.55636 0
M  V30 429 C 42.6338 0.976224 -1.77415 0
M  V30 430 C 42.9618 1.85361 -0.589193 0
M  V30 431 O 42.2168 1.90973 0.427529 0
M  V30 432 C 42.5158 1.86819 -3.04686 0
M  V30 433 C 42.1818 1.14625 -4.36087 0
M  V30 434 C 40.8438 0.946723 -4.71795 0
M  V30 435 C 43.1958 0.634463 -5.17324 0
M  V30 436 C 40.5238 0.223091 -5.86276 0
M  V30 437 C 42.8758 -0.0756959 -6.32555 0
M  V30 438 C 41.5398 -0.286711 -6.66884 0
M  V30 439 H 40.8098 0.357226 -0.649208 0
M  V30 440 H 43.4568 0.246415 -1.89908 0
M  V30 441 H 41.7618 2.66502 -2.872 0
M  V30 442 H 43.4588 2.43329 -3.18735 0
M  V30 443 H 40.0488 1.3117 -4.08035 0
M  V30 444 H 44.2328 0.77616 -4.90193 0
M  V30 445 H 39.4888 0.0491185 -6.1138 0
M  V30 446 H 43.6628 -0.479899 -6.94745 0
M  V30 447 H 41.2898 -0.849389 -7.5544 0
M  V30 448 N 42.8649 1.48995 0.513639 0
M  V30 449 C 44.1119 1.57843 1.26854 0
M  V30 450 C 44.4399 0.259501 1.92761 0
M  V30 451 O 43.6949 -0.75159 1.80692 0
M  V30 452 C 43.9939 2.67756 2.36731 0
M  V30 453 C 43.6599 4.09669 1.88368 0
M  V30 454 C 42.3219 4.48291 1.74896 0
M  V30 455 C 44.6739 4.98537 1.52021 0
M  V30 456 C 42.0019 5.73568 1.23438 0
M  V30 457 C 44.3539 6.24319 1.0202 0
M  V30 458 C 43.0179 6.61783 0.871778 0
M  V30 459 H 42.2879 0.577587 0.464192 0
M  V30 460 H 44.9349 1.82778 0.571366 0
M  V30 461 H 43.2399 2.36743 3.12185 0
M  V30 462 H 44.9369 2.71813 2.9482 0
M  V30 463 H 41.5269 3.79176 1.99808 0
M  V30 464 H 45.7109 4.69363 1.61281 0
M  V30 465 H 40.9669 6.01304 1.10648 0
M  V30 466 H 45.1409 6.92566 0.729722 0
M  V30 467 H 42.7679 7.5874 0.470852 0
M  V30 468 N 44.343 -0.763751 1.37857 0
M  V30 469 C 45.754 -1.3405 1.29952 0
M  V30 470 C 46.105 -1.96138 -0.0492898 0
M  V30 471 O 45.23 -1.94372 -0.951239 0
M  V30 472 C 45.825 -2.43729 2.35333 0
M  V30 473 C 44.384 -2.97151 2.31037 0
M  V30 474 C 43.531 -1.70438 2.18738 0
M  V30 475 H 46.482 -0.563396 1.48363 0
M  V30 476 H 46.503 -3.23412 2.00462 0
M  V30 477 H 46.015 -1.9851 3.33489 0
M  V30 478 H 44.116 -3.46724 1.3643 0
M  V30 479 H 44.229 -3.52221 3.24772 0
M  V30 480 H 42.593 -1.93673 1.65418 0
M  V30 481 H 43.376 -1.27312 3.18821 0
M  V30 482 N 45.8211 -1.22559 -0.990812 0
M  V30 483 C 47.2321 -1.04791 -1.54518 0
M  V30 484 C 47.5831 0.387998 -1.92325 0
M  V30 485 O 46.7081 1.27328 -1.74976 0
M  V30 486 C 47.3031 -1.896 -2.80779 0
M  V30 487 C 45.8621 -1.76124 -3.32652 0
M  V30 488 C 45.0091 -1.8594 -2.05722 0
M  V30 489 H 47.9601 -1.36374 -0.811662 0
M  V30 490 H 47.9811 -1.41464 -3.53225 0
M  V30 491 H 47.4931 -2.94101 -2.53231 0
M  V30 492 H 45.5941 -0.743643 -3.65104 0
M  V30 493 H 45.7071 -2.58913 -4.03114 0
M  V30 494 H 44.0711 -1.29403 -2.19379 0
M  V30 495 H 44.8541 -2.91976 -1.80568 0
M  V30 496 N 47.2992 1.18797 -1.03562 0
M  V30 497 C 48.7152 1.40671 -0.753917 0
M  V30 498 C 48.9152 1.9043 0.658686 0
M  V30 499 O 47.9712 2.08538 1.42366 0
M  V30 500 C 49.2842 2.41192 -1.79574 0
M  V30 501 C 50.8322 2.54928 -1.81606 0
M  V30 502 C 51.3072 3.58709 -2.84766 0
M  V30 503 N 52.7982 3.66212 -2.83625 0
M  V30 504 C 53.5332 4.46225 -3.60098 0
M  V30 505 N 53.0292 5.29888 -4.46308 0
M  V30 506 N 54.8222 4.40939 -3.4861 0
M  V30 507 H 46.9732 0.848221 -1.94728 0
M  V30 508 H 49.2362 0.435081 -0.842264 0
M  V30 509 H 48.9422 2.11669 -2.80872 0
M  V30 510 H 48.8162 3.40467 -1.62365 0
M  V30 511 H 51.2032 2.83771 -0.809817 0
M  V30 512 H 51.2842 1.55784 -2.02891 0
M  V30 513 H 50.9282 3.30607 -3.85566 0
M  V30 514 H 50.8582 4.57519 -2.60737 0
M  V30 515 H 53.3492 3.06466 -2.21105 0
M  V30 516 H 53.6622 5.88078 -5.01382 0
M  V30 517 H 52.0072 5.29326 -4.50377 0
M  V30 518 H 55.1982 3.74624 -2.80668 0
M  V30 519 H 55.3712 5.03056 -4.08459 0
M  V30 520 N 48.7773 0.814389 1.34928 0
M  V30 521 C 50.0053 0.411136 2.02774 0
M  V30 522 C 50.4203 -0.980316 1.61354 0
M  V30 523 O 49.7773 -1.63299 0.814847 0
M  V30 524 C 49.8283 0.493865 3.58111 0
M  V30 525 O 49.5493 1.83047 3.98027 0
M  V30 526 C 51.0503 0.0844174 4.4322 0
M  V30 527 H 48.2703 0.166037 0.650133 0
M  V30 528 H 50.8143 1.10018 1.72384 0
M  V30 529 H 48.9693 -0.147006 3.87121 0
M  V30 530 H 49.3833 1.79872 4.92693 0
M  V30 531 H 50.8573 0.193404 5.51661 0
M  V30 532 H 51.3343 -0.97113 4.28329 0
M  V30 533 H 51.9403 0.69875 4.19521 0
M  V30 534 N 50.2554 -1.46986 0.568584 0
M  V30 535 C 51.4804 -2.07335 0.0520528 0
M  V30 536 C 51.9054 -1.41675 -1.23733 0
M  V30 537 O 51.2634 -0.495623 -1.74394 0
M  V30 538 C 51.3114 -3.60417 -0.11501 0
M  V30 539 O 50.4154 -3.95309 -1.17492 0
M  V30 540 H 49.7564 -0.661597 0.0564385 0
M  V30 541 H 52.2864 -1.88837 0.787507 0
M  V30 542 H 52.2964 -4.06698 -0.325644 0
M  V30 543 H 50.9714 -4.07601 0.826675 0
M  V30 544 H 49.5484 -3.60757 -0.943869 0
M  V30 545 N 51.7335 -0.305618 -1.54608 0
M  V30 546 C 52.6435 0.57778 -2.27374 0
M  V30 547 C 53.6595 1.14451 -1.31061 0
M  V30 548 O 54.8355 1.16831 -1.6405 0
M  V30 549 C 51.9005 1.73123 -3.00382 0
M  V30 550 C 50.9615 1.19812 -4.12242 0
M  V30 551 C 50.1945 2.2966 -4.81759 0
M  V30 552 O 50.4175 3.49651 -4.50666 0
M  V30 553 O 49.3515 1.96091 -5.69062 0
M  V30 554 H 53.1775 -0.012624 -3.03697 0
M  V30 555 H 50.7625 -0.0719184 -1.49227 0
M  V30 556 H 52.6445 2.40315 -3.4616 0
M  V30 557 H 51.3195 2.30815 -2.26949 0
M  V30 558 H 50.2265 0.491798 -3.70853 0
M  V30 559 H 51.5595 0.666566 -4.87666 0
M  V30 560 N 53.2116 1.57565 -0.0334293 0
M  V30 561 C 54.1446 2.05997 0.981866 0
M  V30 562 C 55.1226 0.956647 1.3148 0
M  V30 563 O 56.3066 1.22729 1.43073 0
M  V30 564 C 53.4336 2.48564 2.30074 0
M  V30 565 C 52.4796 3.69958 2.12211 0
M  V30 566 S 53.3126 5.16414 1.41692 0
M  V30 567 C 54.4686 5.6228 2.7494 0
M  V30 568 H 54.7016 2.91792 0.569612 0
M  V30 569 H 52.2346 1.53366 0.178376 0
M  V30 570 H 54.1926 2.73753 3.05892 0
M  V30 571 H 52.8536 1.63106 2.68431 0
M  V30 572 H 52.0466 3.97603 3.09722 0
M  V30 573 H 51.6486 3.44943 1.44535 0
M  V30 574 H 53.9406 5.66783 3.71165 0
M  V30 575 H 54.8836 6.61759 2.51953 0
M  V30 576 H 55.2916 4.89944 2.80384 0
M  V30 577 N 54.6897 -0.239769 1.55765 0
M  V30 578 C 55.5997 -1.31831 1.94056 0
M  V30 579 C 56.6157 -1.52275 0.841925 0
M  V30 580 O 57.7917 -1.65759 1.14394 0
M  V30 581 C 54.8567 -2.65156 2.23368 0
M  V30 582 C 53.9177 -2.53173 3.46701 0
M  V30 583 C 53.1507 -3.8014 3.74606 0
M  V30 584 O 53.3737 -4.82343 3.04469 0
M  V30 585 O 52.3077 -3.78344 4.68123 0
M  V30 586 H 56.1337 -1.02347 2.85935 0
M  V30 587 H 53.7187 -0.441123 1.42739 0
M  V30 588 H 55.6007 -3.43929 2.43497 0
M  V30 589 H 54.2757 -2.94358 1.34666 0
M  V30 590 H 53.1827 -1.72662 3.31871 0
M  V30 591 H 54.5157 -2.28915 4.35728 0
M  V30 592 N 56.1678 -1.49265 -0.50573 0
M  V30 593 C 57.0998 -1.617 -1.62437 0
M  V30 594 C 58.1128 -0.499924 -1.54934 0
M  V30 595 O 59.3018 -0.771785 -1.60953 0
M  V30 596 C 56.4018 -1.5533 -3.01207 0
M  V30 597 C 55.5748 -2.8249 -3.33943 0
M  V30 598 C 54.6338 -2.69238 -4.52103 0
M  V30 599 O 53.6598 -3.43167 -4.5412 0
M  V30 600 N 54.8618 -1.80468 -5.51735 0
M  V30 601 H 57.6268 -2.58177 -1.52199 0
M  V30 602 H 55.1878 -1.46294 -0.693511 0
M  V30 603 H 57.1798 -1.44125 -3.78167 0
M  V30 604 H 55.7498 -0.667297 -3.05395 0
M  V30 605 H 54.9698 -3.08081 -2.45926 0
M  V30 606 H 56.2578 -3.66802 -3.5261 0
M  V30 607 H 55.6558 -1.19653 -5.52901 0
M  V30 608 H 54.2128 -1.75188 -6.27816 0
M  V30 609 N 57.6459 0.756429 -1.3826 0
M  V30 610 C 58.8739 1.54565 -1.3754 0
M  V30 611 C 59.2889 1.88767 0.0355331 0
M  V30 612 O 58.6459 1.52572 1.0014 0
M  V30 613 C 58.6969 2.84654 -2.22833 0
M  V30 614 O 58.4179 2.51912 -3.5843 0
M  V30 615 C 59.9189 3.78807 -2.30261 0
M  V30 616 H 57.1389 0.478353 -0.470553 0
M  V30 617 H 59.6829 0.936381 -1.81803 0
M  V30 618 H 57.8379 3.41965 -1.8204 0
M  V30 619 H 58.2519 3.35325 -4.03308 0
M  V30 620 H 59.7259 4.67045 -2.94233 0
M  V30 621 H 60.2029 4.19038 -1.31545 0
M  V30 622 H 60.8089 3.2742 -2.71433 0
M  V30 623 N 59.124 1.23083 0.984299 0
M  V30 624 C 60.054 1.03292 2.09411 0
M  V30 625 C 61.035 -0.048923 1.7003 0
M  V30 626 O 62.22 0.114967 1.93859 0
M  V30 627 C 59.35 0.619155 3.41736 0
M  V30 628 C 58.304 1.64791 3.95004 0
M  V30 629 C 57.63 1.0897 5.23478 0
M  V30 630 C 58.93 3.03999 4.24714 0
M  V30 631 H 60.624 1.96119 2.26225 0
M  V30 632 H 58.17 0.944344 1.08711 0
M  V30 633 H 60.123 0.467777 4.18796 0
M  V30 634 H 58.847 -0.344786 3.24775 0
M  V30 635 H 57.506 1.78721 3.20085 0
M  V30 636 H 57.154 0.11686 5.02864 0
M  V30 637 H 56.854 1.77704 5.60085 0
M  V30 638 H 58.378 0.950093 6.03163 0
M  V30 639 H 59.792 2.93393 4.92538 0
M  V30 640 H 58.189 3.69936 4.72512 0
M  V30 641 H 59.259 3.53285 3.32142 0
M  V30 642 N 60.6021 -1.18246 1.0419 0
M  V30 643 C 61.8481 -1.88793 0.75689 0
M  V30 644 C 62.2031 -1.78909 -0.707767 0
M  V30 645 O 61.4961 -1.1794 -1.50999 0
M  V30 646 C 61.6901 -3.38082 1.15911 0
M  V30 647 C 61.5191 -3.62496 2.66133 0
M  V30 648 C 60.2891 -3.7979 3.33298 0
M  V30 649 C 62.4871 -3.62976 3.64353 0
M  V30 650 N 60.4691 -3.91955 4.72487 0
M  V30 651 C 61.8401 -3.80869 4.89222 0
M  V30 652 C 63.8951 -3.46071 3.57965 0
M  V30 653 C 62.5981 -3.83608 6.08471 0
M  V30 654 C 64.6241 -3.50093 4.76643 0
M  V30 655 C 63.9861 -3.68484 6.00332 0
M  V30 656 H 60.0851 -0.709406 0.32904 0
M  V30 657 H 62.6691 -1.42022 1.33183 0
M  V30 658 H 60.8401 -3.83544 0.612238 0
M  V30 659 H 62.5721 -3.96202 0.824989 0
M  V30 660 H 59.3271 -3.79224 2.83701 0
M  V30 661 H 59.7511 -4.01857 5.44831 0
M  V30 662 H 64.3931 -3.30797 2.63311 0
M  V30 663 H 62.1111 -3.97669 7.0348 0
M  V30 664 H 65.6971 -3.38285 4.73344 0
M  V30 665 H 64.5771 -3.71488 6.90627 0
M  V30 666 N 62.0802 -0.821533 -1.34494 0
M  V30 667 C 63.0282 -0.230702 -2.31453 0
M  V30 668 C 64.0222 0.627793 -1.57338 0
M  V30 669 O 65.2282 0.519288 -1.72347 0
M  V30 670 H 61.6032 -0.0558577 -0.749923 0
M  V30 671 H 63.5742 -1.06332 -2.78812 0
M  V30 672 C 62.3232 0.59391 -3.4259 0
M  V30 673 H 61.6462 -0.0573588 -3.99759 0
M  V30 674 H 63.0862 0.973446 -4.12674 0
M  V30 675 C 61.5452 1.76568 -2.86924 0
M  V30 676 O 62.0752 2.8638 -2.81691 0
M  V30 677 N 60.2812 1.58198 -2.43766 0
M  V30 678 H 59.8282 0.68872 -2.48222 0
M  V30 679 H 59.7862 2.36752 -2.06871 0
M  V30 680 N 63.5583 1.46682 -0.576371 0
M  V30 681 C 64.7833 2.07304 -0.0630475 0
M  V30 682 C 65.2083 1.42329 1.2298 0
M  V30 683 O 64.5663 0.504865 1.74129 0
M  V30 684 C 64.6143 3.60472 0.095895 0
M  V30 685 O 63.7183 3.95927 1.15394 0
M  V30 686 H 63.0593 0.661288 -0.0599463 0
M  V30 687 H 65.5893 1.88417 -0.797511 0
M  V30 688 H 65.5993 4.06865 0.304071 0
M  V30 689 H 64.2743 4.07157 -0.84828 0
M  V30 690 H 62.8513 3.61252 0.924724 0
M  V30 691 N 65.0364 0.313813 1.54444 0
M  V30 692 C 66.2854 -0.292519 1.99568 0
M  V30 693 C 66.5984 -1.54011 1.20582 0
M  V30 694 O 67.8044 -2.22183 1.56035 0
M  V30 695 C 66.2604 -0.571752 3.55329 0
M  V30 696 C 65.8684 0.658229 4.43138 0
M  V30 697 C 67.6124 -1.13857 4.08946 0
M  V30 698 C 65.5194 0.351439 5.90355 0
M  V30 699 H 64.4494 -0.113079 0.745472 0
M  V30 700 H 67.1004 0.424518 1.78522 0
M  V30 701 H 65.4824 -1.34872 3.72325 0
M  V30 702 H 66.6564 1.43403 4.37918 0
M  V30 703 H 64.9714 1.14458 4.0036 0
M  V30 704 H 67.5684 -1.38257 5.16516 0
M  V30 705 H 67.9114 -2.08489 3.6033 0
M  V30 706 H 68.4444 -0.423015 3.95544 0
M  V30 707 H 65.1834 1.26667 6.43145 0
M  V30 708 H 64.7034 -0.386842 5.98551 0
M  V30 709 H 66.3824 -0.0423134 6.46986 0
M  V30 710 N 66.5145 -1.57545 0.0417849 0
M  V30 711 C 67.7915 -1.83642 -0.673433 0
M  V30 712 C 68.1715 -0.928298 -1.89594 0
M  V30 713 O 67.5195 0.0129955 -2.28496 0
M  V30 714 C 67.7295 -3.33155 -1.03964 0
M  V30 715 C 69.0775 -3.99941 -1.42592 0
M  V30 716 O 70.1015 -3.37725 -1.13226 0
M  V30 717 O 68.9605 -5.09619 -1.9736 0
M  V30 718 H 66.0545 -0.757638 -0.331533 0
M  V30 719 H 68.6005 -1.69554 0.070433 0
M  V30 720 H 67.3725 -3.9093 -0.170098 0
M  V30 721 H 66.9955 -3.52396 -1.84126 0
M  V30 722 N 67.9926 0.231505 -1.5589 0
M  V30 723 C 69.4086 0.580748 -1.48659 0
M  V30 724 C 69.6086 1.87617 -0.73498 0
M  V30 725 O 68.6646 2.51046 -0.270586 0
M  V30 726 C 69.9776 0.669202 -2.93159 0
M  V30 727 C 71.5256 0.760499 -3.03621 0
M  V30 728 C 72.0006 0.880383 -4.49459 0
M  V30 729 N 73.4916 0.944861 -4.53461 0
M  V30 730 C 74.2266 1.05716 -5.63571 0
M  V30 731 N 73.7226 1.13403 -6.83456 0
M  V30 732 N 75.5156 1.09152 -5.514 0
M  V30 733 H 67.6666 -0.618695 -2.03189 0
M  V30 734 H 69.9296 -0.215728 -0.923128 0
M  V30 735 H 69.6356 -0.212904 -3.51055 0
M  V30 736 H 69.5096 1.5361 -3.44505 0
M  V30 737 H 71.8966 1.63305 -2.45796 0
M  V30 738 H 71.9776 -0.131864 -2.5546 0
M  V30 739 H 71.6216 0.0123284 -5.07899 0
M  V30 740 H 71.5516 1.78802 -4.95316 0
M  V30 741 H 74.0426 0.896176 -3.6712 0
M  V30 742 H 74.3556 1.21921 -7.63122 0
M  V30 743 H 72.7006 1.10333 -6.86186 0
M  V30 744 H 75.8916 1.02805 -4.56671 0
M  V30 745 H 76.0646 1.17558 -6.37247 0
M  V30 746 N 69.4707 1.49531 0.497807 0
M  V30 747 C 70.4007 1.6935 1.60757 0
M  V30 748 C 71.3817 0.542218 1.61227 0
M  V30 749 O 72.5667 0.778417 1.77917 0
M  V30 750 C 69.6967 1.76298 2.99226 0
M  V30 751 C 68.6507 2.91248 3.13622 0
M  V30 752 C 67.9767 2.83312 4.53474 0
M  V30 753 C 69.2767 4.3214 2.93346 0
M  V30 754 H 70.9707 2.62263 1.44425 0
M  V30 755 H 68.5167 1.26208 0.693367 0
M  V30 756 H 70.4697 1.88749 3.76765 0
M  V30 757 H 69.1937 0.799871 3.16654 0
M  V30 758 H 67.8527 2.78404 2.38509 0
M  V30 759 H 67.5007 1.84902 4.67782 0
M  V30 760 H 67.2007 3.60465 4.64046 0
M  V30 761 H 68.7247 2.97775 5.33069 0
M  V30 762 H 70.1387 4.45649 3.60652 0
M  V30 763 H 68.5357 5.1054 3.15387 0
M  V30 764 H 69.6057 4.46363 1.89441 0
M  V30 765 N 70.9488 -0.749086 1.3866 0
M  V30 766 C 72.1738 -1.54344 1.38538 0
M  V30 767 C 72.5988 -1.88088 -0.0216655 0
M  V30 768 O 71.9568 -1.50899 -1.00494 0
M  V30 769 C 72.0048 -2.8164 2.25192 0
M  V30 770 O 71.1088 -3.7698 1.67212 0
M  V30 771 H 70.4498 -0.466654 0.472367 0
M  V30 772 H 72.9798 -0.925355 1.82478 0
M  V30 773 H 72.9898 -3.30519 2.3921 0
M  V30 774 H 71.6648 -2.56411 3.27454 0
M  V30 775 H 70.2418 -3.35699 1.6236 0
M  V30 776 N 72.4269 -1.23603 -0.977757 0
M  V30 777 C 73.6519 -1.09735 -1.75991 0
M  V30 778 C 74.0769 0.346858 -1.84874 0
M  V30 779 O 73.4349 1.25093 -1.3123 0
M  V30 780 C 73.4829 -1.73051 -3.16363 0
M  V30 781 O 72.5869 -0.994452 -4.0023 0
M  V30 782 H 71.9279 -0.384476 -0.541364 0
M  V30 783 H 74.4579 -1.6371 -1.2272 0
M  V30 784 H 74.4679 -1.78398 -3.66931 0
M  V30 785 H 73.1429 -2.78137 -3.09213 0
M  V30 786 H 71.7199 -1.01812 -3.58732 0
M  V30 787 N 73.905 1.17692 -1.04816 0
M  V30 788 C 74.835 2.23777 -0.666791 0
M  V30 789 C 75.816 1.66796 0.33361 0
M  V30 790 O 77.001 1.93039 0.212042 0
M  V30 791 C 74.131 3.47281 -0.0367933 0
M  V30 792 C 73.085 4.17059 -0.961546 0
M  V30 793 C 72.411 5.34342 -0.195626 0
M  V30 794 C 73.711 4.69713 -2.28402 0
M  V30 795 H 75.405 2.55933 -1.55367 0
M  V30 796 H 72.951 1.23019 -0.748484 0
M  V30 797 H 74.904 4.20706 0.241775 0
M  V30 798 H 73.628 3.14381 0.885004 0
M  V30 799 H 72.287 3.45541 -1.22462 0
M  V30 800 H 71.935 4.97692 0.728816 0
M  V30 801 H 71.635 5.81966 -0.811775 0
M  V30 802 H 73.159 6.10553 0.0757473 0
M  V30 803 H 74.573 5.34794 -2.06563 0
M  V30 804 H 72.97 5.279 -2.8538 0
M  V30 805 H 74.04 3.86726 -2.92525 0
M  V30 806 N 75.3831 0.828654 1.34056 0
M  V30 807 C 76.3301 0.252567 2.29414 0
M  V30 808 C 77.3001 -0.62588 1.53857 0
M  V30 809 O 78.4851 -0.566312 1.82202 0
M  V30 810 C 75.6251 -0.574831 3.40279 0
M  V30 811 C 74.7381 0.326499 4.30764 0
M  V30 812 C 73.8731 -0.511016 5.28736 0
M  V30 813 C 72.9121 0.389342 6.1086 0
M  V30 814 N 72.0491 -0.409439 7.00905 0
M  V30 815 H 76.8891 1.07108 2.78086 0
M  V30 816 H 74.4261 0.539677 1.36843 0
M  V30 817 H 76.3841 -1.06992 4.03248 0
M  V30 818 H 75.0141 -1.35841 2.92826 0
M  V30 819 H 74.0661 0.939837 3.68607 0
M  V30 820 H 75.3781 1.01857 4.88289 0
M  V30 821 H 74.5321 -1.07035 5.97184 0
M  V30 822 H 73.2711 -1.23657 4.71763 0
M  V30 823 H 72.2761 0.960769 5.4134 0
M  V30 824 H 73.5011 1.1131 6.69916 0
M  V30 825 H 71.4471 -1.11856 6.46393 0
M  V30 826 H 71.3641 0.224126 7.55668 0
M  V30 827 H 72.6321 -0.951336 7.73673 0
M  V30 828 N 76.8612 -1.46375 0.584142 0
M  V30 829 C 78.2722 -1.86031 0.157959 0
M  V30 830 C 78.6232 -1.48753 -1.27933 0
M  V30 831 O 77.7482 -0.903098 -1.96655 0
M  V30 832 C 78.3432 -3.37642 0.279892 0
M  V30 833 C 76.9022 -3.76289 -0.09143 0
M  V30 834 C 76.0492 -2.7039 0.615178 0
M  V30 835 H 79.0002 -1.37509 0.792274 0
M  V30 836 H 79.0212 -3.77275 -0.494364 0
M  V30 837 H 78.5332 -3.64742 1.32607 0
M  V30 838 H 76.6342 -3.54806 -1.13769 0
M  V30 839 H 76.7472 -4.78246 0.285886 0
M  V30 840 H 75.1112 -2.5464 0.0552833 0
M  V30 841 H 75.8942 -3.0033 1.66303 0
M  V30 842 N 78.3393 -0.321999 -1.54275 0
M  V30 843 C 79.2863 0.544664 -2.24281 0
M  V30 844 C 80.2563 1.1129 -1.23303 0
M  V30 845 O 81.4413 1.15354 -1.51981 0
M  V30 846 C 78.5813 1.70045 -3.00298 0
M  V30 847 C 77.6943 1.16159 -4.1609 0
M  V30 848 C 76.8293 2.28293 -4.79641 0
M  V30 849 C 75.8683 1.71648 -5.8754 0
M  V30 850 N 75.0053 2.77438 -6.44959 0
M  V30 851 H 79.8453 -0.0588907 -2.97942 0
M  V30 852 H 77.3823 -0.0408345 -1.47043 0
M  V30 853 H 79.3403 2.38054 -3.42616 0
M  V30 854 H 77.9703 2.27531 -2.28975 0
M  V30 855 H 77.0223 0.373092 -3.78566 0
M  V30 856 H 78.3343 0.707087 -4.93763 0
M  V30 857 H 77.4883 3.0421 -5.2492 0
M  V30 858 H 76.2273 2.77079 -4.01346 0
M  V30 859 H 75.2323 0.942282 -5.41665 0
M  V30 860 H 76.4573 1.23741 -6.67731 0
M  V30 861 H 74.4033 3.25519 -5.69538 0
M  V30 862 H 74.3203 2.36547 -7.1804 0
M  V30 863 H 75.5883 3.53189 -6.94894 0
M  V30 864 N 79.8174 1.5752 -0.0501392 0
M  V30 865 C 81.0644 1.9265 0.623874 0
M  V30 866 C 81.3924 0.928411 1.70912 0
M  V30 867 O 80.6474 -0.0594525 1.9561 0
M  V30 868 C 80.9464 3.34467 1.25963 0
M  V30 869 C 80.6124 4.49883 0.302689 0
M  V30 870 C 79.2744 4.81184 0.0393636 0
M  V30 871 C 81.6264 5.20002 -0.353205 0
M  V30 872 C 78.9544 5.79951 -0.887308 0
M  V30 873 C 81.3064 6.1976 -1.26806 0
M  V30 874 C 79.9704 6.49491 -1.54007 0
M  V30 875 H 79.2404 0.704957 0.228292 0
M  V30 876 H 81.8874 1.91146 -0.116398 0
M  V30 877 H 80.1924 3.32333 2.07514 0
M  V30 878 H 81.8894 3.58928 1.78806 0
M  V30 879 H 78.4794 4.25457 0.518109 0
M  V30 880 H 82.6634 4.96033 -0.162854 0
M  V30 881 H 77.9194 6.01322 -1.10553 0
M  V30 882 H 82.0934 6.73205 -1.78236 0
M  V30 883 H 79.7204 7.25837 -2.25976 0
M  V30 884 N 81.2955 -0.223234 1.56011 0
M  V30 885 C 82.5415 -0.949279 1.79211 0
M  V30 886 C 82.8745 -1.84054 0.619494 0
M  V30 887 O 82.1495 -1.90726 -0.381317 0
M  V30 888 C 82.4325 -1.78965 3.12479 0
M  V30 889 C 82.2855 -0.924997 4.40186 0
M  V30 890 C 83.6045 -2.76774 3.42175 0
M  V30 891 H 80.7235 -0.343676 0.651963 0
M  V30 892 H 83.3655 -0.218253 1.88742 0
M  V30 893 H 81.5155 -2.41291 3.04485 0
M  V30 894 H 83.1875 -0.318615 4.60198 0
M  V30 895 H 81.4305 -0.230344 4.33188 0
M  V30 896 H 82.1015 -1.54735 5.29869 0
M  V30 897 H 84.5775 -2.24584 3.50287 0
M  V30 898 H 83.4535 -3.32678 4.36597 0
M  V30 899 H 83.7145 -3.54429 2.64258 0
M  V30 900 N 82.7736 -1.49793 -0.48987 0
M  V30 901 C 83.9986 -1.63836 -1.27172 0
M  V30 902 C 84.4236 -0.31402 -1.8546 0
M  V30 903 O 83.7816 0.719803 -1.66399 0
M  V30 904 C 83.8296 -2.71797 -2.36978 0
M  V30 905 O 82.9336 -2.31744 -3.41128 0
M  V30 906 H 82.2746 -0.547997 -0.37496 0
M  V30 907 H 84.8046 -1.96053 -0.585191 0
M  V30 908 H 84.8146 -2.94305 -2.82575 0
M  V30 909 H 83.4896 -3.67923 -1.93921 0
M  V30 910 H 82.0666 -2.1961 -3.01373 0
M  V30 911 N 84.2517 0.741722 -1.39055 0
M  V30 912 C 85.4977 1.50336 -1.36113 0
M  V30 913 C 85.8307 1.94148 0.0450796 0
M  V30 914 O 85.1057 1.66301 1.00868 0
M  V30 915 C 85.3887 2.74773 -2.32749 0
M  V30 916 C 85.2417 2.37023 -3.82283 0
M  V30 917 C 86.5607 3.76846 -2.27322 0
M  V30 918 H 83.6797 0.545351 -0.495743 0
M  V30 919 H 86.3217 0.848624 -1.69995 0
M  V30 920 H 84.4717 3.30639 -2.03986 0
M  V30 921 H 86.1437 1.8684 -4.21768 0
M  V30 922 H 84.3867 1.69334 -3.99385 0
M  V30 923 H 85.0577 3.26104 -4.45376 0
M  V30 924 H 87.5337 3.30548 -2.5274 0
M  V30 925 H 86.4097 4.6159 -2.97028 0
M  V30 926 H 86.6707 4.23286 -1.27599 0
M  V30 927 N 85.7298 1.2412 0.971189 0
M  V30 928 C 86.9578 1.10575 1.74874 0
M  V30 929 C 87.3728 -0.342017 1.85676 0
M  V30 930 O 86.7298 -1.23617 1.34258 0
M  V30 931 C 86.7808 1.73579 3.171 0
M  V30 932 O 86.5018 3.12695 3.06844 0
M  V30 933 C 88.0028 1.65598 4.11208 0
M  V30 934 H 85.2228 0.386504 0.548503 0
M  V30 935 H 87.7668 1.64156 1.21955 0
M  V30 936 H 85.9218 1.24009 3.67016 0
M  V30 937 H 86.3358 3.43412 3.96445 0
M  V30 938 H 87.8098 2.1437 5.08674 0
M  V30 939 H 88.2868 0.616532 4.34851 0
M  V30 940 H 88.8928 2.14578 3.67201 0
M  V30 941 N 87.2079 -1.17134 1.05439 0
M  V30 942 C 88.4379 -1.91094 0.785274 0
M  V30 943 C 88.8459 -1.77198 -0.663142 0
M  V30 944 O 88.1889 -1.10835 -1.46497 0
M  V30 945 C 88.2509 -3.42594 1.08949 0
M  V30 946 C 87.9149 -3.80274 2.53458 0
M  V30 947 C 88.9119 -3.82912 3.51673 0
M  V30 948 C 86.5969 -4.11162 2.88532 0
M  V30 949 C 88.5909 -4.15913 4.83006 0
M  V30 950 C 86.2779 -4.43831 4.20068 0
M  V30 951 C 87.2759 -4.46185 5.17115 0
M  V30 952 O 86.9639 -4.78083 6.46291 0
M  V30 953 H 86.6959 -0.613073 0.284811 0
M  V30 954 H 89.2499 -1.49461 1.40893 0
M  V30 955 H 87.4799 -3.84534 0.408741 0
M  V30 956 H 89.1689 -3.97817 0.805991 0
M  V30 957 H 89.9349 -3.5917 3.25917 0
M  V30 958 H 85.8139 -4.085 2.13656 0
M  V30 959 H 89.3579 -4.17665 5.5875 0
M  V30 960 H 85.2549 -4.67037 4.45586 0
M  V30 961 H 86.0229 -4.9593 6.51149 0
M  V30 962 N 88.686 -0.835752 -1.33615 0
M  V30 963 C 89.934 -0.429109 -1.97492 0
M  V30 964 C 90.255 1.01433 -1.66543 0
M  V30 965 O 89.525 1.70611 -0.962744 0
M  V30 966 H 88.105 -0.155686 -0.730596 0
M  V30 967 H 90.767 -1.06802 -1.63031 0
M  V30 968 H 89.863 -0.55861 -3.0706 0
M  V30 969 N 90.1641 1.46063 -0.591896 0
M  V30 970 C 91.1271 2.28854 0.125973 0
M  V30 971 C 92.1271 1.38903 0.810107 0
M  V30 972 O 93.3171 1.61186 0.66066 0
M  V30 973 C 90.4491 3.19526 1.1881 0
M  V30 974 H 91.6421 2.93802 -0.601717 0
M  V30 975 H 89.1951 1.52325 -0.350254 0
M  V30 976 H 89.9301 2.59345 1.94707 0
M  V30 977 H 89.7151 3.85766 0.701936 0
M  V30 978 H 91.2051 3.81817 1.69132 0
M  V30 979 N 91.6422 0.330177 1.54103 0
M  V30 980 C 92.5902 -0.548226 2.26047 0
M  V30 981 C 93.5842 -1.11309 1.27698 0
M  V30 982 O 94.7902 -1.06036 1.45452 0
M  V30 983 H 91.1652 -0.195456 0.726155 0
M  V30 984 H 93.1362 0.0807567 2.98291 0
M  V30 985 C 91.8852 -1.69415 3.03634 0
M  V30 986 H 91.2082 -1.26876 3.79134 0
M  V30 987 H 92.6482 -2.28423 3.5721 0
M  V30 988 C 91.1072 -2.61569 2.12328 0
M  V30 989 O 91.6372 -3.63462 1.7105 0
M  V30 990 N 89.8432 -2.29952 1.77681 0
M  V30 991 H 89.3902 -1.47134 2.11446 0
M  V30 992 H 89.3482 -2.91871 1.16869 0
M  V30 993 N 93.1203 -1.57491 0.0584922 0
M  V30 994 C 94.3453 -1.97711 -0.62652 0
M  V30 995 C 94.7703 -0.936132 -1.63151 0
M  V30 996 O 94.1283 0.099811 -1.81025 0
M  V30 997 C 94.1763 -3.36989 -1.28338 0
M  V30 998 O 93.2803 -3.35433 -2.39913 0
M  V30 999 H 92.6213 -0.643868 -0.162266 0
M  V30 1000 H 95.1513 -2.04193 0.129064 0
M  V30 1001 H 95.1613 -3.73879 -1.63335 0
M  V30 1002 H 93.8363 -4.12289 -0.546889 0
M  V30 1003 H 92.4133 -3.10298 -2.06809 0
M  V30 1004 N 94.5984 0.214957 -1.56127 0
M  V30 1005 C 95.8464 0.936518 -1.79091 0
M  V30 1006 C 96.1674 1.84606 -0.628148 0
M  V30 1007 O 95.4374 1.92664 0.35462 0
M  V30 1008 H 94.0174 0.3488 -0.660566 0
M  V30 1009 H 96.6794 0.22523 -1.93594 0
M  V30 1010 H 95.7754 1.53943 -2.71492 0
M  V30 1011 N 96.0765 1.50051 0.48192 0
M  V30 1012 C 96.9865 1.7089 1.60728 0
M  V30 1013 C 98.0025 0.591788 1.63627 0
M  V30 1014 O 99.1785 0.868817 1.81696 0
M  V30 1015 C 96.2435 1.78855 2.97005 0
M  V30 1016 C 95.3045 3.02537 3.04581 0
M  V30 1017 C 94.5375 3.10112 4.34357 0
M  V30 1018 O 94.7605 2.24765 5.24249 0
M  V30 1019 O 93.6945 4.02747 4.47301 0
M  V30 1020 H 97.5205 2.66264 1.46072 0
M  V30 1021 H 95.1055 1.34018 0.660264 0
M  V30 1022 H 96.9875 1.86336 3.77964 0
M  V30 1023 H 95.6625 0.866628 3.11883 0
M  V30 1024 H 94.5695 3.00563 2.22739 0
M  V30 1025 H 95.9025 3.94272 2.94636 0
M  V30 1026 N 97.5546 -0.734337 1.39446 0
M  V30 1027 C 98.9706 -1.03997 1.21065 0
M  V30 1028 C 99.1706 -2.01369 0.0727019 0
M  V30 1029 O 98.2266 -2.45856 -0.575426 0
M  V30 1030 C 99.5396 -1.60163 2.54496 0
M  V30 1031 C 101.088 -1.7224 2.61347 0
M  V30 1032 C 101.563 -2.31814 3.95002 0
M  V30 1033 N 103.054 -2.39223 3.96644 0
M  V30 1034 C 103.789 -2.86258 4.96834 0
M  V30 1035 N 103.285 -3.33184 6.07421 0
M  V30 1036 N 105.078 -2.85473 4.84213 0
M  V30 1037 H 97.2286 -0.0885624 2.12215 0
M  V30 1038 H 99.4916 -0.10191 0.942506 0
M  V30 1039 H 99.1976 -0.960811 3.38321 0
M  V30 1040 H 99.0716 -2.5896 2.74262 0
M  V30 1041 H 101.459 -2.35443 1.77906 0
M  V30 1042 H 101.54 -0.720939 2.4543 0
M  V30 1043 H 101.184 -1.69238 4.78875 0
M  V30 1044 H 101.114 -3.32638 4.08239 0
M  V30 1045 H 103.605 -2.06057 3.16779 0
M  V30 1046 H 103.918 -3.67586 6.7978 0
M  V30 1047 H 102.263 -3.31191 6.11013 0
M  V30 1048 H 105.454 -2.48136 3.96921 0
M  V30 1049 H 105.627 -3.21814 5.62441 0
M  V30 1050 N 99.0327 -1.24633 -0.964593 0
M  V30 1051 C 100.31 -0.995809 -1.68354 0
M  V30 1052 C 100.69 0.480964 -2.05548 0
M  V30 1053 O 100.038 1.45599 -1.76105 0
M  V30 1054 C 100.248 -1.92177 -2.91323 0
M  V30 1055 C 101.596 -2.19446 -3.63495 0
M  V30 1056 O 102.62 -1.89855 -3.01386 0
M  V30 1057 O 101.479 -2.69714 -4.75307 0
M  V30 1058 H 98.5727 -0.376854 -0.736146 0
M  V30 1059 H 101.119 -1.35745 -1.0184 0
M  V30 1060 H 99.8907 -2.91938 -2.60553 0
M  V30 1061 H 99.5137 -1.56349 -3.65569 0
M  V30 1062 N 100.511 1.16574 -1.06058 0
M  V30 1063 C 101.927 1.3904 -0.783585 0
M  V30 1064 C 102.127 1.91784 0.618145 0
M  V30 1065 O 101.183 2.11511 1.37911 0
M  V30 1066 C 102.496 2.37329 -1.84649 0
M  V30 1067 C 104.044 2.51018 -1.86973 0
M  V30 1068 C 104.519 3.52588 -2.92311 0
M  V30 1069 N 106.01 3.60113 -2.91329 0
M  V30 1070 C 106.745 4.38486 -3.69482 0
M  V30 1071 N 106.241 5.20302 -4.57447 0
M  V30 1072 N 108.034 4.33446 -3.57885 0
M  V30 1073 H 100.185 0.806725 -1.96483 0
M  V30 1074 H 102.448 0.417117 -0.851303 0
M  V30 1075 H 102.154 2.05663 -2.85299 0
M  V30 1076 H 102.028 3.36946 -1.6955 0
M  V30 1077 H 104.415 2.81989 -0.869827 0
M  V30 1078 H 104.496 1.51445 -2.0615 0
M  V30 1079 H 104.14 3.22354 -3.92492 0
M  V30 1080 H 104.07 4.51886 -2.70383 0
M  V30 1081 H 106.561 3.01707 -2.27555 0
M  V30 1082 H 106.874 5.77311 -5.13743 0
M  V30 1083 H 105.219 5.19653 -4.61503 0
M  V30 1084 H 108.41 3.68586 -2.88551 0
M  V30 1085 H 108.583 4.94279 -4.19037 0
M  V30 1086 N 101.989 0.842826 1.3317 0
M  V30 1087 C 103.217 0.454055 2.01856 0
M  V30 1088 C 103.632 -0.94587 1.63397 0
M  V30 1089 O 102.989 -1.61534 0.849302 0
M  V30 1090 C 103.04 0.569715 3.56982 0
M  V30 1091 O 102.761 1.91448 3.94055 0
M  V30 1092 C 104.262 0.178412 4.42941 0
M  V30 1093 H 101.482 0.17979 0.646465 0
M  V30 1094 H 104.026 1.1365 1.70012 0
M  V30 1095 H 102.181 -0.0648587 3.87346 0
M  V30 1096 H 102.595 1.90282 4.88767 0
M  V30 1097 H 104.069 0.310376 5.51127 0
M  V30 1098 H 104.546 -0.880056 4.30293 0
M  V30 1099 H 105.152 0.787579 4.17944 0
M  V30 1100 N 103.467 -1.45747 0.599634 0
M  V30 1101 C 104.417 -2.27538 -0.145107 0
M  V30 1102 C 105.401 -1.3686 -0.846055 0
M  V30 1103 O 106.593 -1.6091 -0.737357 0
M  V30 1104 C 103.722 -3.23569 -1.14708 0
M  V30 1105 C 102.808 -4.21734 -0.447383 0
M  V30 1106 N 103.199 -5.03257 0.506535 0
M  V30 1107 C 101.497 -4.40536 -0.695966 0
M  V30 1108 C 102.198 -5.74426 0.917068 0
M  V30 1109 N 101.174 -5.42966 0.26253 0
M  V30 1110 H 104.976 -2.87965 0.587672 0
M  V30 1111 H 102.49 -1.56803 0.422697 0
M  V30 1112 H 104.487 -3.8089 -1.69495 0
M  V30 1113 H 103.147 -2.64702 -1.8805 0
M  V30 1114 H 104.158 -5.10319 0.882899 0
M  V30 1115 H 100.835 -3.92802 -1.41467 0
M  V30 1116 H 102.225 -6.4995 1.70338 0
M  V30 1117 N 104.945 -0.338344 -1.53925 0
M  V30 1118 C 106.17 0.263987 -2.05713 0
M  V30 1119 C 106.595 1.43847 -1.21201 0
M  V30 1120 O 105.953 1.79904 -0.224535 0
M  V30 1121 C 106.001 0.662 -3.54471 0
M  V30 1122 O 105.105 1.76265 -3.72833 0
M  V30 1123 H 104.446 0.0448722 -0.662482 0
M  V30 1124 H 106.976 -0.491048 -1.9862 0
M  V30 1125 H 106.986 0.940594 -3.9701 0
M  V30 1126 H 105.661 -0.196937 -4.15433 0
M  V30 1127 H 104.238 1.48173 -3.42198 0
M  V30 1128 N 106.423 1.57458 -0.0668435 0
M  V30 1129 C 107.672 1.92477 0.602947 0
M  V30 1130 C 107.985 0.948419 1.71068 0
M  V30 1131 O 109.191 1.19124 2.43971 0
M  V30 1132 C 107.647 3.41903 1.12383 0
M  V30 1133 C 107.255 4.47975 0.04737 0
M  V30 1134 C 108.999 3.85931 1.76797 0
M  V30 1135 C 106.906 5.88529 0.582022 0
M  V30 1136 H 105.836 0.718387 0.22899 0
M  V30 1137 H 108.487 1.82978 -0.138276 0
M  V30 1138 H 106.869 3.46459 1.91787 0
M  V30 1139 H 108.043 4.55029 -0.726978 0
M  V30 1140 H 106.358 4.13384 -0.500243 0
M  V30 1141 H 108.955 4.88322 2.17821 0
M  V30 1142 H 109.298 3.23029 2.62599 0
M  V30 1143 H 109.831 3.83958 1.04024 0
M  V30 1144 H 106.57 6.55065 -0.238721 0
M  V30 1145 H 106.09 5.85004 1.324 0
M  V30 1146 H 107.769 6.38258 1.05999 0
M  V30 1147 N 107.901 -0.206675 1.56239 0
M  V30 1148 C 109.15 -0.926964 1.79138 0
M  V30 1149 C 109.463 -1.84901 0.638043 0
M  V30 1150 O 110.669 -2.60906 0.751033 0
M  V30 1151 C 109.125 -1.6986 3.17294 0
M  V30 1152 C 108.733 -0.821956 4.40395 0
M  V30 1153 C 110.477 -2.40922 3.4951 0
M  V30 1154 C 108.384 -1.59179 5.69575 0
M  V30 1155 H 107.314 -0.349864 0.667915 0
M  V30 1156 H 109.965 -0.180487 1.8261 0
M  V30 1157 H 108.347 -2.48853 3.08039 0
M  V30 1158 H 109.521 -0.0715019 4.60745 0
M  V30 1159 H 107.836 -0.222741 4.15804 0
M  V30 1160 H 110.433 -2.99047 4.43255 0
M  V30 1161 H 110.776 -3.14542 2.72707 0
M  V30 1162 H 111.309 -1.68905 3.60161 0
M  V30 1163 H 108.048 -0.898589 6.49312 0
M  V30 1164 H 107.568 -2.31648 5.53262 0
M  V30 1165 H 109.247 -2.14862 6.10281 0
M  V30 1166 N 109.379 -1.50304 -0.473955 0
M  V30 1167 C 110.326 -1.68959 -1.57231 0
M  V30 1168 C 111.296 -0.530899 -1.57387 0
M  V30 1169 O 112.481 -0.761133 -1.74961 0
M  V30 1170 C 109.621 -1.7871 -2.95223 0
M  V30 1171 C 108.734 -3.06061 -3.04878 0
M  V30 1172 C 107.869 -3.06626 -4.33767 0
M  V30 1173 C 106.908 -4.28443 -4.37154 0
M  V30 1174 N 106.045 -4.26763 -5.5751 0
M  V30 1175 H 110.885 -2.6273 -1.40631 0
M  V30 1176 H 108.422 -1.30241 -0.683789 0
M  V30 1177 H 110.38 -1.82344 -3.75242 0
M  V30 1178 H 109.01 -0.883806 -3.10465 0
M  V30 1179 H 108.062 -3.11911 -2.17751 0
M  V30 1180 H 109.374 -3.96039 -3.0324 0
M  V30 1181 H 108.528 -3.08973 -5.22131 0
M  V30 1182 H 107.267 -2.14473 -4.3801 0
M  V30 1183 H 106.272 -4.2631 -3.47188 0
M  V30 1184 H 107.497 -5.2182 -4.34605 0
M  V30 1185 H 105.443 -3.37462 -5.62544 0
M  V30 1186 H 105.36 -5.10507 -5.57601 0
M  V30 1187 H 106.628 -4.33253 -6.48006 0
M  V30 1188 N 110.857 0.726932 -1.39834 0
M  V30 1189 C 112.105 1.4837 -1.37225 0
M  V30 1190 C 112.426 1.94979 0.0284857 0
M  V30 1191 O 111.696 1.69555 0.981213 0
M  V30 1192 H 110.276 0.55043 -0.505011 0
M  V30 1193 H 112.938 0.862468 -1.74778 0
M  V30 1194 H 112.034 2.36198 -2.04003 0
M  V30 1195 N 112.336 1.25143 0.95797 0
M  V30 1196 C 113.585 1.0909 1.69654 0
M  V30 1197 C 113.898 -0.368548 1.92097 0
M  V30 1198 O 115.104 -0.649455 2.63618 0
M  V30 1199 C 113.56 1.90395 3.05414 0
M  V30 1200 C 113.168 3.4081 2.90779 0
M  V30 1201 C 114.912 1.82901 3.83076 0
M  V30 1202 C 112.819 4.14423 4.21909 0
M  V30 1203 H 111.749 0.404625 0.636235 0
M  V30 1204 H 114.4 1.4931 1.06672 0
M  V30 1205 H 112.782 1.42996 3.69281 0
M  V30 1206 H 113.956 3.95859 2.35865 0
M  V30 1207 H 112.271 3.49361 2.26575 0
M  V30 1208 H 114.868 2.35196 4.80195 0
M  V30 1209 H 115.211 0.796224 4.08615 0
M  V30 1210 H 115.744 2.28033 3.25954 0
M  V30 1211 H 112.483 5.18102 4.01561 0
M  V30 1212 H 112.003 3.64159 4.76601 0
M  V30 1213 H 113.682 4.21956 4.90471 0
M  V30 1214 N 113.814 -1.1601 1.06675 0
M  V30 1215 C 114.761 -2.20525 0.680967 0
M  V30 1216 C 115.731 -1.62904 -0.324283 0
M  V30 1217 O 116.916 -1.89615 -0.212294 0
M  V30 1218 C 114.056 -3.45013 0.0776551 0
M  V30 1219 C 113.169 -4.16863 1.13355 0
M  V30 1220 C 112.304 -5.2888 0.49597 0
M  V30 1221 C 111.343 -5.92537 1.53513 0
M  V30 1222 N 110.48 -6.96038 0.920631 0
M  V30 1223 H 115.32 -2.52876 1.57663 0
M  V30 1224 H 112.857 -1.24199 0.788223 0
M  V30 1225 H 114.815 -4.16193 -0.289704 0
M  V30 1226 H 113.445 -3.132 -0.781393 0
M  V30 1227 H 112.497 -3.44248 1.61857 0
M  V30 1228 H 113.809 -4.60294 1.92174 0
M  V30 1229 H 112.963 -6.06653 0.0758604 0
M  V30 1230 H 111.702 -4.86622 -0.324062 0
M  V30 1231 H 110.707 -5.13482 1.9651 0
M  V30 1232 H 111.932 -6.36873 2.35733 0
M  V30 1233 H 109.878 -6.55888 0.12138 0
M  V30 1234 H 109.795 -7.3786 1.64616 0
M  V30 1235 H 111.063 -7.77725 0.525795 0
M  V30 1236 N 115.292 -0.849877 -1.32721 0
M  V30 1237 C 116.569 -0.372405 -1.92022 0
M  V30 1238 C 116.949 1.1435 -1.77447 0
M  V30 1239 O 116.297 1.96296 -1.16962 0
M  V30 1240 C 116.507 -0.831482 -3.3895 0
M  V30 1241 C 117.855 -0.845882 -4.16089 0
M  V30 1242 O 118.879 -0.775806 -3.47649 0
M  V30 1243 O 117.738 -0.943753 -5.38289 0
M  V30 1244 H 114.832 -0.107667 -0.819961 0
M  V30 1245 H 117.378 -0.93646 -1.41522 0
M  V30 1246 H 116.15 -1.87448 -3.4348 0
M  V30 1247 H 115.773 -0.24461 -3.96847 0
M  V30 1248 N 116.77 1.45427 -0.607355 0
M  V30 1249 C 118.186 1.57283 -0.270985 0
M  V30 1250 C 118.386 1.59875 1.22647 0
M  V30 1251 O 117.442 1.52893 2.00948 0
M  V30 1252 C 118.755 2.85566 -0.941952 0
M  V30 1253 C 120.303 2.9924 -0.917849 0
M  V30 1254 C 120.778 4.30293 -1.56882 0
M  V30 1255 N 122.269 4.37051 -1.5343 0
M  V30 1256 C 123.004 5.37123 -2.00715 0
M  V30 1257 N 122.5 6.43734 -2.56084 0
M  V30 1258 N 124.293 5.28479 -1.91484 0
M  V30 1259 H 116.444 1.41988 -1.57966 0
M  V30 1260 H 118.707 0.67885 -0.661715 0
M  V30 1261 H 118.413 2.8955 -1.99633 0
M  V30 1262 H 118.287 3.74322 -0.465096 0
M  V30 1263 H 120.674 2.94822 0.127984 0
M  V30 1264 H 120.755 2.11895 -1.43297 0
M  V30 1265 H 120.399 4.35469 -2.61398 0
M  V30 1266 H 120.329 5.16454 -1.02873 0
M  V30 1267 H 122.82 3.60615 -1.12982 0
M  V30 1268 H 123.133 7.16341 -2.89958 0
M  V30 1269 H 121.478 6.44485 -2.60122 0
M  V30 1270 H 124.669 4.44098 -1.47967 0
M  V30 1271 H 124.842 6.0632 -2.28648 0
M  V30 1272 N 118.248 0.346503 1.53744 0
M  V30 1273 C 119.476 -0.25041 2.05379 0
M  V30 1274 C 119.891 -1.43979 1.22129 0
M  V30 1275 O 119.248 -1.80677 0.257321 0
M  V30 1276 C 119.299 -0.662575 3.55376 0
M  V30 1277 O 119.02 0.479515 4.35468 0
M  V30 1278 C 120.521 -1.31989 4.23195 0
M  V30 1279 H 117.741 -0.0478198 0.669294 0
M  V30 1280 H 120.285 0.499346 1.9831 0
M  V30 1281 H 118.44 -1.36227 3.62658 0
M  V30 1282 H 118.854 0.15037 5.24284 0
M  V30 1283 H 120.328 -1.55902 5.29527 0
M  V30 1284 H 120.805 -2.27436 3.75725 0
M  V30 1285 H 121.411 -0.662154 4.20114 0
M  V30 1286 N 119.726 -1.57421 0.075193 0
M  V30 1287 C 120.974 -1.93236 -0.591974 0
M  V30 1288 C 121.295 -0.956241 -1.69944 0
M  V30 1289 O 120.565 -0.00494792 -1.95899 0
M  V30 1290 H 119.145 -0.713355 -0.22166 0
M  V30 1291 H 121.807 -1.9444 0.133848 0
M  V30 1292 H 120.903 -2.95131 -1.01509 0
M  V30 1293 N 121.204 0.198386 -1.56346 0
M  V30 1294 C 122.134 1.24865 -1.9731 0
M  V30 1295 C 123.115 1.47651 -0.844576 0
M  V30 1296 O 124.3 1.59444 -1.10866 0
M  V30 1297 C 121.43 2.59358 -2.30977 0
M  V30 1298 C 120.384 2.5119 -3.46537 0
M  V30 1299 C 119.71 3.89926 -3.65871 0
M  V30 1300 C 121.01 2.03977 -4.80823 0
M  V30 1301 H 122.704 0.908252 -2.85291 0
M  V30 1302 H 120.25 0.435462 -1.37258 0
M  V30 1303 H 122.203 3.33011 -2.58228 0
M  V30 1304 H 120.927 2.95132 -1.39874 0
M  V30 1305 H 119.586 1.79993 -3.19371 0
M  V30 1306 H 119.234 4.23046 -2.72105 0
M  V30 1307 H 118.934 3.85336 -4.4361 0
M  V30 1308 H 120.458 4.65205 -3.95495 0
M  V30 1309 H 121.872 2.67386 -5.07127 0
M  V30 1310 H 120.269 2.10397 -5.62008 0
M  V30 1311 H 121.339 0.992861 -4.74626 0
M  V30 1312 N 122.682 1.50554 0.465978 0
M  V30 1313 C 123.592 1.72585 1.58907 0
M  V30 1314 C 124.608 0.60911 1.6299 0
M  V30 1315 O 125.784 0.88804 1.80765 0
M  V30 1316 C 122.849 1.81995 2.95091 0
M  V30 1317 C 121.91 3.05751 3.01355 0
M  V30 1318 C 121.143 3.14702 4.31043 0
M  V30 1319 O 121.366 2.30313 5.21835 0
M  V30 1320 O 120.3 4.07468 4.43005 0
M  V30 1321 H 124.126 2.67799 1.43239 0
M  V30 1322 H 121.711 1.34711 0.646013 0
M  V30 1323 H 123.593 1.90335 3.75966 0
M  V30 1324 H 122.268 0.899659 3.10947 0
M  V30 1325 H 121.175 3.02908 2.19539 0
M  V30 1326 H 122.508 3.97375 2.90437 0
M  V30 1327 N 124.16 -0.719506 1.40217 0
M  V30 1328 C 125.123 -1.8153 1.39927 0
M  V30 1329 C 126.123 -1.58095 0.293723 0
M  V30 1330 O 127.313 -1.65209 0.552429 0
M  V30 1331 C 124.445 -3.19561 1.18716 0
M  V30 1332 H 125.638 -1.83186 2.37451 0
M  V30 1333 H 123.191 -0.924746 1.26008 0
M  V30 1334 H 123.926 -3.23557 0.219366 0
M  V30 1335 H 123.711 -3.3797 1.98793 0
M  V30 1336 H 125.201 -3.99598 1.21291 0
M  V30 1337 N 125.638 -1.25649 -0.95132 0
M  V30 1338 C 126.601 -1.06399 -2.03007 0
M  V30 1339 C 127.601 -0.0156794 -1.60792 0
M  V30 1340 O 128.791 -0.25817 -1.72276 0
M  V30 1341 C 125.923 -0.616184 -3.35285 0
M  V30 1342 H 127.116 -2.02164 -2.21517 0
M  V30 1343 H 124.669 -1.08103 -1.12887 0
M  V30 1344 H 125.404 0.343917 -3.22471 0
M  V30 1345 H 125.189 -1.37301 -3.67275 0
M  V30 1346 H 126.679 -0.503032 -4.14559 0
M  V30 1347 N 127.117 1.15442 -1.07289 0
M  V30 1348 C 128.528 1.67803 -0.818475 0
M  V30 1349 C 128.879 1.8489 0.656507 0
M  V30 1350 O 128.004 1.55176 1.50829 0
M  V30 1351 C 128.599 3.04805 -1.47917 0
M  V30 1352 C 127.158 3.54245 -1.27229 0
M  V30 1353 C 126.305 2.29986 -1.54925 0
M  V30 1354 H 129.256 0.996646 -1.23502 0
M  V30 1355 H 129.277 3.69702 -0.90005 0
M  V30 1356 H 128.789 2.92336 -2.55267 0
M  V30 1357 H 126.89 3.71956 -0.21899 0
M  V30 1358 H 127.003 4.35723 -1.99203 0
M  V30 1359 H 125.367 2.35496 -0.970242 0
M  V30 1360 H 126.15 2.20105 -2.63455 0
M  V30 1361 N 128.595 0.856903 1.32268 0
M  V30 1362 C 129.545 0.274899 2.26337 0
M  V30 1363 C 130.529 -0.580543 1.50062 0
M  V30 1364 O 131.721 -0.429559 1.71708 0
M  V30 1365 C 128.85 -0.533841 3.39124 0
M  V30 1366 C 127.936 0.334114 4.22782 0
M  V30 1367 N 128.327 1.42143 4.85416 0
M  V30 1368 C 126.625 0.124256 4.45827 0
M  V30 1369 C 127.326 1.95559 5.47843 0
M  V30 1370 N 126.302 1.25444 5.28928 0
M  V30 1371 H 130.104 1.10612 2.72291 0
M  V30 1372 H 127.618 0.703258 1.46383 0
M  V30 1373 H 129.615 -0.96722 4.05525 0
M  V30 1374 H 128.275 -1.36283 2.94715 0
M  V30 1375 H 129.286 1.80436 4.85451 0
M  V30 1376 H 125.963 -0.669837 4.12092 0
M  V30 1377 H 127.353 2.86714 6.07655 0
M  V30 1378 N 130.073 -1.45103 0.615059 0
M  V30 1379 C 131.003 -2.33339 -0.0865619 0
M  V30 1380 C 131.984 -1.4727 -0.851209 0
M  V30 1381 O 133.169 -1.76026 -0.820281 0
M  V30 1382 C 130.299 -3.30095 -1.07956 0
M  V30 1383 C 129.253 -4.25858 -0.427628 0
M  V30 1384 C 128.579 -5.12361 -1.5294 0
M  V30 1385 C 129.879 -5.18165 0.655944 0
M  V30 1386 H 131.573 -2.92254 0.650224 0
M  V30 1387 H 129.119 -1.40532 0.314138 0
M  V30 1388 H 131.072 -3.90698 -1.57901 0
M  V30 1389 H 129.796 -2.69355 -1.84703 0
M  V30 1390 H 128.455 -3.66564 0.0510292 0
M  V30 1391 H 128.103 -4.47984 -2.28734 0
M  V30 1392 H 127.803 -5.77238 -1.09865 0
M  V30 1393 H 129.327 -5.75833 -2.03098 0
M  V30 1394 H 130.741 -5.72796 0.240257 0
M  V30 1395 H 129.138 -5.91559 1.00888 0
M  V30 1396 H 130.208 -4.60144 1.52957 0
M  V30 1397 N 131.551 -0.354651 -1.53558 0
M  V30 1398 C 132.779 0.239515 -2.05509 0
M  V30 1399 C 133.194 1.4333 -1.2289 0
M  V30 1400 O 132.551 1.80538 -0.266899 0
M  V30 1401 C 132.602 0.643719 -3.55723 0
M  V30 1402 O 132.323 -0.502602 -4.35207 0
M  V30 1403 C 133.824 1.29743 -4.23889 0
M  V30 1404 H 131.044 0.0442697 -0.669538 0
M  V30 1405 H 133.588 -0.509856 -1.98042 0
M  V30 1406 H 131.743 1.34302 -3.63376 0
M  V30 1407 H 132.157 -0.178172 -5.24197 0
M  V30 1408 H 133.631 1.53091 -5.30346 0
M  V30 1409 H 134.108 2.25441 -3.76926 0
M  V30 1410 H 134.714 0.639865 -4.20459 0
M  V30 1411 N 133.029 1.57378 -0.0835403 0
M  V30 1412 C 134.269 1.95808 0.586381 0
M  V30 1413 C 134.633 0.963706 1.66062 0
M  V30 1414 O 135.834 1.23608 2.38693 0
M  V30 1415 C 134.105 3.38808 1.13771 0
M  V30 1416 S 135.664 3.99225 1.82112 0
M  V30 1417 H 132.482 0.684675 0.191679 0
M  V30 1418 H 135.084 1.94843 -0.160194 0
M  V30 1419 H 133.788 4.08954 0.344197 0
M  V30 1420 H 133.319 3.43344 1.92038 0
M  V30 1421 H 135.334 3.87087 3.10449 0
M  V30 1422 N 134.507 -0.190092 1.56449 0
M  V30 1423 C 135.756 -0.907912 1.80111 0
M  V30 1424 C 136.069 -1.84214 0.657619 0
M  V30 1425 O 137.275 -2.60094 0.778663 0
M  V30 1426 C 135.731 -1.66485 3.19078 0
M  V30 1427 C 135.339 -0.7752 4.41242 0
M  V30 1428 C 137.083 -2.37201 3.52045 0
M  V30 1429 C 134.99 -1.53129 5.71231 0
M  V30 1430 H 133.92 -0.34276 0.671589 0
M  V30 1431 H 136.571 -0.161109 1.82791 0
M  V30 1432 H 134.953 -2.45572 3.10661 0
M  V30 1433 H 136.127 -0.0226298 4.60794 0
M  V30 1434 H 134.442 -0.178627 4.16017 0
M  V30 1435 H 137.039 -2.94329 4.46402 0
M  V30 1436 H 137.382 -3.11632 2.76028 0
M  V30 1437 H 137.915 -1.65075 3.61932 0
M  V30 1438 H 134.654 -0.82967 6.50228 0
M  V30 1439 H 134.174 -2.25767 5.55688 0
M  V30 1440 H 135.853 -2.08377 6.12526 0
M  V30 1441 N 135.985 -1.50799 -0.457987 0
M  V30 1442 C 137.262 -1.52968 -1.21902 0
M  V30 1443 C 137.642 -0.281906 -2.09209 0
M  V30 1444 O 136.99 0.734076 -2.16388 0
M  V30 1445 C 137.2 -2.8326 -2.03875 0
M  V30 1446 C 138.548 -3.34425 -2.6162 0
M  V30 1447 O 139.572 -2.8467 -2.14106 0
M  V30 1448 O 138.431 -4.21188 -3.48228 0
M  V30 1449 H 135.525 -0.614129 -0.553873 0
M  V30 1450 H 138.071 -1.63098 -0.468739 0
M  V30 1451 H 136.843 -3.65543 -1.39621 0
M  V30 1452 H 136.466 -2.76195 -2.8601 0
M  V30 1453 N 137.463 0.71206 -1.40597 0
M  V30 1454 C 138.426 1.80785 -1.40888 0
M  V30 1455 C 139.426 1.57937 -0.302103 0
M  V30 1456 O 140.616 1.64913 -0.561182 0
M  V30 1457 C 137.748 3.18927 -1.20409 0
M  V30 1458 H 138.941 1.81924 -2.38419 0
M  V30 1459 H 136.494 0.91805 -1.26497 0
M  V30 1460 H 137.229 3.23436 -0.236522 0
M  V30 1461 H 137.014 3.36911 -2.00582 0
M  V30 1462 H 138.504 3.98949 -1.23408 0
M  V30 1463 N 138.941 1.26152 0.944643 0
M  V30 1464 C 140.169 1.14259 1.72489 0
M  V30 1465 C 140.584 -0.302555 1.8636 0
M  V30 1466 O 139.941 -1.20741 1.36849 0
M  V30 1467 C 139.992 1.80266 3.13347 0
M  V30 1468 O 139.713 3.19133 3.00143 0
M  V30 1469 C 141.214 1.74283 4.07603 0
M  V30 1470 H 138.434 0.398051 0.540181 0
M  V30 1471 H 140.978 1.66706 1.18446 0
M  V30 1472 H 139.133 1.31766 3.64303 0
M  V30 1473 H 139.547 3.51744 3.89071 0
M  V30 1474 H 141.021 2.25111 5.04013 0
M  V30 1475 H 141.498 0.708631 4.33446 0
M  V30 1476 H 142.104 2.22319 3.62567 0
M  V30 1477 N 140.419 -1.14872 1.07899 0
M  V30 1478 C 141.83 -1.67367 0.827363 0
M  V30 1479 C 142.181 -1.85236 -0.646693 0
M  V30 1480 O 141.306 -1.55974 -1.50004 0
M  V30 1481 C 141.901 -3.04016 1.49532 0
M  V30 1482 C 140.46 -3.53566 1.29106 0
M  V30 1483 C 139.607 -2.29161 1.56143 0
M  V30 1484 H 142.558 -0.990083 1.24028 0
M  V30 1485 H 142.579 -3.69219 0.919643 0
M  V30 1486 H 142.091 -2.90978 2.56814 0
M  V30 1487 H 140.192 -3.71835 0.238713 0
M  V30 1488 H 140.305 -4.34661 2.01511 0
M  V30 1489 H 138.669 -2.34978 0.982717 0
M  V30 1490 H 139.452 -2.18705 2.64619 0
M  V30 1491 N 141.898 -0.863906 -1.31812 0
M  V30 1492 C 143.175 -0.39275 -1.91616 0
M  V30 1493 C 143.555 1.12461 -1.7865 0
M  V30 1494 O 142.903 1.95045 -1.19037 0
M  V30 1495 C 143.113 -0.867385 -3.38049 0
M  V30 1496 C 144.461 -0.889966 -4.15168 0
M  V30 1497 O 145.485 -0.812635 -3.46806 0
M  V30 1498 O 144.344 -1.00079 -5.37258 0
M  V30 1499 H 141.438 -0.116358 -0.818773 0
M  V30 1500 H 143.984 -0.951418 -1.40521 0
M  V30 1501 H 142.756 -1.91081 -3.41473 0
M  V30 1502 H 142.379 -0.286687 -3.96565 0
M  V30 1503 N 143.376 1.44774 -0.622745 0
M  V30 1504 C 144.286 2.34433 0.0886031 0
M  V30 1505 C 145.302 1.52131 0.844529 0
M  V30 1506 O 146.478 1.84886 0.798691 0
M  V30 1507 C 143.543 3.29986 1.0635 0
M  V30 1508 C 142.604 4.28195 0.307873 0
M  V30 1509 C 141.837 5.19183 1.23633 0
M  V30 1510 O 142.06 5.13918 2.47476 0
M  V30 1511 O 140.994 5.97515 0.725189 0
M  V30 1512 H 144.82 2.96693 -0.648599 0
M  V30 1513 H 142.405 1.44408 -0.382957 0
M  V30 1514 H 144.287 3.88825 1.6246 0
M  V30 1515 H 142.962 2.70269 1.78146 0
M  V30 1516 H 141.869 3.72927 -0.296064 0
M  V30 1517 H 143.202 4.90808 -0.3699 0
M  V30 1518 N 144.854 0.36279 1.53368 0
M  V30 1519 C 145.784 -0.476976 2.28576 0
M  V30 1520 C 146.765 -1.08631 1.30894 0
M  V30 1521 O 147.95 -1.10409 1.59761 0
M  V30 1522 C 145.08 -1.61828 3.07293 0
M  V30 1523 C 144.034 -1.13633 4.1264 0
M  V30 1524 C 143.36 -2.36766 4.79423 0
M  V30 1525 C 144.66 -0.223061 5.21823 0
M  V30 1526 H 146.354 0.150474 2.99022 0
M  V30 1527 H 143.9 0.0738103 1.43811 0
M  V30 1528 H 145.853 -2.21237 3.58653 0
M  V30 1529 H 144.577 -2.27292 2.34533 0
M  V30 1530 H 143.236 -0.564945 3.62221 0
M  V30 1531 H 142.884 -3.0068 4.03238 0
M  V30 1532 H 142.584 -2.05192 5.50609 0
M  V30 1533 H 144.108 -2.96865 5.33576 0
M  V30 1534 H 145.522 -0.724545 5.68703 0
M  V30 1535 H 143.919 0.001678 6.001 0
M  V30 1536 H 144.989 0.735553 4.79289 0
M  V30 1537 N 146.332 -1.57332 0.0918853 0
M  V30 1538 C 147.748 -1.57389 -0.264766 0
M  V30 1539 C 147.948 -1.10281 -1.68643 0
M  V30 1540 O 147.004 -0.777801 -2.40222 0
M  V30 1541 C 148.317 -3.00648 -0.0561195 0
M  V30 1542 C 149.865 -3.12754 -0.124116 0
M  V30 1543 C 150.34 -4.57965 0.0564972 0
M  V30 1544 N 151.831 -4.632 0.00155611 0
M  V30 1545 C 152.566 -5.73281 0.116598 0
M  V30 1546 N 152.062 -6.92208 0.286294 0
M  V30 1547 N 153.855 -5.6207 0.0580973 0
M  V30 1548 H 146.006 -1.86262 1.02079 0
M  V30 1549 H 148.269 -0.859579 0.399786 0
M  V30 1550 H 147.975 -3.393 0.925669 0
M  V30 1551 H 147.849 -3.68623 -0.799823 0
M  V30 1552 H 150.236 -2.73976 -1.09641 0
M  V30 1553 H 150.317 -2.47377 0.651024 0
M  V30 1554 H 149.961 -4.97436 1.02564 0
M  V30 1555 H 149.891 -5.21399 -0.738297 0
M  V30 1556 H 152.382 -3.77686 -0.127192 0
M  V30 1557 H 152.695 -7.71934 0.365676 0
M  V30 1558 H 151.04 -6.94254 0.32192 0
M  V30 1559 H 154.231 -4.68043 -0.0733204 0
M  V30 1560 H 154.404 -6.47824 0.151203 0
M  V30 1561 N 147.81 0.181792 -1.56548 0
M  V30 1562 C 149.038 0.915947 -1.85521 0
M  V30 1563 C 149.453 1.76282 -0.676016 0
M  V30 1564 O 148.81 1.79012 0.355077 0
M  V30 1565 C 148.861 1.80126 -3.13427 0
M  V30 1566 O 148.582 0.988562 -4.26801 0
M  V30 1567 C 150.083 2.64597 -3.55673 0
M  V30 1568 H 147.303 0.26661 -0.61576 0
M  V30 1569 H 149.847 0.185039 -2.03661 0
M  V30 1570 H 148.002 2.48563 -2.97145 0
M  V30 1571 H 148.416 1.59308 -4.99721 0
M  V30 1572 H 149.89 3.2235 -4.48101 0
M  V30 1573 H 150.367 3.38958 -2.79292 0
M  V30 1574 H 150.973 2.0151 -3.74532 0
M  V30 1575 N 149.288 1.51039 0.449983 0
M  V30 1576 C 150.537 1.62317 1.19733 0
M  V30 1577 C 150.85 0.339101 1.92638 0
M  V30 1578 O 152.056 0.331069 2.69474 0
M  V30 1579 C 150.512 2.86608 2.17678 0
M  V30 1580 C 150.12 4.21972 1.50479 0
M  V30 1581 C 151.864 3.07239 2.92924 0
M  V30 1582 C 149.771 5.37426 2.46834 0
M  V30 1583 H 148.701 0.604532 0.450619 0
M  V30 1584 H 151.352 1.77494 0.465625 0
M  V30 1585 H 149.734 2.65037 2.94231 0
M  V30 1586 H 150.908 4.53878 0.795716 0
M  V30 1587 H 149.223 4.07117 0.874344 0
M  V30 1588 H 151.82 3.90668 3.65079 0
M  V30 1589 H 152.163 2.19807 3.5354 0
M  V30 1590 H 152.696 3.29091 2.23481 0
M  V30 1591 H 149.435 6.27079 1.90926 0
M  V30 1592 H 148.955 5.09912 3.15832 0
M  V30 1593 H 150.634 5.68862 3.08228 0
M  V30 1594 N 150.766 -0.704594 1.40972 0
M  V30 1595 C 151.729 -1.80035 1.41845 0
M  V30 1596 C 152.729 -1.57774 0.310474 0
M  V30 1597 O 153.919 -1.64613 0.56992 0
M  V30 1598 C 151.051 -3.18284 1.22098 0
M  V30 1599 H 152.244 -1.80658 2.3938 0
M  V30 1600 H 149.797 -0.911329 1.26982 0
M  V30 1601 H 150.532 -3.23306 0.253672 0
M  V30 1602 H 150.317 -3.35843 2.02366 0
M  V30 1603 H 151.807 -3.98289 1.25522 0
M  V30 1604 N 152.244 -1.26651 -0.937939 0
M  V30 1605 C 153.66 -1.03834 -1.21205 0
M  V30 1606 C 153.86 0.234502 -2.00131 0
M  V30 1607 O 152.916 0.942767 -2.3424 0
M  V30 1608 C 154.229 -2.27167 -1.97017 0
M  V30 1609 C 155.777 -2.32101 -2.09996 0
M  V30 1610 C 156.252 -3.55136 -2.8921 0
M  V30 1611 N 157.743 -3.55632 -2.96783 0
M  V30 1612 C 158.478 -4.475 -3.58512 0
M  V30 1613 N 157.974 -5.4966 -4.21717 0
M  V30 1614 N 159.767 -4.35145 -3.55816 0
M  V30 1615 H 151.918 -2.08398 -0.410391 0
M  V30 1616 H 154.181 -0.916031 -0.244114 0
M  V30 1617 H 153.887 -3.19765 -1.46434 0
M  V30 1618 H 153.761 -2.31672 -2.97671 0
M  V30 1619 H 156.148 -1.40015 -2.59769 0
M  V30 1620 H 156.229 -2.31605 -1.08594 0
M  V30 1621 H 155.873 -4.47553 -2.40123 0
M  V30 1622 H 155.803 -3.5288 -3.90875 0
M  V30 1623 H 158.294 -2.81743 -2.51852 0
M  V30 1624 H 158.607 -6.15943 -4.66727 0
M  V30 1625 H 156.952 -5.53514 -4.20294 0
M  V30 1626 H 160.143 -3.5455 -3.05634 0
M  V30 1627 H 160.316 -5.06934 -4.03636 0
M  V30 1628 N 153.722 1.14298 -1.08507 0
M  V30 1629 C 154.999 1.81544 -0.728088 0
M  V30 1630 C 155.379 1.95838 0.78808 0
M  V30 1631 O 154.727 1.51904 1.70697 0
M  V30 1632 C 154.937 3.17169 -1.45619 0
M  V30 1633 C 156.285 3.9265 -1.61591 0
M  V30 1634 O 157.309 3.26762 -1.41793 0
M  V30 1635 O 156.168 5.10807 -1.94263 0
M  V30 1636 H 153.262 0.78491 -0.260471 0
M  V30 1637 H 155.808 1.21307 -1.18671 0
M  V30 1638 H 154.58 3.01934 -2.489 0
M  V30 1639 H 154.203 3.851 -0.989124 0
M  V30 1640 N 155.201 0.870884 1.31352 0
M  V30 1641 C 156.431 0.496049 2.00557 0
M  V30 1642 C 156.839 -0.916241 1.65534 0
M  V30 1643 O 156.182 -1.61188 0.881134 0
M  V30 1644 C 156.244 0.574418 3.54881 0
M  V30 1645 C 155.908 1.94849 4.1338 0
M  V30 1646 C 156.905 2.91611 4.30417 0
M  V30 1647 C 154.59 2.25005 4.49086 0
M  V30 1648 C 156.584 4.16672 4.82352 0
M  V30 1649 C 154.271 3.50315 5.00722 0
M  V30 1650 C 155.269 4.45964 5.17306 0
M  V30 1651 O 154.957 5.69052 5.67833 0
M  V30 1652 H 154.689 0.191664 0.64826 0
M  V30 1653 H 157.243 1.17409 1.68536 0
M  V30 1654 H 155.473 -0.160549 3.86367 0
M  V30 1655 H 157.162 0.212879 4.05341 0
M  V30 1656 H 157.928 2.69622 4.03149 0
M  V30 1657 H 153.807 1.51332 4.35453 0
M  V30 1658 H 157.351 4.91336 4.95211 0
M  V30 1659 H 153.248 3.72147 5.27424 0
M  V30 1660 H 154.016 5.71236 5.86201 0
M  V30 1661 N 156.679 -1.44442 0.630414 0
M  V30 1662 C 157.925 -2.02894 0.143332 0
M  V30 1663 C 158.28 -1.48697 -1.22094 0
M  V30 1664 O 157.573 -0.661171 -1.79831 0
M  V30 1665 C 157.767 -3.57332 0.0697835 0
M  V30 1666 C 157.596 -4.26512 1.42539 0
M  V30 1667 C 156.366 -4.63516 2.01198 0
M  V30 1668 C 158.564 -4.57004 2.35907 0
M  V30 1669 N 156.546 -5.17661 3.30001 0
M  V30 1670 C 157.917 -5.12223 3.49324 0
M  V30 1671 C 159.972 -4.38955 2.34995 0
M  V30 1672 C 158.675 -5.51295 4.62024 0
M  V30 1673 C 160.701 -4.79075 3.46758 0
M  V30 1674 C 160.063 -5.34407 4.58899 0
M  V30 1675 H 156.162 -0.776041 0.0963523 0
M  V30 1676 H 158.746 -1.75945 0.833752 0
M  V30 1677 H 156.917 -3.83894 -0.589915 0
M  V30 1678 H 158.649 -4.02451 -0.42606 0
M  V30 1679 H 155.404 -4.47811 1.54151 0
M  V30 1680 H 155.828 -5.4921 3.95851 0
M  V30 1681 H 160.47 -3.95469 1.49545 0
M  V30 1682 H 158.188 -5.93736 5.48182 0
M  V30 1683 H 161.774 -4.66824 3.47227 0
M  V30 1684 H 160.654 -5.64878 5.4395 0
M  V30 1685 N 158.157 -0.370918 -1.53173 0
M  V30 1686 C 159.105 0.488101 -2.27421 0
M  V30 1687 C 160.099 1.07884 -1.30604 0
M  V30 1688 O 161.305 1.02143 -1.48212 0
M  V30 1689 H 157.68 0.176134 -0.731082 0
M  V30 1690 H 159.651 -0.159815 -2.97972 0
M  V30 1691 C 158.4 1.61306 -3.08019 0
M  V30 1692 H 157.723 1.1678 -3.82364 0
M  V30 1693 H 159.163 2.18872 -3.63141 0
M  V30 1694 C 157.622 2.55848 -2.19188 0
M  V30 1695 O 158.152 3.58799 -1.80626 0
M  V30 1696 N 156.358 2.2516 -1.83715 0
M  V30 1697 H 155.905 1.41476 -2.15273 0
M  V30 1698 H 155.863 2.8867 -1.24567 0
M  V30 1699 N 159.635 1.57281 -0.100228 0
M  V30 1700 C 160.583 2.15542 0.874328 0
M  V30 1701 C 161.577 1.09962 1.28859 0
M  V30 1702 O 162.783 1.28298 1.26252 0
M  V30 1703 H 159.158 0.689567 0.300003 0
M  V30 1704 H 161.129 2.96241 0.35829 0
M  V30 1705 C 159.878 2.75454 2.1218 0
M  V30 1706 H 159.201 3.56384 1.81193 0
M  V30 1707 H 160.641 3.19781 2.78417 0
M  V30 1708 C 159.1 1.71602 2.89921 0
M  V30 1709 O 159.63 1.15804 3.84646 0
M  V30 1710 N 157.836 1.41975 2.53558 0
M  V30 1711 H 157.383 1.87539 1.76598 0
M  V30 1712 H 157.341 0.727274 3.05873 0
M  V30 1713 N 161.113 -0.173488 1.56642 0
M  V30 1714 C 162.361 -0.888706 1.81512 0
M  V30 1715 C 162.682 -1.82875 0.676872 0
M  V30 1716 O 161.952 -1.93536 -0.303414 0
M  V30 1717 H 160.532 -0.331164 0.669582 0
M  V30 1718 H 163.194 -0.173823 1.94123 0
M  V30 1719 H 162.29 -1.46691 2.75478 0
M  V30 1720 N 162.591 -1.51276 -0.441967 0
M  V30 1721 C 163.84 -1.6295 -1.18871 0
M  V30 1722 C 164.153 -0.349312 -1.92456 0
M  V30 1723 O 165.359 -0.345355 -2.69295 0
M  V30 1724 C 163.815 -2.87759 -2.16155 0
M  V30 1725 C 163.423 -4.22764 -1.48239 0
M  V30 1726 C 165.167 -3.08788 -2.91291 0
M  V30 1727 C 163.074 -5.38728 -2.4398 0
M  V30 1728 H 162.004 -0.606913 -0.447406 0
M  V30 1729 H 164.655 -1.77739 -0.456205 0
M  V30 1730 H 163.037 -2.66593 -2.92821 0
M  V30 1731 H 164.211 -4.54293 -0.771635 0
M  V30 1732 H 162.526 -4.07575 -0.852741 0
M  V30 1733 H 165.123 -3.92599 -3.63002 0
M  V30 1734 H 165.466 -2.21679 -3.5237 0
M  V30 1735 H 165.999 -3.30272 -2.21733 0
M  V30 1736 H 162.738 -6.28082 -1.87598 0
M  V30 1737 H 162.258 -5.1158 -3.13123 0
M  V30 1738 H 163.937 -5.70489 -3.05207 0
M  V30 1739 N 164.069 0.697108 -1.41344 0
M  V30 1740 C 165.485 1.00751 -1.2378 0
M  V30 1741 C 165.685 2.01105 -0.126066 0
M  V30 1742 O 164.741 2.47295 0.51004 0
M  V30 1743 C 166.054 1.53359 -2.58653 0
M  V30 1744 C 167.602 1.6525 -2.65822 0
M  V30 1745 C 168.077 2.2126 -4.01009 0
M  V30 1746 N 169.568 2.28622 -4.02847 0
M  V30 1747 C 170.303 2.72984 -5.04249 0
M  V30 1748 N 169.799 3.16962 -6.16041 0
M  V30 1749 N 171.592 2.72534 -4.91611 0
M  V30 1750 H 163.743 0.0322662 -2.12375 0
M  V30 1751 H 166.006 0.0768853 -0.944877 0
M  V30 1752 H 165.712 0.870773 -3.4075 0
M  V30 1753 H 165.586 2.51597 -2.81032 0
M  V30 1754 H 167.973 2.30644 -1.84086 0
M  V30 1755 H 168.054 0.655614 -2.47256 0
M  V30 1756 H 167.698 1.56482 -4.83193 0
M  V30 1757 H 167.628 3.21698 -4.16915 0
M  V30 1758 H 170.119 1.97585 -3.22131 0
M  V30 1759 H 170.432 3.49434 -6.89287 0
M  V30 1760 H 168.777 3.14875 -6.1958 0
M  V30 1761 H 171.968 2.37525 -4.0336 0
M  V30 1762 H 172.141 3.06789 -5.70775 0
M  V30 1763 N 165.547 1.27147 0.931209 0
M  V30 1764 C 166.497 1.06227 2.01742 0
M  V30 1765 C 167.481 -0.00859065 1.60898 0
M  V30 1766 O 168.673 0.209537 1.75755 0
M  V30 1767 C 165.802 0.707787 3.35924 0
M  V30 1768 C 164.888 1.81661 3.83223 0
M  V30 1769 N 165.279 3.05564 4.03069 0
M  V30 1770 C 163.577 1.70249 4.12227 0
M  V30 1771 C 164.278 3.77697 4.42403 0
M  V30 1772 N 163.254 3.0544 4.49675 0
M  V30 1773 H 167.056 2.00261 2.15111 0
M  V30 1774 H 164.57 1.1781 1.11779 0
M  V30 1775 H 166.567 0.539043 4.134 0
M  V30 1776 H 165.227 -0.224964 3.2392 0
M  V30 1777 H 166.238 3.41363 3.89476 0
M  V30 1778 H 162.915 0.840329 4.08956 0
M  V30 1779 H 164.305 4.84168 4.65866 0
M  V30 1780 N 167.025 -1.13721 1.09112 0
M  V30 1781 C 168.274 -1.84275 0.82009 0
M  V30 1782 C 168.587 -1.84253 -0.656509 0
M  V30 1783 O 169.793 -2.50668 -1.04296 0
M  V30 1784 C 168.249 -3.30825 1.41714 0
M  V30 1785 C 167.857 -3.39244 2.92605 0
M  V30 1786 C 169.601 -4.06443 1.22492 0
M  V30 1787 C 167.508 -4.80047 3.45411 0
M  V30 1788 H 166.438 -0.690387 0.30312 0
M  V30 1789 H 169.089 -1.28146 1.31343 0
M  V30 1790 H 167.471 -3.86737 0.851498 0
M  V30 1791 H 168.645 -2.93344 3.55367 0
M  V30 1792 H 166.96 -2.77088 3.10823 0
M  V30 1793 H 169.557 -5.10387 1.59402 0
M  V30 1794 H 169.9 -4.15972 0.165299 0
M  V30 1795 H 170.433 -3.56852 1.75788 0
M  V30 1796 H 167.172 -4.75709 4.50978 0
M  V30 1797 H 166.692 -5.26455 2.87411 0
M  V30 1798 H 168.371 -5.48957 3.42425 0
M  V30 1799 N 168.503 -0.877838 -1.30888 0
M  V30 1800 C 169.749 -0.493426 -1.96706 0
M  V30 1801 C 170.082 0.953504 -1.6918 0
M  V30 1802 O 169.357 1.67266 -0.992594 0
M  V30 1803 C 169.64 -0.760429 -3.51979 0
M  V30 1804 C 169.493 -2.25747 -3.89048 0
M  V30 1805 C 170.812 -0.232148 -4.39487 0
M  V30 1806 H 167.931 -0.180746 -0.714493 0
M  V30 1807 H 170.573 -1.10052 -1.54882 0
M  V30 1808 H 168.723 -0.243715 -3.87735 0
M  V30 1809 H 170.395 -2.84204 -3.63354 0
M  V30 1810 H 168.638 -2.72694 -3.37373 0
M  V30 1811 H 169.309 -2.39491 -4.97341 0
M  V30 1812 H 171.785 -0.674314 -4.106 0
M  V30 1813 H 170.661 -0.448355 -5.47066 0
M  V30 1814 H 170.922 0.866297 -4.33529 0
M  V30 1815 N 169.982 1.44106 -0.638065 0
M  V30 1816 C 170.945 2.29138 0.0531013 0
M  V30 1817 C 171.945 1.41409 0.765506 0
M  V30 1818 O 173.135 1.63206 0.609046 0
M  V30 1819 C 170.267 3.23144 1.08584 0
M  V30 1820 H 171.46 2.91739 -0.694883 0
M  V30 1821 H 169.013 1.51134 -0.398538 0
M  V30 1822 H 169.748 2.65408 1.86357 0
M  V30 1823 H 169.533 3.87804 0.578852 0
M  V30 1824 H 171.023 3.87004 1.56899 0
M  V30 1825 N 171.46 0.379036 1.52974 0
M  V30 1826 C 172.39 -0.452706 2.29069 0
M  V30 1827 C 173.371 -1.07237 1.32039 0
M  V30 1828 O 174.556 -1.08708 1.60923 0
M  V30 1829 C 171.686 -1.5856 3.08992 0
M  V30 1830 C 170.64 -1.0925 4.13822 0
M  V30 1831 C 169.966 -2.31668 4.81907 0
M  V30 1832 C 171.266 -0.167702 5.22031 0
M  V30 1833 H 172.96 0.182181 2.98845 0
M  V30 1834 H 170.506 0.0890592 1.43724 0
M  V30 1835 H 172.459 -2.1742 3.6098 0
M  V30 1836 H 171.183 -2.24792 2.36931 0
M  V30 1837 H 169.842 -0.526494 3.628 0
M  V30 1838 H 169.49 -2.96386 4.06404 0
M  V30 1839 H 169.19 -1.9934 5.52754 0
M  V30 1840 H 170.714 -2.91189 5.36695 0
M  V30 1841 H 172.128 -0.664186 5.6944 0
M  V30 1842 H 170.525 0.0653265 6.00064 0
M  V30 1843 H 171.595 0.786347 4.78482 0
M  V30 1844 N 172.938 -1.57226 0.108567 0
M  V30 1845 C 174.354 -1.5766 -0.248058 0
M  V30 1846 C 174.554 -1.12063 -1.67464 0
M  V30 1847 O 173.61 -0.803236 -2.39383 0
M  V30 1848 C 174.923 -3.0069 -0.0242287 0
M  V30 1849 C 176.471 -3.12868 -0.0909372 0
M  V30 1850 C 176.946 -4.57879 0.105067 0
M  V30 1851 N 178.437 -4.63172 0.0506846 0
M  V30 1852 C 179.172 -5.73126 0.177396 0
M  V30 1853 N 178.668 -6.91866 0.359696 0
M  V30 1854 N 180.461 -5.61977 0.117709 0
M  V30 1855 H 172.612 -1.85169 1.04049 0
M  V30 1856 H 174.875 -0.85529 0.40888 0
M  V30 1857 H 174.581 -3.38299 0.961604 0
M  V30 1858 H 174.455 -3.6945 -0.76068 0
M  V30 1859 H 176.842 -2.75124 -1.06729 0
M  V30 1860 H 176.923 -2.46672 0.677225 0
M  V30 1861 H 176.567 -4.96321 1.07834 0
M  V30 1862 H 176.497 -5.22153 -0.682954 0
M  V30 1863 H 178.988 -3.778 -0.0871266 0
M  V30 1864 H 179.301 -7.71503 0.447529 0
M  V30 1865 H 177.646 -6.93874 0.395536 0
M  V30 1866 H 180.837 -4.68094 -0.0236741 0
M  V30 1867 H 181.01 -6.47627 0.219905 0
M  V30 1868 N 174.416 0.165178 -1.56732 0
M  V30 1869 C 175.664 0.879068 -1.8198 0
M  V30 1870 C 175.985 1.82514 -0.686561 0
M  V30 1871 O 175.255 1.93694 0.293146 0
M  V30 1872 H 173.835 0.327608 -0.671329 0
M  V30 1873 H 176.497 0.163526 -1.94213 0
M  V30 1874 H 175.593 1.45228 -2.76252 0
M  V30 1875 N 175.894 1.51508 0.433938 0
M  V30 1876 C 177.171 1.54888 1.19453 0
M  V30 1877 C 177.551 0.315154 2.08734 0
M  V30 1878 O 176.899 -0.699558 2.17528 0
M  V30 1879 C 177.109 2.86467 1.99342 0
M  V30 1880 C 178.457 3.38545 2.56267 0
M  V30 1881 O 179.481 2.88041 2.0955 0
M  V30 1882 O 178.34 4.26675 3.41483 0
M  V30 1883 H 175.434 0.622863 0.544032 0
M  V30 1884 H 177.98 1.63823 0.442732 0
M  V30 1885 H 176.752 3.67718 1.33788 0
M  V30 1886 H 176.375 2.8071 2.8158 0
M  V30 1887 N 177.372 -0.689602 1.41712 0
M  V30 1888 C 178.302 -1.81577 1.46806 0
M  V30 1889 C 179.283 -1.66945 0.326105 0
M  V30 1890 O 180.468 -1.86588 0.538377 0
M  V30 1891 C 177.598 -3.19762 1.35535 0
M  V30 1892 C 176.552 -3.49107 2.47605 0
M  V30 1893 C 175.878 -4.86711 2.21397 0
M  V30 1894 C 177.178 -3.47483 3.89939 0
M  V30 1895 H 178.872 -1.7757 2.41058 0
M  V30 1896 H 176.418 -0.852887 1.16025 0
M  V30 1897 H 178.371 -3.98263 1.3771 0
M  V30 1898 H 177.095 -3.24409 0.377708 0
M  V30 1899 H 175.754 -2.72959 2.44722 0
M  V30 1900 H 175.402 -4.8799 1.21961 0
M  V30 1901 H 175.102 -5.0731 2.96497 0
M  V30 1902 H 176.626 -5.67515 2.25297 0
M  V30 1903 H 178.04 -4.1598 3.94505 0
M  V30 1904 H 176.437 -3.79615 4.64771 0
M  V30 1905 H 177.507 -2.46341 4.17665 0
M  V30 1906 N 178.85 -1.27639 -0.924453 0
M  V30 1907 C 180.261 -1.12834 -1.48746 0
M  V30 1908 C 180.612 0.285505 -1.94112 0
M  V30 1909 O 179.737 1.17874 -1.81479 0
M  V30 1910 C 180.332 -2.04217 -2.70334 0
M  V30 1911 C 178.891 -1.93509 -3.22848 0
M  V30 1912 C 178.038 -1.96583 -1.95577 0
M  V30 1913 H 180.989 -1.40484 -0.738233 0
M  V30 1914 H 181.01 -1.59989 -3.4523 0
M  V30 1915 H 180.522 -3.07111 -2.37285 0
M  V30 1916 H 178.623 -0.936131 -3.60649 0
M  V30 1917 H 178.736 -2.79917 -3.88823 0
M  V30 1918 H 177.1 -1.4085 -2.12211 0
M  V30 1919 H 177.883 -3.01137 -1.64837 0
M  V30 1920 N 180.328 1.1314 -1.09713 0
M  V30 1921 C 181.739 1.66029 -0.853885 0
M  V30 1922 C 182.09 1.86241 0.617142 0
M  V30 1923 O 181.215 1.5834 1.47503 0
M  V30 1924 C 181.81 3.01599 -1.5435 0
M  V30 1925 C 180.369 3.51467 -1.34714 0
M  V30 1926 C 179.516 2.26648 -1.59769 0
M  V30 1927 H 182.467 0.970226 -1.25588 0
M  V30 1928 H 182.488 3.67709 -0.978267 0
M  V30 1929 H 182 2.86856 -2.6141 0
M  V30 1930 H 180.101 3.71408 -0.297838 0
M  V30 1931 H 180.214 4.314 -2.08401 0
M  V30 1932 H 178.578 2.33385 -1.01998 0
M  V30 1933 H 179.361 2.14467 -2.68065 0
M  V30 1934 N 181.806 0.884767 1.30421 0
M  V30 1935 C 183.054 0.502112 1.95763 0
M  V30 1936 C 183.375 -0.951815 1.70192 0
M  V30 1937 O 182.645 -1.6692 1.0254 0
M  V30 1938 H 181.225 0.182694 0.724315 0
M  V30 1939 H 183.887 1.1278 1.58955 0
M  V30 1940 H 182.983 0.672188 3.04775 0
M  V30 1941 N 183.284 -1.43765 0.645699 0
M  V30 1942 C 184.509 -2.06767 0.161883 0
M  V30 1943 C 184.934 -1.48034 -1.16049 0
M  V30 1944 O 184.292 -0.587369 -1.71522 0
M  V30 1945 C 184.34 -3.60519 0.0762003 0
M  V30 1946 O 183.444 -4.00982 -0.963721 0
M  V30 1947 H 182.785 -0.657675 0.091429 0
M  V30 1948 H 185.315 -1.84397 0.886499 0
M  V30 1949 H 185.325 -4.07853 -0.109604 0
M  V30 1950 H 184 -4.02646 1.04157 0
M  V30 1951 H 182.577 -3.65253 -0.751312 0
M  V30 1952 N 184.763 -0.387143 -1.52771 0
M  V30 1953 C 186.011 0.195349 -2.01154 0
M  V30 1954 C 186.332 1.475 -1.27549 0
M  V30 1955 O 185.602 1.91878 -0.394924 0
M  V30 1956 H 184.182 0.075178 -0.743207 0
M  V30 1957 H 186.844 -0.518337 -1.87881 0
M  V30 1958 H 185.94 0.407096 -3.09434 0
M  V30 1959 N 186.241 1.57166 -0.116904 0
M  V30 1960 C 187.188 2.15202 0.83408 0
M  V30 1961 C 188.158 1.07644 1.26499 0
M  V30 1962 O 189.343 1.35541 1.34288 0
M  V30 1963 C 186.483 2.75405 2.07957 0
M  V30 1964 C 185.596 3.97264 1.69721 0
M  V30 1965 C 184.731 4.45561 2.89221 0
M  V30 1966 C 183.77 5.59956 2.47215 0
M  V30 1967 N 182.907 6.03006 3.59622 0
M  V30 1968 H 187.747 2.96141 0.332335 0
M  V30 1969 H 185.284 1.46309 0.152349 0
M  V30 1970 H 187.242 3.08439 2.80929 0
M  V30 1971 H 185.872 1.97159 2.55594 0
M  V30 1972 H 184.924 3.70404 0.866316 0
M  V30 1973 H 186.236 4.80226 1.34849 0
M  V30 1974 H 185.39 4.80493 3.7042 0
M  V30 1975 H 184.129 3.61544 3.27318 0
M  V30 1976 H 183.134 5.2463 1.64448 0
M  V30 1977 H 184.359 6.45738 2.10238 0
M  V30 1978 H 182.305 5.21931 3.97396 0
M  V30 1979 H 182.222 6.80819 3.28667 0
M  V30 1980 H 183.49 6.42576 4.41267 0
M  V30 1981 N 187.719 -0.156864 1.56817 0
M  V30 1982 C 189.13 -0.717916 1.72345 0
M  V30 1983 C 189.481 -1.82124 0.729747 0
M  V30 1984 O 188.606 -2.16141 -0.105781 0
M  V30 1985 C 189.201 -1.30904 3.12489 0
M  V30 1986 C 187.76 -1.81676 3.29653 0
M  V30 1987 C 186.907 -0.701349 2.68284 0
M  V30 1988 H 189.858 0.0686989 1.58551 0
M  V30 1989 H 189.879 -2.17882 3.11942 0
M  V30 1990 H 189.391 -0.505796 3.8479 0
M  V30 1991 H 187.492 -2.64598 2.62333 0
M  V30 1992 H 187.605 -1.95226 4.3752 0
M  V30 1993 H 185.969 -1.12548 2.28484 0
M  V30 1994 H 186.752 0.0902846 3.43181 0
M  V30 1995 N 189.197 -1.51736 -0.425897 0
M  V30 1996 C 190.107 -1.76738 -1.54275 0
M  V30 1997 C 191.123 -0.65211 -1.61318 0
M  V30 1998 O 192.299 -0.935654 -1.78346 0
M  V30 1999 C 189.364 -1.89755 -2.90162 0
M  V30 2000 C 188.425 -3.13633 -2.93143 0
M  V30 2001 C 187.658 -3.2602 -4.22548 0
M  V30 2002 O 187.881 -2.44067 -5.15546 0
M  V30 2003 O 186.815 -4.19071 -4.32046 0
M  V30 2004 H 190.641 -2.71502 -1.36089 0
M  V30 2005 H 188.226 -1.36376 -0.610069 0
M  V30 2006 H 190.108 -2.00236 -3.70788 0
M  V30 2007 H 188.783 -0.981785 -3.08452 0
M  V30 2008 H 187.69 -3.08622 -2.11431 0
M  V30 2009 H 189.023 -4.04936 -2.798 0
M  V30 2010 N 190.675 0.682077 -1.42076 0
M  V30 2011 C 191.608 1.80666 -1.3941 0
M  V30 2012 C 192.586 1.60518 -0.25939 0
M  V30 2013 O 193.77 1.83088 -0.448456 0
M  V30 2014 C 190.897 3.17556 -1.17796 0
M  V30 2015 C 189.943 3.56468 -2.34164 0
M  V30 2016 S 190.776 3.59729 -3.96681 0
M  V30 2017 C 191.932 4.99323 -3.77395 0
M  V30 2018 H 192.165 1.82652 -2.34575 0
M  V30 2019 H 189.698 0.852062 -1.2876 0
M  V30 2020 H 191.656 3.96575 -1.06012 0
M  V30 2021 H 190.317 3.13164 -0.242279 0
M  V30 2022 H 189.51 4.5595 -2.1477 0
M  V30 2023 H 189.112 2.84792 -2.42425 0
M  V30 2024 H 191.404 5.87202 -3.37935 0
M  V30 2025 H 192.347 5.23763 -4.76527 0
M  V30 2026 H 192.755 4.71498 -3.10403 0
M  V30 2027 N 192.153 1.28127 0.917671 0
M  V30 2028 C 193.383 1.17722 1.6978 0
M  V30 2029 C 193.791 -0.267261 1.87303 0
M  V30 2030 O 193.134 -1.19286 1.39702 0
M  V30 2031 C 193.196 1.79958 3.11216 0
M  V30 2032 C 192.86 3.29187 3.16993 0
M  V30 2033 C 193.857 4.25679 2.98485 0
M  V30 2034 C 191.542 3.70075 3.39632 0
M  V30 2035 C 193.536 5.61035 3.02521 0
M  V30 2036 C 191.223 5.05557 3.433 0
M  V30 2037 C 192.221 6.00847 3.24764 0
M  V30 2038 O 191.909 7.33859 3.28187 0
M  V30 2039 H 191.641 0.409788 0.537634 0
M  V30 2040 H 194.195 1.69694 1.15728 0
M  V30 2041 H 192.425 1.22475 3.66793 0
M  V30 2042 H 194.114 1.64125 3.71238 0
M  V30 2043 H 194.88 3.95426 2.80826 0
M  V30 2044 H 190.759 2.96373 3.53106 0
M  V30 2045 H 194.303 6.35388 2.87971 0
M  V30 2046 H 190.2 5.35462 3.60486 0
M  V30 2047 H 190.968 7.42436 3.44575 0
M  V30 2048 N 193.631 -1.12557 1.10312 0
M  V30 2049 C 194.594 -2.16434 0.75424 0
M  V30 2050 C 195.594 -1.59278 -0.220685 0
M  V30 2051 O 196.784 -1.742 0.00230591 0
M  V30 2052 C 193.916 -3.40699 0.116987 0
M  V30 2053 H 195.109 -2.48811 1.67431 0
M  V30 2054 H 192.662 -1.27542 0.903475 0
M  V30 2055 H 193.397 -3.13921 -0.813877 0
M  V30 2056 H 193.182 -3.83459 0.818613 0
M  V30 2057 H 194.672 -4.17451 -0.111387 0
M  V30 2058 N 195.109 -0.891671 -1.2995 0
M  V30 2059 C 196.334 -0.527932 -2.00568 0
M  V30 2060 C 196.759 0.877969 -1.66353 0
M  V30 2061 O 196.117 1.58301 -0.883762 0
M  V30 2062 C 196.165 -0.717745 -3.53385 0
M  V30 2063 O 195.269 0.233376 -4.11739 0
M  V30 2064 H 194.61 -0.20722 -0.630837 0
M  V30 2065 H 197.14 -1.20105 -1.65638 0
M  V30 2066 H 197.15 -0.619307 -4.03272 0
M  V30 2067 H 195.825 -1.74276 -3.77625 0
M  V30 2068 H 194.402 0.0880706 -3.72796 0
M  V30 2069 N 196.587 1.43421 -0.653314 0
M  V30 2070 C 197.864 1.95361 -0.0966581 0
M  V30 2071 C 198.244 1.59461 1.38331 0
M  V30 2072 O 197.592 0.879777 2.10884 0
M  V30 2073 C 197.802 3.47311 -0.342988 0
M  V30 2074 C 199.15 4.23875 -0.24798 0
M  V30 2075 O 200.174 3.55133 -0.275553 0
M  V30 2076 O 199.033 5.4623 -0.171771 0
M  V30 2077 H 196.127 0.826945 0.00956291 0
M  V30 2078 H 198.673 1.5336 -0.726558 0
M  V30 2079 H 197.445 3.66569 -1.36906 0
M  V30 2080 H 197.068 3.9631 0.319975 0
M  V30 2081 N 198.065 0.39524 1.52563 0
M  V30 2082 C 198.995 -0.428384 2.29537 0
M  V30 2083 C 199.976 -1.05831 1.33169 0
M  V30 2084 O 201.161 -1.06995 1.62067 0
M  V30 2085 C 198.291 -1.55274 3.10656 0
M  V30 2086 C 197.245 -1.04855 4.14957 0
M  V30 2087 C 196.571 -2.26543 4.84337 0
M  V30 2088 C 197.871 -0.112324 5.22179 0
M  V30 2089 H 199.565 0.213867 2.98635 0
M  V30 2090 H 197.111 0.104298 1.43622 0
M  V30 2091 H 199.064 -2.1358 3.63265 0
M  V30 2092 H 197.788 -2.22266 2.39302 0
M  V30 2093 H 196.447 -0.487985 3.63338 0
M  V30 2094 H 196.095 -2.92059 4.09525 0
M  V30 2095 H 195.795 -1.93466 5.54837 0
M  V30 2096 H 197.319 -2.85481 5.39753 0
M  V30 2097 H 198.733 -0.603752 5.70112 0
M  V30 2098 H 197.13 0.128968 5.99961 0
M  V30 2099 H 198.2 0.837052 4.77621 0
M  V30 2100 N 199.544 -1.57102 0.125237 0
M  V30 2101 C 200.79 -1.95697 -0.532035 0
M  V30 2102 C 201.123 -1.009 -1.6593 0
M  V30 2103 O 200.398 -0.047347 -1.94442 0
M  V30 2104 C 200.681 -3.44181 -1.05884 0
M  V30 2105 C 200.534 -4.49752 0.0654392 0
M  V30 2106 C 201.853 -3.94655 -1.9477 0
M  V30 2107 H 198.972 -0.711571 -0.191925 0
M  V30 2108 H 201.614 -1.88923 0.20206 0
M  V30 2109 H 199.764 -3.50085 -1.68442 0
M  V30 2110 H 201.436 -4.55943 0.700982 0
M  V30 2111 H 199.679 -4.27653 0.727709 0
M  V30 2112 H 200.35 -5.50924 -0.344505 0
M  V30 2113 H 202.826 -3.91094 -1.42074 0
M  V30 2114 H 201.702 -4.99057 -2.28546 0
M  V30 2115 H 201.963 -3.35718 -2.87656 0
M  V30 2116 N 201.022 0.148545 -1.56898 0
M  V30 2117 C 202.25 0.876389 -1.87422 0
M  V30 2118 C 202.665 1.74809 -0.713256 0
M  V30 2119 O 202.022 1.79725 0.317025 0
M  V30 2120 C 202.073 1.73438 -3.17178 0
M  V30 2121 O 201.794 0.897809 -4.28802 0
M  V30 2122 C 203.295 2.56993 -3.61205 0
M  V30 2123 H 200.515 0.253489 -0.621277 0
M  V30 2124 H 203.059 0.141798 -2.04008 0
M  V30 2125 H 201.214 2.42205 -3.0235 0
M  V30 2126 H 201.628 1.48672 -5.02988 0
M  V30 2127 H 203.102 3.12773 -4.54838 0
M  V30 2128 H 203.579 3.32958 -2.86419 0
M  V30 2129 H 204.185 1.9352 -3.78722 0
M  V30 2130 N 202.5 1.5196 0.417844 0
M  V30 2131 C 203.43 1.77634 1.51554 0
M  V30 2132 C 204.411 0.626918 1.58126 0
M  V30 2133 O 205.596 0.871632 1.7354 0
M  V30 2134 C 202.726 1.91911 2.8946 0
M  V30 2135 C 201.68 3.07463 2.97743 0
M  V30 2136 C 201.006 3.06951 4.37819 0
M  V30 2137 C 202.306 4.47082 2.70027 0
M  V30 2138 H 204 2.6955 1.3032 0
M  V30 2139 H 201.546 1.29706 0.625492 0
M  V30 2140 H 203.499 2.08455 3.6623 0
M  V30 2141 H 202.223 0.966598 3.11969 0
M  V30 2142 H 200.882 2.90656 2.23416 0
M  V30 2143 H 200.53 2.09438 4.57323 0
M  V30 2144 H 200.23 3.84556 4.44286 0
M  V30 2145 H 201.754 3.25613 5.16535 0
M  V30 2146 H 203.168 4.6414 3.36522 0
M  V30 2147 H 201.565 5.2654 2.87881 0
M  V30 2148 H 202.635 4.55777 1.65514 0
M  V30 2149 N 203.978 -0.674533 1.42435 0
M  V30 2150 C 204.908 -1.80009 1.48724 0
M  V30 2151 C 205.889 -1.6659 0.343793 0
M  V30 2152 O 207.074 -1.86007 0.558137 0
M  V30 2153 C 204.204 -3.18306 1.38919 0
M  V30 2154 C 203.158 -3.46461 2.51294 0
M  V30 2155 C 202.484 -4.84335 2.26547 0
M  V30 2156 C 203.784 -3.43328 3.93603 0
M  V30 2157 H 205.478 -1.75004 2.42928 0
M  V30 2158 H 203.024 -0.840533 1.16923 0
M  V30 2159 H 204.977 -3.9678 1.41927 0
M  V30 2160 H 203.701 -3.2399 0.412094 0
M  V30 2161 H 202.36 -2.70348 2.47604 0
M  V30 2162 H 202.008 -4.86669 1.2713 0
M  V30 2163 H 201.708 -5.04136 3.01861 0
M  V30 2164 H 203.232 -5.65094 2.31304 0
M  V30 2165 H 204.646 -4.11772 3.98894 0
M  V30 2166 H 203.043 -3.74664 4.68771 0
M  V30 2167 H 204.113 -2.41897 4.20255 0
M  V30 2168 N 205.456 -1.28612 -0.910864 0
M  V30 2169 C 206.403 -1.12786 -2.01365 0
M  V30 2170 C 207.373 -0.024201 -1.66082 0
M  V30 2171 O 208.558 -0.189667 -1.89855 0
M  V30 2172 C 205.698 -0.798743 -3.35729 0
M  V30 2173 C 204.811 -1.98173 -3.83864 0
M  V30 2174 C 203.946 -1.59298 -5.06752 0
M  V30 2175 C 202.985 -2.74245 -5.47226 0
M  V30 2176 N 202.122 -2.35842 -6.61304 0
M  V30 2177 H 206.962 -2.07142 -2.14234 0
M  V30 2178 H 204.499 -1.03093 -1.0493 0
M  V30 2179 H 206.457 -0.588662 -4.13026 0
M  V30 2180 H 205.087 0.10789 -3.2262 0
M  V30 2181 H 204.139 -2.30386 -3.02699 0
M  V30 2182 H 205.451 -2.84343 -4.09818 0
M  V30 2183 H 204.605 -1.34513 -5.916 0
M  V30 2184 H 203.344 -0.702618 -4.82612 0
M  V30 2185 H 202.349 -2.99725 -4.60918 0
M  V30 2186 H 203.574 -3.63928 -5.73353 0
M  V30 2187 H 201.52 -1.49279 -6.38789 0
M  V30 2188 H 201.437 -3.15546 -6.86998 0
M  V30 2189 H 202.705 -2.14348 -7.4945 0
M  V30 2190 N 206.934 1.1197 -1.10907 0
M  V30 2191 C 207.844 2.21433 -0.774896 0
M  V30 2192 C 208.86 1.72478 0.229657 0
M  V30 2193 O 210.036 2.01288 0.0672008 0
M  V30 2194 C 207.101 3.4602 -0.216986 0
M  V30 2195 C 206.162 4.09791 -1.27944 0
M  V30 2196 C 205.395 5.28431 -0.748055 0
M  V30 2197 O 205.618 5.68823 0.423833 0
M  V30 2198 O 204.552 5.82644 -1.51027 0
M  V30 2199 H 208.378 2.5242 -1.68873 0
M  V30 2200 H 205.963 1.20399 -0.884555 0
M  V30 2201 H 207.845 4.21304 0.090059 0
M  V30 2202 H 206.52 3.16698 0.669633 0
M  V30 2203 H 205.427 3.36265 -1.63941 0
M  V30 2204 H 206.76 4.4328 -2.13925 0
M  V30 2205 N 208.412 0.89855 1.29475 0
M  V30 2206 C 209.658 0.524658 1.95896 0
M  V30 2207 C 209.991 -0.926468 1.70676 0
M  V30 2208 O 209.266 -1.65665 1.01908 0
M  V30 2209 C 209.549 0.81633 3.50725 0
M  V30 2210 C 209.402 2.31907 3.85408 0
M  V30 2211 C 210.721 0.302038 4.39062 0
M  V30 2212 H 207.84 0.19209 0.711527 0
M  V30 2213 H 210.482 1.12502 1.53112 0
M  V30 2214 H 208.632 0.305369 3.87298 0
M  V30 2215 H 210.304 2.89949 3.58786 0
M  V30 2216 H 208.547 2.78027 3.32992 0
M  V30 2217 H 209.218 2.47373 4.93468 0
M  V30 2218 H 211.694 0.739551 4.09475 0
M  V30 2219 H 210.57 0.535331 5.46283 0
M  V30 2220 H 210.831 -0.797216 4.34853 0
M  V30 2221 N 209.89 -1.43072 0.660911 0
M  V30 2222 C 210.853 -2.29194 -0.0166406 0
M  V30 2223 C 211.853 -1.42609 -0.742912 0
M  V30 2224 O 213.043 -1.64155 -0.583004 0
M  V30 2225 C 210.175 -3.24831 -1.0343 0
M  V30 2226 H 211.368 -2.90596 0.741208 0
M  V30 2227 H 208.921 -1.5048 0.422532 0
M  V30 2228 H 209.656 -2.68339 -1.82111 0
M  V30 2229 H 209.441 -3.88676 -0.517082 0
M  V30 2230 H 210.931 -3.89451 -1.50723 0
M  V30 2231 N 211.368 -0.403325 -1.52352 0
M  V30 2232 C 212.645 0.232611 -1.94212 0
M  V30 2233 C 213.025 1.63133 -1.33981 0
M  V30 2234 O 212.373 2.22659 -0.513344 0
M  V30 2235 C 212.583 0.244811 -3.4814 0
M  V30 2236 C 213.931 0.46698 -4.22024 0
M  V30 2237 O 214.955 0.324419 -3.5472 0
M  V30 2238 O 213.814 0.74747 -5.41364 0
M  V30 2239 H 210.908 0.148223 -0.813609 0
M  V30 2240 H 213.454 -0.458848 -1.63379 0
M  V30 2241 H 212.226 -0.734378 -3.84347 0
M  V30 2242 H 211.849 0.980611 -3.85318 0
M  V30 2243 N 212.846 1.57033 -0.133567 0
M  V30 2244 C 214.093 1.95686 0.520877 0
M  V30 2245 C 214.421 1.0177 1.6575 0
M  V30 2246 O 213.676 0.0443195 1.9565 0
M  V30 2247 C 213.975 3.40674 1.08057 0
M  V30 2248 C 213.641 4.50855 0.0637899 0
M  V30 2249 C 212.303 4.80716 -0.215757 0
M  V30 2250 C 214.655 5.17398 -0.62835 0
M  V30 2251 C 211.983 5.74433 -1.19348 0
M  V30 2252 C 214.335 6.12167 -1.5948 0
M  V30 2253 C 212.999 6.40414 -1.88218 0
M  V30 2254 H 212.269 0.716067 0.190602 0
M  V30 2255 H 214.916 1.9026 -0.217556 0
M  V30 2256 H 213.221 3.42865 1.89606 0
M  V30 2257 H 214.918 3.67902 1.59529 0
M  V30 2258 H 211.508 4.27605 0.291855 0
M  V30 2259 H 215.692 4.94472 -0.425562 0
M  V30 2260 H 210.948 5.94616 -1.42272 0
M  V30 2261 H 215.122 6.6281 -2.13671 0
M  V30 2262 H 212.749 7.12838 -2.64133 0
M  V30 2263 N 214.325 -0.140222 1.56975 0
M  V30 2264 C 215.602 -0.880769 1.74648 0
M  V30 2265 C 215.982 -1.99036 0.703404 0
M  V30 2266 O 215.33 -2.26821 -0.27648 0
M  V30 2267 C 215.54 -1.417 3.18939 0
M  V30 2268 C 216.888 -1.87774 3.80823 0
M  V30 2269 O 217.912 -1.51427 3.2241 0
M  V30 2270 O 216.771 -2.54827 4.83452 0
M  V30 2271 H 213.865 -0.416713 0.714338 0
M  V30 2272 H 216.411 -0.125618 1.69234 0
M  V30 2273 H 215.183 -0.619902 3.86359 0
M  V30 2274 H 214.806 -2.23546 3.28805 0
M  V30 2275 N 215.803 -1.52179 -0.40978 0
M  V30 2276 C 217.052 -1.65434 -1.15388 0
M  V30 2277 C 217.365 -0.390056 -1.91671 0
M  V30 2278 O 218.571 -0.402399 -2.68501 0
M  V30 2279 C 217.027 -2.92279 -2.10003 0
M  V30 2280 C 216.635 -4.25813 -1.39239 0
M  V30 2281 C 218.379 -3.14897 -2.84675 0
M  V30 2282 C 216.286 -5.43782 -2.32498 0
M  V30 2283 H 215.216 -0.616267 -0.434432 0
M  V30 2284 H 217.867 -1.78666 -0.418401 0
M  V30 2285 H 216.249 -2.72744 -2.871 0
M  V30 2286 H 217.423 -4.55828 -0.675099 0
M  V30 2287 H 215.738 -4.09292 -0.766097 0
M  V30 2288 H 218.335 -4.0021 -3.54593 0
M  V30 2289 H 218.678 -2.29103 -3.47588 0
M  V30 2290 H 219.211 -3.34901 -2.14677 0
M  V30 2291 H 215.95 -6.3192 -1.74233 0
M  V30 2292 H 215.47 -5.18106 -3.02201 0
M  V30 2293 H 217.149 -5.76834 -2.93038 0
M  V30 2294 N 217.281 0.66697 -1.42791 0
M  V30 2295 C 218.506 1.46004 -1.47301 0
M  V30 2296 C 218.931 1.87894 -0.0880317 0
M  V30 2297 O 218.289 1.56502 0.915253 0
M  V30 2298 C 218.337 2.68031 -2.41229 0
M  V30 2299 O 217.441 3.6659 -1.88906 0
M  V30 2300 H 216.782 0.43832 -0.49877 0
M  V30 2301 H 219.312 0.817391 -1.87563 0
M  V30 2302 H 219.322 3.1601 -2.58073 0
M  V30 2303 H 217.997 2.36883 -3.41847 0
M  V30 2304 H 216.574 3.25661 -1.81656 0
M  V30 2305 N 218.759 1.29093 0.90403 0
M  V30 2306 C 220.005 1.16986 1.65656 0
M  V30 2307 C 220.338 -0.278925 1.92186 0
M  V30 2308 O 219.613 -1.2019 1.5292 0
M  V30 2309 C 219.896 1.97908 3.0084 0
M  V30 2310 C 219.749 3.50903 2.81403 0
M  V30 2311 C 221.068 1.80208 4.01513 0
M  V30 2312 H 218.187 0.426346 0.601164 0
M  V30 2313 H 220.829 1.58518 1.04747 0
M  V30 2314 H 218.979 1.62616 3.52829 0
M  V30 2315 H 220.651 3.96153 2.36348 0
M  V30 2316 H 218.894 3.76045 2.1627 0
M  V30 2317 H 219.565 4.02791 3.77443 0
M  V30 2318 H 222.041 2.11025 3.58619 0
M  V30 2319 H 220.917 2.39184 4.94047 0
M  V30 2320 H 221.178 0.756119 4.35586 0
M  V30 2321 N 220.237 -1.11381 1.11499 0
M  V30 2322 C 221.2 -2.15622 0.777153 0
M  V30 2323 C 222.2 -1.59504 -0.203779 0
M  V30 2324 O 223.39 -1.74188 0.020782 0
M  V30 2325 C 220.522 -3.40556 0.153116 0
M  V30 2326 H 221.715 -2.47021 1.70061 0
M  V30 2327 H 219.268 -1.26577 0.916952 0
M  V30 2328 H 220.003 -3.14767 -0.780536 0
M  V30 2329 H 219.788 -3.8257 0.859238 0
M  V30 2330 H 221.278 -4.17546 -0.0671044 0
M  V30 2331 N 221.715 -0.905404 -1.28997 0
M  V30 2332 C 222.678 -0.392253 -2.25819 0
M  V30 2333 C 223.678 0.476753 -1.5357 0
M  V30 2334 O 224.868 0.280994 -1.71919 0
M  V30 2335 C 222 0.438588 -3.38067 0
M  V30 2336 H 223.193 -1.24743 -2.72725 0
M  V30 2337 H 220.746 -0.684051 -1.40536 0
M  V30 2338 H 221.481 1.31352 -2.96508 0
M  V30 2339 H 221.266 -0.184167 -3.91667 0
M  V30 2340 H 222.756 0.78873 -4.10084 0
M  V30 2341 N 223.193 1.4272 -0.668489 0
M  V30 2342 C 224.423 2.05668 -0.196063 0
M  V30 2343 C 224.831 1.5028 1.14946 0
M  V30 2344 O 224.174 0.6348 1.72383 0
M  V30 2345 C 224.236 3.59469 -0.0468879 0
M  V30 2346 C 223.9 4.37518 -1.32012 0
M  V30 2347 C 224.897 4.68584 -2.25222 0
M  V30 2348 C 222.582 4.77266 -1.56596 0
M  V30 2349 C 224.576 5.38326 -3.41297 0
M  V30 2350 C 222.263 5.4675 -2.72962 0
M  V30 2351 C 223.261 5.77204 -3.65137 0
M  V30 2352 O 222.949 6.45264 -4.79468 0
M  V30 2353 H 222.681 0.669382 -0.0943599 0
M  V30 2354 H 225.235 1.83954 -0.913788 0
M  V30 2355 H 223.465 3.79817 0.726357 0
M  V30 2356 H 225.154 4.04071 0.384852 0
M  V30 2357 H 225.92 4.38382 -2.07477 0
M  V30 2358 H 221.799 4.52959 -0.857249 0
M  V30 2359 H 225.343 5.62014 -4.13263 0
M  V30 2360 H 221.24 5.76369 -2.90635 0
M  V30 2361 H 222.008 6.63753 -4.78931 0
M  V30 2362 N 224.671 0.411399 1.52136 0
M  V30 2363 C 226.082 -0.0576826 1.86611 0
M  V30 2364 C 226.433 -1.44238 1.33003 0
M  V30 2365 O 225.558 -2.05759 0.670228 0
M  V30 2366 C 226.153 -0.111448 3.38617 0
M  V30 2367 C 224.712 -0.52487 3.72723 0
M  V30 2368 C 223.859 0.299176 2.75681 0
M  V30 2369 H 226.81 0.628368 1.4573 0
M  V30 2370 H 226.831 -0.926252 3.69054 0
M  V30 2371 H 226.343 0.896488 3.77604 0
M  V30 2372 H 224.444 -1.53936 3.39315 0
M  V30 2373 H 224.557 -0.267681 4.78352 0
M  V30 2374 H 222.921 -0.238814 2.53578 0
M  V30 2375 H 223.704 1.3055 3.17508 0
M  V30 2376 N 226.149 -1.5696 0.141893 0
M  V30 2377 C 227.059 -2.20066 -0.812905 0
M  V30 2378 C 228.075 -1.18344 -1.27557 0
M  V30 2379 O 229.251 -1.50902 -1.33381 0
M  V30 2380 C 226.316 -2.80583 -2.03652 0
M  V30 2381 C 225.377 -3.97414 -1.62359 0
M  V30 2382 C 224.61 -4.55036 -2.78887 0
M  V30 2383 O 224.833 -4.11538 -3.94959 0
M  V30 2384 O 223.767 -5.45376 -2.54653 0
M  V30 2385 H 227.593 -3.02157 -0.305746 0
M  V30 2386 H 225.178 -1.49159 -0.0848799 0
M  V30 2387 H 227.06 -3.19067 -2.75272 0
M  V30 2388 H 225.735 -2.01508 -2.5333 0
M  V30 2389 H 224.642 -3.63656 -0.877775 0
M  V30 2390 H 225.975 -4.77994 -1.17401 0
M  V30 2391 N 227.627 0.131896 -1.57047 0
M  V30 2392 C 228.873 0.843179 -1.84441 0
M  V30 2393 C 229.206 1.80129 -0.725749 0
M  V30 2394 O 228.481 1.92624 0.269469 0
M  V30 2395 C 228.764 1.60442 -3.22382 0
M  V30 2396 C 228.617 0.666782 -4.4483 0
M  V30 2397 C 229.936 2.56354 -3.5773 0
M  V30 2398 H 227.055 0.305081 -0.670891 0
M  V30 2399 H 229.697 0.107839 -1.89694 0
M  V30 2400 H 227.847 2.23128 -3.18035 0
M  V30 2401 H 229.519 0.0497646 -4.61273 0
M  V30 2402 H 227.762 -0.022609 -4.33794 0
M  V30 2403 H 228.433 1.23579 -5.37989 0
M  V30 2404 H 230.909 2.0378 -3.62785 0
M  V30 2405 H 229.785 3.06657 -4.5525 0
M  V30 2406 H 230.046 3.38419 -2.84473 0
M  V30 2407 N 229.106 1.52395 0.401703 0
M  V30 2408 C 230.056 1.72649 1.48917 0
M  V30 2409 C 231.04 0.580436 1.50066 0
M  V30 2410 O 232.232 0.83779 1.55917 0
M  V30 2411 C 229.361 1.88729 2.86769 0
M  V30 2412 C 228.447 3.09228 2.90239 0
M  V30 2413 N 228.838 4.31805 2.63396 0
M  V30 2414 C 227.136 3.09214 3.21408 0
M  V30 2415 C 227.837 5.13326 2.73625 0
M  V30 2416 N 226.813 4.48735 3.06819 0
M  V30 2417 H 230.615 2.65058 1.26971 0
M  V30 2418 H 228.129 1.50528 0.609504 0
M  V30 2419 H 230.126 2.01358 3.65049 0
M  V30 2420 H 228.786 0.975252 3.09708 0
M  V30 2421 H 229.797 4.60154 2.37653 0
M  V30 2422 H 226.474 2.27774 3.49893 0
M  V30 2423 H 227.864 6.21003 2.56524 0
M  V30 2424 N 230.584 -0.659388 1.43143 0
M  V30 2425 C 231.995 -1.24041 1.39537 0
M  V30 2426 C 232.346 -1.95963 0.0963364 0
M  V30 2427 O 231.471 -2.00892 -0.804438 0
M  V30 2428 C 232.066 -2.25601 2.52764 0
M  V30 2429 C 230.625 -2.79195 2.52443 0
M  V30 2430 C 229.772 -1.53743 2.30778 0
M  V30 2431 H 232.723 -0.451792 1.52133 0
M  V30 2432 H 232.744 -3.07651 2.23899 0
M  V30 2433 H 232.256 -1.73226 3.47296 0
M  V30 2434 H 230.357 -3.35649 1.61773 0
M  V30 2435 H 230.47 -3.2716 3.50004 0
M  V30 2436 H 228.834 -1.80869 1.79328 0
M  V30 2437 H 229.617 -1.03312 3.27386 0
M  V30 2438 N 232.062 -1.29571 -0.897171 0
M  V30 2439 C 232.972 -1.16808 -2.03453 0
M  V30 2440 C 233.988 -0.0907471 -1.73763 0
M  V30 2441 O 235.164 -0.303312 -1.99103 0
M  V30 2442 C 232.229 -0.848264 -3.36163 0
M  V30 2443 C 231.29 -2.0097 -3.79354 0
M  V30 2444 C 230.523 -1.70505 -5.05731 0
M  V30 2445 O 230.746 -0.62718 -5.66941 0
M  V30 2446 O 229.68 -2.5538 -5.45036 0
M  V30 2447 H 233.506 -2.12325 -2.17144 0
M  V30 2448 H 231.091 -1.09047 -1.02123 0
M  V30 2449 H 232.973 -0.684581 -4.15802 0
M  V30 2450 H 231.648 0.0771071 -3.23608 0
M  V30 2451 H 230.555 -2.22863 -3.00471 0
M  V30 2452 H 231.888 -2.91636 -3.96496 0
M  V30 2453 N 233.54 1.10788 -1.12088 0
M  V30 2454 C 234.503 2.15207 -0.788577 0
M  V30 2455 C 235.503 1.59609 0.195317 0
M  V30 2456 O 236.693 1.74174 -0.0300193 0
M  V30 2457 C 233.825 3.4047 -0.171174 0
M  V30 2458 H 235.018 2.46116 -1.71368 0
M  V30 2459 H 232.571 1.26089 -0.923652 0
M  V30 2460 H 233.306 3.15176 0.763832 0
M  V30 2461 H 233.091 3.82109 -0.879514 0
M  V30 2462 H 234.581 4.17576 0.04496 0
M  V30 2463 N 235.018 0.912232 1.28515 0
M  V30 2464 C 235.965 0.397954 2.27343 0
M  V30 2465 C 236.935 -0.526766 1.57526 0
M  V30 2466 O 238.12 -0.449292 1.85435 0
M  V30 2467 C 235.26 -0.357263 3.43246 0
M  V30 2468 C 234.373 0.599788 4.27816 0
M  V30 2469 C 233.508 -0.173725 5.30916 0
M  V30 2470 C 232.547 0.777039 6.07148 0
M  V30 2471 N 231.684 0.0371398 7.0209 0
M  V30 2472 H 236.524 1.24577 2.70711 0
M  V30 2473 H 234.061 0.625612 1.33133 0
M  V30 2474 H 236.019 -0.8113 4.09236 0
M  V30 2475 H 234.649 -1.16943 3.00872 0
M  V30 2476 H 233.701 1.17235 3.61884 0
M  V30 2477 H 235.013 1.32704 4.80823 0
M  V30 2478 H 234.167 -0.688394 6.02782 0
M  V30 2479 H 232.906 -0.934041 4.78672 0
M  V30 2480 H 231.911 1.3031 5.34134 0
M  V30 2481 H 233.136 1.53689 6.61481 0
M  V30 2482 H 231.082 -0.705213 6.52198 0
M  V30 2483 H 230.999 0.704249 7.52713 0
M  V30 2484 H 232.267 -0.457383 7.78157 0
M  V30 2485 N 236.496 -1.42363 0.676048 0
M  V30 2486 C 237.721 -2.06377 0.205705 0
M  V30 2487 C 238.146 -1.50463 -1.12883 0
M  V30 2488 O 237.504 -0.623619 -1.70237 0
M  V30 2489 C 237.552 -3.60277 0.152655 0
M  V30 2490 O 236.656 -4.02935 -0.87845 0
M  V30 2491 H 235.997 -0.655588 0.105359 0
M  V30 2492 H 238.527 -1.82475 0.925412 0
M  V30 2493 H 238.537 -4.07993 -0.0230675 0
M  V30 2494 H 237.212 -4.00346 1.12675 0
M  V30 2495 H 235.789 -3.66764 -0.673668 0
M  V30 2496 N 237.974 -0.419461 -1.51915 0
M  V30 2497 C 238.937 0.389116 -2.25873 0
M  V30 2498 C 239.937 0.964924 -1.28631 0
M  V30 2499 O 241.127 0.842179 -1.52489 0
M  V30 2500 C 238.259 1.54874 -3.03689 0
M  V30 2501 H 239.452 -0.258799 -2.98781 0
M  V30 2502 H 237.005 -0.172209 -1.55348 0
M  V30 2503 H 237.74 2.23323 -2.35154 0
M  V30 2504 H 237.525 1.14223 -3.75094 0
M  V30 2505 H 239.015 2.12046 -3.59759 0
M  V30 2506 N 239.452 1.56882 -0.150215 0
M  V30 2507 C 240.384 2.14057 0.819286 0
M  V30 2508 C 241.397 1.09082 1.20851 0
M  V30 2509 O 242.586 1.36347 1.15203 0
M  V30 2510 C 239.686 2.65102 2.11127 0
M  V30 2511 C 238.859 3.94511 1.88891 0
M  V30 2512 C 237.918 4.30834 3.02107 0
M  V30 2513 O 236.944 4.99099 2.73659 0
M  V30 2514 N 238.146 3.90676 4.29363 0
M  V30 2515 H 240.911 2.97871 0.330618 0
M  V30 2516 H 238.472 1.61866 0.0332538 0
M  V30 2517 H 240.464 2.86411 2.85921 0
M  V30 2518 H 239.034 1.85994 2.51247 0
M  V30 2519 H 238.254 3.81795 0.981152 0
M  V30 2520 H 239.542 4.7907 1.71376 0
M  V30 2521 H 238.94 3.35677 4.55343 0
M  V30 2522 H 237.497 4.1703 5.00928 0
M  V30 2523 N 240.93 -0.123565 1.57115 0
M  V30 2524 C 241.893 -1.13583 1.99076 0
M  V30 2525 C 242.893 -1.34564 0.880296 0
M  V30 2526 O 244.083 -1.31158 1.14644 0
M  V30 2527 C 241.215 -2.49128 2.32698 0
M  V30 2528 H 242.408 -0.775287 2.89706 0
M  V30 2529 H 239.961 -0.36771 1.51913 0
M  V30 2530 H 240.696 -2.90111 1.44934 0
M  V30 2531 H 240.481 -2.35255 3.13684 0
M  V30 2532 H 241.971 -3.2199 2.65918 0
M  V30 2533 N 242.408 -1.52605 -0.393616 0
M  V30 2534 C 243.685 -1.58001 -1.15304 0
M  V30 2535 C 244.065 -0.370385 -2.07825 0
M  V30 2536 O 243.413 0.641638 -2.19306 0
M  V30 2537 C 243.623 -2.91652 -1.91677 0
M  V30 2538 C 244.971 -3.4522 -2.47201 0
M  V30 2539 O 245.995 -2.93495 -2.01839 0
M  V30 2540 O 244.854 -4.35579 -3.3005 0
M  V30 2541 H 241.948 -0.637068 -0.527327 0
M  V30 2542 H 244.494 -1.64939 -0.399141 0
M  V30 2543 H 243.266 -3.71136 -1.23992 0
M  V30 2544 H 242.889 -2.88077 -2.74039 0
M  V30 2545 N 243.887 0.651787 -1.4349 0
M  V30 2546 C 244.817 1.77621 -1.51569 0
M  V30 2547 C 245.798 1.66022 -0.370253 0
M  V30 2548 O 246.983 1.85095 -0.587658 0
M  V30 2549 C 244.113 3.16056 -1.43966 0
M  V30 2550 C 243.067 3.4242 -2.56774 0
M  V30 2551 C 242.393 4.8067 -2.34223 0
M  V30 2552 C 243.693 3.37023 -3.99015 0
M  V30 2553 H 245.387 1.71117 -2.45681 0
M  V30 2554 H 242.933 0.821825 -1.18246 0
M  V30 2555 H 244.886 3.94472 -1.48221 0
M  V30 2556 H 243.61 3.23293 -0.463586 0
M  V30 2557 H 242.269 2.66375 -2.51873 0
M  V30 2558 H 241.917 4.84585 -1.34856 0
M  V30 2559 H 241.617 4.9927 -3.09844 0
M  V30 2560 H 243.141 5.61342 -2.40265 0
M  V30 2561 H 244.555 4.05374 -4.05395 0
M  V30 2562 H 242.952 3.67159 -4.74673 0
M  V30 2563 H 244.022 2.3518 -4.2405 0
M  V30 2564 N 245.365 1.30045 0.890287 0
M  V30 2565 C 246.295 1.18541 2.01172 0
M  V30 2566 C 247.276 0.0773356 1.69924 0
M  V30 2567 O 248.461 0.25845 1.92473 0
M  V30 2568 C 245.591 0.870941 3.36202 0
M  V30 2569 C 244.545 1.93637 3.81692 0
M  V30 2570 C 243.871 1.475 5.13953 0
M  V30 2571 C 245.171 3.34666 4.00994 0
M  V30 2572 H 246.865 2.12359 2.11054 0
M  V30 2573 H 244.411 1.02238 1.01407 0
M  V30 2574 H 246.364 0.777141 4.14172 0
M  V30 2575 H 245.088 -0.102926 3.26438 0
M  V30 2576 H 243.747 2.01972 3.05946 0
M  V30 2577 H 243.395 0.489551 5.00612 0
M  V30 2578 H 243.095 2.1876 5.4536 0
M  V30 2579 H 244.619 1.39489 5.94454 0
M  V30 2580 H 246.033 3.2912 4.69417 0
M  V30 2581 H 244.43 4.03966 4.43769 0
M  V30 2582 H 245.5 3.76949 3.05021 0
M  V30 2583 N 246.843 -1.10192 1.12674 0
M  V30 2584 C 247.791 -2.18694 0.792196 0
M  V30 2585 C 248.785 -1.67938 -0.222058 0
M  V30 2586 O 249.991 -1.79822 -0.0800074 0
M  V30 2587 H 246.366 -0.713223 0.238364 0
M  V30 2588 H 248.337 -2.44149 1.71564 0
M  V30 2589 C 247.086 -3.46682 0.265859 0
M  V30 2590 H 246.409 -3.86101 1.03761 0
M  V30 2591 H 247.849 -4.23942 0.0701128 0
M  V30 2592 C 246.308 -3.21506 -1.00675 0
M  V30 2593 O 246.838 -3.43408 -2.08408 0
M  V30 2594 N 245.044 -2.75158 -0.934692 0
M  V30 2595 H 244.591 -2.57535 -0.0578604 0
M  V30 2596 H 244.549 -2.58691 -1.7868 0
M  V30 2597 N 248.321 -0.919034 -1.28029 0
M  V30 2598 C 249.251 -0.428581 -2.29533 0
M  V30 2599 C 250.232 0.50659 -1.62381 0
M  V30 2600 O 251.417 0.413195 -1.89753 0
M  V30 2601 C 248.547 0.327388 -3.45753 0
M  V30 2602 C 247.501 -0.519137 -4.2484 0
M  V30 2603 C 246.827 0.365486 -5.33449 0
M  V30 2604 C 248.127 -1.77914 -4.91064 0
M  V30 2605 H 249.821 -1.27687 -2.70807 0
M  V30 2606 H 247.367 -0.615428 -1.30186 0
M  V30 2607 H 249.32 0.681378 -4.15855 0
M  V30 2608 H 248.044 1.20963 -3.03374 0
M  V30 2609 H 246.703 -0.855717 -3.56473 0
M  V30 2610 H 246.351 1.24642 -4.87312 0
M  V30 2611 H 246.051 -0.197356 -5.87268 0
M  V30 2612 H 247.575 0.715241 -6.06396 0
M  V30 2613 H 248.989 -1.49374 -5.53498 0
M  V30 2614 H 247.386 -2.2848 -5.54903 0
M  V30 2615 H 248.456 -2.50382 -4.15255 0
M  V30 2616 N 249.799 1.42003 -0.683588 0
M  V30 2617 C 250.746 2.30798 -0.0107309 0
M  V30 2618 C 251.716 1.4645 0.783688 0
M  V30 2619 O 252.901 1.75263 0.754156 0
M  V30 2620 C 250.041 3.3238 0.928306 0
M  V30 2621 C 249.154 4.31814 0.126776 0
M  V30 2622 C 248.289 5.20468 1.06236 0
M  V30 2623 C 247.328 6.11577 0.253035 0
M  V30 2624 N 246.465 6.92754 1.14179 0
M  V30 2625 H 251.305 2.8778 -0.773727 0
M  V30 2626 H 248.842 1.41745 -0.393283 0
M  V30 2627 H 250.8 3.89813 1.48666 0
M  V30 2628 H 249.43 2.76976 1.65783 0
M  V30 2629 H 248.482 3.76427 -0.54833 0
M  V30 2630 H 249.794 4.96276 -0.501192 0
M  V30 2631 H 248.948 5.82677 1.69035 0
M  V30 2632 H 247.687 4.56204 1.7242 0
M  V30 2633 H 246.692 5.48428 -0.388108 0
M  V30 2634 H 247.917 6.77892 -0.404839 0
M  V30 2635 H 245.863 6.3111 1.78987 0
M  V30 2636 H 245.78 7.53855 0.569111 0
M  V30 2637 H 247.048 7.59441 1.75697 0
M  V30 2638 N 251.277 0.427512 1.51691 0
M  V30 2639 C 252.693 0.0792977 1.59403 0
M  V30 2640 C 252.893 -1.41035 1.43914 0
M  V30 2641 O 251.949 -2.17922 1.27539 0
M  V30 2642 C 253.262 0.590636 2.94842 0
M  V30 2643 C 254.81 0.550215 3.08126 0
M  V30 2644 C 255.285 1.03836 4.46074 0
M  V30 2645 N 256.776 0.995943 4.52366 0
M  V30 2646 C 257.511 1.34463 5.57411 0
M  V30 2647 N 257.007 1.76569 6.69922 0
M  V30 2648 N 258.8 1.26343 5.47717 0
M  V30 2649 H 250.951 1.39687 1.60004 0
M  V30 2650 H 253.214 0.575003 0.753708 0
M  V30 2651 H 252.92 1.63251 3.11516 0
M  V30 2652 H 252.794 0.0102061 3.77199 0
M  V30 2653 H 255.181 -0.482654 2.91126 0
M  V30 2654 H 255.262 1.16693 2.27632 0
M  V30 2655 H 254.906 2.06965 4.63819 0
M  V30 2656 H 254.836 0.398286 5.25092 0
M  V30 2657 H 257.327 0.68661 3.7161 0
M  V30 2658 H 257.64 2.01438 7.46085 0
M  V30 2659 H 255.985 1.80488 6.71155 0
M  V30 2660 H 259.176 0.933209 4.58703 0
M  V30 2661 H 259.349 1.53846 6.29472 0
M  V30 2662 N 252.755 -1.56801 0.158532 0
M  V30 2663 C 253.702 -2.17337 -0.776729 0
M  V30 2664 C 254.672 -1.1096 -1.23601 0
M  V30 2665 O 255.857 -1.39054 -1.30647 0
M  V30 2666 C 252.997 -2.80822 -2.00582 0
M  V30 2667 C 252.11 -4.01624 -1.59129 0
M  V30 2668 C 251.245 -4.53072 -2.77306 0
M  V30 2669 C 250.284 -5.66314 -2.32282 0
M  V30 2670 N 249.421 -6.12329 -3.43508 0
M  V30 2671 H 254.261 -2.96918 -0.253701 0
M  V30 2672 H 251.798 -1.46661 -0.113504 0
M  V30 2673 H 253.756 -3.15779 -2.72652 0
M  V30 2674 H 252.386 -2.03866 -2.50277 0
M  V30 2675 H 251.438 -3.72571 -0.767806 0
M  V30 2676 H 252.75 -4.83633 -1.2207 0
M  V30 2677 H 251.904 -4.90145 -3.57551 0
M  V30 2678 H 250.643 -3.70095 -3.17617 0
M  V30 2679 H 249.648 -5.28806 -1.5048 0
M  V30 2680 H 250.873 -6.51085 -1.93043 0
M  V30 2681 H 248.819 -5.32284 -3.83418 0
M  V30 2682 H 248.736 -6.89293 -3.105 0
M  V30 2683 H 250.004 -6.5405 -4.24075 0
M  V30 2684 N 254.233 0.115231 -1.57178 0
M  V30 2685 C 255.479 0.82357 -1.85325 0
M  V30 2686 C 255.812 1.79349 -0.744814 0
M  V30 2687 O 255.087 1.92899 0.249024 0
M  V30 2688 C 255.37 1.57014 -3.24066 0
M  V30 2689 C 255.223 0.619565 -4.45513 0
M  V30 2690 C 256.542 2.52545 -3.60429 0
M  V30 2691 H 253.661 0.297948 -0.674089 0
M  V30 2692 H 256.303 0.0877138 -1.89797 0
M  V30 2693 H 254.453 2.19742 -3.20383 0
M  V30 2694 H 256.125 0.000837639 -4.613 0
M  V30 2695 H 254.368 -0.0686174 -4.33746 0
M  V30 2696 H 255.039 1.17866 -5.3927 0
M  V30 2697 H 257.515 1.9992 -3.64926 0
M  V30 2698 H 256.391 3.01811 -4.58477 0
M  V30 2699 H 256.652 3.35383 -2.88047 0
M  V30 2700 N 255.711 1.52812 0.385517 0
M  V30 2701 C 256.988 1.5861 1.14465 0
M  V30 2702 C 257.368 0.381402 2.07626 0
M  V30 2703 O 256.716 -0.629999 2.19643 0
M  V30 2704 C 256.926 2.92664 1.90128 0
M  V30 2705 C 258.274 3.46526 2.45367 0
M  V30 2706 O 259.298 2.94562 2.0028 0
M  V30 2707 O 258.157 4.37323 3.27736 0
M  V30 2708 H 255.251 0.639855 0.523941 0
M  V30 2709 H 257.797 1.65149 0.390389 0
M  V30 2710 H 256.569 3.71788 1.22022 0
M  V30 2711 H 256.192 2.89527 2.72507 0
M  V30 2712 N 257.189 -0.644168 1.43834 0
M  V30 2713 C 258.152 -1.73857 1.49353 0
M  V30 2714 C 259.152 -1.56315 0.377112 0
M  V30 2715 O 260.342 -1.62048 0.639226 0
M  V30 2716 C 257.474 -3.12819 1.35488 0
M  V30 2717 H 258.667 -1.70342 2.46827 0
M  V30 2718 H 256.22 -0.856652 1.30733 0
M  V30 2719 H 256.955 -3.2194 0.390569 0
M  V30 2720 H 256.74 -3.26958 2.16428 0
M  V30 2721 H 258.23 -3.92606 1.42302 0
M  V30 2722 N 258.668 -1.30515 -0.883378 0
M  V30 2723 C 259.916 -1.19194 -1.63209 0
M  V30 2724 C 260.237 0.253205 -1.93349 0
M  V30 2725 O 259.507 1.17025 -1.57105 0
M  V30 2726 H 258.087 -0.438148 -0.605009 0
M  V30 2727 H 260.749 -1.63663 -1.05832 0
M  V30 2728 H 259.845 -1.75396 -2.58153 0
M  V30 2729 N 260.146 1.09593 -1.13257 0
M  V30 2730 C 261.109 2.14359 -0.811358 0
M  V30 2731 C 262.109 1.59808 0.178377 0
M  V30 2732 O 263.299 1.74132 -0.0484911 0
M  V30 2733 C 260.431 3.40269 -0.207276 0
M  V30 2734 H 261.624 2.44284 -1.73969 0
M  V30 2735 H 259.177 1.25102 -0.936973 0
M  V30 2736 H 259.912 3.15969 0.73036 0
M  V30 2737 H 259.697 3.81154 -0.919992 0
M  V30 2738 H 261.187 4.176 0.000667944 0
M  V30 2739 N 261.624 0.925811 1.2754 0
M  V30 2740 C 262.572 0.413897 2.28888 0
M  V30 2741 C 263.566 -0.500779 1.61829 0
M  V30 2742 O 264.772 -0.38069 1.75928 0
M  V30 2743 H 261.147 0.115274 0.743112 0
M  V30 2744 H 263.118 1.28151 2.69481 0
M  V30 2745 C 261.867 -0.319792 3.46226 0
M  V30 2746 H 261.19 0.374846 3.98039 0
M  V30 2747 H 262.63 -0.642435 4.19105 0
M  V30 2748 C 261.089 -1.53209 3.00048 0
M  V30 2749 O 261.619 -2.6309 3.03557 0
M  V30 2750 N 259.825 -1.38326 2.55566 0
M  V30 2751 H 259.372 -0.489292 2.5291 0
M  V30 2752 H 259.33 -2.19564 2.25031 0
M  V30 2753 N 263.102 -1.41638 0.69111 0
M  V30 2754 C 264.518 -1.55435 0.362224 0
M  V30 2755 C 264.718 -1.66754 -1.13117 0
M  V30 2756 O 263.774 -1.64348 -1.91692 0
M  V30 2757 C 265.087 -2.79588 1.10684 0
M  V30 2758 C 266.635 -2.9338 1.09075 0
M  V30 2759 C 267.11 -4.20414 1.81703 0
M  V30 2760 N 268.601 -4.27362 1.7865 0
M  V30 2761 C 269.336 -5.24507 2.31689 0
M  V30 2762 N 268.832 -6.27708 2.93179 0
M  V30 2763 N 270.625 -5.16416 2.2197 0
M  V30 2764 H 262.776 -1.32536 1.65976 0
M  V30 2765 H 265.039 -0.639115 0.700168 0
M  V30 2766 H 264.745 -2.77419 2.16175 0
M  V30 2767 H 264.619 -3.70973 0.682545 0
M  V30 2768 H 267.006 -2.95067 0.0441238 0
M  V30 2769 H 267.087 -2.0318 1.55407 0
M  V30 2770 H 266.731 -4.19488 2.86343 0
M  V30 2771 H 266.661 -5.09578 1.32808 0
M  V30 2772 H 269.152 -3.53415 1.33815 0
M  V30 2773 H 269.465 -6.98217 3.31229 0
M  V30 2774 H 267.81 -6.28223 2.97255 0
M  V30 2775 H 271.001 -4.34716 1.73607 0
M  V30 2776 H 271.174 -5.91958 2.63609 0
M  V30 2777 N 264.58 -0.43555 -1.51462 0
M  V30 2778 C 265.543 0.365137 -2.26273 0
M  V30 2779 C 266.543 0.951227 -1.29647 0
M  V30 2780 O 267.733 0.825958 -1.53374 0
M  V30 2781 C 264.865 1.51645 -3.05314 0
M  V30 2782 H 266.058 -0.290474 -2.9849 0
M  V30 2783 H 263.611 -0.188676 -1.55157 0
M  V30 2784 H 264.346 2.20816 -2.3751 0
M  V30 2785 H 264.131 1.10238 -3.76284 0
M  V30 2786 H 265.621 2.08218 -3.61987 0
M  V30 2787 N 266.058 1.56714 -0.166846 0
M  V30 2788 C 267.307 1.95922 0.479318 0
M  V30 2789 C 267.62 1.05529 1.6469 0
M  V30 2790 O 268.826 1.34399 2.35901 0
M  V30 2791 C 267.282 3.48359 0.90412 0
M  V30 2792 C 266.89 4.47369 -0.237621 0
M  V30 2793 C 268.634 3.96394 1.51896 0
M  V30 2794 C 266.541 5.91039 0.206561 0
M  V30 2795 H 265.471 0.731495 0.18284 0
M  V30 2796 H 268.122 1.81728 -0.254363 0
M  V30 2797 H 266.504 3.57955 1.69365 0
M  V30 2798 H 267.678 4.49485 -1.01489 0
M  V30 2799 H 265.993 4.09366 -0.762128 0
M  V30 2800 H 268.59 5.01186 1.86325 0
M  V30 2801 H 268.933 3.39075 2.41524 0
M  V30 2802 H 269.466 3.89796 0.79395 0
M  V30 2803 H 266.205 6.52221 -0.654834 0
M  V30 2804 H 265.725 5.9224 0.949282 0
M  V30 2805 H 267.404 6.43707 0.651939 0
M  V30 2806 N 267.536 -0.106894 1.57237 0
M  V30 2807 C 268.764 -0.826389 1.8968 0
M  V30 2808 C 269.179 -1.72856 0.759353 0
M  V30 2809 O 268.536 -1.80503 -0.269263 0
M  V30 2810 C 268.587 -1.64967 3.21665 0
M  V30 2811 O 268.308 -0.783804 4.31031 0
M  V30 2812 C 269.809 -2.47326 3.67892 0
M  V30 2813 H 267.029 -0.236927 0.627779 0
M  V30 2814 H 269.573 -0.0876593 2.04312 0
M  V30 2815 H 267.728 -2.34103 3.08666 0
M  V30 2816 H 268.142 -1.35284 5.06753 0
M  V30 2817 H 269.616 -3.00604 4.6297 0
M  V30 2818 H 270.093 -3.25247 2.95146 0
M  V30 2819 H 270.699 -1.83411 3.83719 0
M  V30 2820 N 269.014 -1.53014 -0.377408 0
M  V30 2821 C 269.946 -1.74884 -1.48149 0
M  V30 2822 C 270.959 -0.629433 -1.5014 0
M  V30 2823 O 272.148 -0.905416 -1.53833 0
M  V30 2824 C 269.248 -1.80299 -2.86959 0
M  V30 2825 C 268.421 -3.09776 -3.08801 0
M  V30 2826 C 267.48 -3.06586 -4.27658 0
M  V30 2827 O 266.506 -3.80419 -4.23403 0
M  V30 2828 N 267.708 -2.26578 -5.34455 0
M  V30 2829 H 270.473 -2.70147 -1.29771 0
M  V30 2830 H 268.034 -1.51646 -0.56703 0
M  V30 2831 H 270.026 -1.75657 -3.64591 0
M  V30 2832 H 268.596 -0.92372 -2.98641 0
M  V30 2833 H 267.816 -3.27815 -2.18931 0
M  V30 2834 H 269.104 -3.95366 -3.20255 0
M  V30 2835 H 268.502 -1.66081 -5.40771 0
M  V30 2836 H 267.059 -2.27766 -6.10709 0
M  V30 2837 N 270.492 0.636531 -1.44174 0
M  V30 2838 C 271.739 1.39619 -1.46672 0
M  V30 2839 C 272.067 1.94257 -0.0972691 0
M  V30 2840 O 271.322 1.73768 0.900175 0
M  V30 2841 C 271.621 2.58309 -2.47005 0
M  V30 2842 C 271.287 2.21992 -3.92467 0
M  V30 2843 C 269.949 2.118 -4.32081 0
M  V30 2844 C 272.301 1.9321 -4.84065 0
M  V30 2845 C 269.629 1.71007 -5.61225 0
M  V30 2846 C 271.981 1.53911 -6.13591 0
M  V30 2847 C 270.645 1.42257 -6.52165 0
M  V30 2848 H 269.915 0.510902 -0.536712 0
M  V30 2849 H 272.562 0.722328 -1.77355 0
M  V30 2850 H 270.867 3.30903 -2.09786 0
M  V30 2851 H 272.564 3.16533 -2.46186 0
M  V30 2852 H 269.154 2.30841 -3.61124 0
M  V30 2853 H 273.338 1.99997 -4.54219 0
M  V30 2854 H 268.594 1.60583 -5.89935 0
M  V30 2855 H 272.768 1.30677 -6.8403 0
M  V30 2856 H 270.395 1.10419 -7.52138 0
M  V30 2857 N 271.97 1.30982 0.876444 0
M  V30 2858 C 273.217 1.20296 1.62896 0
M  V30 2859 C 273.545 -0.240395 1.93009 0
M  V30 2860 O 272.8 -1.18733 1.55567 0
M  V30 2861 C 273.099 1.98572 2.9716 0
M  V30 2862 C 272.765 3.48125 2.86566 0
M  V30 2863 C 271.427 3.88905 2.83383 0
M  V30 2864 C 273.779 4.43322 2.74071 0
M  V30 2865 C 271.107 5.2316 2.65556 0
M  V30 2866 C 273.459 5.77695 2.57781 0
M  V30 2867 C 272.123 6.17704 2.52979 0
M  V30 2868 H 271.393 0.440193 0.59608 0
M  V30 2869 H 274.04 1.62177 1.01837 0
M  V30 2870 H 272.345 1.49352 3.62217 0
M  V30 2871 H 274.042 1.8769 3.54364 0
M  V30 2872 H 270.632 3.15723 2.89856 0
M  V30 2873 H 274.816 4.12752 2.75589 0
M  V30 2874 H 270.072 5.53241 2.60259 0
M  V30 2875 H 274.246 6.51091 2.47089 0
M  V30 2876 H 271.873 7.21678 2.38924 0
M  V30 2877 N 273.449 -1.08991 1.13837 0
M  V30 2878 C 274.696 -1.81258 0.902882 0
M  V30 2879 C 275.024 -1.85936 -0.570803 0
M  V30 2880 O 274.279 -1.3267 -1.43865 0
M  V30 2881 C 274.578 -3.27042 1.44147 0
M  V30 2882 C 274.244 -3.4249 2.93276 0
M  V30 2883 C 272.906 -3.46414 3.33992 0
M  V30 2884 C 275.258 -3.4666 3.892 0
M  V30 2885 C 272.586 -3.52091 4.69307 0
M  V30 2886 C 274.938 -3.53872 5.24364 0
M  V30 2887 C 273.602 -3.56066 5.646 0
M  V30 2888 H 272.872 -0.663268 0.330388 0
M  V30 2889 H 275.519 -1.28368 1.42105 0
M  V30 2890 H 273.824 -3.82599 0.844097 0
M  V30 2891 H 275.521 -3.81499 1.23528 0
M  V30 2892 H 272.111 -3.40124 2.60794 0
M  V30 2893 H 276.295 -3.42865 3.58828 0
M  V30 2894 H 271.551 -3.52079 4.9985 0
M  V30 2895 H 275.725 -3.56043 5.98503 0
M  V30 2896 H 273.352 -3.60218 6.69438 0
M  V30 2897 N 274.927 -0.932562 -1.27047 0
M  V30 2898 C 276.204 -0.49377 -1.89265 0
M  V30 2899 C 276.584 1.02833 -1.8436 0
M  V30 2900 O 275.932 1.88461 -1.29209 0
M  V30 2901 C 276.142 -1.04536 -3.32976 0
M  V30 2902 C 277.49 -1.10879 -4.09867 0
M  V30 2903 O 278.514 -0.995327 -3.42011 0
M  V30 2904 O 277.373 -1.28417 -5.31198 0
M  V30 2905 H 274.467 -0.159596 -0.811454 0
M  V30 2906 H 277.013 -1.02457 -1.3528 0
M  V30 2907 H 275.785 -2.08913 -3.30864 0
M  V30 2908 H 275.408 -0.496494 -3.94488 0
M  V30 2909 N 276.405 1.4127 -0.698611 0
M  V30 2910 C 277.651 2.01478 -0.231207 0
M  V30 2911 C 277.984 1.55215 1.16713 0
M  V30 2912 O 277.259 0.764672 1.78838 0
M  V30 2913 C 277.542 3.58912 -0.292281 0
M  V30 2914 C 277.395 4.15293 -1.72778 0
M  V30 2915 C 278.714 4.38736 0.346194 0
M  V30 2916 H 275.833 0.732025 -0.0854878 0
M  V30 2917 H 278.475 1.67977 -0.887906 0
M  V30 2918 H 276.625 3.87582 0.26686 0
M  V30 2919 H 278.297 3.97486 -2.341 0
M  V30 2920 H 276.54 3.7022 -2.26096 0
M  V30 2921 H 277.211 5.24452 -1.72202 0
M  V30 2922 H 279.687 4.15897 -0.130035 0
M  V30 2923 H 278.563 5.48221 0.272932 0
M  V30 2924 H 278.824 4.18425 1.42734 0
M  V30 2925 N 277.883 0.443576 1.51229 0
M  V30 2926 C 278.793 -0.370721 2.31652 0
M  V30 2927 C 279.809 -1.02186 1.40833 0
M  V30 2928 O 280.985 -1.01586 1.73903 0
M  V30 2929 C 278.05 -1.45376 3.14749 0
M  V30 2930 C 277.111 -0.822099 4.21355 0
M  V30 2931 C 276.344 -1.85353 5.0048 0
M  V30 2932 O 276.567 -3.07656 4.80316 0
M  V30 2933 O 275.501 -1.4406 5.84406 0
M  V30 2934 H 279.327 0.286002 3.0235 0
M  V30 2935 H 276.912 0.20598 1.47973 0
M  V30 2936 H 278.794 -2.08173 3.66391 0
M  V30 2937 H 277.469 -2.09445 2.46809 0
M  V30 2938 H 276.376 -0.155909 3.73775 0
M  V30 2939 H 277.709 -0.224797 4.91686 0
M  V30 2940 N 279.361 -1.56624 0.175154 0
M  V30 2941 C 280.586 -2.01813 -0.478137 0
M  V30 2942 C 281.011 -1.05457 -1.55757 0
M  V30 2943 O 280.369 -0.0347439 -1.81267 0
M  V30 2944 C 280.417 -3.45581 -1.02987 0
M  V30 2945 O 279.521 -3.52305 -2.14371 0
M  V30 2946 H 278.862 -0.65413 -0.114059 0
M  V30 2947 H 281.392 -2.02673 0.280173 0
M  V30 2948 H 281.402 -3.84965 -1.35151 0
M  V30 2949 H 280.077 -4.1521 -0.239556 0
M  V30 2950 H 278.654 -3.24783 -1.83222 0
M  V30 2951 N 280.839 0.0985539 -1.57292 0
M  V30 2952 C 282.069 0.815135 -1.8984 0
M  V30 2953 C 282.477 1.7297 -0.766679 0
M  V30 2954 O 281.82 1.81698 0.270483 0
M  V30 2955 C 281.882 1.6842 -3.17608 0
M  V30 2956 C 281.546 0.94182 -4.4719 0
M  V30 2957 C 282.543 0.273212 -5.19182 0
M  V30 2958 C 280.228 0.916927 -4.9386 0
M  V30 2959 C 282.222 -0.410361 -6.36078 0
M  V30 2960 C 279.909 0.229567 -6.10669 0
M  V30 2961 C 280.907 -0.432902 -6.81627 0
M  V30 2962 O 280.595 -1.10925 -7.9621 0
M  V30 2963 H 280.327 0.238501 -0.632529 0
M  V30 2964 H 282.881 0.0812659 -2.05239 0
M  V30 2965 H 281.111 2.46022 -2.98345 0
M  V30 2966 H 282.8 2.27704 -3.36015 0
M  V30 2967 H 283.566 0.283927 -4.84168 0
M  V30 2968 H 279.445 1.42201 -4.3852 0
M  V30 2969 H 282.989 -0.928013 -6.914 0
M  V30 2970 H 278.886 0.216686 -6.45136 0
M  V30 2971 H 279.654 -1.01579 -8.12172 0
M  V30 2972 N 282.317 1.53212 0.369288 0
M  V30 2973 C 283.247 1.82365 1.45826 0
M  V30 2974 C 284.228 0.676907 1.56051 0
M  V30 2975 O 285.413 0.926401 1.70679 0
M  V30 2976 C 282.543 2.01023 2.83208 0
M  V30 2977 C 281.497 3.1678 2.8781 0
M  V30 2978 C 280.823 3.20724 4.27832 0
M  V30 2979 C 282.123 4.55447 2.55667 0
M  V30 2980 H 283.817 2.73559 1.21678 0
M  V30 2981 H 281.363 1.3163 0.583911 0
M  V30 2982 H 283.316 2.20001 3.59413 0
M  V30 2983 H 282.04 1.06536 3.08736 0
M  V30 2984 H 280.699 2.97616 2.14056 0
M  V30 2985 H 280.347 2.23882 4.50429 0
M  V30 2986 H 280.047 3.98496 4.31827 0
M  V30 2987 H 281.571 3.41881 5.05915 0
M  V30 2988 H 282.985 4.74611 3.21586 0
M  V30 2989 H 281.382 5.35432 2.70984 0
M  V30 2990 H 282.452 4.60812 1.5093 0
M  V30 2991 N 283.795 -0.628877 1.44509 0
M  V30 2992 C 285.211 -0.947305 1.28446 0
M  V30 2993 C 285.411 -2.00275 0.221872 0
M  V30 2994 O 284.467 -2.49447 -0.391471 0
M  V30 2995 C 285.78 -1.40843 2.65676 0
M  V30 2996 C 287.328 -1.52379 2.73404 0
M  V30 2997 C 287.803 -2.01875 4.11109 0
M  V30 2998 N 289.294 -2.09142 4.13296 0
M  V30 2999 C 290.029 -2.48615 5.16699 0
M  V30 3000 N 289.525 -2.87209 6.30462 0
M  V30 3001 N 291.318 -2.48768 5.04054 0
M  V30 3002 H 283.469 0.0690977 2.12288 0
M  V30 3003 H 285.732 -0.0317164 0.947469 0
M  V30 3004 H 285.438 -0.707206 3.44516 0
M  V30 3005 H 285.312 -2.37902 2.92716 0
M  V30 3006 H 287.699 -2.21598 1.9488 0
M  V30 3007 H 287.78 -0.536898 2.50102 0
M  V30 3008 H 287.424 -1.3325 4.90109 0
M  V30 3009 H 287.354 -3.0144 4.31789 0
M  V30 3010 H 289.845 -1.81991 3.31191 0
M  V30 3011 H 290.158 -3.16149 7.05174 0
M  V30 3012 H 288.503 -2.84955 6.33897 0
M  V30 3013 H 291.694 -2.18009 4.14234 0
M  V30 3014 H 291.867 -2.79207 5.84763 0
M  V30 3015 N 285.273 -1.31445 -0.869486 0
M  V30 3016 C 286.52 -1.21158 -1.62256 0
M  V30 3017 C 286.848 0.230155 -1.93133 0
M  V30 3018 O 286.103 1.17906 -1.56194 0
M  V30 3019 C 286.402 -2.00145 -2.96102 0
M  V30 3020 C 286.068 -3.4964 -2.84715 0
M  V30 3021 C 284.73 -3.90403 -2.81317 0
M  V30 3022 C 287.082 -4.44769 -2.71716 0
M  V30 3023 C 284.41 -5.24561 -2.62778 0
M  V30 3024 C 286.762 -5.79054 -2.54714 0
M  V30 3025 C 285.426 -6.19037 -2.49699 0
M  V30 3026 H 284.696 -0.443348 -0.593737 0
M  V30 3027 H 287.343 -1.62715 -1.00976 0
M  V30 3028 H 285.648 -1.5127 -3.6142 0
M  V30 3029 H 287.345 -1.89566 -3.53363 0
M  V30 3030 H 283.935 -3.17256 -2.88178 0
M  V30 3031 H 288.119 -4.14208 -2.73397 0
M  V30 3032 H 283.375 -5.54613 -2.57321 0
M  V30 3033 H 287.549 -6.52393 -2.43632 0
M  V30 3034 H 285.176 -7.22935 -2.35093 0
M  V30 3035 N 286.751 1.08385 -1.14413 0
M  V30 3036 C 288.167 1.32844 -0.884563 0
M  V30 3037 C 288.367 1.95841 0.474181 0
M  V30 3038 O 287.423 2.21158 1.21842 0
M  V30 3039 C 288.736 2.22978 -2.01745 0
M  V30 3040 C 290.284 2.36458 -2.05077 0
M  V30 3041 C 290.759 3.29934 -3.1766 0
M  V30 3042 N 292.25 3.37511 -3.17239 0
M  V30 3043 C 292.985 4.09871 -4.0099 0
M  V30 3044 N 292.481 4.84936 -4.94781 0
M  V30 3045 N 294.274 4.05704 -3.89051 0
M  V30 3046 H 286.425 0.658756 -2.01926 0
M  V30 3047 H 288.688 0.352821 -0.879899 0
M  V30 3048 H 288.394 1.83934 -2.99769 0
M  V30 3049 H 288.268 3.23441 -1.94077 0
M  V30 3050 H 290.655 2.7476 -1.0766 0
M  V30 3051 H 290.736 1.35736 -2.16816 0
M  V30 3052 H 290.38 2.92352 -4.15322 0
M  V30 3053 H 290.31 4.30584 -3.03158 0
M  V30 3054 H 292.801 2.83996 -2.49308 0
M  V30 3055 H 293.114 5.37612 -5.55151 0
M  V30 3056 H 291.459 4.83988 -4.98779 0
M  V30 3057 H 294.65 3.46167 -3.15097 0
M  V30 3058 H 294.823 4.61834 -4.54547 0
M  V30 3059 N 288.23 0.939286 1.26551 0
M  V30 3060 C 289.507 0.5038 1.89001 0
M  V30 3061 C 289.887 -1.01854 1.84903 0
M  V30 3062 O 289.235 -1.87773 1.30206 0
M  V30 3063 C 289.445 1.063 3.32417 0
M  V30 3064 C 290.793 1.13051 4.09273 0
M  V30 3065 O 291.817 1.01345 3.41479 0
M  V30 3066 O 290.676 1.31233 5.30509 0
M  V30 3067 H 287.77 0.163897 0.810597 0
M  V30 3068 H 290.316 1.03173 1.34735 0
M  V30 3069 H 289.088 2.10665 3.29752 0
M  V30 3070 H 288.711 0.517408 3.94219 0
M  V30 3071 N 289.708 -1.40897 0.706093 0
M  V30 3072 C 291.124 -1.55042 0.37869 0
M  V30 3073 C 291.324 -1.67944 -1.11342 0
M  V30 3074 O 290.38 -1.66372 -1.89938 0
M  V30 3075 C 291.693 -2.78398 1.13643 0
M  V30 3076 C 293.241 -2.92206 1.12181 0
M  V30 3077 C 293.716 -4.18463 1.86152 0
M  V30 3078 N 295.207 -4.25443 1.83173 0
M  V30 3079 C 295.942 -5.2202 2.37239 0
M  V30 3080 N 295.438 -6.24563 2.99821 0
M  V30 3081 N 297.231 -5.14033 2.27435 0
M  V30 3082 H 289.382 -1.30769 1.67372 0
M  V30 3083 H 291.645 -0.631653 0.706907 0
M  V30 3084 H 291.351 -2.7511 2.19106 0
M  V30 3085 H 291.225 -3.70228 0.721853 0
M  V30 3086 H 293.612 -2.95004 0.0754171 0
M  V30 3087 H 293.693 -2.01521 1.57554 0
M  V30 3088 H 293.337 -4.16427 2.90776 0
M  V30 3089 H 293.267 -5.08141 1.38206 0
M  V30 3090 H 295.758 -3.51976 1.37556 0
M  V30 3091 H 296.071 -6.94665 3.38616 0
M  V30 3092 H 294.416 -6.25035 3.03902 0
M  V30 3093 H 297.607 -4.3285 1.78208 0
M  V30 3094 H 297.78 -5.89129 2.69873 0
M  V30 3095 N 291.186 -0.45159 -1.50991 0
M  V30 3096 C 292.426 0.109066 -2.04109 0
M  V30 3097 C 292.79 1.38716 -1.32747 0
M  V30 3098 O 293.991 2.02896 -1.76314 0
M  V30 3099 C 292.262 0.308354 -3.56067 0
M  V30 3100 S 293.821 0.830369 -4.30872 0
M  V30 3101 H 290.639 0.0251531 -0.710555 0
M  V30 3102 H 293.241 -0.614264 -1.85599 0
M  V30 3103 H 291.945 -0.627962 -4.05567 0
M  V30 3104 H 291.476 1.05836 -3.78896 0
M  V30 3105 H 293.491 2.10626 -4.49279 0
M  V30 3106 N 292.664 1.56529 -0.183458 0
M  V30 3107 C 293.91 1.97537 0.459036 0
M  V30 3108 C 294.243 1.06989 1.62071 0
M  V30 3109 O 293.518 0.11948 1.94133 0
M  V30 3110 C 293.801 3.47874 0.930368 0
M  V30 3111 C 293.654 4.492 -0.232317 0
M  V30 3112 C 294.973 4.01612 1.79989 0
M  V30 3113 H 292.092 0.718204 0.165383 0
M  V30 3114 H 294.734 1.88042 -0.272038 0
M  V30 3115 H 292.884 3.56095 1.55333 0
M  V30 3116 H 294.556 4.53027 -0.86972 0
M  V30 3117 H 292.799 4.24657 -0.885928 0
M  V30 3118 H 293.47 5.51823 0.139796 0
M  V30 3119 H 295.946 3.96097 1.27461 0
M  V30 3120 H 294.822 5.07195 2.09867 0
M  V30 3121 H 295.083 3.46163 2.74998 0
M  V30 3122 N 294.142 -0.090211 1.57342 0
M  V30 3123 C 295.367 -0.810082 1.90925 0
M  V30 3124 C 295.792 -1.71248 0.778187 0
M  V30 3125 O 295.15 -1.79278 -0.269991 0
M  V30 3126 C 295.198 -1.59529 3.23393 0
M  V30 3127 O 294.302 -2.70461 3.11327 0
M  V30 3128 H 293.643 -0.222231 0.625707 0
M  V30 3129 H 296.173 -0.0639716 2.045 0
M  V30 3130 H 296.183 -1.97847 3.5682 0
M  V30 3131 H 294.858 -0.933055 4.05299 0
M  V30 3132 H 293.435 -2.35135 2.89423 0
M  V30 3133 N 295.62 -1.53406 -0.361157 0
M  V30 3134 C 296.583 -1.79479 -1.42548 0
M  V30 3135 C 297.583 -0.665327 -1.4639 0
M  V30 3136 O 298.773 -0.933549 -1.47073 0
M  V30 3137 C 295.905 -1.92087 -2.8163 0
M  V30 3138 H 297.098 -2.74538 -1.20701 0
M  V30 3139 H 294.651 -1.4455 -0.594546 0
M  V30 3140 H 295.386 -0.991099 -3.08784 0
M  V30 3141 H 295.171 -2.74241 -2.80239 0
M  V30 3142 H 296.661 -2.13836 -3.58697 0
M  V30 3143 N 297.098 0.621204 -1.44841 0
M  V30 3144 C 298.346 1.37783 -1.47852 0
M  V30 3145 C 298.667 1.94653 -0.116224 0
M  V30 3146 O 297.937 1.76367 0.852737 0
M  V30 3147 H 296.517 0.511453 -0.544449 0
M  V30 3148 H 299.179 0.730446 -1.80694 0
M  V30 3149 H 298.275 2.20414 -2.20961 0
M  V30 3150 N 298.576 1.31904 0.862503 0
M  V30 3151 C 299.825 1.21373 1.61094 0
M  V30 3152 C 300.138 -0.22504 1.94301 0
M  V30 3153 O 301.344 -0.452121 2.67709 0
M  V30 3154 C 299.8 2.12525 2.9045 0
M  V30 3155 C 299.408 3.61441 2.64697 0
M  V30 3156 C 301.152 2.10813 3.68454 0
M  V30 3157 C 299.059 4.44578 3.90006 0
M  V30 3158 H 297.989 0.450705 0.604468 0
M  V30 3159 H 300.64 1.56811 0.953027 0
M  V30 3160 H 299.022 1.69994 3.57656 0
M  V30 3161 H 300.196 4.12264 2.05851 0
M  V30 3162 H 298.511 3.65205 2.00036 0
M  V30 3163 H 301.108 2.70167 4.61426 0
M  V30 3164 H 301.451 1.09713 4.01583 0
M  V30 3165 H 301.984 2.51583 3.08141 0
M  V30 3166 H 298.723 5.46461 3.62023 0
M  V30 3167 H 298.243 3.98508 4.48276 0
M  V30 3168 H 299.922 4.57176 4.5782 0
M  V30 3169 N 300.054 -1.07777 1.14986 0
M  V30 3170 C 301.331 -1.7699 0.832695 0
M  V30 3171 C 301.711 -2.001 -0.672561 0
M  V30 3172 O 301.059 -1.61598 -1.6155 0
M  V30 3173 C 301.269 -3.08139 1.63863 0
M  V30 3174 C 302.617 -3.8256 1.84208 0
M  V30 3175 O 303.641 -3.17939 1.60603 0
M  V30 3176 O 302.5 -4.98612 2.23714 0
M  V30 3177 H 299.594 -0.768389 0.305791 0
M  V30 3178 H 302.14 -1.14182 1.25541 0
M  V30 3179 H 300.912 -2.86909 2.6608 0
M  V30 3180 H 300.535 -3.78678 1.21197 0
M  V30 3181 N 301.532 -0.945985 -1.26051 0
M  V30 3182 C 302.778 -0.597002 -1.93814 0
M  V30 3183 C 303.111 0.862484 -1.73997 0
M  V30 3184 O 302.386 1.61769 -1.07986 0
M  V30 3185 C 302.669 -0.945937 -3.47454 0
M  V30 3186 C 302.522 -2.46052 -3.76535 0
M  V30 3187 C 303.841 -0.464785 -4.37639 0
M  V30 3188 H 300.96 -0.218366 -0.703907 0
M  V30 3189 H 303.602 -1.18107 -1.48831 0
M  V30 3190 H 301.752 -0.448902 -3.85898 0
M  V30 3191 H 303.424 -3.03065 -3.47778 0
M  V30 3192 H 301.667 -2.90194 -3.22444 0
M  V30 3193 H 302.338 -2.65517 -4.83947 0
M  V30 3194 H 304.814 -0.891016 -4.06448 0
M  V30 3195 H 303.69 -0.737712 -5.4392 0
M  V30 3196 H 303.951 0.635274 -4.37512 0
M  V30 3197 N 303.011 1.40521 -0.713556 0
M  V30 3198 C 303.921 2.34522 -0.0606667 0
M  V30 3199 C 304.937 1.57193 0.74607 0
M  V30 3200 O 306.113 1.89591 0.679493 0
M  V30 3201 C 303.178 3.36081 0.851491 0
M  V30 3202 C 302.239 4.29286 0.0349339 0
M  V30 3203 C 301.472 5.25994 0.903649 0
M  V30 3204 O 301.695 5.28616 2.14292 0
M  V30 3205 O 300.629 6.00918 0.343723 0
M  V30 3206 H 304.455 2.91968 -0.835972 0
M  V30 3207 H 302.04 1.41681 -0.47402 0
M  V30 3208 H 303.922 3.98369 1.37404 0
M  V30 3209 H 302.597 2.81052 1.60598 0
M  V30 3210 H 301.504 3.70289 -0.532633 0
M  V30 3211 H 302.837 4.87462 -0.681287 0
M  V30 3212 N 304.489 0.459591 1.5075 0
M  V30 3213 C 305.738 -0.100971 2.01447 0
M  V30 3214 C 306.051 -1.41816 1.34713 0
M  V30 3215 O 307.257 -2.06299 1.76502 0
M  V30 3216 C 305.713 -0.23047 3.59161 0
M  V30 3217 C 305.321 1.0776 4.34847 0
M  V30 3218 C 307.065 -0.743608 4.17936 0
M  V30 3219 C 304.972 0.91253 5.84317 0
M  V30 3220 H 303.902 -0.0415102 0.752856 0
M  V30 3221 H 306.553 0.592742 1.73663 0
M  V30 3222 H 304.935 -0.987703 3.83485 0
M  V30 3223 H 306.109 1.8449 4.22256 0
M  V30 3224 H 304.424 1.52097 3.87628 0
M  V30 3225 H 307.021 -0.883959 5.27343 0
M  V30 3226 H 307.364 -1.73196 3.78562 0
M  V30 3227 H 307.897 -0.04408 3.97776 0
M  V30 3228 H 304.636 1.87391 6.28144 0
M  V30 3229 H 304.156 0.185422 5.99513 0
M  V30 3230 H 305.835 0.574547 6.44444 0
M  V30 3231 N 305.967 -1.56429 0.191757 0
M  V30 3232 C 307.216 -1.9666 -0.448088 0
M  V30 3233 C 307.529 -1.08136 -1.62991 0
M  V30 3234 O 308.735 -1.38135 -2.33733 0
M  V30 3235 C 307.191 -3.49753 -0.848585 0
M  V30 3236 C 306.799 -4.46935 0.308764 0
M  V30 3237 C 308.543 -3.9876 -1.4557 0
M  V30 3238 C 306.45 -5.91293 -0.112506 0
M  V30 3239 H 305.38 -0.734312 -0.171179 0
M  V30 3240 H 308.031 -1.81301 0.283242 0
M  V30 3241 H 306.413 -3.60604 -1.63649 0
M  V30 3242 H 307.587 -4.47813 1.08627 0
M  V30 3243 H 305.902 -4.08102 0.827158 0
M  V30 3244 H 308.499 -5.04086 -1.78328 0
M  V30 3245 H 308.842 -3.42875 -2.36099 0
M  V30 3246 H 309.375 -3.9101 -0.731836 0
M  V30 3247 H 306.114 -6.51097 0.758514 0
M  V30 3248 H 305.634 -5.93676 -0.854941 0
M  V30 3249 H 307.313 -6.44663 -0.549448 0
M  V30 3250 N 307.445 0.0818655 -1.57387 0
M  V30 3251 C 308.856 0.634871 -1.75574 0
M  V30 3252 C 309.207 1.78435 -0.815809 0
M  V30 3253 O 308.332 2.164 0.0025366 0
M  V30 3254 C 308.927 1.15845 -3.18379 0
M  V30 3255 C 307.486 1.65741 -3.37945 0
M  V30 3256 C 306.633 0.572549 -2.71325 0
M  V30 3257 H 309.584 -0.144268 -1.58043 0
M  V30 3258 H 309.605 2.02751 -3.21982 0
M  V30 3259 H 309.117 0.321631 -3.86765 0
M  V30 3260 H 307.218 2.51781 -2.74658 0
M  V30 3261 H 307.331 1.74129 -4.46336 0
M  V30 3262 H 305.695 1.01518 -2.33594 0
M  V30 3263 H 306.478 -0.253918 -3.4236 0
M  V30 3264 N 308.923 1.53595 0.353017 0
M  V30 3265 C 310.171 1.70049 1.09215 0
M  V30 3266 C 310.492 0.461406 1.89463 0
M  V30 3267 O 309.762 -0.524633 1.88744 0
M  V30 3268 H 308.342 0.626912 0.40619 0
M  V30 3269 H 311.004 1.90822 0.396585 0
M  V30 3270 H 310.1 2.56718 1.77488 0
M  V30 3271 N 310.401 -0.613514 1.45168 0
M  V30 3272 C 311.65 -1.36874 1.4815 0
M  V30 3273 C 311.963 -1.952 0.124982 0
M  V30 3274 O 313.169 -2.71481 0.0324176 0
M  V30 3275 C 311.625 -2.47905 2.60904 0
M  V30 3276 C 311.233 -1.96016 4.02842 0
M  V30 3277 C 312.977 -3.24965 2.73126 0
M  V30 3278 C 310.884 -3.04494 5.06988 0
M  V30 3279 H 309.814 -0.514428 0.551253 0
M  V30 3280 H 312.465 -0.658182 1.7129 0
M  V30 3281 H 310.847 -3.21618 2.31037 0
M  V30 3282 H 312.021 -1.29051 4.4236 0
M  V30 3283 H 310.336 -1.31719 3.95018 0
M  V30 3284 H 312.933 -4.05865 3.48106 0
M  V30 3285 H 313.276 -3.75588 1.79553 0
M  V30 3286 H 313.809 -2.5835 3.0249 0
M  V30 3287 H 310.548 -2.58795 6.0225 0
M  V30 3288 H 310.068 -3.70044 4.72046 0
M  V30 3289 H 311.747 -3.68976 5.31475 0
M  V30 3290 N 311.879 -1.3236 -0.855495 0
M  V30 3291 C 312.809 -1.23833 -1.97958 0
M  V30 3292 C 313.79 -0.122361 -1.69659 0
M  V30 3293 O 314.975 -0.30939 -1.9172 0
M  V30 3294 C 312.105 -0.959772 -3.33775 0
M  V30 3295 C 311.059 -2.03689 -3.76424 0
M  V30 3296 C 310.385 -1.61075 -5.09862 0
M  V30 3297 C 311.685 -3.4518 -3.9198 0
M  V30 3298 H 313.379 -2.1788 -2.0535 0
M  V30 3299 H 310.925 -1.04891 -0.986605 0
M  V30 3300 H 312.878 -0.886678 -4.11966 0
M  V30 3301 H 311.602 0.0163404 -3.26596 0
M  V30 3302 H 310.261 -2.10012 -3.00484 0
M  V30 3303 H 309.909 -0.622107 -4.99138 0
M  V30 3304 H 309.609 -2.33143 -5.39368 0
M  V30 3305 H 311.133 -1.55201 -5.90546 0
M  V30 3306 H 312.547 -3.4145 -4.60526 0
M  V30 3307 H 310.944 -4.1559 -4.32903 0
M  V30 3308 H 312.014 -3.84903 -2.94919 0
M  V30 3309 N 313.357 1.07166 -1.15556 0
M  V30 3310 C 314.768 1.6127 -0.940693 0
M  V30 3311 C 315.119 1.89251 0.517551 0
M  V30 3312 O 314.244 1.65937 1.38903 0
M  V30 3313 C 314.839 2.92993 -1.7012 0
M  V30 3314 C 313.398 3.43832 -1.53156 0
M  V30 3315 C 312.545 2.1786 -1.71558 0
M  V30 3316 H 315.496 0.90229 -1.30554 0
M  V30 3317 H 315.517 3.62007 -1.17181 0
M  V30 3318 H 315.029 2.72596 -2.76248 0
M  V30 3319 H 313.13 3.69307 -0.494294 0
M  V30 3320 H 313.243 4.19747 -2.30975 0
M  V30 3321 H 311.607 2.2765 -1.14225 0
M  V30 3322 H 312.39 1.99956 -2.79056 0
M  V30 3323 N 314.835 0.952656 1.25548 0
M  V30 3324 C 316.081 0.607272 1.93494 0
M  V30 3325 C 316.414 -0.853245 1.74452 0
M  V30 3326 O 315.689 -1.61194 1.08843 0
M  V30 3327 C 315.972 0.96435 3.46947 0
M  V30 3328 C 315.825 2.48045 3.75225 0
M  V30 3329 C 317.144 0.487987 4.37386 0
M  V30 3330 H 314.263 0.222096 0.702739 0
M  V30 3331 H 316.905 1.18895 1.48203 0
M  V30 3332 H 315.055 0.469361 3.85654 0
M  V30 3333 H 316.727 3.04905 3.46166 0
M  V30 3334 H 314.97 2.919 3.209 0
M  V30 3335 H 315.641 2.6808 4.82532 0
M  V30 3336 H 318.117 0.912558 4.0597 0
M  V30 3337 H 316.993 0.766547 5.43521 0
M  V30 3338 H 317.254 -0.612063 4.37843 0
M  V30 3339 N 316.313 -1.40141 0.720998 0
M  V30 3340 C 317.538 -2.05618 0.271258 0
M  V30 3341 C 317.963 -1.53978 -1.08039 0
M  V30 3342 O 317.321 -0.677463 -1.68167 0
M  V30 3343 C 317.369 -3.59609 0.267197 0
M  V30 3344 O 316.473 -4.05526 -0.749814 0
M  V30 3345 H 315.814 -0.651904 0.126162 0
M  V30 3346 H 318.344 -1.79439 0.982997 0
M  V30 3347 H 318.354 -4.0786 0.106744 0
M  V30 3348 H 317.029 -3.96559 1.25354 0
M  V30 3349 H 315.606 -3.68722 -0.556644 0
M  V30 3350 N 317.792 -0.46758 -1.50504 0
M  V30 3351 C 318.74 0.342482 -2.30065 0
M  V30 3352 C 319.734 0.993596 -1.37201 0
M  V30 3353 O 320.94 0.925102 -1.54408 0
M  V30 3354 H 317.315 0.129283 -0.740803 0
M  V30 3355 H 319.286 -0.34899 -2.96352 0
M  V30 3356 C 318.035 1.4139 -3.17654 0
M  V30 3357 H 317.358 0.922264 -3.89017 0
M  V30 3358 H 318.798 1.95335 -3.76325 0
M  V30 3359 C 317.257 2.4139 -2.35016 0
M  V30 3360 O 317.787 3.46586 -2.03079 0
M  V30 3361 N 315.993 2.13021 -1.97662 0
M  V30 3362 H 315.54 1.27499 -2.23834 0
M  V30 3363 H 315.498 2.80164 -1.42673 0
M  V30 3364 N 319.27 1.56325 -0.20005 0
M  V30 3365 C 320.517 1.97719 0.437411 0
M  V30 3366 C 320.845 1.08709 1.61284 0
M  V30 3367 O 320.1 0.127261 1.95286 0
M  V30 3368 C 320.399 3.4495 0.935103 0
M  V30 3369 C 320.065 4.5072 -0.12749 0
M  V30 3370 C 318.727 4.79368 -0.419451 0
M  V30 3371 C 321.079 5.14268 -0.847231 0
M  V30 3372 C 318.407 5.68854 -1.43604 0
M  V30 3373 C 320.759 6.04852 -1.85301 0
M  V30 3374 C 319.423 6.31855 -2.15211 0
M  V30 3375 H 318.693 0.723507 0.16006 0
M  V30 3376 H 321.34 1.89166 -0.298056 0
M  V30 3377 H 319.645 3.50599 1.74894 0
M  V30 3378 H 321.342 3.74337 1.43781 0
M  V30 3379 H 317.932 4.28458 0.11023 0
M  V30 3380 H 322.116 4.92222 -0.634901 0
M  V30 3381 H 317.372 5.88047 -1.67364 0
M  V30 3382 H 321.546 6.53152 -2.41591 0
M  V30 3383 H 319.173 7.00994 -2.94129 0
M  V30 3384 N 320.748 -0.0735177 1.57428 0
M  V30 3385 C 321.695 -1.08756 2.0357 0
M  V30 3386 C 322.665 -1.38559 0.916 0
M  V30 3387 O 323.85 -1.49656 1.18354 0
M  V30 3388 C 320.99 -2.39657 2.48311 0
M  V30 3389 C 320.103 -2.16399 3.73892 0
M  V30 3390 C 319.238 -3.40852 4.07423 0
M  V30 3391 C 318.277 -3.1295 5.2605 0
M  V30 3392 N 317.414 -4.29729 5.55228 0
M  V30 3393 H 322.254 -0.687104 2.8997 0
M  V30 3394 H 319.791 -0.327709 1.43403 0
M  V30 3395 H 321.749 -3.16081 2.72303 0
M  V30 3396 H 320.379 -2.77508 1.64891 0
M  V30 3397 H 319.431 -1.30676 3.57251 0
M  V30 3398 H 320.743 -1.91788 4.60455 0
M  V30 3399 H 319.897 -4.25671 4.32306 0
M  V30 3400 H 318.636 -3.68537 3.19425 0
M  V30 3401 H 317.641 -2.26526 5.00965 0
M  V30 3402 H 318.866 -2.86589 6.15665 0
M  V30 3403 H 316.812 -4.57448 4.70188 0
M  V30 3404 H 316.729 -4.08385 6.36206 0
M  V30 3405 H 317.997 -5.1555 5.84661 0
M  V30 3406 N 322.226 -1.5378 -0.344866 0
M  V30 3407 C 323.158 -1.77988 -1.44406 0
M  V30 3408 C 324.171 -0.661138 -1.48771 0
M  V30 3409 O 325.36 -0.937842 -1.51877 0
M  V30 3410 C 322.46 -1.86345 -2.8307 0
M  V30 3411 C 321.633 -3.16256 -3.0216 0
M  V30 3412 C 320.692 -3.15588 -4.21059 0
M  V30 3413 O 319.718 -3.89314 -4.15239 0
M  V30 3414 N 320.92 -2.37864 -5.29529 0
M  V30 3415 H 323.685 -2.72839 -1.24012 0
M  V30 3416 H 321.246 -1.52814 -0.534737 0
M  V30 3417 H 323.238 -1.83351 -3.60783 0
M  V30 3418 H 321.808 -0.986858 -2.96614 0
M  V30 3419 H 321.028 -3.32385 -2.11929 0
M  V30 3420 H 322.316 -4.0207 -3.11797 0
M  V30 3421 H 321.714 -1.77514 -5.37127 0
M  V30 3422 H 320.271 -2.40668 -6.05741 0
M  V30 3423 N 323.704 0.605807 -1.45491 0
M  V30 3424 C 324.667 1.69836 -1.5391 0
M  V30 3425 C 325.667 1.55261 -0.418424 0
M  V30 3426 O 326.857 1.60296 -0.681965 0
M  V30 3427 C 323.989 3.09117 -1.43734 0
M  V30 3428 H 325.182 1.63738 -2.51257 0
M  V30 3429 H 322.735 0.821689 -1.32959 0
M  V30 3430 H 323.47 3.20791 -0.475788 0
M  V30 3431 H 323.255 3.21104 -2.25021 0
M  V30 3432 H 324.745 3.88696 -1.52661 0
M  V30 3433 N 325.182 1.32811 0.848464 0
M  V30 3434 C 326.129 1.22265 1.95755 0
M  V30 3435 C 327.099 0.103413 1.65778 0
M  V30 3436 O 328.284 0.280033 1.88734 0
M  V30 3437 C 325.424 0.958014 3.31536 0
M  V30 3438 C 324.537 2.16262 3.73971 0
M  V30 3439 C 323.672 1.83295 4.98575 0
M  V30 3440 C 322.711 3.00041 5.33518 0
M  V30 3441 N 321.848 2.67125 6.49299 0
M  V30 3442 H 326.688 2.17128 2.04107 0
M  V30 3443 H 324.225 1.07982 0.998913 0
M  V30 3444 H 326.183 0.785052 4.09747 0
M  V30 3445 H 324.813 0.046159 3.22767 0
M  V30 3446 H 323.865 2.44565 2.91362 0
M  V30 3447 H 325.177 3.03572 3.95785 0
M  V30 3448 H 324.331 1.62586 5.84509 0
M  V30 3449 H 323.07 0.932078 4.7871 0
M  V30 3450 H 322.075 3.21374 4.46093 0
M  V30 3451 H 323.3 3.90869 5.55336 0
M  V30 3452 H 321.246 1.79586 6.3094 0
M  V30 3453 H 321.163 3.47965 6.71161 0
M  V30 3454 H 322.431 2.49861 7.3837 0
M  V30 3455 N 326.66 -1.06551 1.16123 0
M  V30 3456 C 327.607 -2.13961 0.865414 0
M  V30 3457 C 328.577 -1.65066 -0.185055 0
M  V30 3458 O 329.762 -1.90732 -0.05083 0
M  V30 3459 C 326.902 -3.43113 0.369776 0
M  V30 3460 C 326.015 -4.05756 1.48276 0
M  V30 3461 C 325.15 -5.22773 0.942414 0
M  V30 3462 C 324.189 -5.77395 2.03179 0
M  V30 3463 N 323.326 -6.85731 1.50721 0
M  V30 3464 H 328.166 -2.38605 1.78527 0
M  V30 3465 H 325.703 -1.17072 0.890646 0
M  V30 3466 H 327.661 -4.17151 0.0640643 0
M  V30 3467 H 326.291 -3.18695 -0.513143 0
M  V30 3468 H 325.343 -3.29292 1.9045 0
M  V30 3469 H 326.655 -4.42351 2.30493 0
M  V30 3470 H 325.809 -6.03827 0.589729 0
M  V30 3471 H 324.548 -4.87618 0.0895191 0
M  V30 3472 H 323.553 -4.94981 2.3932 0
M  V30 3473 H 324.778 -6.14603 2.8886 0
M  V30 3474 H 322.724 -6.52499 0.676811 0
M  V30 3475 H 322.641 -7.21254 2.26557 0
M  V30 3476 H 323.909 -7.7047 1.18303 0
M  V30 3477 N 328.138 -0.959301 -1.25041 0
M  V30 3478 C 329.385 -0.616611 -1.92884 0
M  V30 3479 C 329.713 0.847036 -1.75087 0
M  V30 3480 O 328.968 1.62374 -1.09239 0
M  V30 3481 C 329.267 -0.927136 -3.45165 0
M  V30 3482 C 328.933 -2.37757 -3.83122 0
M  V30 3483 C 327.595 -2.77402 -3.93194 0
M  V30 3484 C 329.947 -3.31929 -4.01836 0
M  V30 3485 C 327.275 -4.10277 -4.19392 0
M  V30 3486 C 329.627 -4.64423 -4.29528 0
M  V30 3487 C 328.291 -5.03857 -4.37818 0
M  V30 3488 H 327.561 -0.225634 -0.705812 0
M  V30 3489 H 330.208 -1.20921 -1.48493 0
M  V30 3490 H 328.513 -0.252195 -3.90987 0
M  V30 3491 H 330.21 -0.6405 -3.95852 0
M  V30 3492 H 326.8 -2.06013 -3.75841 0
M  V30 3493 H 330.984 -3.02488 -3.93465 0
M  V30 3494 H 326.24 -4.40467 -4.24027 0
M  V30 3495 H 330.414 -5.37369 -4.42953 0
M  V30 3496 H 328.041 -6.06843 -4.57871 0
M  V30 3497 N 329.616 1.39756 -0.72842 0
M  V30 3498 C 330.579 2.29012 -0.0927297 0
M  V30 3499 C 331.579 1.45992 0.674025 0
M  V30 3500 O 332.769 1.66749 0.50402 0
M  V30 3501 C 329.901 3.29396 0.878137 0
M  V30 3502 H 331.094 2.86729 -0.879011 0
M  V30 3503 H 328.647 1.48293 -0.493847 0
M  V30 3504 H 329.382 2.76722 1.69101 0
M  V30 3505 H 329.167 3.907 0.331051 0
M  V30 3506 H 330.657 3.96199 1.3197 0
M  V30 3507 N 331.094 0.475555 1.50254 0
M  V30 3508 C 332.371 -0.139685 1.95101 0
M  V30 3509 C 332.751 -1.56555 1.41611 0
M  V30 3510 O 332.099 -2.19956 0.618993 0
M  V30 3511 C 332.309 -0.0784298 3.48912 0
M  V30 3512 C 333.657 -0.265095 4.23772 0
M  V30 3513 O 334.681 -0.154808 3.55863 0
M  V30 3514 O 333.54 -0.488327 5.44314 0
M  V30 3515 H 330.634 -0.109236 0.819754 0
M  V30 3516 H 333.18 0.536276 1.61004 0
M  V30 3517 H 331.952 0.916918 3.80405 0
M  V30 3518 H 331.575 -0.795655 3.89558 0
M  V30 3519 N 332.573 -1.56217 0.208337 0
M  V30 3520 C 333.506 -2.15633 -0.746842 0
M  V30 3521 C 334.484 -1.09685 -1.20034 0
M  V30 3522 O 335.668 -1.3787 -1.28547 0
M  V30 3523 C 332.795 -2.72594 -2.01023 0
M  V30 3524 C 331.841 -3.91251 -1.69779 0
M  V30 3525 S 332.674 -5.28962 -0.834209 0
M  V30 3526 C 333.83 -5.89353 -2.10745 0
M  V30 3527 H 334.063 -2.96315 -0.241789 0
M  V30 3528 H 331.596 -1.54398 -0.00682183 0
M  V30 3529 H 333.554 -3.06053 -2.73572 0
M  V30 3530 H 332.215 -1.91929 -2.48641 0
M  V30 3531 H 331.408 -4.29562 -2.63614 0
M  V30 3532 H 331.01 -3.58869 -1.05303 0
M  V30 3533 H 333.302 -6.04522 -3.05875 0
M  V30 3534 H 334.245 -6.85661 -1.76845 0
M  V30 3535 H 334.653 -5.1807 -2.24196 0
M  V30 3536 N 334.051 0.0651679 -1.57465 0
M  V30 3537 C 335.279 0.775808 -1.91804 0
M  V30 3538 C 335.694 1.70782 -0.804916 0
M  V30 3539 O 335.051 1.81153 0.221311 0
M  V30 3540 C 335.102 1.56381 -3.25925 0
M  V30 3541 O 334.823 0.669248 -4.32958 0
M  V30 3542 C 336.324 2.37485 -3.7432 0
M  V30 3543 H 333.544 0.2202 -0.63384 0
M  V30 3544 H 336.088 0.0334587 -2.04473 0
M  V30 3545 H 334.243 2.25837 -3.14764 0
M  V30 3546 H 334.657 1.21801 -5.10162 0
M  V30 3547 H 336.131 2.88223 -4.70778 0
M  V30 3548 H 336.608 3.17307 -3.03666 0
M  V30 3549 H 337.214 1.73173 -3.88447 0
M  V30 3550 N 335.529 1.53961 0.336706 0
M  V30 3551 C 336.477 1.83136 1.43401 0
M  V30 3552 C 337.471 0.702313 1.54156 0
M  V30 3553 O 338.677 0.885765 1.56698 0
M  V30 3554 H 335.052 0.580309 0.478273 0
M  V30 3555 H 337.023 2.74925 1.16012 0
M  V30 3556 C 335.772 2.06385 2.79822 0
M  V30 3557 H 335.095 2.92718 2.72316 0
M  V30 3558 H 336.535 2.30761 3.55704 0
M  V30 3559 C 334.994 0.851414 3.25964 0
M  V30 3560 O 335.524 0.0541904 4.01663 0
M  V30 3561 N 333.73 0.66672 2.82848 0
M  V30 3562 H 333.277 1.31665 2.21409 0
M  V30 3563 H 333.235 -0.143032 3.14074 0
M  V30 3564 N 337.007 -0.598083 1.45811 0
M  V30 3565 C 338.253 -1.35882 1.50545 0
M  V30 3566 C 338.586 -1.93616 0.150445 0
M  V30 3567 O 337.861 -1.75604 -0.83628 0
M  V30 3568 C 338.144 -2.49966 2.59208 0
M  V30 3569 C 337.997 -1.97367 4.04186 0
M  V30 3570 C 339.316 -3.52068 2.64076 0
M  V30 3571 H 336.435 -0.492717 0.548087 0
M  V30 3572 H 339.077 -0.673319 1.77669 0
M  V30 3573 H 337.227 -3.08443 2.3621 0
M  V30 3574 H 338.899 -1.43466 4.38423 0
M  V30 3575 H 337.142 -1.283 4.14393 0
M  V30 3576 H 337.813 -2.79649 4.75921 0
M  V30 3577 H 340.289 -3.03448 2.84708 0
M  V30 3578 H 339.165 -4.2937 3.41954 0
M  V30 3579 H 339.426 -4.08304 1.69531 0
M  V30 3580 N 338.485 -1.33259 -0.841409 0
M  V30 3581 C 339.901 -1.12538 -1.13169 0
M  V30 3582 C 340.101 0.0854037 -2.01319 0
M  V30 3583 O 339.157 0.766417 -2.40587 0
M  V30 3584 C 340.47 -2.41156 -1.79623 0
M  V30 3585 C 342.018 -2.47038 -1.922 0
M  V30 3586 C 342.493 -3.7561 -2.6207 0
M  V30 3587 N 343.984 -3.76667 -2.69585 0
M  V30 3588 C 344.719 -4.72861 -3.2433 0
M  V30 3589 N 344.215 -5.79428 -3.79783 0
M  V30 3590 N 346.008 -4.6034 -3.22558 0
M  V30 3591 H 338.159 -2.10868 -0.254676 0
M  V30 3592 H 340.422 -0.931615 -0.175493 0
M  V30 3593 H 340.128 -3.29747 -1.22311 0
M  V30 3594 H 340.002 -2.53114 -2.79666 0
M  V30 3595 H 342.389 -1.58898 -2.48667 0
M  V30 3596 H 342.47 -2.39022 -0.911148 0
M  V30 3597 H 342.114 -4.64131 -2.06263 0
M  V30 3598 H 342.044 -3.80902 -3.63622 0
M  V30 3599 H 344.535 -2.99648 -2.30259 0
M  V30 3600 H 344.848 -6.48867 -4.19752 0
M  V30 3601 H 343.193 -5.83166 -3.78078 0
M  V30 3602 H 346.384 -3.76244 -2.78492 0
M  V30 3603 H 346.557 -5.35478 -3.64921 0
M  V30 3604 N 339.963 1.05934 -1.16686 0
M  V30 3605 C 341.212 1.78188 -0.945085 0
M  V30 3606 C 341.525 1.88338 0.528021 0
M  V30 3607 O 342.731 2.57258 0.867799 0
M  V30 3608 C 341.187 3.20277 -1.64167 0
M  V30 3609 C 340.795 3.18281 -3.15279 0
M  V30 3610 C 342.539 3.97039 -1.502 0
M  V30 3611 C 340.446 4.55112 -3.7766 0
M  V30 3612 H 339.376 0.667866 -0.349959 0
M  V30 3613 H 342.027 1.18794 -1.39858 0
M  V30 3614 H 340.409 3.79952 -1.11589 0
M  V30 3615 H 341.583 2.68167 -3.74731 0
M  V30 3616 H 339.898 2.55018 -3.29173 0
M  V30 3617 H 342.495 4.98194 -1.94183 0
M  V30 3618 H 342.838 4.13845 -0.451461 0
M  V30 3619 H 343.371 3.43894 -1.99954 0
M  V30 3620 H 340.11 4.43512 -4.82677 0
M  V30 3621 H 339.63 5.05406 -3.22994 0
M  V30 3622 H 341.309 5.24064 -3.79428 0
M  V30 3623 N 341.441 0.965919 1.2453 0
M  V30 3624 C 342.852 0.665929 1.7442 0
M  V30 3625 C 343.203 -0.818407 1.78316 0
M  V30 3626 O 342.328 -1.64037 1.41141 0
M  V30 3627 C 342.923 1.20211 3.16757 0
M  V30 3628 C 341.482 0.952059 3.6416 0
M  V30 3629 C 340.629 1.33848 2.42858 0
M  V30 3630 H 343.58 1.14144 1.10258 0
M  V30 3631 H 343.601 0.567544 3.76244 0
M  V30 3632 H 343.113 2.28244 3.13889 0
M  V30 3633 H 341.214 -0.112821 3.72429 0
M  V30 3634 H 341.327 1.59645 4.51719 0
M  V30 3635 H 339.691 0.756864 2.43195 0
M  V30 3636 H 340.474 2.42827 2.42673 0
M  V30 3637 N 342.919 -1.39368 0.735821 0
M  V30 3638 C 343.882 -2.2896 0.104874 0
M  V30 3639 C 344.882 -1.46347 -0.666274 0
M  V30 3640 O 346.072 -1.67014 -0.49517 0
M  V30 3641 C 343.204 -3.29857 -0.860656 0
M  V30 3642 H 344.397 -2.86259 0.894205 0
M  V30 3643 H 341.95 -1.48029 0.501704 0
M  V30 3644 H 342.685 -2.77615 -1.67631 0
M  V30 3645 H 342.47 -3.9087 -0.310327 0
M  V30 3646 H 343.96 -3.96893 -1.29867 0
M  V30 3647 N 344.397 -0.483516 -1.5 0
M  V30 3648 C 345.643 0.0593261 -2.03313 0
M  V30 3649 C 345.998 1.36288 -1.35806 0
M  V30 3650 O 345.291 1.85519 -0.478897 0
M  V30 3651 C 345.485 0.286226 -3.56252 0
M  V30 3652 C 345.314 -0.993788 -4.38582 0
M  V30 3653 C 344.084 -1.54064 -4.81241 0
M  V30 3654 C 346.282 -1.89249 -4.78215 0
M  V30 3655 N 344.264 -2.76838 -5.47936 0
M  V30 3656 C 345.635 -2.96606 -5.44449 0
M  V30 3657 C 347.69 -1.90138 -4.60165 0
M  V30 3658 C 346.393 -4.04857 -5.94544 0
M  V30 3659 C 348.419 -2.97353 -5.1121 0
M  V30 3660 C 347.781 -4.03429 -5.77429 0
M  V30 3661 H 343.88 -0.0186322 -0.781778 0
M  V30 3662 H 346.464 -0.654489 -1.8337 0
M  V30 3663 H 344.635 0.969086 -3.76116 0
M  V30 3664 H 346.367 0.824515 -3.96212 0
M  V30 3665 H 343.122 -1.08813 -4.6093 0
M  V30 3666 H 343.546 -3.39221 -5.85882 0
M  V30 3667 H 348.188 -1.09441 -4.0839 0
M  V30 3668 H 345.906 -4.86363 -6.4535 0
M  V30 3669 H 349.492 -2.99039 -4.99066 0
M  V30 3670 H 348.372 -4.85025 -6.16214 0
M  V30 3671 N 345.875 1.56104 -0.216619 0
M  V30 3672 C 346.808 2.16026 0.735395 0
M  V30 3673 C 347.786 1.1032 1.1945 0
M  V30 3674 O 348.97 1.38549 1.27814 0
M  V30 3675 C 346.097 2.73656 1.99575 0
M  V30 3676 C 345.143 3.92146 1.67702 0
M  V30 3677 S 345.976 5.29397 0.806145 0
M  V30 3678 C 347.132 5.90463 2.07617 0
M  V30 3679 H 347.365 2.96439 0.226072 0
M  V30 3680 H 344.898 1.544 -0.00136639 0
M  V30 3681 H 346.856 3.075 2.71945 0
M  V30 3682 H 345.517 1.93245 2.47619 0
M  V30 3683 H 344.71 4.30954 2.61332 0
M  V30 3684 H 344.312 3.59423 1.03398 0
M  V30 3685 H 346.604 6.06136 3.02664 0
M  V30 3686 H 347.547 6.86589 1.73207 0
M  V30 3687 H 347.955 5.19252 2.21445 0
M  V30 3688 N 347.353 -0.0568162 1.57498 0
M  V30 3689 C 348.316 -1.05038 2.03715 0
M  V30 3690 C 349.316 -1.30709 0.936577 0
M  V30 3691 O 350.506 -1.26178 1.20103 0
M  V30 3692 C 347.638 -2.39034 2.43055 0
M  V30 3693 H 348.831 -0.651715 2.92733 0
M  V30 3694 H 346.384 -0.302947 1.53336 0
M  V30 3695 H 347.119 -2.83703 1.57108 0
M  V30 3696 H 346.904 -2.21739 3.2338 0
M  V30 3697 H 348.394 -3.10421 2.79336 0
M  V30 3698 N 348.832 -1.54138 -0.328536 0
M  V30 3699 C 349.764 -1.79509 -1.4251 0
M  V30 3700 C 350.777 -0.67688 -1.48061 0
M  V30 3701 O 351.966 -0.953898 -1.50874 0
M  V30 3702 C 349.066 -1.89337 -2.81078 0
M  V30 3703 C 348.239 -3.19443 -2.98789 0
M  V30 3704 C 347.298 -3.20036 -4.17688 0
M  V30 3705 O 346.324 -3.93697 -4.11086 0
M  V30 3706 N 347.526 -2.43467 -5.26976 0
M  V30 3707 H 350.291 -2.74139 -1.21111 0
M  V30 3708 H 347.852 -1.53373 -0.518499 0
M  V30 3709 H 349.844 -1.87167 -3.58818 0
M  V30 3710 H 348.414 -1.01826 -2.95551 0
M  V30 3711 H 347.634 -3.34614 -2.08391 0
M  V30 3712 H 348.922 -4.05354 -3.07515 0
M  V30 3713 H 348.32 -1.83201 -5.35214 0
M  V30 3714 H 346.877 -2.4708 -6.03154 0
M  V30 3715 N 350.31 0.590341 -1.46126 0
M  V30 3716 C 351.243 1.71434 -1.50617 0
M  V30 3717 C 352.221 1.58543 -0.360948 0
M  V30 3718 O 353.405 1.79865 -0.563985 0
M  V30 3719 C 350.532 3.09422 -1.37753 0
M  V30 3720 C 349.578 3.40854 -2.5636 0
M  V30 3721 S 350.411 3.33773 -4.18755 0
M  V30 3722 C 351.567 4.74312 -4.08386 0
M  V30 3723 H 351.8 1.67364 -2.45717 0
M  V30 3724 H 349.333 0.76845 -1.33919 0
M  V30 3725 H 351.291 3.8903 -1.31018 0
M  V30 3726 H 349.952 3.10989 -0.440949 0
M  V30 3727 H 349.145 4.41368 -2.43332 0
M  V30 3728 H 348.747 2.68798 -2.60046 0
M  V30 3729 H 351.039 5.64522 -3.74595 0
M  V30 3730 H 351.982 4.92397 -5.08872 0
M  V30 3731 H 352.39 4.50803 -3.3976 0
M  V30 3732 N 351.788 1.33704 0.83433 0
M  V30 3733 C 353.035 1.25417 1.58987 0
M  V30 3734 C 353.363 -0.178869 1.93676 0
M  V30 3735 O 352.618 -1.13723 1.59265 0
M  V30 3736 C 352.917 2.07926 2.90692 0
M  V30 3737 C 352.583 3.57066 2.75345 0
M  V30 3738 C 351.245 3.97724 2.70867 0
M  V30 3739 C 353.597 4.51817 2.59828 0
M  V30 3740 C 350.925 5.31344 2.48778 0
M  V30 3741 C 353.277 5.85604 2.39272 0
M  V30 3742 C 351.941 6.25439 2.33199 0
M  V30 3743 H 351.211 0.458934 0.581774 0
M  V30 3744 H 353.858 1.65335 0.966261 0
M  V30 3745 H 352.163 1.608 3.57282 0
M  V30 3746 H 353.86 1.98868 3.48213 0
M  V30 3747 H 350.45 3.24785 2.79665 0
M  V30 3748 H 354.634 4.21311 2.62319 0
M  V30 3749 H 349.89 5.61241 2.42526 0
M  V30 3750 H 354.064 6.58623 2.2625 0
M  V30 3751 H 351.691 7.28914 2.15843 0
M  V30 3752 N 353.266 -1.05314 1.17247 0
M  V30 3753 C 354.543 -1.75184 0.87005 0
M  V30 3754 C 354.923 -2.01481 -0.629965 0
M  V30 3755 O 354.271 -1.64988 -1.58086 0
M  V30 3756 C 354.481 -3.04594 1.70363 0
M  V30 3757 C 355.829 -3.78567 1.92281 0
M  V30 3758 O 356.853 -3.14461 1.67311 0
M  V30 3759 O 355.712 -4.93755 2.3424 0
M  V30 3760 H 352.806 -0.761729 0.322021 0
M  V30 3761 H 355.352 -1.11493 1.27935 0
M  V30 3762 H 354.124 -2.81201 2.72106 0
M  V30 3763 H 353.747 -3.76022 1.29202 0
M  V30 3764 N 354.744 -0.972509 -1.24016 0
M  V30 3765 C 355.992 -0.635776 -1.91839 0
M  V30 3766 C 356.313 0.832312 -1.76345 0
M  V30 3767 O 355.583 1.5946 -1.13795 0
M  V30 3768 H 354.163 -0.232157 -0.710009 0
M  V30 3769 H 356.825 -1.23462 -1.50809 0
M  V30 3770 H 355.921 -0.880545 -2.99421 0
M  V30 3771 N 356.222 1.38976 -0.743202 0
M  V30 3772 C 357.152 2.33171 -0.123873 0
M  V30 3773 C 358.133 1.54336 0.71516 0
M  V30 3774 O 359.318 1.82696 0.658467 0
M  V30 3775 C 356.448 3.38474 0.777978 0
M  V30 3776 C 355.402 4.27979 0.0424758 0
M  V30 3777 C 354.728 5.2405 1.06189 0
M  V30 3778 C 356.028 5.10155 -1.1198 0
M  V30 3779 H 357.722 2.85213 -0.910709 0
M  V30 3780 H 355.268 1.37133 -0.439388 0
M  V30 3781 H 357.221 4.03328 1.22084 0
M  V30 3782 H 355.945 2.84891 1.59702 0
M  V30 3783 H 354.604 3.64616 -0.380853 0
M  V30 3784 H 354.252 4.66758 1.87472 0
M  V30 3785 H 353.952 5.84785 0.574485 0
M  V30 3786 H 355.476 5.9178 1.50428 0
M  V30 3787 H 356.89 5.68307 -0.75499 0
M  V30 3788 H 355.287 5.80073 -1.53738 0
M  V30 3789 H 356.357 4.44504 -1.93764 0
M  V30 3790 N 357.7 0.491464 1.49741 0
M  V30 3791 C 358.977 -0.118984 1.95238 0
M  V30 3792 C 359.357 -1.55044 1.43264 0
M  V30 3793 O 358.705 -2.19287 0.642287 0
M  V30 3794 C 358.915 -0.0414187 3.48975 0
M  V30 3795 C 360.263 -0.220133 4.24029 0
M  V30 3796 O 361.287 -0.117055 3.56008 0
M  V30 3797 O 360.146 -0.430567 5.44801 0
M  V30 3798 H 357.24 -0.100536 0.820866 0
M  V30 3799 H 359.786 0.553322 1.60426 0
M  V30 3800 H 358.558 0.957214 3.79412 0
M  V30 3801 H 358.181 -0.754292 3.9038 0
M  V30 3802 N 359.178 -1.55987 0.224894 0
M  V30 3803 C 360.455 -1.90232 -0.455083 0
M  V30 3804 C 360.835 -1.14269 -1.77499 0
M  V30 3805 O 360.183 -0.253079 -2.27094 0
M  V30 3806 C 360.393 -3.42993 -0.644758 0
M  V30 3807 C 361.741 -4.13821 -0.950669 0
M  V30 3808 O 362.765 -3.4861 -0.731423 0
M  V30 3809 O 361.624 -5.29128 -1.36695 0
M  V30 3810 H 358.718 -0.79108 -0.241084 0
M  V30 3811 H 361.264 -1.67581 0.267327 0
M  V30 3812 H 360.036 -3.90252 0.28613 0
M  V30 3813 H 359.659 -3.71434 -1.41853 0
M  V30 3814 N 360.656 0.0484629 -1.57525 0
M  V30 3815 C 361.933 0.777447 -1.79486 0
M  V30 3816 C 362.313 1.94597 -0.818251 0
M  V30 3817 O 361.661 2.28047 0.143767 0
M  V30 3818 C 361.871 1.22864 -3.26658 0
M  V30 3819 C 363.219 1.65251 -3.91123 0
M  V30 3820 O 364.243 1.32372 -3.3069 0
M  V30 3821 O 363.102 2.26207 -4.97486 0
M  V30 3822 H 360.196 0.374357 -0.737419 0
M  V30 3823 H 362.742 0.0267359 -1.69679 0
M  V30 3824 H 361.514 0.393589 -3.89316 0
M  V30 3825 H 361.137 2.03996 -3.41279 0
M  V30 3826 N 362.134 1.5431 0.320358 0
M  V30 3827 C 363.097 1.83195 1.3774 0
M  V30 3828 C 364.097 0.703906 1.44575 0
M  V30 3829 O 365.287 0.972214 1.44546 0
M  V30 3830 C 362.419 1.99487 2.76438 0
M  V30 3831 H 363.612 2.77642 1.1338 0
M  V30 3832 H 361.165 1.46076 0.556012 0
M  V30 3833 H 361.9 1.07262 3.06048 0
M  V30 3834 H 361.685 2.81575 2.7287 0
M  V30 3835 H 363.175 2.23271 3.52902 0
M  V30 3836 N 363.613 -0.582584 1.46437 0
M  V30 3837 C 364.523 -1.71949 1.59595 0
M  V30 3838 C 365.539 -1.67264 0.479443 0
M  V30 3839 O 366.715 -1.87171 0.743579 0
M  V30 3840 C 363.78 -3.08452 1.58298 0
M  V30 3841 C 362.841 -3.244 2.81182 0
M  V30 3842 C 362.074 -4.54391 2.79937 0
M  V30 3843 O 362.297 -5.38287 1.8869 0
M  V30 3844 O 361.231 -4.73588 3.71481 0
M  V30 3845 H 365.057 -1.63795 2.55744 0
M  V30 3846 H 362.642 -0.749643 1.29231 0
M  V30 3847 H 364.524 -3.89732 1.60271 0
M  V30 3848 H 363.199 -3.17043 0.653094 0
M  V30 3849 H 362.106 -2.42613 2.84763 0
M  V30 3850 H 363.439 -3.20699 3.7338 0
M  V30 3851 N 365.091 -1.34144 -0.827227 0
M  V30 3852 C 366.319 -1.29325 -1.61501 0
M  V30 3853 C 366.734 0.13354 -1.88327 0
M  V30 3854 O 366.091 1.0793 -1.47164 0
M  V30 3855 C 366.142 -2.07746 -2.95844 0
M  V30 3856 O 365.863 -3.4486 -2.70191 0
M  V30 3857 C 367.364 -2.10273 -3.90256 0
M  V30 3858 H 364.584 -0.445069 -0.50215 0
M  V30 3859 H 367.128 -1.76693 -1.02955 0
M  V30 3860 H 365.283 -1.6403 -3.5096 0
M  V30 3861 H 365.697 -3.85345 -3.55822 0
M  V30 3862 H 367.171 -2.69575 -4.81698 0
M  V30 3863 H 367.648 -1.096 -4.25305 0
M  V30 3864 H 368.254 -2.54059 -3.41078 0
M  V30 3865 N 366.569 1.04691 -1.17803 0
M  V30 3866 C 367.985 1.29963 -0.926379 0
M  V30 3867 C 368.185 1.97251 0.411635 0
M  V30 3868 O 367.241 2.24922 1.14744 0
M  V30 3869 C 368.554 2.16447 -2.08737 0
M  V30 3870 C 370.102 2.29814 -2.12496 0
M  V30 3871 C 370.577 3.19661 -3.27995 0
M  V30 3872 N 372.068 3.27247 -3.27816 0
M  V30 3873 C 372.803 3.96906 -4.13827 0
M  V30 3874 N 372.299 4.6895 -5.09959 0
M  V30 3875 N 374.092 3.93122 -4.01761 0
M  V30 3876 H 366.243 0.594182 -2.0392 0
M  V30 3877 H 368.506 0.324649 -0.890678 0
M  V30 3878 H 368.212 1.74304 -3.05469 0
M  V30 3879 H 368.086 3.17103 -2.04268 0
M  V30 3880 H 370.473 2.71196 -1.16347 0
M  V30 3881 H 370.554 1.2877 -2.21025 0
M  V30 3882 H 370.198 2.78991 -4.24413 0
M  V30 3883 H 370.128 4.20722 -3.16703 0
M  V30 3884 H 372.619 2.75921 -2.58217 0
M  V30 3885 H 372.932 5.19679 -5.71974 0
M  V30 3886 H 371.277 4.67875 -5.13924 0
M  V30 3887 H 374.468 3.35967 -3.2595 0
M  V30 3888 H 374.641 4.47139 -4.6901 0
M  V30 3889 N 368.047 0.979072 1.23499 0
M  V30 3890 C 368.994 0.517904 2.24914 0
M  V30 3891 C 369.964 -0.442525 1.60097 0
M  V30 3892 O 371.149 -0.350365 1.87556 0
M  V30 3893 C 368.289 -0.174813 3.44657 0
M  V30 3894 C 367.402 0.825721 4.24035 0
M  V30 3895 C 366.537 0.107946 5.3109 0
M  V30 3896 C 365.576 1.09778 6.02175 0
M  V30 3897 N 364.713 0.40925 7.00906 0
M  V30 3898 H 369.553 1.38751 2.63727 0
M  V30 3899 H 367.09 0.695303 1.2963 0
M  V30 3900 H 369.048 -0.593233 4.12961 0
M  V30 3901 H 367.678 -1.0083 3.06648 0
M  V30 3902 H 366.73 1.36253 3.55161 0
M  V30 3903 H 368.042 1.58005 4.73113 0
M  V30 3904 H 367.196 -0.367904 6.05583 0
M  V30 3905 H 365.935 -0.678994 4.8295 0
M  V30 3906 H 364.94 1.5844 5.26476 0
M  V30 3907 H 366.165 1.88536 6.52404 0
M  V30 3908 H 364.111 -0.358506 6.5502 0
M  V30 3909 H 364.028 1.10226 7.47921 0
M  V30 3910 H 365.296 -0.0442557 7.79487 0
M  V30 3911 N 369.525 -1.3858 0.750561 0
M  V30 3912 C 370.455 -2.33102 0.136237 0
M  V30 3913 C 371.436 -1.54713 -0.706965 0
M  V30 3914 O 372.621 -1.83043 -0.648769 0
M  V30 3915 C 369.751 -3.38882 -0.760017 0
M  V30 3916 C 368.705 -4.27995 -0.0197785 0
M  V30 3917 C 368.031 -5.24605 -1.03408 0
M  V30 3918 C 369.331 -5.09554 1.14684 0
M  V30 3919 H 371.025 -2.84726 0.925822 0
M  V30 3920 H 368.571 -1.36898 0.446654 0
M  V30 3921 H 370.524 -4.0397 -1.19943 0
M  V30 3922 H 369.248 -2.85734 -1.58189 0
M  V30 3923 H 367.907 -3.64409 0.400184 0
M  V30 3924 H 367.555 -4.67746 -1.84994 0
M  V30 3925 H 367.255 -5.85081 -0.543464 0
M  V30 3926 H 368.779 -5.9257 -1.47288 0
M  V30 3927 H 370.193 -5.67899 0.785118 0
M  V30 3928 H 368.59 -5.7925 1.56812 0
M  V30 3929 H 369.66 -4.4347 1.96118 0
M  V30 3930 N 371.003 -0.499398 -1.49478 0
M  V30 3931 C 372.249 0.0457576 -2.02748 0
M  V30 3932 C 372.582 1.36793 -1.37846 0
M  V30 3933 O 371.857 1.87596 -0.513601 0
M  V30 3934 C 372.14 0.199986 -3.59544 0
M  V30 3935 C 371.993 -1.1452 -4.34977 0
M  V30 3936 C 373.312 0.94137 -4.29914 0
M  V30 3937 H 370.431 0.0151552 -0.736844 0
M  V30 3938 H 373.073 -0.650498 -1.78518 0
M  V30 3939 H 371.223 0.793007 -3.8032 0
M  V30 3940 H 372.895 -1.77697 -4.25701 0
M  V30 3941 H 371.138 -1.73488 -3.97598 0
M  V30 3942 H 371.809 -0.990607 -5.43039 0
M  V30 3943 H 374.285 0.43844 -4.13784 0
M  V30 3944 H 373.161 1.01812 -5.39375 0
M  V30 3945 H 373.422 1.98471 -3.95046 0
M  V30 3946 N 372.481 1.55866 -0.233164 0
M  V30 3947 C 373.729 1.9821 0.394593 0
M  V30 3948 C 374.05 1.12234 1.59463 0
M  V30 3949 O 373.32 0.201981 1.94856 0
M  V30 3950 H 371.9 0.732034 0.148778 0
M  V30 3951 H 374.562 1.92107 -0.32876 0
M  V30 3952 H 373.658 3.03845 0.713063 0
M  V30 3953 N 373.959 -0.0401083 1.57549 0
M  V30 3954 C 374.922 -1.02871 2.04817 0
M  V30 3955 C 375.922 -1.29708 0.950388 0
M  V30 3956 O 377.112 -1.24897 1.21435 0
M  V30 3957 C 374.244 -2.36443 2.45576 0
M  V30 3958 H 375.437 -0.620631 2.93408 0
M  V30 3959 H 372.99 -0.286667 1.53649 0
M  V30 3960 H 373.725 -2.82021 1.60108 0
M  V30 3961 H 373.51 -2.18296 3.25713 0
M  V30 3962 H 375 -3.07441 2.82612 0
M  V30 3963 N 375.437 -1.54477 -0.31217 0
M  V30 3964 C 376.385 -1.85395 -1.40469 0
M  V30 3965 C 377.379 -0.726749 -1.53019 0
M  V30 3966 O 378.585 -0.910582 -1.55269 0
M  V30 3967 H 374.96 -0.587845 -0.46898 0
M  V30 3968 H 376.931 -2.76736 -1.11623 0
M  V30 3969 C 375.68 -2.10811 -2.76503 0
M  V30 3970 H 375.003 -2.97014 -2.67625 0
M  V30 3971 H 376.443 -2.3639 -3.51988 0
M  V30 3972 C 374.902 -0.903165 -3.24568 0
M  V30 3973 O 375.432 -0.118085 -4.01526 0
M  V30 3974 N 373.638 -0.711634 -2.81752 0
M  V30 3975 H 373.185 -1.35171 -2.19286 0
M  V30 3976 H 373.143 0.0930473 -3.14262 0
M  V30 3977 N 376.915 0.57481 -1.46744 0
M  V30 3978 C 378.164 1.32898 -1.51727 0
M  V30 3979 C 378.477 1.948 -0.176692 0
M  V30 3980 O 379.683 2.71299 -0.104385 0
M  V30 3981 C 378.139 2.40901 -2.67385 0
M  V30 3982 C 377.747 1.85266 -4.07898 0
M  V30 3983 C 379.491 3.17609 -2.81646 0
M  V30 3984 C 377.398 2.90945 -5.14883 0
M  V30 3985 H 376.328 0.499631 -0.564699 0
M  V30 3986 H 378.979 0.612536 -1.72975 0
M  V30 3987 H 377.361 3.15379 -2.39483 0
M  V30 3988 H 378.535 1.17278 -4.45626 0
M  V30 3989 H 376.85 1.21199 -3.98371 0
M  V30 3990 H 379.447 3.96493 -3.58744 0
M  V30 3991 H 379.79 3.70696 -1.89448 0
M  V30 3992 H 380.323 2.50239 -3.09233 0
M  V30 3993 H 377.062 2.42736 -6.089 0
M  V30 3994 H 376.582 3.57398 -4.81691 0
M  V30 3995 H 378.261 3.54755 -5.41071 0
M  V30 3996 N 378.394 1.34581 0.820102 0
M  V30 3997 C 379.357 1.2628 1.91275 0
M  V30 3998 C 380.357 0.177344 1.59819 0
M  V30 3999 O 381.547 0.430156 1.68806 0
M  V30 4000 C 378.679 0.950327 3.27386 0
M  V30 4001 H 379.872 2.23421 2.00057 0
M  V30 4002 H 377.425 1.1891 1.0144 0
M  V30 4003 H 378.16 -0.0177938 3.24295 0
M  V30 4004 H 377.945 1.73549 3.51601 0
M  V30 4005 H 379.435 0.917492 4.07396 0
M  V30 4006 N 379.872 -1.04064 1.18357 0
M  V30 4007 C 380.805 -2.11618 0.854 0
M  V30 4008 C 381.783 -1.61555 -0.184043 0
M  V30 4009 O 382.967 -1.88395 -0.0630048 0
M  V30 4010 C 380.094 -3.37574 0.27597 0
M  V30 4011 C 379.14 -4.06485 1.2912 0
M  V30 4012 S 379.973 -4.53543 2.84709 0
M  V30 4013 C 381.129 -5.82732 2.28417 0
M  V30 4014 H 381.362 -2.39247 1.76488 0
M  V30 4015 H 378.895 -1.16832 1.00944 0
M  V30 4016 H 380.853 -4.10468 -0.051026 0
M  V30 4017 H 379.514 -3.0806 -0.613028 0
M  V30 4018 H 378.707 -4.97024 0.835633 0
M  V30 4019 H 378.309 -3.39708 1.56443 0
M  V30 4020 H 380.601 -6.56677 1.66677 0
M  V30 4021 H 381.544 -6.33052 3.17256 0
M  V30 4022 H 381.952 -5.37838 1.71436 0
M  V30 4023 N 381.35 -0.985608 -1.22978 0
M  V30 4024 C 382.627 -0.573599 -1.87001 0
M  V30 4025 C 383.007 0.949213 -1.88555 0
M  V30 4026 O 382.355 1.82811 -1.37086 0
M  V30 4027 C 382.565 -1.18564 -3.28243 0
M  V30 4028 C 383.913 -1.28163 -4.04796 0
M  V30 4029 O 384.937 -1.13949 -3.37482 0
M  V30 4030 O 383.796 -1.50832 -5.25273 0
M  V30 4031 H 380.89 -0.193868 -0.803955 0
M  V30 4032 H 383.436 -1.08102 -1.30813 0
M  V30 4033 H 382.208 -2.22758 -3.21706 0
M  V30 4034 H 381.831 -0.663363 -3.92027 0
M  V30 4035 N 382.828 1.3818 -0.7579 0
M  V30 4036 C 383.761 2.28055 -0.0814093 0
M  V30 4037 C 384.739 1.45603 0.723779 0
M  V30 4038 O 385.923 1.74961 0.701491 0
M  V30 4039 C 383.05 3.2676 0.891394 0
M  V30 4040 C 382.096 4.26153 0.171909 0
M  V30 4041 S 382.929 5.23434 -1.13035 0
M  V30 4042 C 384.085 6.25694 -0.160727 0
M  V30 4043 H 384.318 2.85082 -0.84353 0
M  V30 4044 H 381.851 1.44246 -0.550671 0
M  V30 4045 H 383.809 3.8414 1.44731 0
M  V30 4046 H 382.47 2.68706 1.62652 0
M  V30 4047 H 381.663 4.95738 0.908843 0
M  V30 4048 H 381.265 3.72691 -0.312606 0
M  V30 4049 H 383.557 6.74161 0.671773 0
M  V30 4050 H 384.5 7.03285 -0.824353 0
M  V30 4051 H 384.908 5.64064 0.221892 0
M  V30 4052 N 384.306 0.507319 1.49211 0
M  V30 4053 C 385.552 -0.0350047 2.0277 0
M  V30 4054 C 385.885 -1.3606 1.38569 0
M  V30 4055 O 385.16 -1.87321 0.523542 0
M  V30 4056 C 385.443 -0.180916 3.59645 0
M  V30 4057 C 385.296 1.16825 4.34364 0
M  V30 4058 C 386.615 -0.918558 4.30407 0
M  V30 4059 H 383.734 -0.0112473 0.736914 0
M  V30 4060 H 386.376 0.659956 1.7817 0
M  V30 4061 H 384.526 -0.772826 3.80736 0
M  V30 4062 H 386.198 1.79952 4.24753 0
M  V30 4063 H 384.441 1.75594 3.96673 0
M  V30 4064 H 385.112 1.01939 5.42506 0
M  V30 4065 H 387.588 -0.41649 4.1401 0
M  V30 4066 H 386.464 -0.989505 5.39907 0
M  V30 4067 H 386.725 -1.96373 3.96093 0
M  V30 4068 N 385.784 -1.5574 0.241426 0
M  V30 4069 C 386.731 -2.21149 -0.660432 0
M  V30 4070 C 387.701 -1.17356 -1.17545 0
M  V30 4071 O 388.886 -1.45784 -1.23093 0
M  V30 4072 C 386.026 -2.91059 -1.85414 0
M  V30 4073 C 385.139 -4.09495 -1.37616 0
M  V30 4074 C 384.274 -4.67135 -2.529 0
M  V30 4075 C 383.313 -5.77831 -2.01936 0
M  V30 4076 N 382.45 -6.29677 -3.10566 0
M  V30 4077 H 387.29 -2.97845 -0.095955 0
M  V30 4078 H 384.827 -1.47057 -0.0356024 0
M  V30 4079 H 386.785 -3.29788 -2.5553 0
M  V30 4080 H 385.415 -2.16846 -2.39118 0
M  V30 4081 H 384.467 -3.76117 -0.569235 0
M  V30 4082 H 385.779 -4.89423 -0.962618 0
M  V30 4083 H 384.933 -5.08409 -3.31067 0
M  V30 4084 H 383.672 -3.86411 -2.97553 0
M  V30 4085 H 382.677 -5.36039 -1.22238 0
M  V30 4086 H 383.902 -6.60402 -1.58259 0
M  V30 4087 H 381.848 -5.5186 -3.54664 0
M  V30 4088 H 381.765 -7.04783 -2.73526 0
M  V30 4089 H 383.033 -6.75609 -3.88809 0
M  V30 4090 N 387.262 0.0317525 -1.57568 0
M  V30 4091 C 388.511 0.722131 -1.8833 0
M  V30 4092 C 388.824 1.76664 -0.839587 0
M  V30 4093 O 390.03 2.50942 -1.03635 0
M  V30 4094 C 388.486 1.33544 -3.34207 0
M  V30 4095 C 388.094 0.327415 -4.46802 0
M  V30 4096 C 389.838 2.00585 -3.7412 0
M  V30 4097 C 387.745 0.948915 -5.83738 0
M  V30 4098 H 386.675 0.273466 -0.702661 0
M  V30 4099 H 389.326 -0.0235811 -1.83485 0
M  V30 4100 H 387.708 2.13077 -3.33788 0
M  V30 4101 H 388.882 -0.441006 -4.58685 0
M  V30 4102 H 387.197 -0.240758 -4.15703 0
M  V30 4103 H 389.794 2.47932 -4.73744 0
M  V30 4104 H 390.137 2.82285 -3.05975 0
M  V30 4105 H 390.67 1.27831 -3.76702 0
M  V30 4106 H 387.409 0.171387 -6.55276 0
M  V30 4107 H 386.929 1.68724 -5.7558 0
M  V30 4108 H 388.608 1.45705 -6.3038 0
M  V30 4109 N 388.74 1.54641 0.303973 0
M  V30 4110 C 389.67 1.88386 1.3796 0
M  V30 4111 C 390.651 0.742485 1.5304 0
M  V30 4112 O 391.836 0.997959 1.66597 0
M  V30 4113 C 388.966 2.12854 2.74427 0
M  V30 4114 C 387.92 3.28702 2.74115 0
M  V30 4115 C 387.246 3.38582 4.13844 0
M  V30 4116 C 388.546 4.65881 2.3612 0
M  V30 4117 H 390.24 2.78474 1.09966 0
M  V30 4118 H 387.786 1.33988 0.527556 0
M  V30 4119 H 389.739 2.35047 3.49758 0
M  V30 4120 H 388.463 1.19535 3.03939 0
M  V30 4121 H 387.122 3.06428 2.0124 0
M  V30 4122 H 386.77 2.42784 4.40528 0
M  V30 4123 H 386.47 4.16453 4.14537 0
M  V30 4124 H 387.994 3.63031 4.90959 0
M  V30 4125 H 389.408 4.87823 3.01167 0
M  V30 4126 H 387.805 5.46444 2.48031 0
M  V30 4127 H 388.875 4.66799 1.3125 0
M  V30 4128 N 390.218 -0.567019 1.47046 0
M  V30 4129 C 391.443 -1.3551 1.57009 0
M  V30 4130 C 391.868 -1.86841 0.217259 0
M  V30 4131 O 391.226 -1.62435 -0.805268 0
M  V30 4132 C 391.274 -2.50777 2.5912 0
M  V30 4133 O 390.378 -3.52706 2.13711 0
M  V30 4134 H 389.719 -0.402919 0.52778 0
M  V30 4135 H 392.249 -0.686241 1.92748 0
M  V30 4136 H 392.259 -2.97481 2.79229 0
M  V30 4137 H 390.934 -2.12771 3.57353 0
M  V30 4138 H 389.511 -3.12374 2.03659 0
M  V30 4139 N 391.696 -1.35014 -0.812953 0
M  V30 4140 C 393.112 -1.14914 -1.10757 0
M  V30 4141 C 393.312 0.0426818 -2.01455 0
M  V30 4142 O 392.368 0.715212 -2.42159 0
M  V30 4143 C 393.681 -2.44911 -1.74468 0
M  V30 4144 C 395.229 -2.5106 -1.86917 0
M  V30 4145 C 395.704 -3.81085 -2.54044 0
M  V30 4146 N 397.195 -3.82301 -2.61535 0
M  V30 4147 C 397.93 -4.79634 -3.14227 0
M  V30 4148 N 397.426 -5.87353 -3.67407 0
M  V30 4149 N 399.219 -4.67078 -3.12721 0
M  V30 4150 H 391.37 -2.1136 -0.20989 0
M  V30 4151 H 393.633 -0.935128 -0.155692 0
M  V30 4152 H 393.339 -3.32267 -1.15289 0
M  V30 4153 H 393.213 -2.58989 -2.74234 0
M  V30 4154 H 395.6 -1.64137 -2.45241 0
M  V30 4155 H 395.681 -2.40901 -0.860242 0
M  V30 4156 H 395.325 -4.68402 -1.96372 0
M  V30 4157 H 395.255 -3.88529 -3.55461 0
M  V30 4158 H 397.746 -3.04465 -2.23851 0
M  V30 4159 H 398.059 -6.57624 -4.05894 0
M  V30 4160 H 396.404 -5.91054 -3.65623 0
M  V30 4161 H 399.595 -3.82067 -2.70449 0
M  V30 4162 H 399.768 -5.43098 -3.53481 0
M  V30 4163 N 393.175 1.03435 -1.18907 0
M  V30 4164 C 394.085 2.15075 -0.937015 0
M  V30 4165 C 395.101 1.73706 0.101085 0
M  V30 4166 O 396.277 2.01232 -0.0822948 0
M  V30 4167 C 393.342 3.43458 -0.473057 0
M  V30 4168 C 392.403 3.99172 -1.57989 0
M  V30 4169 C 391.636 5.21427 -1.13797 0
M  V30 4170 O 391.859 5.704 0.000725941 0
M  V30 4171 O 390.793 5.69837 -1.9383 0
M  V30 4172 H 394.619 2.39198 -1.87131 0
M  V30 4173 H 392.204 1.13506 -0.971427 0
M  V30 4174 H 394.086 4.20811 -0.222702 0
M  V30 4175 H 392.761 3.20793 0.432869 0
M  V30 4176 H 391.668 3.23178 -1.88433 0
M  V30 4177 H 393.001 4.2619 -2.46217 0
M  V30 4178 N 394.653 0.992116 1.22453 0
M  V30 4179 C 395.901 0.666215 1.90804 0
M  V30 4180 C 396.222 -0.804152 1.77647 0
M  V30 4181 O 395.492 -1.57629 1.16318 0
M  V30 4182 H 394.072 0.243423 0.706225 0
M  V30 4183 H 396.734 1.25845 1.48825 0
M  V30 4184 H 395.83 0.928069 2.97982 0
M  V30 4185 N 396.131 -1.37776 0.765217 0
M  V30 4186 C 397.377 -2.00145 0.327072 0
M  V30 4187 C 397.71 -1.60607 -1.09175 0
M  V30 4188 O 396.985 -0.849127 -1.74986 0
M  V30 4189 C 397.268 -3.57109 0.46319 0
M  V30 4190 C 397.121 -4.06576 1.92395 0
M  V30 4191 C 398.44 -4.39888 -0.136473 0
M  V30 4192 H 395.559 -0.727113 0.120316 0
M  V30 4193 H 398.201 -1.63549 0.967039 0
M  V30 4194 H 396.351 -3.88414 -0.0816358 0
M  V30 4195 H 398.023 -3.85864 2.52798 0
M  V30 4196 H 396.266 -3.59011 2.43503 0
M  V30 4197 H 396.937 -5.15639 1.97028 0
M  V30 4198 H 399.413 -4.14803 0.328317 0
M  V30 4199 H 398.289 -5.48899 -0.0110582 0
M  V30 4200 H 398.55 -4.24758 -1.22608 0
M  V30 4201 N 397.609 -0.515225 -1.4894 0
M  V30 4202 C 398.556 0.255567 -2.29381 0
M  V30 4203 C 399.526 0.947387 -1.36432 0
M  V30 4204 O 400.711 0.951288 -1.65394 0
M  V30 4205 C 397.851 1.30551 -3.19453 0
M  V30 4206 C 396.964 0.624029 -4.27469 0
M  V30 4207 C 396.099 1.65563 -5.0474 0
M  V30 4208 C 395.138 0.956802 -6.04576 0
M  V30 4209 N 394.275 1.93326 -6.74959 0
M  V30 4210 H 399.115 -0.436607 -2.94784 0
M  V30 4211 H 396.652 -0.227154 -1.45336 0
M  V30 4212 H 398.61 1.92639 -3.70062 0
M  V30 4213 H 397.24 1.96626 -2.56004 0
M  V30 4214 H 396.292 -0.110459 -3.8024 0
M  V30 4215 H 397.604 0.0746092 -4.98744 0
M  V30 4216 H 396.758 2.35119 -5.59289 0
M  V30 4217 H 395.497 2.23893 -4.3327 0
M  V30 4218 H 394.502 0.247097 -5.49244 0
M  V30 4219 H 395.727 0.379814 -6.78037 0
M  V30 4220 H 393.673 2.50591 -6.06251 0
M  V30 4221 H 393.59 1.43489 -7.42258 0
M  V30 4222 H 394.858 2.62126 -7.34105 0
M  V30 4223 N 399.087 1.5561 -0.249682 0
M  V30 4224 C 400.364 1.90932 0.424761 0
M  V30 4225 C 400.744 1.17078 1.75658 0
M  V30 4226 O 400.092 0.289176 2.26663 0
M  V30 4227 C 400.302 3.43975 0.590109 0
M  V30 4228 C 401.65 4.15281 0.884714 0
M  V30 4229 O 402.674 3.49729 0.67587 0
M  V30 4230 O 401.533 5.31236 1.28259 0
M  V30 4231 H 398.627 0.794815 0.228468 0
M  V30 4232 H 401.173 1.67135 -0.293954 0
M  V30 4233 H 399.945 3.89748 -0.34818 0
M  V30 4234 H 399.568 3.73644 1.35926 0
M  V30 4235 N 400.565 -0.0233959 1.57583 0
M  V30 4236 C 401.812 -0.713063 1.8953 0
M  V30 4237 C 402.14 -1.75056 0.847673 0
M  V30 4238 O 401.395 -1.95119 -0.150636 0
M  V30 4239 C 401.694 -1.41428 3.28227 0
M  V30 4240 C 401.36 -0.512222 4.47981 0
M  V30 4241 C 400.022 -0.263785 4.80476 0
M  V30 4242 C 402.374 0.110248 5.21083 0
M  V30 4243 C 399.702 0.615804 5.83459 0
M  V30 4244 C 402.054 0.977573 6.25001 0
M  V30 4245 C 400.718 1.23542 6.55968 0
M  V30 4246 H 399.988 -0.260928 0.69354 0
M  V30 4247 H 402.635 0.0271047 1.91481 0
M  V30 4248 H 400.94 -2.22791 3.22291 0
M  V30 4249 H 402.637 -1.95355 3.50196 0
M  V30 4250 H 399.227 -0.716013 4.22577 0
M  V30 4251 H 403.411 -0.0687137 4.96252 0
M  V30 4252 H 398.667 0.82382 6.05824 0
M  V30 4253 H 402.841 1.46638 6.80786 0
M  V30 4254 H 400.468 1.91871 7.35588 0
M  V30 4255 N 402.043 -1.548 -0.295768 0
M  V30 4256 C 402.993 -1.82497 -1.3667 0
M  V30 4257 C 403.977 -0.682434 -1.45711 0
M  V30 4258 O 405.169 -0.943207 -1.49775 0
M  V30 4259 C 402.298 -2.08036 -2.73086 0
M  V30 4260 C 401.384 -3.28488 -2.68247 0
M  V30 4261 N 401.775 -4.48924 -2.33025 0
M  V30 4262 C 400.073 -3.3062 -2.99343 0
M  V30 4263 C 400.774 -5.30956 -2.37613 0
M  V30 4264 N 399.75 -4.68805 -2.75178 0
M  V30 4265 H 403.552 -2.73175 -1.0841 0
M  V30 4266 H 401.066 -1.5437 -0.504361 0
M  V30 4267 H 403.063 -2.26027 -3.5031 0
M  V30 4268 H 401.723 -1.18629 -3.02254 0
M  V30 4269 H 402.734 -4.75432 -2.05389 0
M  V30 4270 H 399.411 -2.51336 -3.33371 0
M  V30 4271 H 400.801 -6.37199 -2.13135 0
M  V30 4272 N 403.521 0.559213 -1.47345 0
M  V30 4273 C 404.768 1.31648 -1.53867 0
M  V30 4274 C 405.096 1.93468 -0.200104 0
M  V30 4275 O 404.351 1.78295 0.806799 0
M  V30 4276 C 404.65 2.44853 -2.6035 0
M  V30 4277 C 404.316 2.00876 -4.03683 0
M  V30 4278 C 402.978 1.88599 -4.42701 0
M  V30 4279 C 405.33 1.67279 -4.93626 0
M  V30 4280 C 402.658 1.41017 -5.69501 0
M  V30 4281 C 405.01 1.21169 -6.20887 0
M  V30 4282 C 403.674 1.07487 -6.58789 0
M  V30 4283 H 402.944 0.481734 -0.56304 0
M  V30 4284 H 405.591 0.627301 -1.80934 0
M  V30 4285 H 403.896 3.19318 -2.27032 0
M  V30 4286 H 405.593 3.03039 -2.62619 0
M  V30 4287 H 402.183 2.11374 -3.72853 0
M  V30 4288 H 406.367 1.75638 -4.64182 0
M  V30 4289 H 401.623 1.29086 -5.97618 0
M  V30 4290 H 405.797 0.942345 -6.89995 0
M  V30 4291 H 403.424 0.703946 -7.56934 0
M  V30 4292 N 404.999 1.35443 0.805782 0
M  V30 4293 C 406.229 1.31687 1.59192 0
M  V30 4294 C 406.637 -0.10756 1.88894 0
M  V30 4295 O 405.98 -1.07017 1.49309 0
M  V30 4296 C 406.042 2.05686 2.94845 0
M  V30 4297 C 405.706 3.54868 2.87954 0
M  V30 4298 C 406.703 4.49444 2.61335 0
M  V30 4299 C 404.388 3.97528 3.07046 0
M  V30 4300 C 406.382 5.84655 2.53885 0
M  V30 4301 C 404.069 5.32833 2.99219 0
M  V30 4302 C 405.067 6.26209 2.72674 0
M  V30 4303 O 404.755 7.59032 2.64811 0
M  V30 4304 H 404.487 0.453878 0.50097 0
M  V30 4305 H 407.041 1.78892 1.0093 0
M  V30 4306 H 405.271 1.5312 3.55093 0
M  V30 4307 H 406.96 1.94998 3.55993 0
M  V30 4308 H 407.726 4.17804 2.46303 0
M  V30 4309 H 403.605 3.25233 3.26718 0
M  V30 4310 H 407.149 6.57508 2.33086 0
M  V30 4311 H 403.046 5.64087 3.13809 0
M  V30 4312 H 403.814 7.68967 2.80413 0
M  V30 4313 N 406.477 -1.02803 1.19454 0
M  V30 4314 C 407.705 -1.79841 1.02297 0
M  V30 4315 C 408.12 -1.83879 -0.428259 0
M  V30 4316 O 407.477 -1.28345 -1.29745 0
M  V30 4317 C 407.528 -3.24852 1.58598 0
M  V30 4318 O 407.249 -3.21097 2.98041 0
M  V30 4319 C 408.75 -4.18485 1.46236 0
M  V30 4320 H 405.97 -0.565936 0.360496 0
M  V30 4321 H 408.514 -1.2948 1.58288 0
M  V30 4322 H 406.669 -3.72401 1.06753 0
M  V30 4323 H 407.083 -4.12033 3.24545 0
M  V30 4324 H 408.557 -5.18121 1.90407 0
M  V30 4325 H 409.034 -4.37254 0.41301 0
M  V30 4326 H 409.64 -3.76811 1.97215 0
M  V30 4327 N 407.956 -0.998596 -1.21925 0
M  V30 4328 C 408.886 -0.573688 -2.26343 0
M  V30 4329 C 409.867 0.402296 -1.65274 0
M  V30 4330 O 411.052 0.291683 -1.91997 0
M  V30 4331 C 408.182 0.106839 -3.47136 0
M  V30 4332 C 407.136 -0.788269 -4.20678 0
M  V30 4333 C 406.462 0.0254927 -5.34694 0
M  V30 4334 C 407.762 -2.08784 -4.78755 0
M  V30 4335 H 409.456 -1.44651 -2.62138 0
M  V30 4336 H 407.002 -0.696975 -1.26009 0
M  V30 4337 H 408.955 0.415531 -4.19346 0
M  V30 4338 H 407.679 1.01424 -3.10452 0
M  V30 4339 H 406.338 -1.08069 -3.50309 0
M  V30 4340 H 405.986 0.933989 -4.94253 0
M  V30 4341 H 405.686 -0.570437 -5.84825 0
M  V30 4342 H 407.21 0.328147 -6.09718 0
M  V30 4343 H 408.624 -1.84272 -5.42878 0
M  V30 4344 H 407.021 -2.63307 -5.39249 0
M  V30 4345 H 408.091 -2.76284 -3.98491 0
M  V30 4346 N 409.434 1.37368 -0.772513 0
M  V30 4347 C 410.382 2.32134 -0.147111 0
M  V30 4348 C 411.376 1.54972 0.684106 0
M  V30 4349 O 412.582 1.70363 0.581083 0
M  V30 4350 H 408.957 0.751449 -0.028786 0
M  V30 4351 H 410.928 2.82464 -0.962112 0
M  V30 4352 C 409.677 3.40226 0.71703 0
M  V30 4353 H 409 3.99706 0.0867951 0
M  V30 4354 H 410.44 4.08897 1.12159 0
M  V30 4355 C 408.899 2.80372 1.86797 0
M  V30 4356 O 409.429 2.71183 2.96349 0
M  V30 4357 N 407.635 2.37904 1.66883 0
M  V30 4358 H 407.182 2.45578 0.777759 0
M  V30 4359 H 407.14 1.98202 2.44056 0
M  V30 4360 N 410.912 0.523116 1.48665 0
M  V30 4361 C 412.328 0.180511 1.58576 0
M  V30 4362 C 412.528 -1.31597 1.52592 0
M  V30 4363 O 411.584 -2.0937 1.4114 0
M  V30 4364 C 412.897 0.776949 2.90489 0
M  V30 4365 C 414.445 0.745058 3.04003 0
M  V30 4366 C 414.92 1.31995 4.38567 0
M  V30 4367 N 416.411 1.28162 4.45117 0
M  V30 4368 C 417.146 1.6964 5.47731 0
M  V30 4369 N 416.642 2.18816 6.57337 0
M  V30 4370 N 418.435 1.6092 5.38573 0
M  V30 4371 H 410.586 1.4958 1.50797 0
M  V30 4372 H 412.849 0.621772 0.715614 0
M  V30 4373 H 412.555 1.82732 3.00503 0
M  V30 4374 H 412.429 0.25007 3.7637 0
M  V30 4375 H 414.816 -0.296532 2.93606 0
M  V30 4376 H 414.897 1.30933 2.1975 0
M  V30 4377 H 414.541 2.36043 4.49718 0
M  V30 4378 H 414.471 0.731418 5.21496 0
M  V30 4379 H 416.962 0.92155 3.66491 0
M  V30 4380 H 417.275 2.48478 7.31764 0
M  V30 4381 H 415.62 2.22805 6.58318 0
M  V30 4382 H 418.811 1.22304 4.5184 0
M  V30 4383 H 418.984 1.93567 6.18414 0
M  V30 4384 N 412.39 -1.55475 0.257931 0
M  V30 4385 C 413.353 -2.20551 -0.623706 0
M  V30 4386 C 414.353 -1.17809 -1.09443 0
M  V30 4387 O 415.543 -1.42823 -0.997362 0
M  V30 4388 C 412.675 -2.85784 -1.8585 0
M  V30 4389 H 413.868 -2.99848 -0.0557743 0
M  V30 4390 H 411.421 -1.56298 0.0084422 0
M  V30 4391 H 412.156 -2.10453 -2.46739 0
M  V30 4392 H 411.941 -3.61057 -1.52907 0
M  V30 4393 H 413.431 -3.35553 -2.48584 0
M  V30 4394 N 413.868 0.0150385 -1.57593 0
M  V30 4395 C 414.778 1.02791 -2.10882 0
M  V30 4396 C 415.794 1.38702 -1.0506 0
M  V30 4397 O 416.97 1.47739 -1.36877 0
M  V30 4398 C 414.035 2.30568 -2.58919 0
M  V30 4399 C 413.096 2.01108 -3.79281 0
M  V30 4400 C 412.329 3.22794 -4.25018 0
M  V30 4401 O 412.552 4.33959 -3.70183 0
M  V30 4402 O 411.486 3.07672 -5.17322 0
M  V30 4403 H 415.312 0.604973 -2.97613 0
M  V30 4404 H 412.897 0.23292 -1.47573 0
M  V30 4405 H 414.779 3.05662 -2.90084 0
M  V30 4406 H 413.454 2.72129 -1.75293 0
M  V30 4407 H 412.361 1.23537 -3.53114 0
M  V30 4408 H 413.694 1.64394 -4.63935 0
M  V30 4409 N 415.346 1.54954 0.287554 0
M  V30 4410 C 416.279 1.81737 1.3801 0
M  V30 4411 C 417.257 0.669412 1.48181 0
M  V30 4412 O 418.441 0.910839 1.65033 0
M  V30 4413 C 415.568 1.96606 2.75796 0
M  V30 4414 C 414.614 3.19098 2.82982 0
M  V30 4415 S 415.447 4.7683 2.43707 0
M  V30 4416 C 416.603 4.94653 3.83496 0
M  V30 4417 H 416.836 2.74122 1.15085 0
M  V30 4418 H 414.369 1.46538 0.486403 0
M  V30 4419 H 416.327 2.05858 3.55152 0
M  V30 4420 H 414.988 1.05136 2.95982 0
M  V30 4421 H 414.181 3.26344 3.84077 0
M  V30 4422 H 413.783 3.08361 2.11635 0
M  V30 4423 H 416.075 4.79502 4.78628 0
M  V30 4424 H 417.018 5.96728 3.8121 0
M  V30 4425 H 417.426 4.2272 3.74123 0
M  V30 4426 N 416.824 -0.551391 1.4764 0
M  V30 4427 C 418.049 -1.33837 1.58437 0
M  V30 4428 C 418.474 -1.866 0.237063 0
M  V30 4429 O 417.832 -1.6328 -0.787994 0
M  V30 4430 C 417.88 -2.48014 2.61766 0
M  V30 4431 O 416.984 -3.50419 2.1744 0
M  V30 4432 H 416.325 -0.397299 0.532024 0
M  V30 4433 H 418.855 -0.665759 1.93465 0
M  V30 4434 H 418.865 -2.94503 2.82369 0
M  V30 4435 H 417.54 -2.08969 3.5959 0
M  V30 4436 H 416.117 -3.10196 2.06961 0
M  V30 4437 N 418.302 -1.35869 -0.798587 0
M  V30 4438 C 419.532 -1.32529 -1.58491 0
M  V30 4439 C 419.94 0.0975405 -1.88948 0
M  V30 4440 O 419.283 1.06224 -1.49874 0
M  V30 4441 C 419.345 -2.07247 -2.9375 0
M  V30 4442 C 419.009 -3.56391 -2.86068 0
M  V30 4443 C 420.006 -4.50824 -2.58947 0
M  V30 4444 C 417.691 -3.9915 -3.04933 0
M  V30 4445 C 419.685 -5.85993 -2.5078 0
M  V30 4446 C 417.372 -5.34413 -2.96389 0
M  V30 4447 C 418.37 -6.27646 -2.69349 0
M  V30 4448 O 418.058 -7.60426 -2.60782 0
M  V30 4449 H 417.79 -0.456529 -0.498556 0
M  V30 4450 H 420.344 -1.79425 -0.999799 0
M  V30 4451 H 418.574 -1.55001 -3.54276 0
M  V30 4452 H 420.263 -1.96883 -3.54954 0
M  V30 4453 H 421.029 -4.19104 -2.44084 0
M  V30 4454 H 416.908 -3.26961 -3.24989 0
M  V30 4455 H 420.452 -6.58735 -2.29595 0
M  V30 4456 H 416.349 -5.65743 -3.10813 0
M  V30 4457 H 417.117 -7.70444 -2.76331 0
M  V30 4458 N 419.78 1.02168 -1.19998 0
M  V30 4459 C 420.743 2.08765 -0.94604 0
M  V30 4460 C 421.743 1.60618 0.0763846 0
M  V30 4461 O 422.933 1.73472 -0.159135 0
M  V30 4462 C 420.065 3.38262 -0.423255 0
M  V30 4463 H 421.258 2.32726 -1.89153 0
M  V30 4464 H 418.811 1.1889 -1.01464 0
M  V30 4465 H 419.546 3.19974 0.527938 0
M  V30 4466 H 419.331 3.74532 -1.16053 0
M  V30 4467 H 420.821 4.16759 -0.264911 0
M  V30 4468 N 421.258 1.00505 1.21394 0
M  V30 4469 C 422.507 0.683159 1.89778 0
M  V30 4470 C 422.82 -0.789471 1.7896 0
M  V30 4471 O 424.026 -1.22344 2.42372 0
M  V30 4472 C 422.482 1.17146 3.40301 0
M  V30 4473 C 422.09 2.67017 3.5973 0
M  V30 4474 C 423.834 0.924461 4.14311 0
M  V30 4475 C 421.741 3.09387 5.04017 0
M  V30 4476 H 420.671 0.25183 0.710702 0
M  V30 4477 H 423.322 1.21622 1.37406 0
M  V30 4478 H 421.704 0.566451 3.91928 0
M  V30 4479 H 422.878 3.32968 3.18542 0
M  V30 4480 H 421.193 2.89732 2.99073 0
M  V30 4481 H 423.79 1.21658 5.20676 0
M  V30 4482 H 424.133 -0.139286 4.16067 0
M  V30 4483 H 424.666 1.49226 3.6875 0
M  V30 4484 H 421.405 4.14989 5.07409 0
M  V30 4485 H 420.925 2.48149 5.46061 0
M  V30 4486 H 422.604 3.01371 5.72525 0
M  V30 4487 N 422.737 -1.36956 0.779787 0
M  V30 4488 C 423.977 -2.01328 0.353043 0
M  V30 4489 C 424.341 -1.60558 -1.05286 0
M  V30 4490 O 425.542 -2.1745 -1.58016 0
M  V30 4491 C 423.813 -3.53874 0.500822 0
M  V30 4492 S 425.372 -4.38506 0.16053 0
M  V30 4493 H 422.19 -0.69799 0.13539 0
M  V30 4494 H 424.792 -1.67016 1.01617 0
M  V30 4495 H 423.496 -3.81034 1.52451 0
M  V30 4496 H 423.027 -3.92994 -0.178574 0
M  V30 4497 H 425.042 -4.85153 -1.04121 0
M  V30 4498 N 424.215 -0.530993 -1.48385 0
M  V30 4499 C 425.165 0.251092 -2.26613 0
M  V30 4500 C 426.149 0.908977 -1.32765 0
M  V30 4501 O 427.341 0.811616 -1.57295 0
M  V30 4502 C 424.47 1.29677 -3.17866 0
M  V30 4503 C 423.556 0.643627 -4.19188 0
M  V30 4504 N 423.947 -0.271223 -5.05072 0
M  V30 4505 C 422.245 0.900711 -4.3681 0
M  V30 4506 C 422.946 -0.648109 -5.78078 0
M  V30 4507 N 421.922 -0.00895987 -5.43599 0
M  V30 4508 H 425.724 -0.452702 -2.90393 0
M  V30 4509 H 423.238 -0.349091 -1.58604 0
M  V30 4510 H 425.235 1.87079 -3.72568 0
M  V30 4511 H 423.895 2.00193 -2.55642 0
M  V30 4512 H 424.906 -0.643883 -5.13882 0
M  V30 4513 H 421.583 1.59636 -3.85775 0
M  V30 4514 H 422.973 -1.39833 -6.57188 0
M  V30 4515 N 425.693 1.55336 -0.266172 0
M  V30 4516 C 426.921 2.03801 0.356756 0
M  V30 4517 C 427.336 1.14485 1.50129 0
M  V30 4518 O 426.693 0.163121 1.8177 0
M  V30 4519 C 426.744 3.51455 0.846281 0
M  V30 4520 O 426.465 4.37371 -0.252663 0
M  V30 4521 C 427.966 4.15767 1.53794 0
M  V30 4522 H 425.186 0.665906 0.0825218 0
M  V30 4523 H 427.73 2.00636 -0.39566 0
M  V30 4524 H 425.885 3.55092 1.54881 0
M  V30 4525 H 426.299 5.24358 0.122173 0
M  V30 4526 H 427.773 5.20714 1.83198 0
M  V30 4527 H 428.25 3.63404 2.46646 0
M  V30 4528 H 428.856 4.16107 0.879488 0
M  V30 4529 N 427.171 -0.0066808 1.57599 0
M  V30 4530 C 428.101 -0.999296 2.11036 0
M  V30 4531 C 429.082 -1.36278 1.01795 0
M  V30 4532 O 430.267 -1.4477 1.29442 0
M  V30 4533 C 427.397 -2.29328 2.60818 0
M  V30 4534 C 426.351 -2.07159 3.74525 0
M  V30 4535 C 425.677 -3.42512 4.10596 0
M  V30 4536 C 426.977 -1.43959 5.02069 0
M  V30 4537 H 428.671 -0.554382 2.94223 0
M  V30 4538 H 426.217 -0.265221 1.41536 0
M  V30 4539 H 428.17 -2.99117 2.96828 0
M  V30 4540 H 426.894 -2.7592 1.74745 0
M  V30 4541 H 425.553 -1.39797 3.38899 0
M  V30 4542 H 425.201 -3.86795 3.21556 0
M  V30 4543 H 424.901 -3.28498 4.87199 0
M  V30 4544 H 426.425 -4.13628 4.4916 0
M  V30 4545 H 427.839 -2.03696 5.35893 0
M  V30 4546 H 426.236 -1.40452 5.83432 0
M  V30 4547 H 427.306 -0.407992 4.83181 0
M  V30 4548 N 428.649 -1.55105 -0.279332 0
M  V30 4549 C 429.897 -1.75066 -1.00977 0
M  V30 4550 C 430.218 -0.551276 -1.87045 0
M  V30 4551 O 429.488 0.433984 -1.91032 0
M  V30 4552 H 428.068 -0.645578 -0.375816 0
M  V30 4553 H 430.73 -1.92497 -0.305089 0
M  V30 4554 H 429.826 -2.64894 -1.65038 0
M  V30 4555 N 430.127 0.543554 -1.4793 0
M  V30 4556 C 431.373 1.30201 -1.55485 0
M  V30 4557 C 431.706 1.92925 -0.222201 0
M  V30 4558 O 430.981 1.78586 0.77053 0
M  V30 4559 C 431.264 2.40174 -2.68307 0
M  V30 4560 C 431.117 1.8223 -4.11233 0
M  V30 4561 C 432.436 3.42024 -2.76961 0
M  V30 4562 H 429.555 0.472036 -0.565996 0
M  V30 4563 H 432.197 0.606914 -1.80046 0
M  V30 4564 H 430.347 2.99463 -2.47495 0
M  V30 4565 H 432.019 1.27096 -4.43446 0
M  V30 4566 H 430.262 1.12832 -4.18869 0
M  V30 4567 H 430.933 2.61793 -4.85972 0
M  V30 4568 H 433.409 2.92672 -2.95774 0
M  V30 4569 H 432.285 4.16383 -3.57654 0
M  V30 4570 H 432.546 4.0173 -1.84568 0
M  V30 4571 N 431.605 1.3629 0.791371 0
M  V30 4572 C 433.021 1.16661 1.08914 0
M  V30 4573 C 433.221 -0.0106266 2.01497 0
M  V30 4574 O 432.277 -0.676596 2.43266 0
M  V30 4575 C 433.59 2.47656 1.70549 0
M  V30 4576 C 435.138 2.54002 1.82899 0
M  V30 4577 C 435.613 3.85078 2.47949 0
M  V30 4578 N 437.104 3.86413 2.5542 0
M  V30 4579 C 437.839 4.84572 3.06557 0
M  V30 4580 N 437.335 5.93124 3.58016 0
M  V30 4581 N 439.128 4.71994 3.05251 0
M  V30 4582 H 431.279 2.11668 0.176238 0
M  V30 4583 H 433.542 0.937486 0.140796 0
M  V30 4584 H 433.248 3.34059 1.09989 0
M  V30 4585 H 433.122 2.63319 2.70079 0
M  V30 4586 H 435.509 1.68018 2.42598 0
M  V30 4587 H 435.59 2.42239 0.821808 0
M  V30 4588 H 435.234 4.71467 1.88895 0
M  V30 4589 H 435.164 3.94135 3.49235 0
M  V30 4590 H 437.655 3.07988 2.18979 0
M  V30 4591 H 437.968 6.63999 3.95381 0
M  V30 4592 H 436.313 5.96796 3.56173 0
M  V30 4593 H 439.504 3.86321 2.64336 0
M  V30 4594 H 439.677 5.48653 3.44796 0
M  V30 4595 N 433.083 -1.0153 1.20538 0
M  V30 4596 C 434.494 -1.56598 1.01657 0
M  V30 4597 C 434.845 -1.91505 -0.426668 0
M  V30 4598 O 433.97 -1.72375 -1.30827 0
M  V30 4599 C 434.565 -2.84542 1.83905 0
M  V30 4600 C 433.124 -3.36133 1.69386 0
M  V30 4601 C 432.271 -2.09427 1.81757 0
M  V30 4602 H 435.222 -0.838974 1.34711 0
M  V30 4603 H 435.243 -3.56004 1.34319 0
M  V30 4604 H 434.755 -2.59105 2.8894 0
M  V30 4605 H 432.856 -3.66528 0.669933 0
M  V30 4606 H 432.969 -4.08248 2.50739 0
M  V30 4607 H 431.333 -2.21941 1.24957 0
M  V30 4608 H 432.116 -1.86414 2.88279 0
M  V30 4609 N 434.561 -1.01147 -1.20859 0
M  V30 4610 C 435.809 -0.696486 -1.89719 0
M  V30 4611 C 436.13 0.775788 -1.78904 0
M  V30 4612 O 435.4 1.55759 -1.18811 0
M  V30 4613 H 433.98 -0.254628 -0.702263 0
M  V30 4614 H 436.642 -1.28197 -1.46804 0
M  V30 4615 H 435.738 -0.975357 -2.96468 0
M  V30 4616 N 436.039 1.36541 -0.78704 0
M  V30 4617 C 436.969 2.32659 -0.197992 0
M  V30 4618 C 437.95 1.56533 0.665697 0
M  V30 4619 O 439.135 1.84698 0.60001 0
M  V30 4620 C 436.265 3.40778 0.669901 0
M  V30 4621 C 435.219 4.27897 -0.0937039 0
M  V30 4622 C 434.545 5.27163 0.894629 0
M  V30 4623 C 435.845 5.06334 -1.28154 0
M  V30 4624 H 437.539 2.82171 -1.00099 0
M  V30 4625 H 435.085 1.35665 -0.482793 0
M  V30 4626 H 437.038 4.07008 1.09191 0
M  V30 4627 H 435.762 2.89827 1.50558 0
M  V30 4628 H 434.421 3.6322 -0.49666 0
M  V30 4629 H 434.069 4.72486 1.72527 0
M  V30 4630 H 433.769 5.86317 0.388149 0
M  V30 4631 H 435.293 5.96266 1.31525 0
M  V30 4632 H 436.707 5.65617 -0.93541 0
M  V30 4633 H 435.104 5.74888 -1.72115 0
M  V30 4634 H 436.174 4.38114 -2.07807 0
M  V30 4635 O 437.556 0.680126 1.4648 0
M  V30 4636 H 438.247 0.213972 1.92515 0
M  V30 END ATOM
M  V30 BEGIN BOND
M  V30 END BOND
M  V30 END CTAB
M  END
$$$$
