drugbank_target|P0AE22 Class B acid phosphatase (DB02594)
 OpenBabel12092120033D

  0  0  0     0  0            999 V3000
M  V30 BEGIN CTAB
M  V30 COUNTS 3656 3701 0 0 0
M  V30 BEGIN ATOM
M  V30 1 H -0.908 1.98254 -0.117106 0
M  V30 2 N 0 1.576 0 0
M  V30 3 C 0.933 2.03868 1.02534 0
M  V30 4 C 1.911 0.928543 1.3348 0
M  V30 5 O 3.095 1.19667 1.45644 0
M  V30 6 C 0.222 2.43627 2.35294 0
M  V30 7 C -0.732 3.65373 2.2001 0
M  V30 8 S 0.101 5.13292 1.52614 0
M  V30 9 C 1.257 5.56322 2.86805 0
M  V30 10 H 1.49 2.90518 0.631377 0
M  V30 11 H -0.977 1.52953 0.210867 0
M  V30 12 H 0.981 2.67203 3.11629 0
M  V30 13 H -0.358 1.57376 2.7183 0
M  V30 14 H -1.165 3.90944 3.18086 0
M  V30 15 H -1.563 3.418 1.51819 0
M  V30 16 H 0.729 5.58782 3.83104 0
M  V30 17 H 1.672 6.56266 2.65933 0
M  V30 18 H 2.08 4.83886 2.90714 0
M  V30 19 N 1.4781 -0.272755 1.55222 0
M  V30 20 C 2.8941 -0.619959 1.47067 0
M  V30 21 C 3.0941 -1.895 0.684978 0
M  V30 22 O 2.1501 -2.51675 0.203931 0
M  V30 23 C 3.4631 -0.746693 2.91282 0
M  V30 24 C 5.0111 -0.840731 3.01497 0
M  V30 25 C 5.4861 -0.99924 4.46967 0
M  V30 26 N 6.9771 -1.06476 4.50796 0
M  V30 27 C 7.7121 -1.20621 5.6057 0
M  V30 28 N 7.2081 -1.31483 6.80209 0
M  V30 29 N 9.0011 -1.23733 5.48312 0
M  V30 30 H 1.1521 0.564606 2.04758 0
M  V30 31 H 3.4151 0.191177 0.928523 0
M  V30 32 H 3.1211 0.119753 3.51496 0
M  V30 33 H 2.9951 -1.6269 3.40311 0
M  V30 34 H 5.3821 -1.69764 2.41379 0
M  V30 35 H 5.4631 0.0640874 2.5572 0
M  V30 36 H 5.1071 -0.146984 5.07687 0
M  V30 37 H 5.0371 -1.91871 4.90401 0
M  V30 38 H 7.5281 -0.993196 3.64615 0
M  V30 39 H 7.8411 -1.42111 7.59621 0
M  V30 40 H 6.1861 -1.28487 6.8302 0
M  V30 41 H 9.3771 -1.14877 4.53785 0
M  V30 42 H 9.5501 -1.34412 6.33906 0
M  V30 43 N 2.9562 -1.48159 -0.537278 0
M  V30 44 C 3.9032 -1.62138 -1.64256 0
M  V30 45 C 4.8732 -0.463668 -1.59497 0
M  V30 46 O 6.0582 -0.686241 -1.78032 0
M  V30 47 C 3.1982 -1.66028 -3.02537 0
M  V30 48 C 2.3112 -2.92855 -3.17585 0
M  V30 49 C 1.4462 -2.87952 -4.46382 0
M  V30 50 C 0.4852 -4.09516 -4.54932 0
M  V30 51 N -0.3778 -4.02733 -5.75109 0
M  V30 52 H 4.4622 -2.56529 -1.51647 0
M  V30 53 H 1.9992 -1.27224 -0.738414 0
M  V30 54 H 3.9572 -1.66265 -3.82638 0
M  V30 55 H 2.5872 -0.751331 -3.13934 0
M  V30 56 H 1.6392 -3.02395 -2.30784 0
M  V30 57 H 2.9512 -3.82822 -3.19764 0
M  V30 58 H 2.1052 -2.8655 -5.34765 0
M  V30 59 H 0.8442 -1.95702 -4.46712 0
M  V30 60 H -0.1508 -4.11201 -3.64957 0
M  V30 61 H 1.0742 -5.02917 -4.56346 0
M  V30 62 H -0.9798 -3.13299 -5.76351 0
M  V30 63 H -1.0628 -4.86397 -5.78752 0
M  V30 64 H 0.2052 -4.05379 -6.65799 0
M  V30 65 N 4.4343 0.785586 -1.36625 0
M  V30 66 C 5.6833 1.53883 -1.30396 0
M  V30 67 C 5.9963 1.95271 0.113452 0
M  V30 68 O 7.2023 2.69858 0.298142 0
M  V30 69 C 5.6583 2.77808 -2.28802 0
M  V30 70 C 5.2663 2.43574 -3.75999 0
M  V30 71 C 7.0103 3.55783 -2.31558 0
M  V30 72 C 4.9173 3.63919 -4.66173 0
M  V30 73 H 3.8473 0.577678 -0.484566 0
M  V30 74 H 6.4983 0.861705 -1.62009 0
M  V30 75 H 4.8803 3.47339 -1.90188 0
M  V30 76 H 6.0543 1.81916 -4.23371 0
M  V30 77 H 4.3693 1.78803 -3.76056 0
M  V30 78 H 6.9663 4.45205 -2.96137 0
M  V30 79 H 7.3093 3.94644 -1.3252 0
M  V30 80 H 7.8423 2.93235 -2.68809 0
M  V30 81 H 4.5813 3.3015 -5.66287 0
M  V30 82 H 4.1013 4.2473 -4.23515 0
M  V30 83 H 5.7803 4.30901 -4.82632 0
M  V30 84 N 5.9124 1.20967 1.01018 0
M  V30 85 C 7.1404 1.04956 1.78303 0
M  V30 86 C 7.5554 -0.400915 1.84494 0
M  V30 87 O 6.9124 -1.27826 1.30257 0
M  V30 88 C 6.9634 1.63403 3.22462 0
M  V30 89 O 6.6844 3.02775 3.16637 0
M  V30 90 C 8.1854 1.52432 4.16268 0
M  V30 91 H 5.4054 0.368858 0.560522 0
M  V30 92 H 7.9494 1.60193 1.27116 0
M  V30 93 H 6.1044 1.1227 3.70775 0
M  V30 94 H 6.5184 3.30626 4.07169 0
M  V30 95 H 7.9924 1.98078 5.15237 0
M  V30 96 H 8.4694 0.477875 4.36592 0
M  V30 97 H 9.0754 2.02787 3.73841 0
M  V30 98 N 7.3905 -1.2043 1.01659 0
M  V30 99 C 8.3225 -2.22626 0.544988 0
M  V30 100 C 9.3355 -1.58479 -0.372609 0
M  V30 101 O 10.5245 -1.77679 -0.170958 0
M  V30 102 C 7.6245 -3.38141 -0.22663 0
M  V30 103 C 6.7975 -4.31877 0.692876 0
M  V30 104 C 5.8565 -5.26191 -0.0311616 0
M  V30 105 O 4.8825 -5.6612 0.591343 0
M  V30 106 N 6.0845 -5.65618 -1.30601 0
M  V30 107 H 8.8495 -2.63716 1.42388 0
M  V30 108 H 6.4105 -1.34971 0.894116 0
M  V30 109 H 8.4025 -3.98239 -0.72024 0
M  V30 110 H 6.9725 -2.95943 -1.00681 0
M  V30 111 H 6.1925 -3.69746 1.36679 0
M  V30 112 H 7.4805 -4.91426 1.31824 0
M  V30 113 H 6.8785 -5.3519 -1.83269 0
M  V30 114 H 5.4355 -6.28025 -1.74435 0
M  V30 115 N 8.8686 -0.792821 -1.36206 0
M  V30 116 C 9.8316 -0.199459 -2.2833 0
M  V30 117 C 10.8316 0.605189 -1.48977 0
M  V30 118 O 12.0216 0.425685 -1.68919 0
M  V30 119 C 9.1536 0.723523 -3.33134 0
M  V30 120 H 10.3466 -1.01181 -2.82316 0
M  V30 121 H 7.8996 -0.562485 -1.45828 0
M  V30 122 H 8.6346 1.56008 -2.84309 0
M  V30 123 H 8.4196 0.148436 -3.91819 0
M  V30 124 H 9.9096 1.13344 -4.01924 0
M  V30 125 N 10.3467 1.47872 -0.545128 0
M  V30 126 C 11.5957 2.01695 -0.0145033 0
M  V30 127 C 11.9087 1.42609 1.33873 0
M  V30 128 O 13.1147 1.88021 1.95858 0
M  V30 129 C 11.5707 3.59892 0.0245068 0
M  V30 130 C 11.1787 4.27966 -1.32475 0
M  V30 131 C 12.9227 4.21507 0.50316 0
M  V30 132 C 10.8297 5.78136 -1.2455 0
M  V30 133 H 9.7597 0.753998 -0.00165172 0
M  V30 134 H 12.4107 1.69985 -0.691175 0
M  V30 135 H 10.7927 3.88509 0.766575 0
M  V30 136 H 11.9667 4.11003 -2.08357 0
M  V30 137 H 10.2817 3.78286 -1.74036 0
M  V30 138 H 12.8787 5.31538 0.580656 0
M  V30 139 H 13.2217 3.87855 1.51243 0
M  V30 140 H 13.7547 3.97376 -0.183681 0
M  V30 141 H 10.4937 6.16388 -2.23039 0
M  V30 142 H 10.0137 5.97469 -0.528282 0
M  V30 143 H 11.6927 6.40099 -0.942488 0
M  V30 144 N 11.8248 0.280983 1.55075 0
M  V30 145 C 13.0498 -0.340154 2.04592 0
M  V30 146 C 13.4748 -1.48246 1.15779 0
M  V30 147 O 12.8328 -1.80614 0.15761 0
M  V30 148 C 12.8808 -0.793104 3.5177 0
M  V30 149 O 11.9848 -1.89981 3.66034 0
M  V30 150 H 11.3258 -0.0694289 0.66036 0
M  V30 151 H 13.8558 0.416993 2.00306 0
M  V30 152 H 13.8658 -1.08729 3.93245 0
M  V30 153 H 12.5408 0.0426163 4.15878 0
M  V30 154 H 11.1178 -1.60771 3.36463 0
M  V30 155 N 13.3029 -1.57598 0.00835791 0
M  V30 156 C 14.2659 -2.07884 -0.965242 0
M  V30 157 C 15.2659 -0.989825 -1.26725 0
M  V30 158 O 16.4559 -1.25218 -1.21104 0
M  V30 159 C 13.5879 -2.52731 -2.28779 0
M  V30 160 H 14.7809 -2.95178 -0.530112 0
M  V30 161 H 12.3339 -1.54458 -0.239283 0
M  V30 162 H 13.0689 -1.68705 -2.76964 0
M  V30 163 H 12.8539 -3.32272 -2.08177 0
M  V30 164 H 14.3439 -2.91933 -2.98605 0
M  V30 165 N 14.781 0.264519 -1.55364 0
M  V30 166 C 16.027 0.99646 -1.76631 0
M  V30 167 C 16.36 1.85632 -0.570478 0
M  V30 168 O 15.635 1.89647 0.43175 0
M  V30 169 C 15.918 1.87187 -3.07625 0
M  V30 170 C 15.771 1.04138 -4.37579 0
M  V30 171 C 17.09 2.85749 -3.34717 0
M  V30 172 H 14.209 0.360841 -0.642622 0
M  V30 173 H 16.851 0.268218 -1.88097 0
M  V30 174 H 15.001 2.49279 -2.9798 0
M  V30 175 H 16.673 0.440517 -4.59192 0
M  V30 176 H 14.916 0.345115 -4.32425 0
M  V30 177 H 15.587 1.68729 -5.2558 0
M  V30 178 H 18.063 2.33793 -3.4421 0
M  V30 179 H 16.939 3.44136 -4.27623 0
M  V30 180 H 17.2 3.61311 -2.54768 0
M  V30 181 N 16.2591 1.48442 0.529413 0
M  V30 182 C 17.4991 1.58086 1.29569 0
M  V30 183 C 17.8631 0.249302 1.90375 0
M  V30 184 O 19.0641 0.220738 2.67892 0
M  V30 185 C 17.3351 2.68793 2.35552 0
M  V30 186 S 18.8941 2.98207 3.21898 0
M  V30 187 H 15.7121 0.557922 0.440732 0
M  V30 188 H 18.3141 1.85966 0.603059 0
M  V30 189 H 17.0181 3.64102 1.89363 0
M  V30 190 H 16.5491 2.42817 3.09522 0
M  V30 191 H 18.5641 2.37548 4.35644 0
M  V30 192 N 17.7372 -0.778329 1.37039 0
M  V30 193 C 18.6672 -1.90546 1.34962 0
M  V30 194 C 19.6482 -1.68681 0.219274 0
M  V30 195 O 20.8332 -1.89634 0.418624 0
M  V30 196 C 17.9632 -3.27734 1.14925 0
M  V30 197 C 16.9172 -3.64147 2.24902 0
M  V30 198 C 16.2432 -4.99806 1.89996 0
M  V30 199 C 17.5432 -3.71579 3.67051 0
M  V30 200 H 19.2372 -1.92541 2.29277 0
M  V30 201 H 16.7832 -0.924948 1.10366 0
M  V30 202 H 18.7362 -4.06215 1.12104 0
M  V30 203 H 17.4602 -3.26154 0.170631 0
M  V30 204 H 16.1192 -2.8797 2.26868 0
M  V30 205 H 15.7672 -4.94759 0.906796 0
M  V30 206 H 15.4672 -5.25139 2.63634 0
M  V30 207 H 16.9912 -5.80694 1.88749 0
M  V30 208 H 18.4052 -4.40227 3.67251 0
M  V30 209 H 16.8022 -4.08405 4.39688 0
M  V30 210 H 17.8722 -2.72404 4.01154 0
M  V30 211 N 19.2153 -1.21501 -1.00376 0
M  V30 212 C 20.1453 -0.999478 -2.11028 0
M  V30 213 C 21.1263 0.0759671 -1.6993 0
M  V30 214 O 22.3113 -0.0841106 -1.94018 0
M  V30 215 C 19.4413 -0.564709 -3.42678 0
M  V30 216 C 18.3953 -1.58486 -3.97576 0
M  V30 217 C 17.7213 -1.00628 -5.25146 0
M  V30 218 C 19.0213 -2.97204 -4.29496 0
M  V30 219 H 20.7153 -1.92495 -2.29317 0
M  V30 220 H 18.2613 -0.92693 -1.102 0
M  V30 221 H 20.2143 -0.401091 -4.19487 0
M  V30 222 H 18.9383 0.396411 -3.24185 0
M  V30 223 H 17.5973 -1.73606 -3.22888 0
M  V30 224 H 17.2453 -0.0368439 -5.02987 0
M  V30 225 H 16.9453 -1.68771 -5.62841 0
M  V30 226 H 18.4693 -0.854015 -6.04598 0
M  V30 227 H 19.8833 -2.8552 -4.97143 0
M  V30 228 H 18.2803 -3.62372 -4.78338 0
M  V30 229 H 19.3503 -3.47956 -3.3772 0
M  V30 230 N 20.6934 1.19889 -1.02296 0
M  V30 231 C 21.9404 1.8942 -0.715972 0
M  V30 232 C 22.2684 1.79251 0.754944 0
M  V30 233 O 21.5234 1.17526 1.56481 0
M  V30 234 C 21.8224 3.39883 -1.10518 0
M  V30 235 C 21.4884 3.70254 -2.57337 0
M  V30 236 C 20.1504 3.78254 -2.97452 0
M  V30 237 C 22.5024 3.84052 -3.52354 0
M  V30 238 C 19.8304 3.97514 -4.31509 0
M  V30 239 C 22.1824 4.04824 -4.86108 0
M  V30 240 C 20.8464 4.11054 -5.25919 0
M  V30 241 H 20.1164 0.693138 -0.261993 0
M  V30 242 H 22.7634 1.42012 -1.28472 0
M  V30 243 H 21.0684 3.8915 -0.454953 0
M  V30 244 H 22.7654 3.9199 -0.845261 0
M  V30 245 H 19.3554 3.64632 -2.25258 0
M  V30 246 H 23.5394 3.77221 -3.22518 0
M  V30 247 H 18.7954 4.00574 -4.61898 0
M  V30 248 H 22.9694 4.14442 -5.59653 0
M  V30 249 H 20.5964 4.2573 -6.29808 0
M  V30 250 N 22.1715 0.800033 1.35784 0
M  V30 251 C 23.1345 0.211565 2.28221 0
M  V30 252 C 24.1345 -0.59728 1.49296 0
M  V30 253 O 25.3245 -0.416721 1.69142 0
M  V30 254 C 22.4565 -0.705846 3.33513 0
M  V30 255 H 23.6495 1.02677 2.81776 0
M  V30 256 H 21.2025 0.570211 1.45528 0
M  V30 257 H 21.9375 -1.54498 2.85133 0
M  V30 258 H 21.7225 -0.127655 3.91892 0
M  V30 259 H 23.2125 -1.11211 4.02519 0
M  V30 260 N 23.6496 -1.47581 0.552962 0
M  V30 261 C 24.5796 -2.32762 -0.185451 0
M  V30 262 C 25.5606 -1.43527 -0.912905 0
M  V30 263 O 26.7456 -1.72388 -0.894201 0
M  V30 264 C 23.8756 -3.25219 -1.21859 0
M  V30 265 C 22.8296 -4.23661 -0.607864 0
M  V30 266 C 22.1556 -5.05413 -1.74533 0
M  V30 267 C 23.4556 -5.20481 0.435582 0
M  V30 268 H 25.1496 -2.94749 0.525684 0
M  V30 269 H 22.6956 -1.41738 0.254251 0
M  V30 270 H 24.6486 -3.8365 -1.7433 0
M  V30 271 H 23.3726 -2.61279 -1.95961 0
M  V30 272 H 22.0316 -3.66451 -0.104489 0
M  V30 273 H 21.6796 -4.3788 -2.47529 0
M  V30 274 H 21.3796 -5.72059 -1.34249 0
M  V30 275 H 22.9036 -5.66701 -2.27338 0
M  V30 276 H 24.3176 -5.733 -0.00290157 0
M  V30 277 H 22.7146 -5.95305 0.757067 0
M  V30 278 H 23.7846 -4.66217 1.33303 0
M  V30 279 N 25.1277 -0.289203 -1.54924 0
M  V30 280 C 26.0757 0.607966 -2.24514 0
M  V30 281 C 27.0697 1.14655 -1.24702 0
M  V30 282 O 28.2757 1.09856 -1.4259 0
M  V30 283 H 24.6507 0.21464 -0.720718 0
M  V30 284 H 26.6217 -0.00164182 -2.984 0
M  V30 285 C 25.3707 1.77406 -2.99036 0
M  V30 286 H 24.6937 1.36884 -3.75637 0
M  V30 287 H 26.1337 2.37814 -3.51028 0
M  V30 288 C 24.5927 2.67107 -2.05318 0
M  V30 289 O 25.1227 3.6787 -1.61353 0
M  V30 290 N 23.3287 2.34582 -1.71521 0
M  V30 291 H 22.8757 1.52688 -2.07471 0
M  V30 292 H 22.8337 2.94867 -1.0909 0
M  V30 293 N 26.6058 1.57591 -0.0167156 0
M  V30 294 C 27.8308 1.9598 0.67872 0
M  V30 295 C 28.2558 0.892546 1.65575 0
M  V30 296 O 27.6138 -0.147772 1.80697 0
M  V30 297 C 27.6618 3.33468 1.37227 0
M  V30 298 O 26.7658 3.28954 2.48722 0
M  V30 299 H 26.1068 0.639339 0.17928 0
M  V30 300 H 28.6368 2.04463 -0.0748802 0
M  V30 301 H 28.6468 3.69417 1.7319 0
M  V30 302 H 27.3218 4.10694 0.656007 0
M  V30 303 H 25.8988 3.04705 2.14963 0
M  V30 304 N 28.0839 -0.256276 1.55502 0
M  V30 305 C 29.3089 -1.00766 1.81276 0
M  V30 306 C 29.7339 -1.78524 0.59252 0
M  V30 307 O 29.0919 -1.75413 -0.45827 0
M  V30 308 C 29.1399 -1.92869 3.04687 0
M  V30 309 O 28.2439 -3.019 2.80945 0
M  V30 310 H 27.5849 -0.287224 0.598664 0
M  V30 311 H 30.1149 -0.280109 2.02674 0
M  V30 312 H 30.1249 -2.34511 3.33869 0
M  V30 313 H 28.7999 -1.35689 3.93143 0
M  V30 314 H 27.3769 -2.64454 2.62904 0
M  V30 315 N 29.562 -1.4872 -0.521534 0
M  V30 316 C 30.525 -1.63379 -1.60748 0
M  V30 317 C 31.525 -0.50661 -1.52611 0
M  V30 318 O 32.715 -0.772601 -1.5613 0
M  V30 319 C 29.847 -1.61192 -3.00383 0
M  V30 320 H 31.04 -2.60217 -1.49087 0
M  V30 321 H 28.593 -1.37444 -0.744235 0
M  V30 322 H 29.328 -0.65863 -3.17541 0
M  V30 323 H 29.113 -2.43032 -3.07698 0
M  V30 324 H 30.603 -1.7466 -3.7932 0
M  V30 325 N 31.0401 0.771051 -1.3745 0
M  V30 326 C 32.2861 1.5319 -1.32894 0
M  V30 327 C 32.6191 1.94008 0.0862511 0
M  V30 328 O 31.8941 1.64124 1.04373 0
M  V30 329 C 32.1771 2.79648 -2.26868 0
M  V30 330 C 32.0301 2.45079 -3.77169 0
M  V30 331 C 33.3491 3.81583 -2.19277 0
M  V30 332 H 30.4681 0.555744 -0.484064 0
M  V30 333 H 33.1101 0.884492 -1.68157 0
M  V30 334 H 31.2601 3.34891 -1.96926 0
M  V30 335 H 32.9321 1.95745 -4.1771 0
M  V30 336 H 31.1751 1.77767 -3.95704 0
M  V30 337 H 31.8461 3.35478 -4.38359 0
M  V30 338 H 34.3221 3.35835 -2.45671 0
M  V30 339 H 33.1981 4.67787 -2.87171 0
M  V30 340 H 33.4591 4.25897 -1.18592 0
M  V30 341 N 32.5182 1.22032 0.997298 0
M  V30 342 C 33.4812 0.987909 2.06816 0
M  V30 343 C 34.4812 -0.0440084 1.6074 0
M  V30 344 O 35.6712 0.194053 1.73116 0
M  V30 345 C 32.8032 0.49132 3.37341 0
M  V30 346 H 33.9962 1.93803 2.28868 0
M  V30 347 H 31.5492 1.03838 1.16822 0
M  V30 348 H 32.2842 -0.463364 3.20973 0
M  V30 349 H 32.0692 1.23575 3.72118 0
M  V30 350 H 33.5592 0.348824 4.16141 0
M  V30 351 N 33.9963 -1.19345 1.0293 0
M  V30 352 C 34.9263 -2.2481 0.631105 0
M  V30 353 C 35.9073 -1.66245 -0.360104 0
M  V30 354 O 37.0923 -1.92677 -0.242726 0
M  V30 355 C 34.2223 -3.47295 -0.0184607 0
M  V30 356 C 33.1763 -4.18536 0.895073 0
M  V30 357 C 32.5023 -5.34586 0.110592 0
M  V30 358 C 33.8023 -4.73287 2.209 0
M  V30 359 H 35.4963 -2.58372 1.51275 0
M  V30 360 H 33.0423 -1.24194 0.728818 0
M  V30 361 H 34.9953 -4.20268 -0.308675 0
M  V30 362 H 33.7193 -3.12933 -0.934907 0
M  V30 363 H 32.3783 -3.47446 1.16949 0
M  V30 364 H 32.0263 -4.96469 -0.807902 0
M  V30 365 H 31.7263 -5.83183 0.719087 0
M  V30 366 H 33.2503 -6.10355 -0.172871 0
M  V30 367 H 34.6643 -5.38013 1.98028 0
M  V30 368 H 33.0613 -5.32373 2.76946 0
M  V30 369 H 34.1313 -3.91331 2.86336 0
M  V30 370 N 35.4744 -0.807222 -1.35358 0
M  V30 371 C 36.4374 -0.223665 -2.28106 0
M  V30 372 C 37.4374 0.589354 -1.4961 0
M  V30 373 O 38.6274 0.407745 -1.69361 0
M  V30 374 C 35.7594 0.688149 -3.33882 0
M  V30 375 H 36.9524 -1.04169 -2.81227 0
M  V30 376 H 34.5054 -0.577921 -1.45223 0
M  V30 377 H 35.2404 1.52984 -2.85948 0
M  V30 378 H 35.0254 0.10687 -3.91954 0
M  V30 379 H 36.5154 1.09075 -4.03104 0
M  V30 380 N 36.9525 1.47285 -0.560781 0
M  V30 381 C 38.1775 2.07359 -0.0410566 0
M  V30 382 C 38.6025 1.41017 1.24483 0
M  V30 383 O 37.9605 0.486368 1.74654 0
M  V30 384 C 38.0085 3.6035 0.134123 0
M  V30 385 O 37.1125 3.94681 1.19587 0
M  V30 386 H 36.4535 0.661887 -0.0529291 0
M  V30 387 H 38.9835 1.89252 -0.777482 0
M  V30 388 H 38.9935 4.0652 0.347207 0
M  V30 389 H 37.6685 4.08034 -0.805047 0
M  V30 390 H 36.2455 3.60251 0.962987 0
M  V30 391 N 38.4306 0.297415 1.54768 0
M  V30 392 C 39.6556 -0.318435 2.04941 0
M  V30 393 C 40.0806 -1.4701 1.17345 0
M  V30 394 O 39.4386 -1.80436 0.176758 0
M  V30 395 C 39.4866 -0.755749 3.52592 0
M  V30 396 O 38.5906 -1.86088 3.68028 0
M  V30 397 H 37.9316 -0.062421 0.661059 0
M  V30 398 H 40.4616 0.438215 1.99852 0
M  V30 399 H 40.4716 -1.04552 3.94376 0
M  V30 400 H 39.1466 0.0867233 4.1581 0
M  V30 401 H 37.7236 -1.57193 3.38149 0
M  V30 402 N 39.9087 -1.5758 0.0250728 0
M  V30 403 C 41.3197 -1.79476 -0.514323 0
M  V30 404 C 41.6707 -0.934956 -1.72491 0
M  V30 405 O 40.7957 -0.144245 -2.15919 0
M  V30 406 C 41.3907 -3.25503 -0.939842 0
M  V30 407 C 39.9497 -3.48408 -1.42438 0
M  V30 408 C 39.0967 -2.74583 -0.387201 0
M  V30 409 H 42.0477 -1.567 0.25113 0
M  V30 410 H 42.0687 -3.34992 -1.80445 0
M  V30 411 H 41.5807 -3.88056 -0.0585628 0
M  V30 412 H 39.6817 -2.91103 -2.32572 0
M  V30 413 H 39.7947 -4.57119 -1.43455 0
M  V30 414 H 38.1587 -2.39942 -0.854409 0
M  V30 415 H 38.9417 -3.39849 0.485543 0
M  V30 416 N 41.3868 0.248026 -1.55636 0
M  V30 417 C 42.6118 0.998028 -1.81808 0
M  V30 418 C 43.0368 1.78207 -0.601979 0
M  V30 419 O 42.3948 1.75653 0.448961 0
M  V30 420 C 42.4428 1.9125 -3.05705 0
M  V30 421 O 41.5468 3.00406 -2.82542 0
M  V30 422 H 40.8878 0.284045 -0.600179 0
M  V30 423 H 43.4178 0.269357 -2.02819 0
M  V30 424 H 43.4278 2.32737 -3.35108 0
M  V30 425 H 42.1028 1.33602 -3.93857 0
M  V30 426 H 40.6798 2.63056 -2.64303 0
M  V30 427 N 42.8649 1.48995 0.513639 0
M  V30 428 C 44.2759 1.5119 1.09537 0
M  V30 429 C 44.6269 0.290906 1.94031 0
M  V30 430 O 43.7519 -0.60049 2.07902 0
M  V30 431 C 44.3469 2.73964 1.99322 0
M  V30 432 C 42.9059 2.78978 2.52682 0
M  V30 433 C 42.0529 2.44934 1.30009 0
M  V30 434 H 45.0039 1.55875 0.298125 0
M  V30 435 H 45.0249 2.53409 2.83838 0
M  V30 436 H 44.5369 3.62813 1.37799 0
M  V30 437 H 42.6379 1.94378 3.1788 0
M  V30 438 H 42.7509 3.8083 2.90698 0
M  V30 439 H 41.1149 1.9644 1.62122 0
M  V30 440 H 41.8979 3.36043 0.702131 0
M  V30 441 N 44.343 -0.763751 1.37857 0
M  V30 442 C 45.273 -1.89103 1.36975 0
M  V30 443 C 46.254 -1.68439 0.237152 0
M  V30 444 O 47.439 -1.8918 0.438713 0
M  V30 445 C 44.569 -3.26496 1.18395 0
M  V30 446 C 43.523 -3.61741 2.28751 0
M  V30 447 C 42.849 -4.97762 1.95286 0
M  V30 448 C 44.149 -3.67665 3.70972 0
M  V30 449 H 45.843 -1.90099 2.31307 0
M  V30 450 H 43.389 -0.91319 1.11341 0
M  V30 451 H 45.342 -4.05003 1.16406 0
M  V30 452 H 44.066 -3.25955 0.205215 0
M  V30 453 H 42.725 -2.85547 2.29909 0
M  V30 454 H 42.373 -4.93769 0.959221 0
M  V30 455 H 42.073 -5.22313 2.69189 0
M  V30 456 H 43.597 -5.7866 1.94898 0
M  V30 457 H 45.011 -4.36307 3.719 0
M  V30 458 H 43.408 -4.03718 4.43995 0
M  V30 459 H 44.478 -2.68134 4.0402 0
M  V30 460 N 45.8211 -1.22559 -0.990812 0
M  V30 461 C 46.7691 -0.994798 -2.10253 0
M  V30 462 C 47.7631 0.0627798 -1.69284 0
M  V30 463 O 48.9691 -0.0898392 -1.79776 0
M  V30 464 H 45.3441 -0.304527 -0.687581 0
M  V30 465 H 47.3151 -1.93812 -2.26891 0
M  V30 466 C 46.0641 -0.591439 -3.42633 0
M  V30 467 H 45.3871 -1.3969 -3.74602 0
M  V30 468 H 46.8271 -0.469385 -4.21394 0
M  V30 469 C 45.2861 0.699232 -3.29564 0
M  V30 470 O 45.8161 1.75112 -3.61523 0
M  V30 471 N 44.0221 0.671182 -2.82743 0
M  V30 472 H 43.5691 -0.185136 -2.56934 0
M  V30 473 H 43.5271 1.53502 -2.7438 0
M  V30 474 N 47.2992 1.18797 -1.03562 0
M  V30 475 C 48.7102 1.70322 -0.764676 0
M  V30 476 C 49.0612 1.82708 0.714996 0
M  V30 477 O 48.1862 1.50299 1.55689 0
M  V30 478 C 48.7812 3.09356 -1.38145 0
M  V30 479 C 47.3402 3.58114 -1.15895 0
M  V30 480 C 46.4872 2.34798 -1.4753 0
M  V30 481 H 49.4382 1.03543 -1.20268 0
M  V30 482 H 49.4592 3.72378 -0.781977 0
M  V30 483 H 48.9712 3.00309 -2.45837 0
M  V30 484 H 47.0722 3.72464 -0.100544 0
M  V30 485 H 47.1852 4.4184 -1.8524 0
M  V30 486 H 45.5492 2.38464 -0.894829 0
M  V30 487 H 46.3322 2.28375 -2.56319 0
M  V30 488 N 48.7773 0.814389 1.34928 0
M  V30 489 C 50.0253 0.397636 1.9815 0
M  V30 490 C 50.3463 -1.04069 1.64908 0
M  V30 491 O 49.6163 -1.72121 0.93548 0
M  V30 492 H 48.1963 0.144043 0.732981 0
M  V30 493 H 50.8583 1.04195 1.6471 0
M  V30 494 H 49.9543 0.509688 3.0791 0
M  V30 495 N 50.2554 -1.46986 0.568584 0
M  V30 496 C 51.4834 -2.0683 0.0539956 0
M  V30 497 C 51.8984 -1.41953 -1.24478 0
M  V30 498 O 51.2554 -0.519933 -1.74937 0
M  V30 499 C 51.3064 -3.61254 -0.133362 0
M  V30 500 O 51.0274 -4.237 1.11399 0
M  V30 501 C 52.5284 -4.37992 -0.683927 0
M  V30 502 H 49.7484 -0.669058 0.0510141 0
M  V30 503 H 52.2924 -1.88824 0.785234 0
M  V30 504 H 50.4474 -3.78735 -0.81477 0
M  V30 505 H 50.8614 -5.16388 0.91888 0
M  V30 506 H 52.3354 -5.46684 -0.764263 0
M  V30 507 H 52.8124 -4.05058 -1.69778 0
M  V30 508 H 53.4184 -4.25283 -0.0378494 0
M  V30 509 N 51.7335 -0.305618 -1.54608 0
M  V30 510 C 52.6815 0.584119 -2.25146 0
M  V30 511 C 53.6755 1.13326 -1.25911 0
M  V30 512 O 54.8815 1.08337 -1.43747 0
M  V30 513 H 51.2565 0.206983 -0.722954 0
M  V30 514 H 53.2275 -0.033291 -2.98381 0
M  V30 515 C 51.9765 1.74225 -3.009 0
M  V30 516 H 51.2995 1.32892 -3.77067 0
M  V30 517 H 52.7395 2.34077 -3.53531 0
M  V30 518 C 51.1985 2.64914 -2.0814 0
M  V30 519 O 51.7285 3.66137 -1.65246 0
M  V30 520 N 49.9345 2.3275 -1.74 0
M  V30 521 H 49.4815 1.50479 -2.09078 0
M  V30 522 H 49.4395 2.93694 -1.12211 0
M  V30 523 N 53.2116 1.57565 -0.0334293 0
M  V30 524 C 54.4576 1.92262 0.645226 0
M  V30 525 C 54.7906 0.910543 1.71531 0
M  V30 526 O 54.0656 -0.066099 1.94388 0
M  V30 527 C 54.3486 3.37422 1.2577 0
M  V30 528 C 54.2016 4.49369 0.196891 0
M  V30 529 C 55.5206 3.82628 2.17449 0
M  V30 530 H 52.6396 0.699171 0.233085 0
M  V30 531 H 55.2816 1.89779 -0.0915694 0
M  V30 532 H 53.4316 3.39669 1.88566 0
M  V30 533 H 55.1036 4.59254 -0.433962 0
M  V30 534 H 53.3466 4.31168 -0.477137 0
M  V30 535 H 54.0176 5.47978 0.665124 0
M  V30 536 H 56.4936 3.82145 1.64634 0
M  V30 537 H 55.3696 4.84883 2.57254 0
M  V30 538 H 55.6306 3.18376 3.0674 0
M  V30 539 N 54.6897 -0.239769 1.55765 0
M  V30 540 C 55.6527 -1.28038 1.90103 0
M  V30 541 C 56.6527 -1.40723 0.778055 0
M  V30 542 O 57.8427 -1.39301 1.04599 0
M  V30 543 C 54.9747 -2.65702 2.13577 0
M  V30 544 H 56.1677 -0.988048 2.83157 0
M  V30 545 H 53.7207 -0.479382 1.48767 0
M  V30 546 H 54.4557 -3.00063 1.23015 0
M  V30 547 H 54.2407 -2.57875 2.95369 0
M  V30 548 H 55.7307 -3.40828 2.41301 0
M  V30 549 N 56.1678 -1.49265 -0.50573 0
M  V30 550 C 57.5838 -1.35923 -0.836486 0
M  V30 551 C 57.7838 -0.388704 -1.97715 0
M  V30 552 O 56.8398 0.181336 -2.51848 0
M  V30 553 C 58.1528 -2.76531 -1.18115 0
M  V30 554 C 59.7008 -2.85197 -1.28964 0
M  V30 555 C 60.1758 -4.26561 -1.66761 0
M  V30 556 N 61.6668 -4.2935 -1.73819 0
M  V30 557 C 62.4018 -5.35693 -2.045 0
M  V30 558 N 61.8978 -6.52287 -2.33438 0
M  V30 559 N 63.6908 -5.23105 -2.05711 0
M  V30 560 H 55.8418 -2.10965 0.246519 0
M  V30 561 H 58.1048 -0.9468 0.0476887 0
M  V30 562 H 57.8108 -3.49226 -0.416398 0
M  V30 563 H 57.6848 -3.11599 -2.1257 0
M  V30 564 H 60.0718 -2.12742 -2.04511 0
M  V30 565 H 60.1528 -2.53718 -0.325704 0
M  V30 566 H 59.7968 -4.99541 -0.917656 0
M  V30 567 H 59.7268 -4.55502 -2.64246 0
M  V30 568 H 62.2178 -3.4526 -1.53635 0
M  V30 569 H 62.5308 -7.29158 -2.56024 0
M  V30 570 H 60.8758 -6.55521 -2.30905 0
M  V30 571 H 64.0668 -4.31026 -1.82577 0
M  V30 572 H 64.2398 -6.06078 -2.29289 0
M  V30 573 N 57.6459 0.756429 -1.3826 0
M  V30 574 C 58.5759 1.88374 -1.37976 0
M  V30 575 C 59.5569 1.68311 -0.246082 0
M  V30 576 O 60.7419 1.88944 -0.44874 0
M  V30 577 C 57.8719 3.25864 -1.20125 0
M  V30 578 C 56.8259 3.60523 -2.30666 0
M  V30 579 C 56.1519 4.9672 -1.97923 0
M  V30 580 C 57.4519 3.65692 -3.72916 0
M  V30 581 H 59.1459 1.88869 -2.32312 0
M  V30 582 H 56.6919 0.907272 -1.11824 0
M  V30 583 H 58.6449 4.0438 -1.18552 0
M  V30 584 H 57.3689 3.25841 -0.222498 0
M  V30 585 H 56.0279 2.84324 -2.3142 0
M  V30 586 H 55.6759 4.93253 -0.985393 0
M  V30 587 H 55.3759 5.20878 -2.71955 0
M  V30 588 H 56.8999 5.77618 -1.97964 0
M  V30 589 H 58.3139 4.34328 -3.74208 0
M  V30 590 H 56.7109 4.01358 -4.4613 0
M  V30 591 H 57.7809 2.65987 -4.05436 0
M  V30 592 N 59.124 1.23083 0.984299 0
M  V30 593 C 60.087 1.00979 2.05757 0
M  V30 594 C 61.087 -0.0269573 1.60777 0
M  V30 595 O 62.277 0.212403 1.729 0
M  V30 596 C 59.409 0.527072 3.36801 0
M  V30 597 H 60.602 1.9622 2.26799 0
M  V30 598 H 58.155 1.05072 1.15714 0
M  V30 599 H 58.89 -0.429294 3.21446 0
M  V30 600 H 58.675 1.27515 3.70786 0
M  V30 601 H 60.165 0.392942 4.15747 0
M  V30 602 N 60.6021 -1.18246 1.0419 0
M  V30 603 C 61.5121 -2.25574 0.644476 0
M  V30 604 C 62.5281 -1.70845 -0.329826 0
M  V30 605 O 63.7041 -2.00554 -0.184443 0
M  V30 606 C 60.7691 -3.46697 0.014877 0
M  V30 607 C 59.8301 -4.16554 1.03834 0
M  V30 608 C 59.0631 -5.31894 0.438692 0
M  V30 609 O 59.2861 -5.65385 -0.754752 0
M  V30 610 O 58.2201 -5.90459 1.168 0
M  V30 611 H 62.0461 -2.61836 1.53869 0
M  V30 612 H 59.6311 -1.25352 0.812854 0
M  V30 613 H 61.5131 -4.20062 -0.335538 0
M  V30 614 H 60.1881 -3.12255 -0.853138 0
M  V30 615 H 59.0951 -3.45251 1.44057 0
M  V30 616 H 60.4281 -4.54998 1.87716 0
M  V30 617 N 62.0802 -0.821533 -1.34494 0
M  V30 618 C 63.0122 -0.199946 -2.28326 0
M  V30 619 C 64.0252 0.609377 -1.50965 0
M  V30 620 O 65.2142 0.439285 -1.7301 0
M  V30 621 C 62.3142 0.738431 -3.30757 0
M  V30 622 C 61.4872 -0.0277632 -4.37391 0
M  V30 623 C 60.5462 0.831332 -5.19591 0
M  V30 624 O 59.5722 0.276822 -5.68526 0
M  V30 625 N 60.7742 2.15132 -5.39165 0
M  V30 626 H 63.5392 -1.00609 -2.82308 0
M  V30 627 H 61.1002 -0.678366 -1.47003 0
M  V30 628 H 63.0922 1.31773 -3.82646 0
M  V30 629 H 61.6622 1.44533 -2.7718 0
M  V30 630 H 60.8822 -0.788359 -3.86236 0
M  V30 631 H 62.1702 -0.555251 -5.05761 0
M  V30 632 H 61.5682 2.62559 -5.01078 0
M  V30 633 H 60.1252 2.6795 -5.94177 0
M  V30 634 N 63.5583 1.46682 -0.576371 0
M  V30 635 C 64.5213 2.28707 0.150239 0
M  V30 636 C 65.5213 1.38035 0.824794 0
M  V30 637 O 66.7113 1.60476 0.677719 0
M  V30 638 C 63.8433 3.18248 1.22192 0
M  V30 639 H 65.0363 2.94423 -0.570521 0
M  V30 640 H 62.5893 1.52688 -0.334078 0
M  V30 641 H 63.3243 2.57265 1.97447 0
M  V30 642 H 63.1093 3.85 0.742812 0
M  V30 643 H 64.5993 3.80001 1.73172 0
M  V30 644 N 65.0364 0.313813 1.54444 0
M  V30 645 C 66.4474 -0.176243 1.85866 0
M  V30 646 C 66.7984 -1.52405 1.23561 0
M  V30 647 O 65.9234 -2.09605 0.538016 0
M  V30 648 C 66.5184 -0.32657 3.37222 0
M  V30 649 C 65.0774 -0.760846 3.6863 0
M  V30 650 C 64.2244 0.123247 2.77026 0
M  V30 651 H 67.1754 0.534418 1.49431 0
M  V30 652 H 67.1964 -1.15908 3.62416 0
M  V30 653 H 66.7084 0.654531 3.82541 0
M  V30 654 H 64.8094 -1.75204 3.28838 0
M  V30 655 H 64.9224 -0.571353 4.75681 0
M  V30 656 H 63.2864 -0.399597 2.51546 0
M  V30 657 H 64.0694 1.10094 3.25168 0
M  V30 658 N 66.5145 -1.57545 0.0417849 0
M  V30 659 C 67.7635 -1.91494 -0.633492 0
M  V30 660 C 68.0765 -0.921084 -1.72556 0
M  V30 661 O 69.2825 -1.15228 -2.45835 0
M  V30 662 C 67.7385 -3.40072 -1.17808 0
M  V30 663 C 67.3465 -4.47843 -0.118633 0
M  V30 664 C 69.0905 -3.8307 -1.82915 0
M  V30 665 C 66.9975 -5.87529 -0.675578 0
M  V30 666 H 65.9275 -0.714653 -0.24039 0
M  V30 667 H 68.5785 -1.83175 0.109148 0
M  V30 668 H 66.9605 -3.43364 -1.97274 0
M  V30 669 H 68.1345 -4.56128 0.654494 0
M  V30 670 H 66.4495 -4.14128 0.434414 0
M  V30 671 H 69.0465 -4.84794 -2.25563 0
M  V30 672 H 69.3895 -3.1881 -2.67705 0
M  V30 673 H 69.9225 -3.82255 -1.10119 0
M  V30 674 H 66.6615 -6.55362 0.134475 0
M  V30 675 H 66.1815 -5.82824 -1.4169 0
M  V30 676 H 67.8605 -6.36491 -1.1614 0
M  V30 677 N 67.9926 0.231505 -1.5589 0
M  V30 678 C 68.9426 1.29007 -1.87993 0
M  V30 679 C 69.9266 1.42764 -0.742102 0
M  V30 680 O 71.1186 1.45747 -1.00433 0
M  V30 681 C 68.2476 2.6425 -2.1915 0
M  V30 682 C 67.3336 2.54435 -3.39299 0
M  V30 683 N 67.7246 2.14262 -4.58176 0
M  V30 684 C 66.0226 2.85416 -3.42715 0
M  V30 685 C 66.7236 2.15455 -5.40328 0
M  V30 686 N 65.6996 2.55558 -4.79783 0
M  V30 687 H 69.5016 0.970213 -2.77424 0
M  V30 688 H 67.0156 0.440097 -1.56323 0
M  V30 689 H 69.0126 3.40665 -2.40319 0
M  V30 690 H 67.6726 2.9709 -1.31025 0
M  V30 691 H 68.6836 1.85554 -4.83518 0
M  V30 692 H 65.3606 3.22693 -2.64906 0
M  V30 693 H 66.7506 1.86605 -6.45467 0
M  V30 694 N 69.4707 1.49531 0.497807 0
M  V30 695 C 70.7167 1.60388 1.25089 0
M  V30 696 C 71.0717 0.288328 1.90227 0
M  V30 697 O 70.3647 -0.711706 1.77891 0
M  V30 698 C 70.5587 2.70252 2.33878 0
M  V30 699 C 70.3877 4.12363 1.79408 0
M  V30 700 C 69.1577 4.7911 1.60566 0
M  V30 701 C 71.3557 4.97491 1.30412 0
M  V30 702 N 69.3377 6.05525 1.01059 0
M  V30 703 C 70.7087 6.14411 0.830595 0
M  V30 704 C 72.7637 4.83466 1.19015 0
M  V30 705 C 71.4667 7.1885 0.254371 0
M  V30 706 C 73.4927 5.88057 0.627892 0
M  V30 707 C 72.8547 7.04208 0.16461 0
M  V30 708 H 68.9537 0.641246 0.447579 0
M  V30 709 H 71.5377 1.86549 0.557441 0
M  V30 710 H 69.7087 2.45858 3.0068 0
M  V30 711 H 71.4407 2.70613 3.00917 0
M  V30 712 H 68.1957 4.35961 1.85026 0
M  V30 713 H 68.6197 6.73028 0.732236 0
M  V30 714 H 73.2617 3.93978 1.53431 0
M  V30 715 H 70.9797 8.08036 -0.102052 0
M  V30 716 H 74.5657 5.79266 0.542444 0
M  V30 717 H 73.4457 7.83757 -0.263669 0
M  V30 718 N 70.9488 -0.749086 1.3866 0
M  V30 719 C 72.1948 -1.51056 1.35314 0
M  V30 720 C 72.5278 -1.94121 -0.0553751 0
M  V30 721 O 71.8028 -1.65763 -1.01749 0
M  V30 722 C 72.0858 -2.76003 2.31288 0
M  V30 723 C 71.9388 -2.39047 3.8102 0
M  V30 724 C 73.2578 -3.78046 2.2532 0
M  V30 725 H 70.3768 -0.547972 0.492844 0
M  V30 726 H 73.0188 -0.857628 1.69543 0
M  V30 727 H 71.1688 -3.31716 2.02229 0
M  V30 728 H 72.8408 -1.89074 4.20771 0
M  V30 729 H 71.0838 -1.71449 3.98482 0
M  V30 730 H 71.7548 -3.28462 4.4364 0
M  V30 731 H 74.2308 -3.31884 2.50983 0
M  V30 732 H 73.1068 -4.63159 2.94576 0
M  V30 733 H 73.3678 -4.23957 1.25352 0
M  V30 734 N 72.4269 -1.23603 -0.977757 0
M  V30 735 C 73.6519 -1.09735 -1.75991 0
M  V30 736 C 74.0769 0.346858 -1.84874 0
M  V30 737 O 73.4349 1.25093 -1.3123 0
M  V30 738 C 73.4829 -1.73051 -3.16363 0
M  V30 739 O 72.5869 -0.994452 -4.0023 0
M  V30 740 H 71.9279 -0.384476 -0.541364 0
M  V30 741 H 74.4579 -1.6371 -1.2272 0
M  V30 742 H 74.4679 -1.78398 -3.66931 0
M  V30 743 H 73.1429 -2.78137 -3.09213 0
M  V30 744 H 71.7199 -1.01812 -3.58732 0
M  V30 745 N 73.905 1.17692 -1.04816 0
M  V30 746 C 75.151 1.88137 -0.75711 0
M  V30 747 C 75.484 1.80604 0.713841 0
M  V30 748 O 74.759 1.21146 1.52164 0
M  V30 749 C 75.042 3.38318 -1.2334 0
M  V30 750 C 74.895 3.54622 -2.76701 0
M  V30 751 C 76.214 4.32214 -0.829415 0
M  V30 752 H 73.333 0.683163 -0.27651 0
M  V30 753 H 75.975 1.38424 -1.30149 0
M  V30 754 H 74.125 3.80787 -0.770286 0
M  V30 755 H 75.797 3.21194 -3.31107 0
M  V30 756 H 74.04 2.97026 -3.16161 0
M  V30 757 H 74.711 4.60028 -3.05088 0
M  V30 758 H 77.187 3.97565 -1.22805 0
M  V30 759 H 76.063 5.35838 -1.19033 0
M  V30 760 H 76.324 4.41294 0.266891 0
M  V30 761 N 75.3831 0.828654 1.34056 0
M  V30 762 C 76.3461 0.259927 2.27721 0
M  V30 763 C 77.3461 -0.565478 1.50529 0
M  V30 764 O 78.5361 -0.38075 1.69988 0
M  V30 765 C 75.6681 -0.634944 3.34935 0
M  V30 766 H 76.8611 1.0863 2.79534 0
M  V30 767 H 74.4141 0.600951 1.44285 0
M  V30 768 H 75.1491 -1.48416 2.88346 0
M  V30 769 H 74.9341 -0.0444999 3.92075 0
M  V30 770 H 76.4241 -1.02648 4.04788 0
M  V30 771 N 76.8612 -1.46375 0.584142 0
M  V30 772 C 77.7932 -2.28443 -0.186119 0
M  V30 773 C 78.8062 -1.38596 -0.854115 0
M  V30 774 O 79.9952 -1.63183 -0.723438 0
M  V30 775 C 77.0952 -3.13671 -1.28311 0
M  V30 776 C 76.2682 -4.31652 -0.706758 0
M  V30 777 C 75.3272 -4.98267 -1.69163 0
M  V30 778 O 74.3532 -5.55815 -1.22712 0
M  V30 779 N 75.5552 -4.95408 -3.02575 0
M  V30 780 H 78.3202 -2.9519 0.517986 0
M  V30 781 H 75.8812 -1.56303 0.42201 0
M  V30 782 H 77.8732 -3.55101 -1.94128 0
M  V30 783 H 76.4432 -2.48989 -1.89005 0
M  V30 784 H 75.6632 -3.93989 0.128908 0
M  V30 785 H 76.9512 -5.07906 -0.301506 0
M  V30 786 H 76.3492 -4.49902 -3.42936 0
M  V30 787 H 74.9062 -5.40774 -3.63877 0
M  V30 788 N 78.3393 -0.321999 -1.54275 0
M  V30 789 C 79.5883 0.281931 -1.9972 0
M  V30 790 C 79.9013 1.53369 -1.21397 0
M  V30 791 O 81.1073 2.21352 -1.57211 0
M  V30 792 C 79.5633 0.5529 -3.55628 0
M  V30 793 C 79.1713 -0.681721 -4.42783 0
M  V30 794 C 80.9153 1.11687 -4.09544 0
M  V30 795 C 78.8223 -0.382742 -5.9016 0
M  V30 796 H 77.7523 0.109124 -0.746062 0
M  V30 797 H 80.4033 -0.43398 -1.78294 0
M  V30 798 H 78.7853 1.32896 -3.73035 0
M  V30 799 H 79.9593 -1.45723 -4.37151 0
M  V30 800 H 78.2743 -1.1658 -3.99748 0
M  V30 801 H 80.8713 1.35515 -5.17242 0
M  V30 802 H 81.2143 2.06575 -3.61431 0
M  V30 803 H 81.7473 0.402032 -3.95763 0
M  V30 804 H 78.4863 -1.30076 -6.42464 0
M  V30 805 H 78.0063 0.355094 -5.98748 0
M  V30 806 H 79.6853 0.00800157 -6.47 0
M  V30 807 N 79.8174 1.5752 -0.0501392 0
M  V30 808 C 80.7274 2.14952 0.939827 0
M  V30 809 C 81.7434 1.10706 1.34239 0
M  V30 810 O 82.9194 1.42869 1.41952 0
M  V30 811 C 79.9844 2.68232 2.19665 0
M  V30 812 C 79.0454 3.87272 1.85253 0
M  V30 813 C 78.2784 4.38002 3.04943 0
M  V30 814 O 78.5014 3.87811 4.18281 0
M  V30 815 O 77.4354 5.29602 2.86017 0
M  V30 816 H 81.2614 2.9986 0.481392 0
M  V30 817 H 78.8464 1.4841 0.171699 0
M  V30 818 H 80.7284 3.02475 2.93406 0
M  V30 819 H 79.4034 1.86395 2.64648 0
M  V30 820 H 78.3104 3.5792 1.0883 0
M  V30 821 H 79.6434 4.70336 1.4507 0
M  V30 822 N 81.2955 -0.223234 1.56011 0
M  V30 823 C 82.2435 -1.29627 1.93131 0
M  V30 824 C 83.2375 -1.48608 0.813146 0
M  V30 825 O 84.4435 -1.49802 0.997966 0
M  V30 826 H 80.8185 -0.434563 0.613726 0
M  V30 827 H 82.7895 -0.955995 2.82672 0
M  V30 828 C 81.5385 -2.63983 2.26292 0
M  V30 829 H 80.8615 -2.50185 3.11846 0
M  V30 830 H 82.3015 -3.3788 2.56151 0
M  V30 831 C 80.7605 -3.18866 1.08747 0
M  V30 832 O 81.2905 -4.00192 0.347727 0
M  V30 833 N 79.4965 -2.77217 0.871743 0
M  V30 834 H 79.0435 -2.1119 1.47501 0
M  V30 835 H 79.0015 -3.1428 0.0869905 0
M  V30 836 N 82.7736 -1.49793 -0.48987 0
M  V30 837 C 83.9986 -1.63836 -1.27172 0
M  V30 838 C 84.4236 -0.31402 -1.8546 0
M  V30 839 O 83.7816 0.719803 -1.66399 0
M  V30 840 C 83.8296 -2.71797 -2.36978 0
M  V30 841 O 82.9336 -2.31744 -3.41128 0
M  V30 842 H 82.2746 -0.547997 -0.37496 0
M  V30 843 H 84.8046 -1.96053 -0.585191 0
M  V30 844 H 84.8146 -2.94305 -2.82575 0
M  V30 845 H 83.4896 -3.67923 -1.93921 0
M  V30 846 H 82.0666 -2.1961 -3.01373 0
M  V30 847 N 84.2517 0.741722 -1.39055 0
M  V30 848 C 85.1817 1.869 -1.39966 0
M  V30 849 C 86.1627 1.6804 -0.26392 0
M  V30 850 O 87.3477 1.88458 -0.468755 0
M  V30 851 C 84.4777 3.24572 -1.23574 0
M  V30 852 C 83.4317 3.58056 -2.34477 0
M  V30 853 C 82.7577 4.94593 -2.0318 0
M  V30 854 C 84.0577 3.61716 -3.76774 0
M  V30 855 H 85.7517 1.86395 -2.34302 0
M  V30 856 H 83.2977 0.895361 -1.1278 0
M  V30 857 H 85.2507 4.031 -1.22834 0
M  V30 858 H 83.9747 3.25587 -0.257045 0
M  V30 859 H 82.6337 2.81854 -2.34423 0
M  V30 860 H 82.2817 4.92181 -1.03765 0
M  V30 861 H 81.9817 5.17964 -2.77465 0
M  V30 862 H 83.5057 5.75486 -2.04079 0
M  V30 863 H 84.9197 4.30335 -3.78794 0
M  V30 864 H 83.3167 3.96603 -4.50362 0
M  V30 865 H 84.3867 2.61672 -4.08235 0
M  V30 866 N 85.7298 1.2412 0.971189 0
M  V30 867 C 86.6928 1.03156 2.04674 0
M  V30 868 C 87.6928 -0.00990322 1.60797 0
M  V30 869 O 88.8828 0.230729 1.72665 0
M  V30 870 C 86.0148 0.562765 3.36223 0
M  V30 871 H 87.2078 1.98614 2.24705 0
M  V30 872 H 84.7608 1.06293 1.14593 0
M  V30 873 H 85.4958 -0.395176 3.21883 0
M  V30 874 H 85.2808 1.31441 3.69413 0
M  V30 875 H 86.7708 0.437015 4.15307 0
M  V30 876 N 87.2079 -1.17134 1.05439 0
M  V30 877 C 88.4559 -1.87085 0.764429 0
M  V30 878 C 88.7769 -1.81584 -0.710787 0
M  V30 879 O 88.0469 -1.24349 -1.51374 0
M  V30 880 H 86.6269 -0.692627 0.279779 0
M  V30 881 H 89.2889 -1.42087 1.33406 0
M  V30 882 H 88.3849 -2.92759 1.0816 0
M  V30 883 N 88.686 -0.835752 -1.33615 0
M  V30 884 C 90.102 -0.523139 -1.50783 0
M  V30 885 C 90.302 0.950171 -1.77691 0
M  V30 886 O 89.358 1.73411 -1.83534 0
M  V30 887 C 90.671 -1.39378 -2.66448 0
M  V30 888 C 92.219 -1.39223 -2.80332 0
M  V30 889 C 92.694 -2.24765 -3.99055 0
M  V30 890 N 94.185 -2.22458 -4.06284 0
M  V30 891 C 94.92 -2.85386 -4.97336 0
M  V30 892 N 94.416 -3.57354 -5.93523 0
M  V30 893 N 96.209 -2.74872 -4.90308 0
M  V30 894 H 88.36 -1.78952 -1.14411 0
M  V30 895 H 90.623 -0.763297 -0.562212 0
M  V30 896 H 90.329 -2.44061 -2.53234 0
M  V30 897 H 90.203 -1.0676 -3.61776 0
M  V30 898 H 92.59 -0.353136 -2.92979 0
M  V30 899 H 92.671 -1.75846 -1.85773 0
M  V30 900 H 92.315 -3.28732 -3.87167 0
M  V30 901 H 92.245 -1.85485 -4.92852 0
M  V30 902 H 94.736 -1.70119 -3.37443 0
M  V30 903 H 95.049 -4.02584 -6.59656 0
M  V30 904 H 93.394 -3.61461 -5.93608 0
M  V30 905 H 96.585 -2.18213 -4.14126 0
M  V30 906 H 96.758 -3.24199 -5.61069 0
M  V30 907 N 90.1641 1.46063 -0.591896 0
M  V30 908 C 91.5751 1.85944 -0.167822 0
M  V30 909 C 91.9261 1.49429 1.27143 0
M  V30 910 O 91.0511 0.913515 1.96173 0
M  V30 911 C 91.6461 3.37489 -0.297794 0
M  V30 912 C 90.2051 3.76332 0.0714732 0
M  V30 913 C 89.3521 2.7006 -0.629509 0
M  V30 914 H 92.3031 1.37087 -0.799555 0
M  V30 915 H 92.3241 3.77532 0.474349 0
M  V30 916 H 91.8361 3.64034 -1.3454 0
M  V30 917 H 89.9371 3.55405 1.11886 0
M  V30 918 H 90.0501 4.78088 -0.311245 0
M  V30 919 H 88.4141 2.54607 -0.0687867 0
M  V30 920 H 89.1971 2.99444 -1.67894 0
M  V30 921 N 91.6422 0.330177 1.54103 0
M  V30 922 C 93.0532 -0.15652 1.86043 0
M  V30 923 C 93.4042 -1.51086 1.2517 0
M  V30 924 O 92.5292 -2.09023 0.560217 0
M  V30 925 C 93.1242 -0.290784 3.3755 0
M  V30 926 C 91.6832 -0.721705 3.69416 0
M  V30 927 C 90.8302 0.152622 2.7688 0
M  V30 928 H 93.7812 0.550237 1.48856 0
M  V30 929 H 93.8022 -1.12058 3.63625 0
M  V30 930 H 93.3142 0.695068 3.81825 0
M  V30 931 H 91.4152 -1.71706 3.30678 0
M  V30 932 H 91.5282 -0.520869 4.7626 0
M  V30 933 H 89.8922 -0.372894 2.51956 0
M  V30 934 H 90.6752 1.13536 3.23982 0
M  V30 935 N 93.1203 -1.57491 0.0584922 0
M  V30 936 C 94.0533 -2.07533 -0.948969 0
M  V30 937 C 95.0313 -0.977444 -1.29942 0
M  V30 938 O 96.2153 -1.2499 -1.41102 0
M  V30 939 C 93.3423 -2.52192 -2.2609 0
M  V30 940 C 92.3883 -3.73287 -2.06298 0
M  V30 941 S 93.2213 -5.18603 -1.33459 0
M  V30 942 C 94.3773 -5.66583 -2.65959 0
M  V30 943 H 94.6103 -2.92662 -0.523118 0
M  V30 944 H 92.1433 -1.53631 -0.153954 0
M  V30 945 H 94.1013 -2.78585 -3.01498 0
M  V30 946 H 92.7623 -1.67356 -2.65802 0
M  V30 947 H 91.9553 -4.0248 -3.03357 0
M  V30 948 H 91.5573 -3.47199 -1.39029 0
M  V30 949 H 93.8493 -5.72616 -3.62101 0
M  V30 950 H 94.7923 -6.65684 -2.41393 0
M  V30 951 H 95.2003 -4.94342 -2.72554 0
M  V30 952 N 94.5984 0.214957 -1.56127 0
M  V30 953 C 95.5614 1.24997 -1.92116 0
M  V30 954 C 96.5614 1.39467 -0.800344 0
M  V30 955 O 97.7514 1.37619 -1.06802 0
M  V30 956 C 94.8834 2.62271 -2.17777 0
M  V30 957 H 96.0764 0.942875 -2.84693 0
M  V30 958 H 93.6294 0.455654 -1.49511 0
M  V30 959 H 94.3644 2.98068 -1.27773 0
M  V30 960 H 94.1494 2.53143 -2.99434 0
M  V30 961 H 95.6394 3.36946 -2.46693 0
M  V30 962 N 96.0765 1.50051 0.48192 0
M  V30 963 C 97.3225 1.60736 1.2366 0
M  V30 964 C 97.6555 0.301786 1.91841 0
M  V30 965 O 96.9305 -0.696025 1.8162 0
M  V30 966 C 97.2135 2.78009 2.28874 0
M  V30 967 C 97.0665 4.18416 1.65069 0
M  V30 968 C 98.3855 2.90867 3.30279 0
M  V30 969 H 95.5045 0.585031 0.448228 0
M  V30 970 H 98.1465 1.82402 0.531946 0
M  V30 971 H 96.2965 2.59667 2.88973 0
M  V30 972 H 97.9685 4.48322 1.0865 0
M  V30 973 H 96.2115 4.23177 0.954148 0
M  V30 974 H 96.8825 4.96381 2.41474 0
M  V30 975 H 99.3585 3.07623 2.80191 0
M  V30 976 H 98.2345 3.74566 4.01238 0
M  V30 977 H 98.4955 2.01021 3.93755 0
M  V30 978 N 97.5546 -0.734337 1.39446 0
M  V30 979 C 98.8026 -1.49096 1.36436 0
M  V30 980 C 99.1236 -1.94961 -0.0388255 0
M  V30 981 O 98.3936 -1.69033 -0.990191 0
M  V30 982 H 96.9736 -0.5531 0.502085 0
M  V30 983 H 99.6356 -0.871725 1.74319 0
M  V30 984 H 98.7316 -2.37276 2.02747 0
M  V30 985 N 99.0327 -1.24633 -0.964593 0
M  V30 986 C 100.28 -1.08788 -1.70796 0
M  V30 987 C 100.608 0.372783 -1.90894 0
M  V30 988 O 99.8627 1.29167 -1.47018 0
M  V30 989 C 100.162 -1.7763 -3.10133 0
M  V30 990 C 99.8277 -3.27557 -3.09866 0
M  V30 991 C 98.4897 -3.6846 -3.09501 0
M  V30 992 C 100.842 -4.23389 -3.03959 0
M  V30 993 C 98.1697 -5.03624 -3.00965 0
M  V30 994 C 100.522 -5.58565 -2.96965 0
M  V30 995 C 99.1857 -5.98809 -2.9493 0
M  V30 996 H 98.4557 -0.398084 -0.624988 0
M  V30 997 H 101.103 -1.54777 -1.12767 0
M  V30 998 H 99.4077 -1.24044 -3.71645 0
M  V30 999 H 101.105 -1.62832 -3.66451 0
M  V30 1000 H 97.6947 -2.95006 -3.10917 0
M  V30 1001 H 101.879 -3.92787 -3.03368 0
M  V30 1002 H 97.1347 -5.33998 -2.97752 0
M  V30 1003 H 101.309 -6.32523 -2.91354 0
M  V30 1004 H 98.9357 -7.03505 -2.88071 0
M  V30 1005 N 100.511 1.16574 -1.06058 0
M  V30 1006 C 101.788 1.83048 -0.689416 0
M  V30 1007 C 102.168 1.94122 0.829443 0
M  V30 1008 O 101.516 1.48249 1.7388 0
M  V30 1009 C 101.726 3.20186 -1.38859 0
M  V30 1010 C 103.074 3.95989 -1.53226 0
M  V30 1011 O 104.098 3.29696 -1.3483 0
M  V30 1012 O 102.957 5.14813 -1.83384 0
M  V30 1013 H 100.051 0.790258 -0.243764 0
M  V30 1014 H 102.597 1.23797 -1.16071 0
M  V30 1015 H 101.369 3.07146 -2.4244 0
M  V30 1016 H 100.992 3.87112 -0.907216 0
M  V30 1017 N 101.989 0.842826 1.3317 0
M  V30 1018 C 103.238 0.436738 1.96915 0
M  V30 1019 C 103.551 -1.01025 1.67491 0
M  V30 1020 O 104.757 -1.5212 2.24881 0
M  V30 1021 C 103.213 0.730021 3.52418 0
M  V30 1022 C 102.821 2.19195 3.90714 0
M  V30 1023 C 104.565 0.391076 4.22695 0
M  V30 1024 C 102.472 2.42907 5.39212 0
M  V30 1025 H 101.402 0.15958 0.736919 0
M  V30 1026 H 104.053 1.03196 1.51733 0
M  V30 1027 H 102.435 0.0643755 3.95948 0
M  V30 1028 H 103.609 2.8984 3.58231 0
M  V30 1029 H 101.924 2.49425 3.33431 0
M  V30 1030 H 104.521 0.545817 5.31907 0
M  V30 1031 H 104.864 -0.666294 4.10933 0
M  V30 1032 H 105.397 1.01212 3.84709 0
M  V30 1033 H 102.136 3.47224 5.55982 0
M  V30 1034 H 101.656 1.76827 5.73142 0
M  V30 1035 H 103.335 2.2626 6.06148 0
M  V30 1036 N 103.467 -1.45747 0.599634 0
M  V30 1037 C 104.744 -1.95585 0.0240846 0
M  V30 1038 C 105.124 -1.54217 -1.44154 0
M  V30 1039 O 104.472 -0.800903 -2.14004 0
M  V30 1040 C 104.682 -3.48344 0.21385 0
M  V30 1041 C 106.03 -4.24504 0.0904902 0
M  V30 1042 O 107.054 -3.55911 0.143558 0
M  V30 1043 O 105.913 -5.46491 -0.0310766 0
M  V30 1044 H 103.007 -0.82602 -0.0402478 0
M  V30 1045 H 105.553 -1.55951 0.669139 0
M  V30 1046 H 104.325 -3.71397 1.23206 0
M  V30 1047 H 103.948 -3.9485 -0.466842 0
M  V30 1048 N 104.945 -0.338344 -1.53925 0
M  V30 1049 C 106.222 0.314774 -1.93051 0
M  V30 1050 C 106.602 1.68669 -1.26941 0
M  V30 1051 O 105.95 2.24636 -0.418445 0
M  V30 1052 C 106.16 0.392249 -3.46789 0
M  V30 1053 C 107.508 0.645554 -4.19664 0
M  V30 1054 O 108.532 0.474575 -3.53024 0
M  V30 1055 O 107.391 0.976408 -5.37707 0
M  V30 1056 H 104.485 0.182598 -0.80659 0
M  V30 1057 H 107.031 -0.389141 -1.65178 0
M  V30 1058 H 105.803 -0.570702 -3.87116 0
M  V30 1059 H 105.426 1.14316 -3.80812 0
M  V30 1060 N 106.423 1.57458 -0.0668435 0
M  V30 1061 C 107.651 1.97624 0.612565 0
M  V30 1062 C 108.066 0.94502 1.63447 0
M  V30 1063 O 107.423 -0.0689276 1.8237 0
M  V30 1064 C 107.474 3.37869 1.28555 0
M  V30 1065 O 107.195 4.3704 0.304557 0
M  V30 1066 C 108.696 3.92882 2.05325 0
M  V30 1067 H 105.916 0.650045 0.166381 0
M  V30 1068 H 108.46 2.04035 -0.137782 0
M  V30 1069 H 106.615 3.3256 1.98702 0
M  V30 1070 H 107.029 5.18565 0.786779 0
M  V30 1071 H 108.503 4.93247 2.47812 0
M  V30 1072 H 108.98 3.29156 2.9078 0
M  V30 1073 H 109.586 4.01577 1.40056 0
M  V30 1074 N 107.901 -0.206675 1.56239 0
M  V30 1075 C 109.147 -0.930218 1.80208 0
M  V30 1076 C 109.48 -1.83387 0.638981 0
M  V30 1077 O 108.755 -1.91119 -0.361066 0
M  V30 1078 C 109.038 -1.75641 3.1436 0
M  V30 1079 C 108.891 -0.878257 4.41142 0
M  V30 1080 C 110.21 -2.73129 3.45092 0
M  V30 1081 H 107.329 -0.336742 0.655571 0
M  V30 1082 H 109.971 -0.198222 1.88963 0
M  V30 1083 H 108.121 -2.38048 3.07027 0
M  V30 1084 H 109.793 -0.269787 4.6051 0
M  V30 1085 H 108.036 -0.184385 4.33408 0
M  V30 1086 H 108.707 -1.49106 5.3148 0
M  V30 1087 H 111.183 -2.20856 3.52649 0
M  V30 1088 H 110.059 -3.28028 4.40101 0
M  V30 1089 H 110.32 -3.51606 2.68003 0
M  V30 1090 N 109.379 -1.50304 -0.473955 0
M  V30 1091 C 110.309 -1.71886 -1.58042 0
M  V30 1092 C 111.29 -0.567799 -1.60344 0
M  V30 1093 O 112.475 -0.806623 -1.76656 0
M  V30 1094 C 109.605 -1.81036 -2.96384 0
M  V30 1095 C 108.559 -2.962 -3.08949 0
M  V30 1096 C 107.885 -2.9049 -4.48909 0
M  V30 1097 C 109.185 -4.36752 -2.86434 0
M  V30 1098 H 110.879 -2.64527 -1.40234 0
M  V30 1099 H 108.425 -1.27295 -0.673201 0
M  V30 1100 H 110.378 -1.94719 -3.73714 0
M  V30 1101 H 109.102 -0.850147 -3.15341 0
M  V30 1102 H 107.761 -2.82164 -2.3405 0
M  V30 1103 H 107.409 -1.92321 -4.64781 0
M  V30 1104 H 107.109 -3.67802 -4.58253 0
M  V30 1105 H 108.633 -3.06218 -5.28264 0
M  V30 1106 H 110.047 -4.5133 -3.53517 0
M  V30 1107 H 108.444 -5.15493 -3.07225 0
M  V30 1108 H 109.514 -4.49321 -1.82316 0
M  V30 1109 N 110.857 0.726932 -1.39834 0
M  V30 1110 C 112.104 1.48664 -1.37496 0
M  V30 1111 C 112.432 1.94482 0.0264678 0
M  V30 1112 O 111.687 1.67692 1.00886 0
M  V30 1113 C 111.986 2.73495 -2.30077 0
M  V30 1114 C 111.652 2.46502 -3.77555 0
M  V30 1115 C 110.314 2.3885 -4.17737 0
M  V30 1116 C 112.666 2.23604 -4.70798 0
M  V30 1117 C 109.994 2.06352 -5.49214 0
M  V30 1118 C 112.346 1.92622 -6.02561 0
M  V30 1119 C 111.01 1.83444 -6.41798 0
M  V30 1120 H 110.28 0.544001 -0.503135 0
M  V30 1121 H 112.927 0.833657 -1.72402 0
M  V30 1122 H 111.232 3.43575 -1.88317 0
M  V30 1123 H 112.929 3.31549 -2.25558 0
M  V30 1124 H 109.519 2.5334 -3.45712 0
M  V30 1125 H 113.703 2.28479 -4.40581 0
M  V30 1126 H 108.959 1.97776 -5.78528 0
M  V30 1127 H 113.133 1.73914 -6.74334 0
M  V30 1128 H 110.76 1.58029 -7.43593 0
M  V30 1129 N 112.336 1.25143 0.95797 0
M  V30 1130 C 113.561 1.12521 1.74223 0
M  V30 1131 C 113.986 -0.317402 1.85403 0
M  V30 1132 O 113.344 -1.2299 1.33204 0
M  V30 1133 C 113.392 1.78062 3.1357 0
M  V30 1134 O 112.496 1.058 3.98598 0
M  V30 1135 H 111.837 0.39304 0.535178 0
M  V30 1136 H 114.367 1.65641 1.201 0
M  V30 1137 H 114.377 1.84213 3.64046 0
M  V30 1138 H 113.052 2.83021 3.04749 0
M  V30 1139 H 111.629 1.07506 3.57067 0
M  V30 1140 N 113.814 -1.1601 1.06675 0
M  V30 1141 C 115.039 -1.91068 0.806706 0
M  V30 1142 C 115.464 -1.77112 -0.633485 0
M  V30 1143 O 114.822 -1.09908 -1.44187 0
M  V30 1144 C 114.87 -3.39655 1.21106 0
M  V30 1145 O 113.974 -4.10893 0.352189 0
M  V30 1146 H 113.315 -0.595125 0.294486 0
M  V30 1147 H 115.845 -1.46955 1.42356 0
M  V30 1148 H 115.855 -3.90434 1.18428 0
M  V30 1149 H 114.53 -3.49132 2.26008 0
M  V30 1150 H 113.107 -3.70285 0.440868 0
M  V30 1151 N 115.292 -0.849877 -1.32721 0
M  V30 1152 C 116.703 -0.506188 -1.79707 0
M  V30 1153 C 117.054 0.975627 -1.70223 0
M  V30 1154 O 116.179 1.76078 -1.25799 0
M  V30 1155 C 116.774 -0.912044 -3.26293 0
M  V30 1156 C 115.333 -0.620326 -3.71253 0
M  V30 1157 C 114.48 -1.11439 -2.53922 0
M  V30 1158 H 117.431 -1.03754 -1.20087 0
M  V30 1159 H 117.452 -0.226493 -3.79825 0
M  V30 1160 H 116.964 -1.99057 -3.33164 0
M  V30 1161 H 115.065 0.447674 -3.69901 0
M  V30 1162 H 115.178 -1.18327 -4.64258 0
M  V30 1163 H 113.542 -0.534834 -2.49021 0
M  V30 1164 H 114.325 -2.19992 -2.6355 0
M  V30 1165 N 116.77 1.45427 -0.607355 0
M  V30 1166 C 118.018 2.01841 -0.102253 0
M  V30 1167 C 118.339 1.47832 1.27164 0
M  V30 1168 O 117.609 0.672497 1.83995 0
M  V30 1169 H 116.189 0.746188 -0.0348101 0
M  V30 1170 H 118.851 1.78229 -0.7887 0
M  V30 1171 H 117.947 3.12057 -0.0518585 0
M  V30 1172 N 118.248 0.346503 1.53744 0
M  V30 1173 C 119.495 -0.249104 2.00962 0
M  V30 1174 C 119.823 -1.5032 1.23426 0
M  V30 1175 O 119.078 -1.93217 0.310761 0
M  V30 1176 C 119.377 -0.605809 3.52228 0
M  V30 1177 C 119.043 0.551747 4.47512 0
M  V30 1178 C 117.705 0.86941 4.73281 0
M  V30 1179 C 120.057 1.32818 5.03993 0
M  V30 1180 C 117.385 1.96582 5.52786 0
M  V30 1181 C 119.737 2.41486 5.84694 0
M  V30 1182 C 118.401 2.73808 6.08757 0
M  V30 1183 H 117.671 -0.0911538 0.735372 0
M  V30 1184 H 120.318 0.475027 1.85515 0
M  V30 1185 H 118.623 -1.4107 3.65522 0
M  V30 1186 H 120.32 -1.07858 3.86222 0
M  V30 1187 H 116.91 0.294102 4.2759 0
M  V30 1188 H 121.094 1.09602 4.84047 0
M  V30 1189 H 116.35 2.22045 5.69654 0
M  V30 1190 H 120.524 3.02078 6.27473 0
M  V30 1191 H 118.151 3.58892 6.7015 0
M  V30 1192 N 119.726 -1.57421 0.075193 0
M  V30 1193 C 120.972 -1.94716 -0.587998 0
M  V30 1194 C 121.327 -0.955205 -1.67014 0
M  V30 1195 O 120.62 0.0219842 -1.91587 0
M  V30 1196 C 120.814 -3.36428 -1.20626 0
M  V30 1197 C 120.643 -4.49317 -0.185541 0
M  V30 1198 C 119.413 -5.04772 0.23099 0
M  V30 1199 C 121.611 -5.11036 0.57854 0
M  V30 1200 N 119.593 -6.01204 1.24206 0
M  V30 1201 C 120.964 -6.02998 1.44199 0
M  V30 1202 C 123.019 -4.93844 0.634237 0
M  V30 1203 C 121.722 -6.79614 2.3562 0
M  V30 1204 C 123.748 -5.71106 1.53597 0
M  V30 1205 C 123.11 -6.6272 2.38709 0
M  V30 1206 H 119.209 -0.759536 -0.186089 0
M  V30 1207 H 121.793 -1.94097 0.153128 0
M  V30 1208 H 119.964 -3.37778 -1.9173 0
M  V30 1209 H 121.696 -3.60951 -1.8302 0
M  V30 1210 H 118.451 -4.73353 -0.152807 0
M  V30 1211 H 118.875 -6.54119 1.74521 0
M  V30 1212 H 123.517 -4.22799 -0.00960004 0
M  V30 1213 H 121.235 -7.49934 3.01038 0
M  V30 1214 H 124.821 -5.59824 1.58394 0
M  V30 1215 H 123.701 -7.2146 3.07352 0
M  V30 1216 N 121.204 0.198386 -1.56346 0
M  V30 1217 C 122.62 0.549085 -1.49857 0
M  V30 1218 C 122.82 1.86016 -0.774611 0
M  V30 1219 O 121.876 2.50416 -0.323776 0
M  V30 1220 C 123.189 0.606868 -2.94512 0
M  V30 1221 C 124.737 0.695925 -3.05165 0
M  V30 1222 C 125.212 0.784848 -4.51225 0
M  V30 1223 N 126.703 0.848463 -4.55363 0
M  V30 1224 C 127.438 0.937378 -5.65686 0
M  V30 1225 N 126.934 0.9888 -6.85707 0
M  V30 1226 N 128.727 0.974312 -5.53592 0
M  V30 1227 H 120.878 -0.661655 -2.01831 0
M  V30 1228 H 123.141 -0.235261 -0.918344 0
M  V30 1229 H 122.847 -0.28732 -3.50524 0
M  V30 1230 H 122.721 1.46268 -3.47686 0
M  V30 1231 H 125.108 1.58055 -2.49204 0
M  V30 1232 H 125.189 -0.186022 -2.55123 0
M  V30 1233 H 124.833 -0.0954072 -5.0781 0
M  V30 1234 H 124.763 1.68255 -4.98997 0
M  V30 1235 H 127.254 0.818103 -3.68938 0
M  V30 1236 H 127.567 1.05707 -7.65536 0
M  V30 1237 H 125.912 0.957534 -6.88372 0
M  V30 1238 H 129.103 0.930954 -4.58749 0
M  V30 1239 H 129.276 1.04015 -6.39597 0
M  V30 1240 N 122.682 1.50554 0.465978 0
M  V30 1241 C 123.93 1.61479 1.21528 0
M  V30 1242 C 124.251 0.319596 1.92363 0
M  V30 1243 O 123.521 -0.663194 1.84333 0
M  V30 1244 H 122.101 0.595055 0.451573 0
M  V30 1245 H 124.763 1.87355 0.53704 0
M  V30 1246 H 123.859 2.42846 1.96042 0
M  V30 1247 N 124.16 -0.719506 1.40217 0
M  V30 1248 C 125.107 -1.83359 1.40172 0
M  V30 1249 C 126.077 -1.64065 0.259206 0
M  V30 1250 O 127.262 -1.85254 0.456677 0
M  V30 1251 C 124.402 -3.2103 1.26624 0
M  V30 1252 C 123.515 -3.51923 2.50548 0
M  V30 1253 C 122.65 -4.79079 2.29471 0
M  V30 1254 C 121.689 -5.02863 3.48992 0
M  V30 1255 N 120.826 -6.2123 3.27135 0
M  V30 1256 H 125.666 -1.82733 2.35399 0
M  V30 1257 H 123.203 -0.892688 1.16917 0
M  V30 1258 H 125.161 -4.00524 1.16776 0
M  V30 1259 H 123.791 -3.20895 0.350176 0
M  V30 1260 H 122.843 -2.67014 2.70939 0
M  V30 1261 H 124.155 -3.6541 3.39525 0
M  V30 1262 H 123.309 -5.66582 2.16955 0
M  V30 1263 H 122.048 -4.67794 1.37913 0
M  V30 1264 H 121.053 -4.13816 3.6199 0
M  V30 1265 H 122.278 -5.16023 4.41472 0
M  V30 1266 H 120.224 -6.11204 2.38256 0
M  V30 1267 H 120.141 -6.35375 4.09675 0
M  V30 1268 H 121.409 -7.11532 3.18344 0
M  V30 1269 N 125.638 -1.25649 -0.95132 0
M  V30 1270 C 126.585 -1.06323 -2.04851 0
M  V30 1271 C 127.555 0.0286491 -1.66075 0
M  V30 1272 O 128.74 -0.12917 -1.90362 0
M  V30 1273 C 125.88 -0.691529 -3.381 0
M  V30 1274 C 124.993 -1.85861 -3.89974 0
M  V30 1275 C 124.128 -1.43096 -5.11563 0
M  V30 1276 C 123.167 -2.56696 -5.55674 0
M  V30 1277 N 122.304 -2.14684 -6.68472 0
M  V30 1278 H 127.144 -2.00222 -2.20715 0
M  V30 1279 H 124.681 -0.997027 -1.08156 0
M  V30 1280 H 126.639 -0.456963 -4.1469 0
M  V30 1281 H 125.269 0.210474 -3.22113 0
M  V30 1282 H 124.321 -2.20639 -3.09875 0
M  V30 1283 H 125.633 -2.71161 -4.18657 0
M  V30 1284 H 124.787 -1.15624 -5.9558 0
M  V30 1285 H 123.526 -0.548722 -4.84603 0
M  V30 1286 H 122.531 -2.84909 -4.7022 0
M  V30 1287 H 123.756 -3.45503 -5.8464 0
M  V30 1288 H 121.702 -1.28881 -6.43215 0
M  V30 1289 H 121.619 -2.9353 -6.96689 0
M  V30 1290 H 122.887 -1.90397 -7.5589 0
M  V30 1291 N 127.117 1.15442 -1.07289 0
M  V30 1292 C 128.345 1.90096 -0.81676 0
M  V30 1293 C 128.76 1.7798 0.629966 0
M  V30 1294 O 128.117 1.1313 1.43206 0
M  V30 1295 C 128.168 3.40466 -1.21512 0
M  V30 1296 O 127.889 3.52232 -2.60508 0
M  V30 1297 C 129.39 4.32145 -0.988198 0
M  V30 1298 H 126.61 0.602495 -0.295366 0
M  V30 1299 H 129.154 1.4627 -1.42918 0
M  V30 1300 H 127.309 3.81958 -0.647039 0
M  V30 1301 H 127.723 4.45549 -2.76742 0
M  V30 1302 H 129.197 5.36072 -1.31645 0
M  V30 1303 H 129.674 4.39135 0.0755063 0
M  V30 1304 H 130.28 3.96395 -1.54115 0
M  V30 1305 N 128.595 0.856903 1.32268 0
M  V30 1306 C 129.842 0.461386 1.97174 0
M  V30 1307 C 130.17 -0.983491 1.67803 0
M  V30 1308 O 129.425 -1.70541 0.959903 0
M  V30 1309 C 129.724 0.649919 3.51441 0
M  V30 1310 C 129.39 2.0656 4.00804 0
M  V30 1311 C 128.052 2.45279 4.13995 0
M  V30 1312 C 130.404 2.98947 4.26943 0
M  V30 1313 C 127.732 3.75653 4.50668 0
M  V30 1314 C 130.084 4.28822 4.65075 0
M  V30 1315 C 128.748 4.67472 4.76472 0
M  V30 1316 H 128.018 0.168833 0.72151 0
M  V30 1317 H 130.665 1.08739 1.57633 0
M  V30 1318 H 128.97 -0.0593018 3.91755 0
M  V30 1319 H 130.667 0.32391 3.9969 0
M  V30 1320 H 127.257 1.75495 3.91024 0
M  V30 1321 H 131.441 2.70265 4.16258 0
M  V30 1322 H 126.697 4.05379 4.57688 0
M  V30 1323 H 130.871 5.0047 4.84255 0
M  V30 1324 H 128.498 5.68539 5.04646 0
M  V30 1325 N 130.073 -1.45103 0.615059 0
M  V30 1326 C 131.298 -2.07064 0.117988 0
M  V30 1327 C 131.723 -1.4554 -1.19163 0
M  V30 1328 O 131.081 -0.550855 -1.72729 0
M  V30 1329 C 131.129 -3.606 -0.000288387 0
M  V30 1330 O 130.233 -3.98847 -1.04856 0
M  V30 1331 H 129.574 -0.659467 0.0774581 0
M  V30 1332 H 132.104 -1.86236 0.847186 0
M  V30 1333 H 132.114 -4.07529 -0.196091 0
M  V30 1334 H 130.789 -4.04765 0.955932 0
M  V30 1335 H 129.366 -3.63577 -0.828619 0
M  V30 1336 N 131.551 -0.354651 -1.53558 0
M  V30 1337 C 132.962 0.126902 -1.86268 0
M  V30 1338 C 133.313 1.49075 -1.27558 0
M  V30 1339 O 132.438 2.08105 -0.5934 0
M  V30 1340 C 133.033 0.237046 -3.3797 0
M  V30 1341 C 131.592 0.662842 -3.70518 0
M  V30 1342 C 130.739 -0.196652 -2.76602 0
M  V30 1343 H 133.69 -0.573849 -1.47962 0
M  V30 1344 H 133.711 1.06259 -3.65362 0
M  V30 1345 H 133.223 -0.755725 -3.80671 0
M  V30 1346 H 131.324 1.66424 -3.33367 0
M  V30 1347 H 131.437 0.445034 -4.77029 0
M  V30 1348 H 129.801 0.332763 -2.52517 0
M  V30 1349 H 130.584 -1.18676 -3.22135 0
M  V30 1350 N 133.029 1.57378 -0.0835403 0
M  V30 1351 C 133.939 2.16897 0.894021 0
M  V30 1352 C 134.955 1.13528 1.31861 0
M  V30 1353 O 136.131 1.45848 1.3889 0
M  V30 1354 C 133.196 2.72831 2.13925 0
M  V30 1355 C 132.257 3.91115 1.76997 0
M  V30 1356 C 131.49 4.44371 2.95584 0
M  V30 1357 O 131.713 3.96596 4.09961 0
M  V30 1358 O 130.647 5.35549 2.74719 0
M  V30 1359 H 134.473 3.00814 0.417679 0
M  V30 1360 H 132.058 1.48741 0.140181 0
M  V30 1361 H 133.94 3.0863 2.86924 0
M  V30 1362 H 132.615 1.91967 2.60635 0
M  V30 1363 H 131.522 3.60148 1.01214 0
M  V30 1364 H 132.855 4.73307 1.3506 0
M  V30 1365 N 134.507 -0.190092 1.56449 0
M  V30 1366 C 135.732 -0.929864 1.85387 0
M  V30 1367 C 136.157 -1.7585 0.667704 0
M  V30 1368 O 135.515 -1.77198 -0.383459 0
M  V30 1369 C 135.563 -1.79773 3.12593 0
M  V30 1370 O 134.667 -2.89713 2.93496 0
M  V30 1371 H 134.008 -0.261574 0.610307 0
M  V30 1372 H 136.538 -0.193896 2.03679 0
M  V30 1373 H 136.548 -2.20139 3.43515 0
M  V30 1374 H 135.223 -1.18892 3.98544 0
M  V30 1375 H 133.8 -2.53065 2.73884 0
M  V30 1376 N 135.985 -1.50799 -0.457987 0
M  V30 1377 C 136.895 -1.73426 -1.57989 0
M  V30 1378 C 137.911 -0.617745 -1.62665 0
M  V30 1379 O 139.087 -0.897614 -1.80291 0
M  V30 1380 C 136.152 -1.83557 -2.94122 0
M  V30 1381 C 135.213 -3.07345 -2.99729 0
M  V30 1382 C 134.446 -3.16983 -4.29368 0
M  V30 1383 O 134.669 -2.33077 -5.20607 0
M  V30 1384 O 133.603 -4.09812 -4.40837 0
M  V30 1385 H 137.429 -2.68555 -1.41817 0
M  V30 1386 H 135.014 -1.35052 -0.638859 0
M  V30 1387 H 136.896 -1.92326 -3.74952 0
M  V30 1388 H 135.571 -0.916137 -3.10465 0
M  V30 1389 H 134.478 -3.04068 -2.1793 0
M  V30 1390 H 135.811 -3.9891 -2.88326 0
M  V30 1391 N 137.463 0.71206 -1.40597 0
M  V30 1392 C 138.74 1.46536 -1.29563 0
M  V30 1393 C 139.12 2.10931 0.0844217 0
M  V30 1394 O 138.468 2.00418 1.0975 0
M  V30 1395 C 138.678 2.49821 -2.43701 0
M  V30 1396 C 140.026 3.15551 -2.841 0
M  V30 1397 O 141.05 2.60142 -2.4332 0
M  V30 1398 O 139.909 4.15867 -3.54566 0
M  V30 1399 H 137.003 0.651801 -0.509004 0
M  V30 1400 H 139.549 0.743935 -1.52524 0
M  V30 1401 H 138.321 2.00778 -3.35863 0
M  V30 1402 H 137.944 3.29495 -2.22528 0
M  V30 1403 N 138.941 1.26152 0.944643 0
M  V30 1404 C 140.171 1.14094 1.72239 0
M  V30 1405 C 140.579 -0.306931 1.86694 0
M  V30 1406 O 139.922 -1.22222 1.3714 0
M  V30 1407 C 139.984 1.73316 3.14963 0
M  V30 1408 C 139.648 3.2239 3.23904 0
M  V30 1409 C 140.645 4.19252 3.07447 0
M  V30 1410 C 138.33 3.62788 3.47405 0
M  V30 1411 C 140.324 5.54491 3.14353 0
M  V30 1412 C 138.011 4.98162 3.53947 0
M  V30 1413 C 139.009 5.93823 3.37436 0
M  V30 1414 O 138.697 7.26732 3.43679 0
M  V30 1415 H 138.429 0.398292 0.546205 0
M  V30 1416 H 140.983 1.67201 1.19301 0
M  V30 1417 H 139.213 1.14667 3.69308 0
M  V30 1418 H 140.902 1.56214 3.74636 0
M  V30 1419 H 141.668 3.8938 2.8915 0
M  V30 1420 H 137.547 2.88816 3.59313 0
M  V30 1421 H 141.091 6.29137 3.01384 0
M  V30 1422 H 136.988 5.27695 3.71763 0
M  V30 1423 H 137.756 7.3496 3.60245 0
M  V30 1424 N 140.419 -1.14872 1.07899 0
M  V30 1425 C 141.349 -2.2193 0.725887 0
M  V30 1426 C 142.33 -1.67622 -0.28927 0
M  V30 1427 O 143.515 -1.93533 -0.160787 0
M  V30 1428 C 140.645 -3.47061 0.128856 0
M  V30 1429 C 139.599 -4.14363 1.07178 0
M  V30 1430 C 138.925 -5.33636 0.337229 0
M  V30 1431 C 140.225 -4.63492 2.40775 0
M  V30 1432 H 141.919 -2.51724 1.62097 0
M  V30 1433 H 139.465 -1.20991 0.780838 0
M  V30 1434 H 141.418 -4.21199 -0.130147 0
M  V30 1435 H 140.142 -3.16617 -0.80134 0
M  V30 1436 H 138.801 -3.42173 1.3158 0
M  V30 1437 H 138.449 -4.99449 -0.596606 0
M  V30 1438 H 138.149 -5.79609 0.965788 0
M  V30 1439 H 139.673 -6.10539 0.0861567 0
M  V30 1440 H 141.087 -5.2913 2.20669 0
M  V30 1441 H 139.484 -5.20148 2.99276 0
M  V30 1442 H 140.554 -3.78834 3.02676 0
M  V30 1443 N 141.898 -0.863906 -1.31812 0
M  V30 1444 C 142.845 -0.313303 -2.28664 0
M  V30 1445 C 143.815 0.584868 -1.55462 0
M  V30 1446 O 145 0.517805 -1.83639 0
M  V30 1447 C 142.14 0.48441 -3.41683 0
M  V30 1448 C 141.253 -0.440594 -4.29747 0
M  V30 1449 C 140.388 0.370652 -5.29905 0
M  V30 1450 C 139.427 -0.551164 -6.09613 0
M  V30 1451 N 138.564 0.223462 -7.01744 0
M  V30 1452 H 143.404 -1.14444 -2.75148 0
M  V30 1453 H 140.941 -0.575769 -1.35364 0
M  V30 1454 H 142.899 0.962627 -4.05943 0
M  V30 1455 H 141.529 1.28029 -2.96325 0
M  V30 1456 H 140.581 -1.03724 -3.65986 0
M  V30 1457 H 141.893 -1.14767 -4.85417 0
M  V30 1458 H 141.047 0.911638 -5.99812 0
M  V30 1459 H 139.786 1.11105 -4.74876 0
M  V30 1460 H 138.791 -1.10396 -5.38603 0
M  V30 1461 H 140.016 -1.29032 -6.66729 0
M  V30 1462 H 137.962 0.946787 -6.49132 0
M  V30 1463 H 137.879 -0.424399 -7.54808 0
M  V30 1464 H 139.147 0.745876 -7.75923 0
M  V30 1465 N 143.376 1.44774 -0.622745 0
M  V30 1466 C 144.324 2.32387 0.0994683 0
M  V30 1467 C 145.318 1.46859 0.844326 0
M  V30 1468 O 146.524 1.63254 0.758174 0
M  V30 1469 H 142.899 0.750273 0.0509291 0
M  V30 1470 H 144.87 2.91062 -0.65767 0
M  V30 1471 C 143.619 3.30723 1.07319 0
M  V30 1472 H 142.942 3.96541 0.509462 0
M  V30 1473 H 144.382 3.94725 1.54817 0
M  V30 1474 C 142.841 2.59021 2.15429 0
M  V30 1475 O 143.371 2.38286 3.23393 0
M  V30 1476 N 141.577 2.189 1.91131 0
M  V30 1477 H 141.124 2.35964 1.03337 0
M  V30 1478 H 141.082 1.71251 2.63668 0
M  V30 1479 N 144.854 0.36279 1.53368 0
M  V30 1480 C 146.265 -0.117022 1.86333 0
M  V30 1481 C 146.616 -1.48397 1.28347 0
M  V30 1482 O 145.741 -2.07787 0.604428 0
M  V30 1483 C 146.336 -0.21912 3.38091 0
M  V30 1484 C 144.895 -0.643184 3.70864 0
M  V30 1485 C 144.042 0.211318 2.76494 0
M  V30 1486 H 146.993 0.581687 1.47655 0
M  V30 1487 H 147.014 -1.04319 3.6592 0
M  V30 1488 H 146.526 0.775902 3.80265 0
M  V30 1489 H 144.627 -1.64654 3.34245 0
M  V30 1490 H 144.74 -0.41973 4.77258 0
M  V30 1491 H 143.104 -0.319367 2.5269 0
M  V30 1492 H 143.887 1.20383 3.21501 0
M  V30 1493 N 146.332 -1.57332 0.0918853 0
M  V30 1494 C 147.578 -1.94524 -0.573425 0
M  V30 1495 C 147.911 -0.973578 -1.68033 0
M  V30 1496 O 147.186 -0.00609226 -1.94499 0
M  V30 1497 C 147.469 -3.41858 -1.13161 0
M  V30 1498 C 147.322 -4.4979 -0.0299747 0
M  V30 1499 C 148.641 -3.90435 -2.03098 0
M  V30 1500 H 145.76 -0.70734 -0.206975 0
M  V30 1501 H 148.402 -1.89309 0.161942 0
M  V30 1502 H 146.552 -3.46433 -1.7583 0
M  V30 1503 H 148.224 -4.57327 0.604112 0
M  V30 1504 H 146.467 -4.291 0.636833 0
M  V30 1505 H 147.138 -5.50069 -0.461287 0
M  V30 1506 H 149.614 -3.87992 -1.50338 0
M  V30 1507 H 148.49 -4.94097 -2.39081 0
M  V30 1508 H 148.751 -3.29541 -2.94712 0
M  V30 1509 N 147.81 0.181792 -1.56548 0
M  V30 1510 C 149.057 0.900097 -1.81396 0
M  V30 1511 C 149.385 1.82695 -0.667281 0
M  V30 1512 O 148.64 1.92614 0.346146 0
M  V30 1513 C 148.939 1.73728 -3.12335 0
M  V30 1514 C 148.605 0.960255 -4.40556 0
M  V30 1515 C 147.267 0.745766 -4.75386 0
M  V30 1516 C 149.619 0.414477 -5.19549 0
M  V30 1517 C 146.947 -0.0257694 -5.86694 0
M  V30 1518 C 149.299 -0.343916 -6.31664 0
M  V30 1519 C 147.963 -0.569301 -6.65068 0
M  V30 1520 H 147.233 0.329369 -0.663775 0
M  V30 1521 H 149.88 0.165647 -1.90782 0
M  V30 1522 H 148.185 2.54081 -2.98245 0
M  V30 1523 H 149.882 2.29591 -3.28769 0
M  V30 1524 H 146.472 1.13746 -4.13231 0
M  V30 1525 H 150.656 0.567554 -4.93044 0
M  V30 1526 H 145.912 -0.210233 -6.11038 0
M  V30 1527 H 150.086 -0.774133 -6.92084 0
M  V30 1528 H 147.713 -1.16903 -7.51158 0
M  V30 1529 N 149.288 1.51039 0.449983 0
M  V30 1530 C 150.534 1.64287 1.19923 0
M  V30 1531 C 150.889 0.348701 1.89214 0
M  V30 1532 O 150.182 -0.654751 1.80065 0
M  V30 1533 C 150.376 2.77556 2.25161 0
M  V30 1534 C 150.205 4.17862 1.66198 0
M  V30 1535 C 148.975 4.83976 1.45243 0
M  V30 1536 C 151.173 5.01388 1.14519 0
M  V30 1537 N 149.155 6.08433 0.817437 0
M  V30 1538 C 150.526 6.16743 0.634705 0
M  V30 1539 C 152.581 4.87008 1.03574 0
M  V30 1540 C 151.284 7.19295 0.0255452 0
M  V30 1541 C 153.31 5.89757 0.440489 0
M  V30 1542 C 152.672 7.04375 -0.0595112 0
M  V30 1543 H 148.771 0.655161 0.426952 0
M  V30 1544 H 151.355 1.88228 0.49781 0
M  V30 1545 H 149.526 2.553 2.92706 0
M  V30 1546 H 151.258 2.80049 2.92155 0
M  V30 1547 H 148.013 4.41627 1.71063 0
M  V30 1548 H 148.437 6.75017 0.517747 0
M  V30 1549 H 153.079 3.9866 1.4082 0
M  V30 1550 H 150.797 8.07302 -0.359071 0
M  V30 1551 H 154.383 5.80698 0.35788 0
M  V30 1552 H 153.263 7.82521 -0.512882 0
M  V30 1553 N 150.766 -0.704594 1.40972 0
M  V30 1554 C 151.676 -1.84856 1.44448 0
M  V30 1555 C 152.692 -1.70726 0.335961 0
M  V30 1556 O 153.868 -1.92799 0.582276 0
M  V30 1557 C 150.933 -3.20758 1.31587 0
M  V30 1558 C 149.994 -3.47063 2.52677 0
M  V30 1559 C 149.227 -4.76481 2.4042 0
M  V30 1560 O 149.45 -5.52341 1.42391 0
M  V30 1561 O 148.384 -5.03367 3.30007 0
M  V30 1562 H 152.21 -1.8488 2.40942 0
M  V30 1563 H 149.795 -0.85647 1.22413 0
M  V30 1564 H 151.677 -4.01913 1.26665 0
M  V30 1565 H 150.352 -3.21438 0.382049 0
M  V30 1566 H 149.259 -2.65873 2.63177 0
M  V30 1567 H 150.592 -3.5119 3.44858 0
M  V30 1568 N 152.244 -1.26651 -0.937939 0
M  V30 1569 C 153.191 -1.0849 -2.03712 0
M  V30 1570 C 154.161 0.011033 -1.66096 0
M  V30 1571 O 155.346 -0.149353 -1.90215 0
M  V30 1572 C 152.486 -0.72735 -3.37348 0
M  V30 1573 C 151.599 -1.89986 -3.87981 0
M  V30 1574 C 150.734 -1.48513 -5.10017 0
M  V30 1575 C 149.773 -2.62575 -5.5292 0
M  V30 1576 N 148.91 -2.21762 -6.66158 0
M  V30 1577 H 153.75 -2.02551 -2.18579 0
M  V30 1578 H 151.287 -1.00844 -1.07093 0
M  V30 1579 H 153.245 -0.50092 -4.14182 0
M  V30 1580 H 151.875 0.176298 -3.22318 0
M  V30 1581 H 150.927 -2.23913 -3.07518 0
M  V30 1582 H 152.239 -2.75586 -4.15757 0
M  V30 1583 H 151.393 -1.21934 -5.94321 0
M  V30 1584 H 150.132 -0.60009 -4.83994 0
M  V30 1585 H 149.137 -2.8988 -4.67172 0
M  V30 1586 H 150.362 -3.51685 -5.80943 0
M  V30 1587 H 148.308 -1.35696 -6.41812 0
M  V30 1588 H 148.225 -3.00903 -6.93537 0
M  V30 1589 H 149.493 -1.98403 -7.53828 0
M  V30 1590 N 153.722 1.14298 -1.08507 0
M  V30 1591 C 154.655 2.18447 -0.660004 0
M  V30 1592 C 155.633 1.59242 0.328749 0
M  V30 1593 O 156.817 1.87062 0.232367 0
M  V30 1594 C 153.944 3.38688 0.0290807 0
M  V30 1595 C 152.99 4.1646 -0.919982 0
M  V30 1596 S 153.823 4.77334 -2.42718 0
M  V30 1597 C 154.979 6.00931 -1.75024 0
M  V30 1598 H 155.212 2.54166 -1.54231 0
M  V30 1599 H 152.745 1.25446 -0.900149 0
M  V30 1600 H 154.703 4.08342 0.420378 0
M  V30 1601 H 153.364 3.01289 0.887895 0
M  V30 1602 H 152.557 5.02529 -0.384751 0
M  V30 1603 H 152.159 3.52414 -1.25223 0
M  V30 1604 H 154.451 6.69017 -1.06877 0
M  V30 1605 H 155.394 6.59044 -2.58971 0
M  V30 1606 H 155.802 5.51089 -1.22317 0
M  V30 1607 N 155.201 0.870884 1.31352 0
M  V30 1608 C 156.149 0.316445 2.30437 0
M  V30 1609 C 157.143 -0.568965 1.59559 0
M  V30 1610 O 158.349 -0.454964 1.74155 0
M  V30 1611 H 154.724 0.0836521 0.747333 0
M  V30 1612 H 156.695 1.16606 2.74673 0
M  V30 1613 C 155.444 -0.46635 3.44558 0
M  V30 1614 H 154.767 0.205687 3.99271 0
M  V30 1615 H 156.207 -0.819614 4.16003 0
M  V30 1616 C 154.666 -1.65797 2.9328 0
M  V30 1617 O 155.196 -2.75728 2.92125 0
M  V30 1618 N 153.402 -1.49041 2.4947 0
M  V30 1619 H 152.949 -0.59612 2.50608 0
M  V30 1620 H 152.907 -2.28911 2.15516 0
M  V30 1621 N 156.679 -1.44442 0.630414 0
M  V30 1622 C 157.627 -2.32437 -0.0871428 0
M  V30 1623 C 158.621 -1.47304 -0.836525 0
M  V30 1624 O 159.827 -1.63653 -0.749506 0
M  V30 1625 H 156.202 -0.750533 -0.0469495 0
M  V30 1626 H 158.173 -2.90709 0.673096 0
M  V30 1627 C 156.922 -3.31288 -1.05563 0
M  V30 1628 H 156.245 -3.96805 -0.488426 0
M  V30 1629 H 157.685 -3.9554 -1.52721 0
M  V30 1630 C 156.144 -2.6016 -2.14052 0
M  V30 1631 O 156.674 -2.39997 -3.22124 0
M  V30 1632 N 154.88 -2.19911 -1.89967 0
M  V30 1633 H 154.427 -2.36509 -1.02085 0
M  V30 1634 H 154.385 -1.72646 -2.62756 0
M  V30 1635 N 158.157 -0.370918 -1.53173 0
M  V30 1636 C 159.405 0.216673 -2.00935 0
M  V30 1637 C 159.726 1.48845 -1.25977 0
M  V30 1638 O 158.996 1.92286 -0.374551 0
M  V30 1639 H 157.576 0.0830565 -0.742368 0
M  V30 1640 H 160.238 -0.49838 -1.8842 0
M  V30 1641 H 159.334 0.439893 -3.08984 0
M  V30 1642 N 159.635 1.57281 -0.100228 0
M  V30 1643 C 160.881 1.95626 0.556946 0
M  V30 1644 C 161.236 0.981655 1.65473 0
M  V30 1645 O 160.529 0.00849847 1.91598 0
M  V30 1646 C 160.723 3.38305 1.15259 0
M  V30 1647 C 160.552 4.49555 0.114035 0
M  V30 1648 C 159.322 5.0434 -0.311266 0
M  V30 1649 C 161.52 5.10051 -0.659768 0
M  V30 1650 N 159.502 5.99152 -1.33755 0
M  V30 1651 C 160.873 6.00628 -1.53774 0
M  V30 1652 C 162.928 4.92772 -0.712723 0
M  V30 1653 C 161.631 6.7578 -2.46403 0
M  V30 1654 C 163.657 5.6859 -1.62663 0
M  V30 1655 C 163.019 6.58838 -2.49222 0
M  V30 1656 H 159.118 0.7624 0.173982 0
M  V30 1657 H 161.702 1.93829 -0.183988 0
M  V30 1658 H 159.873 3.40786 1.86332 0
M  V30 1659 H 161.605 3.63817 1.77254 0
M  V30 1660 H 158.36 4.73537 0.0774812 0
M  V30 1661 H 158.784 6.5126 -1.84905 0
M  V30 1662 H 163.426 4.22761 -0.0576648 0
M  V30 1663 H 161.144 7.4505 -3.12931 0
M  V30 1664 H 164.73 5.57233 -1.67281 0
M  V30 1665 H 163.61 7.16479 -3.18791 0
M  V30 1666 N 161.113 -0.173488 1.56642 0
M  V30 1667 C 162.39 -0.917617 1.7274 0
M  V30 1668 C 162.77 -2.00484 0.661027 0
M  V30 1669 O 162.118 -2.26184 -0.32453 0
M  V30 1670 C 162.328 -1.48433 3.15862 0
M  V30 1671 C 163.676 -1.95809 3.76754 0
M  V30 1672 O 164.7 -1.58231 3.19126 0
M  V30 1673 O 163.559 -2.65024 4.77938 0
M  V30 1674 H 160.653 -0.431772 0.705338 0
M  V30 1675 H 163.199 -0.161487 1.6893 0
M  V30 1676 H 161.971 -0.701715 3.84957 0
M  V30 1677 H 161.594 -2.30471 3.23989 0
M  V30 1678 N 162.591 -1.51276 -0.441967 0
M  V30 1679 C 163.501 -1.75092 -1.56141 0
M  V30 1680 C 164.517 -0.634963 -1.62001 0
M  V30 1681 O 165.693 -0.916686 -1.79329 0
M  V30 1682 C 162.758 -1.86666 -2.92158 0
M  V30 1683 C 161.819 -3.10506 -2.96453 0
M  V30 1684 C 161.052 -3.21519 -4.25982 0
M  V30 1685 O 161.275 -2.38586 -5.18105 0
M  V30 1686 O 160.209 -4.14465 -4.36466 0
M  V30 1687 H 164.035 -2.70044 -1.38961 0
M  V30 1688 H 161.62 -1.35722 -0.624499 0
M  V30 1689 H 163.502 -1.96292 -3.72891 0
M  V30 1690 H 162.177 -0.949014 -3.09476 0
M  V30 1691 H 161.084 -3.06363 -2.14692 0
M  V30 1692 H 162.417 -4.01945 -2.84079 0
M  V30 1693 N 164.069 0.697108 -1.41344 0
M  V30 1694 C 165.316 1.45714 -1.40619 0
M  V30 1695 C 165.644 1.94494 -0.0147907 0
M  V30 1696 O 164.899 1.69794 0.973066 0
M  V30 1697 C 165.198 2.68553 -2.35826 0
M  V30 1698 C 164.864 2.38438 -3.82698 0
M  V30 1699 C 163.526 2.29936 -4.22709 0
M  V30 1700 C 165.878 2.13567 -4.75435 0
M  V30 1701 C 163.206 1.94656 -5.53467 0
M  V30 1702 C 165.558 1.79797 -6.06511 0
M  V30 1703 C 164.222 1.69789 -6.45545 0
M  V30 1704 H 163.492 0.533206 -0.51456 0
M  V30 1705 H 166.139 0.796901 -1.74131 0
M  V30 1706 H 164.444 3.39503 -1.95563 0
M  V30 1707 H 166.141 3.2669 -2.32539 0
M  V30 1708 H 162.731 2.4595 -3.51008 0
M  V30 1709 H 166.915 2.19082 -4.45328 0
M  V30 1710 H 162.171 1.8546 -5.82593 0
M  V30 1711 H 166.345 1.59572 -6.77872 0
M  V30 1712 H 163.972 1.4222 -7.46778 0
M  V30 1713 N 165.547 1.27147 0.931209 0
M  V30 1714 C 166.772 1.16191 1.71797 0
M  V30 1715 C 167.197 -0.278004 1.86034 0
M  V30 1716 O 166.555 -1.20137 1.35782 0
M  V30 1717 C 166.603 1.84673 3.09723 0
M  V30 1718 O 165.707 1.14231 3.96264 0
M  V30 1719 H 165.048 0.404303 0.526721 0
M  V30 1720 H 167.578 1.68152 1.1656 0
M  V30 1721 H 167.588 1.91893 3.60057 0
M  V30 1722 H 166.263 2.89421 2.98677 0
M  V30 1723 H 164.84 1.15056 3.54706 0
M  V30 1724 N 167.025 -1.13721 1.09112 0
M  V30 1725 C 168.274 -1.84275 0.82009 0
M  V30 1726 C 168.587 -1.84253 -0.656509 0
M  V30 1727 O 169.793 -2.50668 -1.04296 0
M  V30 1728 C 168.249 -3.30825 1.41714 0
M  V30 1729 C 167.857 -3.39244 2.92605 0
M  V30 1730 C 169.601 -4.06443 1.22492 0
M  V30 1731 C 167.508 -4.80047 3.45411 0
M  V30 1732 H 166.438 -0.690387 0.30312 0
M  V30 1733 H 169.089 -1.28146 1.31343 0
M  V30 1734 H 167.471 -3.86737 0.851498 0
M  V30 1735 H 168.645 -2.93344 3.55367 0
M  V30 1736 H 166.96 -2.77088 3.10823 0
M  V30 1737 H 169.557 -5.10387 1.59402 0
M  V30 1738 H 169.9 -4.15972 0.165299 0
M  V30 1739 H 170.433 -3.56852 1.75788 0
M  V30 1740 H 167.172 -4.75709 4.50978 0
M  V30 1741 H 166.692 -5.26455 2.87411 0
M  V30 1742 H 168.371 -5.48957 3.42425 0
M  V30 1743 N 168.503 -0.877838 -1.30888 0
M  V30 1744 C 169.914 -0.544193 -1.78593 0
M  V30 1745 C 170.265 0.939301 -1.72254 0
M  V30 1746 O 169.39 1.7337 -1.29505 0
M  V30 1747 C 169.985 -0.98105 -3.24285 0
M  V30 1748 C 168.544 -0.698935 -3.69854 0
M  V30 1749 C 167.691 -1.168 -2.51502 0
M  V30 1750 H 170.642 -1.06278 -1.17859 0
M  V30 1751 H 170.663 -0.307009 -3.79259 0
M  V30 1752 H 170.175 -2.06079 -3.28866 0
M  V30 1753 H 168.276 0.369112 -3.70767 0
M  V30 1754 H 168.389 -1.28148 -4.61644 0
M  V30 1755 H 166.753 -0.587535 -2.47831 0
M  V30 1756 H 167.536 -2.25533 -2.58824 0
M  V30 1757 N 169.982 1.44106 -0.638065 0
M  V30 1758 C 170.929 2.30715 0.062701 0
M  V30 1759 C 171.899 1.43882 0.829883 0
M  V30 1760 O 173.084 1.72775 0.809532 0
M  V30 1761 C 170.224 3.29258 1.03358 0
M  V30 1762 C 169.337 4.31192 0.26409 0
M  V30 1763 C 168.472 5.16825 1.22741 0
M  V30 1764 C 167.511 6.10462 0.447475 0
M  V30 1765 N 166.648 6.8877 1.36161 0
M  V30 1766 H 171.488 2.90096 -0.681781 0
M  V30 1767 H 169.025 1.42925 -0.347988 0
M  V30 1768 H 170.983 3.84886 1.60992 0
M  V30 1769 H 169.613 2.71562 1.74511 0
M  V30 1770 H 168.665 3.77981 -0.428295 0
M  V30 1771 H 169.977 4.97619 -0.343052 0
M  V30 1772 H 169.131 5.77004 1.87487 0
M  V30 1773 H 167.87 4.50488 1.86847 0
M  V30 1774 H 166.875 5.49386 -0.213433 0
M  V30 1775 H 168.1 6.78837 -0.188968 0
M  V30 1776 H 166.046 6.25096 1.98975 0
M  V30 1777 H 165.963 7.51663 0.808656 0
M  V30 1778 H 167.231 7.53467 1.99769 0
M  V30 1779 N 171.46 0.379036 1.52974 0
M  V30 1780 C 172.37 -0.468639 2.29872 0
M  V30 1781 C 173.386 -1.08067 1.36373 0
M  V30 1782 O 174.562 -1.08871 1.69438 0
M  V30 1783 C 171.627 -1.58594 3.083 0
M  V30 1784 C 170.688 -1.00007 4.17489 0
M  V30 1785 C 169.921 -2.06413 4.92168 0
M  V30 1786 O 170.144 -3.27751 4.66835 0
M  V30 1787 O 169.078 -1.68717 5.7777 0
M  V30 1788 H 172.904 0.157508 3.03291 0
M  V30 1789 H 170.489 0.143035 1.48714 0
M  V30 1790 H 172.371 -2.23525 3.57232 0
M  V30 1791 H 171.046 -2.19724 2.37703 0
M  V30 1792 H 169.953 -0.314299 3.72777 0
M  V30 1793 H 171.286 -0.433135 4.90291 0
M  V30 1794 N 172.938 -1.57226 0.108567 0
M  V30 1795 C 174.184 -1.95121 -0.552761 0
M  V30 1796 C 174.517 -0.991345 -1.66991 0
M  V30 1797 O 173.792 -0.0267211 -1.94482 0
M  V30 1798 C 174.075 -3.43039 -1.09528 0
M  V30 1799 C 173.928 -4.49797 0.0177332 0
M  V30 1800 C 175.247 -3.92567 -1.98945 0
M  V30 1801 H 172.366 -0.709496 -0.199461 0
M  V30 1802 H 175.008 -1.89126 0.182011 0
M  V30 1803 H 173.158 -3.48279 -1.72146 0
M  V30 1804 H 174.83 -4.56661 0.652584 0
M  V30 1805 H 173.073 -4.284 0.682309 0
M  V30 1806 H 173.744 -5.50528 -0.402919 0
M  V30 1807 H 176.22 -3.89565 -1.46214 0
M  V30 1808 H 175.096 -4.96605 -2.33827 0
M  V30 1809 H 175.357 -3.32648 -2.91201 0
M  V30 1810 N 174.416 0.165178 -1.56732 0
M  V30 1811 C 175.379 1.18822 -1.95995 0
M  V30 1812 C 176.379 1.3685 -0.84431 0
M  V30 1813 O 177.569 1.34152 -1.11126 0
M  V30 1814 C 174.701 2.5521 -2.26011 0
M  V30 1815 H 175.894 0.851825 -2.87548 0
M  V30 1816 H 173.447 0.407857 -1.50885 0
M  V30 1817 H 174.182 2.93852 -1.37191 0
M  V30 1818 H 173.967 2.43489 -3.07336 0
M  V30 1819 H 175.457 3.28927 -2.57288 0
M  V30 1820 N 175.894 1.51508 0.433938 0
M  V30 1821 C 177.31 1.39759 0.770682 0
M  V30 1822 C 177.51 0.482594 1.95636 0
M  V30 1823 O 176.566 -0.0609691 2.52426 0
M  V30 1824 C 177.879 2.81851 1.04787 0
M  V30 1825 C 179.427 2.91025 1.1521 0
M  V30 1826 C 179.902 4.34032 1.46219 0
M  V30 1827 N 181.393 4.37154 1.53136 0
M  V30 1828 C 182.128 5.4484 1.78709 0
M  V30 1829 N 181.624 6.62682 2.02051 0
M  V30 1830 N 183.417 5.32324 1.80519 0
M  V30 1831 H 175.568 2.09548 -0.346892 0
M  V30 1832 H 177.831 0.943446 -0.0928074 0
M  V30 1833 H 177.537 3.50815 0.249304 0
M  V30 1834 H 177.411 3.21386 1.97461 0
M  V30 1835 H 179.798 2.22257 1.94128 0
M  V30 1836 H 179.879 2.54983 0.204281 0
M  V30 1837 H 179.523 5.03351 0.678274 0
M  V30 1838 H 179.453 4.6759 2.42212 0
M  V30 1839 H 181.944 3.52197 1.36987 0
M  V30 1840 H 182.257 7.40543 2.20943 0
M  V30 1841 H 180.602 6.65791 1.99366 0
M  V30 1842 H 183.793 4.39246 1.61805 0
M  V30 1843 H 183.966 6.16328 2.00111 0
M  V30 1844 N 177.372 -0.689602 1.41712 0
M  V30 1845 C 178.304 -1.815 1.39966 0
M  V30 1846 C 179.317 -1.59995 0.300917 0
M  V30 1847 O 180.506 -1.69387 0.563039 0
M  V30 1848 C 177.606 -3.18364 1.16179 0
M  V30 1849 C 176.779 -3.66847 2.38206 0
M  V30 1850 C 175.838 -4.82398 2.10186 0
M  V30 1851 O 174.864 -4.93706 2.83272 0
M  V30 1852 N 176.066 -5.70064 1.0958 0
M  V30 1853 H 178.831 -1.83488 2.36965 0
M  V30 1854 H 176.392 -0.872149 1.36401 0
M  V30 1855 H 178.384 -3.93301 0.953756 0
M  V30 1856 H 176.954 -3.11365 0.27756 0
M  V30 1857 H 176.174 -2.82751 2.74673 0
M  V30 1858 H 177.462 -3.95978 3.19498 0
M  V30 1859 H 176.86 -5.63565 0.491019 0
M  V30 1860 H 175.417 -6.44874 0.947656 0
M  V30 1861 N 178.85 -1.27639 -0.924453 0
M  V30 1862 C 179.78 -1.13166 -2.04244 0
M  V30 1863 C 180.761 -0.032256 -1.70069 0
M  V30 1864 O 181.946 -0.207328 -1.9309 0
M  V30 1865 C 179.076 -0.781496 -3.38393 0
M  V30 1866 C 178.03 -1.83449 -3.86692 0
M  V30 1867 C 177.356 -1.33822 -5.17683 0
M  V30 1868 C 178.656 -3.23917 -4.09726 0
M  V30 1869 H 180.35 -2.06689 -2.1661 0
M  V30 1870 H 177.896 -0.995136 -1.04082 0
M  V30 1871 H 179.849 -0.667057 -4.16087 0
M  V30 1872 H 178.573 0.189439 -3.2605 0
M  V30 1873 H 177.232 -1.93789 -3.11193 0
M  V30 1874 H 176.88 -0.35665 -5.01734 0
M  V30 1875 H 176.58 -2.04224 -5.50968 0
M  V30 1876 H 178.104 -1.23679 -5.97943 0
M  V30 1877 H 179.518 -3.16559 -4.77978 0
M  V30 1878 H 177.915 -3.92059 -4.54324 0
M  V30 1879 H 178.985 -3.68729 -3.14908 0
M  V30 1880 N 180.328 1.1314 -1.09713 0
M  V30 1881 C 181.577 1.83838 -0.829851 0
M  V30 1882 C 181.89 1.84599 0.646728 0
M  V30 1883 O 183.096 2.51218 1.02965 0
M  V30 1884 C 181.552 3.30069 -1.43466 0
M  V30 1885 C 181.16 3.37688 -2.94399 0
M  V30 1886 C 182.904 4.05788 -1.24645 0
M  V30 1887 C 180.811 4.78209 -3.47952 0
M  V30 1888 H 179.741 0.68877 -0.306777 0
M  V30 1889 H 182.392 1.27448 -1.3202 0
M  V30 1890 H 180.774 3.8628 -0.871996 0
M  V30 1891 H 181.948 2.91456 -3.56918 0
M  V30 1892 H 180.263 2.75436 -3.12289 0
M  V30 1893 H 182.86 5.09535 -1.62107 0
M  V30 1894 H 183.203 4.15878 -0.187357 0
M  V30 1895 H 183.736 3.55915 -1.77678 0
M  V30 1896 H 180.475 4.73311 -4.53495 0
M  V30 1897 H 179.995 5.24924 -2.90198 0
M  V30 1898 H 181.674 5.47133 -3.45332 0
M  V30 1899 N 181.806 0.884767 1.30421 0
M  V30 1900 C 183.083 0.423185 1.90967 0
M  V30 1901 C 183.463 -1.09605 1.80416 0
M  V30 1902 O 182.811 -1.93126 1.22125 0
M  V30 1903 C 183.021 0.921056 3.36627 0
M  V30 1904 C 184.369 0.955903 4.137 0
M  V30 1905 O 185.393 0.867706 3.4547 0
M  V30 1906 O 184.252 1.08614 5.35598 0
M  V30 1907 H 181.346 0.129369 0.816819 0
M  V30 1908 H 183.892 0.973653 1.3899 0
M  V30 1909 H 182.664 1.96489 3.3839 0
M  V30 1910 H 182.287 0.349741 3.96059 0
M  V30 1911 N 183.284 -1.43765 0.645699 0
M  V30 1912 C 184.217 -2.2798 -0.100072 0
M  V30 1913 C 185.195 -1.39391 -0.837194 0
M  V30 1914 O 186.379 -1.68833 -0.838306 0
M  V30 1915 C 183.506 -3.18643 -1.14823 0
M  V30 1916 C 182.552 -4.2344 -0.510009 0
M  V30 1917 S 183.385 -5.30761 0.710824 0
M  V30 1918 C 184.541 -6.24992 -0.33699 0
M  V30 1919 H 184.774 -2.90884 0.614322 0
M  V30 1920 H 182.307 -1.48166 0.434304 0
M  V30 1921 H 184.265 -3.71424 -1.74799 0
M  V30 1922 H 182.926 -2.54932 -1.8349 0
M  V30 1923 H 182.119 -4.86948 -1.29991 0
M  V30 1924 H 181.721 -3.73997 0.0154577 0
M  V30 1925 H 184.013 -6.66691 -1.20537 0
M  V30 1926 H 184.956 -7.07612 0.262879 0
M  V30 1927 H 185.364 -5.60517 -0.669425 0
M  V30 1928 N 184.763 -0.387143 -1.52771 0
M  V30 1929 C 185.713 0.465942 -2.23188 0
M  V30 1930 C 186.697 1.03138 -1.23496 0
M  V30 1931 O 187.889 0.957845 -1.48843 0
M  V30 1932 C 185.018 1.59384 -3.04059 0
M  V30 1933 C 184.104 1.04024 -4.11144 0
M  V30 1934 N 184.495 0.211416 -5.05358 0
M  V30 1935 C 182.793 1.31295 -4.26237 0
M  V30 1936 C 183.494 -0.0941698 -5.81624 0
M  V30 1937 N 182.47 0.509207 -5.4121 0
M  V30 1938 H 186.272 -0.173856 -2.93385 0
M  V30 1939 H 183.786 -0.19633 -1.61209 0
M  V30 1940 H 185.783 2.21738 -3.53041 0
M  V30 1941 H 184.443 2.23648 -2.35397 0
M  V30 1942 H 185.454 -0.151151 -5.17679 0
M  V30 1943 H 182.131 1.95679 -3.68803 0
M  V30 1944 H 183.521 -0.765572 -6.67524 0
M  V30 1945 N 186.241 1.57166 -0.116904 0
M  V30 1946 C 187.487 1.95412 0.542405 0
M  V30 1947 C 187.82 1.00019 1.66463 0
M  V30 1948 O 187.095 0.0370346 1.94465 0
M  V30 1949 C 187.378 3.43615 1.07708 0
M  V30 1950 C 187.231 4.49781 -0.0415868 0
M  V30 1951 C 188.55 3.93616 1.96861 0
M  V30 1952 H 185.669 0.710543 0.195696 0
M  V30 1953 H 188.311 1.89027 -0.192038 0
M  V30 1954 H 186.461 3.49187 1.70296 0
M  V30 1955 H 188.133 4.56308 -0.676793 0
M  V30 1956 H 186.376 4.28033 -0.705019 0
M  V30 1957 H 187.047 5.50733 0.373717 0
M  V30 1958 H 189.523 3.90335 1.44146 0
M  V30 1959 H 188.399 4.97838 2.3119 0
M  V30 1960 H 188.66 3.34188 2.89432 0
M  V30 1961 N 187.719 -0.156864 1.56817 0
M  V30 1962 C 189.135 -0.50916 1.5126 0
M  V30 1963 C 189.335 -1.83897 0.823658 0
M  V30 1964 O 188.391 -2.49469 0.390055 0
M  V30 1965 C 189.704 -0.52857 2.96018 0
M  V30 1966 C 191.252 -0.614771 3.06903 0
M  V30 1967 C 191.727 -0.664938 4.53147 0
M  V30 1968 N 193.218 -0.727433 4.57452 0
M  V30 1969 C 193.953 -0.787067 5.67973 0
M  V30 1970 N 193.449 -0.806649 6.88088 0
M  V30 1971 N 195.242 -0.827195 5.5598 0
M  V30 1972 H 187.393 0.714935 2.00006 0
M  V30 1973 H 189.656 0.259526 0.911784 0
M  V30 1974 H 189.362 0.380154 3.49639 0
M  V30 1975 H 189.236 -1.36998 3.51442 0
M  V30 1976 H 191.623 -1.51392 2.53307 0
M  V30 1977 H 191.704 0.253597 2.5454 0
M  V30 1978 H 191.348 0.230011 5.07379 0
M  V30 1979 H 191.278 -1.54966 5.03282 0
M  V30 1980 H 193.769 -0.719998 3.70978 0
M  V30 1981 H 194.082 -0.853727 7.6807 0
M  V30 1982 H 192.427 -0.774687 6.90669 0
M  V30 1983 H 195.618 -0.808998 4.61056 0
M  V30 1984 H 195.791 -0.870206 6.4213 0
M  V30 1985 N 189.197 -1.51736 -0.425897 0
M  V30 1986 C 190.613 -1.40166 -0.76326 0
M  V30 1987 C 190.813 -0.492962 -1.95377 0
M  V30 1988 O 189.869 0.0475815 -2.52455 0
M  V30 1989 C 191.182 -2.82403 -1.03291 0
M  V30 1990 C 192.73 -2.91632 -1.13665 0
M  V30 1991 C 193.205 -4.34801 -1.43916 0
M  V30 1992 N 194.696 -4.3796 -1.50816 0
M  V30 1993 C 195.431 -5.4578 -1.75817 0
M  V30 1994 N 194.927 -6.63744 -1.98534 0
M  V30 1995 N 196.72 -5.33274 -1.77694 0
M  V30 1996 H 188.871 -2.09361 0.358 0
M  V30 1997 H 191.134 -0.942941 0.0978094 0
M  V30 1998 H 190.84 -3.50943 -0.230696 0
M  V30 1999 H 190.714 -3.22428 -1.95754 0
M  V30 2000 H 193.101 -2.23284 -1.92947 0
M  V30 2001 H 193.182 -2.55088 -0.190756 0
M  V30 2002 H 192.826 -5.03703 -0.65157 0
M  V30 2003 H 192.756 -4.68868 -2.39729 0
M  V30 2004 H 195.247 -3.52919 -1.35118 0
M  V30 2005 H 195.56 -7.41704 -2.17013 0
M  V30 2006 H 193.905 -6.66839 -1.95832 0
M  V30 2007 H 197.096 -4.40098 -1.59473 0
M  V30 2008 H 197.269 -6.1738 -1.9684 0
M  V30 2009 N 190.675 0.682077 -1.42076 0
M  V30 2010 C 191.923 1.4393 -1.41876 0
M  V30 2011 C 192.244 1.94971 -0.0335599 0
M  V30 2012 O 191.514 1.72591 0.926773 0
M  V30 2013 H 190.094 0.534085 -0.522267 0
M  V30 2014 H 192.756 0.806427 -1.77434 0
M  V30 2015 H 191.852 2.29588 -2.11414 0
M  V30 2016 N 192.153 1.28127 0.917671 0
M  V30 2017 C 193.43 1.05761 1.64542 0
M  V30 2018 C 193.81 -0.404344 2.07191 0
M  V30 2019 O 193.158 -1.38963 1.81388 0
M  V30 2020 C 193.368 2.02857 2.83989 0
M  V30 2021 C 194.716 2.32786 3.551 0
M  V30 2022 O 195.74 2.0091 2.94132 0
M  V30 2023 O 194.599 2.87169 4.64969 0
M  V30 2024 H 191.693 0.403916 0.721652 0
M  V30 2025 H 194.239 1.39431 0.967322 0
M  V30 2026 H 193.011 3.01407 2.49538 0
M  V30 2027 H 192.634 1.69809 3.59514 0
M  V30 2028 N 193.631 -1.12557 1.10312 0
M  V30 2029 C 194.594 -2.16434 0.75424 0
M  V30 2030 C 195.594 -1.59278 -0.220685 0
M  V30 2031 O 196.784 -1.742 0.00230591 0
M  V30 2032 C 193.916 -3.40699 0.116987 0
M  V30 2033 H 195.109 -2.48811 1.67431 0
M  V30 2034 H 192.662 -1.27542 0.903475 0
M  V30 2035 H 193.397 -3.13921 -0.813877 0
M  V30 2036 H 193.182 -3.83459 0.818613 0
M  V30 2037 H 194.672 -4.17451 -0.111387 0
M  V30 2038 N 195.109 -0.891671 -1.2995 0
M  V30 2039 C 196.358 -0.509521 -1.95158 0
M  V30 2040 C 196.671 0.947388 -1.71125 0
M  V30 2041 O 197.877 1.43669 -2.30372 0
M  V30 2042 C 196.333 -0.860315 -3.49466 0
M  V30 2043 C 195.941 -2.33545 -3.8231 0
M  V30 2044 C 197.685 -0.547687 -4.20952 0
M  V30 2045 C 195.592 -2.62752 -5.29826 0
M  V30 2046 H 194.522 -0.18682 -0.730489 0
M  V30 2047 H 197.173 -1.08756 -1.47798 0
M  V30 2048 H 195.555 -0.211285 -3.95436 0
M  V30 2049 H 196.729 -3.02936 -3.47227 0
M  V30 2050 H 195.044 -2.61629 -3.23944 0
M  V30 2051 H 197.641 -0.742854 -5.29515 0
M  V30 2052 H 197.984 0.51332 -4.13123 0
M  V30 2053 H 198.517 -1.1542 -3.80688 0
M  V30 2054 H 195.256 -3.6762 -5.42712 0
M  V30 2055 H 194.776 -1.97977 -5.66185 0
M  V30 2056 H 196.455 -2.48601 -5.97333 0
M  V30 2057 N 196.587 1.43421 -0.653314 0
M  V30 2058 C 197.834 2.01812 -0.166745 0
M  V30 2059 C 198.162 1.51535 1.21931 0
M  V30 2060 O 197.417 0.698975 1.82792 0
M  V30 2061 C 197.716 3.57176 -0.126623 0
M  V30 2062 C 197.382 4.26798 -1.45444 0
M  V30 2063 C 196.044 4.45534 -1.81805 0
M  V30 2064 C 198.396 4.66225 -2.32989 0
M  V30 2065 C 195.724 5.00961 -3.05377 0
M  V30 2066 C 198.076 5.23021 -3.55853 0
M  V30 2067 C 196.74 5.39973 -3.9241 0
M  V30 2068 H 196.01 0.738484 -0.0610162 0
M  V30 2069 H 198.657 1.71896 -0.84404 0
M  V30 2070 H 196.962 3.86634 0.634123 0
M  V30 2071 H 198.659 4.00112 0.266723 0
M  V30 2072 H 195.249 4.12561 -1.16153 0
M  V30 2073 H 199.433 4.51443 -2.06187 0
M  V30 2074 H 194.689 5.12271 -3.3375 0
M  V30 2075 H 198.863 5.52518 -4.23907 0
M  V30 2076 H 196.49 5.82687 -4.88242 0
M  V30 2077 N 198.065 0.39524 1.52563 0
M  V30 2078 C 199.312 -0.185044 2.01653 0
M  V30 2079 C 199.64 -1.46317 1.28146 0
M  V30 2080 O 198.895 -1.9213 0.372074 0
M  V30 2081 C 199.194 -0.493444 3.53977 0
M  V30 2082 C 198.86 0.69384 4.4553 0
M  V30 2083 C 197.522 1.01954 4.70275 0
M  V30 2084 C 199.874 1.48785 4.99512 0
M  V30 2085 C 197.202 2.14069 5.46252 0
M  V30 2086 C 199.554 2.59965 5.76716 0
M  V30 2087 C 198.218 2.93037 5.99738 0
M  V30 2088 H 197.488 -0.0677123 0.7379 0
M  V30 2089 H 200.135 0.533807 1.8391 0
M  V30 2090 H 198.44 -1.29369 3.69825 0
M  V30 2091 H 200.137 -0.955163 3.89458 0
M  V30 2092 H 196.727 0.429987 4.26438 0
M  V30 2093 H 200.911 1.24946 4.80315 0
M  V30 2094 H 196.167 2.40056 5.62302 0
M  V30 2095 H 200.341 3.21887 6.17545 0
M  V30 2096 H 197.968 3.8003 6.58393 0
M  V30 2097 N 199.544 -1.57102 0.125237 0
M  V30 2098 C 200.79 -1.95697 -0.532035 0
M  V30 2099 C 201.123 -1.009 -1.6593 0
M  V30 2100 O 200.398 -0.047347 -1.94442 0
M  V30 2101 C 200.681 -3.44181 -1.05884 0
M  V30 2102 C 200.534 -4.49752 0.0654392 0
M  V30 2103 C 201.853 -3.94655 -1.9477 0
M  V30 2104 H 198.972 -0.711571 -0.191925 0
M  V30 2105 H 201.614 -1.88923 0.20206 0
M  V30 2106 H 199.764 -3.50085 -1.68442 0
M  V30 2107 H 201.436 -4.55943 0.700982 0
M  V30 2108 H 199.679 -4.27653 0.727709 0
M  V30 2109 H 200.35 -5.50924 -0.344505 0
M  V30 2110 H 202.826 -3.91094 -1.42074 0
M  V30 2111 H 201.702 -4.99057 -2.28546 0
M  V30 2112 H 201.963 -3.35718 -2.87656 0
M  V30 2113 N 201.022 0.148545 -1.56898 0
M  V30 2114 C 202.25 0.876389 -1.87422 0
M  V30 2115 C 202.665 1.74809 -0.713256 0
M  V30 2116 O 202.022 1.79725 0.317025 0
M  V30 2117 C 202.073 1.73438 -3.17178 0
M  V30 2118 O 201.794 0.897809 -4.28802 0
M  V30 2119 C 203.295 2.56993 -3.61205 0
M  V30 2120 H 200.515 0.253489 -0.621277 0
M  V30 2121 H 203.059 0.141798 -2.04008 0
M  V30 2122 H 201.214 2.42205 -3.0235 0
M  V30 2123 H 201.628 1.48672 -5.02988 0
M  V30 2124 H 203.102 3.12773 -4.54838 0
M  V30 2125 H 203.579 3.32958 -2.86419 0
M  V30 2126 H 204.185 1.9352 -3.78722 0
M  V30 2127 N 202.5 1.5196 0.417844 0
M  V30 2128 C 203.748 1.65263 1.16329 0
M  V30 2129 C 204.069 0.380634 1.91249 0
M  V30 2130 O 203.339 -0.604214 1.86349 0
M  V30 2131 H 201.919 0.60912 0.432414 0
M  V30 2132 H 204.581 1.88969 0.477162 0
M  V30 2133 H 203.677 2.4896 1.88217 0
M  V30 2134 N 203.978 -0.674533 1.42435 0
M  V30 2135 C 205.394 -0.98769 1.25367 0
M  V30 2136 C 205.594 -2.00879 0.158044 0
M  V30 2137 O 204.65 -2.48075 -0.470633 0
M  V30 2138 C 205.963 -1.49224 2.6106 0
M  V30 2139 C 207.511 -1.61 2.68417 0
M  V30 2140 C 207.986 -2.14852 4.04478 0
M  V30 2141 N 209.477 -2.22185 4.06434 0
M  V30 2142 C 210.212 -2.64928 5.08528 0
M  V30 2143 N 209.708 -3.07121 6.21006 0
M  V30 2144 N 211.501 -2.64679 4.95885 0
M  V30 2145 H 203.652 0.00152503 2.124 0
M  V30 2146 H 205.915 -0.0618434 0.945981 0
M  V30 2147 H 205.621 -0.816453 3.42092 0
M  V30 2148 H 205.495 -2.47094 2.84999 0
M  V30 2149 H 207.882 -2.27686 1.87732 0
M  V30 2150 H 207.963 -0.616195 2.48267 0
M  V30 2151 H 207.607 -1.48775 4.85622 0
M  V30 2152 H 207.537 -3.15024 4.2198 0
M  V30 2153 H 210.028 -1.92435 3.25234 0
M  V30 2154 H 210.341 -3.38423 6.94759 0
M  V30 2155 H 208.686 -3.04978 6.24511 0
M  V30 2156 H 211.877 -2.31078 4.07088 0
M  V30 2157 H 212.05 -2.9767 5.75584 0
M  V30 2158 N 205.456 -1.28612 -0.910864 0
M  V30 2159 C 206.681 -1.1891 -1.69927 0
M  V30 2160 C 207.106 0.248372 -1.86453 0
M  V30 2161 O 206.464 1.17961 -1.37676 0
M  V30 2162 C 206.512 -1.89578 -3.06745 0
M  V30 2163 O 205.616 -1.20521 -3.94396 0
M  V30 2164 H 204.957 -0.412632 -0.520222 0
M  V30 2165 H 207.487 -1.69985 -1.1387 0
M  V30 2166 H 207.497 -1.97597 -3.56958 0
M  V30 2167 H 206.172 -2.94136 -2.94035 0
M  V30 2168 H 204.749 -1.20684 -3.52831 0
M  V30 2169 N 206.934 1.1197 -1.10907 0
M  V30 2170 C 208.345 1.65114 -0.871446 0
M  V30 2171 C 208.696 1.86885 0.597353 0
M  V30 2172 O 207.821 1.59896 1.45816 0
M  V30 2173 C 208.416 2.99944 -1.5754 0
M  V30 2174 C 206.975 3.50018 -1.38435 0
M  V30 2175 C 206.122 2.24941 -1.62164 0
M  V30 2176 H 209.073 0.956851 -1.2661 0
M  V30 2177 H 209.094 3.66651 -1.01721 0
M  V30 2178 H 208.606 2.84067 -2.64438 0
M  V30 2179 H 206.707 3.71071 -0.337214 0
M  V30 2180 H 206.82 4.29165 -2.12965 0
M  V30 2181 H 205.184 2.3229 -1.04467 0
M  V30 2182 H 205.967 2.11612 -2.70324 0
M  V30 2183 N 208.412 0.89855 1.29475 0
M  V30 2184 C 209.64 0.539261 1.99749 0
M  V30 2185 C 210.055 -0.875716 1.67262 0
M  V30 2186 O 209.412 -1.57786 0.917049 0
M  V30 2187 C 209.463 0.72061 3.54245 0
M  V30 2188 O 209.184 2.07989 3.8558 0
M  V30 2189 C 210.685 0.366118 4.41786 0
M  V30 2190 H 207.905 0.207047 0.638258 0
M  V30 2191 H 210.449 1.20758 1.65039 0
M  V30 2192 H 208.604 0.0994862 3.87272 0
M  V30 2193 H 209.018 2.10841 4.80257 0
M  V30 2194 H 210.492 0.543848 5.49314 0
M  V30 2195 H 210.969 -0.696763 4.33638 0
M  V30 2196 H 211.575 0.964135 4.14228 0
M  V30 2197 N 209.89 -1.43072 0.660911 0
M  V30 2198 C 210.837 -2.30785 -0.0259884 0
M  V30 2199 C 211.807 -1.45184 -0.806888 0
M  V30 2200 O 212.992 -1.74041 -0.781943 0
M  V30 2201 C 210.132 -3.30861 -0.981067 0
M  V30 2202 C 209.245 -4.31558 -0.195458 0
M  V30 2203 C 208.38 -5.18712 -1.14503 0
M  V30 2204 C 207.419 -6.11097 -0.350299 0
M  V30 2205 N 206.556 -6.90849 -1.25186 0
M  V30 2206 H 211.396 -2.88975 0.727846 0
M  V30 2207 H 208.933 -1.42353 0.370682 0
M  V30 2208 H 210.891 -3.87399 -1.54849 0
M  V30 2209 H 209.521 -2.74304 -1.70169 0
M  V30 2210 H 208.573 -3.77252 0.488374 0
M  V30 2211 H 209.885 -4.9701 0.422176 0
M  V30 2212 H 209.039 -5.79914 -1.78284 0
M  V30 2213 H 207.778 -4.53404 -1.79656 0
M  V30 2214 H 206.783 -5.48976 0.300808 0
M  V30 2215 H 208.008 -6.7845 0.296941 0
M  V30 2216 H 205.954 -6.28182 -1.89005 0
M  V30 2217 H 205.871 -7.52854 -0.688971 0
M  V30 2218 H 207.139 -7.5655 -1.87757 0
M  V30 2219 N 211.368 -0.403325 -1.52352 0
M  V30 2220 C 212.596 0.174012 -2.06167 0
M  V30 2221 C 213.011 1.39347 -1.27388 0
M  V30 2222 O 212.368 1.79597 -0.324201 0
M  V30 2223 C 212.419 0.530223 -3.5759 0
M  V30 2224 O 212.14 -0.640806 -4.33388 0
M  V30 2225 C 213.641 1.16192 -4.27802 0
M  V30 2226 H 210.861 0.0229464 -0.670608 0
M  V30 2227 H 213.405 -0.572604 -1.9632 0
M  V30 2228 H 211.56 1.22673 -3.67464 0
M  V30 2229 H 211.974 -0.344851 -5.23365 0
M  V30 2230 H 213.448 1.36141 -5.34948 0
M  V30 2231 H 213.925 2.13335 -3.83907 0
M  V30 2232 H 214.531 0.505775 -4.22282 0
M  V30 2233 N 212.846 1.57033 -0.133567 0
M  V30 2234 C 213.756 2.19632 0.824564 0
M  V30 2235 C 214.772 1.17666 1.28182 0
M  V30 2236 O 215.948 1.50193 1.3418 0
M  V30 2237 C 213.013 2.79499 2.05137 0
M  V30 2238 C 212.074 3.96548 1.64464 0
M  V30 2239 C 211.307 4.5355 2.81297 0
M  V30 2240 O 211.53 4.09438 3.97136 0
M  V30 2241 O 210.464 5.44018 2.57542 0
M  V30 2242 H 214.29 3.01991 0.321766 0
M  V30 2243 H 211.875 1.49112 0.0927889 0
M  V30 2244 H 213.757 3.17602 2.7696 0
M  V30 2245 H 212.432 2.00162 2.54395 0
M  V30 2246 H 211.339 3.63186 0.897048 0
M  V30 2247 H 212.672 4.77364 1.19934 0
M  V30 2248 N 214.325 -0.140222 1.56975 0
M  V30 2249 C 215.553 -0.866437 1.87884 0
M  V30 2250 C 215.968 -1.74428 0.722517 0
M  V30 2251 O 215.325 -1.79891 -0.30749 0
M  V30 2252 C 215.376 -1.71753 3.18093 0
M  V30 2253 O 215.097 -0.875056 4.29272 0
M  V30 2254 C 216.598 -2.55074 3.62563 0
M  V30 2255 H 213.818 -0.25019 0.622612 0
M  V30 2256 H 216.362 -0.130977 2.0408 0
M  V30 2257 H 214.517 -2.40598 3.03631 0
M  V30 2258 H 214.931 -1.46002 5.03769 0
M  V30 2259 H 216.405 -3.10356 4.5649 0
M  V30 2260 H 216.882 -3.31434 2.88181 0
M  V30 2261 H 217.488 -1.91509 3.79743 0
M  V30 2262 N 215.803 -1.52179 -0.40978 0
M  V30 2263 C 217.049 -1.66453 -1.15851 0
M  V30 2264 C 217.382 -0.392972 -1.90182 0
M  V30 2265 O 216.657 0.608579 -1.84734 0
M  V30 2266 C 216.94 -2.88612 -2.15349 0
M  V30 2267 C 216.793 -4.25815 -1.44918 0
M  V30 2268 C 218.112 -3.06294 -3.16026 0
M  V30 2269 H 215.231 -0.60575 -0.419805 0
M  V30 2270 H 217.873 -1.84732 -0.444314 0
M  V30 2271 H 216.023 -2.73158 -2.76255 0
M  V30 2272 H 217.695 -4.52995 -0.871365 0
M  V30 2273 H 215.938 -4.27247 -0.751159 0
M  V30 2274 H 216.609 -5.07337 -2.17516 0
M  V30 2275 H 219.085 -3.20641 -2.65195 0
M  V30 2276 H 217.961 -3.93283 -3.8291 0
M  V30 2277 H 218.222 -2.19579 -3.83715 0
M  V30 2278 N 217.281 0.66697 -1.42791 0
M  V30 2279 C 218.506 1.46004 -1.47301 0
M  V30 2280 C 218.931 1.87894 -0.0880317 0
M  V30 2281 O 218.289 1.56502 0.915253 0
M  V30 2282 C 218.337 2.68031 -2.41229 0
M  V30 2283 O 217.441 3.6659 -1.88906 0
M  V30 2284 H 216.782 0.43832 -0.49877 0
M  V30 2285 H 219.312 0.817391 -1.87563 0
M  V30 2286 H 219.322 3.1601 -2.58073 0
M  V30 2287 H 217.997 2.36883 -3.41847 0
M  V30 2288 H 216.574 3.25661 -1.81656 0
M  V30 2289 N 218.759 1.29093 0.90403 0
M  V30 2290 C 219.706 1.13853 2.00764 0
M  V30 2291 C 220.676 0.0330084 1.66067 0
M  V30 2292 O 221.861 0.199733 1.89752 0
M  V30 2293 C 219.001 0.816537 3.35301 0
M  V30 2294 C 218.114 2.00206 3.82807 0
M  V30 2295 C 217.249 1.61983 5.059 0
M  V30 2296 C 216.288 2.77143 5.45764 0
M  V30 2297 N 215.425 2.39346 6.60044 0
M  V30 2298 H 220.265 2.08276 2.13132 0
M  V30 2299 H 217.802 1.03648 1.04381 0
M  V30 2300 H 219.76 0.610557 4.12708 0
M  V30 2301 H 218.39 -0.090779 3.22672 0
M  V30 2302 H 217.442 2.31988 3.01473 0
M  V30 2303 H 218.754 2.86512 4.08304 0
M  V30 2304 H 217.908 1.37649 5.90879 0
M  V30 2305 H 216.647 0.728202 4.82233 0
M  V30 2306 H 215.652 3.02165 4.59322 0
M  V30 2307 H 216.877 3.66964 5.71414 0
M  V30 2308 H 214.823 1.52665 6.37989 0
M  V30 2309 H 214.74 3.19185 6.85315 0
M  V30 2310 H 216.008 2.1832 7.48303 0
M  V30 2311 N 220.237 -1.11381 1.11499 0
M  V30 2312 C 221.465 -1.86934 0.88675 0
M  V30 2313 C 221.88 -1.80195 -0.563476 0
M  V30 2314 O 221.237 -1.18367 -1.38908 0
M  V30 2315 C 221.288 -3.35722 1.34064 0
M  V30 2316 O 221.009 -3.4232 2.73401 0
M  V30 2317 C 222.51 -4.2818 1.14791 0
M  V30 2318 H 219.73 -0.591117 0.317523 0
M  V30 2319 H 222.274 -1.40865 1.48248 0
M  V30 2320 H 220.429 -3.79294 0.788355 0
M  V30 2321 H 220.843 -4.34971 2.93087 0
M  V30 2322 H 222.317 -5.30817 1.5145 0
M  V30 2323 H 222.794 -4.39113 0.0875279 0
M  V30 2324 H 223.4 -3.90402 1.68721 0
M  V30 2325 N 221.715 -0.905404 -1.28997 0
M  V30 2326 C 222.645 -0.404212 -2.29975 0
M  V30 2327 C 223.626 0.523784 -1.61835 0
M  V30 2328 O 224.811 0.433298 -1.89304 0
M  V30 2329 C 221.941 0.364042 -3.45387 0
M  V30 2330 C 220.895 -0.474048 -4.25367 0
M  V30 2331 C 220.221 0.422045 -5.33032 0
M  V30 2332 C 221.521 -1.72696 -4.92923 0
M  V30 2333 H 223.215 -1.24807 -2.72146 0
M  V30 2334 H 220.761 -0.601585 -1.30832 0
M  V30 2335 H 222.714 0.725447 -4.15109 0
M  V30 2336 H 221.438 1.24174 -3.02074 0
M  V30 2337 H 220.097 -0.81786 -3.57361 0
M  V30 2338 H 219.745 1.29804 -4.85963 0
M  V30 2339 H 219.445 -0.135057 -5.87445 0
M  V30 2340 H 220.969 0.779517 -6.05604 0
M  V30 2341 H 222.383 -1.43495 -5.55051 0
M  V30 2342 H 220.78 -2.22582 -5.57295 0
M  V30 2343 H 221.85 -2.45964 -4.17887 0
M  V30 2344 N 223.193 1.4272 -0.668489 0
M  V30 2345 C 224.156 2.292 0.00448567 0
M  V30 2346 C 225.156 1.43001 0.735339 0
M  V30 2347 O 226.346 1.64461 0.57429 0
M  V30 2348 C 223.478 3.25375 1.01705 0
M  V30 2349 H 224.671 2.90199 -0.756608 0
M  V30 2350 H 222.224 1.50254 -0.430506 0
M  V30 2351 H 222.959 2.69301 1.80686 0
M  V30 2352 H 222.744 3.88944 0.496463 0
M  V30 2353 H 224.234 3.90245 1.48655 0
M  V30 2354 N 224.671 0.411399 1.52136 0
M  V30 2355 C 225.948 -0.222308 1.94333 0
M  V30 2356 C 226.328 -1.6242 1.34844 0
M  V30 2357 O 225.676 -2.22384 0.525145 0
M  V30 2358 C 225.886 -0.226345 3.48265 0
M  V30 2359 C 227.234 -0.444592 4.22266 0
M  V30 2360 O 228.258 -0.305602 3.54887 0
M  V30 2361 O 227.117 -0.718749 5.41753 0
M  V30 2362 H 224.211 -0.143907 0.814383 0
M  V30 2363 H 226.757 0.467506 1.63133 0
M  V30 2364 H 225.529 0.75475 3.83952 0
M  V30 2365 H 225.152 -0.960163 3.85832 0
M  V30 2366 N 226.149 -1.5696 0.141893 0
M  V30 2367 C 227.097 -2.17784 -0.816874 0
M  V30 2368 C 228.091 -1.1334 -1.25899 0
M  V30 2369 O 229.297 -1.316 -1.22806 0
M  V30 2370 H 225.672 -0.697278 -0.281615 0
M  V30 2371 H 227.643 -2.97087 -0.279621 0
M  V30 2372 C 226.392 -2.80983 -2.04802 0
M  V30 2373 H 225.715 -3.61062 -1.7168 0
M  V30 2374 H 227.155 -3.2705 -2.69841 0
M  V30 2375 C 225.614 -1.79228 -2.8527 0
M  V30 2376 O 226.144 -1.25962 -3.8144 0
M  V30 2377 N 224.35 -1.48647 -2.49704 0
M  V30 2378 H 223.897 -1.92155 -1.71564 0
M  V30 2379 H 223.855 -0.808115 -3.03837 0
M  V30 2380 N 227.627 0.131896 -1.57047 0
M  V30 2381 C 228.874 0.841932 -1.84168 0
M  V30 2382 C 229.202 1.8048 -0.725066 0
M  V30 2383 O 228.457 1.93618 0.284692 0
M  V30 2384 C 228.756 1.63703 -3.17704 0
M  V30 2385 C 228.422 0.81961 -4.43388 0
M  V30 2386 C 227.084 0.594148 -4.77518 0
M  V30 2387 C 229.436 0.248977 -5.20605 0
M  V30 2388 C 226.764 -0.212409 -5.86315 0
M  V30 2389 C 229.116 -0.544701 -6.30251 0
M  V30 2390 C 227.78 -0.780599 -6.6292 0
M  V30 2391 H 227.05 0.308085 -0.673917 0
M  V30 2392 H 229.697 0.104867 -1.91213 0
M  V30 2393 H 228.002 2.44464 -3.06177 0
M  V30 2394 H 229.699 2.19015 -3.35907 0
M  V30 2395 H 226.289 1.00542 -4.16641 0
M  V30 2396 H 230.473 0.410408 -4.946 0
M  V30 2397 H 225.729 -0.404524 -6.1006 0
M  V30 2398 H 229.903 -0.993922 -6.89271 0
M  V30 2399 H 227.53 -1.40742 -7.47058 0
M  V30 2400 N 229.106 1.52395 0.401703 0
M  V30 2401 C 230.056 1.72649 1.48917 0
M  V30 2402 C 231.04 0.580436 1.50066 0
M  V30 2403 O 232.232 0.83779 1.55917 0
M  V30 2404 C 229.361 1.88729 2.86769 0
M  V30 2405 C 228.447 3.09228 2.90239 0
M  V30 2406 N 228.838 4.31805 2.63396 0
M  V30 2407 C 227.136 3.09214 3.21408 0
M  V30 2408 C 227.837 5.13326 2.73625 0
M  V30 2409 N 226.813 4.48735 3.06819 0
M  V30 2410 H 230.615 2.65058 1.26971 0
M  V30 2411 H 228.129 1.50528 0.609504 0
M  V30 2412 H 230.126 2.01358 3.65049 0
M  V30 2413 H 228.786 0.975252 3.09708 0
M  V30 2414 H 229.797 4.60154 2.37653 0
M  V30 2415 H 226.474 2.27774 3.49893 0
M  V30 2416 H 227.864 6.21003 2.56524 0
M  V30 2417 N 230.584 -0.659388 1.43143 0
M  V30 2418 C 231.833 -1.41518 1.43721 0
M  V30 2419 C 232.146 -1.95499 0.0628176 0
M  V30 2420 O 233.352 -2.71446 -0.0539683 0
M  V30 2421 C 231.808 -2.5608 2.52885 0
M  V30 2422 C 231.416 -2.08733 3.96402 0
M  V30 2423 C 233.16 -3.3349 2.62649 0
M  V30 2424 C 231.067 -3.20469 4.97045 0
M  V30 2425 H 229.997 -0.531705 0.534608 0
M  V30 2426 H 232.648 -0.712343 1.69109 0
M  V30 2427 H 231.03 -3.28805 2.20688 0
M  V30 2428 H 232.204 -1.43059 4.3803 0
M  V30 2429 H 230.519 -1.44219 3.90627 0
M  V30 2430 H 233.116 -4.16734 3.35017 0
M  V30 2431 H 233.459 -3.8111 1.67513 0
M  V30 2432 H 233.992 -2.67842 2.94118 0
M  V30 2433 H 230.731 -2.77824 5.93712 0
M  V30 2434 H 230.251 -3.84874 4.60034 0
M  V30 2435 H 231.93 -3.85698 5.19467 0
M  V30 2436 N 232.062 -1.29571 -0.897171 0
M  V30 2437 C 233.473 -1.15964 -1.46319 0
M  V30 2438 C 233.824 0.244267 -1.94674 0
M  V30 2439 O 232.949 1.13998 -1.83939 0
M  V30 2440 C 233.544 -2.09906 -2.65942 0
M  V30 2441 C 232.103 -2.00314 -3.18671 0
M  V30 2442 C 231.25 -2.00687 -1.91363 0
M  V30 2443 H 234.201 -1.42019 -0.708268 0
M  V30 2444 H 234.222 -1.67276 -3.41759 0
M  V30 2445 H 233.734 -3.12075 -2.30718 0
M  V30 2446 H 231.835 -1.01242 -3.58582 0
M  V30 2447 H 231.948 -2.88102 -3.82798 0
M  V30 2448 H 230.312 -1.45319 -2.09175 0
M  V30 2449 H 231.095 -3.04566 -1.58413 0
M  V30 2450 N 233.54 1.10788 -1.12088 0
M  V30 2451 C 234.503 2.15207 -0.788577 0
M  V30 2452 C 235.503 1.59609 0.195317 0
M  V30 2453 O 236.693 1.74174 -0.0300193 0
M  V30 2454 C 233.825 3.4047 -0.171174 0
M  V30 2455 H 235.018 2.46116 -1.71368 0
M  V30 2456 H 232.571 1.26089 -0.923652 0
M  V30 2457 H 233.306 3.15176 0.763832 0
M  V30 2458 H 233.091 3.82109 -0.879514 0
M  V30 2459 H 234.581 4.17576 0.04496 0
M  V30 2460 N 235.018 0.912232 1.28515 0
M  V30 2461 C 236.246 0.560416 1.99166 0
M  V30 2462 C 236.661 -0.857927 1.68182 0
M  V30 2463 O 236.018 -1.56805 0.933733 0
M  V30 2464 C 236.069 0.758142 3.53461 0
M  V30 2465 O 235.79 2.12067 3.83352 0
M  V30 2466 C 237.291 0.412954 4.41372 0
M  V30 2467 H 234.511 0.213805 0.636026 0
M  V30 2468 H 237.055 1.22502 1.63749 0
M  V30 2469 H 235.21 0.140556 3.87145 0
M  V30 2470 H 235.624 2.15923 4.77993 0
M  V30 2471 H 237.098 0.60208 5.48707 0
M  V30 2472 H 237.575 -0.65073 4.34353 0
M  V30 2473 H 238.181 1.00802 4.13182 0
M  V30 2474 N 236.496 -1.42363 0.676048 0
M  V30 2475 C 237.444 -2.32596 -0.0131507 0
M  V30 2476 C 238.438 -1.49891 -0.789238 0
M  V30 2477 O 239.644 -1.65955 -0.697061 0
M  V30 2478 H 236.019 -0.751647 -0.0230481 0
M  V30 2479 H 237.99 -2.88421 0.765243 0
M  V30 2480 C 236.739 -3.34479 -0.949702 0
M  V30 2481 H 236.062 -3.98158 -0.361938 0
M  V30 2482 H 237.502 -4.00199 -1.4006 0
M  V30 2483 C 235.961 -2.66838 -2.05667 0
M  V30 2484 O 236.491 -2.50124 -3.14326 0
M  V30 2485 N 234.697 -2.25843 -1.82875 0
M  V30 2486 H 234.244 -2.39637 -0.945085 0
M  V30 2487 H 234.202 -1.80918 -2.5713 0
M  V30 2488 N 237.974 -0.419461 -1.51915 0
M  V30 2489 C 238.907 0.445751 -2.23804 0
M  V30 2490 C 239.885 1.03951 -1.25031 0
M  V30 2491 O 241.069 1.08541 -1.54114 0
M  V30 2492 C 238.196 1.61964 -2.97465 0
M  V30 2493 C 237.242 1.14828 -4.10751 0
M  V30 2494 S 238.075 0.104938 -5.35397 0
M  V30 2495 C 239.231 1.28391 -6.1259 0
M  V30 2496 H 239.464 -0.164627 -2.96844 0
M  V30 2497 H 236.997 -0.203833 -1.53049 0
M  V30 2498 H 238.955 2.29271 -3.40507 0
M  V30 2499 H 237.616 2.20139 -2.24048 0
M  V30 2500 H 236.809 2.02561 -4.61503 0
M  V30 2501 H 236.411 0.553712 -3.69878 0
M  V30 2502 H 238.703 2.20563 -6.40592 0
M  V30 2503 H 239.646 0.816724 -7.03374 0
M  V30 2504 H 240.054 1.51439 -5.43807 0
M  V30 2505 N 239.452 1.56882 -0.150215 0
M  V30 2506 C 240.4 2.18214 0.805313 0
M  V30 2507 C 241.394 1.14006 1.25296 0
M  V30 2508 O 242.6 1.3225 1.22107 0
M  V30 2509 H 238.975 0.698762 0.277913 0
M  V30 2510 H 240.946 2.97231 0.263862 0
M  V30 2511 C 239.695 2.82065 2.03309 0
M  V30 2512 H 239.018 3.61968 1.69763 0
M  V30 2513 H 240.458 3.28477 2.68103 0
M  V30 2514 C 238.917 1.80739 2.84315 0
M  V30 2515 O 239.447 1.27983 3.80767 0
M  V30 2516 N 237.653 1.4997 2.48913 0
M  V30 2517 H 237.2 1.93062 1.70542 0
M  V30 2518 H 237.158 0.824217 3.03404 0
M  V30 2519 N 240.93 -0.123565 1.57115 0
M  V30 2520 C 242.341 -0.681198 1.73829 0
M  V30 2521 C 242.692 -1.80535 0.768214 0
M  V30 2522 O 241.817 -2.16317 -0.0599103 0
M  V30 2523 C 242.412 -1.24246 3.15196 0
M  V30 2524 C 240.971 -1.74643 3.33432 0
M  V30 2525 C 240.118 -0.644284 2.69711 0
M  V30 2526 H 243.069 0.102315 1.5837 0
M  V30 2527 H 243.09 -2.11216 3.16493 0
M  V30 2528 H 242.602 -0.424062 3.85776 0
M  V30 2529 H 240.703 -2.58974 2.67886 0
M  V30 2530 H 240.816 -1.85902 4.41562 0
M  V30 2531 H 239.18 -1.07676 2.3082 0
M  V30 2532 H 239.963 0.163058 3.42913 0
M  V30 2533 N 242.408 -1.52605 -0.393616 0
M  V30 2534 C 243.654 -1.67672 -1.14079 0
M  V30 2535 C 243.987 -0.413121 -1.89755 0
M  V30 2536 O 243.262 0.588952 -1.85369 0
M  V30 2537 C 243.545 -2.9088 -2.12276 0
M  V30 2538 C 243.398 -4.27329 -1.40394 0
M  V30 2539 C 244.717 -3.09628 -3.12759 0
M  V30 2540 H 241.836 -0.610168 -0.413356 0
M  V30 2541 H 244.478 -1.85193 -0.424696 0
M  V30 2542 H 242.628 -2.76073 -2.73342 0
M  V30 2543 H 244.3 -4.53894 -0.82327 0
M  V30 2544 H 242.543 -4.2802 -0.705801 0
M  V30 2545 H 243.214 -5.09615 -2.12123 0
M  V30 2546 H 245.69 -3.23436 -2.61779 0
M  V30 2547 H 244.566 -3.97322 -3.78717 0
M  V30 2548 H 244.827 -2.23637 -3.81365 0
M  V30 2549 N 243.887 0.651787 -1.4349 0
M  V30 2550 C 245.136 1.40754 -1.44469 0
M  V30 2551 C 245.449 1.95463 -0.0731845 0
M  V30 2552 O 246.655 2.71471 0.0395721 0
M  V30 2553 C 245.111 2.54735 -2.5424 0
M  V30 2554 C 244.719 2.06628 -3.97504 0
M  V30 2555 C 246.463 3.32092 -2.64414 0
M  V30 2556 C 244.37 3.17829 -4.98737 0
M  V30 2557 H 243.3 0.528862 -0.53742 0
M  V30 2558 H 245.951 0.703365 -1.69485 0
M  V30 2559 H 244.333 3.2763 -2.22428 0
M  V30 2560 H 245.507 1.40734 -4.38783 0
M  V30 2561 H 243.822 1.42146 -3.91387 0
M  V30 2562 H 246.419 4.14952 -3.37223 0
M  V30 2563 H 246.762 3.80217 -1.69532 0
M  V30 2564 H 247.295 2.66279 -2.95534 0
M  V30 2565 H 244.034 2.74671 -5.95177 0
M  V30 2566 H 243.554 3.82429 -4.62069 0
M  V30 2567 H 245.233 3.82937 -5.21505 0
M  V30 2568 N 245.365 1.30045 0.890287 0
M  V30 2569 C 246.612 1.18561 1.64163 0
M  V30 2570 C 246.94 -0.260852 1.92743 0
M  V30 2571 O 246.195 -1.20376 1.54299 0
M  V30 2572 C 246.494 1.95409 2.99249 0
M  V30 2573 C 246.16 3.45066 2.90242 0
M  V30 2574 C 244.822 3.85878 2.87492 0
M  V30 2575 C 247.174 4.4039 2.78758 0
M  V30 2576 C 244.502 5.20314 2.7109 0
M  V30 2577 C 246.854 5.74928 2.63894 0
M  V30 2578 C 245.518 6.14986 2.59516 0
M  V30 2579 H 244.788 0.433846 0.600715 0
M  V30 2580 H 247.435 1.61088 1.03552 0
M  V30 2581 H 245.74 1.45501 3.63781 0
M  V30 2582 H 247.437 1.8392 3.56334 0
M  V30 2583 H 244.027 3.12631 2.93189 0
M  V30 2584 H 248.211 4.09806 2.79952 0
M  V30 2585 H 243.467 5.50449 2.66112 0
M  V30 2586 H 247.641 6.48434 2.53981 0
M  V30 2587 H 245.268 7.19104 2.46565 0
M  V30 2588 N 246.843 -1.10192 1.12674 0
M  V30 2589 C 247.806 -2.14786 0.799979 0
M  V30 2590 C 248.806 -1.59711 -0.18685 0
M  V30 2591 O 249.996 -1.74156 0.0392558 0
M  V30 2592 C 247.128 -3.40374 0.189228 0
M  V30 2593 H 248.321 -2.45203 1.72671 0
M  V30 2594 H 245.874 -1.25597 0.930326 0
M  V30 2595 H 246.609 -3.15577 -0.747107 0
M  V30 2596 H 246.394 -3.81637 0.899766 0
M  V30 2597 H 247.884 -4.17594 -0.0228143 0
M  V30 2598 N 248.321 -0.919034 -1.28029 0
M  V30 2599 C 249.569 -0.553838 -1.94363 0
M  V30 2600 C 249.89 0.906357 -1.72656 0
M  V30 2601 O 249.16 1.64143 -1.0693 0
M  V30 2602 H 247.74 -0.201834 -0.719216 0
M  V30 2603 H 250.402 -1.16954 -1.55909 0
M  V30 2604 H 249.498 -0.752758 -3.02886 0
M  V30 2605 N 249.799 1.42003 -0.683588 0
M  V30 2606 C 251.076 1.95112 -0.138075 0
M  V30 2607 C 251.456 1.62359 1.34918 0
M  V30 2608 O 250.804 0.924311 2.08971 0
M  V30 2609 C 251.014 3.46505 -0.416581 0
M  V30 2610 C 252.362 4.23254 -0.337834 0
M  V30 2611 O 253.386 3.54468 -0.35082 0
M  V30 2612 O 252.245 5.45743 -0.287596 0
M  V30 2613 H 249.339 0.826961 -0.00797996 0
M  V30 2614 H 251.885 1.51784 -0.758924 0
M  V30 2615 H 250.657 3.63582 -1.4465 0
M  V30 2616 H 250.28 3.969 0.235839 0
M  V30 2617 N 251.277 0.427512 1.51691 0
M  V30 2618 C 252.224 -0.388867 2.275 0
M  V30 2619 C 253.194 -1.02532 1.30677 0
M  V30 2620 O 254.379 -1.0461 1.59566 0
M  V30 2621 C 251.519 -1.48954 3.11298 0
M  V30 2622 C 250.632 -0.872194 4.23104 0
M  V30 2623 C 249.767 -1.94709 4.94228 0
M  V30 2624 C 248.806 -1.30766 5.97969 0
M  V30 2625 N 247.943 -2.32349 6.62539 0
M  V30 2626 H 252.783 0.263997 2.96828 0
M  V30 2627 H 250.32 0.142033 1.46413 0
M  V30 2628 H 252.278 -2.13887 3.58201 0
M  V30 2629 H 250.908 -2.11217 2.44105 0
M  V30 2630 H 249.96 -0.111419 3.80237 0
M  V30 2631 H 251.272 -0.365264 4.97461 0
M  V30 2632 H 250.426 -2.67327 5.44629 0
M  V30 2633 H 249.165 -2.48773 4.1948 0
M  V30 2634 H 248.17 -0.566902 5.4687 0
M  V30 2635 H 249.395 -0.774483 6.74669 0
M  V30 2636 H 247.341 -2.85511 5.90609 0
M  V30 2637 H 247.258 -1.8652 7.3263 0
M  V30 2638 H 248.526 -3.04481 7.17574 0
M  V30 2639 N 252.755 -1.56801 0.158532 0
M  V30 2640 C 254.166 -1.83189 -0.360366 0
M  V30 2641 C 254.517 -1.07778 -1.63946 0
M  V30 2642 O 253.642 -0.326718 -2.13919 0
M  V30 2643 C 254.237 -3.32297 -0.660595 0
M  V30 2644 C 252.796 -3.59227 -1.12398 0
M  V30 2645 C 251.943 -2.76877 -0.153097 0
M  V30 2646 H 254.894 -1.54008 0.383031 0
M  V30 2647 H 254.915 -3.4908 -1.51405 0
M  V30 2648 H 254.427 -3.87156 0.270527 0
M  V30 2649 H 252.528 -3.09766 -2.07064 0
M  V30 2650 H 252.641 -4.67632 -1.04197 0
M  V30 2651 H 251.005 -2.46319 -0.647983 0
M  V30 2652 H 251.788 -3.34511 0.77182 0
M  V30 2653 N 254.233 0.115231 -1.57178 0
M  V30 2654 C 255.481 0.820727 -1.84685 0
M  V30 2655 C 255.802 1.80237 -0.744279 0
M  V30 2656 O 255.072 1.94529 0.231375 0
M  V30 2657 H 253.652 0.306084 -0.681411 0
M  V30 2658 H 256.314 0.101656 -1.94635 0
M  V30 2659 H 255.41 1.36366 -2.80733 0
M  V30 2660 N 255.711 1.52812 0.385517 0
M  V30 2661 C 256.643 1.74096 1.49074 0
M  V30 2662 C 257.656 0.621462 1.50472 0
M  V30 2663 O 258.845 0.897245 1.54311 0
M  V30 2664 C 255.945 1.78774 2.87911 0
M  V30 2665 C 255.118 3.08134 3.10439 0
M  V30 2666 C 254.177 3.04313 4.29278 0
M  V30 2667 O 253.203 3.78168 4.25415 0
M  V30 2668 N 254.405 2.23741 5.35649 0
M  V30 2669 H 257.17 2.69455 1.31202 0
M  V30 2670 H 254.731 1.51343 0.575065 0
M  V30 2671 H 256.723 1.73721 3.65518 0
M  V30 2672 H 255.293 0.907869 2.99126 0
M  V30 2673 H 254.513 3.26649 2.20667 0
M  V30 2674 H 255.801 3.93662 3.22347 0
M  V30 2675 H 255.199 1.63211 5.41645 0
M  V30 2676 H 253.756 2.24524 6.11909 0
M  V30 2677 N 257.189 -0.644168 1.43834 0
M  V30 2678 C 258.137 -1.77793 1.49974 0
M  V30 2679 C 259.131 -1.65253 0.372536 0
M  V30 2680 O 260.337 -1.7149 0.546924 0
M  V30 2681 H 256.712 -0.58675 0.47035 0
M  V30 2682 H 258.683 -1.69736 2.45423 0
M  V30 2683 C 257.432 -3.16087 1.4486 0
M  V30 2684 H 256.755 -3.26378 2.30905 0
M  V30 2685 H 258.195 -3.95349 1.53217 0
M  V30 2686 C 256.654 -3.36484 0.167463 0
M  V30 2687 O 257.184 -3.94298 -0.767609 0
M  V30 2688 N 255.39 -2.90504 0.0747556 0
M  V30 2689 H 254.937 -2.4364 0.836507 0
M  V30 2690 H 254.895 -3.04527 -0.781714 0
M  V30 2691 N 258.668 -1.30515 -0.883378 0
M  V30 2692 C 259.896 -1.22359 -1.66841 0
M  V30 2693 C 260.311 0.213296 -1.87591 0
M  V30 2694 O 259.668 1.14075 -1.42454 0
M  V30 2695 C 259.719 -1.95011 -3.04389 0
M  V30 2696 O 259.44 -3.3309 -2.84575 0
M  V30 2697 C 260.941 -1.93532 -3.98824 0
M  V30 2698 H 258.161 -0.423371 -0.520575 0
M  V30 2699 H 260.705 -1.72167 -1.10357 0
M  V30 2700 H 258.86 -1.48997 -3.57601 0
M  V30 2701 H 259.274 -3.69907 -3.71846 0
M  V30 2702 H 260.748 -2.48902 -4.92699 0
M  V30 2703 H 261.225 -0.914627 -4.29571 0
M  V30 2704 H 261.831 -2.39364 -3.51547 0
M  V30 2705 N 260.146 1.09593 -1.13257 0
M  V30 2706 C 261.093 2.1618 -0.808381 0
M  V30 2707 C 262.063 1.64517 0.228754 0
M  V30 2708 O 263.248 1.9053 0.101381 0
M  V30 2709 C 260.388 3.43973 -0.278675 0
M  V30 2710 C 259.501 4.09545 -1.37466 0
M  V30 2711 C 258.636 5.25088 -0.803479 0
M  V30 2712 C 257.675 5.82579 -1.87799 0
M  V30 2713 N 256.812 6.89486 -1.32488 0
M  V30 2714 H 261.652 2.43254 -1.72138 0
M  V30 2715 H 259.189 1.19392 -0.859294 0
M  V30 2716 H 261.147 4.17174 0.0465583 0
M  V30 2717 H 259.777 3.17223 0.597459 0
M  V30 2718 H 258.829 3.34226 -1.81652 0
M  V30 2719 H 260.141 4.48307 -2.18684 0
M  V30 2720 H 259.295 6.05178 -0.429427 0
M  V30 2721 H 258.034 4.87684 0.0397956 0
M  V30 2722 H 257.039 5.01152 -2.26113 0
M  V30 2723 H 258.264 6.22045 -2.72463 0
M  V30 2724 H 256.21 6.54064 -0.503575 0
M  V30 2725 H 256.127 7.27007 -2.07355 0
M  V30 2726 H 257.395 7.73336 -0.978336 0
M  V30 2727 N 261.624 0.925811 1.2754 0
M  V30 2728 C 262.849 0.580924 1.99098 0
M  V30 2729 C 263.274 -0.833555 1.68622 0
M  V30 2730 O 262.632 -1.55903 0.925422 0
M  V30 2731 C 262.68 0.811186 3.51358 0
M  V30 2732 O 261.784 -0.124129 4.12213 0
M  V30 2733 H 261.125 0.223873 0.625122 0
M  V30 2734 H 263.655 1.24455 1.62395 0
M  V30 2735 H 263.665 0.72601 4.01489 0
M  V30 2736 H 262.34 1.84227 3.72872 0
M  V30 2737 H 260.917 0.0108006 3.72898 0
M  V30 2738 N 263.102 -1.41638 0.69111 0
M  V30 2739 C 264.034 -2.29194 -0.0161523 0
M  V30 2740 C 265.047 -1.44549 -0.748955 0
M  V30 2741 O 266.236 -1.681 -0.6004 0
M  V30 2742 C 263.336 -3.22325 -1.0469 0
M  V30 2743 C 262.509 -4.35706 -0.384621 0
M  V30 2744 C 261.568 -5.09443 -1.31737 0
M  V30 2745 O 260.594 -5.63386 -0.811451 0
M  V30 2746 N 261.796 -5.16487 -2.64993 0
M  V30 2747 H 264.561 -2.90534 0.735523 0
M  V30 2748 H 262.122 -1.52742 0.53679 0
M  V30 2749 H 264.114 -3.68522 -1.67252 0
M  V30 2750 H 262.684 -2.62323 -1.70015 0
M  V30 2751 H 261.904 -3.91948 0.420804 0
M  V30 2752 H 263.192 -5.08743 0.0760765 0
M  V30 2753 H 262.59 -4.741 -3.08619 0
M  V30 2754 H 261.147 -5.66276 -3.22761 0
M  V30 2755 N 264.58 -0.43555 -1.51462 0
M  V30 2756 C 265.826 0.123979 -2.03022 0
M  V30 2757 C 266.181 1.4054 -1.31401 0
M  V30 2758 O 265.474 1.86948 -0.419634 0
M  V30 2759 C 265.668 0.39942 -3.55161 0
M  V30 2760 C 265.497 -0.853754 -4.41521 0
M  V30 2761 C 264.267 -1.38675 -4.85898 0
M  V30 2762 C 266.465 -1.73939 -4.83994 0
M  V30 2763 N 264.447 -2.59265 -5.56466 0
M  V30 2764 C 265.818 -2.79135 -5.5361 0
M  V30 2765 C 267.873 -1.75402 -4.65981 0
M  V30 2766 C 266.576 -3.85737 -6.07124 0
M  V30 2767 C 268.602 -2.80938 -5.20411 0
M  V30 2768 C 267.964 -3.84854 -5.89972 0
M  V30 2769 H 264.063 0.00624887 -0.781975 0
M  V30 2770 H 266.647 -0.59582 -1.85359 0
M  V30 2771 H 264.818 1.08825 -3.72843 0
M  V30 2772 H 266.55 0.95015 -3.93388 0
M  V30 2773 H 263.305 -0.94094 -4.64159 0
M  V30 2774 H 263.729 -3.2041 -5.96378 0
M  V30 2775 H 268.371 -0.963926 -4.11665 0
M  V30 2776 H 266.089 -4.65586 -6.60496 0
M  V30 2777 H 269.675 -2.8301 -5.08327 0
M  V30 2778 H 268.555 -4.65176 -6.31333 0
M  V30 2779 N 266.058 1.56714 -0.166846 0
M  V30 2780 C 266.988 2.20754 0.760913 0
M  V30 2781 C 267.969 1.16178 1.24244 0
M  V30 2782 O 269.154 1.44592 1.29641 0
M  V30 2783 C 266.284 2.84478 1.99223 0
M  V30 2784 C 265.238 3.95053 1.64672 0
M  V30 2785 C 264.564 4.45805 2.95232 0
M  V30 2786 C 265.864 5.14865 0.878155 0
M  V30 2787 H 267.558 2.98537 0.22713 0
M  V30 2788 H 265.104 1.43596 0.107805 0
M  V30 2789 H 267.057 3.27951 2.64624 0
M  V30 2790 H 265.781 2.04056 2.55007 0
M  V30 2791 H 264.44 3.52228 1.01641 0
M  V30 2792 H 264.088 3.62181 3.49047 0
M  V30 2793 H 263.788 5.204 2.7287 0
M  V30 2794 H 265.312 4.91962 3.6167 0
M  V30 2795 H 266.726 5.55059 1.43466 0
M  V30 2796 H 265.123 5.95348 0.753738 0
M  V30 2797 H 266.193 4.84735 -0.126377 0
M  V30 2798 N 267.536 -0.106894 1.57237 0
M  V30 2799 C 268.468 -1.15646 1.97885 0
M  V30 2800 C 269.481 -1.36981 0.879779 0
M  V30 2801 O 270.67 -1.35841 1.15799 0
M  V30 2802 C 267.77 -2.51425 2.27241 0
M  V30 2803 C 266.943 -2.50529 3.58545 0
M  V30 2804 C 266.002 -3.68145 3.75973 0
M  V30 2805 O 265.028 -3.51176 4.47956 0
M  V30 2806 N 266.23 -4.87177 3.15656 0
M  V30 2807 H 268.995 -0.81059 2.8853 0
M  V30 2808 H 266.556 -0.296024 1.59171 0
M  V30 2809 H 268.548 -3.28689 2.36105 0
M  V30 2810 H 267.118 -2.78147 1.42663 0
M  V30 2811 H 266.338 -1.58894 3.60758 0
M  V30 2812 H 267.626 -2.46997 4.44826 0
M  V30 2813 H 267.024 -5.03868 2.57165 0
M  V30 2814 H 265.581 -5.62075 3.30023 0
M  V30 2815 N 269.014 -1.53014 -0.377408 0
M  V30 2816 C 270.291 -1.59215 -1.13622 0
M  V30 2817 C 270.671 -0.392407 -2.07421 0
M  V30 2818 O 270.019 0.618342 -2.19975 0
M  V30 2819 C 270.229 -2.93669 -1.88573 0
M  V30 2820 C 271.577 -3.47822 -2.43526 0
M  V30 2821 O 272.601 -2.9562 -1.98715 0
M  V30 2822 O 271.46 -4.39055 -3.25412 0
M  V30 2823 H 268.554 -0.642625 -0.52054 0
M  V30 2824 H 271.1 -1.65353 -0.381625 0
M  V30 2825 H 269.872 -3.7243 -1.20048 0
M  V30 2826 H 269.495 -2.90968 -2.70968 0
M  V30 2827 N 270.492 0.636531 -1.44174 0
M  V30 2828 C 271.439 1.74875 -1.50624 0
M  V30 2829 C 272.409 1.62275 -0.35442 0
M  V30 2830 O 273.594 1.82276 -0.563908 0
M  V30 2831 C 270.734 3.13102 -1.45125 0
M  V30 2832 C 269.847 3.36717 -2.7064 0
M  V30 2833 C 268.982 4.64885 -2.57013 0
M  V30 2834 C 268.021 4.8166 -3.77717 0
M  V30 2835 N 267.158 6.01101 -3.62798 0
M  V30 2836 H 271.998 1.68697 -2.45653 0
M  V30 2837 H 269.535 0.823004 -1.21922 0
M  V30 2838 H 271.493 3.93034 -1.39929 0
M  V30 2839 H 270.123 3.18308 -0.536671 0
M  V30 2840 H 269.175 2.50763 -2.86046 0
M  V30 2841 H 270.487 3.44993 -3.60252 0
M  V30 2842 H 269.641 5.52969 -2.49619 0
M  V30 2843 H 268.38 4.58957 -1.64953 0
M  V30 2844 H 267.385 3.92007 -3.85501 0
M  V30 2845 H 268.61 4.89406 -4.70807 0
M  V30 2846 H 266.556 5.96273 -2.73486 0
M  V30 2847 H 266.473 6.10409 -4.46023 0
M  V30 2848 H 267.741 6.91761 -3.59286 0
M  V30 2849 N 271.97 1.30982 0.876444 0
M  V30 2850 C 272.918 1.18006 2.00443 0
M  V30 2851 C 273.912 0.0898871 1.69161 0
M  V30 2852 O 275.118 0.251333 1.78237 0
M  V30 2853 H 271.493 0.365196 0.65737 0
M  V30 2854 H 273.464 2.13453 2.0852 0
M  V30 2855 C 272.213 0.897521 3.35916 0
M  V30 2856 H 271.536 1.7285 3.60504 0
M  V30 2857 H 272.976 0.846874 4.15456 0
M  V30 2858 C 271.435 -0.399674 3.34521 0
M  V30 2859 O 271.965 -1.41852 3.7582 0
M  V30 2860 N 270.171 -0.413893 2.87637 0
M  V30 2861 H 269.718 0.41571 2.54224 0
M  V30 2862 H 269.676 -1.28175 2.87086 0
M  V30 2863 N 273.449 -1.08991 1.13837 0
M  V30 2864 C 274.698 -1.80631 0.897509 0
M  V30 2865 C 275.011 -1.86872 -0.57777 0
M  V30 2866 O 276.217 -2.54866 -0.935701 0
M  V30 2867 C 274.673 -3.24517 1.55618 0
M  V30 2868 C 274.281 -3.26529 3.0673 0
M  V30 2869 C 276.025 -4.00882 1.3962 0
M  V30 2870 C 273.932 -4.64965 3.65461 0
M  V30 2871 H 272.862 -0.67691 0.332129 0
M  V30 2872 H 275.513 -1.2246 1.3666 0
M  V30 2873 H 273.895 -3.82778 1.01476 0
M  V30 2874 H 275.069 -2.78008 3.67489 0
M  V30 2875 H 273.384 -2.63656 3.22296 0
M  V30 2876 H 275.981 -5.03167 1.80906 0
M  V30 2877 H 276.324 -4.14896 0.341578 0
M  V30 2878 H 276.857 -3.49075 1.90766 0
M  V30 2879 H 273.596 -4.56153 4.70749 0
M  V30 2880 H 273.116 -5.13792 3.09481 0
M  V30 2881 H 274.795 -5.3394 3.654 0
M  V30 2882 N 274.927 -0.932562 -1.27047 0
M  V30 2883 C 276.343 -0.633544 -1.46487 0
M  V30 2884 C 276.543 0.815746 -1.84249 0
M  V30 2885 O 275.599 1.59319 -1.95892 0
M  V30 2886 C 276.912 -1.58758 -2.55375 0
M  V30 2887 C 278.46 -1.59634 -2.69232 0
M  V30 2888 C 278.935 -2.53747 -3.81283 0
M  V30 2889 N 280.426 -2.51982 -3.88664 0
M  V30 2890 C 281.161 -3.21491 -4.74796 0
M  V30 2891 N 280.657 -4.00395 -5.65381 0
M  V30 2892 N 282.45 -3.10485 -4.68568 0
M  V30 2893 H 274.601 -1.86946 -1.00821 0
M  V30 2894 H 276.864 -0.802897 -0.504044 0
M  V30 2895 H 276.57 -2.62172 -2.34432 0
M  V30 2896 H 276.444 -1.33301 -3.52861 0
M  V30 2897 H 278.831 -0.569488 -2.89553 0
M  V30 2898 H 278.912 -1.89142 -1.72218 0
M  V30 2899 H 278.556 -3.56545 -3.61715 0
M  V30 2900 H 278.486 -2.21532 -4.77735 0
M  V30 2901 H 280.977 -1.94681 -3.23895 0
M  V30 2902 H 281.29 -4.50406 -6.27976 0
M  V30 2903 H 279.635 -4.04498 -5.65161 0
M  V30 2904 H 282.826 -2.48331 -3.96799 0
M  V30 2905 H 282.999 -3.64925 -5.35475 0
M  V30 2906 N 276.405 1.4127 -0.698611 0
M  V30 2907 C 277.654 2.00408 -0.227949 0
M  V30 2908 C 277.967 1.55981 1.18023 0
M  V30 2909 O 279.173 2.07699 1.74852 0
M  V30 2910 C 277.629 3.58129 -0.356636 0
M  V30 2911 C 277.237 4.11536 -1.77037 0
M  V30 2912 C 278.981 4.24466 0.0540969 0
M  V30 2913 C 276.888 5.61701 -1.85055 0
M  V30 2914 H 275.818 0.749586 -0.0814657 0
M  V30 2915 H 278.469 1.61713 -0.867249 0
M  V30 2916 H 276.851 3.94442 0.350965 0
M  V30 2917 H 278.025 3.86636 -2.50698 0
M  V30 2918 H 276.34 3.57736 -2.13105 0
M  V30 2919 H 278.937 5.34698 0.0146723 0
M  V30 2920 H 279.28 4.01687 1.09332 0
M  V30 2921 H 279.813 3.93198 -0.603337 0
M  V30 2922 H 276.552 5.89312 -2.8704 0
M  V30 2923 H 276.072 5.88519 -1.15783 0
M  V30 2924 H 277.751 6.26524 -1.61484 0
M  V30 2925 N 277.883 0.443576 1.51229 0
M  V30 2926 C 279.13 -0.120796 2.02139 0
M  V30 2927 C 279.458 -1.42166 1.32736 0
M  V30 2928 O 278.713 -1.90849 0.43301 0
M  V30 2929 C 279.012 -0.380579 3.55368 0
M  V30 2930 C 278.678 0.83523 4.43097 0
M  V30 2931 C 277.34 1.16864 4.66794 0
M  V30 2932 C 279.692 1.64601 4.94526 0
M  V30 2933 C 277.02 2.31339 5.39165 0
M  V30 2934 C 279.372 2.78181 5.68153 0
M  V30 2935 C 278.036 3.11969 5.90112 0
M  V30 2936 H 277.306 -0.0442023 0.73968 0
M  V30 2937 H 279.953 0.592046 1.82118 0
M  V30 2938 H 278.258 -1.17538 3.73754 0
M  V30 2939 H 279.955 -0.830777 3.923 0
M  V30 2940 H 276.545 0.565437 4.24854 0
M  V30 2941 H 280.729 1.40163 4.76097 0
M  V30 2942 H 275.985 2.57823 5.5438 0
M  V30 2943 H 280.159 3.41371 6.06992 0
M  V30 2944 H 277.786 4.00784 6.45969 0
M  V30 2945 N 279.361 -1.56624 0.175154 0
M  V30 2946 C 280.591 -2.01082 -0.474283 0
M  V30 2947 C 280.999 -1.05447 -1.57091 0
M  V30 2948 O 280.342 -0.0480595 -1.83637 0
M  V30 2949 C 280.404 -3.41963 -1.10911 0
M  V30 2950 C 280.068 -4.56742 -0.153666 0
M  V30 2951 C 281.065 -5.16076 0.629448 0
M  V30 2952 C 278.75 -5.02277 -0.0483776 0
M  V30 2953 C 280.744 -6.19377 1.50501 0
M  V30 2954 C 278.431 -6.05427 0.830768 0
M  V30 2955 C 279.429 -6.63849 1.60605 0
M  V30 2956 O 279.117 -7.64998 2.47049 0
M  V30 2957 H 278.849 -0.664261 -0.125432 0
M  V30 2958 H 281.403 -2.03549 0.275163 0
M  V30 2959 H 279.633 -3.36422 -1.90676 0
M  V30 2960 H 281.322 -3.70352 -1.66114 0
M  V30 2961 H 282.088 -4.81776 0.558297 0
M  V30 2962 H 277.967 -4.56513 -0.641611 0
M  V30 2963 H 281.511 -6.64906 2.1106 0
M  V30 2964 H 277.408 -6.39151 0.903107 0
M  V30 2965 H 278.176 -7.82336 2.40607 0
M  V30 2966 N 280.839 0.0985539 -1.57292 0
M  V30 2967 C 282.087 0.801092 -1.85545 0
M  V30 2968 C 282.408 1.79438 -0.763353 0
M  V30 2969 O 281.678 1.94763 0.21073 0
M  V30 2970 H 280.258 0.29884 -0.684619 0
M  V30 2971 H 282.92 0.0810064 -1.94732 0
M  V30 2972 H 282.016 1.3338 -2.82163 0
M  V30 2973 N 282.317 1.53212 0.369288 0
M  V30 2974 C 283.594 1.59815 1.12776 0
M  V30 2975 C 283.974 0.403402 2.0721 0
M  V30 2976 O 283.322 -0.606667 2.20299 0
M  V30 2977 C 283.532 2.94664 1.87013 0
M  V30 2978 C 284.88 3.49109 2.41677 0
M  V30 2979 O 285.904 2.96669 1.97144 0
M  V30 2980 O 284.763 4.40775 3.23079 0
M  V30 2981 H 281.857 0.645376 0.517125 0
M  V30 2982 H 284.403 1.65553 0.37285 0
M  V30 2983 H 283.175 3.73061 1.18071 0
M  V30 2984 H 282.798 2.92401 2.69421 0
M  V30 2985 N 283.795 -0.628877 1.44509 0
M  V30 2986 C 285.02 -1.42048 1.5112 0
M  V30 2987 C 285.445 -1.87594 0.137818 0
M  V30 2988 O 284.803 -1.58873 -0.873437 0
M  V30 2989 C 284.851 -2.61541 2.48251 0
M  V30 2990 O 283.955 -3.61453 1.98559 0
M  V30 2991 H 283.296 -0.424942 0.510216 0
M  V30 2992 H 285.826 -0.767374 1.89664 0
M  V30 2993 H 285.836 -3.09057 2.66361 0
M  V30 2994 H 284.511 -2.27736 3.48007 0
M  V30 2995 H 283.088 -3.20731 1.90227 0
M  V30 2996 N 285.273 -1.31445 -0.869486 0
M  V30 2997 C 286.55 -1.11795 -1.60503 0
M  V30 2998 C 286.93 0.327168 -2.08549 0
M  V30 2999 O 286.278 1.32135 -1.8642 0
M  V30 3000 C 286.488 -2.13258 -2.76265 0
M  V30 3001 C 287.836 -2.45805 -3.46215 0
M  V30 3002 O 288.86 -2.11688 -2.86473 0
M  V30 3003 O 287.719 -3.04228 -4.5399 0
M  V30 3004 H 284.813 -0.430421 -0.706163 0
M  V30 3005 H 287.359 -1.42925 -0.914907 0
M  V30 3006 H 286.131 -3.10461 -2.3818 0
M  V30 3007 H 285.754 -1.83035 -3.52964 0
M  V30 3008 N 286.751 1.08385 -1.14413 0
M  V30 3009 C 287.699 2.17406 -0.826888 0
M  V30 3010 C 288.693 1.6827 0.195312 0
M  V30 3011 O 289.899 1.79927 0.0513892 0
M  V30 3012 H 286.274 0.70934 -0.249681 0
M  V30 3013 H 288.245 2.41388 -1.75426 0
M  V30 3014 C 286.994 3.46215 -0.320979 0
M  V30 3015 H 286.317 3.84401 -1.0989 0
M  V30 3016 H 287.757 4.23777 -0.137549 0
M  V30 3017 C 286.216 3.23067 0.955472 0
M  V30 3018 O 286.746 3.4668 2.02918 0
M  V30 3019 N 284.952 2.7661 0.890798 0
M  V30 3020 H 284.499 2.57594 0.0168815 0
M  V30 3021 H 284.457 2.61501 1.74542 0
M  V30 3022 N 288.23 0.939286 1.26551 0
M  V30 3023 C 289.507 0.5038 1.89001 0
M  V30 3024 C 289.887 -1.01854 1.84903 0
M  V30 3025 O 289.235 -1.87773 1.30206 0
M  V30 3026 C 289.445 1.063 3.32417 0
M  V30 3027 C 290.793 1.13051 4.09273 0
M  V30 3028 O 291.817 1.01345 3.41479 0
M  V30 3029 O 290.676 1.31233 5.30509 0
M  V30 3030 H 287.77 0.163897 0.810597 0
M  V30 3031 H 290.316 1.03173 1.34735 0
M  V30 3032 H 289.088 2.10665 3.29752 0
M  V30 3033 H 288.711 0.517408 3.94219 0
M  V30 3034 N 289.708 -1.40897 0.706093 0
M  V30 3035 C 290.957 -2.00284 0.238574 0
M  V30 3036 C 291.27 -1.56604 -1.17194 0
M  V30 3037 O 292.476 -2.08624 -1.73748 0
M  V30 3038 C 290.932 -3.57934 0.375623 0
M  V30 3039 C 290.54 -4.10591 1.79217 0
M  V30 3040 C 292.284 -4.24488 -0.0315857 0
M  V30 3041 C 290.191 -5.60712 1.88032 0
M  V30 3042 H 289.121 -0.749144 0.0854398 0
M  V30 3043 H 291.772 -1.61251 0.875813 0
M  V30 3044 H 290.154 -3.94622 -0.330042 0
M  V30 3045 H 291.328 -3.85301 2.52745 0
M  V30 3046 H 289.643 -3.56601 2.15 0
M  V30 3047 H 292.24 -5.34698 0.0136842 0
M  V30 3048 H 292.583 -4.02261 -1.072 0
M  V30 3049 H 293.116 -3.92873 0.624181 0
M  V30 3050 H 289.855 -5.87781 2.90161 0
M  V30 3051 H 289.375 -5.87896 1.18903 0
M  V30 3052 H 291.054 -6.25658 1.64805 0
M  V30 3053 N 291.186 -0.45159 -1.50991 0
M  V30 3054 C 292.414 0.108334 -2.06616 0
M  V30 3055 C 292.829 1.35224 -1.31757 0
M  V30 3056 O 292.186 1.78475 -0.381174 0
M  V30 3057 C 292.237 0.41619 -3.59096 0
M  V30 3058 O 291.958 -0.778361 -4.3113 0
M  V30 3059 C 293.459 1.02523 -4.31282 0
M  V30 3060 H 290.679 0.00159995 -0.670998 0
M  V30 3061 H 293.223 -0.634771 -1.94399 0
M  V30 3062 H 291.378 1.10921 -3.71181 0
M  V30 3063 H 291.792 -0.511181 -5.22003 0
M  V30 3064 H 293.266 1.19053 -5.39009 0
M  V30 3065 H 293.743 2.01013 -3.905 0
M  V30 3066 H 294.349 0.371173 -4.23677 0
M  V30 3067 N 292.664 1.56529 -0.183458 0
M  V30 3068 C 293.627 2.17324 0.728223 0
M  V30 3069 C 294.627 1.12453 1.14939 0
M  V30 3070 O 295.817 1.37902 1.06437 0
M  V30 3071 C 292.949 2.76591 1.99274 0
M  V30 3072 H 294.142 2.99241 0.198772 0
M  V30 3073 H 291.695 1.5616 0.0661391 0
M  V30 3074 H 292.43 1.98441 2.56499 0
M  V30 3075 H 292.215 3.5335 1.69959 0
M  V30 3076 H 293.705 3.23311 2.6431 0
M  V30 3077 N 294.142 -0.090211 1.57342 0
M  V30 3078 C 295.105 -1.09335 2.01441 0
M  V30 3079 C 296.105 -1.32666 0.908641 0
M  V30 3080 O 297.295 -1.28697 1.174 0
M  V30 3081 C 294.427 -2.44136 2.3793 0
M  V30 3082 H 295.62 -0.713662 2.91285 0
M  V30 3083 H 293.173 -0.335404 1.52659 0
M  V30 3084 H 293.908 -2.86972 1.51055 0
M  V30 3085 H 293.693 -2.28548 3.18603 0
M  V30 3086 H 295.183 -3.16277 2.72688 0
M  V30 3087 N 295.62 -1.53406 -0.361157 0
M  V30 3088 C 297.036 -1.43277 -0.703124 0
M  V30 3089 C 297.236 -0.575384 -1.9311 0
M  V30 3090 O 296.292 -0.0595362 -2.5243 0
M  V30 3091 C 297.605 -2.8653 -0.9122 0
M  V30 3092 C 299.153 -2.96191 -1.01193 0
M  V30 3093 C 299.628 -4.40514 -1.25345 0
M  V30 3094 N 301.119 -4.43962 -1.32105 0
M  V30 3095 C 301.854 -5.52746 -1.5251 0
M  V30 3096 N 301.35 -6.71567 -1.70203 0
M  V30 3097 N 303.143 -5.40331 -1.54916 0
M  V30 3098 H 295.294 -2.07654 0.446475 0
M  V30 3099 H 297.557 -0.937944 0.137715 0
M  V30 3100 H 297.263 -3.51605 -0.0816414 0
M  V30 3101 H 297.137 -3.30441 -1.81903 0
M  V30 3102 H 299.524 -2.31266 -1.83303 0
M  V30 3103 H 299.605 -2.55667 -0.0823929 0
M  V30 3104 H 299.249 -5.06014 -0.437346 0
M  V30 3105 H 299.179 -4.78614 -2.19627 0
M  V30 3106 H 301.67 -3.58332 -1.20028 0
M  V30 3107 H 301.983 -7.50241 -1.85359 0
M  V30 3108 H 300.328 -6.74545 -1.67373 0
M  V30 3109 H 303.519 -4.46465 -1.40663 0
M  V30 3110 H 303.692 -6.25173 -1.70477 0
M  V30 3111 N 297.098 0.621204 -1.44841 0
M  V30 3112 C 298.375 1.38 -1.38619 0
M  V30 3113 C 298.755 2.11041 -0.0498935 0
M  V30 3114 O 298.103 2.06992 0.967816 0
M  V30 3115 C 298.313 2.33817 -2.59096 0
M  V30 3116 C 299.661 2.96844 -3.03593 0
M  V30 3117 O 300.685 2.44141 -2.59371 0
M  V30 3118 O 299.544 3.92476 -3.80296 0
M  V30 3119 H 296.638 0.61811 -0.549426 0
M  V30 3120 H 299.184 0.645429 -1.56947 0
M  V30 3121 H 297.956 1.79012 -3.47952 0
M  V30 3122 H 297.579 3.14676 -2.43032 0
M  V30 3123 N 298.576 1.31904 0.862503 0
M  V30 3124 C 299.822 1.22197 1.61851 0
M  V30 3125 C 300.155 -0.217641 1.92977 0
M  V30 3126 O 299.43 -1.15264 1.56666 0
M  V30 3127 C 299.713 2.07378 2.94391 0
M  V30 3128 C 299.566 3.59678 2.70096 0
M  V30 3129 C 300.885 1.92891 3.95577 0
M  V30 3130 H 298.004 0.445255 0.587296 0
M  V30 3131 H 300.646 1.6177 0.99651 0
M  V30 3132 H 298.796 1.73758 3.47477 0
M  V30 3133 H 300.468 4.03472 2.23625 0
M  V30 3134 H 298.711 3.82735 2.04197 0
M  V30 3135 H 299.382 4.14595 3.64438 0
M  V30 3136 H 301.858 2.22327 3.51724 0
M  V30 3137 H 300.734 2.54781 4.86187 0
M  V30 3138 H 300.995 0.894315 4.3296 0
M  V30 3139 N 300.054 -1.07777 1.14986 0
M  V30 3140 C 301.302 -1.79934 0.920235 0
M  V30 3141 C 301.623 -1.86955 -0.554336 0
M  V30 3142 O 300.893 -1.36731 -1.40291 0
M  V30 3143 H 299.473 -0.666424 0.337473 0
M  V30 3144 H 302.135 -1.3027 1.44968 0
M  V30 3145 H 301.231 -2.82539 1.32583 0
M  V30 3146 N 301.532 -0.945985 -1.26051 0
M  V30 3147 C 302.495 -0.463897 -2.24456 0
M  V30 3148 C 303.495 0.427655 -1.55009 0
M  V30 3149 O 304.685 0.226157 -1.72726 0
M  V30 3150 C 301.817 0.330812 -3.39291 0
M  V30 3151 H 303.01 -1.33357 -2.68619 0
M  V30 3152 H 300.563 -0.728416 -1.38289 0
M  V30 3153 H 301.298 1.21852 -3.00537 0
M  V30 3154 H 301.083 -0.308679 -3.90883 0
M  V30 3155 H 302.573 0.657865 -4.12386 0
M  V30 3156 N 303.011 1.40521 -0.713556 0
M  V30 3157 C 304.427 1.54839 -0.386907 0
M  V30 3158 C 304.627 1.68532 1.1045 0
M  V30 3159 O 303.683 1.67377 1.89053 0
M  V30 3160 C 304.996 2.77792 -1.15118 0
M  V30 3161 C 306.544 2.91607 -1.13729 0
M  V30 3162 C 307.019 4.1747 -1.88368 0
M  V30 3163 N 308.51 4.24466 -1.85427 0
M  V30 3164 C 309.245 5.20755 -2.40004 0
M  V30 3165 N 308.741 6.22965 -3.03129 0
M  V30 3166 N 310.534 5.1282 -2.30158 0
M  V30 3167 H 302.685 1.29879 -1.68063 0
M  V30 3168 H 304.948 0.627896 -0.710247 0
M  V30 3169 H 304.654 2.73944 -2.20561 0
M  V30 3170 H 304.528 3.6984 -0.741477 0
M  V30 3171 H 306.915 2.94959 -0.0910608 0
M  V30 3172 H 306.996 2.00682 -1.5862 0
M  V30 3173 H 306.64 4.1488 -2.9298 0
M  V30 3174 H 306.57 5.074 -1.40898 0
M  V30 3175 H 309.061 3.51241 -1.3942 0
M  V30 3176 H 309.374 6.92859 -3.42295 0
M  V30 3177 H 307.719 6.23415 -3.07212 0
M  V30 3178 H 310.91 4.31899 -1.80501 0
M  V30 3179 H 311.083 5.87689 -2.72993 0
M  V30 3180 N 304.489 0.459591 1.5075 0
M  V30 3181 C 305.737 -0.0991532 2.01857 0
M  V30 3182 C 306.058 -1.41247 1.34441 0
M  V30 3183 O 305.328 -1.89775 0.486022 0
M  V30 3184 H 303.908 -0.039633 0.745948 0
M  V30 3185 H 306.57 0.607387 1.85194 0
M  V30 3186 H 305.666 -0.258998 3.11023 0
M  V30 3187 N 305.967 -1.56429 0.191757 0
M  V30 3188 C 307.216 -1.9666 -0.448088 0
M  V30 3189 C 307.529 -1.08136 -1.62991 0
M  V30 3190 O 308.735 -1.38135 -2.33733 0
M  V30 3191 C 307.191 -3.49753 -0.848585 0
M  V30 3192 C 306.799 -4.46935 0.308764 0
M  V30 3193 C 308.543 -3.9876 -1.4557 0
M  V30 3194 C 306.45 -5.91293 -0.112506 0
M  V30 3195 H 305.38 -0.734312 -0.171179 0
M  V30 3196 H 308.031 -1.81301 0.283242 0
M  V30 3197 H 306.413 -3.60604 -1.63649 0
M  V30 3198 H 307.587 -4.47813 1.08627 0
M  V30 3199 H 305.902 -4.08102 0.827158 0
M  V30 3200 H 308.499 -5.04086 -1.78328 0
M  V30 3201 H 308.842 -3.42875 -2.36099 0
M  V30 3202 H 309.375 -3.9101 -0.731836 0
M  V30 3203 H 306.114 -6.51097 0.758514 0
M  V30 3204 H 305.634 -5.93676 -0.854941 0
M  V30 3205 H 307.313 -6.44663 -0.549448 0
M  V30 3206 N 307.445 0.0818655 -1.57387 0
M  V30 3207 C 308.861 0.436412 -1.53517 0
M  V30 3208 C 309.061 1.79758 -0.910459 0
M  V30 3209 O 308.117 2.47324 -0.508636 0
M  V30 3210 C 309.43 0.386734 -2.98203 0
M  V30 3211 C 310.978 0.467644 -3.09487 0
M  V30 3212 C 311.453 0.447978 -4.55804 0
M  V30 3213 N 312.944 0.508348 -4.60402 0
M  V30 3214 C 313.679 0.515184 -5.71081 0
M  V30 3215 N 313.175 0.477435 -6.91153 0
M  V30 3216 N 314.968 0.560988 -5.59294 0
M  V30 3217 H 307.119 -0.809546 -1.96367 0
M  V30 3218 H 309.382 -0.302733 -0.898363 0
M  V30 3219 H 309.088 -0.546539 -3.47427 0
M  V30 3220 H 308.962 1.20075 -3.57578 0
M  V30 3221 H 311.349 1.39134 -2.60242 0
M  V30 3222 H 311.43 -0.374753 -2.5304 0
M  V30 3223 H 311.074 -0.471826 -5.05704 0
M  V30 3224 H 311.004 1.30777 -5.10103 0
M  V30 3225 H 313.495 0.54218 -3.7399 0
M  V30 3226 H 313.808 0.486299 -7.71268 0
M  V30 3227 H 312.153 0.444278 -6.93579 0
M  V30 3228 H 315.344 0.5881 -4.64391 0
M  V30 3229 H 315.517 0.562846 -6.45551 0
M  V30 3230 N 308.923 1.53595 0.353017 0
M  V30 3231 C 310.172 1.69603 1.09168 0
M  V30 3232 C 310.485 0.460925 1.90092 0
M  V30 3233 O 311.691 0.501774 2.66823 0
M  V30 3234 C 310.147 2.99872 1.9901 0
M  V30 3235 C 309.755 4.30687 1.23339 0
M  V30 3236 C 311.499 3.25246 2.72792 0
M  V30 3237 C 309.406 5.52036 2.12156 0
M  V30 3238 H 308.336 0.631966 0.411261 0
M  V30 3239 H 310.987 1.80096 0.351802 0
M  V30 3240 H 309.369 2.83212 2.7678 0
M  V30 3241 H 310.543 4.58019 0.505456 0
M  V30 3242 H 308.858 4.11853 0.613663 0
M  V30 3243 H 311.455 4.13095 3.39495 0
M  V30 3244 H 311.798 2.41846 3.38846 0
M  V30 3245 H 312.331 3.42638 2.021 0
M  V30 3246 H 309.07 6.37951 1.50659 0
M  V30 3247 H 308.59 5.28966 2.82764 0
M  V30 3248 H 310.269 5.87313 2.71427 0
M  V30 3249 N 310.401 -0.613514 1.45168 0
M  V30 3250 C 311.331 -1.7354 1.56225 0
M  V30 3251 C 312.312 -1.64981 0.41414 0
M  V30 3252 O 313.497 -1.83472 0.636526 0
M  V30 3253 C 310.627 -3.12128 1.52295 0
M  V30 3254 C 309.581 -3.35491 2.65762 0
M  V30 3255 C 308.907 -4.74291 2.46885 0
M  V30 3256 C 310.207 -3.26325 4.0781 0
M  V30 3257 H 311.901 -1.64543 2.50132 0
M  V30 3258 H 309.447 -0.790185 1.20383 0
M  V30 3259 H 311.4 -3.90404 1.58628 0
M  V30 3260 H 310.124 -3.2195 0.549139 0
M  V30 3261 H 308.783 -2.59603 2.58847 0
M  V30 3262 H 308.431 -4.80839 1.47657 0
M  V30 3263 H 308.131 -4.9088 3.22972 0
M  V30 3264 H 309.655 -5.54775 2.55063 0
M  V30 3265 H 311.069 -3.94483 4.16 0
M  V30 3266 H 309.466 -3.54445 4.8424 0
M  V30 3267 H 310.536 -2.23855 4.30136 0
M  V30 3268 N 311.879 -1.3236 -0.855495 0
M  V30 3269 C 313.295 -1.11332 -1.14356 0
M  V30 3270 C 313.495 0.106751 -2.01217 0
M  V30 3271 O 312.551 0.791891 -2.39761 0
M  V30 3272 C 313.864 -2.39237 -1.82171 0
M  V30 3273 C 315.412 -2.44986 -1.9481 0
M  V30 3274 C 315.887 -3.7281 -2.66039 0
M  V30 3275 N 317.378 -3.73787 -2.73565 0
M  V30 3276 C 318.113 -4.69394 -3.29327 0
M  V30 3277 N 317.609 -5.75367 -3.85907 0
M  V30 3278 N 319.402 -4.56893 -3.27423 0
M  V30 3279 H 311.553 -2.10586 -0.277027 0
M  V30 3280 H 313.816 -0.929701 -0.185364 0
M  V30 3281 H 313.522 -3.28431 -1.25802 0
M  V30 3282 H 313.396 -2.50134 -2.82335 0
M  V30 3283 H 315.783 -1.56252 -2.50338 0
M  V30 3284 H 315.864 -2.38043 -0.936448 0
M  V30 3285 H 315.508 -4.61918 -2.11174 0
M  V30 3286 H 315.438 -3.77024 -3.67642 0
M  V30 3287 H 317.929 -2.97189 -2.33424 0
M  V30 3288 H 318.242 -6.44378 -4.26611 0
M  V30 3289 H 316.587 -5.79123 -3.84242 0
M  V30 3290 H 319.778 -3.73269 -2.82467 0
M  V30 3291 H 319.951 -5.31577 -3.7058 0
M  V30 3292 N 313.357 1.07166 -1.15556 0
M  V30 3293 C 314.32 2.12589 -0.856644 0
M  V30 3294 C 315.32 1.6015 0.14444 0
M  V30 3295 O 316.51 1.7399 -0.0854163 0
M  V30 3296 C 313.642 3.39753 -0.279405 0
M  V30 3297 H 314.835 2.40539 -1.79112 0
M  V30 3298 H 312.388 1.23086 -0.963298 0
M  V30 3299 H 313.123 3.17447 0.663174 0
M  V30 3300 H 312.908 3.79117 -1.00063 0
M  V30 3301 H 314.398 4.17507 -0.0879113 0
M  V30 3302 N 314.835 0.952656 1.25548 0
M  V30 3303 C 316.06 0.623025 1.97821 0
M  V30 3304 C 316.485 -0.7976 1.70352 0
M  V30 3305 O 315.843 -1.53905 0.958283 0
M  V30 3306 C 315.891 0.885532 3.49558 0
M  V30 3307 O 314.995 -0.0366641 4.12384 0
M  V30 3308 H 314.336 0.237082 0.620232 0
M  V30 3309 H 316.866 1.27871 1.59719 0
M  V30 3310 H 316.876 0.811009 3.99858 0
M  V30 3311 H 315.551 1.92094 3.6888 0
M  V30 3312 H 314.128 0.0898954 3.72792 0
M  V30 3313 N 316.313 -1.40141 0.720998 0
M  V30 3314 C 317.261 -2.3252 0.0608547 0
M  V30 3315 C 318.255 -1.52326 -0.741152 0
M  V30 3316 O 319.461 -1.68089 -0.643911 0
M  V30 3317 H 315.836 -0.751999 0.000876664 0
M  V30 3318 H 317.807 -2.8584 0.856614 0
M  V30 3319 C 316.556 -3.37331 -0.842809 0
M  V30 3320 H 315.879 -3.99108 -0.235084 0
M  V30 3321 H 317.319 -4.04452 -1.27257 0
M  V30 3322 C 315.778 -2.73246 -1.97074 0
M  V30 3323 O 316.308 -2.59998 -3.06209 0
M  V30 3324 N 314.514 -2.31547 -1.75597 0
M  V30 3325 H 314.061 -2.42522 -0.868368 0
M  V30 3326 H 314.019 -1.89007 -2.51244 0
M  V30 3327 N 317.792 -0.46758 -1.50504 0
M  V30 3328 C 319.017 0.0886943 -2.0721 0
M  V30 3329 C 319.442 1.33057 -1.32956 0
M  V30 3330 O 318.8 1.77354 -0.376197 0
M  V30 3331 C 318.848 0.359202 -3.58806 0
M  V30 3332 O 317.952 1.44034 -3.8643 0
M  V30 3333 H 317.293 -0.0114349 -0.663902 0
M  V30 3334 H 319.823 -0.657613 -1.93744 0
M  V30 3335 H 319.833 0.600742 -4.03553 0
M  V30 3336 H 318.508 -0.548311 -4.1227 0
M  V30 3337 H 317.085 1.18638 -3.53524 0
M  V30 3338 N 319.27 1.56325 -0.20005 0
M  V30 3339 C 320.498 2.02105 0.442874 0
M  V30 3340 C 320.913 1.08014 1.5485 0
M  V30 3341 O 320.27 0.0858797 1.82298 0
M  V30 3342 C 320.321 3.47549 0.994583 0
M  V30 3343 O 320.042 4.38049 -0.0669322 0
M  V30 3344 C 321.543 4.0887 1.7129 0
M  V30 3345 H 318.763 0.661807 0.110691 0
M  V30 3346 H 321.307 2.02134 -0.310207 0
M  V30 3347 H 319.462 3.48204 1.69803 0
M  V30 3348 H 319.876 5.23368 0.344462 0
M  V30 3349 H 321.35 5.12475 2.05118 0
M  V30 3350 H 321.827 3.52615 2.61838 0
M  V30 3351 H 322.433 4.12002 1.05518 0
M  V30 3352 N 320.748 -0.0735177 1.57428 0
M  V30 3353 C 321.978 -0.78483 1.91112 0
M  V30 3354 C 322.386 -1.71729 0.7941 0
M  V30 3355 O 321.729 -1.82105 -0.241542 0
M  V30 3356 C 321.791 -1.63346 3.20247 0
M  V30 3357 C 321.455 -0.870557 4.48632 0
M  V30 3358 C 322.452 -0.19058 5.19551 0
M  V30 3359 C 320.137 -0.838242 4.95256 0
M  V30 3360 C 322.131 0.511503 6.35344 0
M  V30 3361 C 319.818 -0.132386 6.10957 0
M  V30 3362 C 320.816 0.541288 6.80852 0
M  V30 3363 O 320.504 1.23578 7.94345 0
M  V30 3364 H 320.236 -0.228408 0.636244 0
M  V30 3365 H 322.79 -0.0486039 2.05342 0
M  V30 3366 H 321.02 -2.41245 3.02222 0
M  V30 3367 H 322.709 -2.22329 3.39595 0
M  V30 3368 H 323.475 -0.206864 4.84559 0
M  V30 3369 H 319.354 -1.35206 4.40727 0
M  V30 3370 H 322.898 1.03789 6.89836 0
M  V30 3371 H 318.795 -0.114023 6.45399 0
M  V30 3372 H 319.563 1.14487 8.10454 0
M  V30 3373 N 322.226 -1.5378 -0.344866 0
M  V30 3374 C 323.173 -1.81676 -1.42346 0
M  V30 3375 C 324.143 -0.662376 -1.52321 0
M  V30 3376 O 325.328 -0.906675 -1.67881 0
M  V30 3377 C 322.468 -2.03087 -2.79015 0
M  V30 3378 C 321.581 -3.30799 -2.77842 0
M  V30 3379 C 320.716 -3.42285 -4.0622 0
M  V30 3380 C 319.755 -4.6395 -3.9927 0
M  V30 3381 N 318.892 -4.72477 -5.19336 0
M  V30 3382 H 323.732 -2.73703 -1.17858 0
M  V30 3383 H 321.269 -1.35568 -0.570949 0
M  V30 3384 H 323.227 -2.1349 -3.58438 0
M  V30 3385 H 321.857 -1.14375 -3.01858 0
M  V30 3386 H 320.909 -3.29244 -1.90533 0
M  V30 3387 H 322.221 -4.20314 -2.68584 0
M  V30 3388 H 321.375 -3.52113 -4.94066 0
M  V30 3389 H 320.114 -2.50823 -4.18258 0
M  V30 3390 H 319.119 -4.54201 -3.09809 0
M  V30 3391 H 320.344 -5.56775 -3.88817 0
M  V30 3392 H 318.29 -3.83924 -5.3192 0
M  V30 3393 H 318.207 -5.55927 -5.12329 0
M  V30 3394 H 319.475 -4.86613 -6.08957 0
M  V30 3395 N 323.704 0.605807 -1.45491 0
M  V30 3396 C 325.115 1.18777 -1.44045 0
M  V30 3397 C 325.466 1.95471 -0.169001 0
M  V30 3398 O 324.591 2.0374 0.729324 0
M  V30 3399 C 325.186 2.16064 -2.60963 0
M  V30 3400 C 323.745 2.69633 -2.62631 0
M  V30 3401 C 322.892 1.45072 -2.36325 0
M  V30 3402 H 325.843 0.395017 -1.53705 0
M  V30 3403 H 325.864 2.9913 -2.35163 0
M  V30 3404 H 325.376 1.60217 -3.53486 0
M  V30 3405 H 323.477 3.29414 -1.74119 0
M  V30 3406 H 323.59 3.13944 -3.61906 0
M  V30 3407 H 321.954 1.74089 -1.85917 0
M  V30 3408 H 322.737 0.910899 -3.30995 0
M  V30 3409 N 325.182 1.32811 0.848464 0
M  V30 3410 C 326.112 1.24882 1.97299 0
M  V30 3411 C 327.093 0.131357 1.69592 0
M  V30 3412 O 328.278 0.319553 1.91553 0
M  V30 3413 C 325.408 0.97746 3.33261 0
M  V30 3414 C 324.362 2.05682 3.75338 0
M  V30 3415 C 323.688 1.63777 5.09 0
M  V30 3416 C 324.988 3.47254 3.90144 0
M  V30 3417 H 326.682 2.18966 2.04191 0
M  V30 3418 H 324.228 1.05413 0.981029 0
M  V30 3419 H 326.181 0.908513 4.1149 0
M  V30 3420 H 324.905 0.000980011 3.266 0
M  V30 3421 H 323.564 2.11603 2.99366 0
M  V30 3422 H 323.212 0.648569 4.98801 0
M  V30 3423 H 322.912 2.36 5.38124 0
M  V30 3424 H 324.436 1.5833 5.89715 0
M  V30 3425 H 325.85 3.43888 4.58709 0
M  V30 3426 H 324.247 4.1788 4.30693 0
M  V30 3427 H 325.317 3.86462 2.92874 0
M  V30 3428 N 326.66 -1.06551 1.16123 0
M  V30 3429 C 328.071 -1.60768 0.949232 0
M  V30 3430 C 328.422 -1.89523 -0.507508 0
M  V30 3431 O 327.547 -1.66671 -1.38021 0
M  V30 3432 C 328.142 -2.92086 1.71671 0
M  V30 3433 C 326.701 -3.43015 1.54977 0
M  V30 3434 C 325.848 -2.16947 1.72711 0
M  V30 3435 H 328.799 -0.895354 1.31031 0
M  V30 3436 H 328.82 -3.6138 1.19099 0
M  V30 3437 H 328.332 -2.71127 2.7769 0
M  V30 3438 H 326.433 -3.69039 0.513873 0
M  V30 3439 H 326.546 -4.18516 2.33198 0
M  V30 3440 H 324.91 -2.27041 1.15431 0
M  V30 3441 H 325.693 -1.98473 2.80113 0
M  V30 3442 N 328.138 -0.959301 -1.25041 0
M  V30 3443 C 329.07 -0.440543 -2.24926 0
M  V30 3444 C 330.083 0.446131 -1.56568 0
M  V30 3445 O 331.272 0.253657 -1.76689 0
M  V30 3446 C 328.372 0.38412 -3.36716 0
M  V30 3447 C 327.545 -0.490658 -4.34639 0
M  V30 3448 C 326.604 0.276587 -5.25473 0
M  V30 3449 O 325.63 -0.326614 -5.68262 0
M  V30 3450 N 326.832 1.56844 -5.5891 0
M  V30 3451 H 329.597 -1.29931 -2.70071 0
M  V30 3452 H 327.158 -0.830181 -1.38995 0
M  V30 3453 H 329.15 0.905228 -3.94446 0
M  V30 3454 H 327.72 1.14377 -2.90924 0
M  V30 3455 H 326.94 -1.19282 -3.7572 0
M  V30 3456 H 328.228 -1.08756 -4.97041 0
M  V30 3457 H 327.626 2.08036 -5.26059 0
M  V30 3458 H 326.183 2.03541 -6.19205 0
M  V30 3459 N 329.616 1.39756 -0.72842 0
M  V30 3460 C 330.579 2.29012 -0.0927297 0
M  V30 3461 C 331.579 1.45992 0.674025 0
M  V30 3462 O 332.769 1.66749 0.50402 0
M  V30 3463 C 329.901 3.29396 0.878137 0
M  V30 3464 H 331.094 2.86729 -0.879011 0
M  V30 3465 H 328.647 1.48293 -0.493847 0
M  V30 3466 H 329.382 2.76722 1.69101 0
M  V30 3467 H 329.167 3.907 0.331051 0
M  V30 3468 H 330.657 3.96199 1.3197 0
M  V30 3469 N 331.094 0.475555 1.50254 0
M  V30 3470 C 332.342 -0.077738 2.0195 0
M  V30 3471 C 332.663 -1.39813 1.35931 0
M  V30 3472 O 331.933 -1.89249 0.506123 0
M  V30 3473 H 330.513 -0.031719 0.746326 0
M  V30 3474 H 333.175 0.626995 1.84539 0
M  V30 3475 H 332.271 -0.225995 3.11281 0
M  V30 3476 N 332.573 -1.56217 0.208337 0
M  V30 3477 C 333.536 -2.18455 -0.693557 0
M  V30 3478 C 334.536 -1.14268 -1.13135 0
M  V30 3479 O 335.726 -1.39577 -1.0423 0
M  V30 3480 C 332.858 -2.79727 -1.94848 0
M  V30 3481 H 334.051 -2.99519 -0.15114 0
M  V30 3482 H 331.604 -1.56245 -0.041287 0
M  V30 3483 H 332.339 -2.02497 -2.53309 0
M  V30 3484 H 332.124 -3.56009 -1.64316 0
M  V30 3485 H 333.614 -3.27475 -2.59133 0
M  V30 3486 N 334.051 0.0651679 -1.57465 0
M  V30 3487 C 335.298 0.763063 -1.87573 0
M  V30 3488 C 335.626 1.77242 -0.800961 0
M  V30 3489 O 334.881 1.94651 0.202316 0
M  V30 3490 C 335.18 1.50081 -3.24362 0
M  V30 3491 C 334.846 0.630816 -4.46466 0
M  V30 3492 C 333.508 0.391082 -4.79608 0
M  V30 3493 C 335.86 0.0279465 -5.21193 0
M  V30 3494 C 333.188 -0.460894 -5.84887 0
M  V30 3495 C 335.54 -0.811522 -6.27373 0
M  V30 3496 C 334.204 -1.06106 -6.59013 0
M  V30 3497 H 333.474 0.279224 -0.686378 0
M  V30 3498 H 336.121 0.0236726 -1.91485 0
M  V30 3499 H 334.426 2.31258 -3.16271 0
M  V30 3500 H 336.123 2.04571 -3.44894 0
M  V30 3501 H 332.713 0.8278 -4.2053 0
M  V30 3502 H 336.897 0.200262 -4.95896 0
M  V30 3503 H 332.153 -0.662907 -6.07796 0
M  V30 3504 H 336.327 -1.28537 -6.84435 0
M  V30 3505 H 333.954 -1.723 -7.40417 0
M  V30 3506 N 335.529 1.53961 0.336706 0
M  V30 3507 C 336.777 1.71197 1.07405 0
M  V30 3508 C 337.098 0.481475 1.88962 0
M  V30 3509 O 336.368 -0.504585 1.8929 0
M  V30 3510 H 334.948 0.631185 0.399517 0
M  V30 3511 H 337.61 1.91232 0.376323 0
M  V30 3512 H 336.706 2.58587 1.74755 0
M  V30 3513 N 337.007 -0.598083 1.45811 0
M  V30 3514 C 337.917 -1.73632 1.57763 0
M  V30 3515 C 338.933 -1.67763 0.461676 0
M  V30 3516 O 340.109 -1.87949 0.723685 0
M  V30 3517 C 337.174 -3.10114 1.55018 0
M  V30 3518 C 336.235 -3.27364 2.77726 0
M  V30 3519 C 335.468 -4.57334 2.75102 0
M  V30 3520 O 335.691 -5.40258 1.8297 0
M  V30 3521 O 334.625 -4.77502 3.66437 0
M  V30 3522 H 338.451 -1.66498 2.53992 0
M  V30 3523 H 336.036 -0.763308 1.28429 0
M  V30 3524 H 337.918 -3.9141 1.56129 0
M  V30 3525 H 336.593 -3.17718 0.619431 0
M  V30 3526 H 335.5 -2.45619 2.82174 0
M  V30 3527 H 336.833 -3.24641 3.69958 0
M  V30 3528 N 338.485 -1.33259 -0.841409 0
M  V30 3529 C 339.395 -1.25332 -1.98316 0
M  V30 3530 C 340.411 -0.164364 -1.73222 0
M  V30 3531 O 341.587 -0.387486 -1.97637 0
M  V30 3532 C 338.652 -0.990078 -3.32262 0
M  V30 3533 C 337.713 -2.16879 -3.70489 0
M  V30 3534 C 336.946 -1.91801 -4.98044 0
M  V30 3535 O 337.169 -0.867075 -5.63771 0
M  V30 3536 O 336.103 -2.78267 -5.33714 0
M  V30 3537 H 339.929 -2.21344 -2.07944 0
M  V30 3538 H 337.514 -1.1328 -0.974058 0
M  V30 3539 H 339.396 -0.860321 -4.12524 0
M  V30 3540 H 338.071 -0.0602155 -3.23644 0
M  V30 3541 H 336.978 -2.35407 -2.90748 0
M  V30 3542 H 338.311 -3.0819 -3.8377 0
M  V30 3543 N 339.963 1.05934 -1.16686 0
M  V30 3544 C 341.209 1.79065 -0.95203 0
M  V30 3545 C 341.542 1.87147 0.518629 0
M  V30 3546 O 340.817 1.36574 1.38484 0
M  V30 3547 C 341.1 3.23359 -1.58464 0
M  V30 3548 C 340.953 3.23336 -3.12689 0
M  V30 3549 C 342.272 4.21004 -1.28232 0
M  V30 3550 H 339.391 0.65005 -0.34728 0
M  V30 3551 H 342.033 1.23868 -1.44072 0
M  V30 3552 H 340.183 3.70493 -1.16908 0
M  V30 3553 H 341.855 2.84336 -3.6325 0
M  V30 3554 H 340.098 2.61886 -3.4583 0
M  V30 3555 H 340.769 4.25144 -3.52075 0
M  V30 3556 H 343.245 3.8233 -1.64203 0
M  V30 3557 H 342.121 5.20225 -1.75092 0
M  V30 3558 H 342.382 4.41639 -0.201791 0
M  V30 3559 N 341.441 0.965919 1.2453 0
M  V30 3560 C 342.69 0.622437 1.91856 0
M  V30 3561 C 343.003 -0.846006 1.76358 0
M  V30 3562 O 344.209 -1.29993 2.38357 0
M  V30 3563 C 342.665 1.0626 3.43856 0
M  V30 3564 C 342.273 2.55437 3.68043 0
M  V30 3565 C 344.017 0.792183 4.17043 0
M  V30 3566 C 341.924 2.93196 5.13605 0
M  V30 3567 H 340.854 0.229092 0.718354 0
M  V30 3568 H 343.505 1.17189 1.41206 0
M  V30 3569 H 341.887 0.441476 3.93531 0
M  V30 3570 H 343.061 3.22665 3.28974 0
M  V30 3571 H 341.376 2.8007 3.08139 0
M  V30 3572 H 343.973 1.05031 5.24283 0
M  V30 3573 H 344.316 -0.271584 4.15413 0
M  V30 3574 H 344.849 1.37419 3.73311 0
M  V30 3575 H 341.588 3.98636 5.20355 0
M  V30 3576 H 341.108 2.30651 5.53679 0
M  V30 3577 H 342.787 2.83004 5.81823 0
M  V30 3578 N 342.919 -1.39368 0.735821 0
M  V30 3579 C 344.165 -2.00794 0.284544 0
M  V30 3580 C 344.498 -1.58255 -1.12557 0
M  V30 3581 O 343.773 -0.811819 -1.76748 0
M  V30 3582 C 344.056 -3.58011 0.387337 0
M  V30 3583 C 343.909 -4.10566 1.83728 0
M  V30 3584 C 345.228 -4.395 -0.22975 0
M  V30 3585 H 342.347 -0.729501 0.104866 0
M  V30 3586 H 344.989 -1.65564 0.93213 0
M  V30 3587 H 343.139 -3.88154 -0.164006 0
M  V30 3588 H 344.811 -3.91139 2.44556 0
M  V30 3589 H 343.054 -3.64095 2.35833 0
M  V30 3590 H 343.725 -5.19702 1.86047 0
M  V30 3591 H 346.201 -4.15406 0.240257 0
M  V30 3592 H 345.077 -5.48752 -0.127485 0
M  V30 3593 H 345.338 -4.22062 -1.3159 0
M  V30 3594 N 344.397 -0.483516 -1.5 0
M  V30 3595 C 345.345 0.318061 -2.30415 0
M  V30 3596 C 346.339 0.978988 -1.38247 0
M  V30 3597 O 347.545 0.908673 -1.55381 0
M  V30 3598 H 343.92 0.121419 -0.742133 0
M  V30 3599 H 345.891 -0.380403 -2.95965 0
M  V30 3600 C 344.64 1.38013 -3.19136 0
M  V30 3601 H 343.963 0.880952 -3.89973 0
M  V30 3602 H 345.403 1.91332 -3.78375 0
M  V30 3603 C 343.862 2.38884 -2.37563 0
M  V30 3604 O 344.392 3.44412 -2.06744 0
M  V30 3605 N 342.598 2.10912 -1.99911 0
M  V30 3606 H 342.145 1.25118 -2.25174 0
M  V30 3607 H 342.103 2.78635 -1.45636 0
M  V30 3608 N 345.875 1.56104 -0.216619 0
M  V30 3609 C 347.1 2.0301 0.424462 0
M  V30 3610 C 347.525 1.0955 1.52907 0
M  V30 3611 O 346.883 0.0827914 1.81111 0
M  V30 3612 C 346.931 3.4819 0.937883 0
M  V30 3613 O 346.035 3.57865 2.04955 0
M  V30 3614 H 345.376 0.656925 0.0966755 0
M  V30 3615 H 347.906 2.01859 -0.33381 0
M  V30 3616 H 347.916 3.88413 1.24897 0
M  V30 3617 H 346.591 4.15699 0.129387 0
M  V30 3618 H 345.168 3.29527 1.74546 0
M  V30 3619 N 347.353 -0.0568162 1.57498 0
M  V30 3620 C 348.263 -1.08346 2.08083 0
M  V30 3621 C 349.279 -1.41439 1.01346 0
M  V30 3622 O 350.455 -1.51316 1.32912 0
M  V30 3623 C 347.52 -2.37352 2.52715 0
M  V30 3624 C 346.581 -2.11093 3.73816 0
M  V30 3625 C 345.814 -3.33949 4.1631 0
M  V30 3626 O 346.037 -4.43622 3.58547 0
M  V30 3627 O 344.971 -3.21279 5.08983 0
M  V30 3628 H 348.797 -0.683667 2.95905 0
M  V30 3629 H 346.382 -0.271965 1.46904 0
M  V30 3630 H 348.264 -3.13246 2.81877 0
M  V30 3631 H 346.939 -2.76681 1.68016 0
M  V30 3632 H 345.846 -1.32856 3.49714 0
M  V30 3633 H 347.179 -1.76637 4.59413 0
M  V30 3634 N 348.832 -1.54138 -0.328536 0
M  V30 3635 C 350.062 -1.75807 -1.08516 0
M  V30 3636 C 350.47 -0.50428 -1.82356 0
M  V30 3637 O 349.813 0.534451 -1.75754 0
M  V30 3638 C 349.875 -2.89423 -2.13248 0
M  V30 3639 C 349.539 -4.28504 -1.5885 0
M  V30 3640 C 350.536 -5.09536 -1.03289 0
M  V30 3641 C 348.221 -4.75034 -1.63243 0
M  V30 3642 C 350.215 -6.35206 -0.52845 0
M  V30 3643 C 347.902 -6.00672 -1.12411 0
M  V30 3644 C 348.9 -6.80592 -0.573062 0
M  V30 3645 O 348.588 -8.03867 -0.0723692 0
M  V30 3646 H 348.32 -0.590633 -0.328829 0
M  V30 3647 H 350.874 -2.01819 -0.381868 0
M  V30 3648 H 349.104 -2.5897 -2.87178 0
M  V30 3649 H 350.793 -2.98921 -2.74592 0
M  V30 3650 H 351.559 -4.74745 -0.99206 0
M  V30 3651 H 347.438 -4.12875 -2.05074 0
M  V30 3652 H 350.982 -6.97532 -0.0976774 0
M  V30 3653 H 346.879 -6.34955 -1.162 0
M  V30 3654 H 347.647 -8.18283 -0.188258 0
M  V30 3655 O 350.349 0.474497 -1.54372 0
M  V30 3656 H 351.04 1.12894 -1.574 0
M  V30 END ATOM
M  V30 BEGIN BOND
M  V30 END BOND
M  V30 END CTAB
M  END
$$$$
