drugbank_target|P0AE12 AMP nucleosidase (DB03464)
 OpenBabel12092120033D

  0  0  0     0  0            999 V3000
M  V30 BEGIN CTAB
M  V30 COUNTS 7543 7641 0 0 0
M  V30 BEGIN ATOM
M  V30 1 H -0.908 1.98254 -0.117106 0
M  V30 2 N 0 1.576 0 0
M  V30 3 C 0.933 2.03868 1.02534 0
M  V30 4 C 1.911 0.928543 1.3348 0
M  V30 5 O 3.095 1.19667 1.45644 0
M  V30 6 C 0.222 2.43627 2.35294 0
M  V30 7 C -0.732 3.65373 2.2001 0
M  V30 8 S 0.101 5.13292 1.52614 0
M  V30 9 C 1.257 5.56322 2.86805 0
M  V30 10 H 1.49 2.90518 0.631377 0
M  V30 11 H -0.977 1.52953 0.210867 0
M  V30 12 H 0.981 2.67203 3.11629 0
M  V30 13 H -0.358 1.57376 2.7183 0
M  V30 14 H -1.165 3.90944 3.18086 0
M  V30 15 H -1.563 3.418 1.51819 0
M  V30 16 H 0.729 5.58782 3.83104 0
M  V30 17 H 1.672 6.56266 2.65933 0
M  V30 18 H 2.08 4.83886 2.90714 0
M  V30 19 N 1.4781 -0.272755 1.55222 0
M  V30 20 C 2.4261 -1.35705 1.88909 0
M  V30 21 C 3.4201 -1.5112 0.765456 0
M  V30 22 O 4.6261 -1.52901 0.949802 0
M  V30 23 H 1.0011 -0.453868 0.59959 0
M  V30 24 H 2.9721 -1.04544 2.79487 0
M  V30 25 C 1.7211 -2.71049 2.17779 0
M  V30 26 H 1.0441 -2.59979 3.03728 0
M  V30 27 H 2.4841 -3.45858 2.45272 0
M  V30 28 C 0.9431 -3.22165 0.985473 0
M  V30 29 O 1.4731 -4.01096 0.220233 0
M  V30 30 N -0.3209 -2.7985 0.783108 0
M  V30 31 H -0.7739 -2.15775 1.40708 0
M  V30 32 H -0.8159 -3.14397 -0.0130392 0
M  V30 33 N 2.9562 -1.48159 -0.537278 0
M  V30 34 C 3.9042 -1.62573 -1.66352 0
M  V30 35 C 4.8982 -0.492366 -1.62087 0
M  V30 36 O 6.1042 -0.670847 -1.67032 0
M  V30 37 H 2.4792 -0.511992 -0.550789 0
M  V30 38 H 4.4502 -2.57176 -1.51337 0
M  V30 39 C 3.1992 -1.67583 -3.04649 0
M  V30 40 H 2.5222 -2.54151 -3.08622 0
M  V30 41 H 3.9622 -1.81713 -3.83088 0
M  V30 42 C 2.4212 -0.413039 -3.34358 0
M  V30 43 O 2.9512 0.477259 -3.98855 0
M  V30 44 N 1.1572 -0.286961 -2.8918 0
M  V30 45 H 0.7042 -1.01241 -2.36871 0
M  V30 46 H 0.6622 0.556963 -3.09427 0
M  V30 47 N 4.4343 0.785586 -1.36625 0
M  V30 48 C 5.3813 1.89838 -1.31264 0
M  V30 49 C 6.3513 1.65115 -0.180633 0
M  V30 50 O 7.5363 1.87222 -0.36777 0
M  V30 51 C 4.6763 3.26706 -1.11163 0
M  V30 52 C 3.7893 3.63476 -2.33472 0
M  V30 53 C 2.9243 4.89481 -2.06353 0
M  V30 54 C 1.9633 5.18941 -3.24602 0
M  V30 55 N 1.1003 6.36131 -2.97123 0
M  V30 56 H 5.9403 1.93756 -2.26413 0
M  V30 57 H 3.4773 0.947454 -1.12524 0
M  V30 58 H 5.4353 4.05639 -0.975337 0
M  V30 59 H 4.0653 3.222 -0.196674 0
M  V30 60 H 3.1173 2.79636 -2.57891 0
M  V30 61 H 4.4293 3.81193 -3.21704 0
M  V30 62 H 3.5833 5.76288 -1.89675 0
M  V30 63 H 2.3223 4.73841 -1.15437 0
M  V30 64 H 1.3273 4.30615 -3.41834 0
M  V30 65 H 2.5523 5.36498 -4.16349 0
M  V30 66 H 0.4983 6.21875 -2.08823 0
M  V30 67 H 0.4153 6.54198 -3.78894 0
M  V30 68 H 1.6833 7.2591 -2.84033 0
M  V30 69 N 5.9124 1.20967 1.01018 0
M  V30 70 C 7.1604 1.02172 1.74371 0
M  V30 71 C 7.4814 -0.446414 1.89821 0
M  V30 72 O 6.7514 -1.32234 1.44537 0
M  V30 73 H 5.3314 0.375066 0.646014 0
M  V30 74 H 7.9934 1.52187 1.21758 0
M  V30 75 H 7.0894 1.48538 2.74487 0
M  V30 76 N 7.3905 -1.2043 1.01659 0
M  V30 77 C 8.6155 -1.94318 0.724942 0
M  V30 78 C 9.0405 -1.74266 -0.708034 0
M  V30 79 O 8.3985 -1.03694 -1.48719 0
M  V30 80 C 8.4465 -3.44486 1.06591 0
M  V30 81 O 7.5505 -4.12017 0.177599 0
M  V30 82 H 6.8915 -0.60708 0.26898 0
M  V30 83 H 9.4215 -1.52861 1.35995 0
M  V30 84 H 9.4315 -3.95106 1.01762 0
M  V30 85 H 8.1065 -3.58404 2.10997 0
M  V30 86 H 6.6835 -3.71821 0.283421 0
M  V30 87 N 8.8686 -0.792821 -1.36206 0
M  V30 88 C 10.1166 -0.366062 -1.98757 0
M  V30 89 C 10.4376 1.0668 -1.63231 0
M  V30 90 O 9.7076 1.73587 -0.907978 0
M  V30 91 H 8.2876 -0.132364 -0.735179 0
M  V30 92 H 10.9496 -1.01562 -1.66347 0
M  V30 93 H 10.0456 -0.460638 -3.08682 0
M  V30 94 N 10.3467 1.47872 -0.545128 0
M  V30 95 C 11.2767 2.32661 0.197793 0
M  V30 96 C 12.2577 1.43041 0.920504 0
M  V30 97 O 13.4427 1.71912 0.90333 0
M  V30 98 C 10.5727 3.24569 1.23582 0
M  V30 99 C 9.5267 4.23333 0.630323 0
M  V30 100 C 8.8527 5.0448 1.77211 0
M  V30 101 C 10.1527 5.20704 -0.407974 0
M  V30 102 H 11.8467 2.95024 -0.510045 0
M  V30 103 H 9.3927 1.4187 -0.246731 0
M  V30 104 H 11.3457 3.8272 1.76362 0
M  V30 105 H 10.0697 2.60236 1.97344 0
M  V30 106 H 8.7287 3.6639 0.123922 0
M  V30 107 H 8.3767 4.36561 2.49847 0
M  V30 108 H 8.0767 5.71339 1.37281 0
M  V30 109 H 9.6007 5.65487 2.3034 0
M  V30 110 H 11.0147 5.7329 0.033305 0
M  V30 111 H 9.4117 5.95699 -0.725486 0
M  V30 112 H 10.4817 4.66917 -1.30828 0
M  V30 113 N 11.8248 0.280983 1.55075 0
M  V30 114 C 13.0528 -0.337293 2.04132 0
M  V30 115 C 13.4678 -1.4903 1.15912 0
M  V30 116 O 12.8248 -1.81606 0.180459 0
M  V30 117 C 12.8758 -0.812706 3.52246 0
M  V30 118 O 12.5968 0.294387 4.3711 0
M  V30 119 C 14.0978 -1.4982 4.17216 0
M  V30 120 H 11.3178 -0.0761638 0.666663 0
M  V30 121 H 13.8618 0.414787 2.00249 0
M  V30 122 H 12.0168 -1.51486 3.56554 0
M  V30 123 H 12.4308 -0.0721325 5.2445 0
M  V30 124 H 13.9048 -1.7822 5.22438 0
M  V30 125 H 14.3818 -2.43168 3.65741 0
M  V30 126 H 14.9878 -0.839742 4.16927 0
M  V30 127 N 13.3029 -1.57598 0.00835791 0
M  V30 128 C 14.7139 -1.7892 -0.53333 0
M  V30 129 C 15.0649 -0.916609 -1.73473 0
M  V30 130 O 14.1899 -0.121336 -2.1606 0
M  V30 131 C 14.7849 -3.24488 -0.974313 0
M  V30 132 C 13.3439 -3.46878 -1.46125 0
M  V30 133 C 12.4909 -2.74157 -0.416302 0
M  V30 134 H 15.4419 -1.56958 0.234495 0
M  V30 135 H 15.4629 -3.3306 -1.83988 0
M  V30 136 H 14.9749 -3.87972 -0.099718 0
M  V30 137 H 13.0759 -2.8862 -2.35646 0
M  V30 138 H 13.1889 -4.55572 -1.48295 0
M  V30 139 H 11.5529 -2.39022 -0.87981 0
M  V30 140 H 12.3359 -3.40345 0.44947 0
M  V30 141 N 14.781 0.264519 -1.55364 0
M  V30 142 C 15.744 1.31046 -1.88042 0
M  V30 143 C 16.744 1.41943 -0.755569 0
M  V30 144 O 17.934 1.40947 -1.02369 0
M  V30 145 C 15.066 2.69067 -2.09323 0
M  V30 146 H 16.259 1.03297 -2.81549 0
M  V30 147 H 13.812 0.502989 -1.47986 0
M  V30 148 H 14.547 3.01982 -1.18226 0
M  V30 149 H 14.332 2.62542 -2.91229 0
M  V30 150 H 15.822 3.44623 -2.35848 0
M  V30 151 N 16.2591 1.48442 0.529413 0
M  V30 152 C 17.1911 1.59095 1.64989 0
M  V30 153 C 18.2041 0.475212 1.5571 0
M  V30 154 O 19.3931 0.746081 1.6216 0
M  V30 155 C 16.4931 1.50518 3.0364 0
M  V30 156 C 15.6661 2.77142 3.38395 0
M  V30 157 C 14.7251 2.62012 4.56329 0
M  V30 158 O 13.7511 3.35898 4.59522 0
M  V30 159 N 14.9531 1.71667 5.54536 0
M  V30 160 H 17.7181 2.55723 1.56287 0
M  V30 161 H 15.2791 1.45173 0.716697 0
M  V30 162 H 17.2711 1.38091 3.80412 0
M  V30 163 H 15.8411 0.618627 3.06418 0
M  V30 164 H 15.0611 3.0413 2.50796 0
M  V30 165 H 16.3491 3.61146 3.58401 0
M  V30 166 H 15.7471 1.10841 5.54735 0
M  V30 167 H 14.3041 1.65178 6.30523 0
M  V30 168 N 17.7372 -0.778329 1.37039 0
M  V30 169 C 18.7002 -1.87301 1.32102 0
M  V30 170 C 19.7002 -1.59198 0.226405 0
M  V30 171 O 20.8902 -1.67403 0.481861 0
M  V30 172 C 18.0222 -3.24309 1.05055 0
M  V30 173 H 19.2152 -1.93093 2.29467 0
M  V30 174 H 16.7682 -0.977358 1.21973 0
M  V30 175 H 17.5032 -3.24196 0.0819373 0
M  V30 176 H 17.2882 -3.46098 1.84279 0
M  V30 177 H 18.7782 -4.04382 1.04234 0
M  V30 178 N 19.2153 -1.21501 -1.00376 0
M  V30 179 C 20.1453 -0.999478 -2.11028 0
M  V30 180 C 21.1263 0.0759671 -1.6993 0
M  V30 181 O 22.3113 -0.0841106 -1.94018 0
M  V30 182 C 19.4413 -0.564709 -3.42678 0
M  V30 183 C 18.3953 -1.58486 -3.97576 0
M  V30 184 C 17.7213 -1.00628 -5.25146 0
M  V30 185 C 19.0213 -2.97204 -4.29496 0
M  V30 186 H 20.7153 -1.92495 -2.29317 0
M  V30 187 H 18.2613 -0.92693 -1.102 0
M  V30 188 H 20.2143 -0.401091 -4.19487 0
M  V30 189 H 18.9383 0.396411 -3.24185 0
M  V30 190 H 17.5973 -1.73606 -3.22888 0
M  V30 191 H 17.2453 -0.0368439 -5.02987 0
M  V30 192 H 16.9453 -1.68771 -5.62841 0
M  V30 193 H 18.4693 -0.854015 -6.04598 0
M  V30 194 H 19.8833 -2.8552 -4.97143 0
M  V30 195 H 18.2803 -3.62372 -4.78338 0
M  V30 196 H 19.3503 -3.47956 -3.3772 0
M  V30 197 N 20.6934 1.19889 -1.02296 0
M  V30 198 C 21.9704 1.85148 -0.630832 0
M  V30 199 C 22.3504 1.91385 0.890782 0
M  V30 200 O 21.6984 1.42642 1.78509 0
M  V30 201 C 21.9084 3.24442 -1.28602 0
M  V30 202 C 23.2564 4.00663 -1.4055 0
M  V30 203 O 24.2804 3.33818 -1.24273 0
M  V30 204 O 23.1394 5.20387 -1.66913 0
M  V30 205 H 20.2334 0.797613 -0.218499 0
M  V30 206 H 22.7794 1.27427 -1.12074 0
M  V30 207 H 21.5514 3.14704 -2.32545 0
M  V30 208 H 21.1744 3.89802 -0.7836 0
M  V30 209 N 22.1715 0.800033 1.35784 0
M  V30 210 C 23.1185 0.203848 2.29898 0
M  V30 211 C 24.0885 -0.658375 1.52495 0
M  V30 212 O 25.2735 -0.604832 1.8096 0
M  V30 213 C 22.4135 -0.64688 3.38983 0
M  V30 214 C 21.5265 0.235054 4.3136 0
M  V30 215 C 20.6615 -0.623054 5.27533 0
M  V30 216 C 19.7005 0.259682 6.11549 0
M  V30 217 N 18.8375 -0.558019 6.99879 0
M  V30 218 H 23.6775 1.01186 2.80295 0
M  V30 219 H 21.2145 0.51053 1.37957 0
M  V30 220 H 23.1725 -1.15521 4.00887 0
M  V30 221 H 21.8025 -1.42021 2.89879 0
M  V30 222 H 20.8545 0.861438 3.70518 0
M  V30 223 H 22.1665 0.914768 4.9034 0
M  V30 224 H 21.3205 -1.19678 5.94779 0
M  V30 225 H 20.0595 -1.33636 4.69034 0
M  V30 226 H 19.0645 0.845726 5.43256 0
M  V30 227 H 20.2895 0.970748 6.72126 0
M  V30 228 H 18.2355 -1.25542 6.43875 0
M  V30 229 H 18.1525 0.0637872 7.55973 0
M  V30 230 H 19.4205 -1.11523 7.71481 0
M  V30 231 N 23.6496 -1.47581 0.552962 0
M  V30 232 C 24.5796 -2.32762 -0.185451 0
M  V30 233 C 25.5606 -1.43527 -0.912905 0
M  V30 234 O 26.7456 -1.72388 -0.894201 0
M  V30 235 C 23.8756 -3.25219 -1.21859 0
M  V30 236 C 22.8296 -4.23661 -0.607864 0
M  V30 237 C 22.1556 -5.05413 -1.74533 0
M  V30 238 C 23.4556 -5.20481 0.435582 0
M  V30 239 H 25.1496 -2.94749 0.525684 0
M  V30 240 H 22.6956 -1.41738 0.254251 0
M  V30 241 H 24.6486 -3.8365 -1.7433 0
M  V30 242 H 23.3726 -2.61279 -1.95961 0
M  V30 243 H 22.0316 -3.66451 -0.104489 0
M  V30 244 H 21.6796 -4.3788 -2.47529 0
M  V30 245 H 21.3796 -5.72059 -1.34249 0
M  V30 246 H 22.9036 -5.66701 -2.27338 0
M  V30 247 H 24.3176 -5.733 -0.00290157 0
M  V30 248 H 22.7146 -5.95305 0.757067 0
M  V30 249 H 23.7846 -4.66217 1.33303 0
M  V30 250 N 25.1277 -0.289203 -1.54924 0
M  V30 251 C 26.4047 0.376032 -1.91951 0
M  V30 252 C 26.7847 1.72622 -1.21511 0
M  V30 253 O 26.1327 2.25853 -0.346767 0
M  V30 254 C 26.3427 0.502378 -3.45365 0
M  V30 255 C 27.6907 0.778741 -4.17398 0
M  V30 256 O 28.7147 0.586647 -3.51336 0
M  V30 257 O 27.5737 1.14698 -5.34328 0
M  V30 258 H 24.6677 0.208167 -0.800372 0
M  V30 259 H 27.2137 -0.336394 -1.66332 0
M  V30 260 H 25.9857 -0.447255 -3.88736 0
M  V30 261 H 25.6087 1.26373 -3.76982 0
M  V30 262 N 26.6058 1.57591 -0.0167156 0
M  V30 263 C 27.5688 2.08393 0.954204 0
M  V30 264 C 28.5688 0.996531 1.26198 0
M  V30 265 O 29.7588 1.25858 1.20438 0
M  V30 266 C 26.8908 2.5394 2.27436 0
M  V30 267 H 28.0838 2.95455 0.514451 0
M  V30 268 H 25.6368 1.54582 0.231089 0
M  V30 269 H 26.3718 1.70171 2.76066 0
M  V30 270 H 26.1568 3.33371 2.06412 0
M  V30 271 H 27.6468 2.93512 2.97053 0
M  V30 272 N 28.0839 -0.256276 1.55502 0
M  V30 273 C 29.0139 -1.32102 1.92539 0
M  V30 274 C 29.9949 -1.50684 0.789194 0
M  V30 275 O 31.1799 -1.63449 1.04872 0
M  V30 276 C 28.3099 -2.67752 2.21192 0
M  V30 277 C 27.2639 -2.63878 3.36975 0
M  V30 278 C 26.5899 -4.03236 3.51147 0
M  V30 279 C 27.8899 -2.21682 4.72921 0
M  V30 280 H 29.5839 -1.01351 2.81724 0
M  V30 281 H 27.1299 -0.486105 1.35547 0
M  V30 282 H 29.0829 -3.42365 2.45691 0
M  V30 283 H 27.8069 -3.0012 1.28824 0
M  V30 284 H 26.4659 -1.91722 3.12471 0
M  V30 285 H 26.1139 -4.32854 2.56216 0
M  V30 286 H 25.8139 -4.01535 4.29003 0
M  V30 287 H 27.3379 -4.79563 3.77957 0
M  V30 288 H 28.7519 -2.86023 4.96854 0
M  V30 289 H 27.1489 -2.3111 5.53812 0
M  V30 290 H 28.2189 -1.16833 4.70615 0
M  V30 291 N 29.562 -1.4872 -0.521534 0
M  V30 292 C 30.792 -1.6061 -1.29954 0
M  V30 293 C 31.2 -0.268728 -1.87282 0
M  V30 294 O 30.543 0.753221 -1.67548 0
M  V30 295 C 30.605 -2.60013 -2.48261 0
M  V30 296 C 30.269 -4.04874 -2.11957 0
M  V30 297 C 31.266 -4.92304 -1.67132 0
M  V30 298 C 28.951 -4.5047 -2.22221 0
M  V30 299 C 30.945 -6.2336 -1.33047 0
M  V30 300 C 28.632 -5.81544 -1.87748 0
M  V30 301 C 29.63 -6.67812 -1.43234 0
M  V30 302 O 29.318 -7.96446 -1.09217 0
M  V30 303 H 29.05 -0.544116 -0.401141 0
M  V30 304 H 31.604 -1.95339 -0.634958 0
M  V30 305 H 29.834 -2.20422 -3.17728 0
M  V30 306 H 31.523 -2.61648 -3.10315 0
M  V30 307 H 32.289 -4.58312 -1.58665 0
M  V30 308 H 28.168 -3.83504 -2.55823 0
M  V30 309 H 31.712 -6.90649 -0.982299 0
M  V30 310 H 27.609 -6.15069 -1.95858 0
M  V30 311 H 28.377 -8.09275 -1.22542 0
M  V30 312 N 31.0401 0.771051 -1.3745 0
M  V30 313 C 31.9501 1.91538 -1.35464 0
M  V30 314 C 32.9661 1.72134 -0.254123 0
M  V30 315 O 34.1421 1.95358 -0.489626 0
M  V30 316 C 31.2071 3.26671 -1.16134 0
M  V30 317 C 30.2681 3.58723 -2.35831 0
M  V30 318 C 29.5011 4.87409 -2.17413 0
M  V30 319 O 29.7241 5.58506 -1.15876 0
M  V30 320 O 28.6581 5.18539 -3.05615 0
M  V30 321 H 32.4841 1.96165 -2.31847 0
M  V30 322 H 30.0691 0.9139 -1.18187 0
M  V30 323 H 31.9511 4.07499 -1.07345 0
M  V30 324 H 30.6261 3.22894 -0.228251 0
M  V30 325 H 29.5331 2.78127 -2.50192 0
M  V30 326 H 30.8661 3.67243 -3.27709 0
M  V30 327 N 32.5182 1.22032 0.997298 0
M  V30 328 C 33.4502 0.944263 2.08845 0
M  V30 329 C 34.4632 -0.0754663 1.62625 0
M  V30 330 O 35.6522 0.157994 1.77799 0
M  V30 331 C 32.7522 0.397723 3.36558 0
M  V30 332 C 31.9252 1.47362 4.11829 0
M  V30 333 C 30.9842 0.934951 5.17827 0
M  V30 334 O 30.0102 1.62016 5.45655 0
M  V30 335 N 31.2122 -0.245895 5.79979 0
M  V30 336 H 33.9772 1.88363 2.33109 0
M  V30 337 H 31.5382 1.12661 1.16272 0
M  V30 338 H 33.5302 0.0227771 4.04694 0
M  V30 339 H 32.1002 -0.446646 3.09393 0
M  V30 340 H 31.3202 2.02208 3.38386 0
M  V30 341 H 32.6082 2.19764 4.58891 0
M  V30 342 H 32.0062 -0.819475 5.59733 0
M  V30 343 H 30.5632 -0.562272 6.4937 0
M  V30 344 N 33.9963 -1.19345 1.0293 0
M  V30 345 C 35.2213 -1.93538 0.745511 0
M  V30 346 C 35.6463 -1.75007 -0.689511 0
M  V30 347 O 35.0043 -1.05265 -1.47611 0
M  V30 348 C 35.0523 -3.43336 1.10239 0
M  V30 349 O 34.1563 -4.11806 0.221289 0
M  V30 350 H 33.4973 -0.604193 0.275404 0
M  V30 351 H 36.0273 -1.5141 1.37609 0
M  V30 352 H 36.0373 -3.94004 1.05947 0
M  V30 353 H 34.7123 -3.56146 2.14786 0
M  V30 354 H 33.2893 -3.715 0.322842 0
M  V30 355 N 35.4744 -0.807222 -1.35358 0
M  V30 356 C 36.7204 -0.388463 -1.99045 0
M  V30 357 C 37.0534 1.04184 -1.63888 0
M  V30 358 O 36.3284 1.72292 -0.902535 0
M  V30 359 C 36.6114 -0.572783 -3.55515 0
M  V30 360 C 36.4644 -2.04807 -4.00468 0
M  V30 361 C 37.7834 0.00114064 -4.401 0
M  V30 362 H 34.9024 -0.142619 -0.723069 0
M  V30 363 H 37.5444 -1.01687 -1.60498 0
M  V30 364 H 35.6944 -0.0378425 -3.88482 0
M  V30 365 H 37.3664 -2.64544 -3.77908 0
M  V30 366 H 35.6094 -2.54427 -3.51353 0
M  V30 367 H 36.2804 -2.12792 -5.09337 0
M  V30 368 H 38.7564 -0.455716 -4.13597 0
M  V30 369 H 37.6324 -0.157737 -5.48673 0
M  V30 370 H 37.8934 1.09488 -4.28328 0
M  V30 371 N 36.9525 1.47285 -0.560781 0
M  V30 372 C 38.1985 2.02764 -0.0381184 0
M  V30 373 C 38.5315 1.43384 1.30976 0
M  V30 374 O 37.8065 0.590733 1.85312 0
M  V30 375 C 38.0895 3.60064 0.0511427 0
M  V30 376 C 37.9425 4.2987 -1.32408 0
M  V30 377 C 39.2615 4.33439 0.762795 0
M  V30 378 H 36.3805 0.736841 -0.0153264 0
M  V30 379 H 39.0225 1.75675 -0.723759 0
M  V30 380 H 37.1725 3.83274 0.635065 0
M  V30 381 H 38.8445 4.17989 -1.95148 0
M  V30 382 H 37.0875 3.90085 -1.8978 0
M  V30 383 H 37.7585 5.38478 -1.21431 0
M  V30 384 H 40.2345 4.15243 0.266965 0
M  V30 385 H 39.1105 5.43124 0.794221 0
M  V30 386 H 39.3715 4.02915 1.81966 0
M  V30 387 N 38.4306 0.297415 1.54768 0
M  V30 388 C 39.3936 -0.567375 2.22066 0
M  V30 389 C 40.3936 -1.06409 1.20556 0
M  V30 390 O 41.5836 -0.960691 1.45315 0
M  V30 391 C 38.7156 -1.78517 2.90421 0
M  V30 392 H 39.9086 0.0205534 2.99893 0
M  V30 393 H 37.4616 0.0482163 1.56226 0
M  V30 394 H 38.1966 -2.41303 2.16664 0
M  V30 395 H 37.9816 -1.43669 3.64831 0
M  V30 396 H 39.4716 -2.39964 3.41771 0
M  V30 397 N 39.9087 -1.5758 0.0250728 0
M  V30 398 C 40.8387 -2.13007 -0.956575 0
M  V30 399 C 41.8197 -1.0452 -1.342 0
M  V30 400 O 43.0047 -1.32332 -1.42133 0
M  V30 401 C 40.1347 -2.65386 -2.24026 0
M  V30 402 C 39.0887 -3.78623 -1.99571 0
M  V30 403 C 38.4147 -4.17414 -3.3417 0
M  V30 404 C 39.7147 -5.04867 -1.33814 0
M  V30 405 H 41.4087 -2.9528 -0.494991 0
M  V30 406 H 38.9547 -1.42042 -0.236651 0
M  V30 407 H 40.9077 -3.02794 -2.93076 0
M  V30 408 H 39.6317 -1.80268 -2.72343 0
M  V30 409 H 38.2907 -3.41646 -1.32941 0
M  V30 410 H 37.9387 -3.29284 -3.80238 0
M  V30 411 H 37.6387 -4.93719 -3.18615 0
M  V30 412 H 39.1627 -4.57402 -4.04495 0
M  V30 413 H 40.5767 -5.39888 -1.92857 0
M  V30 414 H 38.9737 -5.86144 -1.28669 0
M  V30 415 H 40.0437 -4.83904 -0.310561 0
M  V30 416 N 41.3868 0.248026 -1.55636 0
M  V30 417 C 42.8028 0.596483 -1.48035 0
M  V30 418 C 43.0028 1.88386 -0.715039 0
M  V30 419 O 42.0588 2.51319 -0.243944 0
M  V30 420 C 43.3718 0.700258 -2.92433 0
M  V30 421 C 44.9198 0.792659 -3.02797 0
M  V30 422 C 45.3948 0.928005 -4.485 0
M  V30 423 N 46.8858 0.992903 -4.52433 0
M  V30 424 C 47.6208 1.11687 -5.62418 0
M  V30 425 N 47.1168 1.20645 -6.82214 0
M  V30 426 N 48.9098 1.14994 -5.50212 0
M  V30 427 H 41.0608 -0.597109 -2.03834 0
M  V30 428 H 43.3238 -0.205925 -0.925364 0
M  V30 429 H 43.0298 -0.175658 -3.51261 0
M  V30 430 H 42.9038 1.57255 -3.42857 0
M  V30 431 H 45.2908 1.65903 -2.4405 0
M  V30 432 H 45.3718 -0.104762 -2.55585 0
M  V30 433 H 45.0158 0.0661971 -5.07857 0
M  V30 434 H 44.9458 1.84045 -4.93391 0
M  V30 435 H 47.4368 0.935064 -3.66149 0
M  V30 436 H 47.7498 1.30008 -7.61786 0
M  V30 437 H 46.0948 1.17605 -6.84977 0
M  V30 438 H 49.2858 1.07643 -4.55555 0
M  V30 439 H 49.4588 1.24311 -6.35965 0
M  V30 440 N 42.8649 1.48995 0.513639 0
M  V30 441 C 43.8129 1.65199 1.63744 0
M  V30 442 C 44.8069 0.51809 1.61283 0
M  V30 443 O 46.0129 0.697335 1.65943 0
M  V30 444 H 42.3879 0.52069 0.542574 0
M  V30 445 H 44.3589 2.59552 1.47226 0
M  V30 446 C 43.1079 1.72409 3.01945 0
M  V30 447 H 42.4309 2.59029 3.04539 0
M  V30 448 H 43.8709 1.87785 3.80148 0
M  V30 449 C 42.3299 0.46618 3.33659 0
M  V30 450 O 42.8599 -0.413744 3.99564 0
M  V30 451 N 41.0659 0.332931 2.88687 0
M  V30 452 H 40.6129 1.04996 2.35231 0
M  V30 453 H 40.5709 -0.507665 3.10274 0
M  V30 454 N 44.343 -0.763751 1.37857 0
M  V30 455 C 45.306 -1.85889 1.34081 0
M  V30 456 C 46.306 -1.58949 0.243277 0
M  V30 457 O 47.496 -1.66882 0.499589 0
M  V30 458 C 44.628 -3.23176 1.08489 0
M  V30 459 H 45.821 -1.90648 2.31502 0
M  V30 460 H 43.374 -0.964367 1.23003 0
M  V30 461 H 44.109 -3.24091 0.116318 0
M  V30 462 H 43.894 -3.44124 1.8794 0
M  V30 463 H 45.384 -4.03254 1.08517 0
M  V30 464 N 45.8211 -1.22559 -0.990812 0
M  V30 465 C 47.0701 -1.04553 -1.72486 0
M  V30 466 C 47.3831 0.419349 -1.91052 0
M  V30 467 O 48.5891 0.719121 -2.61803 0
M  V30 468 C 47.0451 -1.82231 -3.10355 0
M  V30 469 C 46.6531 -3.32981 -2.99713 0
M  V30 470 C 48.3971 -1.7268 -3.87791 0
M  V30 471 C 46.3041 -4.03091 -4.32748 0
M  V30 472 H 45.2341 -0.387614 -0.646739 0
M  V30 473 H 47.8851 -1.46429 -1.10593 0
M  V30 474 H 46.2671 -1.33155 -3.72942 0
M  V30 475 H 47.4411 -3.89466 -2.46278 0
M  V30 476 H 45.7561 -3.43231 -2.35758 0
M  V30 477 H 48.3531 -2.22381 -4.86262 0
M  V30 478 H 48.6961 -0.687607 -4.10582 0
M  V30 479 H 49.2291 -2.1931 -3.31885 0
M  V30 480 H 45.9681 -5.07273 -4.15156 0
M  V30 481 H 45.4881 -3.51394 -4.86089 0
M  V30 482 H 47.1671 -4.08804 -5.01486 0
M  V30 483 N 47.2992 1.18797 -1.03562 0
M  V30 484 C 48.5472 1.88278 -0.734569 0
M  V30 485 C 48.8682 1.8043 0.739586 0
M  V30 486 O 48.1382 1.21925 1.53333 0
M  V30 487 H 46.7182 0.696991 -0.268725 0
M  V30 488 H 49.3802 1.44192 -1.31129 0
M  V30 489 H 48.4762 2.94443 -1.03489 0
M  V30 490 N 48.7773 0.814389 1.34928 0
M  V30 491 C 49.7253 0.218424 2.31572 0
M  V30 492 C 50.7193 -0.636128 1.57002 0
M  V30 493 O 51.9253 -0.52842 1.72069 0
M  V30 494 H 48.3003 0.0518799 0.750208 0
M  V30 495 H 50.2713 1.04852 2.79372 0
M  V30 496 C 49.0203 -0.61207 3.4227 0
M  V30 497 H 48.3433 0.0361578 3.99784 0
M  V30 498 H 49.7833 -0.995317 4.12152 0
M  V30 499 C 48.2423 -1.78087 2.85984 0
M  V30 500 O 48.7723 -2.8787 2.80168 0
M  V30 501 N 46.9783 -1.59488 2.42924 0
M  V30 502 H 46.5253 -0.701874 2.47854 0
M  V30 503 H 46.4833 -2.37846 2.05613 0
M  V30 504 N 50.2554 -1.46986 0.568584 0
M  V30 505 C 51.4854 -2.0653 0.0539173 0
M  V30 506 C 51.8934 -1.42004 -1.25026 0
M  V30 507 O 51.2364 -0.514541 -1.76347 0
M  V30 508 C 51.2984 -3.58938 -0.200854 0
M  V30 509 C 50.9624 -4.45572 1.01559 0
M  V30 510 C 51.9594 -4.82986 1.92407 0
M  V30 511 C 49.6444 -4.8692 1.23346 0
M  V30 512 C 51.6384 -5.60559 3.03402 0
M  V30 513 C 49.3254 -5.64255 2.34649 0
M  V30 514 C 50.3234 -6.00986 3.24507 0
M  V30 515 O 50.0114 -6.76761 4.33878 0
M  V30 516 H 49.7434 -0.674292 0.0480234 0
M  V30 517 H 52.2974 -1.89812 0.784896 0
M  V30 518 H 50.5274 -3.73911 -0.986279 0
M  V30 519 H 52.2164 -4.0046 -0.662294 0
M  V30 520 H 52.9824 -4.51633 1.76785 0
M  V30 521 H 48.8614 -4.57789 0.543178 0
M  V30 522 H 52.4054 -5.89147 3.73565 0
M  V30 523 H 48.3024 -5.95021 2.5024 0
M  V30 524 H 49.0704 -6.95168 4.32068 0
M  V30 525 N 51.7335 -0.305618 -1.54608 0
M  V30 526 C 52.9825 0.303098 -1.9941 0
M  V30 527 C 53.2955 1.54648 -1.19764 0
M  V30 528 O 54.5015 2.23007 -1.54855 0
M  V30 529 C 52.9575 0.590588 -3.55021 0
M  V30 530 C 52.5655 -0.634719 -4.43481 0
M  V30 531 C 54.3095 1.16025 -4.08336 0
M  V30 532 C 52.2165 -0.320126 -5.90533 0
M  V30 533 H 51.1465 0.117031 -0.744862 0
M  V30 534 H 53.7975 -0.415045 -1.78745 0
M  V30 535 H 52.1795 1.36845 -3.71604 0
M  V30 536 H 53.3535 -1.41079 -4.38672 0
M  V30 537 H 51.6685 -1.12333 -4.00962 0
M  V30 538 H 54.2655 1.40994 -5.15776 0
M  V30 539 H 54.6085 2.10397 -3.5922 0
M  V30 540 H 55.1415 0.443985 -3.95315 0
M  V30 541 H 51.8805 -1.23254 -6.43808 0
M  V30 542 H 51.4005 0.418579 -5.98338 0
M  V30 543 H 53.0795 0.0766241 -6.46955 0
M  V30 544 N 53.2116 1.57565 -0.0334293 0
M  V30 545 C 54.4396 1.9628 0.654347 0
M  V30 546 C 54.8546 0.910138 1.65414 0
M  V30 547 O 54.2116 -0.107595 1.82183 0
M  V30 548 C 54.2626 3.35067 1.35693 0
M  V30 549 O 53.9836 4.36296 0.397191 0
M  V30 550 C 55.4846 3.88439 2.13613 0
M  V30 551 H 52.7046 0.646369 0.180132 0
M  V30 552 H 55.2486 2.04282 -0.0944721 0
M  V30 553 H 53.4036 3.2827 2.05712 0
M  V30 554 H 53.8176 5.1678 0.896597 0
M  V30 555 H 55.2916 4.8788 2.58219 0
M  V30 556 H 55.7686 3.22914 2.97696 0
M  V30 557 H 56.3746 3.98516 1.48543 0
M  V30 558 N 54.6897 -0.239769 1.55765 0
M  V30 559 C 55.9147 -0.988373 1.82335 0
M  V30 560 C 56.3397 -1.77886 0.611421 0
M  V30 561 O 55.6977 -1.75889 -0.439639 0
M  V30 562 C 55.7457 -1.89627 3.06715 0
M  V30 563 O 54.8497 -2.98904 2.84131 0
M  V30 564 H 54.1907 -0.280858 0.601677 0
M  V30 565 H 56.7207 -0.258597 2.02959 0
M  V30 566 H 56.7307 -2.30957 3.36338 0
M  V30 567 H 55.4057 -1.31511 3.9456 0
M  V30 568 H 53.9827 -2.61651 2.65694 0
M  V30 569 N 56.1678 -1.49265 -0.50573 0
M  V30 570 C 57.4158 -1.582 -1.25766 0
M  V30 571 C 57.7368 -0.268482 -1.93143 0
M  V30 572 O 57.0068 0.711833 -1.8251 0
M  V30 573 H 55.5868 -0.582873 -0.467191 0
M  V30 574 H 58.2488 -1.85865 -0.586525 0
M  V30 575 H 57.3448 -2.37563 -2.02412 0
M  V30 576 N 57.6459 0.756429 -1.3826 0
M  V30 577 C 58.5559 1.9009 -1.37488 0
M  V30 578 C 59.5719 1.71855 -0.272366 0
M  V30 579 O 60.7479 1.94827 -0.510318 0
M  V30 580 C 57.8129 3.25421 -1.19592 0
M  V30 581 C 56.8739 3.56202 -2.39622 0
M  V30 582 C 56.1069 4.85075 -2.2257 0
M  V30 583 O 56.3299 5.57246 -1.21793 0
M  V30 584 O 55.2639 5.15269 -3.11098 0
M  V30 585 H 59.0899 1.93695 -2.33914 0
M  V30 586 H 56.6749 0.901313 -1.1915 0
M  V30 587 H 58.5569 4.06337 -1.11661 0
M  V30 588 H 57.2319 3.22634 -0.262486 0
M  V30 589 H 56.1389 2.75458 -2.53128 0
M  V30 590 H 57.4719 3.63747 -3.31586 0
M  V30 591 N 59.124 1.23083 0.984299 0
M  V30 592 C 60.054 1.03292 2.09411 0
M  V30 593 C 61.035 -0.048923 1.7003 0
M  V30 594 O 62.22 0.114967 1.93859 0
M  V30 595 C 59.35 0.619155 3.41736 0
M  V30 596 C 58.304 1.64791 3.95004 0
M  V30 597 C 57.63 1.0897 5.23478 0
M  V30 598 C 58.93 3.03999 4.24714 0
M  V30 599 H 60.624 1.96119 2.26225 0
M  V30 600 H 58.17 0.944344 1.08711 0
M  V30 601 H 60.123 0.467777 4.18796 0
M  V30 602 H 58.847 -0.344786 3.24775 0
M  V30 603 H 57.506 1.78721 3.20085 0
M  V30 604 H 57.154 0.11686 5.02864 0
M  V30 605 H 56.854 1.77704 5.60085 0
M  V30 606 H 58.378 0.950093 6.03163 0
M  V30 607 H 59.792 2.93393 4.92538 0
M  V30 608 H 58.189 3.69936 4.72512 0
M  V30 609 H 59.259 3.53285 3.32142 0
M  V30 610 N 60.6021 -1.18246 1.0419 0
M  V30 611 C 62.0131 -1.69914 0.773698 0
M  V30 612 C 62.3641 -1.83085 -0.705297 0
M  V30 613 O 61.4891 -1.51123 -1.5489 0
M  V30 614 C 62.0841 -3.08619 1.39784 0
M  V30 615 C 60.6431 -3.57494 1.17792 0
M  V30 616 C 59.7901 -2.34013 1.48773 0
M  V30 617 H 62.7411 -1.02904 1.20816 0
M  V30 618 H 62.7621 -3.71958 0.801714 0
M  V30 619 H 62.2741 -2.99001 2.47426 0
M  V30 620 H 60.3751 -3.72406 0.120295 0
M  V30 621 H 60.4881 -4.40852 1.87581 0
M  V30 622 H 58.8521 -2.37986 0.907463 0
M  V30 623 H 59.6351 -2.27013 2.57527 0
M  V30 624 N 62.0802 -0.821533 -1.34494 0
M  V30 625 C 63.3572 -0.33159 -1.92769 0
M  V30 626 C 63.7372 1.18088 -1.74981 0
M  V30 627 O 63.0852 1.98733 -1.12772 0
M  V30 628 C 63.2952 -0.759398 -3.40638 0
M  V30 629 C 64.6432 -0.757433 -4.1779 0
M  V30 630 O 65.6672 -0.70189 -3.49216 0
M  V30 631 O 64.5262 -0.829361 -5.4017 0
M  V30 632 H 61.6202 -0.0902502 -0.822061 0
M  V30 633 H 64.1662 -0.906231 -1.43477 0
M  V30 634 H 62.9382 -1.8012 -3.47379 0
M  V30 635 H 62.5612 -0.160378 -3.97276 0
M  V30 636 N 63.5583 1.46682 -0.576371 0
M  V30 637 C 64.4683 2.34032 0.163141 0
M  V30 638 C 65.4843 1.49367 0.892501 0
M  V30 639 O 66.6603 1.82252 0.857106 0
M  V30 640 C 63.7253 3.26435 1.16795 0
M  V30 641 C 62.7863 4.26998 0.443944 0
M  V30 642 C 62.0193 5.14986 1.40088 0
M  V30 643 O 62.2423 5.05785 2.637 0
M  V30 644 O 61.1763 5.94906 0.914917 0
M  V30 645 H 65.0023 2.98607 -0.55388 0
M  V30 646 H 62.5873 1.45554 -0.336821 0
M  V30 647 H 64.4693 3.83459 1.74748 0
M  V30 648 H 63.1443 2.64465 1.86655 0
M  V30 649 H 62.0513 3.7368 -0.177271 0
M  V30 650 H 63.3843 4.91736 -0.213566 0
M  V30 651 N 65.0364 0.313813 1.54444 0
M  V30 652 C 65.9844 -0.572171 2.25453 0
M  V30 653 C 66.9784 -1.12657 1.2651 0
M  V30 654 O 68.1844 -1.07573 1.44319 0
M  V30 655 H 64.5594 -0.203146 0.724041 0
M  V30 656 H 66.5304 0.0491145 2.9836 0
M  V30 657 C 65.2794 -1.72626 3.0182 0
M  V30 658 H 64.6024 -1.30891 3.77767 0
M  V30 659 H 66.0424 -2.32199 3.54767 0
M  V30 660 C 64.5014 -2.63806 2.09542 0
M  V30 661 O 65.0314 -3.65256 1.67185 0
M  V30 662 N 63.2374 -2.31824 1.75232 0
M  V30 663 H 62.7844 -1.49368 2.09873 0
M  V30 664 H 62.7424 -2.93095 1.13767 0
M  V30 665 N 66.5145 -1.57545 0.0417849 0
M  V30 666 C 67.4775 -2.09885 -0.92093 0
M  V30 667 C 68.4775 -1.01648 -1.24596 0
M  V30 668 O 69.6675 -1.27759 -1.1842 0
M  V30 669 C 66.7995 -2.57527 -2.23367 0
M  V30 670 H 67.9925 -2.96236 -0.467382 0
M  V30 671 H 65.5455 -1.5493 -0.206467 0
M  V30 672 H 66.2805 -1.74542 -2.73323 0
M  V30 673 H 66.0655 -3.36613 -2.01083 0
M  V30 674 H 67.5555 -2.98201 -2.92346 0
M  V30 675 N 67.9926 0.231505 -1.5589 0
M  V30 676 C 69.4086 0.580748 -1.48659 0
M  V30 677 C 69.6086 1.87617 -0.73498 0
M  V30 678 O 68.6646 2.51046 -0.270586 0
M  V30 679 C 69.9776 0.669202 -2.93159 0
M  V30 680 C 71.5256 0.760499 -3.03621 0
M  V30 681 C 72.0006 0.880383 -4.49459 0
M  V30 682 N 73.4916 0.944861 -4.53461 0
M  V30 683 C 74.2266 1.05716 -5.63571 0
M  V30 684 N 73.7226 1.13403 -6.83456 0
M  V30 685 N 75.5156 1.09152 -5.514 0
M  V30 686 H 67.6666 -0.618695 -2.03189 0
M  V30 687 H 69.9296 -0.215728 -0.923128 0
M  V30 688 H 69.6356 -0.212904 -3.51055 0
M  V30 689 H 69.5096 1.5361 -3.44505 0
M  V30 690 H 71.8966 1.63305 -2.45796 0
M  V30 691 H 71.9776 -0.131864 -2.5546 0
M  V30 692 H 71.6216 0.0123284 -5.07899 0
M  V30 693 H 71.5516 1.78802 -4.95316 0
M  V30 694 H 74.0426 0.896176 -3.6712 0
M  V30 695 H 74.3556 1.21921 -7.63122 0
M  V30 696 H 72.7006 1.10333 -6.86186 0
M  V30 697 H 75.8916 1.02805 -4.56671 0
M  V30 698 H 76.0646 1.17558 -6.37247 0
M  V30 699 N 69.4707 1.49531 0.497807 0
M  V30 700 C 70.4177 1.66436 1.59899 0
M  V30 701 C 71.3877 0.505793 1.58212 0
M  V30 702 O 72.5727 0.733202 1.7615 0
M  V30 703 C 69.7127 1.7399 2.98029 0
M  V30 704 C 68.8257 3.01172 3.09708 0
M  V30 705 C 67.9607 2.99686 4.38591 0
M  V30 706 C 66.9997 4.21434 4.43914 0
M  V30 707 N 66.1367 4.1784 5.64229 0
M  V30 708 H 70.9767 2.60459 1.44793 0
M  V30 709 H 68.5137 1.29137 0.704423 0
M  V30 710 H 70.4717 1.76352 3.78095 0
M  V30 711 H 69.1017 0.834301 3.11832 0
M  V30 712 H 68.1537 3.08408 2.22685 0
M  V30 713 H 69.4657 3.91165 3.09502 0
M  V30 714 H 68.6197 3.00628 5.2698 0
M  V30 715 H 67.3587 2.07477 4.41367 0
M  V30 716 H 66.3637 4.20733 3.53926 0
M  V30 717 H 67.5887 5.14839 4.42851 0
M  V30 718 H 65.5347 3.28469 5.67841 0
M  V30 719 H 65.4517 5.01571 5.65652 0
M  V30 720 H 66.7197 4.22889 6.54817 0
M  V30 721 N 70.9488 -0.749086 1.3866 0
M  V30 722 C 71.8808 -1.87273 1.32142 0
M  V30 723 C 72.8938 -1.61127 0.232787 0
M  V30 724 O 74.0828 -1.71623 0.49069 0
M  V30 725 C 71.1828 -3.23005 1.02571 0
M  V30 726 C 70.3558 -3.7662 2.22433 0
M  V30 727 C 69.4148 -4.90879 1.89537 0
M  V30 728 O 68.4408 -5.05276 2.62078 0
M  V30 729 N 69.6428 -5.74198 0.853031 0
M  V30 730 H 72.4078 -1.93373 2.28969 0
M  V30 731 H 69.9688 -0.929216 1.32579 0
M  V30 732 H 71.9608 -3.96992 0.786085 0
M  V30 733 H 70.5308 -3.12262 0.145249 0
M  V30 734 H 69.7508 -2.94147 2.62434 0
M  V30 735 H 71.0388 -4.09173 3.02415 0
M  V30 736 H 70.4368 -5.6514 0.25155 0
M  V30 737 H 68.9938 -6.48313 0.67329 0
M  V30 738 N 72.4269 -1.23603 -0.977757 0
M  V30 739 C 73.6749 -1.06759 -1.71601 0
M  V30 740 C 73.9959 0.395929 -1.90938 0
M  V30 741 O 73.2659 1.28356 -1.47992 0
M  V30 742 H 71.8459 -0.392062 -0.635843 0
M  V30 743 H 74.5079 -1.55362 -1.1768 0
M  V30 744 H 73.6039 -1.55763 -2.70452 0
M  V30 745 N 73.905 1.17692 -1.04816 0
M  V30 746 C 74.835 2.23777 -0.666791 0
M  V30 747 C 75.816 1.66796 0.33361 0
M  V30 748 O 77.001 1.93039 0.212042 0
M  V30 749 C 74.131 3.47281 -0.0367933 0
M  V30 750 C 73.085 4.17059 -0.961546 0
M  V30 751 C 72.411 5.34342 -0.195626 0
M  V30 752 C 73.711 4.69713 -2.28402 0
M  V30 753 H 75.405 2.55933 -1.55367 0
M  V30 754 H 72.951 1.23019 -0.748484 0
M  V30 755 H 74.904 4.20706 0.241775 0
M  V30 756 H 73.628 3.14381 0.885004 0
M  V30 757 H 72.287 3.45541 -1.22462 0
M  V30 758 H 71.935 4.97692 0.728816 0
M  V30 759 H 71.635 5.81966 -0.811775 0
M  V30 760 H 73.159 6.10553 0.0757473 0
M  V30 761 H 74.573 5.34794 -2.06563 0
M  V30 762 H 72.97 5.279 -2.8538 0
M  V30 763 H 74.04 3.86726 -2.92525 0
M  V30 764 N 75.3831 0.828654 1.34056 0
M  V30 765 C 76.6301 0.419458 1.98108 0
M  V30 766 C 76.9581 -1.01886 1.65679 0
M  V30 767 O 76.2131 -1.72539 0.923512 0
M  V30 768 C 76.5121 0.575226 3.52741 0
M  V30 769 C 76.1781 1.98012 4.05095 0
M  V30 770 C 74.8401 2.36442 4.19104 0
M  V30 771 C 77.1921 2.89824 4.33188 0
M  V30 772 C 74.5201 3.66009 4.58535 0
M  V30 773 C 76.8721 4.1886 4.74066 0
M  V30 774 C 75.5361 4.5726 4.86281 0
M  V30 775 H 74.8061 0.153491 0.724929 0
M  V30 776 H 77.4531 1.05371 1.59904 0
M  V30 777 H 75.7581 -0.142385 3.91541 0
M  V30 778 H 77.4551 0.239057 4.00287 0
M  V30 779 H 74.0451 1.67162 3.94658 0
M  V30 780 H 78.2291 2.61375 4.21897 0
M  V30 781 H 73.4851 3.95579 4.66184 0
M  V30 782 H 77.6591 4.90086 4.94761 0
M  V30 783 H 75.2861 5.57707 5.16592 0
M  V30 784 N 76.8612 -1.46375 0.584142 0
M  V30 785 C 78.1072 -2.02678 0.0703716 0
M  V30 786 C 78.4402 -1.4545 -1.28678 0
M  V30 787 O 77.7152 -0.62014 -1.84349 0
M  V30 788 C 77.9982 -3.60099 0.00614674 0
M  V30 789 C 77.8512 -4.27709 1.3923 0
M  V30 790 C 79.1702 -4.34598 -0.693742 0
M  V30 791 H 76.2892 -0.736504 0.027047 0
M  V30 792 H 78.9312 -1.74501 0.751615 0
M  V30 793 H 77.0812 -3.84236 -0.574009 0
M  V30 794 H 78.7532 -4.14832 2.01773 0
M  V30 795 H 76.9962 -3.87016 1.95962 0
M  V30 796 H 77.6672 -5.36478 1.29982 0
M  V30 797 H 80.1432 -4.15615 -0.200869 0
M  V30 798 H 79.0192 -5.44318 -0.707714 0
M  V30 799 H 79.2802 -4.05759 -1.75533 0
M  V30 800 N 78.3393 -0.321999 -1.54275 0
M  V30 801 C 79.5693 0.282642 -2.04658 0
M  V30 802 C 79.9773 1.46453 -1.19784 0
M  V30 803 O 79.3203 1.82367 -0.220932 0
M  V30 804 C 79.3823 0.781857 -3.50895 0
M  V30 805 C 79.0463 -0.277517 -4.56157 0
M  V30 806 C 80.0433 -1.11307 -5.07845 0
M  V30 807 C 77.7283 -0.425256 -5.00497 0
M  V30 808 C 79.7223 -2.08211 -6.02434 0
M  V30 809 C 77.4093 -1.39771 -5.94901 0
M  V30 810 C 78.4073 -2.2246 -6.45756 0
M  V30 811 O 78.0953 -3.18054 -7.38307 0
M  V30 812 H 77.8273 0.0622636 -0.673126 0
M  V30 813 H 80.3813 -0.465792 -2.00049 0
M  V30 814 H 78.6113 1.58118 -3.52896 0
M  V30 815 H 80.3003 1.30467 -3.84361 0
M  V30 816 H 81.0663 -1.00991 -4.74369 0
M  V30 817 H 76.9453 0.20847 -4.60528 0
M  V30 818 H 80.4893 -2.72791 -6.42052 0
M  V30 819 H 76.3863 -1.50152 -6.27794 0
M  V30 820 H 77.1543 -3.13275 -7.56175 0
M  V30 821 N 79.8174 1.5752 -0.0501392 0
M  V30 822 C 81.2284 1.80271 0.485705 0
M  V30 823 C 81.5794 0.96228 1.70981 0
M  V30 824 O 80.7044 0.178578 2.15662 0
M  V30 825 C 81.2994 3.26957 0.887938 0
M  V30 826 C 79.8584 3.5063 1.36877 0
M  V30 827 C 79.0054 2.75165 0.343468 0
M  V30 828 H 81.9564 1.56281 -0.276028 0
M  V30 829 H 81.9774 3.37821 1.75093 0
M  V30 830 H 81.4894 3.881 -0.0031809 0
M  V30 831 H 79.5904 2.94766 2.27911 0
M  V30 832 H 79.7034 4.59343 1.36164 0
M  V30 833 H 78.0674 2.4127 0.816128 0
M  V30 834 H 78.8504 3.39034 -0.539548 0
M  V30 835 N 81.2955 -0.223234 1.56011 0
M  V30 836 C 82.5205 -0.968978 1.83373 0
M  V30 837 C 82.9455 -1.77227 0.630254 0
M  V30 838 O 82.3035 -1.76345 -0.420959 0
M  V30 839 C 82.3515 -1.86363 3.08709 0
M  V30 840 O 81.4555 -2.95873 2.87285 0
M  V30 841 H 80.7965 -0.274461 0.604622 0
M  V30 842 H 83.3265 -0.237056 2.03222 0
M  V30 843 H 83.3365 -2.27376 3.38768 0
M  V30 844 H 82.0115 -1.27319 3.95933 0
M  V30 845 H 80.5885 -2.58818 2.68454 0
M  V30 846 N 82.7736 -1.49793 -0.48987 0
M  V30 847 C 83.7036 -1.70201 -1.59856 0
M  V30 848 C 84.6846 -0.55076 -1.60937 0
M  V30 849 O 85.8696 -0.787841 -1.77501 0
M  V30 850 C 82.9996 -1.77882 -2.98287 0
M  V30 851 C 81.9536 -2.92907 -3.12073 0
M  V30 852 C 81.2796 -2.85712 -4.51965 0
M  V30 853 C 82.5796 -4.3369 -2.91051 0
M  V30 854 H 84.2736 -2.63025 -1.43032 0
M  V30 855 H 81.8196 -1.26574 -0.686664 0
M  V30 856 H 83.7726 -1.90744 -3.75759 0
M  V30 857 H 82.4966 -0.816653 -3.16225 0
M  V30 858 H 81.1556 -2.79665 -2.37029 0
M  V30 859 H 80.8036 -1.8738 -4.66795 0
M  V30 860 H 80.5036 -3.62921 -4.62128 0
M  V30 861 H 82.0276 -3.00598 -5.31482 0
M  V30 862 H 83.4416 -4.47555 -3.58284 0
M  V30 863 H 81.8386 -5.12205 -3.12675 0
M  V30 864 H 82.9086 -4.47362 -1.87071 0
M  V30 865 N 84.2517 0.741722 -1.39055 0
M  V30 866 C 85.4797 1.53098 -1.39171 0
M  V30 867 C 85.8947 1.88794 0.0155099 0
M  V30 868 O 85.2517 1.53626 0.985159 0
M  V30 869 C 85.3027 2.82274 -2.2584 0
M  V30 870 O 85.0237 2.48097 -3.61081 0
M  V30 871 C 86.5247 3.76343 -2.34266 0
M  V30 872 H 83.7447 0.473335 -0.4756 0
M  V30 873 H 86.2887 0.917045 -1.82785 0
M  V30 874 H 84.4437 3.40015 -1.85656 0
M  V30 875 H 84.8577 3.31029 -4.06842 0
M  V30 876 H 86.3317 4.63898 -2.9917 0
M  V30 877 H 86.8087 4.17619 -1.35982 0
M  V30 878 H 87.4147 3.24523 -2.74891 0
M  V30 879 N 85.7298 1.2412 0.971189 0
M  V30 880 C 86.9758 1.08041 1.71625 0
M  V30 881 C 87.3088 -0.380407 1.90438 0
M  V30 882 O 86.5838 -1.28127 1.46334 0
M  V30 883 C 86.8668 1.81682 3.10908 0
M  V30 884 C 86.7198 3.35493 2.99608 0
M  V30 885 C 88.0388 1.58671 4.10501 0
M  V30 886 H 85.1578 0.39388 0.622919 0
M  V30 887 H 87.7998 1.52743 1.13003 0
M  V30 888 H 85.9498 1.43684 3.60953 0
M  V30 889 H 87.6218 3.83068 2.57015 0
M  V30 890 H 85.8648 3.64052 2.35899 0
M  V30 891 H 86.5358 3.82217 3.98264 0
M  V30 892 H 89.0118 1.91719 3.69301 0
M  V30 893 H 87.8878 2.1266 5.06031 0
M  V30 894 H 88.1488 0.524161 4.38982 0
M  V30 895 N 87.2079 -1.17134 1.05439 0
M  V30 896 C 88.4359 -1.91372 0.786414 0
M  V30 897 C 88.8509 -1.76955 -0.658202 0
M  V30 898 O 88.2079 -1.10838 -1.44987 0
M  V30 899 C 88.2589 -3.42356 1.1608 0
M  V30 900 O 87.9799 -3.56332 2.54871 0
M  V30 901 C 89.4809 -4.33663 0.919322 0
M  V30 902 H 86.7009 -0.607118 0.285743 0
M  V30 903 H 89.2449 -1.48525 1.40572 0
M  V30 904 H 87.3999 -3.82939 0.586191 0
M  V30 905 H 87.8139 -4.49896 2.69618 0
M  V30 906 H 89.2879 -5.38099 1.231 0
M  V30 907 H 89.7649 -4.38959 -0.145359 0
M  V30 908 H 90.3709 -3.98796 1.47789 0
M  V30 909 N 88.686 -0.835752 -1.33615 0
M  V30 910 C 89.932 -0.439817 -1.98588 0
M  V30 911 C 90.287 0.989274 -1.65019 0
M  V30 912 O 89.58 1.68168 -0.918159 0
M  V30 913 C 89.774 -0.593925 -3.52431 0
M  V30 914 C 89.603 -2.03644 -4.00948 0
M  V30 915 C 88.373 -2.67103 -4.28934 0
M  V30 916 C 90.571 -3.00479 -4.17393 0
M  V30 917 N 88.553 -4.02462 -4.6357 0
M  V30 918 C 89.924 -4.20777 -4.55353 0
M  V30 919 C 91.979 -2.96926 -3.99674 0
M  V30 920 C 90.682 -5.37994 -4.77447 0
M  V30 921 C 92.708 -4.1337 -4.22941 0
M  V30 922 C 92.07 -5.32422 -4.61201 0
M  V30 923 H 88.169 -0.209303 -0.75347 0
M  V30 924 H 90.753 -1.08316 -1.61789 0
M  V30 925 H 88.924 0.019599 -3.88395 0
M  V30 926 H 90.656 -0.169738 -4.04344 0
M  V30 927 H 87.411 -2.18259 -4.20309 0
M  V30 928 H 87.835 -4.72232 -4.85104 0
M  V30 929 H 92.477 -2.06015 -3.69212 0
M  V30 930 H 90.195 -6.29451 -5.06771 0
M  V30 931 H 93.781 -4.12034 -4.10754 0
M  V30 932 H 92.661 -6.21027 -4.78848 0
M  V30 933 N 90.1641 1.46063 -0.591896 0
M  V30 934 C 91.4411 1.95595 -0.0137119 0
M  V30 935 C 91.8211 1.5345 1.4497 0
M  V30 936 O 91.1691 0.789543 2.14426 0
M  V30 937 C 91.3791 3.48453 -0.195373 0
M  V30 938 C 92.7271 4.24546 -0.0679765 0
M  V30 939 O 93.7511 3.55982 -0.124681 0
M  V30 940 O 92.6101 5.46467 0.0600579 0
M  V30 941 H 89.7041 0.825795 0.0446279 0
M  V30 942 H 92.2501 1.56303 -0.660859 0
M  V30 943 H 91.0221 3.72045 -1.21235 0
M  V30 944 H 90.6451 3.94597 0.487775 0
M  V30 945 N 91.6422 0.330177 1.54103 0
M  V30 946 C 92.8902 -0.269871 2.0029 0
M  V30 947 C 93.2112 -1.52133 1.21986 0
M  V30 948 O 92.4812 -1.93212 0.323438 0
M  V30 949 H 91.0612 -0.10271 0.739905 0
M  V30 950 H 93.7232 0.448249 1.89675 0
M  V30 951 H 92.8192 -0.52166 3.07709 0
M  V30 952 N 93.1203 -1.57491 0.0584922 0
M  V30 953 C 94.3453 -1.97711 -0.62652 0
M  V30 954 C 94.7703 -0.936132 -1.63151 0
M  V30 955 O 94.1283 0.099811 -1.81025 0
M  V30 956 C 94.1763 -3.36989 -1.28338 0
M  V30 957 O 93.2803 -3.35433 -2.39913 0
M  V30 958 H 92.6213 -0.643868 -0.162266 0
M  V30 959 H 95.1513 -2.04193 0.129064 0
M  V30 960 H 95.1613 -3.73879 -1.63335 0
M  V30 961 H 93.8363 -4.12289 -0.546889 0
M  V30 962 H 92.4133 -3.10298 -2.06809 0
M  V30 963 N 94.5984 0.214957 -1.56127 0
M  V30 964 C 95.8264 0.955092 -1.83536 0
M  V30 965 C 96.2414 1.77677 -0.638472 0
M  V30 966 O 95.5984 1.78219 0.392968 0
M  V30 967 C 95.6494 1.86734 -3.09536 0
M  V30 968 O 95.3704 1.07887 -4.24608 0
M  V30 969 C 96.8714 2.72082 -3.4998 0
M  V30 970 H 94.0914 0.279611 -0.609966 0
M  V30 971 H 96.6354 0.228197 -2.03223 0
M  V30 972 H 94.7904 2.5481 -2.91806 0
M  V30 973 H 95.2044 1.69872 -4.9623 0
M  V30 974 H 96.6784 3.31782 -4.41163 0
M  V30 975 H 97.1554 3.44806 -2.7204 0
M  V30 976 H 97.7614 2.09409 -3.70173 0
M  V30 977 N 96.0765 1.50051 0.48192 0
M  V30 978 C 97.3045 1.64237 1.25832 0
M  V30 979 C 97.7195 0.321336 1.86045 0
M  V30 980 O 97.0765 -0.695478 1.68729 0
M  V30 981 C 97.1275 2.72548 2.37487 0
M  V30 982 O 96.8485 3.99529 1.79745 0
M  V30 983 C 98.3495 2.9761 3.28547 0
M  V30 984 H 95.5695 0.55237 0.380957 0
M  V30 985 H 98.1135 1.96207 0.576467 0
M  V30 986 H 96.2685 2.43303 3.01467 0
M  V30 987 H 96.6825 4.59342 2.5319 0
M  V30 988 H 98.1565 3.77084 4.03127 0
M  V30 989 H 98.6335 2.0826 3.86684 0
M  V30 990 H 99.2395 3.28345 2.70314 0
M  V30 991 N 97.5546 -0.734337 1.39446 0
M  V30 992 C 98.5026 -1.86971 1.38364 0
M  V30 993 C 99.4966 -1.67288 0.266687 0
M  V30 994 O 100.703 -1.74621 0.436755 0
M  V30 995 H 97.0776 -0.615474 0.432082 0
M  V30 996 H 99.0486 -1.85 2.34132 0
M  V30 997 C 97.7976 -3.2466 1.24465 0
M  V30 998 H 97.1206 -3.40402 2.09682 0
M  V30 999 H 98.5606 -4.04292 1.27764 0
M  V30 1000 C 97.0196 -3.36867 -0.0468674 0
M  V30 1001 O 97.5496 -3.88618 -1.01681 0
M  V30 1002 N 95.7556 -2.90391 -0.110145 0
M  V30 1003 H 95.3026 -2.48466 0.679868 0
M  V30 1004 H 95.2606 -2.98939 -0.973799 0
M  V30 1005 N 99.0327 -1.24633 -0.964593 0
M  V30 1006 C 100.444 -1.08045 -1.5226 0
M  V30 1007 C 100.795 0.347116 -1.93105 0
M  V30 1008 O 99.9197 1.23588 -1.77637 0
M  V30 1009 C 100.515 -1.95514 -2.76695 0
M  V30 1010 C 99.0737 -1.8314 -3.28841 0
M  V30 1011 C 98.2207 -1.90262 -2.01732 0
M  V30 1012 H 101.172 -1.38064 -0.782553 0
M  V30 1013 H 101.193 -1.48925 -3.50145 0
M  V30 1014 H 100.705 -2.99407 -2.46936 0
M  V30 1015 H 98.8057 -0.82092 -3.63444 0
M  V30 1016 H 98.9187 -2.67406 -3.97531 0
M  V30 1017 H 97.2827 -1.34027 -2.16584 0
M  V30 1018 H 98.0657 -2.9574 -1.74334 0
M  V30 1019 N 100.511 1.16574 -1.06058 0
M  V30 1020 C 101.922 1.68662 -0.800632 0
M  V30 1021 C 102.273 1.84184 0.67608 0
M  V30 1022 O 101.398 1.53568 1.52466 0
M  V30 1023 C 101.993 3.06356 -1.44676 0
M  V30 1024 C 100.552 3.55575 -1.23465 0
M  V30 1025 C 99.6988 2.31616 -1.52477 0
M  V30 1026 H 102.65 1.00969 -1.22438 0
M  V30 1027 H 102.671 3.70636 -0.860788 0
M  V30 1028 H 102.183 2.95027 -2.52152 0
M  V30 1029 H 100.284 3.72167 -0.179527 0
M  V30 1030 H 100.397 4.37812 -1.94571 0
M  V30 1031 H 98.7608 2.36512 -0.945209 0
M  V30 1032 H 99.5438 2.22887 -2.61106 0
M  V30 1033 N 101.989 0.842826 1.3317 0
M  V30 1034 C 102.936 0.276885 2.29133 0
M  V30 1035 C 103.906 -0.609527 1.54512 0
M  V30 1036 O 105.091 -0.546955 1.82792 0
M  V30 1037 C 102.231 -0.538707 3.40869 0
M  V30 1038 C 101.344 0.372169 4.30394 0
M  V30 1039 C 100.479 -0.454908 5.29249 0
M  V30 1040 C 99.5179 0.45411 6.10413 0
M  V30 1041 N 98.6549 -0.335075 7.013 0
M  V30 1042 H 103.495 1.10052 2.76934 0
M  V30 1043 H 101.032 0.554161 1.36262 0
M  V30 1044 H 102.99 -1.02709 4.0436 0
M  V30 1045 H 101.62 -1.32727 2.9425 0
M  V30 1046 H 100.672 0.97888 3.6759 0
M  V30 1047 H 101.984 1.0703 4.87182 0
M  V30 1048 H 101.138 -1.00695 5.98285 0
M  V30 1049 H 99.8769 -1.18646 4.73048 0
M  V30 1050 H 98.8819 1.01813 5.40291 0
M  V30 1051 H 100.107 1.18409 6.68697 0
M  V30 1052 H 98.0529 -1.04994 6.47543 0
M  V30 1053 H 97.9699 0.304262 7.55387 0
M  V30 1054 H 99.2379 -0.869224 7.74638 0
M  V30 1055 N 103.467 -1.45747 0.599634 0
M  V30 1056 C 104.695 -2.06668 0.0978551 0
M  V30 1057 C 105.11 -1.44562 -1.21439 0
M  V30 1058 O 104.467 -0.556923 -1.73795 0
M  V30 1059 C 104.518 -3.61456 -0.0567044 0
M  V30 1060 O 104.239 -4.21242 1.20361 0
M  V30 1061 C 105.74 -4.39345 -0.590869 0
M  V30 1062 H 102.96 -0.667825 0.0651943 0
M  V30 1063 H 105.504 -1.87115 0.82511 0
M  V30 1064 H 103.659 -3.80378 -0.734251 0
M  V30 1065 H 104.073 -5.14323 1.02821 0
M  V30 1066 H 105.547 -5.48182 -0.648131 0
M  V30 1067 H 106.024 -4.08568 -1.61147 0
M  V30 1068 H 106.63 -4.25268 0.0523679 0
M  V30 1069 N 104.945 -0.338344 -1.53925 0
M  V30 1070 C 106.361 0.0137736 -1.59594 0
M  V30 1071 C 106.561 1.49186 -1.35447 0
M  V30 1072 O 105.617 2.24987 -1.14616 0
M  V30 1073 C 106.93 -0.41773 -2.97784 0
M  V30 1074 C 108.478 -0.369633 -3.1081 0
M  V30 1075 C 108.953 -0.776524 -4.51369 0
M  V30 1076 N 110.444 -0.730506 -4.57403 0
M  V30 1077 C 111.179 -1.01736 -5.64303 0
M  V30 1078 N 110.675 -1.3721 -6.79077 0
M  V30 1079 N 112.468 -0.941942 -5.54151 0
M  V30 1080 H 104.619 -1.3012 -1.67876 0
M  V30 1081 H 106.882 -0.530082 -0.78595 0
M  V30 1082 H 106.588 -1.44811 -3.20504 0
M  V30 1083 H 106.462 0.209729 -3.76616 0
M  V30 1084 H 108.849 0.651568 -2.87817 0
M  V30 1085 H 108.93 -1.03223 -2.34049 0
M  V30 1086 H 108.574 -1.79571 -4.75096 0
M  V30 1087 H 108.504 -0.0914649 -5.26521 0
M  V30 1088 H 110.995 -0.468783 -3.74981 0
M  V30 1089 H 111.308 -1.57597 -7.5656 0
M  V30 1090 H 109.653 -1.4105 -6.80536 0
M  V30 1091 H 112.844 -0.664184 -4.63364 0
M  V30 1092 H 113.017 -1.16884 -6.37371 0
M  V30 1093 N 106.423 1.57458 -0.0668435 0
M  V30 1094 C 107.386 2.11323 0.887422 0
M  V30 1095 C 108.386 1.03618 1.22964 0
M  V30 1096 O 109.576 1.29626 1.16373 0
M  V30 1097 C 106.708 2.61048 2.19242 0
M  V30 1098 H 107.901 2.96942 0.420194 0
M  V30 1099 H 105.454 1.55239 0.181793 0
M  V30 1100 H 106.189 1.78868 2.70512 0
M  V30 1101 H 105.974 3.39769 1.95702 0
M  V30 1102 H 107.464 3.02814 2.87565 0
M  V30 1103 N 107.901 -0.206675 1.56239 0
M  V30 1104 C 109.148 -0.928842 1.79941 0
M  V30 1105 C 109.476 -1.83734 0.638131 0
M  V30 1106 O 108.731 -1.92039 -0.376746 0
M  V30 1107 C 109.03 -1.78675 3.09532 0
M  V30 1108 C 108.696 -1.03022 4.38973 0
M  V30 1109 C 107.358 -0.821302 4.74139 0
M  V30 1110 C 109.71 -0.497081 5.18824 0
M  V30 1111 C 107.038 -0.0675719 5.86661 0
M  V30 1112 C 109.39 0.24338 6.32132 0
M  V30 1113 C 108.054 0.463422 6.65889 0
M  V30 1114 H 107.324 -0.339887 0.658451 0
M  V30 1115 H 109.971 -0.195977 1.90495 0
M  V30 1116 H 108.276 -2.58794 2.94165 0
M  V30 1117 H 109.973 -2.34792 3.25075 0
M  V30 1118 H 106.563 -1.20306 4.11369 0
M  V30 1119 H 110.747 -0.645921 4.92079 0
M  V30 1120 H 106.003 0.112995 6.11296 0
M  V30 1121 H 110.177 0.66393 6.93228 0
M  V30 1122 H 107.804 1.04938 7.52922 0
M  V30 1123 N 109.379 -1.50304 -0.473955 0
M  V30 1124 C 110.627 -1.60832 -1.22382 0
M  V30 1125 C 110.948 -0.30939 -1.9253 0
M  V30 1126 O 110.218 0.67296 -1.83978 0
M  V30 1127 H 108.798 -0.592652 -0.454723 0
M  V30 1128 H 111.46 -1.87068 -0.546968 0
M  V30 1129 H 110.556 -2.41803 -1.97327 0
M  V30 1130 N 110.857 0.726932 -1.39834 0
M  V30 1131 C 112.273 1.03354 -1.21615 0
M  V30 1132 C 112.473 2.01327 -0.08338 0
M  V30 1133 O 111.529 2.46158 0.56238 0
M  V30 1134 C 112.842 1.58811 -2.55342 0
M  V30 1135 C 114.39 1.70851 -2.62257 0
M  V30 1136 C 114.865 2.29716 -3.96225 0
M  V30 1137 N 116.356 2.37116 -3.97907 0
M  V30 1138 C 117.091 2.83619 -4.98345 0
M  V30 1139 N 116.587 3.29958 -6.09179 0
M  V30 1140 N 118.38 2.82901 -4.8572 0
M  V30 1141 H 110.531 0.0773069 -2.12259 0
M  V30 1142 H 112.794 0.0969102 -0.943034 0
M  V30 1143 H 112.5 0.942855 -3.38826 0
M  V30 1144 H 112.374 2.57502 -2.75632 0
M  V30 1145 H 114.761 2.34497 -1.79152 0
M  V30 1146 H 114.842 0.707913 -2.45809 0
M  V30 1147 H 114.486 1.66696 -4.79765 0
M  V30 1148 H 114.416 3.30469 -4.09997 0
M  V30 1149 H 116.907 2.04374 -3.17868 0
M  V30 1150 H 117.22 3.63976 -6.8172 0
M  V30 1151 H 115.565 3.27946 -6.12761 0
M  V30 1152 H 118.756 2.46027 -3.98231 0
M  V30 1153 H 118.929 3.18827 -5.6414 0
M  V30 1154 N 112.336 1.25143 0.95797 0
M  V30 1155 C 113.583 1.09692 1.70217 0
M  V30 1156 C 113.911 -0.362654 1.91089 0
M  V30 1157 O 113.166 -1.28386 1.47701 0
M  V30 1158 C 113.465 1.79272 3.09187 0
M  V30 1159 C 113.131 3.29196 3.08125 0
M  V30 1160 C 111.793 3.70096 3.07543 0
M  V30 1161 C 114.145 4.24995 3.0171 0
M  V30 1162 C 111.473 5.05213 2.9829 0
M  V30 1163 C 113.825 5.60132 2.93999 0
M  V30 1164 C 112.489 6.00365 2.9175 0
M  V30 1165 H 111.759 0.401393 0.622868 0
M  V30 1166 H 114.406 1.55372 1.11945 0
M  V30 1167 H 112.711 1.26014 3.70982 0
M  V30 1168 H 114.408 1.64773 3.65583 0
M  V30 1169 H 110.998 2.96651 3.09348 0
M  V30 1170 H 115.182 3.9439 3.01281 0
M  V30 1171 H 110.438 5.35569 2.94916 0
M  V30 1172 H 114.612 6.3406 2.87996 0
M  V30 1173 H 112.239 7.05023 2.84336 0
M  V30 1174 N 113.814 -1.1601 1.06675 0
M  V30 1175 C 115.042 -1.90527 0.806667 0
M  V30 1176 C 115.457 -1.77643 -0.639396 0
M  V30 1177 O 114.814 -1.12369 -1.43803 0
M  V30 1178 C 114.865 -3.41106 1.19705 0
M  V30 1179 O 114.586 -3.53608 2.58636 0
M  V30 1180 C 116.087 -4.32663 0.965266 0
M  V30 1181 H 113.307 -0.604053 0.292166 0
M  V30 1182 H 115.851 -1.47026 1.4214 0
M  V30 1183 H 114.006 -3.82296 0.626774 0
M  V30 1184 H 114.42 -4.47011 2.74375 0
M  V30 1185 H 115.894 -5.36763 1.288 0
M  V30 1186 H 116.371 -4.39089 -0.0987936 0
M  V30 1187 H 116.977 -3.97206 1.52011 0
M  V30 1188 N 115.292 -0.849877 -1.32721 0
M  V30 1189 C 116.242 -0.262892 -2.26479 0
M  V30 1190 C 117.226 0.588493 -1.49752 0
M  V30 1191 O 118.418 0.438659 -1.71478 0
M  V30 1192 C 115.547 0.551818 -3.38836 0
M  V30 1193 C 114.633 -0.311689 -4.22953 0
M  V30 1194 N 115.024 -1.39567 -4.86163 0
M  V30 1195 C 113.322 -0.100611 -4.45887 0
M  V30 1196 C 114.023 -1.92651 -5.48872 0
M  V30 1197 N 112.999 -1.22637 -5.29586 0
M  V30 1198 H 116.801 -1.09166 -2.72873 0
M  V30 1199 H 114.315 -0.695486 -1.46754 0
M  V30 1200 H 116.312 0.988713 -4.05006 0
M  V30 1201 H 114.972 1.37844 -2.93988 0
M  V30 1202 H 115.983 -1.77859 -4.86402 0
M  V30 1203 H 112.66 0.691681 -4.11731 0
M  V30 1204 H 114.05 -2.83487 -6.09167 0
M  V30 1205 N 116.77 1.45427 -0.607355 0
M  V30 1206 C 117.733 2.28974 0.101693 0
M  V30 1207 C 118.733 1.39754 0.795329 0
M  V30 1208 O 119.923 1.61878 0.643527 0
M  V30 1209 C 117.055 3.20768 1.15414 0
M  V30 1210 H 118.248 2.93147 -0.632844 0
M  V30 1211 H 115.801 1.51945 -0.366391 0
M  V30 1212 H 116.536 2.61395 1.91945 0
M  V30 1213 H 116.321 3.86489 0.66098 0
M  V30 1214 H 117.811 3.83589 1.65073 0
M  V30 1215 N 118.248 0.346503 1.53744 0
M  V30 1216 C 119.496 -0.248612 2.00565 0
M  V30 1217 C 119.817 -1.5083 1.23593 0
M  V30 1218 O 119.087 -1.92858 0.343912 0
M  V30 1219 H 117.667 -0.0948564 0.740953 0
M  V30 1220 H 120.329 0.468341 1.89189 0
M  V30 1221 H 119.425 -0.488994 3.08245 0
M  V30 1222 N 119.726 -1.57421 0.075193 0
M  V30 1223 C 120.951 -1.98364 -0.605515 0
M  V30 1224 C 121.376 -0.953383 -1.62149 0
M  V30 1225 O 120.734 0.0806053 -1.81121 0
M  V30 1226 C 120.782 -3.38332 -1.24756 0
M  V30 1227 O 119.886 -3.37959 -2.36342 0
M  V30 1228 H 119.227 -0.645553 -0.155428 0
M  V30 1229 H 121.757 -2.04044 0.150714 0
M  V30 1230 H 121.767 -3.75591 -1.5936 0
M  V30 1231 H 120.442 -4.12846 -0.503129 0
M  V30 1232 H 119.019 -3.12474 -2.03506 0
M  V30 1233 N 121.204 0.198386 -1.56346 0
M  V30 1234 C 122.434 0.934215 -1.84271 0
M  V30 1235 C 122.842 1.77496 -0.655125 0
M  V30 1236 O 122.185 1.7961 0.385488 0
M  V30 1237 C 122.247 1.88278 -3.06254 0
M  V30 1238 C 121.911 1.22431 -4.40295 0
M  V30 1239 C 122.908 0.602839 -5.16393 0
M  V30 1240 C 120.593 1.22915 -4.87029 0
M  V30 1241 C 122.587 -0.0050083 -6.374 0
M  V30 1242 C 120.274 0.617465 -6.07973 0
M  V30 1243 C 121.272 0.00146341 -6.83 0
M  V30 1244 O 120.96 -0.600642 -8.01653 0
M  V30 1245 H 120.692 0.278245 -0.616081 0
M  V30 1246 H 123.246 0.211626 -2.04307 0
M  V30 1247 H 121.476 2.64498 -2.82095 0
M  V30 1248 H 123.165 2.48612 -3.20853 0
M  V30 1249 H 123.931 0.591265 -4.81382 0
M  V30 1250 H 119.81 1.69801 -4.28589 0
M  V30 1251 H 123.354 -0.48643 -6.95902 0
M  V30 1252 H 119.251 0.62653 -6.42452 0
M  V30 1253 H 120.019 -0.497225 -8.16988 0
M  V30 1254 N 122.682 1.50554 0.465978 0
M  V30 1255 C 123.91 1.65563 1.24083 0
M  V30 1256 C 124.325 0.341051 1.85694 0
M  V30 1257 O 123.682 -0.677543 1.69457 0
M  V30 1258 C 123.733 2.75051 2.34583 0
M  V30 1259 O 123.454 4.01413 1.75497 0
M  V30 1260 C 124.955 3.01078 3.25372 0
M  V30 1261 H 122.175 0.55638 0.375077 0
M  V30 1262 H 124.719 1.96807 0.555624 0
M  V30 1263 H 122.874 2.46486 2.9887 0
M  V30 1264 H 123.288 4.62002 2.48303 0
M  V30 1265 H 124.762 3.81339 3.99105 0
M  V30 1266 H 125.239 2.12349 3.84453 0
M  V30 1267 H 125.845 3.31194 2.66816 0
M  V30 1268 N 124.16 -0.719506 1.40217 0
M  V30 1269 C 125.388 -1.50864 1.41589 0
M  V30 1270 C 125.803 -1.88794 0.0145275 0
M  V30 1271 O 125.16 -1.55174 -0.960594 0
M  V30 1272 C 125.211 -2.78646 2.30302 0
M  V30 1273 O 124.932 -2.42321 3.64983 0
M  V30 1274 C 126.433 -3.72569 2.40224 0
M  V30 1275 H 123.653 -0.465709 0.48307 0
M  V30 1276 H 126.197 -0.88785 1.84221 0
M  V30 1277 H 124.352 -3.37019 1.91042 0
M  V30 1278 H 124.766 -3.24514 4.12057 0
M  V30 1279 H 126.24 -4.5908 3.06512 0
M  V30 1280 H 126.717 -4.15403 1.42608 0
M  V30 1281 H 127.323 -3.20109 2.80019 0
M  V30 1282 N 125.638 -1.25649 -0.95132 0
M  V30 1283 C 126.866 -1.13343 -1.73092 0
M  V30 1284 C 127.281 0.312434 -1.86197 0
M  V30 1285 O 126.638 1.21465 -1.36207 0
M  V30 1286 C 126.689 -1.78602 -3.14299 0
M  V30 1287 O 126.41 -3.17537 -3.01831 0
M  V30 1288 C 127.911 -1.72119 -4.08522 0
M  V30 1289 H 125.131 -0.395181 -0.542285 0
M  V30 1290 H 127.675 -1.66076 -1.19328 0
M  V30 1291 H 125.83 -1.29832 -3.64996 0
M  V30 1292 H 126.244 -3.49676 -3.90931 0
M  V30 1293 H 127.718 -2.22435 -5.052 0
M  V30 1294 H 128.195 -0.685635 -4.33815 0
M  V30 1295 H 128.801 -2.20393 -3.63741 0
M  V30 1296 N 127.117 1.15442 -1.07289 0
M  V30 1297 C 128.366 1.85557 -0.790669 0
M  V30 1298 C 128.679 1.83186 0.685739 0
M  V30 1299 O 129.885 2.48977 1.0827 0
M  V30 1300 C 128.341 3.33038 -1.36433 0
M  V30 1301 C 127.949 3.43856 -2.8717 0
M  V30 1302 C 129.693 4.0834 -1.1601 0
M  V30 1303 C 127.6 4.85482 -3.3773 0
M  V30 1304 H 126.53 0.695122 -0.292098 0
M  V30 1305 H 129.181 1.30219 -1.29287 0
M  V30 1306 H 127.563 3.88043 -0.789864 0
M  V30 1307 H 128.737 2.98961 -3.50655 0
M  V30 1308 H 127.052 2.81998 -3.06376 0
M  V30 1309 H 129.649 5.12859 -1.51262 0
M  V30 1310 H 129.992 4.16182 -0.0991007 0
M  V30 1311 H 130.525 3.59603 -1.70089 0
M  V30 1312 H 127.264 4.82823 -4.43353 0
M  V30 1313 H 126.784 5.30961 -2.78999 0
M  V30 1314 H 128.463 5.54335 -3.33648 0
M  V30 1315 N 128.595 0.856903 1.32268 0
M  V30 1316 C 129.823 0.475439 2.01363 0
M  V30 1317 C 130.238 -0.928486 1.64392 0
M  V30 1318 O 129.595 -1.60624 0.866387 0
M  V30 1319 C 129.646 0.607545 3.56358 0
M  V30 1320 O 129.367 1.95617 3.92002 0
M  V30 1321 C 130.868 0.225382 4.42727 0
M  V30 1322 H 128.088 0.186636 0.644521 0
M  V30 1323 H 130.632 1.15446 1.68797 0
M  V30 1324 H 128.787 -0.0237719 3.87393 0
M  V30 1325 H 129.201 1.95455 4.86721 0
M  V30 1326 H 130.675 0.368813 5.50767 0
M  V30 1327 H 131.152 -0.834369 4.31202 0
M  V30 1328 H 131.758 0.831864 4.17085 0
M  V30 1329 N 130.073 -1.45103 0.615059 0
M  V30 1330 C 131.489 -1.57137 0.279322 0
M  V30 1331 C 131.689 -1.60523 -1.21797 0
M  V30 1332 O 130.745 -1.53956 -2.00134 0
M  V30 1333 C 132.058 -2.85062 0.957083 0
M  V30 1334 C 133.606 -2.98749 0.933706 0
M  V30 1335 C 134.081 -4.29455 1.59162 0
M  V30 1336 N 135.572 -4.36231 1.55746 0
M  V30 1337 C 136.307 -5.36051 2.0356 0
M  V30 1338 N 135.803 -6.42367 2.59494 0
M  V30 1339 N 137.596 -5.27456 1.94284 0
M  V30 1340 H 129.747 -1.41148 1.58717 0
M  V30 1341 H 132.01 -0.675331 0.665306 0
M  V30 1342 H 131.716 -2.88488 2.01166 0
M  V30 1343 H 131.59 -3.7407 0.48494 0
M  V30 1344 H 133.977 -2.94886 -0.112347 0
M  V30 1345 H 134.058 -2.11132 1.44419 0
M  V30 1346 H 133.702 -4.34077 2.63704 0
M  V30 1347 H 133.632 -5.15901 1.0561 0
M  V30 1348 H 136.123 -3.60011 1.14893 0
M  V30 1349 H 136.436 -7.14793 2.93752 0
M  V30 1350 H 134.781 -6.43097 2.63537 0
M  V30 1351 H 137.972 -4.43308 1.5032 0
M  V30 1352 H 138.145 -6.05099 2.3186 0
M  V30 1353 N 131.551 -0.354651 -1.53558 0
M  V30 1354 C 132.962 0.126902 -1.86268 0
M  V30 1355 C 133.313 1.49075 -1.27558 0
M  V30 1356 O 132.438 2.08105 -0.5934 0
M  V30 1357 C 133.033 0.237046 -3.3797 0
M  V30 1358 C 131.592 0.662842 -3.70518 0
M  V30 1359 C 130.739 -0.196652 -2.76602 0
M  V30 1360 H 133.69 -0.573849 -1.47962 0
M  V30 1361 H 133.711 1.06259 -3.65362 0
M  V30 1362 H 133.223 -0.755725 -3.80671 0
M  V30 1363 H 131.324 1.66424 -3.33367 0
M  V30 1364 H 131.437 0.445034 -4.77029 0
M  V30 1365 H 129.801 0.332763 -2.52517 0
M  V30 1366 H 130.584 -1.18676 -3.22135 0
M  V30 1367 N 133.029 1.57378 -0.0835403 0
M  V30 1368 C 134.257 1.98263 0.59157 0
M  V30 1369 C 134.672 0.962302 1.62435 0
M  V30 1370 O 134.029 -0.049581 1.82433 0
M  V30 1371 C 134.08 3.39214 1.24965 0
M  V30 1372 O 133.801 4.37339 0.258186 0
M  V30 1373 C 135.302 3.95038 2.01147 0
M  V30 1374 H 132.522 0.651773 0.159477 0
M  V30 1375 H 135.066 2.03878 -0.159415 0
M  V30 1376 H 133.221 3.34649 1.95164 0
M  V30 1377 H 133.635 5.19371 0.731734 0
M  V30 1378 H 135.109 4.95848 2.42567 0
M  V30 1379 H 135.586 3.32222 2.87272 0
M  V30 1380 H 136.192 4.0304 1.35789 0
M  V30 1381 N 134.507 -0.190092 1.56449 0
M  V30 1382 C 135.437 -1.23816 1.97969 0
M  V30 1383 C 136.418 -1.47201 0.852395 0
M  V30 1384 O 137.603 -1.58854 1.1171 0
M  V30 1385 C 134.733 -2.5813 2.3235 0
M  V30 1386 C 133.687 -2.49348 3.47864 0
M  V30 1387 C 133.013 -3.8798 3.67934 0
M  V30 1388 C 134.313 -2.01424 4.81898 0
M  V30 1389 H 136.007 -0.89311 2.85769 0
M  V30 1390 H 133.553 -0.428177 1.37487 0
M  V30 1391 H 135.506 -3.31637 2.59991 0
M  V30 1392 H 134.23 -2.94386 1.41438 0
M  V30 1393 H 132.889 -1.78297 3.20321 0
M  V30 1394 H 132.537 -4.21597 2.74344 0
M  V30 1395 H 132.237 -3.82978 4.45648 0
M  V30 1396 H 133.761 -4.63101 3.97957 0
M  V30 1397 H 135.175 -2.64693 5.08538 0
M  V30 1398 H 133.572 -2.07413 5.63116 0
M  V30 1399 H 134.642 -0.967677 4.75146 0
M  V30 1400 N 135.985 -1.50799 -0.457987 0
M  V30 1401 C 137.232 -1.62442 -1.20908 0
M  V30 1402 C 137.56 -0.330865 -1.91665 0
M  V30 1403 O 136.815 0.68401 -1.83357 0
M  V30 1404 C 137.114 -2.76358 -2.2663 0
M  V30 1405 C 136.78 -4.16378 -1.73033 0
M  V30 1406 C 135.442 -4.54473 -1.58138 0
M  V30 1407 C 137.794 -5.03836 -1.33413 0
M  V30 1408 C 135.122 -5.77754 -1.02065 0
M  V30 1409 C 137.474 -6.27676 -0.78778 0
M  V30 1410 C 136.138 -6.64562 -0.625561 0
M  V30 1411 H 135.408 -0.594417 -0.442435 0
M  V30 1412 H 138.055 -1.84772 -0.503136 0
M  V30 1413 H 136.36 -2.48167 -3.03184 0
M  V30 1414 H 138.057 -2.82568 -2.84528 0
M  V30 1415 H 134.647 -3.86331 -1.85598 0
M  V30 1416 H 138.831 -4.75026 -1.4375 0
M  V30 1417 H 134.087 -6.04997 -0.882547 0
M  V30 1418 H 138.261 -6.94797 -0.472177 0
M  V30 1419 H 135.888 -7.59965 -0.188926 0
M  V30 1420 N 137.463 0.71206 -1.40597 0
M  V30 1421 C 138.879 1.02058 -1.22704 0
M  V30 1422 C 139.079 2.01228 -0.104729 0
M  V30 1423 O 138.135 2.4674 0.53624 0
M  V30 1424 C 139.448 1.56094 -2.57012 0
M  V30 1425 C 140.996 1.6806 -2.64054 0
M  V30 1426 C 141.471 2.25501 -3.9864 0
M  V30 1427 N 142.962 2.32882 -4.004 0
M  V30 1428 C 143.697 2.78317 -5.01325 0
M  V30 1429 N 143.193 3.23478 -6.12645 0
M  V30 1430 N 144.986 2.77733 -4.88693 0
M  V30 1431 H 137.137 0.0547896 -2.12329 0
M  V30 1432 H 139.4 0.0869027 -0.944008 0
M  V30 1433 H 139.106 0.906865 -3.39807 0
M  V30 1434 H 138.98 2.54564 -2.78347 0
M  V30 1435 H 141.367 2.32583 -1.81629 0
M  V30 1436 H 141.448 0.681802 -2.46546 0
M  V30 1437 H 141.092 1.61598 -4.81506 0
M  V30 1438 H 141.022 3.26102 -4.13479 0
M  V30 1439 H 143.513 2.00991 -3.20017 0
M  V30 1440 H 143.826 3.56725 -6.85542 0
M  V30 1441 H 142.171 3.21429 -6.16205 0
M  V30 1442 H 145.362 2.4179 -4.00818 0
M  V30 1443 H 145.535 3.12826 -5.67489 0
M  V30 1444 N 138.941 1.26152 0.944643 0
M  V30 1445 C 140.166 1.14363 1.7302 0
M  V30 1446 C 140.591 -0.29772 1.85729 0
M  V30 1447 O 139.949 -1.2157 1.34501 0
M  V30 1448 C 139.997 1.81378 3.11664 0
M  V30 1449 O 139.101 1.10022 3.97453 0
M  V30 1450 H 138.442 0.398694 0.53098 0
M  V30 1451 H 140.972 1.66906 1.18337 0
M  V30 1452 H 140.982 1.88064 3.62072 0
M  V30 1453 H 139.657 2.86237 3.0173 0
M  V30 1454 H 138.234 1.11287 3.55907 0
M  V30 1455 N 140.419 -1.14872 1.07899 0
M  V30 1456 C 141.649 -1.89386 0.825631 0
M  V30 1457 C 142.057 -1.78565 -0.625406 0
M  V30 1458 O 141.4 -1.13918 -1.44113 0
M  V30 1459 C 141.462 -3.40206 1.16191 0
M  V30 1460 C 141.126 -3.74812 2.61467 0
M  V30 1461 C 142.123 -3.75367 3.59716 0
M  V30 1462 C 139.808 -4.0495 2.97189 0
M  V30 1463 C 141.802 -4.05574 4.9172 0
M  V30 1464 C 139.489 -4.34821 4.29388 0
M  V30 1465 C 140.487 -4.35116 5.26463 0
M  V30 1466 O 140.175 -4.64267 6.56286 0
M  V30 1467 H 139.907 -0.606894 0.297751 0
M  V30 1468 H 142.461 -1.46438 1.44031 0
M  V30 1469 H 140.691 -3.8358 0.490214 0
M  V30 1470 H 142.38 -3.96018 0.890193 0
M  V30 1471 H 143.146 -3.52176 3.33462 0
M  V30 1472 H 139.025 -4.03876 2.22273 0
M  V30 1473 H 142.569 -4.05719 5.67484 0
M  V30 1474 H 138.466 -4.5748 4.55392 0
M  V30 1475 H 139.234 -4.82007 6.61522 0
M  V30 1476 N 141.898 -0.863906 -1.31812 0
M  V30 1477 C 142.828 -0.330843 -2.31144 0
M  V30 1478 C 143.809 0.575005 -1.60087 0
M  V30 1479 O 144.994 0.493304 -1.8783 0
M  V30 1480 C 142.124 0.47374 -3.44054 0
M  V30 1481 C 141.078 -0.338481 -4.26659 0
M  V30 1482 C 140.404 0.591412 -5.31419 0
M  V30 1483 C 141.704 -1.56926 -4.98168 0
M  V30 1484 H 143.398 -1.16086 -2.75979 0
M  V30 1485 H 140.944 -0.559657 -1.32679 0
M  V30 1486 H 142.897 0.857143 -4.12591 0
M  V30 1487 H 141.621 1.33721 -2.9797 0
M  V30 1488 H 140.28 -0.703754 -3.59782 0
M  V30 1489 H 139.928 1.45199 -4.81587 0
M  V30 1490 H 139.628 0.0519022 -5.87577 0
M  V30 1491 H 141.152 0.97179 -6.02817 0
M  V30 1492 H 142.566 -1.25764 -5.59336 0
M  V30 1493 H 140.963 -2.04739 -5.64094 0
M  V30 1494 H 142.033 -2.32544 -4.25501 0
M  V30 1495 N 143.376 1.44774 -0.622745 0
M  V30 1496 C 144.324 2.32387 0.0994683 0
M  V30 1497 C 145.318 1.46859 0.844326 0
M  V30 1498 O 146.524 1.63254 0.758174 0
M  V30 1499 H 142.899 0.750273 0.0509291 0
M  V30 1500 H 144.87 2.91062 -0.65767 0
M  V30 1501 C 143.619 3.30723 1.07319 0
M  V30 1502 H 142.942 3.96541 0.509462 0
M  V30 1503 H 144.382 3.94725 1.54817 0
M  V30 1504 C 142.841 2.59021 2.15429 0
M  V30 1505 O 143.371 2.38286 3.23393 0
M  V30 1506 N 141.577 2.189 1.91131 0
M  V30 1507 H 141.124 2.35964 1.03337 0
M  V30 1508 H 141.082 1.71251 2.63668 0
M  V30 1509 N 144.854 0.36279 1.53368 0
M  V30 1510 C 145.764 -0.492994 2.29362 0
M  V30 1511 C 146.78 -1.09507 1.35219 0
M  V30 1512 O 147.956 -1.10662 1.68273 0
M  V30 1513 C 145.021 -1.61855 3.066 0
M  V30 1514 C 144.082 -1.04429 4.16405 0
M  V30 1515 C 143.315 -2.11621 4.89951 0
M  V30 1516 O 143.538 -3.32684 4.63333 0
M  V30 1517 O 142.472 -1.74835 5.75948 0
M  V30 1518 H 146.298 0.125331 3.03441 0
M  V30 1519 H 143.883 0.127253 1.48857 0
M  V30 1520 H 145.765 -2.27302 3.54841 0
M  V30 1521 H 144.44 -2.22233 2.3536 0
M  V30 1522 H 143.347 -0.353819 3.72423 0
M  V30 1523 H 144.68 -0.485113 4.89804 0
M  V30 1524 N 146.332 -1.57332 0.0918853 0
M  V30 1525 C 147.264 -2.10869 -0.898168 0
M  V30 1526 C 148.277 -1.04521 -1.24817 0
M  V30 1527 O 149.466 -1.31977 -1.20184 0
M  V30 1528 C 146.566 -2.57083 -2.2082 0
M  V30 1529 C 145.739 -3.87229 -2.03402 0
M  V30 1530 C 144.798 -4.19324 -3.17889 0
M  V30 1531 O 143.824 -4.88598 -2.91994 0
M  V30 1532 N 145.026 -3.74471 -4.43567 0
M  V30 1533 H 147.791 -2.96439 -0.440943 0
M  V30 1534 H 145.352 -1.61631 -0.0933064 0
M  V30 1535 H 147.344 -2.75602 -2.96354 0
M  V30 1536 H 145.914 -1.76541 -2.57977 0
M  V30 1537 H 145.134 -3.7789 -1.12218 0
M  V30 1538 H 146.422 -4.72379 -1.89038 0
M  V30 1539 H 145.82 -3.18546 -4.67488 0
M  V30 1540 H 144.377 -3.98151 -5.16061 0
M  V30 1541 N 147.81 0.181792 -1.56548 0
M  V30 1542 C 148.74 1.22765 -1.98623 0
M  V30 1543 C 149.721 1.46747 -0.860189 0
M  V30 1544 O 150.906 1.58259 -1.12551 0
M  V30 1545 C 148.036 2.56894 -2.33715 0
M  V30 1546 C 146.99 2.475 -3.49182 0
M  V30 1547 C 146.316 3.86023 -3.69986 0
M  V30 1548 C 147.616 1.98866 -4.82959 0
M  V30 1549 H 149.31 0.877942 -2.86239 0
M  V30 1550 H 146.856 0.42088 -1.37712 0
M  V30 1551 H 148.809 3.30253 -2.61746 0
M  V30 1552 H 147.533 2.93632 -1.42997 0
M  V30 1553 H 146.192 1.76596 -3.21262 0
M  V30 1554 H 145.84 4.20136 -2.76576 0
M  V30 1555 H 145.54 3.80609 -4.47672 0
M  V30 1556 H 147.064 4.60984 -4.00407 0
M  V30 1557 H 148.478 2.61992 -5.09934 0
M  V30 1558 H 146.875 2.04424 -5.64208 0
M  V30 1559 H 147.945 0.942465 -4.75653 0
M  V30 1560 N 149.288 1.51039 0.449983 0
M  V30 1561 C 150.516 1.66869 1.2232 0
M  V30 1562 C 150.931 0.360727 1.85322 0
M  V30 1563 O 150.288 -0.659531 1.70166 0
M  V30 1564 C 150.339 2.77524 2.31652 0
M  V30 1565 O 150.06 4.03252 1.7123 0
M  V30 1566 C 151.561 3.04512 3.2216 0
M  V30 1567 H 148.781 0.560326 0.369155 0
M  V30 1568 H 151.325 1.97385 0.534719 0
M  V30 1569 H 149.48 2.49642 2.96239 0
M  V30 1570 H 149.894 4.64609 2.43389 0
M  V30 1571 H 151.368 3.85551 3.95038 0
M  V30 1572 H 151.845 2.16415 3.8218 0
M  V30 1573 H 152.451 3.34005 2.63288 0
M  V30 1574 N 150.766 -0.704594 1.40972 0
M  V30 1575 C 151.696 -1.83124 1.44872 0
M  V30 1576 C 152.677 -1.67281 0.30838 0
M  V30 1577 O 153.862 -1.87149 0.518556 0
M  V30 1578 C 150.992 -3.21181 1.32136 0
M  V30 1579 C 149.946 -3.51714 2.43888 0
M  V30 1580 C 149.272 -4.89032 2.16222 0
M  V30 1581 C 150.572 -3.516 3.86232 0
M  V30 1582 H 152.266 -1.80117 2.39161 0
M  V30 1583 H 149.812 -0.865145 1.15114 0
M  V30 1584 H 151.765 -3.99702 1.33479 0
M  V30 1585 H 150.489 -3.24791 0.343279 0
M  V30 1586 H 149.148 -2.75539 2.41813 0
M  V30 1587 H 148.796 -4.89256 1.16778 0
M  V30 1588 H 148.496 -5.10426 2.911 0
M  V30 1589 H 150.02 -5.69873 2.19265 0
M  V30 1590 H 151.434 -4.2014 3.9007 0
M  V30 1591 H 149.831 -3.84523 4.60719 0
M  V30 1592 H 150.901 -2.50757 4.15029 0
M  V30 1593 N 152.244 -1.26651 -0.937939 0
M  V30 1594 C 153.174 -1.10993 -2.05433 0
M  V30 1595 C 154.155 -0.0142161 -1.70094 0
M  V30 1596 O 155.34 -0.186837 -1.93299 0
M  V30 1597 C 152.47 -0.745561 -3.39203 0
M  V30 1598 C 151.424 -1.79337 -3.88616 0
M  V30 1599 C 150.75 -1.28324 -5.19073 0
M  V30 1600 C 152.05 -3.19553 -4.13138 0
M  V30 1601 H 153.744 -2.0438 -2.1879 0
M  V30 1602 H 151.29 -0.984041 -1.05131 0
M  V30 1603 H 153.243 -0.622888 -4.16771 0
M  V30 1604 H 151.967 0.22401 -3.25831 0
M  V30 1605 H 150.626 -1.90477 -3.13231 0
M  V30 1606 H 150.274 -0.303414 -5.02084 0
M  V30 1607 H 149.974 -1.98369 -5.53103 0
M  V30 1608 H 151.498 -1.1733 -5.99221 0
M  V30 1609 H 152.912 -3.11471 -4.81309 0
M  V30 1610 H 151.309 -3.87218 -4.58457 0
M  V30 1611 H 152.379 -3.65368 -3.18801 0
M  V30 1612 N 153.722 1.14298 -1.08507 0
M  V30 1613 C 154.952 1.88945 -0.835663 0
M  V30 1614 C 155.36 1.78894 0.615928 0
M  V30 1615 O 154.703 1.1468 1.43506 0
M  V30 1616 C 154.765 3.39585 -1.17994 0
M  V30 1617 C 154.429 3.7342 -2.63451 0
M  V30 1618 C 155.426 3.73454 -3.61702 0
M  V30 1619 C 153.111 4.03368 -2.99332 0
M  V30 1620 C 155.105 4.02961 -4.93864 0
M  V30 1621 C 152.792 4.32538 -4.31687 0
M  V30 1622 C 153.79 4.32318 -5.28763 0
M  V30 1623 O 153.478 4.6078 -6.58739 0
M  V30 1624 H 153.21 0.605307 -0.300965 0
M  V30 1625 H 155.764 1.45673 -1.44806 0
M  V30 1626 H 153.994 3.83315 -0.51055 0
M  V30 1627 H 155.683 3.9554 -0.911182 0
M  V30 1628 H 156.449 3.50403 -3.35325 0
M  V30 1629 H 152.328 4.02692 -2.24411 0
M  V30 1630 H 155.872 4.02704 -5.69627 0
M  V30 1631 H 151.769 4.55059 -4.57812 0
M  V30 1632 H 152.537 4.78492 -6.64069 0
M  V30 1633 N 155.201 0.870884 1.31352 0
M  V30 1634 C 156.133 0.28455 2.27427 0
M  V30 1635 C 157.146 -0.552927 1.53123 0
M  V30 1636 O 158.335 -0.374771 1.74521 0
M  V30 1637 C 155.435 -0.615164 3.3327 0
M  V30 1638 C 154.608 0.190079 4.36987 0
M  V30 1639 C 153.667 -0.637917 5.22319 0
M  V30 1640 O 152.693 -0.065626 5.69162 0
M  V30 1641 N 153.895 -1.94973 5.46778 0
M  V30 1642 H 156.66 1.11017 2.7838 0
M  V30 1643 H 154.221 0.732458 1.44384 0
M  V30 1644 H 156.213 -1.1748 3.87273 0
M  V30 1645 H 154.783 -1.34146 2.82354 0
M  V30 1646 H 154.003 0.931165 3.83044 0
M  V30 1647 H 155.291 0.742579 5.03352 0
M  V30 1648 H 154.689 -2.4378 5.10478 0
M  V30 1649 H 153.246 -2.45713 6.03712 0
M  V30 1650 N 156.679 -1.44442 0.630414 0
M  V30 1651 C 157.956 -1.9549 0.0655657 0
M  V30 1652 C 158.336 -1.5724 -1.40851 0
M  V30 1653 O 157.684 -0.846116 -2.12257 0
M  V30 1654 C 157.894 -3.47812 0.287691 0
M  V30 1655 C 159.242 -4.24216 0.180513 0
M  V30 1656 O 160.266 -3.55526 0.219019 0
M  V30 1657 O 159.125 -5.46434 0.0848493 0
M  V30 1658 H 156.219 -0.826688 -0.0227177 0
M  V30 1659 H 158.765 -1.54496 0.702068 0
M  V30 1660 H 157.537 -3.687 1.31056 0
M  V30 1661 H 157.16 -3.95751 -0.382984 0
M  V30 1662 N 158.157 -0.370918 -1.53173 0
M  V30 1663 C 159.387 0.217389 -2.05453 0
M  V30 1664 C 159.795 1.42568 -1.24382 0
M  V30 1665 O 159.138 1.81571 -0.278839 0
M  V30 1666 C 159.2 0.669827 -3.53205 0
M  V30 1667 C 158.864 -0.4225 -4.55043 0
M  V30 1668 C 159.861 -1.27407 -5.04047 0
M  V30 1669 C 157.546 -0.58427 -4.9889 0
M  V30 1670 C 159.54 -2.27271 -5.95505 0
M  V30 1671 C 157.227 -1.58627 -5.90153 0
M  V30 1672 C 158.225 -2.42892 -6.38351 0
M  V30 1673 O 157.913 -3.41382 -7.27814 0
M  V30 1674 H 157.645 0.0408171 -0.674767 0
M  V30 1675 H 160.199 -0.5292 -1.98466 0
M  V30 1676 H 158.429 1.4681 -3.57748 0
M  V30 1677 H 160.118 1.18173 -3.88317 0
M  V30 1678 H 160.884 -1.16031 -4.70916 0
M  V30 1679 H 156.763 0.061851 -4.60959 0
M  V30 1680 H 160.307 -2.93079 -6.33049 0
M  V30 1681 H 156.204 -1.70048 -6.22699 0
M  V30 1682 H 156.972 -3.37173 -7.45826 0
M  V30 1683 N 159.635 1.57281 -0.100228 0
M  V30 1684 C 160.883 1.94153 0.561157 0
M  V30 1685 C 161.204 0.983157 1.68401 0
M  V30 1686 O 160.474 0.0361132 1.95867 0
M  V30 1687 H 159.054 0.716791 0.210283 0
M  V30 1688 H 161.716 1.94202 -0.164765 0
M  V30 1689 H 160.812 2.96709 0.968008 0
M  V30 1690 N 161.113 -0.173488 1.56642 0
M  V30 1691 C 162.076 -1.19859 1.95362 0
M  V30 1692 C 163.076 -1.37296 0.83704 0
M  V30 1693 O 164.266 -1.34739 1.10413 0
M  V30 1694 C 161.398 -2.56405 2.24654 0
M  V30 1695 H 162.591 -0.867062 2.87092 0
M  V30 1696 H 160.144 -0.415853 1.50666 0
M  V30 1697 H 160.879 -2.94576 1.35631 0
M  V30 1698 H 160.664 -2.45115 3.06041 0
M  V30 1699 H 162.154 -3.30287 2.5554 0
M  V30 1700 N 162.591 -1.51276 -0.441967 0
M  V30 1701 C 163.541 -1.6864 -1.53442 0
M  V30 1702 C 164.525 -0.540444 -1.51552 0
M  V30 1703 O 165.717 -0.796157 -1.58083 0
M  V30 1704 C 162.846 -1.8106 -2.91672 0
M  V30 1705 C 161.932 -3.01424 -2.98336 0
M  V30 1706 N 162.323 -4.2467 -2.74752 0
M  V30 1707 C 160.621 -3.00584 -3.29493 0
M  V30 1708 C 161.322 -5.05891 -2.87139 0
M  V30 1709 N 160.298 -4.40442 -3.18609 0
M  V30 1710 H 164.1 -2.61598 -1.33954 0
M  V30 1711 H 161.614 -1.4886 -0.6492 0
M  V30 1712 H 163.611 -1.91609 -3.70259 0
M  V30 1713 H 162.271 -0.892795 -3.12185 0
M  V30 1714 H 163.282 -4.53691 -2.49769 0
M  V30 1715 H 159.959 -2.18417 -3.55809 0
M  V30 1716 H 161.349 -6.13983 -2.72899 0
M  V30 1717 N 164.069 0.697108 -1.41344 0
M  V30 1718 C 165.318 1.45279 -1.39918 0
M  V30 1719 C 165.631 1.95597 -0.0109624 0
M  V30 1720 O 166.837 2.71208 0.125919 0
M  V30 1721 C 165.293 2.62695 -2.46007 0
M  V30 1722 C 164.901 2.19169 -3.90729 0
M  V30 1723 C 166.645 3.40336 -2.53715 0
M  V30 1724 C 164.552 3.33535 -4.88373 0
M  V30 1725 H 163.482 0.545692 -0.520323 0
M  V30 1726 H 166.133 0.756929 -1.67161 0
M  V30 1727 H 164.515 3.34541 -2.11892 0
M  V30 1728 H 165.689 1.54623 -4.34083 0
M  V30 1729 H 164.004 1.54525 -3.86666 0
M  V30 1730 H 166.601 4.2547 -3.2385 0
M  V30 1731 H 166.944 3.85418 -1.5735 0
M  V30 1732 H 167.477 2.75546 -2.86913 0
M  V30 1733 H 164.216 2.93468 -5.86137 0
M  V30 1734 H 163.736 3.96936 -4.49668 0
M  V30 1735 H 165.415 3.99335 -5.09059 0
M  V30 1736 N 165.547 1.27147 0.931209 0
M  V30 1737 C 166.772 1.16191 1.71797 0
M  V30 1738 C 167.197 -0.278004 1.86034 0
M  V30 1739 O 166.555 -1.20137 1.35782 0
M  V30 1740 C 166.603 1.84673 3.09723 0
M  V30 1741 O 165.707 1.14231 3.96264 0
M  V30 1742 H 165.048 0.404303 0.526721 0
M  V30 1743 H 167.578 1.68152 1.1656 0
M  V30 1744 H 167.588 1.91893 3.60057 0
M  V30 1745 H 166.263 2.89421 2.98677 0
M  V30 1746 H 164.84 1.15056 3.54706 0
M  V30 1747 N 167.025 -1.13721 1.09112 0
M  V30 1748 C 168.271 -1.85198 0.826414 0
M  V30 1749 C 168.604 -1.83129 -0.646319 0
M  V30 1750 O 167.879 -1.2671 -1.47563 0
M  V30 1751 C 168.162 -3.33507 1.35812 0
M  V30 1752 C 168.015 -3.44108 2.89672 0
M  V30 1753 C 169.334 -4.28838 0.989256 0
M  V30 1754 H 166.453 -0.67243 0.301675 0
M  V30 1755 H 169.095 -1.33499 1.35197 0
M  V30 1756 H 167.245 -3.77666 0.911082 0
M  V30 1757 H 168.917 -3.08684 3.428 0
M  V30 1758 H 167.16 -2.85087 3.26967 0
M  V30 1759 H 167.831 -4.48388 3.21951 0
M  V30 1760 H 170.307 -3.92734 1.37475 0
M  V30 1761 H 169.183 -5.31051 1.38838 0
M  V30 1762 H 169.444 -4.4198 -0.102924 0
M  V30 1763 N 168.503 -0.877838 -1.30888 0
M  V30 1764 C 169.435 -0.296607 -2.27273 0
M  V30 1765 C 170.448 0.544799 -1.53414 0
M  V30 1766 O 171.637 0.365511 -1.74718 0
M  V30 1767 C 168.737 0.597481 -3.33592 0
M  V30 1768 C 167.91 -0.213251 -4.3688 0
M  V30 1769 C 166.969 0.610208 -5.2265 0
M  V30 1770 O 165.995 0.035441 -5.69189 0
M  V30 1771 N 167.197 1.92071 -5.47804 0
M  V30 1772 H 169.962 -1.12492 -2.77787 0
M  V30 1773 H 167.523 -0.740105 -1.43993 0
M  V30 1774 H 169.515 1.15425 -3.87891 0
M  V30 1775 H 168.085 1.32647 -2.83061 0
M  V30 1776 H 167.305 -0.951466 -3.82545 0
M  V30 1777 H 168.593 -0.769262 -5.02951 0
M  V30 1778 H 167.991 2.4107 -5.11763 0
M  V30 1779 H 166.548 2.42508 -6.05007 0
M  V30 1780 N 169.982 1.44106 -0.638065 0
M  V30 1781 C 171.393 1.85316 -0.226894 0
M  V30 1782 C 171.744 1.53399 1.22324 0
M  V30 1783 O 170.869 0.975463 1.93167 0
M  V30 1784 C 171.464 3.3637 -0.405013 0
M  V30 1785 C 170.023 3.76369 -0.0482902 0
M  V30 1786 C 169.17 2.67921 -0.715108 0
M  V30 1787 H 172.121 1.34474 -0.842764 0
M  V30 1788 H 172.142 3.7885 0.354 0
M  V30 1789 H 171.654 3.59569 -1.46053 0
M  V30 1790 H 169.755 3.58784 1.00522 0
M  V30 1791 H 169.868 4.76856 -0.463187 0
M  V30 1792 H 168.232 2.54259 -0.149753 0
M  V30 1793 H 169.015 2.93951 -1.77335 0
M  V30 1794 N 171.46 0.379036 1.52974 0
M  V30 1795 C 172.685 -0.209353 2.06341 0
M  V30 1796 C 173.11 -1.40583 1.24972 0
M  V30 1797 O 172.468 -1.79246 0.272155 0
M  V30 1798 C 172.516 -0.567786 3.56102 0
M  V30 1799 O 171.62 -1.66318 3.77375 0
M  V30 1800 H 170.961 -0.0272919 0.663439 0
M  V30 1801 H 173.491 0.543536 1.97248 0
M  V30 1802 H 173.501 -0.835003 3.99364 0
M  V30 1803 H 172.176 0.307013 4.14765 0
M  V30 1804 H 170.753 -1.39048 3.46006 0
M  V30 1805 N 172.938 -1.57226 0.108567 0
M  V30 1806 C 173.87 -2.11809 -0.875752 0
M  V30 1807 C 174.883 -1.05839 -1.23701 0
M  V30 1808 O 176.072 -1.33245 -1.18778 0
M  V30 1809 C 173.172 -2.59411 -2.18081 0
M  V30 1810 C 172.345 -3.89364 -1.99284 0
M  V30 1811 C 171.404 -4.22672 -3.13424 0
M  V30 1812 O 170.43 -4.91668 -2.86795 0
M  V30 1813 N 171.632 -3.79154 -4.3957 0
M  V30 1814 H 174.397 -2.9689 -0.409477 0
M  V30 1815 H 171.958 -1.61721 -0.076158 0
M  V30 1816 H 173.95 -2.7873 -2.93414 0
M  V30 1817 H 172.52 -1.79268 -2.5609 0
M  V30 1818 H 171.74 -3.79059 -1.08203 0
M  V30 1819 H 173.028 -4.74358 -1.84017 0
M  V30 1820 H 172.426 -3.23486 -4.64083 0
M  V30 1821 H 170.983 -4.03602 -5.11809 0
M  V30 1822 N 174.416 0.165178 -1.56732 0
M  V30 1823 C 175.366 1.20917 -1.93295 0
M  V30 1824 C 176.35 1.39488 -0.801985 0
M  V30 1825 O 177.542 1.41356 -1.06525 0
M  V30 1826 C 174.671 2.54718 -2.3016 0
M  V30 1827 C 173.757 2.39815 -3.49785 0
M  V30 1828 N 174.148 1.94637 -4.66851 0
M  V30 1829 C 172.446 2.70623 -3.54513 0
M  V30 1830 C 173.147 1.92344 -5.4898 0
M  V30 1831 N 172.123 2.34978 -4.9019 0
M  V30 1832 H 175.925 0.851675 -2.81289 0
M  V30 1833 H 173.439 0.373399 -1.58049 0
M  V30 1834 H 175.436 3.30165 -2.54552 0
M  V30 1835 H 174.096 2.91265 -1.43508 0
M  V30 1836 H 175.107 1.6488 -4.90953 0
M  V30 1837 H 171.784 3.11167 -2.78354 0
M  V30 1838 H 173.174 1.5906 -6.52801 0
M  V30 1839 N 175.894 1.51508 0.433938 0
M  V30 1840 C 176.804 1.75917 1.5521 0
M  V30 1841 C 177.82 0.643545 1.61662 0
M  V30 1842 O 178.996 0.926183 1.7884 0
M  V30 1843 C 176.061 1.88213 2.91164 0
M  V30 1844 C 175.122 3.12074 2.94802 0
M  V30 1845 C 174.355 3.23774 4.24271 0
M  V30 1846 O 174.578 2.4133 5.16833 0
M  V30 1847 O 173.512 4.16774 4.34262 0
M  V30 1848 H 177.338 2.70777 1.37527 0
M  V30 1849 H 174.923 1.36051 0.617293 0
M  V30 1850 H 176.805 1.98267 3.71845 0
M  V30 1851 H 175.48 0.965413 3.08968 0
M  V30 1852 H 174.387 3.07497 2.13065 0
M  V30 1853 H 175.72 4.03446 2.81943 0
M  V30 1854 N 177.372 -0.689602 1.41712 0
M  V30 1855 C 178.621 -1.44534 1.40686 0
M  V30 1856 C 178.934 -1.95588 0.0213352 0
M  V30 1857 O 180.14 -2.71271 -0.111534 0
M  V30 1858 C 178.596 -2.61387 2.47396 0
M  V30 1859 C 178.204 -2.17094 3.91885 0
M  V30 1860 C 179.948 -3.38986 2.55517 0
M  V30 1861 C 177.855 -3.3094 4.90135 0
M  V30 1862 H 176.785 -0.542925 0.52321 0
M  V30 1863 H 179.436 -0.748054 1.6756 0
M  V30 1864 H 177.818 -3.33412 2.13664 0
M  V30 1865 H 178.992 -1.52318 4.34897 0
M  V30 1866 H 177.307 -1.52473 3.8748 0
M  V30 1867 H 179.904 -4.23747 3.26102 0
M  V30 1868 H 180.247 -3.84578 1.59391 0
M  V30 1869 H 180.78 -2.74021 2.8837 0
M  V30 1870 H 177.519 -2.90355 5.87685 0
M  V30 1871 H 177.039 -3.94546 4.51767 0
M  V30 1872 H 178.718 -3.9663 5.11169 0
M  V30 1873 N 178.85 -1.27639 -0.924453 0
M  V30 1874 C 180.261 -1.12834 -1.48746 0
M  V30 1875 C 180.612 0.285505 -1.94112 0
M  V30 1876 O 179.737 1.17874 -1.81479 0
M  V30 1877 C 180.332 -2.04217 -2.70334 0
M  V30 1878 C 178.891 -1.93509 -3.22848 0
M  V30 1879 C 178.038 -1.96583 -1.95577 0
M  V30 1880 H 180.989 -1.40484 -0.738233 0
M  V30 1881 H 181.01 -1.59989 -3.4523 0
M  V30 1882 H 180.522 -3.07111 -2.37285 0
M  V30 1883 H 178.623 -0.936131 -3.60649 0
M  V30 1884 H 178.736 -2.79917 -3.88823 0
M  V30 1885 H 177.1 -1.4085 -2.12211 0
M  V30 1886 H 177.883 -3.01137 -1.64837 0
M  V30 1887 N 180.328 1.1314 -1.09713 0
M  V30 1888 C 181.558 1.88048 -0.855656 0
M  V30 1889 C 181.966 1.79537 0.596919 0
M  V30 1890 O 181.309 1.16196 1.42282 0
M  V30 1891 C 181.371 3.38314 -1.21589 0
M  V30 1892 C 181.035 3.70605 -2.67397 0
M  V30 1893 C 182.032 3.69596 -3.65643 0
M  V30 1894 C 179.717 4.0017 -3.03593 0
M  V30 1895 C 181.711 3.977 -4.9811 0
M  V30 1896 C 179.398 4.27935 -4.36251 0
M  V30 1897 C 180.396 4.26685 -5.33318 0
M  V30 1898 O 180.084 4.53767 -6.63589 0
M  V30 1899 H 179.816 0.60208 -0.307368 0
M  V30 1900 H 182.37 1.44128 -1.46343 0
M  V30 1901 H 180.6 3.82752 -0.551177 0
M  V30 1902 H 182.289 3.94552 -0.953083 0
M  V30 1903 H 183.055 3.46826 -3.39023 0
M  V30 1904 H 178.934 4.00289 -2.2867 0
M  V30 1905 H 182.478 3.9664 -5.73866 0
M  V30 1906 H 178.375 4.50178 -4.62613 0
M  V30 1907 H 179.143 4.71422 -6.69107 0
M  V30 1908 N 181.806 0.884767 1.30421 0
M  V30 1909 C 183.217 0.553656 1.78302 0
M  V30 1910 C 183.568 -0.930153 1.7275 0
M  V30 1911 O 182.693 -1.72681 1.30423 0
M  V30 1912 C 183.288 0.998234 3.2376 0
M  V30 1913 C 181.847 0.71854 3.69478 0
M  V30 1914 C 180.994 1.18132 2.50879 0
M  V30 1915 H 183.945 1.06901 1.17294 0
M  V30 1916 H 183.966 0.327118 3.79091 0
M  V30 1917 H 183.478 2.0782 3.27769 0
M  V30 1918 H 181.579 -0.349444 3.70958 0
M  V30 1919 H 181.692 1.30595 4.60958 0
M  V30 1920 H 180.056 0.600669 2.47516 0
M  V30 1921 H 180.839 2.26902 2.57624 0
M  V30 1922 N 183.284 -1.43765 0.645699 0
M  V30 1923 C 184.514 -2.05953 0.163318 0
M  V30 1924 C 184.922 -1.48432 -1.17322 0
M  V30 1925 O 184.265 -0.607295 -1.73371 0
M  V30 1926 C 184.327 -3.59499 -0.0103065 0
M  V30 1927 C 183.991 -4.39563 1.25035 0
M  V30 1928 C 184.988 -4.72108 2.17739 0
M  V30 1929 C 182.673 -4.79697 1.48983 0
M  V30 1930 C 184.667 -5.43688 3.3269 0
M  V30 1931 C 182.354 -5.51023 2.64229 0
M  V30 1932 C 183.352 -5.8294 3.55908 0
M  V30 1933 O 183.04 -6.5281 4.69142 0
M  V30 1934 H 182.772 -0.670798 0.0836986 0
M  V30 1935 H 185.326 -1.85384 0.884407 0
M  V30 1936 H 183.556 -3.78613 -0.78669 0
M  V30 1937 H 185.245 -4.03408 -0.449087 0
M  V30 1938 H 186.011 -4.41627 2.00476 0
M  V30 1939 H 181.89 -4.54266 0.785078 0
M  V30 1940 H 185.434 -5.68517 4.04269 0
M  V30 1941 H 181.331 -5.8092 2.81429 0
M  V30 1942 H 182.099 -6.71288 4.6831 0
M  V30 1943 N 184.763 -0.387143 -1.52771 0
M  V30 1944 C 186.009 0.196025 -2.0185 0
M  V30 1945 C 186.342 1.46641 -1.27319 0
M  V30 1946 O 185.617 1.90889 -0.373032 0
M  V30 1947 C 185.9 0.466136 -3.5707 0
M  V30 1948 C 185.753 -0.819385 -4.42274 0
M  V30 1949 C 187.072 1.25768 -4.21747 0
M  V30 1950 H 184.191 0.0697708 -0.73369 0
M  V30 1951 H 186.833 -0.516286 -1.82851 0
M  V30 1952 H 184.983 1.07293 -3.7339 0
M  V30 1953 H 186.655 -1.4563 -4.37709 0
M  V30 1954 H 184.898 -1.43517 -4.09372 0
M  V30 1955 H 185.569 -0.585065 -5.48891 0
M  V30 1956 H 188.045 0.744167 -4.09391 0
M  V30 1957 H 186.921 1.41541 -5.30337 0
M  V30 1958 H 187.182 2.27228 -3.79236 0
M  V30 1959 N 186.241 1.57166 -0.116904 0
M  V30 1960 C 187.49 1.94298 0.541407 0
M  V30 1961 C 187.803 1.00236 1.67964 0
M  V30 1962 O 189.009 1.26826 2.40057 0
M  V30 1963 C 187.465 3.45306 1.01449 0
M  V30 1964 C 187.073 4.47899 -0.0951738 0
M  V30 1965 C 188.817 3.91361 1.6443 0
M  V30 1966 C 186.724 5.90083 0.394491 0
M  V30 1967 H 185.654 0.725308 0.206019 0
M  V30 1968 H 188.305 1.82446 -0.196419 0
M  V30 1969 H 186.687 3.52385 1.80667 0
M  V30 1970 H 187.861 4.52486 -0.871374 0
M  V30 1971 H 186.176 4.11583 -0.631505 0
M  V30 1972 H 188.773 4.95004 2.02176 0
M  V30 1973 H 189.116 3.3122 2.52189 0
M  V30 1974 H 189.649 3.87073 0.917559 0
M  V30 1975 H 186.388 6.53974 -0.447004 0
M  V30 1976 H 185.908 5.88921 1.13722 0
M  V30 1977 H 187.587 6.41307 0.856399 0
M  V30 1978 N 187.719 -0.156864 1.56817 0
M  V30 1979 C 188.996 -0.899244 1.73704 0
M  V30 1980 C 189.376 -1.99771 0.682254 0
M  V30 1981 O 188.724 -2.26515 -0.300522 0
M  V30 1982 C 188.934 -1.45075 3.17418 0
M  V30 1983 C 190.282 -1.91802 3.7881 0
M  V30 1984 O 191.306 -1.54838 3.20786 0
M  V30 1985 O 190.165 -2.5994 4.80722 0
M  V30 1986 H 187.259 -0.424267 0.709878 0
M  V30 1987 H 189.805 -0.143561 1.69092 0
M  V30 1988 H 188.577 -0.660846 3.85679 0
M  V30 1989 H 188.2 -2.27021 3.26416 0
M  V30 1990 N 189.197 -1.51736 -0.425897 0
M  V30 1991 C 190.445 -1.64644 -1.17204 0
M  V30 1992 C 190.766 -0.370486 -1.91448 0
M  V30 1993 O 190.036 0.614088 -1.86026 0
M  V30 1994 H 188.616 -0.606819 -0.435638 0
M  V30 1995 H 191.278 -1.88713 -0.487177 0
M  V30 1996 H 190.374 -2.47958 -1.89534 0
M  V30 1997 N 190.675 0.682077 -1.42076 0
M  V30 1998 C 191.9 1.47558 -1.45744 0
M  V30 1999 C 192.325 1.87977 -0.0680981 0
M  V30 2000 O 191.683 1.55522 0.9318 0
M  V30 2001 C 191.731 2.70575 -2.38373 0
M  V30 2002 O 190.835 3.68573 -1.85007 0
M  V30 2003 H 190.176 0.443585 -0.494093 0
M  V30 2004 H 192.706 0.837238 -1.86686 0
M  V30 2005 H 192.716 3.18729 -2.54707 0
M  V30 2006 H 191.391 2.40495 -3.39315 0
M  V30 2007 H 189.968 3.2757 -1.78192 0
M  V30 2008 N 192.153 1.28127 0.917671 0
M  V30 2009 C 193.063 1.13556 2.05286 0
M  V30 2010 C 194.079 0.0630914 1.73886 0
M  V30 2011 O 195.255 0.271598 1.9956 0
M  V30 2012 C 192.32 0.794676 3.3747 0
M  V30 2013 C 191.381 1.94909 3.82504 0
M  V30 2014 C 190.614 1.62437 5.0838 0
M  V30 2015 O 190.837 0.536905 5.67867 0
M  V30 2016 O 189.771 2.46677 5.4903 0
M  V30 2017 H 193.597 2.08844 2.20495 0
M  V30 2018 H 191.182 1.07409 1.03845 0
M  V30 2019 H 193.064 0.618344 4.16839 0
M  V30 2020 H 191.739 -0.128581 3.23445 0
M  V30 2021 H 190.646 2.18055 3.03978 0
M  V30 2022 H 191.979 2.85291 4.01086 0
M  V30 2023 N 193.631 -1.12557 1.10312 0
M  V30 2024 C 194.561 -2.20341 0.772798 0
M  V30 2025 C 195.542 -1.68198 -0.25365 0
M  V30 2026 O 196.727 -1.93831 -0.119699 0
M  V30 2027 C 193.857 -3.46709 0.202443 0
M  V30 2028 C 192.811 -4.11996 1.15943 0
M  V30 2029 C 192.137 -5.328 0.450345 0
M  V30 2030 C 193.437 -4.5828 2.50552 0
M  V30 2031 H 195.131 -2.48229 1.674 0
M  V30 2032 H 192.677 -1.19308 0.806326 0
M  V30 2033 H 194.63 -4.2138 -0.0407752 0
M  V30 2034 H 193.354 -3.18245 -0.734001 0
M  V30 2035 H 192.013 -3.39305 1.38808 0
M  V30 2036 H 191.661 -5.00602 -0.490531 0
M  V30 2037 H 191.361 -5.7743 1.08851 0
M  V30 2038 H 192.885 -6.10219 0.215642 0
M  V30 2039 H 194.299 -5.2433 2.31843 0
M  V30 2040 H 192.696 -5.13683 3.10242 0
M  V30 2041 H 193.766 -3.72329 3.10643 0
M  V30 2042 N 195.109 -0.891671 -1.2995 0
M  V30 2043 C 196.337 -0.52866 -2.00032 0
M  V30 2044 C 196.752 0.884574 -1.66795 0
M  V30 2045 O 196.109 1.5827 -0.908669 0
M  V30 2046 C 196.16 -0.701814 -3.54622 0
M  V30 2047 O 195.881 -2.05942 -3.86678 0
M  V30 2048 C 197.382 -0.342683 -4.41973 0
M  V30 2049 H 194.602 -0.203659 -0.639347 0
M  V30 2050 H 197.146 -1.19881 -1.65677 0
M  V30 2051 H 195.301 -0.0789468 -3.8732 0
M  V30 2052 H 195.715 -2.08291 -4.81368 0
M  V30 2053 H 197.189 -0.514709 -5.49595 0
M  V30 2054 H 197.666 0.71975 -4.33262 0
M  V30 2055 H 198.272 -0.942154 -4.14733 0
M  V30 2056 N 196.587 1.43421 -0.653314 0
M  V30 2057 C 197.517 2.33487 0.0246656 0
M  V30 2058 C 198.498 1.49475 0.811863 0
M  V30 2059 O 199.683 1.78139 0.773322 0
M  V30 2060 C 196.813 3.32841 0.99166 0
M  V30 2061 C 195.767 4.26842 0.314568 0
M  V30 2062 C 195.093 5.16236 1.39302 0
M  V30 2063 C 196.393 5.16243 -0.793095 0
M  V30 2064 H 198.087 2.90427 -0.727481 0
M  V30 2065 H 195.633 1.39649 -0.351287 0
M  V30 2066 H 197.586 3.94747 1.47487 0
M  V30 2067 H 196.31 2.74158 1.77497 0
M  V30 2068 H 194.969 3.663 -0.148199 0
M  V30 2069 H 194.617 4.53891 2.16776 0
M  V30 2070 H 194.317 5.79948 0.945223 0
M  V30 2071 H 195.841 5.81015 1.87759 0
M  V30 2072 H 197.255 5.71958 -0.392039 0
M  V30 2073 H 195.652 5.88676 -1.16536 0
M  V30 2074 H 196.722 4.55927 -1.65103 0
M  V30 2075 N 198.065 0.39524 1.52563 0
M  V30 2076 C 199.342 -0.242908 1.94086 0
M  V30 2077 C 199.722 -1.63841 1.33114 0
M  V30 2078 O 199.07 -2.22928 0.501529 0
M  V30 2079 C 199.28 -0.26327 3.48006 0
M  V30 2080 C 200.628 -0.489354 4.21771 0
M  V30 2081 O 201.652 -0.343226 3.54543 0
M  V30 2082 O 200.511 -0.776169 5.4096 0
M  V30 2083 H 197.605 -0.152536 0.812811 0
M  V30 2084 H 200.151 0.450178 1.6362 0
M  V30 2085 H 198.923 0.713985 3.84731 0
M  V30 2086 H 198.546 -1.00103 3.84792 0
M  V30 2087 N 199.544 -1.57102 0.125237 0
M  V30 2088 C 200.96 -1.57915 -0.231322 0
M  V30 2089 C 201.16 -1.13833 -1.66266 0
M  V30 2090 O 200.216 -0.828581 -2.38518 0
M  V30 2091 C 201.529 -3.00699 0.00766489 0
M  V30 2092 C 203.077 -3.12947 -0.0577483 0
M  V30 2093 C 203.552 -4.57742 0.153626 0
M  V30 2094 N 205.043 -4.63092 0.0998073 0
M  V30 2095 C 205.778 -5.72905 0.238174 0
M  V30 2096 N 205.274 -6.91445 0.433057 0
M  V30 2097 N 207.067 -5.6182 0.177308 0
M  V30 2098 H 199.218 -1.84055 1.06007 0
M  V30 2099 H 201.481 -0.850905 0.417929 0
M  V30 2100 H 201.187 -3.3726 0.997431 0
M  V30 2101 H 201.061 -3.70236 -0.721452 0
M  V30 2102 H 203.448 -2.7624 -1.03804 0
M  V30 2103 H 203.529 -2.4594 0.70335 0
M  V30 2104 H 203.173 -4.95149 1.13092 0
M  V30 2105 H 203.103 -5.22848 -0.627534 0
M  V30 2106 H 205.594 -3.77871 -0.047051 0
M  V30 2107 H 205.907 -7.70985 0.529332 0
M  V30 2108 H 204.252 -6.93415 0.469109 0
M  V30 2109 H 207.443 -4.68093 0.0259748 0
M  V30 2110 H 207.616 -6.47357 0.288582 0
M  V30 2111 N 201.022 0.148545 -1.56898 0
M  V30 2112 C 202.247 0.880385 -1.87787 0
M  V30 2113 C 202.672 1.74018 -0.714093 0
M  V30 2114 O 202.03 1.78153 0.336343 0
M  V30 2115 C 202.078 1.71422 -3.17249 0
M  V30 2116 O 201.182 2.8183 -3.01074 0
M  V30 2117 H 200.523 0.245301 -0.617028 0
M  V30 2118 H 203.053 0.139826 -2.04122 0
M  V30 2119 H 203.063 2.10954 -3.49231 0
M  V30 2120 H 201.738 1.08284 -4.01556 0
M  V30 2121 H 200.315 2.45715 -2.80497 0
M  V30 2122 N 202.5 1.5196 0.417844 0
M  V30 2123 C 203.433 1.69387 1.52916 0
M  V30 2124 C 204.411 0.541419 1.53321 0
M  V30 2125 O 205.595 0.767695 1.72159 0
M  V30 2126 C 202.722 1.72525 2.91467 0
M  V30 2127 C 201.768 2.93967 3.09008 0
M  V30 2128 S 202.601 4.54461 2.83242 0
M  V30 2129 C 203.757 4.60372 4.24038 0
M  V30 2130 H 203.99 2.63382 1.37903 0
M  V30 2131 H 201.523 1.41889 0.608845 0
M  V30 2132 H 203.481 1.75018 3.7132 0
M  V30 2133 H 202.142 0.796733 3.03827 0
M  V30 2134 H 201.335 2.92619 4.10353 0
M  V30 2135 H 200.937 2.89316 2.37007 0
M  V30 2136 H 203.229 4.37213 5.17544 0
M  V30 2137 H 204.172 5.62273 4.30412 0
M  V30 2138 H 204.58 3.89492 4.08602 0
M  V30 2139 N 203.978 -0.674533 1.42435 0
M  V30 2140 C 205.203 -1.46784 1.46524 0
M  V30 2141 C 205.628 -1.87938 0.078066 0
M  V30 2142 O 204.986 -1.56014 -0.92354 0
M  V30 2143 C 205.034 -2.69307 2.39805 0
M  V30 2144 O 204.138 -3.67587 1.86959 0
M  V30 2145 H 203.479 -0.440959 0.496439 0
M  V30 2146 H 206.009 -0.827326 1.87127 0
M  V30 2147 H 206.019 -3.17374 2.56393 0
M  V30 2148 H 204.694 -2.38692 3.40586 0
M  V30 2149 H 203.271 -3.2662 1.79927 0
M  V30 2150 N 205.456 -1.28612 -0.910864 0
M  V30 2151 C 206.419 -1.12803 -1.9952 0
M  V30 2152 C 207.419 -0.0668264 -1.60661 0
M  V30 2153 O 208.609 -0.312847 -1.71368 0
M  V30 2154 C 205.741 -0.72254 -3.33155 0
M  V30 2155 H 206.934 -2.09109 -2.14973 0
M  V30 2156 H 204.487 -1.11639 -1.09391 0
M  V30 2157 H 205.222 0.241152 -3.23402 0
M  V30 2158 H 205.007 -1.48916 -3.62721 0
M  V30 2159 H 206.497 -0.634666 -4.12749 0
M  V30 2160 N 206.934 1.1197 -1.10907 0
M  V30 2161 C 208.182 1.83225 -0.852819 0
M  V30 2162 C 208.503 1.84769 0.623341 0
M  V30 2163 O 207.773 1.3143 1.45269 0
M  V30 2164 H 206.353 0.67849 -0.312507 0
M  V30 2165 H 209.015 1.3556 -1.40033 0
M  V30 2166 H 208.111 2.87265 -1.22005 0
M  V30 2167 N 208.412 0.89855 1.29475 0
M  V30 2168 C 209.342 0.39201 2.30186 0
M  V30 2169 C 210.323 -0.532359 1.61555 0
M  V30 2170 O 211.508 -0.443331 1.89072 0
M  V30 2171 C 208.638 -0.382353 3.45189 0
M  V30 2172 C 207.592 0.451483 4.25612 0
M  V30 2173 C 206.918 -0.450307 5.328 0
M  V30 2174 C 208.218 1.70079 4.93832 0
M  V30 2175 H 209.912 1.23362 2.72804 0
M  V30 2176 H 207.458 0.594638 1.31149 0
M  V30 2177 H 209.411 -0.747451 4.14718 0
M  V30 2178 H 208.135 -1.25774 3.01411 0
M  V30 2179 H 206.794 0.798897 3.57789 0
M  V30 2180 H 206.442 -1.32379 4.85268 0
M  V30 2181 H 206.142 0.103902 5.87508 0
M  V30 2182 H 207.666 -0.811623 6.05182 0
M  V30 2183 H 209.08 1.40549 5.55805 0
M  V30 2184 H 207.477 2.19623 5.58467 0
M  V30 2185 H 208.547 2.43744 4.19186 0
M  V30 2186 N 209.89 -1.43072 0.660911 0
M  V30 2187 C 211.118 -2.06067 0.185422 0
M  V30 2188 C 211.533 -1.49582 -1.15198 0
M  V30 2189 O 210.89 -0.630134 -1.71276 0
M  V30 2190 C 210.941 -3.61371 0.0966523 0
M  V30 2191 O 210.662 -4.15758 1.38119 0
M  V30 2192 C 212.163 -4.41455 -0.403996 0
M  V30 2193 H 209.383 -0.664459 0.0934604 0
M  V30 2194 H 211.927 -1.83447 0.90373 0
M  V30 2195 H 210.082 -3.8315 -0.572259 0
M  V30 2196 H 210.496 -5.09499 1.24542 0
M  V30 2197 H 211.97 -5.50437 -0.415045 0
M  V30 2198 H 212.447 -4.15036 -1.43674 0
M  V30 2199 H 213.053 -4.24663 0.232691 0
M  V30 2200 N 211.368 -0.403325 -1.52352 0
M  V30 2201 C 212.784 -0.0539281 -1.59509 0
M  V30 2202 C 212.984 1.43307 -1.41652 0
M  V30 2203 O 212.04 2.19924 -1.24056 0
M  V30 2204 C 213.353 -0.543654 -2.95745 0
M  V30 2205 C 214.901 -0.501125 -3.08962 0
M  V30 2206 C 215.376 -0.967267 -4.47669 0
M  V30 2207 N 216.867 -0.923849 -4.53893 0
M  V30 2208 C 217.602 -1.25578 -5.5948 0
M  V30 2209 N 217.098 -1.65889 -6.72646 0
M  V30 2210 N 218.891 -1.17613 -5.49658 0
M  V30 2211 H 211.042 -1.37123 -1.62206 0
M  V30 2212 H 213.305 -0.56294 -0.76276 0
M  V30 2213 H 213.011 -1.58275 -3.14073 0
M  V30 2214 H 212.885 0.0498042 -3.77167 0
M  V30 2215 H 215.272 0.528909 -2.90321 0
M  V30 2216 H 215.353 -1.13056 -2.2946 0
M  V30 2217 H 214.997 -1.9956 -4.67053 0
M  V30 2218 H 214.927 -0.314698 -5.25659 0
M  V30 2219 H 217.418 -0.627403 -3.72655 0
M  V30 2220 H 217.731 -1.89543 -7.49195 0
M  V30 2221 H 216.076 -1.69787 -6.73942 0
M  V30 2222 H 219.267 -0.860115 -4.6013 0
M  V30 2223 H 219.44 -1.43812 -6.3184 0
M  V30 2224 N 212.846 1.57033 -0.133567 0
M  V30 2225 C 214.076 1.99754 0.527429 0
M  V30 2226 C 214.484 1.01245 1.59832 0
M  V30 2227 O 213.827 -0.000645496 1.837 0
M  V30 2228 C 213.889 3.38903 1.19939 0
M  V30 2229 C 213.553 4.56174 0.274709 0
M  V30 2230 C 214.55 5.17563 -0.492398 0
M  V30 2231 C 212.235 5.01972 0.18153 0
M  V30 2232 C 214.229 6.2315 -1.34027 0
M  V30 2233 C 211.916 6.07416 -0.669958 0
M  V30 2234 C 212.914 6.67874 -1.42947 0
M  V30 2235 O 212.602 7.71279 -2.2668 0
M  V30 2236 H 212.334 0.660702 0.142999 0
M  V30 2237 H 214.888 2.04207 -0.221099 0
M  V30 2238 H 213.118 3.31248 1.99528 0
M  V30 2239 H 214.807 3.65818 1.75875 0
M  V30 2240 H 215.573 4.83087 -0.430367 0
M  V30 2241 H 211.452 4.54652 0.762422 0
M  V30 2242 H 214.996 6.70268 -1.93357 0
M  V30 2243 H 210.893 6.41321 -0.73333 0
M  V30 2244 H 211.661 7.88441 -2.1978 0
M  V30 2245 N 214.325 -0.140222 1.56975 0
M  V30 2246 C 215.572 -0.851687 1.83719 0
M  V30 2247 C 215.9 -1.80862 0.715485 0
M  V30 2248 O 215.155 -1.93464 -0.294956 0
M  V30 2249 C 215.454 -1.65386 3.16832 0
M  V30 2250 C 215.12 -0.843112 4.42947 0
M  V30 2251 C 213.782 -0.619464 4.77196 0
M  V30 2252 C 216.134 -0.276582 5.20466 0
M  V30 2253 C 213.462 0.181312 5.8642 0
M  V30 2254 C 215.814 0.51127 6.30531 0
M  V30 2255 C 214.478 0.745432 6.63325 0
M  V30 2256 H 213.748 -0.311654 0.672274 0
M  V30 2257 H 216.395 -0.115006 1.91154 0
M  V30 2258 H 214.7 -2.46084 3.04877 0
M  V30 2259 H 216.397 -2.20793 3.34741 0
M  V30 2260 H 212.987 -1.0275 4.16101 0
M  V30 2261 H 217.171 -0.436632 4.94376 0
M  V30 2262 H 212.427 0.372165 6.10266 0
M  V30 2263 H 216.601 0.957354 6.89788 0
M  V30 2264 H 214.228 1.36778 7.47794 0
M  V30 2265 N 215.803 -1.52179 -0.40978 0
M  V30 2266 C 217.214 -1.58377 -0.988615 0
M  V30 2267 C 217.565 -0.423879 -1.91566 0
M  V30 2268 O 216.69 0.455844 -2.11544 0
M  V30 2269 C 217.285 -2.87044 -1.79976 0
M  V30 2270 C 215.844 -2.95722 -2.32863 0
M  V30 2271 C 214.991 -2.53309 -1.12828 0
M  V30 2272 H 217.942 -1.57558 -0.190039 0
M  V30 2273 H 217.963 -2.7236 -2.65707 0
M  V30 2274 H 217.475 -3.71444 -1.12478 0
M  V30 2275 H 215.576 -2.15814 -3.03735 0
M  V30 2276 H 215.689 -3.99951 -2.63773 0
M  V30 2277 H 214.053 -2.07142 -1.48204 0
M  V30 2278 H 214.836 -3.40082 -0.46897 0
M  V30 2279 N 217.281 0.66697 -1.42791 0
M  V30 2280 C 218.509 1.45505 -1.47091 0
M  V30 2281 C 218.924 1.8861 -0.0845873 0
M  V30 2282 O 218.281 1.58632 0.90234 0
M  V30 2283 C 218.332 2.69906 -2.40485 0
M  V30 2284 O 218.053 2.28608 -3.73725 0
M  V30 2285 C 219.554 3.63396 -2.53886 0
M  V30 2286 H 216.774 0.447459 -0.500022 0
M  V30 2287 H 219.318 0.818866 -1.8739 0
M  V30 2288 H 217.473 3.29696 -2.03419 0
M  V30 2289 H 217.887 3.08997 -4.23817 0
M  V30 2290 H 219.361 4.47387 -3.2334 0
M  V30 2291 H 219.838 4.09824 -1.57927 0
M  V30 2292 H 220.444 3.09495 -2.91706 0
M  V30 2293 N 218.759 1.29093 0.90403 0
M  V30 2294 C 219.987 1.19689 1.68766 0
M  V30 2295 C 220.402 -0.243113 1.87228 0
M  V30 2296 O 219.759 -1.16326 1.40621 0
M  V30 2297 C 219.81 1.90144 3.07453 0
M  V30 2298 O 219.531 3.2852 2.89838 0
M  V30 2299 C 221.032 1.87162 4.01852 0
M  V30 2300 H 218.252 0.415035 0.527244 0
M  V30 2301 H 220.796 1.7039 1.13082 0
M  V30 2302 H 218.951 1.43289 3.59926 0
M  V30 2303 H 219.365 3.63944 3.77684 0
M  V30 2304 H 220.839 2.41032 4.96596 0
M  V30 2305 H 221.316 0.84617 4.30972 0
M  V30 2306 H 221.922 2.33741 3.5531 0
M  V30 2307 N 220.237 -1.11381 1.11499 0
M  V30 2308 C 221.147 -2.21019 0.786628 0
M  V30 2309 C 222.163 -1.72597 -0.220507 0
M  V30 2310 O 223.339 -2.01321 -0.0565251 0
M  V30 2311 C 220.404 -3.459 0.235333 0
M  V30 2312 C 219.465 -4.09107 1.30115 0
M  V30 2313 C 218.698 -5.28027 0.776068 0
M  V30 2314 O 218.921 -5.6904 -0.393661 0
M  V30 2315 O 217.855 -5.81835 1.54114 0
M  V30 2316 H 221.681 -2.51521 1.70209 0
M  V30 2317 H 219.266 -1.19928 0.890928 0
M  V30 2318 H 221.148 -4.21346 -0.067715 0
M  V30 2319 H 219.823 -3.17049 -0.652828 0
M  V30 2320 H 218.73 -3.35391 1.65722 0
M  V30 2321 H 220.063 -4.42139 2.16273 0
M  V30 2322 N 221.715 -0.905404 -1.28997 0
M  V30 2323 C 222.645 -0.404212 -2.29975 0
M  V30 2324 C 223.626 0.523784 -1.61835 0
M  V30 2325 O 224.811 0.433298 -1.89304 0
M  V30 2326 C 221.941 0.364042 -3.45387 0
M  V30 2327 C 220.895 -0.474048 -4.25367 0
M  V30 2328 C 220.221 0.422045 -5.33032 0
M  V30 2329 C 221.521 -1.72696 -4.92923 0
M  V30 2330 H 223.215 -1.24807 -2.72146 0
M  V30 2331 H 220.761 -0.601585 -1.30832 0
M  V30 2332 H 222.714 0.725447 -4.15109 0
M  V30 2333 H 221.438 1.24174 -3.02074 0
M  V30 2334 H 220.097 -0.81786 -3.57361 0
M  V30 2335 H 219.745 1.29804 -4.85963 0
M  V30 2336 H 219.445 -0.135057 -5.87445 0
M  V30 2337 H 220.969 0.779517 -6.05604 0
M  V30 2338 H 222.383 -1.43495 -5.55051 0
M  V30 2339 H 220.78 -2.22582 -5.57295 0
M  V30 2340 H 221.85 -2.45964 -4.17887 0
M  V30 2341 N 223.193 1.4272 -0.668489 0
M  V30 2342 C 224.156 2.292 0.00448567 0
M  V30 2343 C 225.156 1.43001 0.735339 0
M  V30 2344 O 226.346 1.64461 0.57429 0
M  V30 2345 C 223.478 3.25375 1.01705 0
M  V30 2346 H 224.671 2.90199 -0.756608 0
M  V30 2347 H 222.224 1.50254 -0.430506 0
M  V30 2348 H 222.959 2.69301 1.80686 0
M  V30 2349 H 222.744 3.88944 0.496463 0
M  V30 2350 H 224.234 3.90245 1.48655 0
M  V30 2351 N 224.671 0.411399 1.52136 0
M  V30 2352 C 225.603 -0.448386 2.24771 0
M  V30 2353 C 226.616 -1.00828 1.27818 0
M  V30 2354 O 227.805 -0.906841 1.53749 0
M  V30 2355 C 224.905 -1.63636 2.96777 0
M  V30 2356 C 224.078 -1.19995 4.20618 0
M  V30 2357 C 223.137 -2.25509 4.75428 0
M  V30 2358 O 222.163 -1.86007 5.3795 0
M  V30 2359 N 223.365 -3.577 4.57199 0
M  V30 2360 H 226.13 0.174025 2.99194 0
M  V30 2361 H 223.691 0.238897 1.60128 0
M  V30 2362 H 225.683 -2.33793 3.30338 0
M  V30 2363 H 224.253 -2.16465 2.25526 0
M  V30 2364 H 223.473 -0.326421 3.92846 0
M  V30 2365 H 224.761 -0.885365 5.01038 0
M  V30 2366 H 224.159 -3.92543 4.07341 0
M  V30 2367 H 222.716 -4.23827 4.95191 0
M  V30 2368 N 226.149 -1.5696 0.141893 0
M  V30 2369 C 227.398 -1.95135 -0.510427 0
M  V30 2370 C 227.711 -1.02896 -1.66348 0
M  V30 2371 O 228.917 -1.30629 -2.38009 0
M  V30 2372 C 227.373 -3.46876 -0.959427 0
M  V30 2373 C 226.981 -4.47691 0.166419 0
M  V30 2374 C 228.725 -3.93927 -1.58183 0
M  V30 2375 C 226.632 -5.90636 -0.300565 0
M  V30 2376 H 225.562 -0.728494 -0.194454 0
M  V30 2377 H 228.213 -1.8211 0.22542 0
M  V30 2378 H 226.595 -3.55215 -1.75038 0
M  V30 2379 H 227.769 -4.51043 0.94325 0
M  V30 2380 H 226.084 -4.10527 0.696905 0
M  V30 2381 H 228.681 -4.98158 -1.94275 0
M  V30 2382 H 229.024 -3.3519 -2.46888 0
M  V30 2383 H 229.557 -3.88484 -0.855863 0
M  V30 2384 H 226.296 -6.5318 0.550989 0
M  V30 2385 H 225.816 -5.90655 -1.04338 0
M  V30 2386 H 227.495 -6.42588 -0.754265 0
M  V30 2387 N 227.627 0.131896 -1.57047 0
M  V30 2388 C 228.875 0.840269 -1.83804 0
M  V30 2389 C 229.196 1.81017 -0.72512 0
M  V30 2390 O 228.466 1.94272 0.251995 0
M  V30 2391 H 227.046 0.313294 -0.678127 0
M  V30 2392 H 229.708 0.122294 -1.94516 0
M  V30 2393 H 228.804 1.39335 -2.79271 0
M  V30 2394 N 229.106 1.52395 0.401703 0
M  V30 2395 C 230.383 1.57387 1.16141 0
M  V30 2396 C 230.763 0.359359 2.08019 0
M  V30 2397 O 230.111 -0.65326 2.18963 0
M  V30 2398 C 230.321 2.90631 1.93221 0
M  V30 2399 C 231.669 3.43904 2.49028 0
M  V30 2400 O 232.693 2.92421 2.03393 0
M  V30 2401 O 231.552 4.33823 3.32356 0
M  V30 2402 H 228.646 0.634262 0.530698 0
M  V30 2403 H 231.192 1.64725 0.407883 0
M  V30 2404 H 229.964 3.70473 1.25958 0
M  V30 2405 H 229.587 2.8662 2.75563 0
M  V30 2406 N 230.584 -0.659388 1.43143 0
M  V30 2407 C 231.494 -1.80167 1.50256 0
M  V30 2408 C 232.51 -1.69571 0.390106 0
M  V30 2409 O 233.686 -1.90849 0.643319 0
M  V30 2410 C 230.751 -3.16409 1.41725 0
M  V30 2411 C 229.812 -3.38848 2.63591 0
M  V30 2412 C 229.045 -4.68591 2.55458 0
M  V30 2413 O 229.268 -5.47532 1.59891 0
M  V30 2414 O 228.202 -4.92614 3.45854 0
M  V30 2415 H 232.028 -1.77121 2.46702 0
M  V30 2416 H 229.613 -0.817092 1.25076 0
M  V30 2417 H 231.495 -3.9768 1.39387 0
M  V30 2418 H 230.17 -3.20059 0.484118 0
M  V30 2419 H 229.077 -2.57366 2.71502 0
M  V30 2420 H 230.41 -3.4004 3.55856 0
M  V30 2421 N 232.062 -1.29571 -0.897171 0
M  V30 2422 C 233.29 -1.20583 -1.68129 0
M  V30 2423 C 233.705 0.233181 -1.87354 0
M  V30 2424 O 233.062 1.15579 -1.41236 0
M  V30 2425 C 233.113 -1.91772 -3.06441 0
M  V30 2426 O 232.834 -3.30053 -2.88091 0
M  V30 2427 C 234.335 -1.89291 -4.00854 0
M  V30 2428 H 231.555 -0.417826 -0.525036 0
M  V30 2429 H 234.099 -1.70987 -1.12177 0
M  V30 2430 H 232.254 -1.45196 -3.59161 0
M  V30 2431 H 232.668 -3.65942 -3.75748 0
M  V30 2432 H 234.142 -2.43662 -4.95311 0
M  V30 2433 H 234.619 -0.869014 -4.30517 0
M  V30 2434 H 235.225 -2.35622 -3.54066 0
M  V30 2435 N 233.54 1.10788 -1.12088 0
M  V30 2436 C 234.503 2.15207 -0.788577 0
M  V30 2437 C 235.503 1.59609 0.195317 0
M  V30 2438 O 236.693 1.74174 -0.0300193 0
M  V30 2439 C 233.825 3.4047 -0.171174 0
M  V30 2440 H 235.018 2.46116 -1.71368 0
M  V30 2441 H 232.571 1.26089 -0.923652 0
M  V30 2442 H 233.306 3.15176 0.763832 0
M  V30 2443 H 233.091 3.82109 -0.879514 0
M  V30 2444 H 234.581 4.17576 0.04496 0
M  V30 2445 N 235.018 0.912232 1.28515 0
M  V30 2446 C 236.295 0.463597 1.90027 0
M  V30 2447 C 236.675 -1.05753 1.82701 0
M  V30 2448 O 236.023 -1.90492 1.26194 0
M  V30 2449 C 236.233 0.992253 3.34597 0
M  V30 2450 C 237.581 1.04344 4.11579 0
M  V30 2451 O 238.605 0.94079 3.43551 0
M  V30 2452 O 237.464 1.1995 5.33174 0
M  V30 2453 H 234.558 0.146666 0.813891 0
M  V30 2454 H 237.104 1.00292 1.36893 0
M  V30 2455 H 235.876 2.03623 3.34146 0
M  V30 2456 H 235.499 0.433672 3.95228 0
M  V30 2457 N 236.496 -1.42363 0.676048 0
M  V30 2458 C 237.744 -2.01123 0.198437 0
M  V30 2459 C 238.065 -1.53731 -1.19966 0
M  V30 2460 O 237.335 -0.759518 -1.80577 0
M  V30 2461 H 235.915 -0.743678 0.0703721 0
M  V30 2462 H 238.577 -1.74263 0.872837 0
M  V30 2463 H 237.673 -3.11454 0.200686 0
M  V30 2464 N 237.974 -0.419461 -1.51915 0
M  V30 2465 C 239.223 0.154346 -2.01109 0
M  V30 2466 C 239.536 1.45338 -1.30905 0
M  V30 2467 O 240.742 2.10906 -1.7097 0
M  V30 2468 C 239.198 0.325615 -3.58424 0
M  V30 2469 C 238.806 -0.961934 -4.37551 0
M  V30 2470 C 240.55 0.854155 -4.15818 0
M  V30 2471 C 238.457 -0.757287 -5.86531 0
M  V30 2472 H 237.387 0.0614563 -0.751491 0
M  V30 2473 H 240.038 -0.54649 -1.75173 0
M  V30 2474 H 238.42 1.08903 -3.80731 0
M  V30 2475 H 239.594 -1.7323 -4.26999 0
M  V30 2476 H 237.909 -1.41766 -3.91524 0
M  V30 2477 H 240.506 1.02346 -5.24814 0
M  V30 2478 H 240.849 1.83172 -3.73837 0
M  V30 2479 H 241.382 0.149528 -3.97519 0
M  V30 2480 H 238.121 -1.70671 -6.32892 0
M  V30 2481 H 237.641 -0.0264061 -5.99794 0
M  V30 2482 H 239.32 -0.403482 -6.45741 0
M  V30 2483 N 239.452 1.56882 -0.150215 0
M  V30 2484 C 240.682 2.00302 0.506213 0
M  V30 2485 C 241.09 1.02934 1.58749 0
M  V30 2486 O 240.433 0.0188384 1.8369 0
M  V30 2487 C 240.495 3.40156 1.16337 0
M  V30 2488 C 240.159 4.56439 0.226311 0
M  V30 2489 C 241.156 5.17012 -0.547265 0
M  V30 2490 C 238.841 5.02136 0.128279 0
M  V30 2491 C 240.835 6.21693 -1.40629 0
M  V30 2492 C 238.522 6.06672 -0.734345 0
M  V30 2493 C 239.52 6.6632 -1.50023 0
M  V30 2494 O 239.208 7.68831 -2.34848 0
M  V30 2495 H 238.94 0.662182 0.135984 0
M  V30 2496 H 241.494 2.03961 -0.242746 0
M  V30 2497 H 239.724 3.33346 1.96004 0
M  V30 2498 H 241.413 3.67663 1.71985 0
M  V30 2499 H 242.179 4.82603 -0.48158 0
M  V30 2500 H 238.058 4.55435 0.714157 0
M  V30 2501 H 241.602 6.68179 -2.00455 0
M  V30 2502 H 237.499 6.40507 -0.801309 0
M  V30 2503 H 238.267 7.86065 -2.28131 0
M  V30 2504 N 240.93 -0.123565 1.57115 0
M  V30 2505 C 241.88 -1.1575 1.96433 0
M  V30 2506 C 242.864 -1.37313 0.838686 0
M  V30 2507 O 244.056 -1.38482 1.10235 0
M  V30 2508 C 241.185 -2.48526 2.36833 0
M  V30 2509 C 240.271 -2.30457 3.5602 0
M  V30 2510 N 240.662 -1.8219 4.71848 0
M  V30 2511 C 238.96 -2.61129 3.61563 0
M  V30 2512 C 239.661 -1.77721 5.53886 0
M  V30 2513 N 238.637 -2.21899 4.96248 0
M  V30 2514 H 242.439 -0.776797 2.83449 0
M  V30 2515 H 239.953 -0.331364 1.58983 0
M  V30 2516 H 241.95 -3.233 2.63216 0
M  V30 2517 H 240.61 -2.87358 1.5118 0
M  V30 2518 H 241.621 -1.51805 4.95152 0
M  V30 2519 H 238.298 -3.03678 2.86507 0
M  V30 2520 H 239.688 -1.41697 6.56789 0
M  V30 2521 N 242.408 -1.52605 -0.393616 0
M  V30 2522 C 243.819 -1.59417 -0.971761 0
M  V30 2523 C 244.17 -0.444173 -1.91106 0
M  V30 2524 O 243.295 0.433382 -2.12016 0
M  V30 2525 C 243.89 -2.88936 -1.76921 0
M  V30 2526 C 242.449 -2.98175 -2.29714 0
M  V30 2527 C 241.596 -2.54491 -1.10135 0
M  V30 2528 H 244.547 -1.57751 -0.173317 0
M  V30 2529 H 244.568 -2.75163 -2.62804 0
M  V30 2530 H 244.08 -3.72616 -1.08532 0
M  V30 2531 H 242.181 -2.19024 -3.01429 0
M  V30 2532 H 242.294 -4.02726 -2.59517 0
M  V30 2533 H 240.658 -2.08702 -1.45999 0
M  V30 2534 H 241.441 -3.4056 -0.432874 0
M  V30 2535 N 243.887 0.651787 -1.4349 0
M  V30 2536 C 245.115 1.43937 -1.48626 0
M  V30 2537 C 245.53 1.8851 -0.104587 0
M  V30 2538 O 244.887 1.5958 0.885464 0
M  V30 2539 C 244.938 2.6734 -2.43334 0
M  V30 2540 O 244.659 2.24631 -3.76128 0
M  V30 2541 C 246.16 3.60683 -2.57726 0
M  V30 2542 H 243.38 0.44213 -0.504739 0
M  V30 2543 H 245.924 0.798944 -1.88248 0
M  V30 2544 H 244.079 3.2752 -2.06904 0
M  V30 2545 H 244.493 3.04485 -4.2707 0
M  V30 2546 H 245.967 4.43933 -3.28067 0
M  V30 2547 H 246.444 4.08126 -1.62265 0
M  V30 2548 H 247.05 3.06384 -2.94973 0
M  V30 2549 N 245.365 1.30045 0.890287 0
M  V30 2550 C 246.275 1.17885 2.02831 0
M  V30 2551 C 247.291 0.0999609 1.73713 0
M  V30 2552 O 248.467 0.313867 1.98939 0
M  V30 2553 C 245.532 0.866079 3.35708 0
M  V30 2554 C 244.593 2.02979 3.78283 0
M  V30 2555 C 243.826 1.73184 5.0482 0
M  V30 2556 O 244.049 0.657237 5.66601 0
M  V30 2557 O 242.983 2.58267 5.43674 0
M  V30 2558 H 246.809 2.13474 2.16015 0
M  V30 2559 H 244.394 1.09587 1.01543 0
M  V30 2560 H 246.276 0.706623 4.15433 0
M  V30 2561 H 244.951 -0.0599443 3.23644 0
M  V30 2562 H 243.858 2.24454 2.99285 0
M  V30 2563 H 245.191 2.93734 3.94944 0
M  V30 2564 N 246.843 -1.10192 1.12674 0
M  V30 2565 C 248.09 -1.82205 0.883606 0
M  V30 2566 C 248.418 -1.8532 -0.590492 0
M  V30 2567 O 247.673 -1.31137 -1.45264 0
M  V30 2568 C 247.972 -3.28552 1.4067 0
M  V30 2569 C 247.638 -3.45582 2.89627 0
M  V30 2570 C 246.3 -3.49937 3.30299 0
M  V30 2571 C 248.652 -3.50768 3.85501 0
M  V30 2572 C 245.98 -3.57049 4.65546 0
M  V30 2573 C 248.332 -3.59414 5.20581 0
M  V30 2574 C 246.996 -3.62034 5.60792 0
M  V30 2575 H 246.266 -0.666735 0.323334 0
M  V30 2576 H 248.913 -1.29868 1.40736 0
M  V30 2577 H 247.218 -3.83473 0.80347 0
M  V30 2578 H 248.915 -3.82788 1.19475 0
M  V30 2579 H 245.505 -3.42871 2.57172 0
M  V30 2580 H 249.689 -3.46651 3.55171 0
M  V30 2581 H 244.945 -3.57361 4.96088 0
M  V30 2582 H 249.119 -3.62371 5.94693 0
M  V30 2583 H 246.746 -3.67298 6.6558 0
M  V30 2584 N 248.321 -0.919034 -1.28029 0
M  V30 2585 C 249.546 -0.570357 -1.99403 0
M  V30 2586 C 249.971 0.842486 -1.68178 0
M  V30 2587 O 249.329 1.56391 -0.917141 0
M  V30 2588 C 249.377 -0.792541 -3.51783 0
M  V30 2589 O 248.481 0.145988 -4.12142 0
M  V30 2590 H 247.822 -0.220555 -0.6263 0
M  V30 2591 H 250.352 -1.23592 -1.63053 0
M  V30 2592 H 250.362 -0.704708 -4.01868 0
M  V30 2593 H 249.037 -1.82247 -3.73844 0
M  V30 2594 H 247.614 0.00897528 -3.72899 0
M  V30 2595 N 249.799 1.42003 -0.683588 0
M  V30 2596 C 251.21 1.84501 -0.285736 0
M  V30 2597 C 251.561 1.57213 1.17382 0
M  V30 2598 O 250.686 1.03642 1.89966 0
M  V30 2599 C 251.281 3.34912 -0.511821 0
M  V30 2600 C 249.84 3.76025 -0.168005 0
M  V30 2601 C 248.987 2.6551 -0.799983 0
M  V30 2602 H 251.938 1.31724 -0.885119 0
M  V30 2603 H 251.959 3.79784 0.233292 0
M  V30 2604 H 251.471 3.54741 -1.57418 0
M  V30 2605 H 249.572 3.61801 0.890567 0
M  V30 2606 H 249.685 4.75141 -0.614661 0
M  V30 2607 H 248.049 2.53654 -0.230568 0
M  V30 2608 H 248.832 2.8816 -1.86597 0
M  V30 2609 N 251.277 0.427512 1.51691 0
M  V30 2610 C 252.207 -0.3796 2.30394 0
M  V30 2611 C 253.188 -1.02982 1.35384 0
M  V30 2612 O 254.373 -1.03534 1.643 0
M  V30 2613 C 251.503 -1.48649 3.1388 0
M  V30 2614 C 250.457 -0.960294 4.17088 0
M  V30 2615 C 249.783 -2.16219 4.89033 0
M  V30 2616 C 251.083 -0.00153679 5.223 0
M  V30 2617 H 252.777 0.277164 2.98114 0
M  V30 2618 H 250.323 0.134739 1.43368 0
M  V30 2619 H 252.276 -2.05826 3.67714 0
M  V30 2620 H 251 -2.1714 2.43962 0
M  V30 2621 H 249.659 -0.410806 3.64291 0
M  V30 2622 H 249.307 -2.83307 4.15628 0
M  V30 2623 H 249.007 -1.81654 5.58816 0
M  V30 2624 H 250.531 -2.73968 5.45687 0
M  V30 2625 H 251.945 -0.482687 5.71264 0
M  V30 2626 H 250.342 0.256199 5.99553 0
M  V30 2627 H 251.412 0.938174 4.75738 0
M  V30 2628 N 252.755 -1.56801 0.158532 0
M  V30 2629 C 253.98 -2.01295 -0.499516 0
M  V30 2630 C 254.405 -1.03799 -1.56867 0
M  V30 2631 O 253.763 -0.0155162 -1.81293 0
M  V30 2632 C 253.811 -3.44469 -1.06647 0
M  V30 2633 O 252.915 -3.50012 -2.18095 0
M  V30 2634 H 252.256 -0.652884 -0.12099 0
M  V30 2635 H 254.786 -2.02958 0.258661 0
M  V30 2636 H 254.796 -3.8351 -1.39227 0
M  V30 2637 H 253.471 -4.14932 -0.283581 0
M  V30 2638 H 252.048 -3.22822 -1.86656 0
M  V30 2639 N 254.233 0.115231 -1.57178 0
M  V30 2640 C 255.183 1.14707 -1.97044 0
M  V30 2641 C 256.167 1.36866 -0.845957 0
M  V30 2642 O 257.359 1.37895 -1.10968 0
M  V30 2643 C 254.488 2.47266 -2.38148 0
M  V30 2644 C 253.574 2.28566 -3.57237 0
M  V30 2645 N 253.965 1.79685 -4.72807 0
M  V30 2646 C 252.263 2.59208 -3.62943 0
M  V30 2647 C 252.964 1.74781 -5.54821 0
M  V30 2648 N 251.94 2.19264 -4.97417 0
M  V30 2649 H 255.742 0.761754 -2.83857 0
M  V30 2650 H 253.256 0.322928 -1.59157 0
M  V30 2651 H 255.253 3.219 -2.64927 0
M  V30 2652 H 253.913 2.86552 -1.52702 0
M  V30 2653 H 254.924 1.49177 -4.9595 0
M  V30 2654 H 251.601 3.02154 -2.88113 0
M  V30 2655 H 252.991 1.38212 -6.57531 0
M  V30 2656 N 255.711 1.52812 0.385517 0
M  V30 2657 C 256.958 1.68026 1.1302 0
M  V30 2658 C 257.286 0.421934 1.89868 0
M  V30 2659 O 256.541 -0.595749 1.86412 0
M  V30 2660 C 256.84 2.86856 2.13187 0
M  V30 2661 C 256.506 4.24159 1.5297 0
M  V30 2662 C 255.168 4.61501 1.36274 0
M  V30 2663 C 257.52 5.09627 1.09223 0
M  V30 2664 C 254.848 5.81966 0.743837 0
M  V30 2665 C 257.2 6.30719 0.487411 0
M  V30 2666 C 255.864 6.6679 0.307777 0
M  V30 2667 H 255.134 0.614849 0.413571 0
M  V30 2668 H 257.781 1.86962 0.414405 0
M  V30 2669 H 256.086 2.6235 2.90998 0
M  V30 2670 H 257.783 2.95821 2.70722 0
M  V30 2671 H 254.373 3.94746 1.66954 0
M  V30 2672 H 258.557 4.81343 1.20922 0
M  V30 2673 H 253.813 6.08519 0.592891 0
M  V30 2674 H 257.987 6.96259 0.140143 0
M  V30 2675 H 255.614 7.60001 -0.173879 0
M  V30 2676 N 257.189 -0.644168 1.43834 0
M  V30 2677 C 258.466 -1.40188 1.36406 0
M  V30 2678 C 258.846 -2.11094 0.0163124 0
M  V30 2679 O 258.194 -2.05426 -1.00062 0
M  V30 2680 C 258.404 -2.3791 2.55343 0
M  V30 2681 C 259.752 -3.01637 2.98832 0
M  V30 2682 O 260.776 -2.48237 2.55455 0
M  V30 2683 O 259.635 -3.98477 3.74003 0
M  V30 2684 H 256.729 -0.626773 0.539523 0
M  V30 2685 H 259.275 -0.670317 1.559 0
M  V30 2686 H 258.047 -1.84525 3.4506 0
M  V30 2687 H 257.67 -3.18503 2.37995 0
M  V30 2688 N 258.668 -1.30515 -0.883378 0
M  V30 2689 C 259.631 -1.1701 -1.97082 0
M  V30 2690 C 260.631 -0.10089 -1.60483 0
M  V30 2691 O 261.821 -0.349127 -1.70666 0
M  V30 2692 C 258.953 -0.793045 -3.31547 0
M  V30 2693 H 260.146 -2.13622 -2.10489 0
M  V30 2694 H 257.699 -1.13935 -1.06998 0
M  V30 2695 H 258.434 0.172499 -3.23841 0
M  V30 2696 H 258.219 -1.56576 -3.5948 0
M  V30 2697 H 259.709 -0.722073 -4.1131 0
M  V30 2698 N 260.146 1.09593 -1.13257 0
M  V30 2699 C 261.562 1.33775 -0.870423 0
M  V30 2700 C 261.762 1.95327 0.494926 0
M  V30 2701 O 260.818 2.19853 1.2418 0
M  V30 2702 C 262.131 2.25106 -1.99369 0
M  V30 2703 C 263.679 2.3862 -2.02558 0
M  V30 2704 C 264.154 3.33285 -3.14142 0
M  V30 2705 N 265.645 3.40857 -3.13641 0
M  V30 2706 C 266.38 4.14101 -3.96621 0
M  V30 2707 N 265.876 4.90157 -4.8961 0
M  V30 2708 N 267.669 4.09808 -3.84726 0
M  V30 2709 H 259.82 0.680136 -2.01216 0
M  V30 2710 H 262.083 0.362133 -0.876107 0
M  V30 2711 H 261.789 1.87103 -2.97801 0
M  V30 2712 H 261.663 3.25481 -1.90635 0
M  V30 2713 H 264.05 2.75887 -1.0474 0
M  V30 2714 H 264.131 1.38028 -2.15364 0
M  V30 2715 H 263.775 2.96741 -4.12198 0
M  V30 2716 H 263.705 4.33776 -2.98574 0
M  V30 2717 H 266.196 2.86624 -2.46282 0
M  V30 2718 H 266.509 5.4347 -5.49418 0
M  V30 2719 H 264.854 4.89251 -4.93617 0
M  V30 2720 H 268.045 3.4949 -3.11408 0
M  V30 2721 H 268.218 4.66629 -4.49623 0
M  V30 2722 N 261.624 0.925811 1.2754 0
M  V30 2723 C 263.04 0.625767 1.46821 0
M  V30 2724 C 263.24 -0.825506 1.83814 0
M  V30 2725 O 262.296 -1.60356 1.95044 0
M  V30 2726 C 263.609 1.57402 2.56213 0
M  V30 2727 C 265.157 1.58204 2.70075 0
M  V30 2728 C 265.632 2.51721 3.82623 0
M  V30 2729 N 267.123 2.49917 3.89994 0
M  V30 2730 C 267.858 3.18968 4.76494 0
M  V30 2731 N 267.354 3.97391 5.67496 0
M  V30 2732 N 269.147 3.07996 4.70208 0
M  V30 2733 H 261.298 1.86409 1.01811 0
M  V30 2734 H 263.561 0.800213 0.508295 0
M  V30 2735 H 263.267 2.60925 2.35819 0
M  V30 2736 H 263.141 1.31428 3.53563 0
M  V30 2737 H 265.528 0.554124 2.89851 0
M  V30 2738 H 265.609 1.88226 1.73218 0
M  V30 2739 H 265.253 3.54622 3.63601 0
M  V30 2740 H 265.183 2.18996 4.78903 0
M  V30 2741 H 267.674 1.9296 3.24923 0
M  V30 2742 H 267.987 4.4707 6.30356 0
M  V30 2743 H 266.332 4.01495 5.67298 0
M  V30 2744 H 269.523 2.46223 3.9811 0
M  V30 2745 H 269.696 3.6208 5.37403 0
M  V30 2746 N 263.102 -1.41638 0.69111 0
M  V30 2747 C 264.348 -2.01598 0.220519 0
M  V30 2748 C 264.681 -1.54594 -1.17535 0
M  V30 2749 O 263.956 -0.755177 -1.79241 0
M  V30 2750 C 264.239 -3.59062 0.273243 0
M  V30 2751 C 264.092 -4.16203 1.70573 0
M  V30 2752 C 265.411 -4.38546 -0.369457 0
M  V30 2753 H 262.53 -0.732468 0.0816045 0
M  V30 2754 H 265.172 -1.68445 0.878986 0
M  V30 2755 H 263.322 -3.87435 -0.287411 0
M  V30 2756 H 264.994 -3.98722 2.31989 0
M  V30 2757 H 263.237 -3.71414 2.2413 0
M  V30 2758 H 263.908 -5.25358 1.69419 0
M  V30 2759 H 266.384 -4.1596 0.107977 0
M  V30 2760 H 265.26 -5.48069 -0.302002 0
M  V30 2761 H 265.521 -4.17662 -1.44951 0
M  V30 2762 N 264.58 -0.43555 -1.51462 0
M  V30 2763 C 265.857 0.191364 -1.94662 0
M  V30 2764 C 266.237 1.60254 -1.37411 0
M  V30 2765 O 265.585 2.2152 -0.560458 0
M  V30 2766 C 265.795 0.17091 -3.48581 0
M  V30 2767 C 267.143 0.377357 -4.2292 0
M  V30 2768 O 268.167 0.249104 -3.55328 0
M  V30 2769 O 267.026 0.63247 -5.42828 0
M  V30 2770 H 264.12 0.130932 -0.816569 0
M  V30 2771 H 266.666 -0.4934 -1.62369 0
M  V30 2772 H 265.438 -0.815738 -3.82703 0
M  V30 2773 H 265.061 0.898659 -3.87311 0
M  V30 2774 N 266.058 1.56714 -0.166846 0
M  V30 2775 C 267.305 1.96747 0.479252 0
M  V30 2776 C 267.633 1.05263 1.63554 0
M  V30 2777 O 266.888 0.0858098 1.95512 0
M  V30 2778 C 267.187 3.42889 1.00806 0
M  V30 2779 C 266.853 4.50889 -0.0318574 0
M  V30 2780 C 265.515 4.8015 -0.317675 0
M  V30 2781 C 267.867 5.15949 -0.737956 0
M  V30 2782 C 265.195 5.71772 -1.31506 0
M  V30 2783 C 267.547 6.08647 -1.72429 0
M  V30 2784 C 266.211 6.36277 -2.0176 0
M  V30 2785 H 265.481 0.719949 0.175371 0
M  V30 2786 H 268.128 1.89756 -0.257864 0
M  V30 2787 H 266.433 3.4681 1.82291 0
M  V30 2788 H 268.13 3.71203 1.51689 0
M  V30 2789 H 264.72 4.28128 0.201088 0
M  V30 2790 H 268.904 4.93458 -0.530351 0
M  V30 2791 H 264.16 5.91465 -1.54853 0
M  V30 2792 H 268.334 6.58129 -2.27682 0
M  V30 2793 H 265.961 7.07075 -2.79194 0
M  V30 2794 N 267.536 -0.106894 1.57237 0
M  V30 2795 C 268.761 -0.830287 1.90055 0
M  V30 2796 C 269.186 -1.72064 0.75998 0
M  V30 2797 O 268.544 -1.78982 -0.288991 0
M  V30 2798 C 268.592 -1.6295 3.21683 0
M  V30 2799 O 267.696 -2.73748 3.08441 0
M  V30 2800 H 267.037 -0.228855 0.623315 0
M  V30 2801 H 269.567 -0.085658 2.04421 0
M  V30 2802 H 269.577 -2.01621 3.54701 0
M  V30 2803 H 268.252 -0.975989 4.04286 0
M  V30 2804 H 266.829 -2.38192 2.86913 0
M  V30 2805 N 269.014 -1.53014 -0.377408 0
M  V30 2806 C 269.944 -1.81589 -1.46791 0
M  V30 2807 C 270.925 -0.668622 -1.56408 0
M  V30 2808 O 272.11 -0.917337 -1.71168 0
M  V30 2809 C 269.24 -1.99519 -2.8427 0
M  V30 2810 C 268.194 -3.15249 -2.89486 0
M  V30 2811 C 267.52 -3.18451 -4.29527 0
M  V30 2812 C 268.82 -4.54084 -2.58079 0
M  V30 2813 H 270.514 -2.7291 -1.23127 0
M  V30 2814 H 268.06 -1.31319 -0.590883 0
M  V30 2815 H 270.013 -2.18092 -3.60575 0
M  V30 2816 H 268.737 -1.04897 -3.09296 0
M  V30 2817 H 267.396 -2.96477 -2.15631 0
M  V30 2818 H 267.044 -2.2149 -4.5161 0
M  V30 2819 H 266.744 -3.962 -4.33934 0
M  V30 2820 H 268.268 -3.39193 -5.07721 0
M  V30 2821 H 269.682 -4.72899 -3.24098 0
M  V30 2822 H 268.079 -5.33987 -2.7382 0
M  V30 2823 H 269.149 -4.60006 -1.53372 0
M  V30 2824 N 270.492 0.636531 -1.44174 0
M  V30 2825 C 271.455 1.73063 -1.50273 0
M  V30 2826 C 272.455 1.56113 -0.385397 0
M  V30 2827 O 273.645 1.61707 -0.64781 0
M  V30 2828 C 270.777 3.12096 -1.37145 0
M  V30 2829 H 271.97 1.69031 -2.47727 0
M  V30 2830 H 269.523 0.849706 -1.31186 0
M  V30 2831 H 270.258 3.21728 -0.407636 0
M  V30 2832 H 270.043 3.25805 -2.18159 0
M  V30 2833 H 271.533 3.91846 -1.44382 0
M  V30 2834 N 271.97 1.30982 0.876444 0
M  V30 2835 C 273.386 1.09498 1.16113 0
M  V30 2836 C 273.586 -0.13875 2.01022 0
M  V30 2837 O 272.642 -0.829935 2.38471 0
M  V30 2838 C 273.955 2.36308 1.85954 0
M  V30 2839 C 275.503 2.41856 1.98683 0
M  V30 2840 C 275.978 3.6853 2.71937 0
M  V30 2841 N 277.469 3.69387 2.79477 0
M  V30 2842 C 278.204 4.64096 3.36753 0
M  V30 2843 N 277.7 5.69155 3.95012 0
M  V30 2844 N 279.493 4.51626 3.3465 0
M  V30 2845 H 271.644 2.10118 0.310494 0
M  V30 2846 H 273.907 0.926634 0.200131 0
M  V30 2847 H 273.613 3.26388 1.31011 0
M  V30 2848 H 273.487 2.4561 2.86278 0
M  V30 2849 H 275.874 1.52249 2.52793 0
M  V30 2850 H 275.955 2.36523 0.9742 0
M  V30 2851 H 275.599 4.58499 2.18496 0
M  V30 2852 H 275.529 3.71127 3.73593 0
M  V30 2853 H 278.02 2.93438 2.38123 0
M  V30 2854 H 278.333 6.3751 4.36808 0
M  V30 2855 H 276.678 5.72937 3.93406 0
M  V30 2856 H 279.869 3.68728 2.8837 0
M  V30 2857 H 280.042 5.25614 3.7899 0
M  V30 2858 N 273.449 -1.08991 1.13837 0
M  V30 2859 C 274.379 -2.17771 0.842507 0
M  V30 2860 C 275.36 -1.6892 -0.20001 0
M  V30 2861 O 276.545 -1.94113 -0.0579731 0
M  V30 2862 C 273.675 -3.4589 0.312644 0
M  V30 2863 C 272.629 -4.08099 1.28992 0
M  V30 2864 C 271.955 -5.31098 0.619623 0
M  V30 2865 C 273.255 -4.50077 2.65005 0
M  V30 2866 H 274.949 -2.42777 1.75213 0
M  V30 2867 H 272.495 -1.16682 0.843875 0
M  V30 2868 H 274.448 -4.21297 0.0933043 0
M  V30 2869 H 273.172 -3.20419 -0.632382 0
M  V30 2870 H 271.831 -3.34717 1.49533 0
M  V30 2871 H 271.479 -5.0191 -0.33102 0
M  V30 2872 H 271.179 -5.73674 1.27167 0
M  V30 2873 H 272.703 -6.09224 0.409669 0
M  V30 2874 H 274.117 -5.16688 2.48407 0
M  V30 2875 H 272.514 -5.03553 3.26427 0
M  V30 2876 H 273.584 -3.62257 3.22332 0
M  V30 2877 N 274.927 -0.932562 -1.27047 0
M  V30 2878 C 276.343 -0.633544 -1.46487 0
M  V30 2879 C 276.543 0.815746 -1.84249 0
M  V30 2880 O 275.599 1.59319 -1.95892 0
M  V30 2881 C 276.912 -1.58758 -2.55375 0
M  V30 2882 C 278.46 -1.59634 -2.69232 0
M  V30 2883 C 278.935 -2.53747 -3.81283 0
M  V30 2884 N 280.426 -2.51982 -3.88664 0
M  V30 2885 C 281.161 -3.21491 -4.74796 0
M  V30 2886 N 280.657 -4.00395 -5.65381 0
M  V30 2887 N 282.45 -3.10485 -4.68568 0
M  V30 2888 H 274.601 -1.86946 -1.00821 0
M  V30 2889 H 276.864 -0.802897 -0.504044 0
M  V30 2890 H 276.57 -2.62172 -2.34432 0
M  V30 2891 H 276.444 -1.33301 -3.52861 0
M  V30 2892 H 278.831 -0.569488 -2.89553 0
M  V30 2893 H 278.912 -1.89142 -1.72218 0
M  V30 2894 H 278.556 -3.56545 -3.61715 0
M  V30 2895 H 278.486 -2.21532 -4.77735 0
M  V30 2896 H 280.977 -1.94681 -3.23895 0
M  V30 2897 H 281.29 -4.50406 -6.27976 0
M  V30 2898 H 279.635 -4.04498 -5.65161 0
M  V30 2899 H 282.826 -2.48331 -3.96799 0
M  V30 2900 H 282.999 -3.64925 -5.35475 0
M  V30 2901 N 276.405 1.4127 -0.698611 0
M  V30 2902 C 277.355 2.27997 -0.0119836 0
M  V30 2903 C 278.339 1.42363 0.749765 0
M  V30 2904 O 279.531 1.65607 0.624758 0
M  V30 2905 C 276.66 3.30702 0.921458 0
M  V30 2906 C 275.746 4.23814 0.155796 0
M  V30 2907 N 276.137 4.98572 -0.852015 0
M  V30 2908 C 274.435 4.44284 0.390836 0
M  V30 2909 C 275.136 5.66744 -1.3106 0
M  V30 2910 N 274.112 5.39867 -0.635944 0
M  V30 2911 H 277.914 2.83232 -0.784649 0
M  V30 2912 H 275.428 1.53518 -0.529711 0
M  V30 2913 H 277.425 3.91661 1.42854 0
M  V30 2914 H 276.085 2.77028 1.69369 0
M  V30 2915 H 277.096 5.03024 -1.23235 0
M  V30 2916 H 273.773 4.01614 1.14071 0
M  V30 2917 H 275.163 6.36672 -2.14707 0
M  V30 2918 N 277.883 0.443576 1.51229 0
M  V30 2919 C 279.113 -0.119117 2.06256 0
M  V30 2920 C 279.521 -1.36471 1.31043 0
M  V30 2921 O 278.864 -1.80034 0.365151 0
M  V30 2922 C 278.926 -0.500546 3.55998 0
M  V30 2923 C 278.59 0.639125 4.52509 0
M  V30 2924 C 279.587 1.51311 4.97394 0
M  V30 2925 C 277.272 0.821632 4.95535 0
M  V30 2926 C 279.266 2.55425 5.83984 0
M  V30 2927 C 276.953 1.86603 5.81913 0
M  V30 2928 C 277.951 2.73072 6.26036 0
M  V30 2929 O 277.639 3.75718 7.10698 0
M  V30 2930 H 277.371 -0.00857665 0.675946 0
M  V30 2931 H 279.925 0.623288 1.95715 0
M  V30 2932 H 278.155 -1.29575 3.64345 0
M  V30 2933 H 279.844 -0.995116 3.93513 0
M  V30 2934 H 280.61 1.38367 4.64844 0
M  V30 2935 H 276.489 0.158149 4.60729 0
M  V30 2936 H 280.033 3.22949 6.18344 0
M  V30 2937 H 275.93 1.99564 6.13876 0
M  V30 2938 H 276.698 3.72374 7.2889 0
M  V30 2939 N 279.361 -1.56624 0.175154 0
M  V30 2940 C 280.589 -2.01374 -0.474971 0
M  V30 2941 C 281.004 -1.05537 -1.56548 0
M  V30 2942 O 280.361 -0.0568668 -1.82411 0
M  V30 2943 C 280.412 -3.45923 -1.04975 0
M  V30 2944 O 280.133 -4.381 -0.00276605 0
M  V30 2945 C 281.634 -4.06093 -1.77773 0
M  V30 2946 H 278.854 -0.659962 -0.121206 0
M  V30 2947 H 281.398 -2.02601 0.27801 0
M  V30 2948 H 279.553 -3.45458 -1.75321 0
M  V30 2949 H 279.967 -5.22753 -0.427681 0
M  V30 2950 H 281.441 -5.09147 -2.13245 0
M  V30 2951 H 281.918 -3.48405 -2.67414 0
M  V30 2952 H 282.524 -4.10272 -1.12059 0
M  V30 2953 N 280.839 0.0985539 -1.57292 0
M  V30 2954 C 282.087 0.801092 -1.85545 0
M  V30 2955 C 282.408 1.79438 -0.763353 0
M  V30 2956 O 281.678 1.94763 0.21073 0
M  V30 2957 H 280.258 0.29884 -0.684619 0
M  V30 2958 H 282.92 0.0810064 -1.94732 0
M  V30 2959 H 282.016 1.3338 -2.82163 0
M  V30 2960 N 282.317 1.53212 0.369288 0
M  V30 2961 C 283.545 1.73119 1.13303 0
M  V30 2962 C 283.96 0.458455 1.83149 0
M  V30 2963 O 283.317 -0.568403 1.73423 0
M  V30 2964 C 283.368 2.89413 2.16616 0
M  V30 2965 O 283.089 4.11761 1.49614 0
M  V30 2966 C 284.59 3.21161 3.05566 0
M  V30 2967 H 281.81 0.579107 0.338934 0
M  V30 2968 H 284.354 1.99942 0.429338 0
M  V30 2969 H 282.509 2.64994 2.82589 0
M  V30 2970 H 282.923 4.76858 2.18419 0
M  V30 2971 H 284.397 4.05949 3.74045 0
M  V30 2972 H 284.874 2.36369 3.70171 0
M  V30 2973 H 285.48 3.47492 2.45213 0
M  V30 2974 N 283.795 -0.628877 1.44509 0
M  V30 2975 C 285.206 -1.21054 1.42137 0
M  V30 2976 C 285.557 -1.95715 0.137881 0
M  V30 2977 O 284.682 -2.02554 -0.761645 0
M  V30 2978 C 285.277 -2.20189 2.57493 0
M  V30 2979 C 283.836 -2.73777 2.58308 0
M  V30 2980 C 282.983 -1.48813 2.33987 0
M  V30 2981 H 285.934 -0.41942 1.53057 0
M  V30 2982 H 285.955 -3.02833 2.30375 0
M  V30 2983 H 285.467 -1.6582 3.50892 0
M  V30 2984 H 283.568 -3.32142 1.68856 0
M  V30 2985 H 283.681 -3.19662 3.56865 0
M  V30 2986 H 282.045 -1.77024 1.83124 0
M  V30 2987 H 282.828 -0.963442 3.29504 0
M  V30 2988 N 285.273 -1.31445 -0.869486 0
M  V30 2989 C 286.519 -1.21337 -1.62496 0
M  V30 2990 C 286.852 0.227872 -1.92858 0
M  V30 2991 O 286.127 1.16094 -1.56053 0
M  V30 2992 C 286.41 -2.05814 -2.95487 0
M  V30 2993 C 286.263 -3.5824 -2.72 0
M  V30 2994 C 287.582 -1.9079 -3.96594 0
M  V30 2995 H 284.701 -0.442135 -0.589649 0
M  V30 2996 H 287.343 -1.6124 -1.00507 0
M  V30 2997 H 285.493 -1.71913 -3.48394 0
M  V30 2998 H 287.165 -4.0228 -2.25762 0
M  V30 2999 H 285.408 -3.81647 -2.06224 0
M  V30 3000 H 286.079 -4.12657 -3.66631 0
M  V30 3001 H 288.555 -2.20459 -3.52898 0
M  V30 3002 H 287.431 -2.52199 -4.87531 0
M  V30 3003 H 287.692 -0.871341 -4.33428 0
M  V30 3004 N 286.751 1.08385 -1.14413 0
M  V30 3005 C 287.661 2.18856 -0.844951 0
M  V30 3006 C 288.677 1.73121 0.174668 0
M  V30 3007 O 289.853 2.014 0.00312857 0
M  V30 3008 C 286.918 3.45155 -0.32696 0
M  V30 3009 C 285.979 4.05513 -1.40916 0
M  V30 3010 C 285.212 5.25784 -0.915793 0
M  V30 3011 O 285.435 5.69884 0.242651 0
M  V30 3012 O 284.369 5.77545 -1.69487 0
M  V30 3013 H 288.195 2.46919 -1.76818 0
M  V30 3014 H 285.78 1.17524 -0.922411 0
M  V30 3015 H 287.662 4.21377 -0.0440211 0
M  V30 3016 H 286.337 3.18668 0.568539 0
M  V30 3017 H 285.244 3.30879 -1.74556 0
M  V30 3018 H 286.577 4.3625 -2.27919 0
M  V30 3019 N 288.23 0.939286 1.26551 0
M  V30 3020 C 289.18 0.418284 2.2413 0
M  V30 3021 C 290.164 -0.483935 1.5345 0
M  V30 3022 O 291.356 -0.319489 1.74093 0
M  V30 3023 C 288.485 -0.31709 3.41832 0
M  V30 3024 C 287.571 0.602311 4.19801 0
M  V30 3025 N 287.962 1.72726 4.75394 0
M  V30 3026 C 286.26 0.407534 4.44134 0
M  V30 3027 C 286.961 2.30004 5.34297 0
M  V30 3028 N 285.937 1.58828 5.1988 0
M  V30 3029 H 289.739 1.27705 2.64705 0
M  V30 3030 H 287.253 0.794929 1.41614 0
M  V30 3031 H 289.25 -0.707364 4.10855 0
M  V30 3032 H 287.91 -1.17264 3.02786 0
M  V30 3033 H 288.921 2.10944 4.72994 0
M  V30 3034 H 285.598 -0.406406 4.15517 0
M  V30 3035 H 286.988 3.24778 5.88191 0
M  V30 3036 N 289.708 -1.40897 0.706093 0
M  V30 3037 C 290.955 -2.01054 0.241531 0
M  V30 3038 C 291.283 -1.55956 -1.16223 0
M  V30 3039 O 290.538 -0.766336 -1.80072 0
M  V30 3040 C 290.837 -3.5646 0.259099 0
M  V30 3041 C 290.503 -4.21106 1.61184 0
M  V30 3042 C 289.165 -4.38479 1.98216 0
M  V30 3043 C 291.517 -4.57256 2.50132 0
M  V30 3044 C 288.845 -4.89282 3.2376 0
M  V30 3045 C 291.197 -5.09454 3.7502 0
M  V30 3046 C 289.861 -5.25037 4.12181 0
M  V30 3047 H 289.131 -0.73571 0.0883825 0
M  V30 3048 H 291.778 -1.68645 0.907257 0
M  V30 3049 H 290.083 -3.88721 -0.490189 0
M  V30 3050 H 291.78 -4.00826 -0.11804 0
M  V30 3051 H 288.37 -4.07966 1.31384 0
M  V30 3052 H 292.554 -4.43479 2.228 0
M  V30 3053 H 287.81 -4.99531 3.52532 0
M  V30 3054 H 291.984 -5.36404 4.44121 0
M  V30 3055 H 289.611 -5.64164 5.09532 0
M  V30 3056 N 291.186 -0.45159 -1.50991 0
M  V30 3057 C 292.118 0.388634 -2.25881 0
M  V30 3058 C 293.131 0.974041 -1.30446 0
M  V30 3059 O 294.32 0.865758 -1.56099 0
M  V30 3060 C 291.42 1.5571 -3.01011 0
M  V30 3061 C 290.593 1.08801 -4.23652 0
M  V30 3062 C 289.652 2.12825 -4.8124 0
M  V30 3063 O 288.678 1.71678 -5.42693 0
M  V30 3064 N 289.88 3.45453 -4.66522 0
M  V30 3065 H 292.645 -0.25329 -2.98628 0
M  V30 3066 H 290.206 -0.281268 -1.59438 0
M  V30 3067 H 292.198 2.24952 -3.3642 0
M  V30 3068 H 290.768 2.10409 -2.31186 0
M  V30 3069 H 289.988 0.22215 -3.93574 0
M  V30 3070 H 291.276 0.752213 -5.03209 0
M  V30 3071 H 290.674 3.81605 -4.17605 0
M  V30 3072 H 289.231 4.10549 -5.06254 0
M  V30 3073 N 292.664 1.56529 -0.183458 0
M  V30 3074 C 294.075 1.83739 0.331177 0
M  V30 3075 C 294.426 1.10373 1.62211 0
M  V30 3076 O 293.551 0.36071 2.13373 0
M  V30 3077 C 294.146 3.33306 0.607646 0
M  V30 3078 C 292.705 3.60969 1.06668 0
M  V30 3079 C 291.852 2.77086 0.109029 0
M  V30 3080 H 294.803 1.53379 -0.407484 0
M  V30 3081 H 294.824 3.51444 1.45832 0
M  V30 3082 H 294.336 3.86677 -0.332086 0
M  V30 3083 H 292.437 3.13021 2.0211 0
M  V30 3084 H 292.55 4.69231 0.967447 0
M  V30 3085 H 290.914 2.47319 0.608714 0
M  V30 3086 H 291.697 3.33241 -0.82494 0
M  V30 3087 N 294.142 -0.090211 1.57342 0
M  V30 3088 C 295.389 -0.792807 1.86335 0
M  V30 3089 C 295.717 -1.78494 0.772662 0
M  V30 3090 O 294.972 -1.94305 -0.233258 0
M  V30 3091 C 295.271 -1.55222 3.21933 0
M  V30 3092 C 294.937 -0.701765 4.45406 0
M  V30 3093 C 293.599 -0.467334 4.78925 0
M  V30 3094 C 295.951 -0.11086 5.21082 0
M  V30 3095 C 293.279 0.367785 5.85546 0
M  V30 3096 C 295.631 0.711609 6.28585 0
M  V30 3097 C 294.295 0.956086 6.60617 0
M  V30 3098 H 293.565 -0.290109 0.681849 0
M  V30 3099 H 296.212 -0.0541332 1.91423 0
M  V30 3100 H 294.517 -2.3626 3.12551 0
M  V30 3101 H 296.214 -2.10032 3.41595 0
M  V30 3102 H 292.804 -0.894598 4.1916 0
M  V30 3103 H 296.988 -0.279129 4.95514 0
M  V30 3104 H 292.244 0.566128 6.08773 0
M  V30 3105 H 296.418 1.17632 6.86393 0
M  V30 3106 H 294.045 1.60499 7.43064 0
M  V30 3107 N 295.62 -1.53406 -0.361157 0
M  V30 3108 C 296.866 -1.70054 -1.10496 0
M  V30 3109 C 297.199 -0.453278 -1.88836 0
M  V30 3110 O 296.474 0.5495 -1.86576 0
M  V30 3111 C 296.757 -2.95317 -2.06058 0
M  V30 3112 C 296.61 -4.3021 -1.31298 0
M  V30 3113 C 297.929 -3.16193 -3.06121 0
M  V30 3114 H 295.048 -0.618799 -0.400321 0
M  V30 3115 H 297.69 -1.86052 -0.385318 0
M  V30 3116 H 295.84 -2.81809 -2.67425 0
M  V30 3117 H 297.512 -4.55538 -0.726807 0
M  V30 3118 H 295.755 -4.29421 -0.614853 0
M  V30 3119 H 296.426 -5.14 -2.01265 0
M  V30 3120 H 298.902 -3.28916 -2.5486 0
M  V30 3121 H 297.778 -4.05266 -3.70204 0
M  V30 3122 H 298.039 -2.31676 -3.76535 0
M  V30 3123 N 297.098 0.621204 -1.44841 0
M  V30 3124 C 298.028 1.74366 -1.55303 0
M  V30 3125 C 299.009 1.65199 -0.405385 0
M  V30 3126 O 300.194 1.83807 -0.626787 0
M  V30 3127 C 297.324 3.12931 -1.50637 0
M  V30 3128 C 296.278 3.36896 -2.63979 0
M  V30 3129 C 295.604 4.75594 -2.44366 0
M  V30 3130 C 296.904 3.28483 -4.06074 0
M  V30 3131 H 298.598 1.65867 -2.49256 0
M  V30 3132 H 296.144 0.796558 -1.19962 0
M  V30 3133 H 298.097 3.9124 -1.56555 0
M  V30 3134 H 296.821 3.22237 -0.532057 0
M  V30 3135 H 295.48 2.60972 -2.57467 0
M  V30 3136 H 295.128 4.81616 -1.45105 0
M  V30 3137 H 294.828 4.92586 -3.20364 0
M  V30 3138 H 296.352 5.5612 -2.52117 0
M  V30 3139 H 297.766 3.96684 -4.13902 0
M  V30 3140 H 296.163 3.57008 -4.82354 0
M  V30 3141 H 297.233 2.26133 -4.28943 0
M  V30 3142 N 298.576 1.31904 0.862503 0
M  V30 3143 C 299.823 1.22017 1.61611 0
M  V30 3144 C 300.151 -0.21991 1.93253 0
M  V30 3145 O 299.406 -1.17076 1.56817 0
M  V30 3146 C 299.705 2.01713 2.95037 0
M  V30 3147 C 299.371 3.51145 2.82857 0
M  V30 3148 C 298.033 3.91889 2.79243 0
M  V30 3149 C 300.385 4.46204 2.69353 0
M  V30 3150 C 297.713 5.25947 2.59993 0
M  V30 3151 C 300.065 5.80397 2.5164 0
M  V30 3152 C 298.729 6.20352 2.46413 0
M  V30 3153 H 297.999 0.44649 0.591378 0
M  V30 3154 H 300.646 1.63248 1.00111 0
M  V30 3155 H 298.951 1.53185 3.60613 0
M  V30 3156 H 300.648 1.91437 3.52353 0
M  V30 3157 H 297.238 3.1878 2.86491 0
M  V30 3158 H 301.422 4.15652 2.71196 0
M  V30 3159 H 296.678 5.5597 2.54376 0
M  V30 3160 H 300.852 6.53676 2.40169 0
M  V30 3161 H 298.479 7.24172 2.31256 0
M  V30 3162 N 300.054 -1.07777 1.14986 0
M  V30 3163 C 301.282 -1.84018 0.945773 0
M  V30 3164 C 301.697 -1.81897 -0.505863 0
M  V30 3165 O 301.054 -1.22726 -1.35072 0
M  V30 3166 C 301.105 -3.31287 1.44677 0
M  V30 3167 O 300.826 -3.33449 2.84154 0
M  V30 3168 C 302.327 -4.24311 1.28355 0
M  V30 3169 H 299.547 -0.580716 0.336169 0
M  V30 3170 H 302.091 -1.36077 1.52654 0
M  V30 3171 H 300.246 -3.76594 0.908625 0
M  V30 3172 H 300.66 -4.25427 3.06777 0
M  V30 3173 H 302.134 -5.2573 1.68261 0
M  V30 3174 H 302.611 -4.38612 0.227184 0
M  V30 3175 H 303.217 -3.84836 1.81056 0
M  V30 3176 N 301.532 -0.945985 -1.26051 0
M  V30 3177 C 302.48 -0.450259 -2.282 0
M  V30 3178 C 303.474 0.47497 -1.62605 0
M  V30 3179 O 304.68 0.352653 -1.76512 0
M  V30 3180 H 301.055 -0.127081 -0.741184 0
M  V30 3181 H 303.026 -1.32422 -2.67408 0
M  V30 3182 C 301.775 0.26467 -3.46691 0
M  V30 3183 H 301.098 -0.438123 -3.97392 0
M  V30 3184 H 302.538 0.575678 -4.20074 0
M  V30 3185 C 300.997 1.48416 -3.02447 0
M  V30 3186 O 301.527 2.58227 -3.07704 0
M  V30 3187 N 299.733 1.34243 -2.57735 0
M  V30 3188 H 299.28 0.448994 -2.53657 0
M  V30 3189 H 299.238 2.15957 -2.28495 0
M  V30 3190 N 303.011 1.40521 -0.713556 0
M  V30 3191 C 304.241 2.0494 -0.261395 0
M  V30 3192 C 304.649 1.53861 1.10107 0
M  V30 3193 O 303.992 0.689321 1.70276 0
M  V30 3194 C 304.054 3.59138 -0.161227 0
M  V30 3195 C 303.718 4.33096 -1.45865 0
M  V30 3196 C 304.715 4.61182 -2.40016 0
M  V30 3197 C 302.4 4.72043 -1.71701 0
M  V30 3198 C 304.394 5.27196 -3.58251 0
M  V30 3199 C 302.081 5.37789 -2.90218 0
M  V30 3200 C 303.079 5.65295 -3.83315 0
M  V30 3201 O 302.767 6.29683 -4.99754 0
M  V30 3202 H 302.499 0.666041 -0.115608 0
M  V30 3203 H 305.053 1.80954 -0.971849 0
M  V30 3204 H 303.283 3.81936 0.605153 0
M  V30 3205 H 304.972 4.05091 0.256105 0
M  V30 3206 H 305.738 4.31559 -2.21318 0
M  V30 3207 H 301.617 4.50003 -1.00092 0
M  V30 3208 H 305.161 5.48582 -4.30934 0
M  V30 3209 H 301.058 5.66831 -3.08825 0
M  V30 3210 H 301.826 6.4818 -4.99805 0
M  V30 3211 N 304.489 0.459591 1.5075 0
M  V30 3212 C 305.717 -0.0973749 2.06671 0
M  V30 3213 C 306.132 -1.34524 1.32472 0
M  V30 3214 O 305.489 -1.7827 0.390634 0
M  V30 3215 C 305.54 -0.39714 3.59312 0
M  V30 3216 O 305.261 0.801214 4.30711 0
M  V30 3217 C 306.762 -1.00234 4.31819 0
M  V30 3218 H 303.982 0.00195854 0.670997 0
M  V30 3219 H 306.526 0.645072 1.94059 0
M  V30 3220 H 304.681 -1.08951 3.71764 0
M  V30 3221 H 305.095 0.538857 5.21725 0
M  V30 3222 H 306.569 -1.16193 5.39632 0
M  V30 3223 H 307.046 -1.98939 3.91561 0
M  V30 3224 H 307.652 -0.348699 4.23868 0
M  V30 3225 N 305.967 -1.56429 0.191757 0
M  V30 3226 C 307.383 -1.58754 -0.164137 0
M  V30 3227 C 307.583 -1.20782 -1.61288 0
M  V30 3228 O 306.639 -0.928999 -2.34789 0
M  V30 3229 C 307.952 -3.00396 0.135195 0
M  V30 3230 C 309.5 -3.1291 0.0750351 0
M  V30 3231 C 309.975 -4.56679 0.347632 0
M  V30 3232 N 311.466 -4.62252 0.296131 0
M  V30 3233 C 312.201 -5.71379 0.480948 0
M  V30 3234 N 311.697 -6.88986 0.725933 0
M  V30 3235 N 313.49 -5.60563 0.415435 0
M  V30 3236 H 305.641 -1.79393 1.13718 0
M  V30 3237 H 307.904 -0.832414 0.453643 0
M  V30 3238 H 307.61 -3.32726 1.13958 0
M  V30 3239 H 307.484 -3.72963 -0.563773 0
M  V30 3240 H 309.871 -2.80394 -0.919948 0
M  V30 3241 H 309.952 -2.42736 0.807029 0
M  V30 3242 H 309.596 -4.89907 1.33992 0
M  V30 3243 H 309.526 -5.25039 -0.405212 0
M  V30 3244 H 312.017 -3.7773 0.113259 0
M  V30 3245 H 312.33 -7.68046 0.855857 0
M  V30 3246 H 310.675 -6.90801 0.762788 0
M  V30 3247 H 313.866 -4.67561 0.224486 0
M  V30 3248 H 314.039 -6.45551 0.562889 0
M  V30 3249 N 307.445 0.0818655 -1.57387 0
M  V30 3250 C 308.675 0.794954 -1.90694 0
M  V30 3251 C 309.083 1.72147 -0.784982 0
M  V30 3252 O 308.426 1.81974 0.251196 0
M  V30 3253 C 308.488 1.65042 -3.19376 0
M  V30 3254 C 308.152 0.894337 -4.48164 0
M  V30 3255 C 309.149 0.21813 -5.19442 0
M  V30 3256 C 306.834 0.864495 -4.94805 0
M  V30 3257 C 308.828 -0.477802 -6.35607 0
M  V30 3258 C 306.515 0.164785 -6.10878 0
M  V30 3259 C 307.513 -0.505173 -6.81129 0
M  V30 3260 O 307.201 -1.19363 -7.94989 0
M  V30 3261 H 306.933 0.231779 -0.635023 0
M  V30 3262 H 309.487 0.059493 -2.05314 0
M  V30 3263 H 307.717 2.42844 -3.00938 0
M  V30 3264 H 309.406 2.24127 -3.38411 0
M  V30 3265 H 310.172 0.232558 -4.84442 0
M  V30 3266 H 306.051 1.37542 -4.40004 0
M  V30 3267 H 309.595 -1.00129 -6.90377 0
M  V30 3268 H 305.492 0.148249 -6.4533 0
M  V30 3269 H 306.26 -1.10188 -8.11049 0
M  V30 3270 N 308.923 1.53595 0.353017 0
M  V30 3271 C 310.169 1.70638 1.09593 0
M  V30 3272 C 310.502 0.463286 1.88593 0
M  V30 3273 O 309.777 -0.539597 1.86865 0
M  V30 3274 C 310.06 2.96406 2.04489 0
M  V30 3275 C 309.913 4.30901 1.29014 0
M  V30 3276 C 311.232 3.17812 3.0444 0
M  V30 3277 H 308.351 0.620913 0.397034 0
M  V30 3278 H 310.993 1.86254 0.375446 0
M  V30 3279 H 309.143 2.83223 2.65927 0
M  V30 3280 H 310.815 4.55917 0.702638 0
M  V30 3281 H 309.058 4.29741 0.592071 0
M  V30 3282 H 309.729 5.1506 1.98537 0
M  V30 3283 H 312.205 3.30263 2.53112 0
M  V30 3284 H 311.081 4.07223 3.6805 0
M  V30 3285 H 311.342 2.33669 3.75301 0
M  V30 3286 N 310.401 -0.613514 1.45168 0
M  V30 3287 C 311.678 -1.37263 1.39349 0
M  V30 3288 C 312.058 -2.11012 0.0610848 0
M  V30 3289 O 311.406 -2.07502 -0.956825 0
M  V30 3290 C 311.616 -2.3244 2.60332 0
M  V30 3291 C 312.964 -2.9523 3.05163 0
M  V30 3292 O 313.988 -2.42762 2.60663 0
M  V30 3293 O 312.847 -3.90454 3.82372 0
M  V30 3294 H 309.941 -0.615188 0.552696 0
M  V30 3295 H 312.487 -0.637097 1.57287 0
M  V30 3296 H 311.259 -1.77164 3.48896 0
M  V30 3297 H 310.882 -3.13383 2.44698 0
M  V30 3298 N 311.879 -1.3236 -0.855495 0
M  V30 3299 C 312.789 -1.23221 -1.99634 0
M  V30 3300 C 313.805 -0.145983 -1.73387 0
M  V30 3301 O 314.981 -0.366502 -1.98037 0
M  V30 3302 C 312.046 -0.954782 -3.33294 0
M  V30 3303 C 311.107 -2.12937 -3.72769 0
M  V30 3304 C 310.34 -1.86508 -5.00051 0
M  V30 3305 O 310.563 -0.807231 -5.64659 0
M  V30 3306 O 309.497 -2.72591 -5.36636 0
M  V30 3307 H 313.323 -2.19126 -2.1028 0
M  V30 3308 H 310.908 -1.12241 -0.986018 0
M  V30 3309 H 312.79 -0.816519 -4.13414 0
M  V30 3310 H 311.465 -0.0258854 -3.2369 0
M  V30 3311 H 310.372 -2.3231 -2.93228 0
M  V30 3312 H 311.705 -3.04102 -3.87018 0
M  V30 3313 N 313.357 1.07166 -1.15556 0
M  V30 3314 C 314.604 1.79798 -0.931604 0
M  V30 3315 C 314.932 1.8682 0.54115 0
M  V30 3316 O 314.187 1.34942 1.41736 0
M  V30 3317 C 314.486 3.24707 -1.49332 0
M  V30 3318 C 314.152 3.37781 -2.98688 0
M  V30 3319 C 312.814 3.41057 -3.39461 0
M  V30 3320 C 315.166 3.40424 -3.94665 0
M  V30 3321 C 312.494 3.4458 -4.74849 0
M  V30 3322 C 314.846 3.45485 -5.29927 0
M  V30 3323 C 313.51 3.47039 -5.70193 0
M  V30 3324 H 312.78 0.657928 -0.340898 0
M  V30 3325 H 315.427 1.26091 -1.44129 0
M  V30 3326 H 313.732 3.81208 -0.904859 0
M  V30 3327 H 315.429 3.79486 -1.29582 0
M  V30 3328 H 312.019 3.35932 -2.66172 0
M  V30 3329 H 316.203 3.37113 -3.64237 0
M  V30 3330 H 311.459 3.44083 -5.05388 0
M  V30 3331 H 315.633 3.46476 -6.04092 0
M  V30 3332 H 313.26 3.49522 -6.75084 0
M  V30 3333 N 314.835 0.952656 1.25548 0
M  V30 3334 C 316.081 0.607272 1.93494 0
M  V30 3335 C 316.414 -0.853245 1.74452 0
M  V30 3336 O 315.689 -1.61194 1.08843 0
M  V30 3337 C 315.972 0.96435 3.46947 0
M  V30 3338 C 315.825 2.48045 3.75225 0
M  V30 3339 C 317.144 0.487987 4.37386 0
M  V30 3340 H 314.263 0.222096 0.702739 0
M  V30 3341 H 316.905 1.18895 1.48203 0
M  V30 3342 H 315.055 0.469361 3.85654 0
M  V30 3343 H 316.727 3.04905 3.46166 0
M  V30 3344 H 314.97 2.919 3.209 0
M  V30 3345 H 315.641 2.6808 4.82532 0
M  V30 3346 H 318.117 0.912558 4.0597 0
M  V30 3347 H 316.993 0.766547 5.43521 0
M  V30 3348 H 317.254 -0.612063 4.37843 0
M  V30 3349 N 316.313 -1.40141 0.720998 0
M  V30 3350 C 317.729 -1.54632 0.395113 0
M  V30 3351 C 317.929 -1.69115 -1.09555 0
M  V30 3352 O 316.985 -1.68377 -1.88163 0
M  V30 3353 C 318.298 -2.77177 1.1659 0
M  V30 3354 C 319.846 -2.91 1.15274 0
M  V30 3355 C 320.321 -4.16465 1.90579 0
M  V30 3356 N 321.812 -4.23476 1.87675 0
M  V30 3357 C 322.547 -5.19475 2.42762 0
M  V30 3358 N 322.043 -6.21348 3.06428 0
M  V30 3359 N 323.836 -5.11592 2.32874 0
M  V30 3360 H 315.987 -1.28986 1.68749 0
M  V30 3361 H 318.25 -0.62412 0.713567 0
M  V30 3362 H 317.956 -2.72771 2.22011 0
M  V30 3363 H 317.83 -3.69442 0.76108 0
M  V30 3364 H 320.217 -2.94907 0.106702 0
M  V30 3365 H 320.298 -1.99838 1.59682 0
M  V30 3366 H 319.942 -4.1332 2.95176 0
M  V30 3367 H 319.872 -5.06646 1.43587 0
M  V30 3368 H 322.363 -3.50497 1.41281 0
M  V30 3369 H 322.676 -6.91034 3.45965 0
M  V30 3370 H 321.021 -6.21777 3.10514 0
M  V30 3371 H 324.212 -4.30936 1.82789 0
M  V30 3372 H 324.385 -5.86233 2.76106 0
M  V30 3373 N 317.792 -0.46758 -1.50504 0
M  V30 3374 C 319.038 0.0808869 -2.03239 0
M  V30 3375 C 319.393 1.37721 -1.34353 0
M  V30 3376 O 318.686 1.86016 -0.459194 0
M  V30 3377 C 318.88 0.323995 -3.55928 0
M  V30 3378 C 318.709 -0.947215 -4.39611 0
M  V30 3379 C 317.479 -1.48951 -4.82848 0
M  V30 3380 C 319.677 -1.84166 -4.80195 0
M  V30 3381 N 317.659 -2.71011 -5.50842 0
M  V30 3382 C 319.03 -2.90815 -5.47564 0
M  V30 3383 C 321.085 -1.85246 -4.62156 0
M  V30 3384 C 319.788 -3.98529 -5.98805 0
M  V30 3385 C 321.814 -2.91914 -5.14335 0
M  V30 3386 C 321.176 -3.97282 -5.81676 0
M  V30 3387 H 317.275 -0.0103394 -0.781932 0
M  V30 3388 H 319.859 -0.635003 -1.84054 0
M  V30 3389 H 318.03 1.00892 -3.75067 0
M  V30 3390 H 319.762 0.866492 -3.95315 0
M  V30 3391 H 316.517 -1.03918 -4.62058 0
M  V30 3392 H 316.941 -3.32988 -5.89447 0
M  V30 3393 H 321.583 -1.05103 -4.09528 0
M  V30 3394 H 319.301 -4.79491 -6.50472 0
M  V30 3395 H 322.887 -2.93729 -5.0221 0
M  V30 3396 H 321.767 -4.78462 -6.21324 0
M  V30 3397 N 319.27 1.56325 -0.20005 0
M  V30 3398 C 320.518 1.97329 0.436547 0
M  V30 3399 C 320.839 1.08826 1.61808 0
M  V30 3400 O 320.109 0.160604 1.95241 0
M  V30 3401 H 318.689 0.728714 0.164272 0
M  V30 3402 H 321.351 1.92761 -0.287937 0
M  V30 3403 H 320.447 3.02264 0.777353 0
M  V30 3404 N 320.748 -0.0735177 1.57428 0
M  V30 3405 C 321.988 -0.778363 1.89 0
M  V30 3406 C 322.352 -1.7483 0.793634 0
M  V30 3407 O 323.553 -2.49811 0.992367 0
M  V30 3408 C 321.824 -1.46929 3.25802 0
M  V30 3409 S 323.383 -2.20943 3.79117 0
M  V30 3410 H 320.201 -0.258874 0.662197 0
M  V30 3411 H 322.803 -0.0345338 1.95469 0
M  V30 3412 H 321.507 -0.749532 4.03497 0
M  V30 3413 H 321.038 -2.25258 3.22525 0
M  V30 3414 H 323.053 -3.47435 3.54265 0
M  V30 3415 N 322.226 -1.5378 -0.344866 0
M  V30 3416 C 323.451 -1.75211 -1.10977 0
M  V30 3417 C 323.876 -0.48936 -1.81623 0
M  V30 3418 O 323.234 0.557925 -1.72502 0
M  V30 3419 C 323.282 -2.93147 -2.09993 0
M  V30 3420 O 322.386 -2.63203 -3.17487 0
M  V30 3421 H 321.727 -0.581241 -0.321021 0
M  V30 3422 H 324.257 -2.00738 -0.395661 0
M  V30 3423 H 324.267 -3.19898 -2.53237 0
M  V30 3424 H 322.942 -3.84731 -1.5797 0
M  V30 3425 H 321.519 -2.47336 -2.79069 0
M  V30 3426 N 323.704 0.605807 -1.45491 0
M  V30 3427 C 324.636 1.73031 -1.5031 0
M  V30 3428 C 325.649 1.57968 -0.393687 0
M  V30 3429 O 326.838 1.65817 -0.660839 0
M  V30 3430 C 323.938 3.11049 -1.34543 0
M  V30 3431 C 323.111 3.52334 -2.59189 0
M  V30 3432 C 322.17 4.69323 -2.37954 0
M  V30 3433 O 321.196 4.7635 -3.11575 0
M  V30 3434 N 322.398 5.62705 -1.4263 0
M  V30 3435 H 325.163 1.6936 -2.4726 0
M  V30 3436 H 322.724 0.79114 -1.41254 0
M  V30 3437 H 324.716 3.87071 -1.18144 0
M  V30 3438 H 323.286 3.09217 -0.458623 0
M  V30 3439 H 322.506 2.66256 -2.90691 0
M  V30 3440 H 323.794 3.76677 -3.42041 0
M  V30 3441 H 323.192 5.59744 -0.818758 0
M  V30 3442 H 321.749 6.38252 -1.32202 0
M  V30 3443 N 325.182 1.32811 0.848464 0
M  V30 3444 C 326.431 1.23075 1.59798 0
M  V30 3445 C 326.744 -0.204419 1.94529 0
M  V30 3446 O 327.95 -0.423701 2.68173 0
M  V30 3447 C 326.406 2.15594 2.88179 0
M  V30 3448 C 326.014 3.64228 2.60849 0
M  V30 3449 C 327.758 2.14709 3.66197 0
M  V30 3450 C 325.665 4.48689 3.85269 0
M  V30 3451 H 324.595 0.457091 0.599653 0
M  V30 3452 H 327.246 1.57813 0.936342 0
M  V30 3453 H 325.628 1.73778 3.55833 0
M  V30 3454 H 326.802 4.14424 2.01467 0
M  V30 3455 H 325.117 3.67306 1.96151 0
M  V30 3456 H 327.714 2.75046 4.58534 0
M  V30 3457 H 328.057 1.13966 4.00397 0
M  V30 3458 H 328.59 2.54837 3.05455 0
M  V30 3459 H 325.329 5.5027 3.56207 0
M  V30 3460 H 324.849 4.03241 4.44024 0
M  V30 3461 H 326.528 4.62006 4.52946 0
M  V30 3462 N 326.66 -1.06551 1.16123 0
M  V30 3463 C 327.59 -2.15935 0.88851 0
M  V30 3464 C 328.571 -1.69306 -0.164135 0
M  V30 3465 O 329.756 -1.94193 -0.0167857 0
M  V30 3466 C 326.886 -3.45149 0.385942 0
M  V30 3467 C 325.84 -4.05271 1.3762 0
M  V30 3468 C 325.166 -5.29664 0.732137 0
M  V30 3469 C 326.466 -4.44355 2.74493 0
M  V30 3470 H 328.16 -2.39006 1.80323 0
M  V30 3471 H 325.706 -1.14866 0.868435 0
M  V30 3472 H 327.659 -4.21004 0.182647 0
M  V30 3473 H 326.383 -3.21689 -0.564274 0
M  V30 3474 H 325.042 -3.3147 1.56599 0
M  V30 3475 H 324.69 -5.02499 -0.224483 0
M  V30 3476 H 324.39 -5.70848 1.39307 0
M  V30 3477 H 325.914 -6.08218 0.538802 0
M  V30 3478 H 327.328 -5.11303 2.59311 0
M  V30 3479 H 325.725 -4.96515 3.37035 0
M  V30 3480 H 326.795 -3.55339 3.29943 0
M  V30 3481 N 328.138 -0.959301 -1.25041 0
M  V30 3482 C 329.415 -0.533805 -1.88175 0
M  V30 3483 C 329.795 0.988994 -1.865 0
M  V30 3484 O 329.143 1.85677 -1.33177 0
M  V30 3485 C 329.353 -1.11575 -3.30684 0
M  V30 3486 C 330.701 -1.19548 -4.07423 0
M  V30 3487 O 331.725 -1.06765 -3.39823 0
M  V30 3488 O 330.584 -1.39656 -5.28354 0
M  V30 3489 H 327.678 -0.176772 -0.807887 0
M  V30 3490 H 330.224 -1.05303 -1.33076 0
M  V30 3491 H 328.996 -2.15884 -3.26358 0
M  V30 3492 H 328.619 -0.580059 -3.93346 0
M  V30 3493 N 329.616 1.39756 -0.72842 0
M  V30 3494 C 331.027 1.83498 -0.344289 0
M  V30 3495 C 331.378 1.60868 1.12321 0
M  V30 3496 O 330.503 1.09634 1.86573 0
M  V30 3497 C 331.098 3.33114 -0.618112 0
M  V30 3498 C 329.657 3.753 -0.287549 0
M  V30 3499 C 328.804 2.62831 -0.884048 0
M  V30 3500 H 331.755 1.28842 -0.926578 0
M  V30 3501 H 331.776 3.80334 0.112349 0
M  V30 3502 H 331.288 3.49553 -1.68625 0
M  V30 3503 H 329.389 3.64451 0.775012 0
M  V30 3504 H 329.502 4.72945 -0.765512 0
M  V30 3505 H 327.866 2.52792 -0.311149 0
M  V30 3506 H 328.649 2.82078 -1.95671 0
M  V30 3507 N 331.094 0.475555 1.50254 0
M  V30 3508 C 332.371 -0.139685 1.95101 0
M  V30 3509 C 332.751 -1.56555 1.41611 0
M  V30 3510 O 332.099 -2.19956 0.618993 0
M  V30 3511 C 332.309 -0.0784298 3.48912 0
M  V30 3512 C 333.657 -0.265095 4.23772 0
M  V30 3513 O 334.681 -0.154808 3.55863 0
M  V30 3514 O 333.54 -0.488327 5.44314 0
M  V30 3515 H 330.634 -0.109236 0.819754 0
M  V30 3516 H 333.18 0.536276 1.61004 0
M  V30 3517 H 331.952 0.916918 3.80405 0
M  V30 3518 H 331.575 -0.795655 3.89558 0
M  V30 3519 N 332.573 -1.56217 0.208337 0
M  V30 3520 C 333.798 -2.02782 -0.435222 0
M  V30 3521 C 334.223 -1.08738 -1.53485 0
M  V30 3522 O 333.581 -0.0731855 -1.81152 0
M  V30 3523 C 333.629 -3.47687 -0.956335 0
M  V30 3524 O 332.733 -3.56773 -2.06849 0
M  V30 3525 H 332.074 -0.656403 -0.100158 0
M  V30 3526 H 334.604 -2.02033 0.3231 0
M  V30 3527 H 334.614 -3.87745 -1.26955 0
M  V30 3528 H 333.289 -4.15624 -0.15143 0
M  V30 3529 H 331.866 -3.28597 -1.76292 0
M  V30 3530 N 334.051 0.0651679 -1.57465 0
M  V30 3531 C 335.462 0.616213 -1.76238 0
M  V30 3532 C 335.813 1.7756 -0.834689 0
M  V30 3533 O 334.938 2.1639 -0.0204156 0
M  V30 3534 C 335.533 1.12462 -3.1959 0
M  V30 3535 C 334.092 1.62147 -3.39684 0
M  V30 3536 C 333.239 0.543739 -2.71917 0
M  V30 3537 H 336.19 -0.161022 -1.57881 0
M  V30 3538 H 336.211 1.99324 -3.24114 0
M  V30 3539 H 335.723 0.280592 -3.87084 0
M  V30 3540 H 333.824 2.48854 -2.77313 0
M  V30 3541 H 333.937 1.69385 -4.48158 0
M  V30 3542 H 332.301 0.990352 -2.34657 0
M  V30 3543 H 333.084 -0.290216 -3.42071 0
M  V30 3544 N 335.529 1.53961 0.336706 0
M  V30 3545 C 336.759 1.75229 1.09446 0
M  V30 3546 C 337.167 0.494602 1.82621 0
M  V30 3547 O 336.51 -0.543764 1.75468 0
M  V30 3548 C 336.572 2.88288 2.1478 0
M  V30 3549 C 336.236 4.27656 1.6112 0
M  V30 3550 C 337.233 5.08981 1.0599 0
M  V30 3551 C 334.918 4.74161 1.6576 0
M  V30 3552 C 336.912 6.34916 0.562129 0
M  V30 3553 C 334.599 6.00067 1.15595 0
M  V30 3554 C 335.597 6.80278 0.609147 0
M  V30 3555 O 335.285 8.03818 0.114999 0
M  V30 3556 H 335.017 0.588881 0.331956 0
M  V30 3557 H 337.571 2.01614 0.392566 0
M  V30 3558 H 335.801 2.57443 2.88548 0
M  V30 3559 H 337.49 2.97461 2.76174 0
M  V30 3560 H 338.256 4.74213 1.01722 0
M  V30 3561 H 334.135 4.11781 2.07261 0
M  V30 3562 H 337.679 6.9747 0.134668 0
M  V30 3563 H 333.576 6.3433 1.19566 0
M  V30 3564 H 334.344 8.18172 0.231651 0
M  V30 3565 N 337.007 -0.598083 1.45811 0
M  V30 3566 C 338.256 -1.35295 1.49594 0
M  V30 3567 C 338.569 -1.95057 0.145679 0
M  V30 3568 O 339.775 -2.71431 0.0612099 0
M  V30 3569 C 338.231 -2.45124 2.63519 0
M  V30 3570 C 337.839 -1.91732 4.04899 0
M  V30 3571 C 339.583 -3.2205 2.76558 0
M  V30 3572 C 337.49 -2.991 5.1019 0
M  V30 3573 H 336.42 -0.508552 0.556679 0
M  V30 3574 H 339.071 -0.639977 1.71978 0
M  V30 3575 H 337.453 -3.19149 2.34435 0
M  V30 3576 H 338.627 -1.24352 4.43704 0
M  V30 3577 H 336.942 -1.27522 3.96393 0
M  V30 3578 H 339.539 -4.0215 3.52391 0
M  V30 3579 H 339.882 -3.73663 1.83526 0
M  V30 3580 H 340.415 -2.55127 3.05213 0
M  V30 3581 H 337.154 -2.52393 6.04961 0
M  V30 3582 H 336.674 -3.65017 4.75944 0
M  V30 3583 H 338.353 -3.63318 5.35359 0
M  V30 3584 N 338.485 -1.33259 -0.841409 0
M  V30 3585 C 339.448 -1.23221 -1.9326 0
M  V30 3586 C 340.448 -0.151895 -1.60081 0
M  V30 3587 O 341.638 -0.403246 -1.69468 0
M  V30 3588 C 338.77 -0.898123 -3.28856 0
M  V30 3589 H 339.963 -2.2021 -2.03587 0
M  V30 3590 H 337.516 -1.17281 -1.03319 0
M  V30 3591 H 338.251 0.0693841 -3.24226 0
M  V30 3592 H 338.036 -1.67934 -3.54317 0
M  V30 3593 H 339.526 -0.852563 -4.08805 0
M  V30 3594 N 339.963 1.05934 -1.16686 0
M  V30 3595 C 340.893 2.1546 -0.899949 0
M  V30 3596 C 341.874 1.69391 0.155154 0
M  V30 3597 O 343.059 1.94199 0.00648693 0
M  V30 3598 C 340.189 3.44939 -0.404241 0
M  V30 3599 C 339.143 4.04536 -1.39767 0
M  V30 3600 C 338.469 5.29268 -0.760216 0
M  V30 3601 C 339.769 4.42893 -2.76845 0
M  V30 3602 H 341.463 2.38046 -1.81588 0
M  V30 3603 H 339.009 1.14404 -0.874514 0
M  V30 3604 H 340.962 4.20901 -0.204971 0
M  V30 3605 H 339.686 3.21983 0.547206 0
M  V30 3606 H 338.345 3.30635 -1.58355 0
M  V30 3607 H 337.993 5.02611 0.197831 0
M  V30 3608 H 337.693 5.70101 -1.42332 0
M  V30 3609 H 339.217 6.07924 -0.57105 0
M  V30 3610 H 340.631 5.09921 -2.62019 0
M  V30 3611 H 339.028 4.94721 -3.39663 0
M  V30 3612 H 340.098 3.53584 -3.31823 0
M  V30 3613 N 341.441 0.965919 1.2453 0
M  V30 3614 C 342.666 0.643971 1.97149 0
M  V30 3615 C 343.091 -0.779487 1.71189 0
M  V30 3616 O 342.449 -1.5288 0.974553 0
M  V30 3617 C 342.497 0.922557 3.48599 0
M  V30 3618 O 341.601 0.00707672 4.12399 0
M  V30 3619 H 340.942 0.243647 0.617683 0
M  V30 3620 H 343.472 1.29558 1.58353 0
M  V30 3621 H 343.482 0.853373 3.98976 0
M  V30 3622 H 342.157 1.95996 3.66822 0
M  V30 3623 H 340.734 0.12943 3.72675 0
M  V30 3624 N 342.919 -1.39368 0.735821 0
M  V30 3625 C 344.159 -2.02349 0.288813 0
M  V30 3626 C 344.523 -1.57127 -1.10341 0
M  V30 3627 O 345.724 -2.12312 -1.64854 0
M  V30 3628 C 343.995 -3.55288 0.387986 0
M  V30 3629 S 345.554 -4.38795 0.0209408 0
M  V30 3630 H 342.372 -0.701944 0.113115 0
M  V30 3631 H 344.974 -1.70164 0.962518 0
M  V30 3632 H 343.678 -3.85691 1.40252 0
M  V30 3633 H 343.209 -3.92227 -0.303512 0
M  V30 3634 H 345.224 -4.81595 -1.19503 0
M  V30 3635 N 344.397 -0.483516 -1.5 0
M  V30 3636 C 345.36 0.292965 -2.2732 0
M  V30 3637 C 346.36 0.909499 -1.32608 0
M  V30 3638 O 347.55 0.776745 -1.55924 0
M  V30 3639 C 344.682 1.41854 -3.09984 0
M  V30 3640 H 345.875 -0.385289 -2.97415 0
M  V30 3641 H 343.428 -0.237942 -1.54478 0
M  V30 3642 H 344.163 2.13148 -2.44414 0
M  V30 3643 H 343.948 0.982114 -3.79601 0
M  V30 3644 H 345.438 1.96597 -3.68429 0
M  V30 3645 N 345.875 1.56104 -0.216619 0
M  V30 3646 C 347.123 1.97781 0.415593 0
M  V30 3647 C 347.444 1.10536 1.60645 0
M  V30 3648 O 346.714 0.181303 1.95059 0
M  V30 3649 H 345.294 0.730415 0.156534 0
M  V30 3650 H 347.956 1.92445 -0.308366 0
M  V30 3651 H 347.052 3.03072 0.74525 0
M  V30 3652 N 347.353 -0.0568162 1.57498 0
M  V30 3653 C 348.601 -0.751617 1.87604 0
M  V30 3654 C 348.922 -1.77351 0.81066 0
M  V30 3655 O 348.192 -1.95254 -0.159018 0
M  V30 3656 H 346.772 -0.280583 0.692302 0
M  V30 3657 H 349.434 -0.0293483 1.94878 0
M  V30 3658 H 348.53 -1.25852 2.856 0
M  V30 3659 N 348.832 -1.54138 -0.328536 0
M  V30 3660 C 349.78 -1.83894 -1.42428 0
M  V30 3661 C 350.774 -0.710478 -1.53781 0
M  V30 3662 O 351.98 -0.894062 -1.56226 0
M  V30 3663 H 348.355 -0.582837 -0.475189 0
M  V30 3664 H 350.326 -2.75537 -1.14552 0
M  V30 3665 C 349.075 -2.07866 -2.78724 0
M  V30 3666 H 348.398 -2.94158 -2.7076 0
M  V30 3667 H 349.838 -2.32644 -3.54476 0
M  V30 3668 C 348.297 -0.868689 -3.25508 0
M  V30 3669 O 348.827 -0.0754908 -4.01629 0
M  V30 3670 N 347.033 -0.681711 -2.82491 0
M  V30 3671 H 346.58 -1.32838 -2.20708 0
M  V30 3672 H 346.538 0.126374 -3.14146 0
M  V30 3673 N 350.31 0.590341 -1.46126 0
M  V30 3674 C 351.556 1.34874 -1.52252 0
M  V30 3675 C 351.911 1.91658 -0.168807 0
M  V30 3676 O 351.204 1.73093 0.821556 0
M  V30 3677 C 351.398 2.5032 -2.55097 0
M  V30 3678 C 351.227 2.04843 -4.00337 0
M  V30 3679 C 349.997 1.90213 -4.68132 0
M  V30 3680 C 352.195 1.61267 -4.88362 0
M  V30 3681 N 350.177 1.38727 -5.9802 0
M  V30 3682 C 351.548 1.21319 -6.08015 0
M  V30 3683 C 353.603 1.49015 -4.75078 0
M  V30 3684 C 352.306 0.7034 -7.15852 0
M  V30 3685 C 354.332 0.994401 -5.8298 0
M  V30 3686 C 353.694 0.604659 -7.018 0
M  V30 3687 H 349.793 0.486803 -0.612002 0
M  V30 3688 H 352.377 0.673007 -1.82698 0
M  V30 3689 H 350.548 3.15466 -2.26574 0
M  V30 3690 H 352.28 3.1725 -2.51266 0
M  V30 3691 H 349.035 2.11927 -4.23537 0
M  V30 3692 H 349.459 1.15168 -6.67132 0
M  V30 3693 H 354.101 1.77768 -3.83612 0
M  V30 3694 H 351.819 0.403446 -8.07092 0
M  V30 3695 H 355.405 0.903621 -5.7474 0
M  V30 3696 H 354.285 0.226963 -7.83871 0
M  V30 3697 N 351.788 1.33704 0.83433 0
M  V30 3698 C 353.037 1.24763 1.58484 0
M  V30 3699 C 353.35 -0.183775 1.94735 0
M  V30 3700 O 354.556 -0.395234 2.68608 0
M  V30 3701 C 353.012 2.18638 2.85876 0
M  V30 3702 C 352.62 3.66974 2.56971 0
M  V30 3703 C 354.364 2.18581 3.63899 0
M  V30 3704 C 352.271 4.5275 3.80488 0
M  V30 3705 H 351.201 0.463425 0.594772 0
M  V30 3706 H 353.852 1.58797 0.919551 0
M  V30 3707 H 352.234 1.77542 3.5397 0
M  V30 3708 H 353.408 4.16538 1.9706 0
M  V30 3709 H 351.723 3.69366 1.92244 0
M  V30 3710 H 354.32 2.79894 4.55591 0
M  V30 3711 H 354.663 1.18207 3.99165 0
M  V30 3712 H 355.196 2.58062 3.02735 0
M  V30 3713 H 351.935 5.54017 3.5035 0
M  V30 3714 H 351.455 4.07927 4.39722 0
M  V30 3715 H 353.134 4.66784 4.4802 0
M  V30 3716 N 353.266 -1.05314 1.17247 0
M  V30 3717 C 354.494 -1.81971 0.984593 0
M  V30 3718 C 354.909 -1.82929 -0.467166 0
M  V30 3719 O 354.266 -1.25564 -1.32438 0
M  V30 3720 C 354.317 -3.28143 1.51672 0
M  V30 3721 O 354.038 -3.27347 2.91163 0
M  V30 3722 C 355.539 -4.21493 1.37326 0
M  V30 3723 H 352.759 -0.573455 0.348411 0
M  V30 3724 H 355.303 -1.32808 1.55506 0
M  V30 3725 H 353.458 -3.74582 0.988302 0
M  V30 3726 H 353.872 -4.18824 3.15732 0
M  V30 3727 H 355.346 -5.22043 1.79375 0
M  V30 3728 H 355.823 -4.38031 0.320169 0
M  V30 3729 H 356.429 -3.80909 1.89178 0
M  V30 3730 N 354.744 -0.972509 -1.24016 0
M  V30 3731 C 355.707 -0.511403 -2.23422 0
M  V30 3732 C 356.707 0.394679 -1.55881 0
M  V30 3733 O 357.897 0.189469 -1.73167 0
M  V30 3734 C 355.029 0.258769 -3.39916 0
M  V30 3735 H 356.222 -1.39024 -2.6573 0
M  V30 3736 H 353.775 -0.757585 -1.36713 0
M  V30 3737 H 354.51 1.1545 -3.03054 0
M  V30 3738 H 354.295 -0.391522 -3.9014 0
M  V30 3739 H 355.785 0.570244 -4.13688 0
M  V30 3740 N 356.222 1.38976 -0.743202 0
M  V30 3741 C 357.132 2.3434 -0.110399 0
M  V30 3742 C 358.148 1.58741 0.712559 0
M  V30 3743 O 359.324 1.9099 0.639125 0
M  V30 3744 C 356.389 3.37812 0.780012 0
M  V30 3745 C 355.45 4.29263 -0.0561319 0
M  V30 3746 C 354.683 5.27793 0.791875 0
M  V30 3747 O 354.906 5.33043 2.03031 0
M  V30 3748 O 353.84 6.01512 0.216183 0
M  V30 3749 H 357.666 2.90129 -0.897714 0
M  V30 3750 H 355.251 1.40643 -0.503966 0
M  V30 3751 H 357.133 4.01194 1.28923 0
M  V30 3752 H 355.808 2.84395 1.546 0
M  V30 3753 H 354.715 3.69076 -0.611056 0
M  V30 3754 H 356.048 4.85907 -0.784531 0
M  V30 3755 N 357.7 0.491464 1.49741 0
M  V30 3756 C 358.928 -0.0535151 2.06831 0
M  V30 3757 C 359.343 -1.31683 1.35296 0
M  V30 3758 O 358.7 -1.77402 0.42836 0
M  V30 3759 C 358.751 -0.320835 3.60073 0
M  V30 3760 O 358.472 0.892394 4.28915 0
M  V30 3761 C 359.973 -0.910519 4.33848 0
M  V30 3762 H 357.193 0.0161909 0.670805 0
M  V30 3763 H 359.737 0.68609 1.92647 0
M  V30 3764 H 357.892 -1.0104 3.73991 0
M  V30 3765 H 358.306 0.649401 5.20464 0
M  V30 3766 H 359.78 -1.04721 5.41976 0
M  V30 3767 H 360.257 -1.90589 3.95692 0
M  V30 3768 H 360.863 -0.258712 4.24512 0
M  V30 3769 N 359.178 -1.55987 0.224894 0
M  V30 3770 C 360.088 -2.24066 -0.69511 0
M  V30 3771 C 361.104 -1.24939 -1.21104 0
M  V30 3772 O 362.28 -1.5776 -1.25195 0
M  V30 3773 C 359.345 -2.90983 -1.88493 0
M  V30 3774 C 358.406 -4.05462 -1.41064 0
M  V30 3775 C 357.639 -4.69179 -2.54375 0
M  V30 3776 O 357.862 -4.31895 -3.72589 0
M  V30 3777 O 356.796 -5.58108 -2.25386 0
M  V30 3778 H 360.622 -3.03353 -0.145149 0
M  V30 3779 H 358.207 -1.49399 -0.00569476 0
M  V30 3780 H 360.089 -3.33209 -2.57972 0
M  V30 3781 H 358.764 -2.14653 -2.42293 0
M  V30 3782 H 357.671 -3.67798 -0.683774 0
M  V30 3783 H 359.004 -4.83545 -0.918985 0
M  V30 3784 N 360.656 0.0484629 -1.57525 0
M  V30 3785 C 361.619 1.03956 -2.04269 0
M  V30 3786 C 362.619 1.30211 -0.943496 0
M  V30 3787 O 363.809 1.25539 -1.20771 0
M  V30 3788 C 360.941 2.37742 -2.44319 0
M  V30 3789 H 362.134 0.636182 -2.93075 0
M  V30 3790 H 359.687 0.294811 -1.53494 0
M  V30 3791 H 360.422 2.82866 -1.5861 0
M  V30 3792 H 360.207 2.20021 -3.24551 0
M  V30 3793 H 361.697 3.08936 -2.80978 0
M  V30 3794 N 362.134 1.5431 0.320358 0
M  V30 3795 C 363.545 1.63872 0.894594 0
M  V30 3796 C 363.896 0.534847 1.88769 0
M  V30 3797 O 363.021 -0.331732 2.13842 0
M  V30 3798 C 363.616 2.97049 1.62934 0
M  V30 3799 C 362.175 3.08796 2.15226 0
M  V30 3800 C 361.322 2.59456 0.978671 0
M  V30 3801 H 364.273 1.58398 0.0978544 0
M  V30 3802 H 364.294 2.87388 2.49376 0
M  V30 3803 H 363.806 3.7737 0.906302 0
M  V30 3804 H 361.907 2.33156 2.90636 0
M  V30 3805 H 362.02 4.14649 2.40006 0
M  V30 3806 H 360.384 2.1543 1.35875 0
M  V30 3807 H 361.167 3.42237 0.269895 0
M  V30 3808 N 363.613 -0.582584 1.46437 0
M  V30 3809 C 364.523 -1.71949 1.59595 0
M  V30 3810 C 365.539 -1.67264 0.479443 0
M  V30 3811 O 366.715 -1.87171 0.743579 0
M  V30 3812 C 363.78 -3.08452 1.58298 0
M  V30 3813 C 362.841 -3.244 2.81182 0
M  V30 3814 C 362.074 -4.54391 2.79937 0
M  V30 3815 O 362.297 -5.38287 1.8869 0
M  V30 3816 O 361.231 -4.73588 3.71481 0
M  V30 3817 H 365.057 -1.63795 2.55744 0
M  V30 3818 H 362.642 -0.749643 1.29231 0
M  V30 3819 H 364.524 -3.89732 1.60271 0
M  V30 3820 H 363.199 -3.17043 0.653094 0
M  V30 3821 H 362.106 -2.42613 2.84763 0
M  V30 3822 H 363.439 -3.20699 3.7338 0
M  V30 3823 N 365.091 -1.34144 -0.827227 0
M  V30 3824 C 366.001 -1.27428 -1.96975 0
M  V30 3825 C 367.017 -0.182728 -1.73038 0
M  V30 3826 O 368.193 -0.408426 -1.97215 0
M  V30 3827 C 365.258 -1.02526 -3.31194 0
M  V30 3828 C 364.319 -2.20796 -3.68168 0
M  V30 3829 C 363.552 -1.97073 -4.95982 0
M  V30 3830 O 363.775 -0.926822 -5.6282 0
M  V30 3831 O 362.709 -2.83912 -5.30733 0
M  V30 3832 H 366.535 -2.23537 -2.05584 0
M  V30 3833 H 364.12 -1.14307 -0.961989 0
M  V30 3834 H 366.002 -0.904026 -4.11589 0
M  V30 3835 H 364.677 -0.0945389 -3.23562 0
M  V30 3836 H 363.584 -2.38477 -2.88235 0
M  V30 3837 H 364.917 -3.12243 -3.8048 0
M  V30 3838 N 366.569 1.04691 -1.17803 0
M  V30 3839 C 367.532 2.10724 -0.901545 0
M  V30 3840 C 368.532 1.6042 0.110437 0
M  V30 3841 O 369.722 1.7377 -0.122303 0
M  V30 3842 C 366.854 3.39084 -0.351409 0
M  V30 3843 H 368.047 2.36686 -1.84174 0
M  V30 3844 H 365.6 1.21015 -0.98919 0
M  V30 3845 H 366.335 3.18782 0.59569 0
M  V30 3846 H 366.12 3.76909 -1.08083 0
M  V30 3847 H 367.61 4.17227 -0.176451 0
M  V30 3848 N 368.047 0.979072 1.23499 0
M  V30 3849 C 369.296 0.642751 1.91185 0
M  V30 3850 C 369.609 -0.827253 1.77245 0
M  V30 3851 O 370.815 -1.27458 2.39722 0
M  V30 3852 C 369.271 1.09901 3.42709 0
M  V30 3853 C 368.879 2.59327 3.65313 0
M  V30 3854 C 370.623 0.836371 4.16179 0
M  V30 3855 C 368.53 2.98627 5.10467 0
M  V30 3856 H 367.46 0.236698 0.715884 0
M  V30 3857 H 370.111 1.1868 1.39955 0
M  V30 3858 H 368.493 0.48319 3.93041 0
M  V30 3859 H 369.667 3.26136 3.25533 0
M  V30 3860 H 367.982 2.83323 3.05151 0
M  V30 3861 H 370.579 1.10586 5.23139 0
M  V30 3862 H 370.922 -0.227509 4.15678 0
M  V30 3863 H 371.455 1.41371 3.71832 0
M  V30 3864 H 368.194 4.04133 5.16098 0
M  V30 3865 H 367.714 2.3651 5.51201 0
M  V30 3866 H 369.393 2.89159 5.78788 0
M  V30 3867 N 369.525 -1.3858 0.750561 0
M  V30 3868 C 370.75 -2.04997 0.314812 0
M  V30 3869 C 371.175 -1.56235 -1.04749 0
M  V30 3870 O 370.533 -0.712981 -1.66692 0
M  V30 3871 C 370.581 -3.58961 0.343415 0
M  V30 3872 O 369.685 -4.07025 -0.663628 0
M  V30 3873 H 369.026 -0.649081 0.139962 0
M  V30 3874 H 371.556 -1.77313 1.02084 0
M  V30 3875 H 371.566 -4.07542 0.193233 0
M  V30 3876 H 370.241 -3.93811 1.33738 0
M  V30 3877 H 368.818 -3.6982 -0.478307 0
M  V30 3878 N 371.003 -0.499398 -1.49478 0
M  V30 3879 C 372.28 0.108629 -1.95298 0
M  V30 3880 C 372.66 1.54282 -1.44084 0
M  V30 3881 O 372.008 2.18944 -0.653908 0
M  V30 3882 C 372.218 0.0229111 -3.48992 0
M  V30 3883 C 373.566 0.197643 -4.2414 0
M  V30 3884 O 374.59 0.0981735 -3.56065 0
M  V30 3885 O 373.449 0.401669 -5.45022 0
M  V30 3886 H 370.543 0.096181 -0.821388 0
M  V30 3887 H 373.089 -0.561822 -1.6013 0
M  V30 3888 H 371.861 -0.977321 -3.78899 0
M  V30 3889 H 371.484 0.733579 -3.90774 0
M  V30 3890 N 372.481 1.55866 -0.233164 0
M  V30 3891 C 373.411 2.23783 0.666599 0
M  V30 3892 C 374.392 1.21343 1.19205 0
M  V30 3893 O 375.577 1.4996 1.23392 0
M  V30 3894 C 372.707 2.92671 1.86978 0
M  V30 3895 C 371.661 4.01682 1.47768 0
M  V30 3896 C 370.987 4.57926 2.76058 0
M  V30 3897 C 372.287 5.18126 0.658993 0
M  V30 3898 H 373.981 2.99232 0.100306 0
M  V30 3899 H 371.527 1.43924 0.046804 0
M  V30 3900 H 373.48 3.3888 2.50476 0
M  V30 3901 H 372.204 2.14688 2.46123 0
M  V30 3902 H 370.863 3.56222 0.866106 0
M  V30 3903 H 370.511 3.76659 3.33372 0
M  V30 3904 H 370.211 5.31505 2.50552 0
M  V30 3905 H 371.735 5.06859 3.40479 0
M  V30 3906 H 373.149 5.60644 1.19795 0
M  V30 3907 H 371.546 5.98009 0.500552 0
M  V30 3908 H 372.616 4.83763 -0.331856 0
M  V30 3909 N 373.959 -0.0401083 1.57549 0
M  V30 3910 C 374.922 -1.02871 2.04817 0
M  V30 3911 C 375.922 -1.29708 0.950388 0
M  V30 3912 O 377.112 -1.24897 1.21435 0
M  V30 3913 C 374.244 -2.36443 2.45576 0
M  V30 3914 H 375.437 -0.620631 2.93408 0
M  V30 3915 H 372.99 -0.286667 1.53649 0
M  V30 3916 H 373.725 -2.82021 1.60108 0
M  V30 3917 H 373.51 -2.18296 3.25713 0
M  V30 3918 H 375 -3.07441 2.82612 0
M  V30 3919 N 375.437 -1.54477 -0.31217 0
M  V30 3920 C 376.683 -1.74417 -1.04644 0
M  V30 3921 C 377.038 -0.517641 -1.85306 0
M  V30 3922 O 376.331 0.489973 -1.85229 0
M  V30 3923 C 376.525 -2.967 -1.99258 0
M  V30 3924 C 376.354 -4.31128 -1.27901 0
M  V30 3925 C 375.124 -4.95087 -1.01079 0
M  V30 3926 C 377.322 -5.09662 -0.689119 0
M  V30 3927 N 375.304 -6.13322 -0.266323 0
M  V30 3928 C 376.675 -6.19952 -0.0768523 0
M  V30 3929 C 378.73 -4.94355 -0.593061 0
M  V30 3930 C 377.433 -7.16604 0.622165 0
M  V30 3931 C 379.459 -5.91328 0.0922792 0
M  V30 3932 C 378.821 -7.00978 0.693443 0
M  V30 3933 H 374.92 -0.69094 -0.366231 0
M  V30 3934 H 377.504 -1.91946 -0.326319 0
M  V30 3935 H 375.675 -2.80616 -2.68532 0
M  V30 3936 H 377.407 -3.05216 -2.65755 0
M  V30 3937 H 374.162 -4.55235 -1.30607 0
M  V30 3938 H 374.586 -6.76937 0.0920973 0
M  V30 3939 H 379.228 -4.09719 -1.04355 0
M  V30 3940 H 376.946 -8.0079 1.08445 0
M  V30 3941 H 380.532 -5.81562 0.166396 0
M  V30 3942 H 379.412 -7.74725 1.21533 0
M  V30 3943 N 376.915 0.57481 -1.46744 0
M  V30 3944 C 377.862 1.68329 -1.57905 0
M  V30 3945 C 378.832 1.60625 -0.422927 0
M  V30 3946 O 380.017 1.79721 -0.640711 0
M  V30 3947 C 377.157 3.06665 -1.58274 0
M  V30 3948 C 376.27 3.24935 -2.84678 0
M  V30 3949 C 375.405 4.53566 -2.76499 0
M  V30 3950 C 374.444 4.65207 -3.97806 0
M  V30 3951 N 373.581 5.85172 -3.87967 0
M  V30 3952 H 378.421 1.58127 -2.52587 0
M  V30 3953 H 375.958 0.770552 -1.25303 0
M  V30 3954 H 377.916 3.86745 -1.56473 0
M  V30 3955 H 376.546 3.15745 -0.671194 0
M  V30 3956 H 375.598 2.38405 -2.96424 0
M  V30 3957 H 376.91 3.29403 -3.7456 0
M  V30 3958 H 376.064 5.41885 -2.72848 0
M  V30 3959 H 374.803 4.51548 -1.8427 0
M  V30 3960 H 373.808 3.75304 -4.0178 0
M  V30 3961 H 375.033 4.68997 -4.9114 0
M  V30 3962 H 372.979 5.84137 -2.98529 0
M  V30 3963 H 372.896 5.90943 -4.71511 0
M  V30 3964 H 374.164 6.759 -3.88303 0
M  V30 3965 N 378.394 1.34581 0.820102 0
M  V30 3966 C 379.341 1.2639 1.93117 0
M  V30 3967 C 380.311 0.138554 1.65521 0
M  V30 3968 O 381.496 0.320004 1.88097 0
M  V30 3969 C 378.636 1.02812 3.29429 0
M  V30 3970 C 377.749 2.24146 3.693 0
M  V30 3971 C 376.884 1.93829 4.94574 0
M  V30 3972 C 375.923 3.1129 5.27034 0
M  V30 3973 N 375.06 2.80838 6.43486 0
M  V30 3974 H 379.9 2.21408 1.99455 0
M  V30 3975 H 377.437 1.10077 0.975784 0
M  V30 3976 H 379.395 0.871788 4.0799 0
M  V30 3977 H 378.025 0.114612 3.22596 0
M  V30 3978 H 377.077 2.50691 2.86109 0
M  V30 3979 H 378.389 3.11899 3.89257 0
M  V30 3980 H 377.543 1.74948 5.80929 0
M  V30 3981 H 376.282 1.03341 4.76626 0
M  V30 3982 H 375.287 3.30764 4.39175 0
M  V30 3983 H 376.512 4.02561 5.4692 0
M  V30 3984 H 374.458 1.92929 6.26988 0
M  V30 3985 H 374.375 3.62123 6.63629 0
M  V30 3986 H 375.643 2.65467 7.32903 0
M  V30 3987 N 379.872 -1.04064 1.18357 0
M  V30 3988 C 380.822 -2.10393 0.878561 0
M  V30 3989 C 381.806 -1.60183 -0.151713 0
M  V30 3990 O 382.998 -1.76923 0.0523303 0
M  V30 3991 C 380.127 -3.4089 0.406096 0
M  V30 3992 C 379.213 -3.97866 1.46844 0
M  V30 3993 N 379.604 -4.28657 2.68489 0
M  V30 3994 C 377.902 -4.2574 1.32896 0
M  V30 3995 C 378.603 -4.74253 3.36836 0
M  V30 3996 N 377.579 -4.75068 2.64219 0
M  V30 3997 H 381.381 -2.32076 1.80327 0
M  V30 3998 H 378.895 -1.21818 1.07397 0
M  V30 3999 H 380.892 -4.16557 0.169088 0
M  V30 4000 H 379.552 -3.20633 -0.512275 0
M  V30 4001 H 380.563 -4.18304 3.05356 0
M  V30 4002 H 377.24 -4.1481 0.473134 0
M  V30 4003 H 378.63 -5.07096 4.40798 0
M  V30 4004 N 381.35 -0.985608 -1.22978 0
M  V30 4005 C 382.282 -0.488154 -2.23941 0
M  V30 4006 C 383.295 0.41282 -1.57479 0
M  V30 4007 O 384.484 0.216121 -1.77187 0
M  V30 4008 C 381.584 0.312611 -3.37455 0
M  V30 4009 C 380.757 -0.582741 -4.33501 0
M  V30 4010 C 379.816 0.165064 -5.25941 0
M  V30 4011 O 378.842 -0.447077 -5.67442 0
M  V30 4012 N 380.044 1.44953 -5.62111 0
M  V30 4013 H 382.809 -1.3563 -2.67254 0
M  V30 4014 H 380.37 -0.859477 -1.37203 0
M  V30 4015 H 382.362 0.821357 -3.96277 0
M  V30 4016 H 380.932 1.0818 -2.93285 0
M  V30 4017 H 380.152 -1.27225 -3.73105 0
M  V30 4018 H 381.44 -1.19275 -4.94622 0
M  V30 4019 H 380.838 1.9683 -5.30353 0
M  V30 4020 H 379.395 1.90361 -6.23383 0
M  V30 4021 N 382.828 1.3818 -0.7579 0
M  V30 4022 C 383.761 2.28055 -0.0814093 0
M  V30 4023 C 384.739 1.45603 0.723779 0
M  V30 4024 O 385.923 1.74961 0.701491 0
M  V30 4025 C 383.05 3.2676 0.891394 0
M  V30 4026 C 382.096 4.26153 0.171909 0
M  V30 4027 S 382.929 5.23434 -1.13035 0
M  V30 4028 C 384.085 6.25694 -0.160727 0
M  V30 4029 H 384.318 2.85082 -0.84353 0
M  V30 4030 H 381.851 1.44246 -0.550671 0
M  V30 4031 H 383.809 3.8414 1.44731 0
M  V30 4032 H 382.47 2.68706 1.62652 0
M  V30 4033 H 381.663 4.95738 0.908843 0
M  V30 4034 H 381.265 3.72691 -0.312606 0
M  V30 4035 H 383.557 6.74161 0.671773 0
M  V30 4036 H 384.5 7.03285 -0.824353 0
M  V30 4037 H 384.908 5.64064 0.221892 0
M  V30 4038 N 384.306 0.507319 1.49211 0
M  V30 4039 C 385.717 0.0611118 1.866 0
M  V30 4040 C 386.068 -1.35488 1.41907 0
M  V30 4041 O 385.193 -2.0108 0.799726 0
M  V30 4042 C 385.788 0.104125 3.3864 0
M  V30 4043 C 384.347 -0.28677 3.75306 0
M  V30 4044 C 383.494 0.473893 2.73221 0
M  V30 4045 H 386.445 0.719775 1.41439 0
M  V30 4046 H 386.466 -0.689672 3.74198 0
M  V30 4047 H 385.978 1.13482 3.71138 0
M  V30 4048 H 384.079 -1.32046 3.48417 0
M  V30 4049 H 384.192 0.0370745 4.79086 0
M  V30 4050 H 382.556 -0.0770644 2.54583 0
M  V30 4051 H 383.339 1.50478 3.08563 0
M  V30 4052 N 385.784 -1.5574 0.241426 0
M  V30 4053 C 386.747 -2.19877 -0.647063 0
M  V30 4054 C 387.747 -1.16642 -1.10686 0
M  V30 4055 O 388.937 -1.41757 -1.01245 0
M  V30 4056 C 386.069 -2.83797 -1.88871 0
M  V30 4057 H 387.262 -2.99772 -0.087574 0
M  V30 4058 H 384.815 -1.56298 -0.00813574 0
M  V30 4059 H 385.55 -2.07824 -2.48957 0
M  V30 4060 H 385.335 -3.59414 -1.56728 0
M  V30 4061 H 386.825 -3.32898 -2.52129 0
M  V30 4062 N 387.262 0.0317525 -1.57568 0
M  V30 4063 C 388.508 0.718712 -1.90279 0
M  V30 4064 C 388.863 1.73108 -0.839727 0
M  V30 4065 O 388.156 1.90997 0.15188 0
M  V30 4066 C 388.35 1.43167 -3.27472 0
M  V30 4067 C 388.179 0.489869 -4.47024 0
M  V30 4068 C 386.949 0.111909 -5.05176 0
M  V30 4069 C 389.147 -0.230592 -5.13783 0
M  V30 4070 N 387.129 -0.831427 -6.08244 0
M  V30 4071 C 388.5 -1.02968 -6.1139 0
M  V30 4072 C 390.555 -0.297821 -4.97008 0
M  V30 4073 C 389.258 -1.88982 -6.9403 0
M  V30 4074 C 391.284 -1.14507 -5.80209 0
M  V30 4075 C 390.646 -1.9321 -6.77384 0
M  V30 4076 H 386.745 0.237177 -0.745165 0
M  V30 4077 H 389.329 -0.0211267 -1.94689 0
M  V30 4078 H 387.5 2.14199 -3.23996 0
M  V30 4079 H 389.232 2.0708 -3.47707 0
M  V30 4080 H 385.987 0.473513 -4.71227 0
M  V30 4081 H 386.411 -1.29752 -6.6445 0
M  V30 4082 H 391.053 0.296346 -4.2176 0
M  V30 4083 H 388.771 -2.4948 -7.68626 0
M  V30 4084 H 392.357 -1.20059 -5.69278 0
M  V30 4085 H 391.237 -2.57711 -7.40645 0
M  V30 4086 N 388.74 1.54641 0.303973 0
M  V30 4087 C 389.69 1.8177 1.37636 0
M  V30 4088 C 390.674 0.674697 1.46071 0
M  V30 4089 O 391.866 0.935251 1.50273 0
M  V30 4090 C 388.995 2.06584 2.74186 0
M  V30 4091 C 388.081 3.2706 2.69986 0
M  V30 4092 N 388.472 4.47682 2.35402 0
M  V30 4093 C 386.77 3.29028 3.01092 0
M  V30 4094 C 387.471 5.29689 2.40426 0
M  V30 4095 N 386.447 4.67339 2.7766 0
M  V30 4096 H 390.249 2.72596 1.09857 0
M  V30 4097 H 387.763 1.541 0.51254 0
M  V30 4098 H 389.76 2.24166 3.51504 0
M  V30 4099 H 388.42 1.17024 3.02879 0
M  V30 4100 H 389.431 4.74336 2.07908 0
M  V30 4101 H 386.108 2.49565 3.34699 0
M  V30 4102 H 387.498 6.3606 2.16512 0
M  V30 4103 N 390.218 -0.567019 1.47046 0
M  V30 4104 C 391.148 -1.68482 1.61667 0
M  V30 4105 C 392.129 -1.6358 0.466418 0
M  V30 4106 O 393.314 -1.81354 0.694574 0
M  V30 4107 C 390.444 -3.07124 1.62148 0
M  V30 4108 C 389.398 -3.26867 2.76301 0
M  V30 4109 C 388.724 -4.66196 2.61849 0
M  V30 4110 C 390.024 -3.13186 4.17986 0
M  V30 4111 H 391.718 -1.56502 2.5524 0
M  V30 4112 H 389.264 -0.751486 1.22836 0
M  V30 4113 H 391.217 -3.8516 1.70968 0
M  V30 4114 H 389.941 -3.2004 0.651287 0
M  V30 4115 H 388.6 -2.51237 2.66975 0
M  V30 4116 H 388.248 -4.75898 1.62879 0
M  V30 4117 H 387.948 -4.80356 3.38425 0
M  V30 4118 H 389.472 -5.46379 2.72584 0
M  V30 4119 H 390.886 -3.81049 4.2834 0
M  V30 4120 H 389.283 -3.3886 4.95272 0
M  V30 4121 H 390.353 -2.10057 4.3704 0
M  V30 4122 N 391.696 -1.35014 -0.812953 0
M  V30 4123 C 392.945 -1.27269 -1.56479 0
M  V30 4124 C 393.258 0.152771 -1.95002 0
M  V30 4125 O 394.464 0.352451 -2.69203 0
M  V30 4126 C 392.92 -2.23159 -2.82362 0
M  V30 4127 C 392.528 -3.71016 -2.511 0
M  V30 4128 C 394.272 -2.24342 -3.60376 0
M  V30 4129 C 392.179 -4.58746 -3.73237 0
M  V30 4130 H 391.109 -0.472829 -0.587324 0
M  V30 4131 H 393.76 -1.6024 -0.894171 0
M  V30 4132 H 392.142 -1.83151 -3.51101 0
M  V30 4133 H 393.316 -4.1962 -1.90409 0
M  V30 4134 H 391.631 -3.72378 -1.86343 0
M  V30 4135 H 394.228 -2.87107 -4.51081 0
M  V30 4136 H 394.571 -1.24542 -3.97234 0
M  V30 4137 H 395.104 -2.62846 -2.98591 0
M  V30 4138 H 391.843 -5.59521 -3.41492 0
M  V30 4139 H 391.363 -4.14871 -4.33176 0
M  V30 4140 H 393.042 -4.73852 -4.40537 0
M  V30 4141 N 393.175 1.03435 -1.18907 0
M  V30 4142 C 394.403 1.80381 -1.01342 0
M  V30 4143 C 394.818 1.83649 0.438005 0
M  V30 4144 O 394.175 1.27655 1.30424 0
M  V30 4145 C 394.226 3.25689 -1.56873 0
M  V30 4146 O 393.947 3.22673 -2.96334 0
M  V30 4147 C 395.448 4.19255 -1.44014 0
M  V30 4148 H 392.668 0.56784 -0.35749 0
M  V30 4149 H 395.212 1.30317 -1.576 0
M  V30 4150 H 393.367 3.72962 -1.04777 0
M  V30 4151 H 393.781 4.13748 -3.22355 0
M  V30 4152 H 395.255 5.19123 -1.87657 0
M  V30 4153 H 395.732 4.37467 -0.389815 0
M  V30 4154 H 396.338 3.77851 -1.95214 0
M  V30 4155 N 394.653 0.992116 1.22453 0
M  V30 4156 C 395.616 0.546883 2.2258 0
M  V30 4157 C 396.616 -0.369829 1.56489 0
M  V30 4158 O 397.806 -0.161896 1.73446 0
M  V30 4159 C 394.938 -0.204659 3.40285 0
M  V30 4160 H 396.131 1.43234 2.63484 0
M  V30 4161 H 393.684 0.779239 1.3549 0
M  V30 4162 H 394.419 -1.10614 3.04853 0
M  V30 4163 H 394.204 0.45354 3.89468 0
M  V30 4164 H 395.694 -0.504358 4.14543 0
M  V30 4165 N 396.131 -1.37776 0.765217 0
M  V30 4166 C 397.408 -1.93975 0.251596 0
M  V30 4167 C 397.788 -1.69949 -1.25222 0
M  V30 4168 O 397.136 -1.04457 -2.03226 0
M  V30 4169 C 397.346 -3.43487 0.617895 0
M  V30 4170 C 398.694 -4.20564 0.584029 0
M  V30 4171 O 399.718 -3.5182 0.556888 0
M  V30 4172 O 398.577 -5.43138 0.605291 0
M  V30 4173 H 395.671 -0.82509 0.0561806 0
M  V30 4174 H 398.217 -1.47101 0.846128 0
M  V30 4175 H 396.989 -3.5453 1.65602 0
M  V30 4176 H 396.612 -3.976 -0.00403411 0
M  V30 4177 N 397.609 -0.515225 -1.4894 0
M  V30 4178 C 398.857 0.0241671 -2.02086 0
M  V30 4179 C 399.178 1.3616 -1.3959 0
M  V30 4180 O 398.448 1.87841 -0.556121 0
M  V30 4181 H 397.028 0.0119203 -0.746905 0
M  V30 4182 H 399.69 -0.675702 -1.82812 0
M  V30 4183 H 398.786 0.143385 -3.1177 0
M  V30 4184 N 399.087 1.5561 -0.249682 0
M  V30 4185 C 400.019 2.18834 0.681496 0
M  V30 4186 C 401.032 1.16546 1.1367 0
M  V30 4187 O 402.221 1.43397 1.06299 0
M  V30 4188 C 399.321 2.77992 1.9384 0
M  V30 4189 C 398.494 4.05725 1.63419 0
M  V30 4190 C 397.553 4.49174 2.74096 0
M  V30 4191 O 396.579 5.15492 2.41364 0
M  V30 4192 N 397.781 4.17191 4.03649 0
M  V30 4193 H 400.546 2.9937 0.140514 0
M  V30 4194 H 398.107 1.6175 -0.0697541 0
M  V30 4195 H 400.099 3.04015 2.67127 0
M  V30 4196 H 398.669 2.01596 2.38909 0
M  V30 4197 H 397.889 3.87261 0.736358 0
M  V30 4198 H 399.177 4.88999 1.40562 0
M  V30 4199 H 398.575 3.63955 4.33074 0
M  V30 4200 H 397.132 4.48043 4.73393 0
M  V30 4201 N 400.565 -0.0233959 1.57583 0
M  V30 4202 C 401.813 -0.711654 1.89156 0
M  V30 4203 C 402.134 -1.75591 0.848096 0
M  V30 4204 O 401.404 -1.95547 -0.117566 0
M  V30 4205 H 399.984 -0.265835 0.698098 0
M  V30 4206 H 402.646 0.0119948 1.94896 0
M  V30 4207 H 401.742 -1.19766 2.88206 0
M  V30 4208 N 402.043 -1.548 -0.295768 0
M  V30 4209 C 403.292 -1.73538 -1.02798 0
M  V30 4210 C 403.605 -0.531159 -1.8825 0
M  V30 4211 O 404.811 -0.600458 -2.64777 0
M  V30 4212 C 403.267 -3.07051 -1.87744 0
M  V30 4213 C 402.875 -4.34968 -1.07269 0
M  V30 4214 C 404.619 -3.35146 -2.60533 0
M  V30 4215 C 402.526 -5.5953 -1.91521 0
M  V30 4216 H 401.456 -0.646794 -0.387522 0
M  V30 4217 H 404.107 -1.81278 -0.284718 0
M  V30 4218 H 402.489 -2.93289 -2.66078 0
M  V30 4219 H 403.663 -4.5958 -0.335117 0
M  V30 4220 H 401.978 -4.13847 -0.460384 0
M  V30 4221 H 404.575 -4.2541 -3.23929 0
M  V30 4222 H 404.918 -2.54255 -3.29636 0
M  V30 4223 H 405.451 -3.49902 -1.89244 0
M  V30 4224 H 402.19 -6.43103 -1.26878 0
M  V30 4225 H 401.71 -5.39096 -2.62937 0
M  V30 4226 H 403.389 -5.96982 -2.49442 0
M  V30 4227 N 403.521 0.559213 -1.47345 0
M  V30 4228 C 404.749 1.34194 -1.57479 0
M  V30 4229 C 405.164 1.87463 -0.224261 0
M  V30 4230 O 404.521 1.64888 0.782185 0
M  V30 4231 C 404.572 2.51324 -2.59843 0
M  V30 4232 O 404.293 2.00256 -3.89653 0
M  V30 4233 C 405.794 3.43563 -2.80142 0
M  V30 4234 H 403.014 0.409136 -0.531835 0
M  V30 4235 H 405.558 0.677609 -1.92947 0
M  V30 4236 H 403.713 3.13699 -2.27314 0
M  V30 4237 H 404.127 2.76708 -4.4557 0
M  V30 4238 H 405.601 4.2217 -3.55635 0
M  V30 4239 H 406.078 3.9698 -1.87892 0
M  V30 4240 H 406.684 2.87005 -3.1386 0
M  V30 4241 N 404.999 1.35443 0.805782 0
M  V30 4242 C 405.929 1.31095 1.93226 0
M  V30 4243 C 406.91 0.185244 1.69088 0
M  V30 4244 O 408.095 0.380332 1.90439 0
M  V30 4245 C 405.225 1.08299 3.29983 0
M  V30 4246 C 404.179 2.17519 3.68605 0
M  V30 4247 C 403.505 1.79887 5.03532 0
M  V30 4248 C 404.805 3.5949 3.78898 0
M  V30 4249 H 406.499 2.25352 1.97122 0
M  V30 4250 H 404.045 1.0848 0.946996 0
M  V30 4251 H 405.998 1.03897 4.08391 0
M  V30 4252 H 404.722 0.104885 3.26432 0
M  V30 4253 H 403.381 2.2102 2.92482 0
M  V30 4254 H 403.029 0.80693 4.96485 0
M  V30 4255 H 402.729 2.53001 5.30344 0
M  V30 4256 H 404.253 1.77011 5.84379 0
M  V30 4257 H 405.667 3.58307 4.47536 0
M  V30 4258 H 404.064 4.31371 4.1718 0
M  V30 4259 H 405.134 3.95584 2.80431 0
M  V30 4260 N 406.477 -1.02803 1.19454 0
M  V30 4261 C 407.723 -1.76478 0.999171 0
M  V30 4262 C 408.056 -1.88456 -0.468828 0
M  V30 4263 O 407.331 -1.40198 -1.34814 0
M  V30 4264 C 407.614 -3.19044 1.66981 0
M  V30 4265 C 407.467 -3.14932 3.21151 0
M  V30 4266 C 408.786 -4.17456 1.39349 0
M  V30 4267 H 405.905 -0.640614 0.364393 0
M  V30 4268 H 408.547 -1.20005 1.47305 0
M  V30 4269 H 406.697 -3.67263 1.2669 0
M  V30 4270 H 408.369 -2.74605 3.70661 0
M  V30 4271 H 406.612 -2.52625 3.52652 0
M  V30 4272 H 407.283 -4.1566 3.63223 0
M  V30 4273 H 409.759 -3.77842 1.74283 0
M  V30 4274 H 408.635 -5.154 1.88823 0
M  V30 4275 H 408.896 -4.40949 0.318813 0
M  V30 4276 N 407.956 -0.998596 -1.21925 0
M  V30 4277 C 408.904 -0.546641 -2.26085 0
M  V30 4278 C 409.898 0.405576 -1.64473 0
M  V30 4279 O 411.104 0.277471 -1.77849 0
M  V30 4280 H 407.479 -0.158403 -0.735127 0
M  V30 4281 H 409.45 -1.43645 -2.61551 0
M  V30 4282 C 408.199 0.117388 -3.47502 0
M  V30 4283 H 407.522 -0.606277 -3.95176 0
M  V30 4284 H 408.962 0.396993 -4.22137 0
M  V30 4285 C 407.421 1.35455 -3.0847 0
M  V30 4286 O 407.951 2.44944 -3.18379 0
M  V30 4287 N 406.157 1.23191 -2.63196 0
M  V30 4288 H 405.704 0.341006 -2.55333 0
M  V30 4289 H 405.662 2.06071 -2.37449 0
M  V30 4290 N 409.434 1.37368 -0.772513 0
M  V30 4291 C 410.683 1.98918 -0.333861 0
M  V30 4292 C 410.996 1.62017 1.09589 0
M  V30 4293 O 412.202 2.16676 1.63596 0
M  V30 4294 C 410.658 3.55735 -0.545971 0
M  V30 4295 C 410.266 4.01573 -1.98603 0
M  V30 4296 C 412.01 4.24156 -0.170979 0
M  V30 4297 C 409.917 5.51102 -2.1457 0
M  V30 4298 H 408.847 0.744214 -0.121085 0
M  V30 4299 H 411.498 1.56888 -0.95175 0
M  V30 4300 H 409.88 3.95748 0.141387 0
M  V30 4301 H 411.054 3.72803 -2.7084 0
M  V30 4302 H 409.369 3.45937 -2.31769 0
M  V30 4303 H 411.966 5.34024 -0.26878 0
M  V30 4304 H 412.309 4.06917 0.878855 0
M  V30 4305 H 412.842 3.89447 -0.810914 0
M  V30 4306 H 409.581 5.73268 -3.17875 0
M  V30 4307 H 409.101 5.81554 -1.46817 0
M  V30 4308 H 410.78 6.17083 -1.94468 0
M  V30 4309 N 410.912 0.523116 1.48665 0
M  V30 4310 C 412.16 -0.0134497 2.02096 0
M  V30 4311 C 412.481 -1.35418 1.40311 0
M  V30 4312 O 411.751 -1.87543 0.566074 0
M  V30 4313 H 410.331 -0.00795915 0.746958 0
M  V30 4314 H 412.993 0.685388 1.82451 0
M  V30 4315 H 412.089 -0.126849 3.11842 0
M  V30 4316 N 412.39 -1.55475 0.257931 0
M  V30 4317 C 413.636 -1.99502 -0.364266 0
M  V30 4318 C 413.969 -1.146 -1.56782 0
M  V30 4319 O 413.244 -0.211968 -1.93342 0
M  V30 4320 C 413.527 -3.51917 -0.763333 0
M  V30 4321 C 413.38 -4.4758 0.446371 0
M  V30 4322 C 414.699 -4.09742 -1.60623 0
M  V30 4323 H 411.818 -0.725277 -0.130929 0
M  V30 4324 H 414.46 -1.8653 0.361446 0
M  V30 4325 H 412.61 -3.63101 -1.38166 0
M  V30 4326 H 414.282 -4.48362 1.08487 0
M  V30 4327 H 412.525 -4.19947 1.08753 0
M  V30 4328 H 413.196 -5.51862 0.123645 0
M  V30 4329 H 415.672 -4.01727 -1.08418 0
M  V30 4330 H 414.548 -5.16631 -1.85429 0
M  V30 4331 H 414.809 -3.58889 -2.58169 0
M  V30 4332 N 413.868 0.0150385 -1.57593 0
M  V30 4333 C 415.116 0.701613 -1.8953 0
M  V30 4334 C 415.437 1.75139 -0.857396 0
M  V30 4335 O 414.707 1.95607 0.107194 0
M  V30 4336 H 413.287 0.26213 -0.699498 0
M  V30 4337 H 415.949 -0.0223304 -1.94887 0
M  V30 4338 H 415.045 1.18236 -2.88837 0
M  V30 4339 N 415.346 1.54954 0.287554 0
M  V30 4340 C 416.757 1.65732 0.859634 0
M  V30 4341 C 417.108 0.574767 1.87592 0
M  V30 4342 O 416.233 -0.286299 2.14498 0
M  V30 4343 C 416.828 3.00438 1.56597 0
M  V30 4344 C 415.387 3.13292 2.08627 0
M  V30 4345 C 414.534 2.61473 0.923416 0
M  V30 4346 H 417.485 1.5857 0.0642338 0
M  V30 4347 H 417.506 2.92613 2.43224 0
M  V30 4348 H 417.018 3.79207 0.826053 0
M  V30 4349 H 415.119 2.39268 2.85625 0
M  V30 4350 H 415.232 4.19647 2.31157 0
M  V30 4351 H 413.596 2.18264 1.31275 0
M  V30 4352 H 414.379 3.42733 0.197241 0
M  V30 4353 N 416.824 -0.551391 1.4764 0
M  V30 4354 C 418.049 -1.33837 1.58437 0
M  V30 4355 C 418.474 -1.866 0.237063 0
M  V30 4356 O 417.832 -1.6328 -0.787994 0
M  V30 4357 C 417.88 -2.48014 2.61766 0
M  V30 4358 O 416.984 -3.50419 2.1744 0
M  V30 4359 H 416.325 -0.397299 0.532024 0
M  V30 4360 H 418.855 -0.665759 1.93465 0
M  V30 4361 H 418.865 -2.94503 2.82369 0
M  V30 4362 H 417.54 -2.08969 3.5959 0
M  V30 4363 H 416.117 -3.10196 2.06961 0
M  V30 4364 N 418.302 -1.35869 -0.798587 0
M  V30 4365 C 419.25 -1.29491 -1.93222 0
M  V30 4366 C 420.244 -0.18836 -1.6835 0
M  V30 4367 O 421.45 -0.354822 -1.76468 0
M  V30 4368 H 417.825 -0.402901 -0.63496 0
M  V30 4369 H 419.796 -2.25247 -1.9572 0
M  V30 4370 C 418.545 -1.09184 -3.30112 0
M  V30 4371 H 417.868 -1.93574 -3.49813 0
M  V30 4372 H 419.308 -1.08766 -4.09812 0
M  V30 4373 C 417.767 0.203959 -3.36282 0
M  V30 4374 O 418.297 1.19699 -3.83451 0
M  V30 4375 N 416.503 0.245488 -2.89561 0
M  V30 4376 H 416.05 -0.563223 -2.51367 0
M  V30 4377 H 416.008 1.11219 -2.94071 0
M  V30 4378 N 419.78 1.02168 -1.19998 0
M  V30 4379 C 420.743 2.08765 -0.94604 0
M  V30 4380 C 421.743 1.60618 0.0763846 0
M  V30 4381 O 422.933 1.73472 -0.159135 0
M  V30 4382 C 420.065 3.38262 -0.423255 0
M  V30 4383 H 421.258 2.32726 -1.89153 0
M  V30 4384 H 418.811 1.1889 -1.01464 0
M  V30 4385 H 419.546 3.19974 0.527938 0
M  V30 4386 H 419.331 3.74532 -1.16053 0
M  V30 4387 H 420.821 4.16759 -0.264911 0
M  V30 4388 N 421.258 1.00505 1.21394 0
M  V30 4389 C 422.205 0.565496 2.23765 0
M  V30 4390 C 423.175 -0.408466 1.60999 0
M  V30 4391 O 424.36 -0.310503 1.88257 0
M  V30 4392 C 421.5 -0.101667 3.4495 0
M  V30 4393 C 420.613 0.915479 4.22188 0
M  V30 4394 C 419.748 0.220574 5.30742 0
M  V30 4395 C 418.787 1.22527 5.99711 0
M  V30 4396 N 417.924 0.557831 6.9988 0
M  V30 4397 H 422.764 1.44314 2.60725 0
M  V30 4398 H 420.301 0.722643 1.28126 0
M  V30 4399 H 422.259 -0.505504 4.14126 0
M  V30 4400 H 420.889 -0.94303 3.08718 0
M  V30 4401 H 419.941 1.43756 3.52191 0
M  V30 4402 H 421.253 1.68005 4.69655 0
M  V30 4403 H 420.407 -0.239368 6.06228 0
M  V30 4404 H 419.146 -0.576401 4.84282 0
M  V30 4405 H 418.151 1.69571 5.22997 0
M  V30 4406 H 419.376 2.02332 6.48258 0
M  V30 4407 H 417.322 -0.219486 6.55633 0
M  V30 4408 H 417.239 1.26065 7.45415 0
M  V30 4409 H 418.507 0.121095 7.79406 0
M  V30 4410 N 422.737 -1.36956 0.779787 0
M  V30 4411 C 423.965 -2.03755 0.359398 0
M  V30 4412 C 424.38 -1.58807 -1.02106 0
M  V30 4413 O 423.737 -0.773024 -1.6532 0
M  V30 4414 C 423.788 -3.59251 0.402568 0
M  V30 4415 O 423.509 -4.02557 1.72858 0
M  V30 4416 C 425.01 -4.43291 -0.0284068 0
M  V30 4417 H 422.23 -0.654148 0.149437 0
M  V30 4418 H 424.774 -1.75128 1.05595 0
M  V30 4419 H 422.929 -3.86621 -0.245478 0
M  V30 4420 H 423.343 -4.97111 1.67275 0
M  V30 4421 H 424.817 -5.51975 0.0529466 0
M  V30 4422 H 425.294 -4.25719 -1.07982 0
M  V30 4423 H 425.9 -4.21163 0.591758 0
M  V30 4424 N 424.215 -0.530993 -1.48385 0
M  V30 4425 C 425.464 0.00474348 -2.01699 0
M  V30 4426 C 425.777 1.35227 -1.41325 0
M  V30 4427 O 426.983 1.97643 -1.86144 0
M  V30 4428 C 425.439 0.0588473 -3.59852 0
M  V30 4429 C 425.047 -1.28385 -4.2921 0
M  V30 4430 C 426.791 0.543358 -4.21008 0
M  V30 4431 C 424.698 -1.19028 -5.79298 0
M  V30 4432 H 423.628 0.00554317 -0.75398 0
M  V30 4433 H 426.279 -0.674924 -1.70637 0
M  V30 4434 H 424.661 0.803612 -3.8776 0
M  V30 4435 H 425.835 -2.04426 -4.12973 0
M  V30 4436 H 424.15 -1.70418 -3.7993 0
M  V30 4437 H 426.747 0.631351 -5.3096 0
M  V30 4438 H 427.09 1.54937 -3.86394 0
M  V30 4439 H 427.623 -0.145754 -3.97533 0
M  V30 4440 H 424.362 -2.17147 -6.18488 0
M  V30 4441 H 423.882 -0.471246 -5.97946 0
M  V30 4442 H 425.561 -0.881365 -6.40969 0
M  V30 4443 N 425.693 1.55336 -0.266172 0
M  V30 4444 C 426.933 2.01303 0.354459 0
M  V30 4445 C 427.297 1.15046 1.53715 0
M  V30 4446 O 428.498 1.50554 2.22681 0
M  V30 4447 C 426.769 3.49748 0.735579 0
M  V30 4448 S 428.328 4.1771 1.34401 0
M  V30 4449 H 425.146 0.702333 0.110674 0
M  V30 4450 H 427.748 1.91653 -0.385916 0
M  V30 4451 H 426.452 4.10181 -0.134196 0
M  V30 4452 H 425.983 3.63364 1.50764 0
M  V30 4453 H 427.998 4.20594 2.63278 0
M  V30 4454 N 427.171 -0.0066808 1.57599 0
M  V30 4455 C 428.448 -0.729586 1.81484 0
M  V30 4456 C 428.828 -1.92359 0.869558 0
M  V30 4457 O 428.176 -2.28348 -0.0832533 0
M  V30 4458 C 428.386 -1.1416 3.29801 0
M  V30 4459 C 429.734 -1.54823 3.95367 0
M  V30 4460 O 430.758 -1.23558 3.34084 0
M  V30 4461 O 429.617 -2.12937 5.03309 0
M  V30 4462 H 426.711 -0.354674 0.747085 0
M  V30 4463 H 429.257 0.0182609 1.6969 0
M  V30 4464 H 428.029 -0.290231 3.90222 0
M  V30 4465 H 427.652 -1.94876 3.46568 0
M  V30 4466 N 428.649 -1.55105 -0.279332 0
M  V30 4467 C 429.599 -1.83937 -1.34727 0
M  V30 4468 C 430.583 -0.69785 -1.44979 0
M  V30 4469 O 431.775 -0.95904 -1.48766 0
M  V30 4470 C 428.904 -2.1092 -2.70864 0
M  V30 4471 C 427.99 -3.31314 -2.64748 0
M  V30 4472 N 428.381 -4.51371 -2.2825 0
M  V30 4473 C 426.679 -3.33777 -2.95819 0
M  V30 4474 C 427.38 -5.33447 -2.31969 0
M  V30 4475 N 426.356 -4.71697 -2.7019 0
M  V30 4476 H 430.158 -2.74309 -1.05506 0
M  V30 4477 H 427.672 -1.54896 -0.487959 0
M  V30 4478 H 429.669 -2.2973 -3.47893 0
M  V30 4479 H 428.329 -1.21828 -3.00979 0
M  V30 4480 H 429.34 -4.77584 -2.00335 0
M  V30 4481 H 426.017 -2.54858 -3.30687 0
M  V30 4482 H 427.407 -6.39424 -2.06365 0
M  V30 4483 N 430.127 0.543554 -1.4793 0
M  V30 4484 C 431.057 1.65888 -1.64327 0
M  V30 4485 C 432.038 1.62818 -0.492383 0
M  V30 4486 O 433.223 1.80226 -0.723338 0
M  V30 4487 C 430.353 3.04506 -1.67013 0
M  V30 4488 C 429.307 3.2243 -2.81466 0
M  V30 4489 C 428.633 4.61972 -2.69233 0
M  V30 4490 C 429.933 3.06496 -4.22915 0
M  V30 4491 H 431.627 1.52421 -2.57698 0
M  V30 4492 H 429.173 0.731849 -1.24016 0
M  V30 4493 H 431.126 3.82391 -1.77074 0
M  V30 4494 H 429.85 3.18964 -0.70212 0
M  V30 4495 H 428.509 2.46957 -2.70938 0
M  V30 4496 H 428.157 4.73247 -1.7043 0
M  V30 4497 H 427.857 4.74911 -3.46025 0
M  V30 4498 H 429.381 5.41974 -2.81242 0
M  V30 4499 H 430.795 3.74186 -4.34348 0
M  V30 4500 H 429.192 3.30938 -5.006 0
M  V30 4501 H 430.262 2.03077 -4.40327 0
M  V30 4502 N 431.605 1.3629 0.791371 0
M  V30 4503 C 432.568 1.30309 1.88553 0
M  V30 4504 C 433.568 0.211204 1.59407 0
M  V30 4505 O 434.758 0.465865 1.67855 0
M  V30 4506 C 431.89 1.01956 3.25297 0
M  V30 4507 H 433.083 2.27614 1.95273 0
M  V30 4508 H 430.636 1.21035 0.988953 0
M  V30 4509 H 431.371 0.050998 3.2426 0
M  V30 4510 H 431.156 1.80968 3.4784 0
M  V30 4511 H 432.646 1.0037 4.05359 0
M  V30 4512 N 433.083 -1.0153 1.20538 0
M  V30 4513 C 434.329 -1.75408 1.01783 0
M  V30 4514 C 434.662 -1.88943 -0.448814 0
M  V30 4515 O 433.937 -1.4162 -1.33319 0
M  V30 4516 C 434.22 -3.17255 1.70356 0
M  V30 4517 C 434.073 -3.11508 3.24473 0
M  V30 4518 C 435.392 -4.15955 1.43769 0
M  V30 4519 H 432.511 -0.636713 0.371167 0
M  V30 4520 H 435.153 -1.18436 1.4857 0
M  V30 4521 H 433.303 -3.65898 1.30578 0
M  V30 4522 H 434.975 -2.70658 3.73553 0
M  V30 4523 H 433.218 -2.4887 3.55311 0
M  V30 4524 H 433.889 -4.11784 3.67611 0
M  V30 4525 H 436.365 -3.75973 1.7828 0
M  V30 4526 H 435.241 -5.13368 1.94279 0
M  V30 4527 H 435.502 -4.40586 0.365564 0
M  V30 4528 N 434.561 -1.01147 -1.20859 0
M  V30 4529 C 435.491 -0.597663 -2.25722 0
M  V30 4530 C 436.472 0.384744 -1.65692 0
M  V30 4531 O 437.657 0.271303 -1.92296 0
M  V30 4532 C 434.787 0.0700149 -3.47229 0
M  V30 4533 C 433.741 -0.832843 -4.19819 0
M  V30 4534 C 433.067 -0.0312202 -5.34691 0
M  V30 4535 C 434.367 -2.1385 -4.76514 0
M  V30 4536 H 436.061 -1.47423 -2.60589 0
M  V30 4537 H 433.607 -0.710301 -1.25263 0
M  V30 4538 H 435.56 0.37103 -4.19763 0
M  V30 4539 H 434.284 0.981259 -3.11511 0
M  V30 4540 H 432.943 -1.11778 -3.49144 0
M  V30 4541 H 432.591 0.881515 -4.95215 0
M  V30 4542 H 432.291 -0.632434 -5.84187 0
M  V30 4543 H 433.815 0.26346 -6.10031 0
M  V30 4544 H 435.229 -1.9002 -5.40893 0
M  V30 4545 H 433.626 -2.69012 -5.36426 0
M  V30 4546 H 434.696 -2.80495 -3.95538 0
M  V30 4547 N 436.039 1.36541 -0.78704 0
M  V30 4548 C 437.455 1.52571 -0.46844 0
M  V30 4549 C 437.655 1.7415 1.01361 0
M  V30 4550 O 436.711 1.77163 1.79915 0
M  V30 4551 C 438.024 2.71299 -1.29682 0
M  V30 4552 C 439.572 2.85169 -1.29027 0
M  V30 4553 C 440.047 4.06898 -2.10233 0
M  V30 4554 N 441.538 4.1404 -2.07666 0
M  V30 4555 C 442.273 5.07301 -2.67271 0
M  V30 4556 N 441.769 6.06021 -3.35724 0
M  V30 4557 N 443.562 4.99898 -2.57018 0
M  V30 4558 H 435.713 1.20788 -1.74711 0
M  V30 4559 H 437.976 0.589364 -0.742532 0
M  V30 4560 H 437.682 2.61868 -2.34773 0
M  V30 4561 H 437.556 3.6539 -0.936479 0
M  V30 4562 H 439.943 2.94062 -0.247284 0
M  V30 4563 H 440.024 1.91992 -1.69035 0
M  V30 4564 H 439.668 3.98766 -3.1456 0
M  V30 4565 H 439.598 4.99218 -1.67597 0
M  V30 4566 H 442.089 3.43357 -1.57843 0
M  V30 4567 H 442.402 6.73741 -3.78541 0
M  V30 4568 H 440.747 6.06253 -3.39826 0
M  V30 4569 H 443.938 4.21724 -2.03142 0
M  V30 4570 H 444.111 5.72392 -3.03761 0
M  V30 4571 N 437.518 0.538854 1.48102 0
M  V30 4572 C 438.929 0.100679 1.86428 0
M  V30 4573 C 439.28 -1.32447 1.44749 0
M  V30 4574 O 438.405 -1.99339 0.842199 0
M  V30 4575 C 439 0.175933 3.38343 0
M  V30 4576 C 437.559 -0.207098 3.7583 0
M  V30 4577 C 436.706 0.531741 2.72154 0
M  V30 4578 H 439.657 0.749614 1.3988 0
M  V30 4579 H 439.678 -0.610144 3.75576 0
M  V30 4580 H 439.19 1.21328 3.68648 0
M  V30 4581 H 437.291 -1.24626 3.5114 0
M  V30 4582 H 437.404 0.138687 4.78899 0
M  V30 4583 H 435.768 -0.0230462 2.5469 0
M  V30 4584 H 436.551 1.56989 3.05302 0
M  V30 4585 N 438.996 -1.55193 0.274407 0
M  V30 4586 C 440.273 -1.91584 -0.394331 0
M  V30 4587 C 440.653 -1.19858 -1.73774 0
M  V30 4588 O 440.001 -0.3252 -2.26174 0
M  V30 4589 C 440.211 -3.4487 -0.535311 0
M  V30 4590 C 441.559 -4.16636 -0.818534 0
M  V30 4591 O 442.583 -3.5076 -0.620146 0
M  V30 4592 O 441.442 -5.33209 -1.19792 0
M  V30 4593 H 438.536 -0.798349 -0.215794 0
M  V30 4594 H 441.082 -1.66646 0.320507 0
M  V30 4595 H 439.854 -3.89145 0.410141 0
M  V30 4596 H 439.477 -3.75759 -1.29964 0
M  V30 4597 N 440.474 -0.00167713 -1.576 0
M  V30 4598 C 441.72 0.683832 -1.90923 0
M  V30 4599 C 442.053 1.7333 -0.875799 0
M  V30 4600 O 441.328 1.94215 0.10525 0
M  V30 4601 C 441.611 1.32543 -3.3482 0
M  V30 4602 C 441.464 0.287387 -4.48881 0
M  V30 4603 C 442.783 2.25114 -3.78169 0
M  V30 4604 H 439.902 0.247125 -0.694333 0
M  V30 4605 H 442.544 -0.0533149 -1.89925 0
M  V30 4606 H 440.694 1.95372 -3.35801 0
M  V30 4607 H 442.366 -0.341346 -4.60035 0
M  V30 4608 H 440.609 -0.39017 -4.32042 0
M  V30 4609 H 441.28 0.775393 -5.46527 0
M  V30 4610 H 443.756 1.723 -3.7875 0
M  V30 4611 H 442.632 2.66971 -4.79602 0
M  V30 4612 H 442.893 3.13092 -3.12131 0
M  V30 4613 N 441.952 1.55251 0.271103 0
M  V30 4614 C 443.198 1.7713 0.999832 0
M  V30 4615 C 443.553 0.56659 1.83868 0
M  V30 4616 O 442.846 -0.44069 1.86463 0
M  V30 4617 C 443.04 3.01879 1.91321 0
M  V30 4618 C 442.869 4.34368 1.16426 0
M  V30 4619 C 441.639 4.97593 0.879169 0
M  V30 4620 C 443.837 5.1131 0.553749 0
M  V30 4621 N 441.819 6.13813 0.103618 0
M  V30 4622 C 443.19 6.19938 -0.0875442 0
M  V30 4623 C 445.245 4.95754 0.461782 0
M  V30 4624 C 443.948 7.14703 -0.811942 0
M  V30 4625 C 445.974 5.90875 -0.249027 0
M  V30 4626 C 445.336 6.98893 -0.879051 0
M  V30 4627 H 441.435 0.700407 0.347784 0
M  V30 4628 H 444.019 1.92744 0.275314 0
M  V30 4629 H 442.19 2.87637 2.60997 0
M  V30 4630 H 443.922 3.12154 2.57569 0
M  V30 4631 H 440.677 4.58538 1.18491 0
M  V30 4632 H 441.101 6.76455 -0.271543 0
M  V30 4633 H 445.743 4.12342 0.934552 0
M  V30 4634 H 443.461 7.97634 -1.29639 0
M  V30 4635 H 447.047 5.80916 -0.320529 0
M  V30 4636 H 445.927 7.71231 -1.42031 0
M  V30 4637 N 443.43 -0.535701 1.48216 0
M  V30 4638 C 444.36 -1.65014 1.65204 0
M  V30 4639 C 445.341 -1.62554 0.501011 0
M  V30 4640 O 446.526 -1.7984 0.732886 0
M  V30 4641 C 443.656 -3.03616 1.68626 0
M  V30 4642 C 442.61 -3.20932 2.83172 0
M  V30 4643 C 441.936 -4.60537 2.71679 0
M  V30 4644 C 443.236 -3.04249 4.24535 0
M  V30 4645 H 444.93 -1.51053 2.58502 0
M  V30 4646 H 442.476 -0.725262 1.24402 0
M  V30 4647 H 444.429 -3.81446 1.79099 0
M  V30 4648 H 443.153 -3.18587 0.719026 0
M  V30 4649 H 441.812 -2.45517 2.72244 0
M  V30 4650 H 441.46 -4.72336 1.72937 0
M  V30 4651 H 441.16 -4.73069 3.48538 0
M  V30 4652 H 442.684 -5.40475 2.84112 0
M  V30 4653 H 444.098 -3.71877 4.36326 0
M  V30 4654 H 442.495 -3.28278 5.02348 0
M  V30 4655 H 443.565 -2.00739 4.41397 0
M  V30 4656 N 444.908 -1.36708 -0.784132 0
M  V30 4657 C 445.841 -1.25827 -1.90375 0
M  V30 4658 C 446.819 -0.141331 -1.61985 0
M  V30 4659 O 448.003 -0.313389 -1.85877 0
M  V30 4660 C 445.13 -0.942621 -3.25319 0
M  V30 4661 C 444.176 -2.07474 -3.72635 0
M  V30 4662 S 445.009 -3.69317 -3.8777 0
M  V30 4663 C 446.165 -3.39876 -5.25581 0
M  V30 4664 H 446.398 -2.20593 -1.99314 0
M  V30 4665 H 443.931 -1.22186 -0.943926 0
M  V30 4666 H 445.889 -0.767321 -4.03265 0
M  V30 4667 H 444.55 -0.0126566 -3.14097 0
M  V30 4668 H 443.743 -1.80858 -4.70432 0
M  V30 4669 H 443.345 -2.20953 -3.01754 0
M  V30 4670 H 445.637 -2.94097 -6.10339 0
M  V30 4671 H 446.58 -4.36956 -5.57203 0
M  V30 4672 H 446.988 -2.75098 -4.92931 0
M  V30 4673 N 446.386 1.0089 -1.21074 0
M  V30 4674 C 447.635 1.74019 -1.01981 0
M  V30 4675 C 447.948 1.90408 0.447665 0
M  V30 4676 O 449.154 2.60707 0.757906 0
M  V30 4677 C 447.61 3.13026 -1.77603 0
M  V30 4678 C 447.218 3.04623 -3.28495 0
M  V30 4679 C 448.962 3.90312 -1.66904 0
M  V30 4680 C 446.869 4.38685 -3.96623 0
M  V30 4681 H 445.799 0.652422 -0.377971 0
M  V30 4682 H 448.45 1.12755 -1.44771 0
M  V30 4683 H 446.832 3.74878 -1.27604 0
M  V30 4684 H 448.006 2.52032 -3.85767 0
M  V30 4685 H 446.321 2.40827 -3.39693 0
M  V30 4686 H 448.918 4.8951 -2.15138 0
M  V30 4687 H 449.261 4.11558 -0.62658 0
M  V30 4688 H 449.794 3.35104 -2.14359 0
M  V30 4689 H 446.533 4.22641 -5.01054 0
M  V30 4690 H 446.053 4.91252 -3.4414 0
M  V30 4691 H 447.732 5.075 -4.01314 0
M  V30 4692 N 447.864 1.01787 1.20321 0
M  V30 4693 C 449.112 0.706538 1.89347 0
M  V30 4694 C 449.433 -0.766289 1.79313 0
M  V30 4695 O 448.703 -1.55126 1.19635 0
M  V30 4696 H 447.283 0.258348 0.700903 0
M  V30 4697 H 449.945 1.28974 1.46122 0
M  V30 4698 H 449.041 0.991066 2.95946 0
M  V30 4699 N 449.342 -1.36122 0.79427 0
M  V30 4700 C 450.292 -2.27373 0.169017 0
M  V30 4701 C 451.276 -1.4719 -0.649913 0
M  V30 4702 O 452.468 -1.69518 -0.50919 0
M  V30 4703 C 449.597 -3.36264 -0.691455 0
M  V30 4704 C 448.683 -4.2388 0.13653 0
M  V30 4705 N 449.074 -4.91519 1.19345 0
M  V30 4706 C 447.372 -4.45921 -0.0838499 0
M  V30 4707 C 448.073 -5.56369 1.6979 0
M  V30 4708 N 447.049 -5.34204 1.00634 0
M  V30 4709 H 450.851 -2.77154 0.977897 0
M  V30 4710 H 448.365 -1.49504 0.634208 0
M  V30 4711 H 450.362 -4.00572 -1.15534 0
M  V30 4712 H 449.022 -2.88037 -1.49883 0
M  V30 4713 H 450.033 -4.9334 1.57594 0
M  V30 4714 H 446.71 -4.08518 -0.861341 0
M  V30 4715 H 448.1 -6.20368 2.58055 0
M  V30 4716 N 450.82 -0.546701 -1.47814 0
M  V30 4717 C 452.06 -0.0209604 -2.04389 0
M  V30 4718 C 452.424 1.29993 -1.413 0
M  V30 4719 O 453.625 1.91273 -1.8886 0
M  V30 4720 C 451.896 0.0812844 -3.57308 0
M  V30 4721 S 453.455 0.55467 -4.3528 0
M  V30 4722 H 450.273 -0.0200865 -0.710716 0
M  V30 4723 H 452.875 -0.731055 -1.81317 0
M  V30 4724 H 451.579 -0.884616 -4.00753 0
M  V30 4725 H 451.11 0.815253 -3.8486 0
M  V30 4726 H 453.125 1.81627 -4.61764 0
M  V30 4727 N 452.299 1.55045 -0.282633 0
M  V30 4728 C 453.547 1.99365 0.331334 0
M  V30 4729 C 453.868 1.1725 1.55812 0
M  V30 4730 O 453.138 0.263871 1.94115 0
M  V30 4731 H 451.718 0.736397 0.125414 0
M  V30 4732 H 454.38 1.90964 -0.389711 0
M  V30 4733 H 453.476 3.0596 0.616036 0
M  V30 4734 N 453.777 0.010035 1.57597 0
M  V30 4735 C 455.025 -0.671371 1.90623 0
M  V30 4736 C 455.346 -1.73753 0.885151 0
M  V30 4737 O 454.616 -1.95752 -0.0760611 0
M  V30 4738 H 453.196 -0.250968 0.703579 0
M  V30 4739 H 455.858 0.0533325 1.94827 0
M  V30 4740 H 454.954 -1.13626 2.90681 0
M  V30 4741 N 455.255 -1.55392 -0.262866 0
M  V30 4742 C 456.185 -1.91978 -1.32917 0
M  V30 4743 C 457.166 -0.7828 -1.51017 0
M  V30 4744 O 458.351 -1.04178 -1.63892 0
M  V30 4745 C 455.481 -2.20055 -2.68687 0
M  V30 4746 C 454.435 -3.35854 -2.65304 0
M  V30 4747 C 453.761 -3.49435 -4.04721 0
M  V30 4748 C 455.061 -4.71977 -2.23685 0
M  V30 4749 H 456.755 -2.81292 -1.02544 0
M  V30 4750 H 454.301 -1.3534 -0.491846 0
M  V30 4751 H 456.254 -2.44237 -3.43404 0
M  V30 4752 H 454.978 -1.27551 -3.00663 0
M  V30 4753 H 453.637 -3.11655 -1.93045 0
M  V30 4754 H 453.285 -2.54379 -4.33936 0
M  V30 4755 H 452.985 -4.27297 -4.0335 0
M  V30 4756 H 454.509 -3.7592 -4.81161 0
M  V30 4757 H 455.923 -4.95637 -2.88127 0
M  V30 4758 H 454.32 -5.52828 -2.33456 0
M  V30 4759 H 455.39 -4.70115 -1.18827 0
M  V30 4760 N 456.733 0.527833 -1.48498 0
M  V30 4761 C 458.149 0.856571 -1.34666 0
M  V30 4762 C 458.349 1.98271 -0.35931 0
M  V30 4763 O 457.405 2.51551 0.218703 0
M  V30 4764 C 458.718 1.22207 -2.74747 0
M  V30 4765 C 460.266 1.33183 -2.83251 0
M  V30 4766 C 460.741 1.73075 -4.24039 0
M  V30 4767 N 462.232 1.80174 -4.26722 0
M  V30 4768 C 462.967 2.1243 -5.32598 0
M  V30 4769 N 462.463 2.43096 -6.4875 0
M  V30 4770 N 464.256 2.13454 -5.19994 0
M  V30 4771 H 456.407 -0.215174 -2.11307 0
M  V30 4772 H 458.67 -0.0336281 -0.947403 0
M  V30 4773 H 458.376 0.468195 -3.4857 0
M  V30 4774 H 458.25 2.17173 -3.08409 0
M  V30 4775 H 460.637 2.07647 -2.09683 0
M  V30 4776 H 460.718 0.363333 -2.53206 0
M  V30 4777 H 460.362 0.991712 -4.98124 0
M  V30 4778 H 460.292 2.70979 -4.51529 0
M  V30 4779 H 462.783 1.58744 -3.42942 0
M  V30 4780 H 463.096 2.6682 -7.25277 0
M  V30 4781 H 461.441 2.40611 -6.52021 0
M  V30 4782 H 464.632 1.88956 -4.28268 0
M  V30 4783 H 464.805 2.38261 -6.02608 0
M  V30 4784 N 458.211 1.37122 0.776871 0
M  V30 4785 C 459.121 1.34651 1.9211 0
M  V30 4786 C 460.137 0.246824 1.7224 0
M  V30 4787 O 461.313 0.48134 1.95563 0
M  V30 4788 C 458.378 1.14748 3.2716 0
M  V30 4789 C 457.439 2.34308 3.5972 0
M  V30 4790 C 456.672 2.15345 4.88326 0
M  V30 4791 O 456.895 1.13507 5.58992 0
M  V30 4792 O 455.829 3.03414 5.1983 0
M  V30 4793 H 459.655 2.31013 1.97146 0
M  V30 4794 H 457.24 1.17799 0.918901 0
M  V30 4795 H 459.122 1.05616 4.0795 0
M  V30 4796 H 457.797 0.214562 3.22988 0
M  V30 4797 H 456.704 2.49011 2.79185 0
M  V30 4798 H 458.037 3.26149 3.68629 0
M  V30 4799 N 459.689 -1.00246 1.21608 0
M  V30 4800 C 460.914 -1.78167 1.06167 0
M  V30 4801 C 461.339 -1.84138 -0.384035 0
M  V30 4802 O 460.697 -1.28683 -1.27712 0
M  V30 4803 C 460.745 -3.19786 1.66642 0
M  V30 4804 O 459.849 -4.02153 0.913613 0
M  V30 4805 H 459.19 -0.549 0.37349 0
M  V30 4806 H 461.72 -1.25994 1.61204 0
M  V30 4807 H 461.73 -3.70451 1.70969 0
M  V30 4808 H 460.405 -3.14754 2.7185 0
M  V30 4809 H 458.982 -3.60711 0.945635 0
M  V30 4810 N 461.167 -1.02423 -1.1978 0
M  V30 4811 C 462.099 -0.559152 -2.22275 0
M  V30 4812 C 463.112 0.36251 -1.58713 0
M  V30 4813 O 464.301 0.159641 -1.77785 0
M  V30 4814 C 461.401 0.205094 -3.38279 0
M  V30 4815 C 460.574 -0.720361 -4.31427 0
M  V30 4816 C 459.633 -0.00234368 -5.262 0
M  V30 4817 O 458.659 -0.627378 -5.65732 0
M  V30 4818 N 459.861 1.26996 -5.66438 0
M  V30 4819 H 462.626 -1.44064 -2.62804 0
M  V30 4820 H 460.187 -0.902692 -1.34399 0
M  V30 4821 H 462.179 0.694868 -3.9869 0
M  V30 4822 H 460.749 0.987947 -2.96578 0
M  V30 4823 H 459.969 -1.39031 -3.68869 0
M  V30 4824 H 461.257 -1.3495 -4.90577 0
M  V30 4825 H 460.655 1.79858 -5.36347 0
M  V30 4826 H 459.212 1.70432 -6.29123 0
M  V30 4827 N 462.645 1.35699 -0.801477 0
M  V30 4828 C 463.608 2.28199 -0.213994 0
M  V30 4829 C 464.608 1.49359 0.595691 0
M  V30 4830 O 465.798 1.69186 0.414921 0
M  V30 4831 C 462.93 3.33587 0.702297 0
M  V30 4832 H 464.123 2.81666 -1.02976 0
M  V30 4833 H 461.676 1.45467 -0.571759 0
M  V30 4834 H 462.411 2.85297 1.54195 0
M  V30 4835 H 462.196 3.91906 0.123484 0
M  V30 4836 H 463.686 4.02638 1.10783 0
M  V30 4837 N 464.123 0.554532 1.47522 0
M  V30 4838 C 465.372 0.0273458 2.01681 0
M  V30 4839 C 465.685 -1.32962 1.43459 0
M  V30 4840 O 466.891 -1.94657 1.89265 0
M  V30 4841 C 465.347 -0.00159057 3.599 0
M  V30 4842 C 464.955 1.35197 4.27113 0
M  V30 4843 C 466.699 -0.476311 4.21819 0
M  V30 4844 C 464.606 1.28229 5.77331 0
M  V30 4845 H 463.536 0.00645269 0.753972 0
M  V30 4846 H 466.187 0.701985 1.69542 0
M  V30 4847 H 464.569 -0.741821 3.8899 0
M  V30 4848 H 465.743 2.1097 4.09668 0
M  V30 4849 H 464.058 1.76441 3.77171 0
M  V30 4850 H 466.655 -0.5468 5.31897 0
M  V30 4851 H 466.998 -1.4877 3.8881 0
M  V30 4852 H 467.531 0.20898 3.97251 0
M  V30 4853 H 464.27 2.26959 6.14955 0
M  V30 4854 H 463.79 0.566314 5.97121 0
M  V30 4855 H 465.469 0.983226 6.39485 0
M  V30 4856 N 465.601 -1.54893 0.290851 0
M  V30 4857 C 466.849 -1.99538 -0.320756 0
M  V30 4858 C 467.17 -1.18075 -1.55188 0
M  V30 4859 O 466.44 -0.274162 -1.93972 0
M  V30 4860 H 465.02 -0.737052 -0.121507 0
M  V30 4861 H 467.682 -1.90755 0.399832 0
M  V30 4862 H 466.778 -3.06282 -0.599802 0
M  V30 4863 N 467.08 -0.0183926 -1.57589 0
M  V30 4864 C 468.357 0.700621 -1.82622 0
M  V30 4865 C 468.737 1.90951 -0.90005 0
M  V30 4866 O 468.085 2.28452 0.0469145 0
M  V30 4867 C 468.295 1.08899 -3.31575 0
M  V30 4868 C 469.643 1.48514 -3.9778 0
M  V30 4869 O 470.667 1.18227 -3.36007 0
M  V30 4870 O 469.526 2.04903 -5.06633 0
M  V30 4871 H 466.62 0.342743 -0.752633 0
M  V30 4872 H 469.166 -0.0452548 -1.6964 0
M  V30 4873 H 467.938 0.228113 -3.90635 0
M  V30 4874 H 467.561 1.89338 -3.49624 0
M  V30 4875 N 468.558 1.5553 0.254621 0
M  V30 4876 C 469.788 1.80784 1.00004 0
M  V30 4877 C 470.196 0.59071 1.79742 0
M  V30 4878 O 469.539 -0.449988 1.78103 0
M  V30 4879 C 469.601 2.99268 1.99196 0
M  V30 4880 C 469.265 4.35595 1.38224 0
M  V30 4881 C 470.262 5.13884 0.788611 0
M  V30 4882 C 467.947 4.82281 1.40393 0
M  V30 4883 C 469.941 6.37004 0.224783 0
M  V30 4884 C 467.628 6.05351 0.836243 0
M  V30 4885 C 468.626 6.82551 0.24769 0
M  V30 4886 O 468.314 8.03297 -0.311249 0
M  V30 4887 H 468.046 0.60565 0.300274 0
M  V30 4888 H 470.6 2.03411 0.285143 0
M  V30 4889 H 468.83 2.72377 2.74496 0
M  V30 4890 H 470.519 3.11682 2.60018 0
M  V30 4891 H 471.285 4.78938 0.764423 0
M  V30 4892 H 467.164 4.22189 1.85142 0
M  V30 4893 H 470.708 6.97203 -0.235235 0
M  V30 4894 H 466.605 6.39776 0.857733 0
M  V30 4895 H 467.373 8.1825 -0.20237 0
M  V30 4896 N 470.036 -0.519951 1.48776 0
M  V30 4897 C 471.282 -1.27711 1.57536 0
M  V30 4898 C 471.615 -1.92547 0.252866 0
M  V30 4899 O 470.89 -1.7979 -0.742021 0
M  V30 4900 C 471.173 -2.35875 2.72094 0
M  V30 4901 C 471.026 -1.75664 4.1408 0
M  V30 4902 C 472.345 -3.37575 2.82367 0
M  V30 4903 H 469.464 -0.462971 0.573434 0
M  V30 4904 H 472.106 -0.578194 1.80989 0
M  V30 4905 H 470.256 -2.95488 2.52228 0
M  V30 4906 H 471.928 -1.20025 4.45412 0
M  V30 4907 H 470.171 -1.06154 4.20611 0
M  V30 4908 H 470.842 -2.54029 4.90075 0
M  V30 4909 H 473.318 -2.87929 3.00393 0
M  V30 4910 H 472.194 -4.1064 3.64233 0
M  V30 4911 H 472.455 -3.98743 1.90936 0
M  V30 4912 N 471.514 -1.37532 -0.769588 0
M  V30 4913 C 472.444 -1.36172 -1.89682 0
M  V30 4914 C 473.425 -0.23001 -1.68538 0
M  V30 4915 O 474.61 -0.43069 -1.89364 0
M  V30 4916 C 471.74 -1.1701 -3.26995 0
M  V30 4917 C 470.694 -2.27216 -3.62708 0
M  V30 4918 C 470.02 -1.93174 -4.98586 0
M  V30 4919 C 471.32 -3.6941 -3.69234 0
M  V30 4920 H 473.014 -2.30499 -1.91078 0
M  V30 4921 H 470.56 -1.10953 -0.917902 0
M  V30 4922 H 472.513 -1.14688 -4.05493 0
M  V30 4923 H 471.237 -0.191395 -3.26039 0
M  V30 4924 H 469.896 -2.28697 -2.86519 0
M  V30 4925 H 469.544 -0.938281 -4.94171 0
M  V30 4926 H 469.244 -2.66973 -5.23449 0
M  V30 4927 H 470.768 -1.92443 -5.79481 0
M  V30 4928 H 472.182 -3.70047 -4.37879 0
M  V30 4929 H 470.579 -4.4228 -4.05597 0
M  V30 4930 H 471.649 -4.0288 -2.69844 0
M  V30 4931 N 472.992 0.995999 -1.22138 0
M  V30 4932 C 473.955 2.06711 -0.990109 0
M  V30 4933 C 474.955 1.60744 0.0422978 0
M  V30 4934 O 476.145 1.73095 -0.195895 0
M  V30 4935 C 473.277 3.37288 -0.49491 0
M  V30 4936 H 474.47 2.28661 -1.94047 0
M  V30 4937 H 472.023 1.16711 -1.03963 0
M  V30 4938 H 472.758 3.21022 0.459948 0
M  V30 4939 H 472.543 3.71986 -1.23971 0
M  V30 4940 H 474.033 4.16103 -0.353253 0
M  V30 4941 N 474.47 1.03057 1.19235 0
M  V30 4942 C 475.42 0.583386 2.2041 0
M  V30 4943 C 476.404 -0.368776 1.56617 0
M  V30 4944 O 477.596 -0.189471 1.75983 0
M  V30 4945 C 474.725 -0.0626534 3.43243 0
M  V30 4946 C 473.811 0.91205 4.14177 0
M  V30 4947 N 474.202 2.07514 4.61272 0
M  V30 4948 C 472.5 0.735859 4.39888 0
M  V30 4949 C 473.201 2.69003 5.15764 0
M  V30 4950 N 472.177 1.96954 5.06666 0
M  V30 4951 H 475.979 1.46988 2.54503 0
M  V30 4952 H 473.493 0.897785 1.35328 0
M  V30 4953 H 475.49 -0.400653 4.1497 0
M  V30 4954 H 474.15 -0.944813 3.1065 0
M  V30 4955 H 475.161 2.45448 4.56043 0
M  V30 4956 H 471.838 -0.0970656 4.17387 0
M  V30 4957 H 473.228 3.67514 5.6248 0
M  V30 4958 N 475.948 -1.35272 0.808662 0
M  V30 4959 C 476.911 -2.28082 0.226093 0
M  V30 4960 C 477.911 -1.49673 -0.587762 0
M  V30 4961 O 479.101 -1.69404 -0.405943 0
M  V30 4962 C 476.233 -3.33955 -0.684596 0
M  V30 4963 H 477.426 -2.81116 1.04469 0
M  V30 4964 H 474.979 -1.45162 0.579466 0
M  V30 4965 H 475.714 -2.86111 -1.5268 0
M  V30 4966 H 475.499 -3.91965 -0.102699 0
M  V30 4967 H 476.989 -4.03219 -1.08646 0
M  V30 4968 N 477.426 -0.562348 -1.47226 0
M  V30 4969 C 478.656 -0.0451619 -2.06551 0
M  V30 4970 C 479.064 1.25626 -1.41473 0
M  V30 4971 O 478.407 1.76563 -0.507061 0
M  V30 4972 C 478.469 0.216068 -3.5885 0
M  V30 4973 C 478.133 -0.996691 -4.45999 0
M  V30 4974 C 479.13 -1.90358 -4.83797 0
M  V30 4975 C 476.815 -1.21281 -4.87438 0
M  V30 4976 C 478.809 -3.01023 -5.6184 0
M  V30 4977 C 476.496 -2.32255 -5.65244 0
M  V30 4978 C 477.494 -3.21956 -6.02356 0
M  V30 4979 O 477.182 -4.31005 -6.78594 0
M  V30 4980 H 476.914 -0.0451646 -0.67449 0
M  V30 4981 H 479.468 -0.776842 -1.90143 0
M  V30 4982 H 477.698 1.00212 -3.7349 0
M  V30 4983 H 479.387 0.679264 -4.00176 0
M  V30 4984 H 480.153 -1.74868 -4.52378 0
M  V30 4985 H 476.032 -0.523767 -4.58015 0
M  V30 4986 H 479.576 -3.71064 -5.90726 0
M  V30 4987 H 475.473 -2.47715 -5.96077 0
M  V30 4988 H 476.241 -4.29118 -6.96994 0
M  V30 4989 N 478.904 1.54736 -0.299062 0
M  V30 4990 C 479.834 2.26409 0.571085 0
M  V30 4991 C 480.815 1.2629 1.13951 0
M  V30 4992 O 482 1.55059 1.16921 0
M  V30 4993 C 479.13 3.00338 1.74396 0
M  V30 4994 C 478.084 4.07588 1.30599 0
M  V30 4995 C 477.41 4.69222 2.56387 0
M  V30 4996 C 478.71 5.20455 0.438645 0
M  V30 4997 H 480.404 2.99388 -0.0266991 0
M  V30 4998 H 477.95 1.43993 -0.0142812 0
M  V30 4999 H 479.903 3.49198 2.35878 0
M  V30 5000 H 478.627 2.24934 2.36796 0
M  V30 5001 H 477.286 3.59575 0.71424 0
M  V30 5002 H 476.934 3.9046 3.17097 0
M  V30 5003 H 476.634 5.41653 2.27784 0
M  V30 5004 H 478.158 5.20844 3.18675 0
M  V30 5005 H 479.572 5.65221 0.959085 0
M  V30 5006 H 477.969 5.99594 0.246466 0
M  V30 5007 H 479.039 4.8192 -0.536738 0
M  V30 5008 N 480.382 0.0267497 1.57577 0
M  V30 5009 C 481.798 -0.32962 1.56159 0
M  V30 5010 C 481.998 -1.73059 1.03213 0
M  V30 5011 O 481.054 -2.43233 0.677804 0
M  V30 5012 C 482.367 -0.18039 3.00158 0
M  V30 5013 C 483.915 -0.253334 3.11973 0
M  V30 5014 C 484.39 -0.132921 4.57807 0
M  V30 5015 N 485.881 -0.189979 4.6281 0
M  V30 5016 C 486.616 -0.120554 5.73273 0
M  V30 5017 N 486.112 -0.000180315 6.928 0
M  V30 5018 N 487.905 -0.174369 5.61829 0
M  V30 5019 H 480.056 0.942896 1.90324 0
M  V30 5020 H 482.319 0.3639 0.875375 0
M  V30 5021 H 482.025 0.784576 3.42837 0
M  V30 5022 H 481.899 -0.951565 3.65 0
M  V30 5023 H 484.286 -1.20876 2.69208 0
M  V30 5024 H 484.367 0.548177 2.49857 0
M  V30 5025 H 484.011 0.819073 5.01252 0
M  V30 5026 H 483.941 -0.953264 5.179 0
M  V30 5027 H 486.432 -0.283257 3.76837 0
M  V30 5028 H 486.745 0.0461666 7.72786 0
M  V30 5029 H 485.09 0.034569 6.94991 0
M  V30 5030 H 488.281 -0.266794 4.67339 0
M  V30 5031 H 488.454 -0.116802 6.47895 0
M  V30 5032 N 481.861 -1.55662 -0.24637 0
M  V30 5033 C 483.138 -1.68272 -0.997198 0
M  V30 5034 C 483.518 -0.566785 -2.03349 0
M  V30 5035 O 482.866 0.429688 -2.24424 0
M  V30 5036 C 483.076 -3.08594 -1.63006 0
M  V30 5037 C 484.424 -3.6721 -2.13171 0
M  V30 5038 O 485.448 -3.11397 -1.72946 0
M  V30 5039 O 484.307 -4.65054 -2.87031 0
M  V30 5040 H 481.401 -0.684429 -0.464205 0
M  V30 5041 H 483.947 -1.67993 -0.240114 0
M  V30 5042 H 482.719 -3.81264 -0.880527 0
M  V30 5043 H 482.342 -3.12886 -2.45333 0
M  V30 5044 N 483.339 0.512053 -1.4905 0
M  V30 5045 C 484.616 1.27337 -1.48474 0
M  V30 5046 C 484.996 2.1009 -0.206301 0
M  V30 5047 O 484.344 2.136 0.811609 0
M  V30 5048 C 484.554 2.13954 -2.75726 0
M  V30 5049 C 485.902 2.73507 -3.24776 0
M  V30 5050 O 486.926 2.24229 -2.76767 0
M  V30 5051 O 485.785 3.63186 -4.08361 0
M  V30 5052 H 482.879 0.575652 -0.593762 0
M  V30 5053 H 485.425 0.527232 -1.61302 0
M  V30 5054 H 484.197 1.52709 -3.60272 0
M  V30 5055 H 483.82 2.95782 -2.65705 0
M  V30 5056 N 484.817 1.37938 0.762283 0
M  V30 5057 C 485.767 1.30976 1.86626 0
M  V30 5058 C 486.751 0.195714 1.59705 0
M  V30 5059 O 487.943 0.430937 1.71674 0
M  V30 5060 C 485.072 1.12847 3.24223 0
M  V30 5061 C 484.158 2.28836 3.57064 0
M  V30 5062 N 484.549 3.54256 3.61022 0
M  V30 5063 C 482.847 2.21198 3.87282 0
M  V30 5064 C 483.548 4.30798 3.90881 0
M  V30 5065 N 482.524 3.60049 4.07266 0
M  V30 5066 H 486.326 2.25946 1.87951 0
M  V30 5067 H 483.84 1.31046 0.959206 0
M  V30 5068 H 485.837 1.05943 4.03214 0
M  V30 5069 H 484.497 0.188024 3.24155 0
M  V30 5070 H 485.508 3.8804 3.42995 0
M  V30 5071 H 482.185 1.35264 3.94981 0
M  V30 5072 H 483.575 5.39386 4.00639 0
M  V30 5073 N 486.295 -0.989507 1.22664 0
M  V30 5074 C 487.541 -1.7321 1.05481 0
M  V30 5075 C 487.874 -1.89852 -0.408635 0
M  V30 5076 O 487.149 -1.44416 -1.30285 0
M  V30 5077 C 487.432 -3.1357 1.77047 0
M  V30 5078 C 487.285 -3.04555 3.31008 0
M  V30 5079 C 488.604 -4.12812 1.5256 0
M  V30 5080 H 485.723 -0.628697 0.384589 0
M  V30 5081 H 488.365 -1.15258 1.51049 0
M  V30 5082 H 486.515 -3.63046 1.3831 0
M  V30 5083 H 488.187 -2.62674 3.7921 0
M  V30 5084 H 486.43 -2.41278 3.6051 0
M  V30 5085 H 487.101 -4.03894 3.76263 0
M  V30 5086 H 489.577 -3.72106 1.86215 0
M  V30 5087 H 488.453 -5.09132 2.05124 0
M  V30 5088 H 488.714 -4.39711 0.458936 0
M  V30 5089 N 487.773 -1.03688 -1.18687 0
M  V30 5090 C 488.703 -0.645407 -2.24403 0
M  V30 5091 C 489.684 0.349511 -1.66471 0
M  V30 5092 O 490.869 0.230453 -1.92828 0
M  V30 5093 C 487.999 -0.00365337 -3.473 0
M  V30 5094 C 486.953 -0.921705 -4.17958 0
M  V30 5095 C 486.279 -0.144629 -5.34504 0
M  V30 5096 C 487.579 -2.23909 -4.71871 0
M  V30 5097 H 489.273 -1.52917 -2.57404 0
M  V30 5098 H 486.819 -0.736711 -1.23728 0
M  V30 5099 H 488.772 0.281908 -4.20456 0
M  V30 5100 H 487.496 0.914963 -3.13522 0
M  V30 5101 H 486.155 -1.19159 -3.46694 0
M  V30 5102 H 485.803 0.776274 -4.96974 0
M  V30 5103 H 485.503 -0.756206 -5.82714 0
M  V30 5104 H 487.027 0.134004 -6.10453 0
M  V30 5105 H 488.441 -2.0145 -5.36741 0
M  V30 5106 H 486.838 -2.8033 -5.30599 0
M  V30 5107 H 487.908 -2.88822 -3.895 0
M  V30 5108 N 489.251 1.34841 -0.815825 0
M  V30 5109 C 490.528 1.92908 -0.323416 0
M  V30 5110 C 490.908 1.74479 1.18828 0
M  V30 5111 O 490.256 1.11928 1.99209 0
M  V30 5112 C 490.466 3.40957 -0.744952 0
M  V30 5113 C 491.814 4.18107 -0.739716 0
M  V30 5114 O 492.838 3.49511 -0.68708 0
M  V30 5115 O 491.697 5.40517 -0.806456 0
M  V30 5116 H 488.791 0.822436 -0.0867646 0
M  V30 5117 H 491.337 1.4386 -0.90014 0
M  V30 5118 H 490.109 3.4814 -1.78646 0
M  V30 5119 H 489.732 3.97341 -0.143535 0
M  V30 5120 N 490.729 0.570148 1.46925 0
M  V30 5121 C 491.692 -0.159933 2.28641 0
M  V30 5122 C 492.692 -0.830638 1.37685 0
M  V30 5123 O 493.882 -0.684516 1.60187 0
M  V30 5124 C 491.014 -1.2354 3.17727 0
M  V30 5125 H 492.207 0.558035 2.94662 0
M  V30 5126 H 489.76 0.327603 1.52828 0
M  V30 5127 H 490.495 -1.98535 2.56426 0
M  V30 5128 H 490.28 -0.759125 3.84681 0
M  V30 5129 H 491.77 -1.74782 3.79264 0
M  V30 5130 N 492.207 -1.54576 0.307264 0
M  V30 5131 C 493.453 -2.0056 -0.300612 0
M  V30 5132 C 493.786 -1.1953 -1.53057 0
M  V30 5133 O 493.061 -0.27337 -1.92569 0
M  V30 5134 C 493.344 -3.54167 -0.650987 0
M  V30 5135 C 493.197 -4.45933 0.588539 0
M  V30 5136 C 494.516 -4.14645 -1.47506 0
M  V30 5137 H 491.635 -0.729075 -0.107788 0
M  V30 5138 H 494.277 -1.85286 0.420606 0
M  V30 5139 H 492.427 -3.67313 -1.26544 0
M  V30 5140 H 494.099 -4.44683 1.22697 0
M  V30 5141 H 492.342 -4.16274 1.22058 0
M  V30 5142 H 493.013 -5.51189 0.299153 0
M  V30 5143 H 495.489 -4.04973 -0.955821 0
M  V30 5144 H 494.365 -5.22269 -1.68899 0
M  V30 5145 H 494.626 -3.66921 -2.4662 0
M  V30 5146 N 493.685 -0.035106 -1.57561 0
M  V30 5147 C 494.615 0.942993 -2.13612 0
M  V30 5148 C 495.596 1.33531 -1.05373 0
M  V30 5149 O 496.781 1.41287 -1.33235 0
M  V30 5150 C 493.911 2.22332 -2.66807 0
M  V30 5151 C 492.865 1.97156 -3.79886 0
M  V30 5152 C 492.191 3.31506 -4.19533 0
M  V30 5153 C 493.491 1.30596 -5.05709 0
M  V30 5154 H 495.185 0.476179 -2.95589 0
M  V30 5155 H 492.731 0.227602 -1.4219 0
M  V30 5156 H 494.684 2.91142 -3.04654 0
M  V30 5157 H 493.408 2.7119 -1.81999 0
M  V30 5158 H 492.067 1.30763 -3.42486 0
M  V30 5159 H 491.715 3.78134 -3.31698 0
M  V30 5160 H 491.415 3.15465 -4.95738 0
M  V30 5161 H 492.939 4.01574 -4.59968 0
M  V30 5162 H 494.353 1.89416 -5.41105 0
M  V30 5163 H 492.75 1.24934 -5.86951 0
M  V30 5164 H 493.82 0.279742 -4.84092 0
M  V30 5165 N 495.163 1.55791 0.238111 0
M  V30 5166 C 496.574 1.68383 0.806472 0
M  V30 5167 C 496.925 0.634157 1.85669 0
M  V30 5168 O 496.05 -0.217913 2.153 0
M  V30 5169 C 496.645 3.05268 1.46959 0
M  V30 5170 C 495.204 3.1977 1.98555 0
M  V30 5171 C 494.351 2.64279 0.839763 0
M  V30 5172 H 497.302 1.58694 0.0137535 0
M  V30 5173 H 497.323 3.00203 2.33792 0
M  V30 5174 H 496.835 3.81643 0.704993 0
M  V30 5175 H 494.936 2.48234 2.77868 0
M  V30 5176 H 495.049 4.26788 2.17689 0
M  V30 5177 H 493.413 2.22329 1.24265 0
M  V30 5178 H 494.196 3.43187 0.0881032 0
M  V30 5179 N 496.642 -0.504142 1.49319 0
M  V30 5180 C 498.053 -1.08572 1.51885 0
M  V30 5181 C 498.404 -1.93842 0.303255 0
M  V30 5182 O 497.529 -2.0828 -0.58724 0
M  V30 5183 C 498.124 -1.97574 2.75227 0
M  V30 5184 C 496.683 -2.509 2.80581 0
M  V30 5185 C 495.83 -1.28447 2.45757 0
M  V30 5186 H 498.781 -0.288194 1.56061 0
M  V30 5187 H 498.802 -2.82219 2.55211 0
M  V30 5188 H 498.314 -1.35486 3.63683 0
M  V30 5189 H 496.415 -3.16636 1.96398 0
M  V30 5190 H 496.528 -2.88268 3.82673 0
M  V30 5191 H 494.892 -1.60868 1.97468 0
M  V30 5192 H 495.675 -0.68072 3.36483 0
M  V30 5193 N 498.12 -1.38341 -0.754957 0
M  V30 5194 C 499.397 -1.24995 -1.50451 0
M  V30 5195 C 499.777 0.149244 -2.10572 0
M  V30 5196 O 499.125 1.15861 -1.96948 0
M  V30 5197 C 499.335 -2.35904 -2.57197 0
M  V30 5198 C 500.683 -2.74262 -3.24138 0
M  V30 5199 O 501.707 -2.35205 -2.67501 0
M  V30 5200 O 500.566 -3.4161 -4.26574 0
M  V30 5201 H 497.66 -0.48872 -0.667144 0
M  V30 5202 H 500.206 -1.50165 -0.790486 0
M  V30 5203 H 498.978 -3.2953 -2.11011 0
M  V30 5204 H 498.601 -2.12291 -3.36182 0
M  V30 5205 N 499.598 0.982988 -1.23187 0
M  V30 5206 C 500.847 1.71817 -1.05649 0
M  V30 5207 C 501.16 1.91315 0.407176 0
M  V30 5208 O 502.366 2.62256 0.702436 0
M  V30 5209 C 500.822 3.09188 -1.84203 0
M  V30 5210 C 500.43 2.97586 -3.34882 0
M  V30 5211 C 502.174 3.86684 -1.75146 0
M  V30 5212 C 500.081 4.30173 -4.05839 0
M  V30 5213 H 499.011 0.644258 -0.391724 0
M  V30 5214 H 501.662 1.09659 -1.4713 0
M  V30 5215 H 500.044 3.72087 -1.35527 0
M  V30 5216 H 501.218 2.43793 -3.91026 0
M  V30 5217 H 499.533 2.33567 -3.44725 0
M  V30 5218 H 502.13 4.84836 -2.25473 0
M  V30 5219 H 502.473 4.10136 -0.713737 0
M  V30 5220 H 503.006 3.30482 -2.21419 0
M  V30 5221 H 499.745 4.11918 -5.09906 0
M  V30 5222 H 499.265 4.83841 -3.54482 0
M  V30 5223 H 500.944 4.98873 -4.11989 0
M  V30 5224 N 501.076 1.04316 1.18135 0
M  V30 5225 C 502.487 0.775505 1.69832 0
M  V30 5226 C 502.838 -0.703348 1.8316 0
M  V30 5227 O 501.963 -1.54729 1.51287 0
M  V30 5228 C 502.558 1.40112 3.0847 0
M  V30 5229 C 501.117 1.18172 3.57368 0
M  V30 5230 C 500.264 1.49022 2.33854 0
M  V30 5231 H 503.215 1.20925 1.02775 0
M  V30 5232 H 503.236 0.805672 3.71873 0
M  V30 5233 H 502.748 2.47744 2.98738 0
M  V30 5234 H 500.849 0.124258 3.72393 0
M  V30 5235 H 500.962 1.8805 4.40652 0
M  V30 5236 H 499.326 0.909995 2.37889 0
M  V30 5237 H 500.109 2.57768 2.26738 0
M  V30 5238 N 502.554 -1.34406 0.822964 0
M  V30 5239 C 503.803 -1.97542 0.407458 0
M  V30 5240 C 504.116 -1.65973 -1.035 0
M  V30 5241 O 505.322 -2.22598 -1.55442 0
M  V30 5242 C 503.778 -3.53463 0.677623 0
M  V30 5243 C 503.386 -3.93925 2.1337 0
M  V30 5244 C 505.13 -4.23229 0.328284 0
M  V30 5245 C 503.037 -5.42759 2.34876 0
M  V30 5246 H 501.967 -0.739207 0.148623 0
M  V30 5247 H 504.618 -1.53248 1.00932 0
M  V30 5248 H 503 -3.96 0.00558965 0
M  V30 5249 H 504.174 -3.62494 2.8449 0
M  V30 5250 H 502.489 -3.37097 2.44448 0
M  V30 5251 H 505.086 -5.32659 0.466794 0
M  V30 5252 H 505.429 -4.09899 -0.727224 0
M  V30 5253 H 505.962 -3.86169 0.954896 0
M  V30 5254 H 502.701 -5.61075 3.38932 0
M  V30 5255 H 502.221 -5.75704 1.68299 0
M  V30 5256 H 503.9 -6.0944 2.17236 0
M  V30 5257 N 504.032 -0.577932 -1.46621 0
M  V30 5258 C 505.443 -0.150071 -1.86096 0
M  V30 5259 C 505.794 1.28563 -1.48209 0
M  V30 5260 O 504.919 1.97036 -0.894754 0
M  V30 5261 C 505.514 -0.265576 -3.37758 0
M  V30 5262 C 504.073 0.10738 -3.76247 0
M  V30 5263 C 503.22 -0.603711 -2.70649 0
M  V30 5264 H 506.171 -0.786438 -1.37844 0
M  V30 5265 H 506.192 0.510352 -3.77062 0
M  V30 5266 H 505.704 -1.3106 -3.65301 0
M  V30 5267 H 503.805 1.15272 -3.54321 0
M  V30 5268 H 503.918 -0.26561 -4.78363 0
M  V30 5269 H 502.282 -0.0444884 -2.54661 0
M  V30 5270 H 503.065 -1.65029 -3.01032 0
M  V30 5271 N 505.51 1.54411 -0.315457 0
M  V30 5272 C 506.735 2.05299 0.294496 0
M  V30 5273 C 507.16 1.19052 1.4563 0
M  V30 5274 O 506.518 0.197804 1.80218 0
M  V30 5275 C 506.566 3.5345 0.714549 0
M  V30 5276 O 505.67 3.70175 1.81781 0
M  V30 5277 H 505.011 0.661743 0.0547019 0
M  V30 5278 H 507.541 1.99327 -0.461508 0
M  V30 5279 H 507.551 3.9557 0.999426 0
M  V30 5280 H 506.226 4.1568 -0.135244 0
M  V30 5281 H 504.803 3.3996 1.53236 0
M  V30 5282 N 506.988 0.0434614 1.5754 0
M  V30 5283 C 508.237 -0.631454 1.91561 0
M  V30 5284 C 508.55 -1.72457 0.92292 0
M  V30 5285 O 509.756 -2.45712 1.15489 0
M  V30 5286 C 508.212 -1.17447 3.40197 0
M  V30 5287 C 507.82 -0.113867 4.47855 0
M  V30 5288 C 509.564 -1.82507 3.83264 0
M  V30 5289 C 507.471 -0.669326 5.876 0
M  V30 5290 H 506.401 -0.239629 0.714908 0
M  V30 5291 H 509.052 0.111097 1.83163 0
M  V30 5292 H 507.434 -1.96909 3.43574 0
M  V30 5293 H 508.608 0.659348 4.56058 0
M  V30 5294 H 506.923 0.438821 4.14081 0
M  V30 5295 H 509.52 -2.25047 4.85034 0
M  V30 5296 H 509.863 -2.67365 3.19095 0
M  V30 5297 H 510.396 -1.09712 3.82372 0
M  V30 5298 H 507.135 0.141449 6.55347 0
M  V30 5299 H 506.655 -1.4107 5.82974 0
M  V30 5300 H 508.334 -1.15463 6.36614 0
M  V30 5301 N 508.466 -1.55915 -0.229846 0
M  V30 5302 C 509.429 -1.90914 -1.26824 0
M  V30 5303 C 510.429 -0.786999 -1.40225 0
M  V30 5304 O 511.619 -1.05484 -1.38632 0
M  V30 5305 C 508.751 -2.15264 -2.64337 0
M  V30 5306 H 509.944 -2.8378 -0.969998 0
M  V30 5307 H 507.497 -1.49069 -0.4699 0
M  V30 5308 H 508.232 -1.24923 -2.99274 0
M  V30 5309 H 508.017 -2.97005 -2.55989 0
M  V30 5310 H 509.507 -2.43467 -3.39284 0
M  V30 5311 N 509.944 0.496216 -1.49584 0
M  V30 5312 C 510.854 1.62352 -1.69349 0
M  V30 5313 C 511.87 1.64184 -0.576147 0
M  V30 5314 O 513.046 1.82517 -0.85144 0
M  V30 5315 C 510.111 2.98698 -1.76013 0
M  V30 5316 C 509.172 3.07454 -2.99617 0
M  V30 5317 C 508.405 4.37296 -3.05953 0
M  V30 5318 O 508.628 5.2637 -2.19752 0
M  V30 5319 O 507.562 4.51124 -3.9846 0
M  V30 5320 H 511.388 1.48606 -2.64859 0
M  V30 5321 H 508.973 0.673022 -1.33382 0
M  V30 5322 H 510.855 3.79725 -1.82721 0
M  V30 5323 H 509.53 3.12696 -0.836828 0
M  V30 5324 H 508.437 2.25597 -2.98424 0
M  V30 5325 H 509.77 2.98385 -3.91443 0
M  V30 5326 N 511.423 1.38739 0.74761 0
M  V30 5327 C 512.669 1.35475 1.50912 0
M  V30 5328 C 513.002 -0.0533093 1.94127 0
M  V30 5329 O 512.277 -1.01572 1.65871 0
M  V30 5330 C 512.56 2.31582 2.75757 0
M  V30 5331 C 512.413 3.81274 2.38642 0
M  V30 5332 C 513.732 2.25722 3.77806 0
M  V30 5333 H 510.851 0.493427 0.547447 0
M  V30 5334 H 513.493 1.69634 0.855823 0
M  V30 5335 H 511.643 2.02582 3.31501 0
M  V30 5336 H 513.315 4.20972 1.88626 0
M  V30 5337 H 511.558 3.98664 1.71025 0
M  V30 5338 H 512.229 4.4399 3.27989 0
M  V30 5339 H 514.705 2.51336 3.31616 0
M  V30 5340 H 513.581 2.95069 4.62845 0
M  V30 5341 H 513.842 1.25803 4.23823 0
M  V30 5342 N 512.901 -0.976442 1.23707 0
M  V30 5343 C 513.833 -2.07212 0.979574 0
M  V30 5344 C 514.846 -1.6273 -0.0478528 0
M  V30 5345 O 516.035 -1.77506 0.18815 0
M  V30 5346 C 513.135 -3.35835 0.45479 0
M  V30 5347 C 512.308 -4.09268 1.54331 0
M  V30 5348 C 511.367 -5.16166 1.02271 0
M  V30 5349 O 510.393 -5.42827 1.71254 0
M  V30 5350 N 511.595 -5.80313 -0.147419 0
M  V30 5351 H 514.36 -2.29878 1.92292 0
M  V30 5352 H 511.921 -1.14343 1.14618 0
M  V30 5353 H 513.913 -4.04597 0.0914631 0
M  V30 5354 H 512.483 -3.10106 -0.394068 0
M  V30 5355 H 511.703 -3.34906 2.07923 0
M  V30 5356 H 512.991 -4.55095 2.27522 0
M  V30 5357 H 512.389 -5.61043 -0.724353 0
M  V30 5358 H 510.946 -6.50231 -0.451972 0
M  V30 5359 N 514.379 -1.04941 -1.1758 0
M  V30 5360 C 515.795 -0.770282 -1.39781 0
M  V30 5361 C 515.995 0.636417 -1.91186 0
M  V30 5362 O 515.051 1.39923 -2.10185 0
M  V30 5363 C 516.364 -1.82376 -2.3908 0
M  V30 5364 C 517.912 -1.84569 -2.52791 0
M  V30 5365 C 518.387 -2.88933 -3.55361 0
M  V30 5366 N 519.878 -2.8788 -3.62877 0
M  V30 5367 C 520.613 -3.65282 -4.41992 0
M  V30 5368 N 520.109 -4.52461 -5.24643 0
M  V30 5369 N 521.902 -3.53732 -4.36841 0
M  V30 5370 H 514.053 -1.95705 -0.825438 0
M  V30 5371 H 516.316 -0.847284 -0.425222 0
M  V30 5372 H 516.022 -2.83323 -2.08376 0
M  V30 5373 H 515.896 -1.66327 -3.38549 0
M  V30 5374 H 518.283 -0.842879 -2.82807 0
M  V30 5375 H 518.364 -2.04696 -1.53406 0
M  V30 5376 H 518.008 -3.89398 -3.26085 0
M  V30 5377 H 517.938 -2.66059 -4.54445 0
M  V30 5378 H 520.429 -2.24666 -3.03864 0
M  V30 5379 H 520.742 -5.08211 -5.82187 0
M  V30 5380 H 519.087 -4.56524 -5.24033 0
M  V30 5381 H 522.278 -2.85021 -3.71323 0
M  V30 5382 H 522.451 -4.14302 -4.98255 0
M  V30 5383 N 515.857 1.33968 -0.830081 0
M  V30 5384 C 516.82 2.27694 -0.26235 0
M  V30 5385 C 517.82 1.50589 0.563876 0
M  V30 5386 O 519.01 1.70028 0.378941 0
M  V30 5387 C 516.142 3.35002 0.63138 0
M  V30 5388 H 517.335 2.79419 -1.08928 0
M  V30 5389 H 514.888 1.44221 -0.602486 0
M  V30 5390 H 515.623 2.88504 1.48109 0
M  V30 5391 H 515.408 3.92079 0.0403276 0
M  V30 5392 H 516.898 4.04897 1.02217 0
M  V30 5393 N 517.335 0.585699 1.46312 0
M  V30 5394 C 518.265 -0.133556 2.33118 0
M  V30 5395 C 519.246 -0.880707 1.45525 0
M  V30 5396 O 520.431 -0.855579 1.74337 0
M  V30 5397 C 517.561 -1.14585 3.27853 0
M  V30 5398 C 516.515 -0.513341 4.2491 0
M  V30 5399 C 515.841 -1.63231 5.09175 0
M  V30 5400 C 517.141 0.551413 5.19381 0
M  V30 5401 H 518.835 0.59121 2.93505 0
M  V30 5402 H 516.381 0.285761 1.41136 0
M  V30 5403 H 518.334 -1.65741 3.87438 0
M  V30 5404 H 517.058 -1.90093 2.65579 0
M  V30 5405 H 515.717 -0.0228349 3.66593 0
M  V30 5406 H 515.365 -2.37713 4.43285 0
M  V30 5407 H 515.065 -1.21473 5.74907 0
M  V30 5408 H 516.589 -2.14658 5.71624 0
M  V30 5409 H 518.003 0.124804 5.73164 0
M  V30 5410 H 516.4 0.889486 5.93471 0
M  V30 5411 H 517.47 1.43655 4.63132 0
M  V30 5412 N 518.813 -1.54241 0.323641 0
M  V30 5413 C 520.043 -2.04687 -0.280464 0
M  V30 5414 C 520.451 -1.19939 -1.46326 0
M  V30 5415 O 519.794 -0.222872 -1.82343 0
M  V30 5416 C 519.856 -3.50978 -0.778123 0
M  V30 5417 C 519.52 -4.56127 0.282371 0
M  V30 5418 C 520.517 -5.07726 1.11847 0
M  V30 5419 C 518.202 -5.00451 0.430582 0
M  V30 5420 C 520.196 -6.02212 2.08851 0
M  V30 5421 C 517.883 -5.94752 1.40404 0
M  V30 5422 C 518.881 -6.45519 2.23147 0
M  V30 5423 O 518.569 -7.37968 3.1884 0
M  V30 5424 H 518.301 -0.673192 -0.0615473 0
M  V30 5425 H 520.855 -1.99999 0.467921 0
M  V30 5426 H 519.085 -3.53064 -1.57742 0
M  V30 5427 H 520.774 -3.84499 -1.30058 0
M  V30 5428 H 521.54 -4.74261 1.01496 0
M  V30 5429 H 517.419 -4.6055 -0.203569 0
M  V30 5430 H 520.963 -6.41761 2.73474 0
M  V30 5431 H 516.86 -6.27633 1.5082 0
M  V30 5432 H 517.628 -7.55841 3.14079 0
M  V30 5433 N 520.291 -0.0518155 -1.57515 0
M  V30 5434 C 521.568 0.661727 -1.84067 0
M  V30 5435 C 521.948 1.88999 -0.940351 0
M  V30 5436 O 521.296 2.285 -0.00155404 0
M  V30 5437 C 521.506 1.01841 -3.3381 0
M  V30 5438 C 522.854 1.40043 -4.00841 0
M  V30 5439 O 523.878 1.11073 -3.38439 0
M  V30 5440 O 522.737 1.94111 -5.10865 0
M  V30 5441 H 519.831 0.326702 -0.759733 0
M  V30 5442 H 522.377 -0.0812277 -1.69505 0
M  V30 5443 H 521.149 0.145202 -3.91031 0
M  V30 5444 H 520.772 1.81879 -3.53562 0
M  V30 5445 N 521.769 1.56035 0.221574 0
M  V30 5446 C 522.732 1.91584 1.2581 0
M  V30 5447 C 523.732 0.794425 1.39805 0
M  V30 5448 O 524.922 1.06217 1.38071 0
M  V30 5449 C 522.054 2.16663 2.63192 0
M  V30 5450 H 523.247 2.8429 0.954935 0
M  V30 5451 H 520.8 1.49316 0.461988 0
M  V30 5452 H 521.535 1.26508 2.98607 0
M  V30 5453 H 521.32 2.98358 2.5441 0
M  V30 5454 H 522.81 2.45262 3.37988 0
M  V30 5455 N 523.247 -0.488276 1.49845 0
M  V30 5456 C 524.475 -1.26527 1.63702 0
M  V30 5457 C 524.89 -1.8618 0.313447 0
M  V30 5458 O 524.247 -1.68432 -0.702624 0
M  V30 5459 C 524.298 -2.3864 2.71538 0
M  V30 5460 O 524.019 -1.81437 3.98763 0
M  V30 5461 C 525.52 -3.29805 2.96215 0
M  V30 5462 H 522.74 -0.383295 0.55075 0
M  V30 5463 H 525.284 -0.584779 1.95961 0
M  V30 5464 H 523.439 -3.02496 2.42023 0
M  V30 5465 H 523.853 -2.55135 4.58265 0
M  V30 5466 H 525.327 -4.04722 3.75372 0
M  V30 5467 H 525.804 -3.87563 2.06619 0
M  V30 5468 H 526.41 -2.71703 3.27196 0
M  V30 5469 N 524.725 -1.39134 -0.740242 0
M  V30 5470 C 525.672 -1.37434 -1.8542 0
M  V30 5471 C 526.642 -0.234822 -1.64432 0
M  V30 5472 O 527.827 -0.429125 -1.85912 0
M  V30 5473 C 524.967 -1.21844 -3.22875 0
M  V30 5474 C 524.08 -2.45296 -3.55603 0
M  V30 5475 C 523.215 -2.22334 -4.82432 0
M  V30 5476 C 522.254 -3.41488 -5.07988 0
M  V30 5477 N 521.391 -3.17877 -6.26018 0
M  V30 5478 H 526.231 -2.3266 -1.86207 0
M  V30 5479 H 523.768 -1.15578 -0.909946 0
M  V30 5480 H 525.726 -1.10818 -4.02213 0
M  V30 5481 H 524.356 -0.3025 -3.21379 0
M  V30 5482 H 523.408 -2.66945 -2.71006 0
M  V30 5483 H 524.72 -3.34063 -3.7041 0
M  V30 5484 H 523.874 -2.0852 -5.69741 0
M  V30 5485 H 522.613 -1.30954 -4.6979 0
M  V30 5486 H 521.618 -3.55807 -4.19144 0
M  V30 5487 H 522.843 -4.33763 -5.22519 0
M  V30 5488 H 520.789 -2.29156 -6.14673 0
M  V30 5489 H 520.706 -4.00198 -6.41387 0
M  V30 5490 H 521.974 -3.07746 -7.16179 0
M  V30 5491 N 526.204 0.969867 -1.24223 0
M  V30 5492 C 527.134 2.08191 -1.05729 0
M  V30 5493 C 528.115 1.70075 0.0290765 0
M  V30 5494 O 529.3 1.93712 -0.137583 0
M  V30 5495 C 526.43 3.40991 -0.658995 0
M  V30 5496 C 525.384 3.93054 -1.69389 0
M  V30 5497 C 524.71 5.22171 -1.15072 0
M  V30 5498 C 526.01 4.21137 -3.08935 0
M  V30 5499 H 527.704 2.23921 -1.98746 0
M  V30 5500 H 525.25 1.07602 -0.956967 0
M  V30 5501 H 527.203 4.18221 -0.51662 0
M  V30 5502 H 525.927 3.25155 0.30686 0
M  V30 5503 H 524.586 3.17977 -1.82444 0
M  V30 5504 H 524.234 5.02694 -0.175539 0
M  V30 5505 H 523.934 5.57973 -1.84229 0
M  V30 5506 H 525.458 6.02013 -1.02042 0
M  V30 5507 H 526.872 4.8908 -2.99121 0
M  V30 5508 H 525.269 4.68163 -3.75425 0
M  V30 5509 H 526.339 3.27996 -3.57137 0
M  V30 5510 N 527.682 1.05563 1.17022 0
M  V30 5511 C 528.928 0.769074 1.87652 0
M  V30 5512 C 529.261 -0.702326 1.81055 0
M  V30 5513 O 528.536 -1.5139 1.22112 0
M  V30 5514 C 528.819 1.25492 3.37526 0
M  V30 5515 C 528.672 2.78953 3.52853 0
M  V30 5516 C 529.991 0.856919 4.31677 0
M  V30 5517 H 527.11 0.280854 0.681388 0
M  V30 5518 H 529.752 1.31027 1.37593 0
M  V30 5519 H 527.902 0.794516 3.80289 0
M  V30 5520 H 529.574 3.33146 3.19079 0
M  V30 5521 H 527.817 3.18046 2.95007 0
M  V30 5522 H 528.488 3.08011 4.58076 0
M  V30 5523 H 530.964 1.25334 3.96775 0
M  V30 5524 H 529.84 1.22443 5.35069 0
M  V30 5525 H 530.101 -0.238787 4.41455 0
M  V30 5526 N 529.16 -1.33526 0.837174 0
M  V30 5527 C 530.385 -2.0258 0.444545 0
M  V30 5528 C 530.81 -1.6258 -0.946006 0
M  V30 5529 O 530.168 -0.817548 -1.6182 0
M  V30 5530 C 530.216 -3.5605 0.571006 0
M  V30 5531 O 529.32 -4.10422 -0.403431 0
M  V30 5532 H 528.661 -0.638866 0.180958 0
M  V30 5533 H 531.191 -1.70462 1.13154 0
M  V30 5534 H 531.201 -4.05488 0.452024 0
M  V30 5535 H 529.876 -3.84509 1.58512 0
M  V30 5536 H 528.453 -3.72113 -0.242147 0
M  V30 5537 N 530.638 -0.59345 -1.46 0
M  V30 5538 C 531.886 -0.082988 -2.0193 0
M  V30 5539 C 532.207 1.28569 -1.46612 0
M  V30 5540 O 531.477 1.84629 -0.654909 0
M  V30 5541 H 530.057 -0.0276882 -0.746487 0
M  V30 5542 H 532.719 -0.771657 -1.78973 0
M  V30 5543 H 531.815 -0.022079 -3.12092 0
M  V30 5544 N 532.116 1.54067 -0.331816 0
M  V30 5545 C 533.532 1.59587 0.0205388 0
M  V30 5546 C 533.732 1.34813 1.49759 0
M  V30 5547 O 532.788 1.13661 2.25471 0
M  V30 5548 C 534.101 2.97959 -0.405103 0
M  V30 5549 C 535.649 3.10964 -0.356454 0
M  V30 5550 C 536.124 4.51694 -0.757384 0
M  V30 5551 N 537.615 4.57709 -0.71111 0
M  V30 5552 C 538.35 5.64729 -0.993427 0
M  V30 5553 N 537.846 6.79652 -1.3433 0
M  V30 5554 N 539.639 5.54546 -0.918442 0
M  V30 5555 H 531.79 1.68426 -1.29407 0
M  V30 5556 H 534.053 0.78819 -0.526745 0
M  V30 5557 H 533.759 3.21115 -1.43451 0
M  V30 5558 H 533.633 3.76524 0.225692 0
M  V30 5559 H 536.02 2.87538 0.663763 0
M  V30 5560 H 536.101 2.34484 -1.02229 0
M  V30 5561 H 535.745 4.75853 -1.77555 0
M  V30 5562 H 535.675 5.26555 -0.0691444 0
M  V30 5563 H 538.166 3.75176 -0.452883 0
M  V30 5564 H 538.479 7.57221 -1.54388 0
M  V30 5565 H 536.824 6.81128 -1.38164 0
M  V30 5566 H 540.015 4.63641 -0.644536 0
M  V30 5567 H 540.188 6.37861 -1.14181 0
M  V30 5568 N 533.594 0.0601682 1.57485 0
M  V30 5569 C 535.005 -0.474217 1.80577 0
M  V30 5570 C 535.356 -1.70365 0.973147 0
M  V30 5571 O 534.481 -2.15544 0.192306 0
M  V30 5572 C 535.076 -0.867102 3.27516 0
M  V30 5573 C 533.635 -1.34642 3.51495 0
M  V30 5574 C 532.782 -0.32594 2.75378 0
M  V30 5575 H 535.733 0.285973 1.56102 0
M  V30 5576 H 535.754 -1.72938 3.38929 0
M  V30 5577 H 535.266 0.0278927 3.8809 0
M  V30 5578 H 533.367 -2.2603 2.96212 0
M  V30 5579 H 533.48 -1.33237 4.60201 0
M  V30 5580 H 531.844 -0.800749 2.41785 0
M  V30 5581 H 532.627 0.561125 3.38683 0
M  V30 5582 N 535.072 -1.5615 -0.213296 0
M  V30 5583 C 536.32 -1.79191 -0.934612 0
M  V30 5584 C 536.641 -0.630112 -1.84539 0
M  V30 5585 O 535.911 0.35257 -1.92701 0
M  V30 5586 H 534.491 -0.660937 -0.348097 0
M  V30 5587 H 537.153 -1.93618 -0.22317 0
M  V30 5588 H 536.249 -2.71656 -1.53654 0
M  V30 5589 N 536.55 0.480323 -1.50102 0
M  V30 5590 C 537.46 1.60547 -1.71061 0
M  V30 5591 C 538.476 1.63564 -0.593529 0
M  V30 5592 O 539.652 1.81604 -0.870751 0
M  V30 5593 C 536.717 2.96814 -1.79171 0
M  V30 5594 C 535.778 3.04259 -3.02861 0
M  V30 5595 C 535.011 4.34027 -3.10574 0
M  V30 5596 O 535.234 5.24009 -2.25323 0
M  V30 5597 O 534.168 4.46873 -4.03223 0
M  V30 5598 H 537.994 1.45788 -2.6642 0
M  V30 5599 H 535.579 0.658838 -1.34088 0
M  V30 5600 H 537.461 3.77765 -1.86738 0
M  V30 5601 H 536.136 3.11791 -0.869947 0
M  V30 5602 H 535.043 2.22419 -3.008 0
M  V30 5603 H 536.376 2.94216 -3.94586 0
M  V30 5604 N 538.028 1.39524 0.732853 0
M  V30 5605 C 538.938 1.40695 1.87729 0
M  V30 5606 C 539.954 0.301496 1.71368 0
M  V30 5607 O 541.13 0.543313 1.93933 0
M  V30 5608 C 538.195 1.25098 3.23344 0
M  V30 5609 C 537.256 2.45634 3.52083 0
M  V30 5610 C 536.489 2.30772 4.81228 0
M  V30 5611 O 536.712 1.31233 5.55098 0
M  V30 5612 O 535.646 3.19799 5.09914 0
M  V30 5613 H 539.472 2.37168 1.89697 0
M  V30 5614 H 537.057 1.20663 0.880959 0
M  V30 5615 H 538.939 1.18541 4.04383 0
M  V30 5616 H 537.614 0.317209 3.22142 0
M  V30 5617 H 536.521 2.57767 2.71122 0
M  V30 5618 H 537.854 3.37712 3.58066 0
M  V30 5619 N 539.506 -0.963266 1.24736 0
M  V30 5620 C 540.752 -1.70933 1.09131 0
M  V30 5621 C 541.085 -1.90676 -0.368273 0
M  V30 5622 O 540.36 -1.47147 -1.27193 0
M  V30 5623 C 540.643 -3.09744 1.83658 0
M  V30 5624 C 540.496 -2.97465 3.37394 0
M  V30 5625 C 541.815 -4.09483 1.61282 0
M  V30 5626 H 538.934 -0.620398 0.397838 0
M  V30 5627 H 541.576 -1.12028 1.53459 0
M  V30 5628 H 539.726 -3.60031 1.4598 0
M  V30 5629 H 541.398 -2.54571 3.84696 0
M  V30 5630 H 539.641 -2.33576 3.65547 0
M  V30 5631 H 540.312 -3.95822 3.84745 0
M  V30 5632 H 542.788 -3.68073 1.94066 0
M  V30 5633 H 541.664 -5.04666 2.15878 0
M  V30 5634 H 541.925 -4.38639 0.552102 0
M  V30 5635 N 540.985 -1.06182 -1.16461 0
M  V30 5636 C 541.932 -0.671613 -2.20812 0
M  V30 5637 C 542.902 0.331186 -1.62765 0
M  V30 5638 O 544.087 0.22033 -1.89524 0
M  V30 5639 C 541.227 -0.063029 -3.45042 0
M  V30 5640 C 540.34 -1.11587 -4.1734 0
M  V30 5641 C 539.475 -0.473546 -5.29085 0
M  V30 5642 C 538.514 -1.51 -5.93182 0
M  V30 5643 N 537.651 -0.891118 -6.96422 0
M  V30 5644 H 542.491 -1.56589 -2.53542 0
M  V30 5645 H 540.028 -0.782951 -1.24532 0
M  V30 5646 H 541.986 0.307344 -4.16066 0
M  V30 5647 H 540.616 0.794663 -3.12866 0
M  V30 5648 H 539.668 -1.60396 -3.44931 0
M  V30 5649 H 540.98 -1.90221 -4.61104 0
M  V30 5650 H 540.134 -0.0501432 -6.06679 0
M  V30 5651 H 538.873 0.344687 -4.8648 0
M  V30 5652 H 537.878 -1.94331 -5.14311 0
M  V30 5653 H 539.103 -2.33031 -6.37866 0
M  V30 5654 H 537.049 -0.0935753 -6.55933 0
M  V30 5655 H 536.966 -1.61486 -7.38551 0
M  V30 5656 H 538.234 -0.492822 -7.77941 0
M  V30 5657 N 542.463 1.3308 -0.844243 0
M  V30 5658 C 543.395 2.27954 -0.238671 0
M  V30 5659 C 544.408 1.51978 0.583665 0
M  V30 5660 O 545.597 1.73731 0.409857 0
M  V30 5661 C 542.697 3.31963 0.682185 0
M  V30 5662 C 541.87 4.37281 -0.101998 0
M  V30 5663 C 540.929 5.20928 0.743022 0
M  V30 5664 O 539.955 5.68914 0.180285 0
M  V30 5665 N 541.157 5.42738 2.0595 0
M  V30 5666 H 543.922 2.8056 -1.05386 0
M  V30 5667 H 541.483 1.4583 -0.70322 0
M  V30 5668 H 543.475 3.84828 1.25259 0
M  V30 5669 H 542.045 2.79594 1.39808 0
M  V30 5670 H 541.265 3.84843 -0.853802 0
M  V30 5671 H 542.553 5.04746 -0.641015 0
M  V30 5672 H 541.951 5.05463 2.54016 0
M  V30 5673 H 540.508 5.98639 2.57827 0
M  V30 5674 N 543.941 0.601185 1.45683 0
M  V30 5675 C 545.357 0.264315 1.57396 0
M  V30 5676 C 545.557 -1.23324 1.59353 0
M  V30 5677 O 544.613 -2.01594 1.52039 0
M  V30 5678 C 545.926 0.929839 2.85962 0
M  V30 5679 C 547.474 0.905156 2.99626 0
M  V30 5680 C 547.949 1.55057 4.30954 0
M  V30 5681 N 549.44 1.51576 4.37697 0
M  V30 5682 C 550.175 1.98436 5.37969 0
M  V30 5683 N 549.671 2.53352 6.44813 0
M  V30 5684 N 551.464 1.89242 5.29286 0
M  V30 5685 H 543.615 1.57363 1.42656 0
M  V30 5686 H 545.878 0.658831 0.681649 0
M  V30 5687 H 545.584 1.98404 2.90394 0
M  V30 5688 H 545.458 0.449224 3.74515 0
M  V30 5689 H 547.845 -0.14048 2.94765 0
M  V30 5690 H 547.926 1.42397 2.12501 0
M  V30 5691 H 547.57 2.5955 4.36573 0
M  V30 5692 H 547.5 1.00682 5.16886 0
M  V30 5693 H 549.991 1.11452 3.61091 0
M  V30 5694 H 550.304 2.86918 7.17564 0
M  V30 5695 H 548.649 2.57388 6.45582 0
M  V30 5696 H 551.84 1.46083 4.44722 0
M  V30 5697 H 552.013 2.26075 6.07284 0
M  V30 5698 N 545.419 -1.53889 0.339982 0
M  V30 5699 C 546.349 -2.27843 -0.510856 0
M  V30 5700 C 547.33 -1.29267 -1.10563 0
M  V30 5701 O 548.515 -1.58104 -1.12768 0
M  V30 5702 C 545.645 -3.04857 -1.66372 0
M  V30 5703 C 544.599 -4.10907 -1.19746 0
M  V30 5704 C 543.925 -4.75855 -2.43857 0
M  V30 5705 C 545.225 -5.21435 -0.300501 0
M  V30 5706 H 546.919 -2.99212 0.106067 0
M  V30 5707 H 544.465 -1.43904 0.0524533 0
M  V30 5708 H 546.418 -3.5533 -2.26537 0
M  V30 5709 H 545.142 -2.31133 -2.30749 0
M  V30 5710 H 543.801 -3.61342 -0.618654 0
M  V30 5711 H 543.449 -3.9873 -3.06633 0
M  V30 5712 H 543.149 -5.47502 -2.13343 0
M  V30 5713 H 544.673 -5.2911 -3.04754 0
M  V30 5714 H 546.087 -5.67565 -0.80889 0
M  V30 5715 H 544.484 -6.00036 -0.0874076 0
M  V30 5716 H 545.554 -4.80328 0.664321 0
M  V30 5717 N 546.897 -0.0685191 -1.57451 0
M  V30 5718 C 548.313 0.288101 -1.56978 0
M  V30 5719 C 548.513 1.70262 -1.07765 0
M  V30 5720 O 547.569 2.4135 -0.742054 0
M  V30 5721 C 548.882 0.100745 -3.00531 0
M  V30 5722 C 550.43 0.170531 -3.12535 0
M  V30 5723 C 550.905 0.0114944 -4.57999 0
M  V30 5724 N 552.396 0.0672065 -4.63151 0
M  V30 5725 C 553.131 -0.0314813 -5.73391 0
M  V30 5726 N 552.627 -0.183503 -6.92557 0
M  V30 5727 N 554.42 0.0253489 -5.62094 0
M  V30 5728 H 546.571 -0.993026 -1.87757 0
M  V30 5729 H 548.834 -0.386981 -0.865419 0
M  V30 5730 H 548.54 -0.875197 -3.40636 0
M  V30 5731 H 548.414 0.854457 -3.67395 0
M  V30 5732 H 550.801 1.13696 -2.72318 0
M  V30 5733 H 550.882 -0.614229 -2.48316 0
M  V30 5734 H 550.526 -0.951684 -4.98904 0
M  V30 5735 H 550.456 0.815617 -5.20245 0
M  V30 5736 H 552.947 0.183246 -3.77455 0
M  V30 5737 H 553.26 -0.251041 -7.72392 0
M  V30 5738 H 551.605 -0.218822 -6.94655 0
M  V30 5739 H 554.796 0.142794 -4.67882 0
M  V30 5740 H 554.969 -0.0550166 -6.47977 0
M  V30 5741 N 548.375 1.56261 0.205012 0
M  V30 5742 C 549.603 1.84141 0.943386 0
M  V30 5743 C 550.018 0.649772 1.77266 0
M  V30 5744 O 549.375 -0.381612 1.78466 0
M  V30 5745 C 549.426 3.10719 1.84759 0
M  V30 5746 O 549.147 4.25286 1.05181 0
M  V30 5747 C 550.648 3.51706 2.69848 0
M  V30 5748 H 547.868 0.611734 0.275721 0
M  V30 5749 H 550.412 2.03364 0.215253 0
M  V30 5750 H 548.567 2.93422 2.52947 0
M  V30 5751 H 548.981 4.97301 1.66709 0
M  V30 5752 H 550.455 4.43266 3.28967 0
M  V30 5753 H 550.932 2.7423 3.43067 0
M  V30 5754 H 551.538 3.71499 2.07047 0
M  V30 5755 N 549.853 -0.472356 1.50355 0
M  V30 5756 C 551.101 -1.22211 1.60962 0
M  V30 5757 C 551.422 -1.92497 0.311439 0
M  V30 5758 O 550.692 -1.8405 -0.671002 0
M  V30 5759 H 549.272 -0.454092 0.593135 0
M  V30 5760 H 551.934 -0.544977 1.87126 0
M  V30 5761 H 551.03 -1.9707 2.42012 0
M  V30 5762 N 551.331 -1.39911 -0.725443 0
M  V30 5763 C 552.559 -1.40949 -1.51463 0
M  V30 5764 C 552.974 -0.0065242 -1.88799 0
M  V30 5765 O 552.331 0.967163 -1.54765 0
M  V30 5766 C 552.382 -2.29119 -2.79619 0
M  V30 5767 O 552.103 -3.63952 -2.43866 0
M  V30 5768 C 553.604 -2.38642 -3.73584 0
M  V30 5769 H 550.824 -0.481091 -0.467752 0
M  V30 5770 H 553.368 -1.83843 -0.895651 0
M  V30 5771 H 551.523 -1.89612 -3.37826 0
M  V30 5772 H 551.937 -4.10677 -3.26258 0
M  V30 5773 H 553.411 -3.04563 -4.60375 0
M  V30 5774 H 553.888 -1.40846 -4.16004 0
M  V30 5775 H 554.494 -2.78659 -3.21293 0
M  V30 5776 N 552.809 0.956637 -1.25245 0
M  V30 5777 C 554.055 1.70352 -1.10036 0
M  V30 5778 C 554.388 1.90869 0.358156 0
M  V30 5779 O 553.663 1.47819 1.26411 0
M  V30 5780 C 553.946 3.08766 -1.85298 0
M  V30 5781 C 553.799 2.95672 -3.38966 0
M  V30 5782 C 555.118 4.08622 -1.63451 0
M  V30 5783 H 552.237 0.618279 -0.401123 0
M  V30 5784 H 554.879 1.11212 -1.54051 0
M  V30 5785 H 553.029 3.59252 -1.47887 0
M  V30 5786 H 554.701 2.52527 -3.86041 0
M  V30 5787 H 552.944 2.31634 -3.6678 0
M  V30 5788 H 553.615 3.93776 -3.86839 0
M  V30 5789 H 556.091 3.67038 -1.96015 0
M  V30 5790 H 554.967 5.03514 -2.18551 0
M  V30 5791 H 555.228 4.3834 -0.575357 0
M  V30 5792 N 554.287 1.06798 1.15896 0
M  V30 5793 C 555.533 0.788934 1.86825 0
M  V30 5794 C 555.866 -0.683084 1.8179 0
M  V30 5795 O 555.141 -1.50086 1.23711 0
M  V30 5796 C 555.424 1.29065 3.36176 0
M  V30 5797 C 555.277 2.8268 3.49874 0
M  V30 5798 C 556.596 0.902655 4.30744 0
M  V30 5799 H 553.715 0.288066 0.678371 0
M  V30 5800 H 556.357 1.32479 1.36195 0
M  V30 5801 H 554.507 0.834806 3.79425 0
M  V30 5802 H 556.179 3.36511 3.15528 0
M  V30 5803 H 554.422 3.21157 2.91617 0
M  V30 5804 H 555.093 3.12852 4.54783 0
M  V30 5805 H 557.569 1.29535 3.95424 0
M  V30 5806 H 556.445 1.28111 5.3374 0
M  V30 5807 H 556.706 -0.191951 4.41683 0
M  V30 5808 N 555.766 -1.3263 0.851289 0
M  V30 5809 C 556.994 -2.01563 0.466899 0
M  V30 5810 C 557.409 -1.63996 -0.935447 0
M  V30 5811 O 556.766 -0.85957 -1.6099 0
M  V30 5812 C 556.817 -3.56613 0.592433 0
M  V30 5813 O 556.538 -3.92828 1.93954 0
M  V30 5814 C 558.039 -4.42818 0.206612 0
M  V30 5815 H 555.259 -0.645307 0.183902 0
M  V30 5816 H 557.803 -1.69285 1.1473 0
M  V30 5817 H 555.958 -3.87379 -0.0401936 0
M  V30 5818 H 556.372 -4.87545 1.9339 0
M  V30 5819 H 557.846 -5.50918 0.345462 0
M  V30 5820 H 558.323 -4.30844 -0.85264 0
M  V30 5821 H 558.929 -4.17434 0.814176 0
M  V30 5822 N 557.244 -0.608902 -1.45362 0
M  V30 5823 C 558.472 -0.111013 -2.06602 0
M  V30 5824 C 558.887 1.20516 -1.45332 0
M  V30 5825 O 558.244 1.73437 -0.567978 0
M  V30 5826 C 558.295 0.033688 -3.61484 0
M  V30 5827 O 558.016 -1.23041 -4.20467 0
M  V30 5828 C 559.517 0.562882 -4.39712 0
M  V30 5829 H 556.737 -0.0694453 -0.667397 0
M  V30 5830 H 559.281 -0.837008 -1.86586 0
M  V30 5831 H 557.436 0.710016 -3.80838 0
M  V30 5832 H 557.85 -1.06094 -5.13658 0
M  V30 5833 H 559.324 0.613213 -5.48583 0
M  V30 5834 H 559.801 1.58543 -4.09586 0
M  V30 5835 H 560.407 -0.0794454 -4.25226 0
M  V30 5836 N 558.722 1.53707 -0.348139 0
M  V30 5837 C 559.999 1.93247 0.302475 0
M  V30 5838 C 560.379 1.28012 1.67857 0
M  V30 5839 O 559.727 0.43274 2.24365 0
M  V30 5840 C 559.937 3.47031 0.370159 0
M  V30 5841 C 561.285 4.20066 0.61882 0
M  V30 5842 O 562.309 3.53319 0.452087 0
M  V30 5843 O 561.168 5.38318 0.94215 0
M  V30 5844 H 558.262 0.807736 0.177458 0
M  V30 5845 H 560.808 1.64927 -0.399651 0
M  V30 5846 H 559.58 3.86745 -0.59534 0
M  V30 5847 H 559.203 3.81532 1.11888 0
M  V30 5848 N 560.2 0.0768682 1.57412 0
M  V30 5849 C 561.477 -0.632359 1.85096 0
M  V30 5850 C 561.857 -1.87479 0.9703 0
M  V30 5851 O 561.205 -2.28469 0.0379062 0
M  V30 5852 C 561.415 -0.965174 3.35388 0
M  V30 5853 C 562.763 -1.33648 4.03018 0
M  V30 5854 O 563.787 -1.05675 3.40164 0
M  V30 5855 O 562.646 -1.85959 5.13889 0
M  V30 5856 H 559.74 -0.314574 0.764835 0
M  V30 5857 H 562.286 0.108184 1.69355 0
M  V30 5858 H 561.058 -0.0829745 3.91212 0
M  V30 5859 H 560.681 -1.76231 3.5641 0
M  V30 5860 N 561.678 -1.56367 -0.196722 0
M  V30 5861 C 563.094 -1.49916 -0.54749 0
M  V30 5862 C 563.294 -0.77659 -1.85934 0
M  V30 5863 O 562.35 -0.32644 -2.50381 0
M  V30 5864 C 563.663 -2.94577 -0.603734 0
M  V30 5865 C 565.211 -3.05239 -0.692677 0
M  V30 5866 C 565.686 -4.51308 -0.780046 0
M  V30 5867 N 567.177 -4.55453 -0.843616 0
M  V30 5868 C 567.912 -5.65786 -0.931358 0
M  V30 5869 N 567.408 -6.85812 -0.981503 0
M  V30 5870 N 569.201 -5.53695 -0.968421 0
M  V30 5871 H 561.352 -2.01761 0.663803 0
M  V30 5872 H 563.615 -0.918094 0.236238 0
M  V30 5873 H 563.321 -3.50494 0.29105 0
M  V30 5874 H 563.195 -3.47841 -1.45898 0
M  V30 5875 H 565.582 -2.49372 -1.57789 0
M  V30 5876 H 565.663 -2.55103 0.188736 0
M  V30 5877 H 565.307 -5.078 0.100811 0
M  V30 5878 H 565.237 -4.99176 -1.67724 0
M  V30 5879 H 567.728 -3.69025 -0.814176 0
M  V30 5880 H 568.041 -7.65648 -1.04892 0
M  V30 5881 H 566.386 -6.88474 -0.950208 0
M  V30 5882 H 569.577 -4.58848 -0.926072 0
M  V30 5883 H 569.75 -6.39708 -1.03334 0
M  V30 5884 N 563.156 0.464375 -1.50603 0
M  V30 5885 C 564.104 1.58224 -1.70493 0
M  V30 5886 C 565.098 1.59492 -0.570836 0
M  V30 5887 O 566.304 1.63561 -0.751517 0
M  V30 5888 H 562.679 0.525161 -0.538247 0
M  V30 5889 H 564.65 1.38613 -2.64252 0
M  V30 5890 C 563.399 2.96113 -1.82243 0
M  V30 5891 H 562.722 2.95858 -2.68901 0
M  V30 5892 H 564.162 3.73769 -2.00182 0
M  V30 5893 C 562.621 3.31946 -0.575628 0
M  V30 5894 O 563.151 4.00708 0.282152 0
M  V30 5895 N 561.357 2.87436 -0.427665 0
M  V30 5896 H 560.904 2.31652 -1.12674 0
M  V30 5897 H 560.862 3.11776 0.405379 0
M  V30 5898 N 564.634 1.40294 0.718013 0
M  V30 5899 C 565.88 1.39648 1.47885 0
M  V30 5900 C 566.235 -0.0023879 1.924 0
M  V30 5901 O 565.528 -0.972304 1.65096 0
M  V30 5902 C 565.722 2.31814 2.72024 0
M  V30 5903 C 565.551 3.80523 2.3965 0
M  V30 5904 C 564.321 4.49351 2.3111 0
M  V30 5905 C 566.519 4.72077 2.04079 0
M  V30 5906 N 564.501 5.83305 1.91385 0
M  V30 5907 C 565.872 5.94809 1.74935 0
M  V30 5908 C 567.927 4.59935 1.90694 0
M  V30 5909 C 566.63 7.06755 1.33753 0
M  V30 5910 C 568.656 5.7182 1.50915 0
M  V30 5911 C 568.018 6.93637 1.22668 0
M  V30 5912 H 564.117 0.566263 0.539324 0
M  V30 5913 H 566.701 1.75986 0.832891 0
M  V30 5914 H 564.872 1.97607 3.34374 0
M  V30 5915 H 566.604 2.22042 3.38348 0
M  V30 5916 H 563.359 4.03002 2.4877 0
M  V30 5917 H 563.783 6.54239 1.74068 0
M  V30 5918 H 568.425 3.66274 2.11194 0
M  V30 5919 H 566.143 8.00302 1.11995 0
M  V30 5920 H 569.729 5.64421 1.4114 0
M  V30 5921 H 568.609 7.78743 0.923502 0
M  V30 5922 N 566.112 -0.949982 1.2575 0
M  V30 5923 C 567.022 -2.08109 1.08295 0
M  V30 5924 C 568.038 -1.7399 0.0188181 0
M  V30 5925 O 569.214 -2.00187 0.220724 0
M  V30 5926 C 566.279 -3.39383 0.708534 0
M  V30 5927 C 565.34 -3.8734 1.85111 0
M  V30 5928 C 564.573 -5.12349 1.49447 0
M  V30 5929 O 564.796 -5.6905 0.392212 0
M  V30 5930 O 563.73 -5.5513 2.32624 0
M  V30 5931 H 567.556 -2.25738 2.03165 0
M  V30 5932 H 565.141 -1.06545 1.04731 0
M  V30 5933 H 567.023 -4.18277 0.512061 0
M  V30 5934 H 565.698 -3.23013 -0.210854 0
M  V30 5935 H 564.605 -3.09429 2.10248 0
M  V30 5936 H 565.938 -4.08216 2.74991 0
M  V30 5937 N 567.59 -1.07411 -1.15328 0
M  V30 5938 C 568.52 -0.716472 -2.22236 0
M  V30 5939 C 569.501 0.296373 -1.67498 0
M  V30 5940 O 570.686 0.168989 -1.93463 0
M  V30 5941 C 567.816 -0.114142 -3.47112 0
M  V30 5942 C 566.77 -1.05421 -4.14814 0
M  V30 5943 C 566.096 -0.314604 -5.33774 0
M  V30 5944 C 567.396 -2.38808 -4.64508 0
M  V30 5945 H 569.09 -1.61029 -2.52408 0
M  V30 5946 H 566.636 -0.775702 -1.21321 0
M  V30 5947 H 568.589 0.148001 -4.2114 0
M  V30 5948 H 567.313 0.814755 -3.16274 0
M  V30 5949 H 565.972 -1.30128 -3.42728 0
M  V30 5950 H 565.62 0.617772 -4.99192 0
M  V30 5951 H 565.32 -0.941209 -5.80013 0
M  V30 5952 H 566.844 -0.0602747 -6.1057 0
M  V30 5953 H 568.258 -2.18424 -5.3006 0
M  V30 5954 H 566.655 -2.97069 -5.21412 0
M  V30 5955 H 567.725 -3.01067 -3.80114 0
M  V30 5956 N 569.068 1.32177 -0.85831 0
M  V30 5957 C 570.484 1.49873 -0.548656 0
M  V30 5958 C 570.684 1.79278 0.919874 0
M  V30 5959 O 569.74 1.86451 1.70271 0
M  V30 5960 C 571.053 2.64043 -1.4388 0
M  V30 5961 C 572.601 2.77928 -1.43961 0
M  V30 5962 C 573.076 3.95182 -2.31506 0
M  V30 5963 N 574.567 4.0245 -2.29321 0
M  V30 5964 C 575.302 4.9242 -2.93786 0
M  V30 5965 N 574.798 5.87373 -3.67376 0
M  V30 5966 N 576.591 4.85572 -2.83155 0
M  V30 5967 H 568.742 1.11357 -1.80868 0
M  V30 5968 H 571.005 0.549175 -0.772729 0
M  V30 5969 H 570.711 2.49055 -2.48324 0
M  V30 5970 H 570.585 3.59912 -1.12885 0
M  V30 5971 H 572.972 2.92338 -0.402813 0
M  V30 5972 H 573.053 1.82762 -1.78974 0
M  V30 5973 H 572.697 3.81531 -3.35256 0
M  V30 5974 H 572.627 4.89633 -1.93823 0
M  V30 5975 H 575.118 3.34507 -1.75822 0
M  V30 5976 H 575.431 6.52728 -4.13722 0
M  V30 5977 H 573.776 5.87388 -3.71484 0
M  V30 5978 H 576.967 4.10363 -2.25211 0
M  V30 5979 H 577.14 5.55486 -3.33676 0
M  V30 5980 N 570.547 0.616602 1.45037 0
M  V30 5981 C 571.777 0.121791 2.06241 0
M  V30 5982 C 572.185 -1.20289 1.46038 0
M  V30 5983 O 571.528 -1.7456 0.572242 0
M  V30 5984 C 571.59 -0.0827345 3.59405 0
M  V30 5985 C 571.254 1.16153 4.41993 0
M  V30 5986 C 572.251 2.08183 4.76399 0
M  V30 5987 C 569.936 1.39288 4.82601 0
M  V30 5988 C 571.93 3.21668 5.5028 0
M  V30 5989 C 569.617 2.53073 5.56235 0
M  V30 5990 C 570.615 3.44091 5.89992 0
M  V30 5991 O 570.303 4.55894 6.6213 0
M  V30 5992 H 570.035 0.0701667 0.672349 0
M  V30 5993 H 572.589 0.846877 1.87129 0
M  V30 5994 H 570.819 -0.862812 3.76952 0
M  V30 5995 H 572.508 -0.530273 4.02421 0
M  V30 5996 H 573.274 1.91538 4.45576 0
M  V30 5997 H 569.153 0.693396 4.55755 0
M  V30 5998 H 572.697 3.92733 5.76547 0
M  V30 5999 H 568.594 2.69667 5.86472 0
M  V30 6000 H 569.362 4.5469 6.80587 0
M  V30 6001 N 572.025 -1.5352 0.356285 0
M  V30 6002 C 573.25 -2.06007 -0.239961 0
M  V30 6003 C 573.675 -1.22872 -1.42422 0
M  V30 6004 O 573.033 -0.245516 -1.7963 0
M  V30 6005 C 573.081 -3.5522 -0.620587 0
M  V30 6006 O 572.185 -3.74864 -1.71902 0
M  V30 6007 H 571.526 -0.662961 -0.0371377 0
M  V30 6008 H 574.056 -1.98033 0.514194 0
M  V30 6009 H 574.066 -3.98081 -0.894197 0
M  V30 6010 H 572.741 -4.15175 0.245407 0
M  V30 6011 H 571.318 -3.43904 -1.44169 0
M  V30 6012 N 573.503 -0.0852151 -1.57369 0
M  V30 6013 C 574.466 0.8627 -2.12344 0
M  V30 6014 C 575.466 1.21746 -1.05046 0
M  V30 6015 O 576.656 1.14852 -1.30976 0
M  V30 6016 C 573.788 2.1618 -2.63589 0
M  V30 6017 H 574.981 0.385511 -2.97412 0
M  V30 6018 H 572.534 0.163663 -1.55441 0
M  V30 6019 H 573.269 2.68406 -1.82013 0
M  V30 6020 H 573.054 1.91723 -3.4203 0
M  V30 6021 H 574.544 2.84011 -3.06149 0
M  V30 6022 N 574.981 1.5647 0.188427 0
M  V30 6023 C 576.206 1.85486 0.927891 0
M  V30 6024 C 576.631 0.669575 1.75779 0
M  V30 6025 O 575.989 -0.381573 1.77239 0
M  V30 6026 C 576.037 3.12784 1.7944 0
M  V30 6027 O 575.141 2.93805 2.894 0
M  V30 6028 H 574.482 0.610585 0.260925 0
M  V30 6029 H 577.012 2.037 0.191729 0
M  V30 6030 H 577.022 3.43749 2.19774 0
M  V30 6031 H 575.697 3.98671 1.18468 0
M  V30 6032 H 574.274 2.74153 2.52774 0
M  V30 6033 N 576.459 -0.456382 1.50847 0
M  V30 6034 C 577.422 -1.53493 1.70213 0
M  V30 6035 C 578.422 -1.50264 0.572481 0
M  V30 6036 O 579.612 -1.52623 0.839751 0
M  V30 6037 C 576.744 -2.93091 1.741 0
M  V30 6038 H 577.937 -1.37633 2.66453 0
M  V30 6039 H 575.49 -0.683776 1.4055 0
M  V30 6040 H 576.225 -3.14378 0.796063 0
M  V30 6041 H 576.01 -2.9684 2.5618 0
M  V30 6042 H 577.5 -3.71368 1.90987 0
M  V30 6043 N 577.937 -1.40673 -0.710563 0
M  V30 6044 C 578.867 -1.44095 -1.83736 0
M  V30 6045 C 579.848 -0.301286 -1.67411 0
M  V30 6046 O 581.033 -0.510618 -1.87367 0
M  V30 6047 C 578.163 -1.30773 -3.21738 0
M  V30 6048 C 577.117 -2.42395 -3.52745 0
M  V30 6049 C 576.443 -2.14147 -4.89944 0
M  V30 6050 C 577.743 -3.84738 -3.53234 0
M  V30 6051 H 579.437 -2.38396 -1.81129 0
M  V30 6052 H 576.983 -1.14746 -0.870017 0
M  V30 6053 H 578.936 -1.31783 -4.00264 0
M  V30 6054 H 577.66 -0.329507 -3.24934 0
M  V30 6055 H 576.319 -2.40643 -2.76562 0
M  V30 6056 H 575.967 -1.14703 -4.89747 0
M  V30 6057 H 575.667 -2.88934 -5.11655 0
M  V30 6058 H 577.191 -2.16848 -5.70797 0
M  V30 6059 H 578.605 -3.88286 -4.2179 0
M  V30 6060 H 577.002 -4.59085 -3.86473 0
M  V30 6061 H 578.072 -4.13962 -2.52514 0
M  V30 6062 N 579.415 0.9433 -1.26252 0
M  V30 6063 C 580.831 1.21644 -1.03319 0
M  V30 6064 C 581.031 2.0003 0.242983 0
M  V30 6065 O 580.087 2.33838 0.952688 0
M  V30 6066 C 581.4 1.97978 -2.2633 0
M  V30 6067 C 582.948 2.10978 -2.31209 0
M  V30 6068 C 583.423 2.90713 -3.53907 0
M  V30 6069 N 584.914 2.98287 -3.54371 0
M  V30 6070 C 585.649 3.60406 -4.45976 0
M  V30 6071 N 585.145 4.24043 -5.47868 0
M  V30 6072 N 586.938 3.57658 -4.33633 0
M  V30 6073 H 579.089 0.419221 -2.08222 0
M  V30 6074 H 581.352 0.247995 -0.914988 0
M  V30 6075 H 581.058 1.47788 -3.19142 0
M  V30 6076 H 580.932 2.9865 -2.30408 0
M  V30 6077 H 583.319 2.6036 -1.38913 0
M  V30 6078 H 583.4 1.09575 -2.31143 0
M  V30 6079 H 583.044 2.42018 -4.46531 0
M  V30 6080 H 582.974 3.92367 -3.5122 0
M  V30 6081 H 585.465 2.53044 -2.80673 0
M  V30 6082 H 585.778 4.69334 -6.13959 0
M  V30 6083 H 584.123 4.22637 -5.51728 0
M  V30 6084 H 587.314 3.07134 -3.53251 0
M  V30 6085 H 587.487 4.05782 -5.05218 0
M  V30 6086 N 580.893 1.08022 1.14757 0
M  V30 6087 C 582.14 0.807509 1.85703 0
M  V30 6088 C 582.468 -0.666617 1.8272 0
M  V30 6089 O 581.723 -1.50562 1.25018 0
M  V30 6090 C 582.022 1.26964 3.34088 0
M  V30 6091 C 581.688 2.7509 3.57262 0
M  V30 6092 C 580.35 3.15547 3.63296 0
M  V30 6093 C 582.702 3.70667 3.66409 0
M  V30 6094 C 580.03 4.50384 3.75994 0
M  V30 6095 C 582.382 5.05274 3.80632 0
M  V30 6096 C 581.046 5.45342 3.84913 0
M  V30 6097 H 580.316 0.295488 0.679535 0
M  V30 6098 H 582.963 1.35245 1.35577 0
M  V30 6099 H 581.268 0.644216 3.86467 0
M  V30 6100 H 582.965 1.03544 3.87401 0
M  V30 6101 H 579.555 2.42775 3.53212 0
M  V30 6102 H 583.739 3.40533 3.61041 0
M  V30 6103 H 578.995 4.80886 3.77569 0
M  V30 6104 H 583.169 5.79201 3.86652 0
M  V30 6105 H 580.796 6.49823 3.94505 0
M  V30 6106 N 582.371 -1.3172 0.865308 0
M  V30 6107 C 583.319 -2.30569 0.306674 0
M  V30 6108 C 584.313 -1.59317 -0.575724 0
M  V30 6109 O 585.519 -1.73961 -0.462343 0
M  V30 6110 H 581.894 -0.747681 0.0804834 0
M  V30 6111 H 583.865 -2.75165 1.15441 0
M  V30 6112 C 582.614 -3.44358 -0.480952 0
M  V30 6113 H 581.937 -3.99354 0.18876 0
M  V30 6114 H 583.377 -4.15652 -0.837241 0
M  V30 6115 C 581.836 -2.92574 -1.67039 0
M  V30 6116 O 582.366 -2.90954 -2.76964 0
M  V30 6117 N 580.572 -2.48835 -1.50097 0
M  V30 6118 H 580.119 -2.50353 -0.606738 0
M  V30 6119 H 580.077 -2.14543 -2.29823 0
M  V30 6120 N 583.85 -0.624285 -1.44708 0
M  V30 6121 C 584.779 0.0717025 -2.3339 0
M  V30 6122 C 585.76 0.841814 -1.47809 0
M  V30 6123 O 586.946 0.809056 -1.76544 0
M  V30 6124 C 584.076 1.05852 -3.30776 0
M  V30 6125 C 583.029 0.400503 -4.26122 0
M  V30 6126 C 582.356 1.49674 -5.13324 0
M  V30 6127 C 583.656 -0.688924 -5.17737 0
M  V30 6128 H 585.35 -0.668819 -2.91834 0
M  V30 6129 H 582.896 -0.32308 -1.40329 0
M  V30 6130 H 584.849 1.5541 -3.91696 0
M  V30 6131 H 583.572 1.82984 -2.70526 0
M  V30 6132 H 582.231 -0.0743687 -3.66525 0
M  V30 6133 H 581.88 2.25877 -4.49431 0
M  V30 6134 H 581.58 1.06188 -5.77926 0
M  V30 6135 H 583.104 1.99427 -5.77115 0
M  V30 6136 H 584.518 -0.276724 -5.72632 0
M  V30 6137 H 582.915 -1.04652 -5.90904 0
M  V30 6138 H 583.985 -1.55884 -4.5916 0
M  V30 6139 N 585.328 1.53329 -0.364422 0
M  V30 6140 C 586.553 2.06132 0.229033 0
M  V30 6141 C 586.978 1.23625 1.41769 0
M  V30 6142 O 586.336 0.255038 1.79497 0
M  V30 6143 C 586.384 3.55544 0.60174 0
M  V30 6144 O 585.488 3.75771 1.69912 0
M  V30 6145 H 584.829 0.663148 0.0336213 0
M  V30 6146 H 587.359 1.97758 -0.524689 0
M  V30 6147 H 587.369 3.98549 0.873073 0
M  V30 6148 H 586.044 4.15039 -0.267421 0
M  V30 6149 H 584.621 3.44663 1.42343 0
M  V30 6150 N 586.806 0.0935595 1.57322 0
M  V30 6151 C 588.222 -0.263091 1.57417 0
M  V30 6152 C 588.422 -1.68526 1.1046 0
M  V30 6153 O 587.478 -2.40139 0.780357 0
M  V30 6154 C 588.791 -0.0529201 3.00653 0
M  V30 6155 C 590.339 -0.120788 3.12767 0
M  V30 6156 C 590.814 0.0613707 4.57959 0
M  V30 6157 N 592.305 0.00648534 4.632 0
M  V30 6158 C 593.04 0.122699 5.73269 0
M  V30 6159 N 592.536 0.29366 6.92177 0
M  V30 6160 N 594.329 0.0640787 5.62063 0
M  V30 6161 H 586.48 1.02277 1.86154 0
M  V30 6162 H 588.743 0.4007 0.859153 0
M  V30 6163 H 588.449 0.929279 3.39201 0
M  V30 6164 H 588.323 -0.795899 3.68708 0
M  V30 6165 H 590.71 -1.09349 2.74093 0
M  V30 6166 H 590.791 0.653656 2.47307 0
M  V30 6167 H 590.435 1.03093 4.97327 0
M  V30 6168 H 590.365 -0.732748 5.21477 0
M  V30 6169 H 592.856 -0.123173 3.77699 0
M  V30 6170 H 593.169 0.37389 7.71895 0
M  V30 6171 H 591.514 0.329307 6.94219 0
M  V30 6172 H 594.705 -0.0683396 4.6805 0
M  V30 6173 H 594.878 0.158097 6.47807 0
M  V30 6174 N 588.284 -1.56567 -0.180126 0
M  V30 6175 C 589.247 -1.94852 -1.20686 0
M  V30 6176 C 590.247 -0.831212 -1.3765 0
M  V30 6177 O 591.437 -1.09841 -1.35206 0
M  V30 6178 C 588.569 -2.23565 -2.57355 0
M  V30 6179 H 589.762 -2.86722 -0.879225 0
M  V30 6180 H 587.315 -1.50489 -0.422237 0
M  V30 6181 H 588.05 -1.34381 -2.95148 0
M  V30 6182 H 587.835 -3.04999 -2.46411 0
M  V30 6183 H 589.325 -2.54137 -3.31367 0
M  V30 6184 N 589.762 0.448376 -1.51087 0
M  V30 6185 C 591.008 1.20049 -1.6345 0
M  V30 6186 C 591.341 1.91121 -0.344444 0
M  V30 6187 O 590.616 1.83125 0.655396 0
M  V30 6188 C 590.899 2.22624 -2.83038 0
M  V30 6189 C 590.752 1.55708 -4.21989 0
M  V30 6190 C 592.071 3.23718 -2.98152 0
M  V30 6191 H 589.19 0.435085 -0.59487 0
M  V30 6192 H 591.832 0.491183 -1.83541 0
M  V30 6193 H 589.982 2.83117 -2.66039 0
M  V30 6194 H 591.654 0.986367 -4.50631 0
M  V30 6195 H 589.897 0.859647 -4.25197 0
M  V30 6196 H 590.568 2.30357 -5.01637 0
M  V30 6197 H 593.044 2.73269 -3.13788 0
M  V30 6198 H 591.92 3.92795 -3.83411 0
M  V30 6199 H 592.181 3.89179 -2.09743 0
M  V30 6200 N 591.24 1.41047 0.703093 0
M  V30 6201 C 592.203 1.42036 1.79884 0
M  V30 6202 C 593.203 0.312153 1.57741 0
M  V30 6203 O 594.393 0.571672 1.64553 0
M  V30 6204 C 591.525 1.22437 3.18154 0
M  V30 6205 H 592.718 2.39572 1.80403 0
M  V30 6206 H 590.271 1.27079 0.909977 0
M  V30 6207 H 591.006 0.257112 3.23279 0
M  V30 6208 H 590.791 2.02723 3.35627 0
M  V30 6209 H 592.281 1.25946 3.98155 0
M  V30 6210 N 592.718 -0.936591 1.26751 0
M  V30 6211 C 593.967 -1.67778 1.11953 0
M  V30 6212 C 594.28 -1.92694 -0.33589 0
M  V30 6213 O 595.486 -2.64682 -0.604618 0
M  V30 6214 C 593.942 -3.02138 1.95551 0
M  V30 6215 C 593.55 -2.84953 3.45696 0
M  V30 6216 C 595.294 -3.79917 1.89377 0
M  V30 6217 C 593.201 -4.14814 4.21525 0
M  V30 6218 H 592.131 -0.629275 0.415366 0
M  V30 6219 H 594.782 -1.04122 1.51099 0
M  V30 6220 H 593.164 -3.668 1.49243 0
M  V30 6221 H 594.338 -2.29112 3.99805 0
M  V30 6222 H 592.653 -2.20612 3.53156 0
M  V30 6223 H 595.25 -4.76134 2.43312 0
M  V30 6224 H 595.593 -4.07204 0.865464 0
M  V30 6225 H 596.126 -3.22037 2.33532 0
M  V30 6226 H 592.865 -3.92709 5.24843 0
M  V30 6227 H 592.385 -4.70352 3.72195 0
M  V30 6228 H 594.064 -4.83239 4.3022 0
M  V30 6229 N 594.196 -1.08629 -1.14182 0
M  V30 6230 C 595.473 -0.73002 -1.81466 0
M  V30 6231 C 595.853 0.785996 -1.95922 0
M  V30 6232 O 595.201 1.70535 -1.52086 0
M  V30 6233 C 595.411 -1.45957 -3.17014 0
M  V30 6234 C 596.759 -1.62008 -3.92477 0
M  V30 6235 O 597.783 -1.42141 -3.26611 0
M  V30 6236 O 596.642 -1.94806 -5.106 0
M  V30 6237 H 593.736 -0.261307 -0.784632 0
M  V30 6238 H 596.282 -1.188 -1.2118 0
M  V30 6239 H 595.054 -2.49221 -3.01669 0
M  V30 6240 H 594.677 -0.993222 -3.84995 0
M  V30 6241 N 595.674 1.31259 -0.872281 0
M  V30 6242 C 596.607 2.26544 -0.274394 0
M  V30 6243 C 597.585 1.51213 0.597776 0
M  V30 6244 O 598.769 1.80277 0.550687 0
M  V30 6245 C 595.896 3.33139 0.611256 0
M  V30 6246 C 594.942 4.26077 -0.189876 0
M  V30 6247 S 595.775 5.11971 -1.56989 0
M  V30 6248 C 596.931 6.2208 -0.690427 0
M  V30 6249 H 597.164 2.76908 -1.0821 0
M  V30 6250 H 594.697 1.3906 -0.670939 0
M  V30 6251 H 596.655 3.95024 1.11654 0
M  V30 6252 H 595.316 2.81525 1.39294 0
M  V30 6253 H 594.509 5.01657 0.485433 0
M  V30 6254 H 594.111 3.68701 -0.627339 0
M  V30 6255 H 596.403 6.77429 0.098001 0
M  V30 6256 H 597.346 6.93768 -1.41742 0
M  V30 6257 H 597.754 5.63915 -0.256953 0
M  V30 6258 N 597.152 0.631951 1.44375 0
M  V30 6259 C 598.062 -0.073674 2.34484 0
M  V30 6260 C 599.078 -0.834825 1.52665 0
M  V30 6261 O 600.254 -0.786902 1.85391 0
M  V30 6262 C 597.319 -1.04247 3.30656 0
M  V30 6263 C 596.38 -0.280602 4.28382 0
M  V30 6264 C 595.613 -1.20325 5.19959 0
M  V30 6265 O 595.836 -2.44199 5.15484 0
M  V30 6266 O 594.77 -0.687128 5.97965 0
M  V30 6267 H 598.596 0.667477 2.96274 0
M  V30 6268 H 596.181 0.392144 1.44162 0
M  V30 6269 H 598.063 -1.59981 3.89851 0
M  V30 6270 H 596.738 -1.76422 2.71398 0
M  V30 6271 H 595.645 0.319804 3.72731 0
M  V30 6272 H 596.978 0.401144 4.90563 0
M  V30 6273 N 598.631 -1.53133 0.372548 0
M  V30 6274 C 599.856 -2.0625 -0.218098 0
M  V30 6275 C 600.281 -1.24375 -1.41111 0
M  V30 6276 O 599.639 -0.264554 -1.79359 0
M  V30 6277 C 599.687 -3.55858 -0.582876 0
M  V30 6278 O 598.791 -3.76667 -1.67917 0
M  V30 6279 H 598.132 -0.663317 -0.030104 0
M  V30 6280 H 600.662 -1.97477 0.535169 0
M  V30 6281 H 600.672 -3.99007 -0.851925 0
M  V30 6282 H 599.347 -4.14892 0.289428 0
M  V30 6283 H 597.924 -3.45413 -1.40513 0
M  V30 6284 N 600.109 -0.101901 -1.5727 0
M  V30 6285 C 601.072 0.840129 -2.13247 0
M  V30 6286 C 602.072 1.20625 -1.06331 0
M  V30 6287 O 603.262 1.13456 -1.32186 0
M  V30 6288 C 600.394 2.13372 -2.65867 0
M  V30 6289 H 601.587 0.353945 -2.97804 0
M  V30 6290 H 599.14 0.147167 -1.55606 0
M  V30 6291 H 599.875 2.66461 -1.84849 0
M  V30 6292 H 599.66 1.88085 -3.44044 0
M  V30 6293 H 601.15 2.80748 -3.09145 0
M  V30 6294 N 601.587 1.56661 0.17182 0
M  V30 6295 C 602.815 1.861 0.904115 0
M  V30 6296 C 603.23 0.687227 1.75848 0
M  V30 6297 O 602.587 -0.343671 1.79235 0
M  V30 6298 C 602.638 3.14568 1.78127 0
M  V30 6299 O 602.359 4.27422 0.961366 0
M  V30 6300 C 603.86 3.5735 2.62327 0
M  V30 6301 H 601.08 0.617445 0.262684 0
M  V30 6302 H 603.624 2.03775 0.172068 0
M  V30 6303 H 601.779 2.98721 2.46666 0
M  V30 6304 H 602.193 5.00725 1.56123 0
M  V30 6305 H 603.667 4.50144 3.1949 0
M  V30 6306 H 604.144 2.81445 3.37173 0
M  V30 6307 H 604.75 3.75807 1.99121 0
M  V30 6308 N 603.065 -0.440357 1.51323 0
M  V30 6309 C 604.314 -1.18697 1.63076 0
M  V30 6310 C 604.627 -1.92418 0.35136 0
M  V30 6311 O 605.833 -2.69258 0.348221 0
M  V30 6312 C 604.289 -2.15849 2.87988 0
M  V30 6313 C 603.897 -1.47789 4.22921 0
M  V30 6314 C 605.641 -2.90962 3.09098 0
M  V30 6315 C 603.548 -2.43407 5.38987 0
M  V30 6316 H 602.478 -0.44676 0.607389 0
M  V30 6317 H 605.129 -0.454313 1.77787 0
M  V30 6318 H 603.511 -2.92537 2.66905 0
M  V30 6319 H 604.685 -0.7668 4.54375 0
M  V30 6320 H 603 -0.848404 4.07665 0
M  V30 6321 H 605.597 -3.62584 3.92985 0
M  V30 6322 H 605.94 -3.52133 2.22053 0
M  V30 6323 H 606.473 -2.21381 3.30507 0
M  V30 6324 H 603.212 -1.86929 6.28282 0
M  V30 6325 H 602.732 -3.12579 5.11913 0
M  V30 6326 H 604.411 -3.046 5.70813 0
M  V30 6327 N 604.543 -1.41418 -0.695603 0
M  V30 6328 C 605.506 -1.42988 -1.79129 0
M  V30 6329 C 606.506 -0.320514 -1.57573 0
M  V30 6330 O 607.696 -0.58039 -1.64247 0
M  V30 6331 C 604.828 -1.24122 -3.175 0
M  V30 6332 H 606.021 -2.40526 -1.7913 0
M  V30 6333 H 603.574 -1.2756 -0.903225 0
M  V30 6334 H 604.309 -0.274253 -3.23138 0
M  V30 6335 H 604.094 -2.045 -3.34547 0
M  V30 6336 H 605.584 -1.28056 -3.97481 0
M  V30 6337 N 606.021 0.929856 -1.27246 0
M  V30 6338 C 606.984 2.01172 -1.09829 0
M  V30 6339 C 607.984 1.60743 -0.0429687 0
M  V30 6340 O 609.174 1.71813 -0.287373 0
M  V30 6341 C 606.306 3.34191 -0.673003 0
M  V30 6342 H 607.499 2.18054 -2.05895 0
M  V30 6343 H 605.052 1.11036 -1.10003 0
M  V30 6344 H 605.787 3.23009 0.289134 0
M  V30 6345 H 605.572 3.64892 -1.43515 0
M  V30 6346 H 607.062 4.13646 -0.573323 0
M  V30 6347 N 607.499 1.09233 1.13605 0
M  V30 6348 C 608.431 0.687794 2.18637 0
M  V30 6349 C 609.444 -0.26936 1.60556 0
M  V30 6350 O 610.633 -0.0557162 1.78413 0
M  V30 6351 C 607.733 -0.00751901 3.38899 0
M  V30 6352 C 606.906 0.97067 4.26494 0
M  V30 6353 C 605.965 0.309129 5.25291 0
M  V30 6354 O 604.991 0.956149 5.61112 0
M  V30 6355 N 606.193 -0.937555 5.72879 0
M  V30 6356 H 608.958 1.59141 2.53957 0
M  V30 6357 H 606.519 0.979515 1.28907 0
M  V30 6358 H 608.511 -0.461238 4.02063 0
M  V30 6359 H 607.081 -0.813353 3.01833 0
M  V30 6360 H 606.301 1.603 3.60135 0
M  V30 6361 H 607.589 1.63323 4.81875 0
M  V30 6362 H 606.987 -1.48281 5.4592 0
M  V30 6363 H 605.544 -1.33463 6.3799 0
M  V30 6364 N 608.977 -1.30795 0.87923 0
M  V30 6365 C 610.225 -1.95974 0.493809 0
M  V30 6366 C 610.546 -1.69787 -0.959021 0
M  V30 6367 O 609.816 -1.01832 -1.67353 0
M  V30 6368 H 608.396 -0.725083 0.179622 0
M  V30 6369 H 611.058 -1.59432 1.12105 0
M  V30 6370 H 610.154 -3.05058 0.659263 0
M  V30 6371 N 610.455 -0.639598 -1.44038 0
M  V30 6372 C 611.685 -0.154586 -2.06021 0
M  V30 6373 C 612.093 1.17951 -1.47933 0
M  V30 6374 O 611.436 1.73627 -0.59994 0
M  V30 6375 C 611.498 0.0255459 -3.59491 0
M  V30 6376 C 611.162 -1.2317 -4.40089 0
M  V30 6377 C 612.159 -2.15735 -4.73027 0
M  V30 6378 C 609.844 -1.46949 -4.80324 0
M  V30 6379 C 611.838 -3.30382 -5.45093 0
M  V30 6380 C 609.525 -2.61891 -5.52138 0
M  V30 6381 C 610.523 -3.53433 -5.84443 0
M  V30 6382 O 610.211 -4.6637 -6.54793 0
M  V30 6383 H 609.943 -0.0808543 -0.671147 0
M  V30 6384 H 612.497 -0.876541 -1.85758 0
M  V30 6385 H 610.727 0.802733 -3.78276 0
M  V30 6386 H 612.416 0.466184 -4.03214 0
M  V30 6387 H 613.182 -1.98602 -4.42473 0
M  V30 6388 H 609.061 -0.765815 -4.54595 0
M  V30 6389 H 612.605 -4.01856 -5.70226 0
M  V30 6390 H 608.502 -2.78964 -5.82108 0
M  V30 6391 H 609.27 -4.6546 -6.73267 0
M  V30 6392 N 611.933 1.52934 -0.380664 0
M  V30 6393 C 613.349 1.59571 -0.0302429 0
M  V30 6394 C 613.549 1.39509 1.45394 0
M  V30 6395 O 612.605 1.20777 2.21741 0
M  V30 6396 C 613.918 2.96519 -0.499691 0
M  V30 6397 C 615.466 3.09672 -0.455204 0
M  V30 6398 C 615.941 4.49056 -0.900703 0
M  V30 6399 N 617.432 4.55215 -0.856367 0
M  V30 6400 C 618.167 5.61282 -1.17259 0
M  V30 6401 N 617.663 6.75035 -1.55885 0
M  V30 6402 N 619.456 5.51343 -1.0944 0
M  V30 6403 H 611.607 1.64224 -1.347 0
M  V30 6404 H 613.87 0.771033 -0.551554 0
M  V30 6405 H 613.576 3.16388 -1.53595 0
M  V30 6406 H 613.45 3.77052 0.105789 0
M  V30 6407 H 615.837 2.89504 0.571949 0
M  V30 6408 H 615.918 2.31113 -1.09638 0
M  V30 6409 H 615.562 4.69964 -1.92604 0
M  V30 6410 H 615.492 5.26068 -0.236629 0
M  V30 6411 H 617.983 3.73546 -0.572013 0
M  V30 6412 H 618.296 7.51926 -1.784 0
M  V30 6413 H 616.641 6.76388 -1.59764 0
M  V30 6414 H 619.832 4.61356 -0.791713 0
M  V30 6415 H 620.005 6.33905 -1.34417 0
M  V30 6416 N 613.412 0.11024 1.57214 0
M  V30 6417 C 614.659 -0.54987 1.94891 0
M  V30 6418 C 614.987 -1.67243 0.992984 0
M  V30 6419 O 614.242 -1.95694 0.0152703 0
M  V30 6420 C 614.541 -1.13102 3.39032 0
M  V30 6421 C 614.207 -0.130713 4.5071 0
M  V30 6422 C 612.869 0.14437 4.80983 0
M  V30 6423 C 615.221 0.551472 5.18274 0
M  V30 6424 C 612.549 1.10807 5.76141 0
M  V30 6425 C 614.901 1.50375 6.14467 0
M  V30 6426 C 613.565 1.78691 6.43138 0
M  V30 6427 H 612.835 -0.201212 0.713158 0
M  V30 6428 H 615.482 0.189288 1.90562 0
M  V30 6429 H 613.787 -1.94675 3.40013 0
M  V30 6430 H 615.484 -1.64973 3.65493 0
M  V30 6431 H 612.074 -0.355301 4.27125 0
M  V30 6432 H 616.258 0.35211 4.95049 0
M  V30 6433 H 611.514 1.3343 5.96663 0
M  V30 6434 H 615.688 2.03808 6.65909 0
M  V30 6435 H 613.315 2.53522 7.1668 0
M  V30 6436 N 614.89 -1.56749 -0.16351 0
M  V30 6437 C 616.306 -1.51043 -0.515567 0
M  V30 6438 C 616.506 -0.815855 -1.84245 0
M  V30 6439 O 615.562 -0.379477 -2.49632 0
M  V30 6440 C 616.875 -2.95791 -0.541114 0
M  V30 6441 C 618.423 -3.0664 -0.627776 0
M  V30 6442 C 618.898 -4.52861 -0.684141 0
M  V30 6443 N 620.389 -4.5714 -0.746818 0
M  V30 6444 C 621.124 -5.67634 -0.811137 0
M  V30 6445 N 620.62 -6.8774 -0.835811 0
M  V30 6446 N 622.413 -5.55624 -0.850756 0
M  V30 6447 H 614.564 -2.00307 0.70645 0
M  V30 6448 H 616.827 -0.912876 0.255659 0
M  V30 6449 H 616.533 -3.49797 0.365329 0
M  V30 6450 H 616.407 -3.50858 -1.38487 0
M  V30 6451 H 618.794 -2.52663 -1.52464 0
M  V30 6452 H 618.875 -2.54645 0.242805 0
M  V30 6453 H 618.519 -5.07472 0.2085 0
M  V30 6454 H 618.449 -5.02621 -1.57098 0
M  V30 6455 H 620.94 -3.70669 -0.735717 0
M  V30 6456 H 621.253 -7.67701 -0.886279 0
M  V30 6457 H 619.598 -6.90334 -0.803958 0
M  V30 6458 H 622.789 -4.60709 -0.828535 0
M  V30 6459 H 622.962 -6.41756 -0.897418 0
M  V30 6460 N 616.368 0.432326 -1.51554 0
M  V30 6461 C 617.614 1.18309 -1.64714 0
M  V30 6462 C 617.947 1.90745 -0.364696 0
M  V30 6463 O 617.222 1.8381 0.635936 0
M  V30 6464 C 617.505 2.1961 -2.85383 0
M  V30 6465 C 617.358 1.51223 -4.23617 0
M  V30 6466 C 618.677 3.20538 -3.01569 0
M  V30 6467 H 615.796 0.428751 -0.599451 0
M  V30 6468 H 618.438 0.471689 -1.84052 0
M  V30 6469 H 616.588 2.8028 -2.69027 0
M  V30 6470 H 618.26 0.938516 -4.51652 0
M  V30 6471 H 616.503 0.814501 -4.26085 0
M  V30 6472 H 617.174 2.25024 -5.04052 0
M  V30 6473 H 619.65 2.69926 -3.16669 0
M  V30 6474 H 618.526 3.88706 -3.87555 0
M  V30 6475 H 618.787 3.86933 -2.13859 0
M  V30 6476 N 617.846 1.41785 0.688094 0
M  V30 6477 C 619.257 1.3701 1.26828 0
M  V30 6478 C 619.608 0.056835 1.96118 0
M  V30 6479 O 618.733 -0.84475 1.99231 0
M  V30 6480 C 619.328 2.48168 2.30648 0
M  V30 6481 C 617.887 2.46766 2.84224 0
M  V30 6482 C 617.034 2.27633 1.58361 0
M  V30 6483 H 619.985 1.51192 0.482351 0
M  V30 6484 H 620.006 2.17655 3.121 0
M  V30 6485 H 619.518 3.43735 1.80188 0
M  V30 6486 H 617.619 1.54978 3.3884 0
M  V30 6487 H 617.732 3.43342 3.34145 0
M  V30 6488 H 616.096 1.75648 1.84445 0
M  V30 6489 H 616.879 3.25238 1.09887 0
M  V30 6490 N 619.324 -0.923095 1.27737 0
M  V30 6491 C 620.554 -1.70277 1.17001 0
M  V30 6492 C 620.962 -1.87188 -0.275199 0
M  V30 6493 O 620.305 -1.39195 -1.19877 0
M  V30 6494 C 620.367 -3.11976 1.78637 0
M  V30 6495 C 620.031 -3.18386 3.27841 0
M  V30 6496 C 621.028 -3.00287 4.2441 0
M  V30 6497 C 618.713 -3.41198 3.68632 0
M  V30 6498 C 620.707 -3.04896 5.59747 0
M  V30 6499 C 618.394 -3.4544 5.04097 0
M  V30 6500 C 619.392 -3.27309 5.99465 0
M  V30 6501 O 619.08 -3.31295 7.32461 0
M  V30 6502 H 618.812 -0.539366 0.407505 0
M  V30 6503 H 621.366 -1.16446 1.69202 0
M  V30 6504 H 619.596 -3.67308 1.20919 0
M  V30 6505 H 621.285 -3.7193 1.6255 0
M  V30 6506 H 622.051 -2.825 3.94232 0
M  V30 6507 H 617.93 -3.54359 2.94873 0
M  V30 6508 H 621.474 -2.90662 6.34162 0
M  V30 6509 H 617.371 -3.62753 5.33929 0
M  V30 6510 H 618.139 -3.47719 7.40968 0
M  V30 6511 N 620.802 -1.09834 -1.13024 0
M  V30 6512 C 622.05 -0.835297 -1.8403 0
M  V30 6513 C 622.371 0.640944 -1.84165 0
M  V30 6514 O 621.641 1.46517 -1.30037 0
M  V30 6515 H 620.221 -0.306018 -0.681441 0
M  V30 6516 H 622.883 -1.38734 -1.36891 0
M  V30 6517 H 621.979 -1.19258 -2.88416 0
M  V30 6518 N 622.28 1.30327 -0.886154 0
M  V30 6519 C 623.508 2.00254 -0.520176 0
M  V30 6520 C 623.923 1.66419 0.891637 0
M  V30 6521 O 623.28 0.901951 1.58654 0
M  V30 6522 C 623.331 3.54916 -0.686775 0
M  V30 6523 O 623.052 3.87547 -2.04301 0
M  V30 6524 C 624.553 4.42115 -0.323945 0
M  V30 6525 H 621.773 0.640204 -0.200947 0
M  V30 6526 H 624.317 1.66183 -1.19178 0
M  V30 6527 H 622.472 3.8735 -0.0625273 0
M  V30 6528 H 622.886 4.82247 -2.06249 0
M  V30 6529 H 624.36 5.49808 -0.491407 0
M  V30 6530 H 624.837 4.32953 0.73811 0
M  V30 6531 H 625.443 4.15129 -0.924565 0
M  V30 6532 N 623.758 0.647228 1.43697 0
M  V30 6533 C 624.688 -0.0345631 2.33474 0
M  V30 6534 C 625.669 -0.818193 1.4913 0
M  V30 6535 O 626.854 -0.780867 1.77809 0
M  V30 6536 C 623.984 -1.00576 3.32418 0
M  V30 6537 C 622.938 -0.33266 4.26705 0
M  V30 6538 C 622.264 -1.41489 5.1564 0
M  V30 6539 C 623.564 0.771204 5.16575 0
M  V30 6540 H 625.258 0.715163 2.90733 0
M  V30 6541 H 622.804 0.345364 1.39797 0
M  V30 6542 H 624.757 -1.49159 3.94119 0
M  V30 6543 H 623.481 -1.78657 2.73403 0
M  V30 6544 H 622.14 0.13267 3.6636 0
M  V30 6545 H 621.788 -2.18698 4.52968 0
M  V30 6546 H 621.488 -0.969799 5.79542 0
M  V30 6547 H 623.012 -1.9022 5.80214 0
M  V30 6548 H 624.426 0.36779 5.72119 0
M  V30 6549 H 622.823 1.1404 5.89165 0
M  V30 6550 H 623.893 1.63169 4.56622 0
M  V30 6551 N 625.236 -1.5273 0.388769 0
M  V30 6552 C 626.166 -2.29353 -0.438111 0
M  V30 6553 C 627.147 -1.32719 -1.06394 0
M  V30 6554 O 628.332 -1.61612 -1.07681 0
M  V30 6555 C 625.462 -3.09995 -1.56589 0
M  V30 6556 C 624.416 -4.14509 -1.06613 0
M  V30 6557 C 623.742 -4.83372 -2.28594 0
M  V30 6558 C 625.042 -5.22127 -0.134459 0
M  V30 6559 H 626.736 -2.98723 0.201206 0
M  V30 6560 H 624.282 -1.43665 0.0982089 0
M  V30 6561 H 626.235 -3.62357 -2.15118 0
M  V30 6562 H 624.959 -2.38357 -2.23279 0
M  V30 6563 H 623.618 -3.63128 -0.503383 0
M  V30 6564 H 623.266 -4.08283 -2.93792 0
M  V30 6565 H 622.966 -5.54012 -1.95817 0
M  V30 6566 H 624.49 -5.38538 -2.87766 0
M  V30 6567 H 625.904 -5.69851 -0.627914 0
M  V30 6568 H 624.301 -6.00011 0.103534 0
M  V30 6569 H 625.371 -4.77971 0.816798 0
M  V30 6570 N 626.714 -0.118576 -1.57153 0
M  V30 6571 C 627.954 0.542618 -1.97066 0
M  V30 6572 C 628.318 1.63874 -1.00046 0
M  V30 6573 O 629.519 2.3588 -1.28895 0
M  V30 6574 C 627.79 1.06196 -3.41258 0
M  V30 6575 S 629.349 1.73174 -4.03183 0
M  V30 6576 H 626.167 0.17638 -0.688775 0
M  V30 6577 H 628.769 -0.203556 -1.94437 0
M  V30 6578 H 627.473 0.253016 -4.09619 0
M  V30 6579 H 627.004 1.84342 -3.47536 0
M  V30 6580 H 629.019 3.01749 -3.93906 0
M  V30 6581 N 628.193 1.56834 0.155195 0
M  V30 6582 C 629.439 1.83169 0.870467 0
M  V30 6583 C 629.772 0.698929 1.81187 0
M  V30 6584 O 629.047 -0.298035 1.92203 0
M  V30 6585 C 629.33 3.19965 1.65211 0
M  V30 6586 C 629.183 4.43792 0.732744 0
M  V30 6587 C 630.502 3.53885 2.61636 0
M  V30 6588 H 627.621 0.666288 0.315006 0
M  V30 6589 H 630.263 1.89513 0.135988 0
M  V30 6590 H 628.413 3.14687 2.27825 0
M  V30 6591 H 630.085 4.61148 0.118236 0
M  V30 6592 H 628.328 4.3378 0.0417906 0
M  V30 6593 H 628.999 5.36095 1.31552 0
M  V30 6594 H 631.475 3.5972 2.09143 0
M  V30 6595 H 630.351 4.50648 3.13381 0
M  V30 6596 H 630.612 2.79418 3.42605 0
M  V30 6597 N 629.671 -0.424282 1.51781 0
M  V30 6598 C 630.896 -1.19928 1.6921 0
M  V30 6599 C 631.321 -1.8392 0.394355 0
M  V30 6600 O 630.679 -1.69371 -0.646778 0
M  V30 6601 C 630.727 -2.24937 2.81843 0
M  V30 6602 O 629.831 -3.3073 2.46356 0
M  V30 6603 H 629.172 -0.35078 0.563781 0
M  V30 6604 H 631.702 -0.499401 1.98412 0
M  V30 6605 H 631.712 -2.69512 3.06312 0
M  V30 6606 H 630.387 -1.77742 3.76006 0
M  V30 6607 H 628.964 -2.9154 2.32505 0
M  V30 6608 N 631.149 -1.42148 -0.680565 0
M  V30 6609 C 632.426 -1.32795 -1.43614 0
M  V30 6610 C 632.806 0.037415 -2.11067 0
M  V30 6611 O 632.154 1.05258 -2.02813 0
M  V30 6612 C 632.364 -2.49206 -2.44331 0
M  V30 6613 C 633.712 -2.91059 -3.09144 0
M  V30 6614 O 634.736 -2.49054 -2.54657 0
M  V30 6615 O 633.595 -3.63741 -4.07866 0
M  V30 6616 H 630.689 -0.523397 -0.640301 0
M  V30 6617 H 633.235 -1.54144 -0.709775 0
M  V30 6618 H 632.007 -3.40252 -1.93247 0
M  V30 6619 H 631.63 -2.29813 -3.24456 0
M  V30 6620 N 632.627 0.916307 -1.28225 0
M  V30 6621 C 633.574 2.01841 -1.11932 0
M  V30 6622 C 634.544 1.66091 -0.0171604 0
M  V30 6623 O 635.729 1.89934 -0.181617 0
M  V30 6624 C 632.869 3.36065 -0.784504 0
M  V30 6625 C 631.982 3.847 -1.96544 0
M  V30 6626 C 631.117 5.07423 -1.57149 0
M  V30 6627 C 630.156 5.48384 -2.71922 0
M  V30 6628 N 629.293 6.62298 -2.33037 0
M  V30 6629 H 634.133 2.1511 -2.06232 0
M  V30 6630 H 631.67 1.05366 -1.02647 0
M  V30 6631 H 633.628 4.13272 -0.571148 0
M  V30 6632 H 632.258 3.22571 0.121565 0
M  V30 6633 H 631.31 3.03673 -2.291 0
M  V30 6634 H 632.622 4.1102 -2.82603 0
M  V30 6635 H 631.776 5.92165 -1.32004 0
M  V30 6636 H 630.515 4.82906 -0.682153 0
M  V30 6637 H 629.52 4.62184 -2.97768 0
M  V30 6638 H 630.745 5.7489 -3.61494 0
M  V30 6639 H 628.691 6.39416 -1.4657 0
M  V30 6640 H 628.608 6.8833 -3.12631 0
M  V30 6641 H 629.876 7.50352 -2.11169 0
M  V30 6642 N 634.105 1.10431 1.1244 0
M  V30 6643 C 635.516 0.864439 1.65482 0
M  V30 6644 C 635.867 -0.60527 1.8663 0
M  V30 6645 O 634.992 -1.46492 1.59276 0
M  V30 6646 C 635.587 1.56267 3.0061 0
M  V30 6647 C 634.146 1.3695 3.50602 0
M  V30 6648 C 633.293 1.61209 2.25626 0
M  V30 6649 H 636.244 1.26203 0.962209 0
M  V30 6650 H 636.265 1.00166 3.67079 0
M  V30 6651 H 635.777 2.63231 2.85186 0
M  V30 6652 H 633.878 0.321481 3.71211 0
M  V30 6653 H 633.991 2.11143 4.30064 0
M  V30 6654 H 632.355 1.03482 2.32731 0
M  V30 6655 H 633.138 2.69425 2.12756 0
M  V30 6656 N 635.583 -1.29855 0.893053 0
M  V30 6657 C 636.513 -2.3035 0.382249 0
M  V30 6658 C 637.494 -1.61328 -0.539203 0
M  V30 6659 O 638.679 -1.88882 -0.451342 0
M  V30 6660 C 635.809 -3.45024 -0.396983 0
M  V30 6661 C 634.763 -4.258 0.433437 0
M  V30 6662 C 634.089 -5.32605 -0.472889 0
M  V30 6663 C 635.389 -4.94549 1.67984 0
M  V30 6664 H 637.083 -2.73325 1.22205 0
M  V30 6665 H 634.629 -1.314 0.589073 0
M  V30 6666 H 636.582 -4.14398 -0.765024 0
M  V30 6667 H 635.306 -3.00875 -1.2705 0
M  V30 6668 H 633.965 -3.58125 0.783723 0
M  V30 6669 H 633.613 -4.84702 -1.34435 0
M  V30 6670 H 633.313 -5.87547 0.0789958 0
M  V30 6671 H 634.837 -6.04832 -0.837269 0
M  V30 6672 H 636.251 -5.56395 1.38192 0
M  V30 6673 H 634.648 -5.59393 2.17254 0
M  V30 6674 H 635.718 -4.20215 2.41965 0
M  V30 6675 N 637.061 -0.65484 -1.43351 0
M  V30 6676 C 638.011 0.0581325 -2.27926 0
M  V30 6677 C 638.995 0.793188 -1.3999 0
M  V30 6678 O 640.187 0.675387 -1.63608 0
M  V30 6679 C 637.316 1.02272 -3.27712 0
M  V30 6680 C 636.402 0.286048 -4.23134 0
M  V30 6681 N 636.793 -0.698298 -5.00957 0
M  V30 6682 C 635.091 0.527272 -4.42872 0
M  V30 6683 C 635.792 -1.1357 -5.70506 0
M  V30 6684 N 634.768 -0.469631 -5.41568 0
M  V30 6685 H 638.57 -0.697182 -2.85511 0
M  V30 6686 H 636.084 -0.482252 -1.55074 0
M  V30 6687 H 638.081 1.5483 -3.87083 0
M  V30 6688 H 636.741 1.77807 -2.71688 0
M  V30 6689 H 637.752 -1.07708 -5.06576 0
M  V30 6690 H 634.429 1.26367 -3.97916 0
M  V30 6691 H 635.819 -1.95027 -6.42973 0
M  V30 6692 N 638.539 1.52521 -0.396863 0
M  V30 6693 C 639.787 2.01274 0.182536 0
M  V30 6694 C 640.108 1.28485 1.46685 0
M  V30 6695 O 639.378 0.407134 1.91623 0
M  V30 6696 H 637.958 0.743671 0.0704442 0
M  V30 6697 H 640.62 1.87547 -0.530289 0
M  V30 6698 H 639.716 3.09687 0.387385 0
M  V30 6699 N 640.017 0.126909 1.57088 0
M  V30 6700 C 640.927 -0.833867 2.1928 0
M  V30 6701 C 641.943 -1.2868 1.17122 0
M  V30 6702 O 643.119 -1.34815 1.49622 0
M  V30 6703 C 640.184 -2.0632 2.78627 0
M  V30 6704 C 639.245 -1.66143 3.95847 0
M  V30 6705 C 638.478 -2.83217 4.52354 0
M  V30 6706 O 638.701 -3.98868 4.0775 0
M  V30 6707 O 637.635 -2.59846 5.42922 0
M  V30 6708 H 641.461 -0.334564 3.01852 0
M  V30 6709 H 639.046 -0.0991091 1.49071 0
M  V30 6710 H 640.928 -2.78304 3.16425 0
M  V30 6711 H 639.603 -2.55242 1.99082 0
M  V30 6712 H 638.51 -0.912435 3.62802 0
M  V30 6713 H 639.843 -1.21957 4.76852 0
M  V30 6714 N 641.495 -1.56914 -0.146875 0
M  V30 6715 C 642.744 -1.82546 -0.857898 0
M  V30 6716 C 643.057 -0.708169 -1.8233 0
M  V30 6717 O 644.263 -0.850093 -2.57848 0
M  V30 6718 C 642.719 -3.23548 -1.57623 0
M  V30 6719 C 642.327 -4.43212 -0.653224 0
M  V30 6720 C 644.071 -3.58453 -2.27402 0
M  V30 6721 C 641.978 -5.75237 -1.37318 0
M  V30 6722 H 640.908 -0.680786 -0.32411 0
M  V30 6723 H 643.559 -1.83166 -0.110639 0
M  V30 6724 H 641.941 -3.17315 -2.36912 0
M  V30 6725 H 643.115 -4.60682 0.104452 0
M  V30 6726 H 641.43 -4.16351 -0.0638336 0
M  V30 6727 H 644.027 -4.54349 -2.81907 0
M  V30 6728 H 644.37 -2.84516 -3.03901 0
M  V30 6729 H 644.903 -3.66347 -1.55032 0
M  V30 6730 H 641.642 -6.52269 -0.650041 0
M  V30 6731 H 641.162 -5.61703 -2.10357 0
M  V30 6732 H 642.841 -6.18039 -1.91406 0
M  V30 6733 N 642.974 0.416227 -1.52004 0
M  V30 6734 C 643.921 1.50666 -1.74838 0
M  V30 6735 C 644.891 1.55245 -0.590599 0
M  V30 6736 O 646.076 1.71928 -0.827374 0
M  V30 6737 C 643.216 2.88185 -1.89851 0
M  V30 6738 C 642.329 2.92971 -3.17478 0
M  V30 6739 C 641.464 4.21745 -3.22962 0
M  V30 6740 C 640.503 4.20478 -4.4482 0
M  V30 6741 N 639.64 5.40811 -4.47736 0
M  V30 6742 H 644.48 1.30498 -2.67907 0
M  V30 6743 H 642.017 0.633568 -1.32757 0
M  V30 6744 H 643.975 3.68007 -1.96537 0
M  V30 6745 H 642.605 3.06865 -1.00169 0
M  V30 6746 H 641.657 2.05684 -3.19997 0
M  V30 6747 H 642.969 2.87899 -4.07328 0
M  V30 6748 H 642.123 5.09954 -3.28682 0
M  V30 6749 H 640.862 4.29503 -2.31038 0
M  V30 6750 H 639.867 3.30659 -4.39254 0
M  V30 6751 H 641.092 4.14366 -5.38031 0
M  V30 6752 H 639.038 5.4925 -3.58692 0
M  V30 6753 H 638.955 5.37705 -5.31422 0
M  V30 6754 H 640.223 6.30993 -4.57676 0
M  V30 6755 N 644.452 1.42507 0.673017 0
M  V30 6756 C 645.382 1.48916 1.79851 0
M  V30 6757 C 646.363 0.345566 1.66553 0
M  V30 6758 O 647.548 0.560116 1.85947 0
M  V30 6759 C 644.678 1.39258 3.18158 0
M  V30 6760 C 643.632 2.51662 3.46194 0
M  V30 6761 C 642.958 2.27062 4.84094 0
M  V30 6762 C 644.258 3.93968 3.42909 0
M  V30 6763 H 645.952 2.43114 1.74745 0
M  V30 6764 H 643.498 1.17013 0.839288 0
M  V30 6765 H 645.451 1.42349 3.96629 0
M  V30 6766 H 644.175 0.415542 3.23946 0
M  V30 6767 H 642.834 2.47891 2.70084 0
M  V30 6768 H 642.482 1.27648 4.86534 0
M  V30 6769 H 642.182 3.02398 5.03815 0
M  V30 6770 H 643.706 2.31905 5.64847 0
M  V30 6771 H 645.12 3.99332 4.11347 0
M  V30 6772 H 643.517 4.6917 3.74165 0
M  V30 6773 H 644.587 4.20512 2.41449 0
M  V30 6774 N 645.93 -0.909495 1.28709 0
M  V30 6775 C 647.341 -1.47419 1.14563 0
M  V30 6776 C 647.692 -1.94432 -0.262832 0
M  V30 6777 O 646.817 -1.82842 -1.15748 0
M  V30 6778 C 647.412 -2.67933 2.07358 0
M  V30 6779 C 645.971 -3.20568 1.97264 0
M  V30 6780 C 645.118 -1.93269 1.98852 0
M  V30 6781 H 648.069 -0.721787 1.41336 0
M  V30 6782 H 648.09 -3.43339 1.64007 0
M  V30 6783 H 647.602 -2.33685 3.09859 0
M  V30 6784 H 645.703 -3.59531 0.978157 0
M  V30 6785 H 645.816 -3.85529 2.84436 0
M  V30 6786 H 644.18 -2.10553 1.43317 0
M  V30 6787 H 644.963 -1.61312 3.0304 0
M  V30 6788 N 647.408 -1.11026 -1.11852 0
M  V30 6789 C 648.656 -0.854769 -1.83134 0
M  V30 6790 C 648.977 0.621375 -1.84835 0
M  V30 6791 O 648.247 1.45129 -1.31584 0
M  V30 6792 H 646.827 -0.313229 -0.678157 0
M  V30 6793 H 649.489 -1.40178 -1.35411 0
M  V30 6794 H 648.585 -1.22311 -2.87135 0
M  V30 6795 N 648.886 1.2938 -0.899927 0
M  V30 6796 C 649.818 2.26737 -0.335139 0
M  V30 6797 C 650.831 1.54316 0.518681 0
M  V30 6798 O 652.02 1.75313 0.335803 0
M  V30 6799 C 649.12 3.34558 0.540774 0
M  V30 6800 C 648.293 4.36455 -0.287372 0
M  V30 6801 C 647.352 5.2361 0.52141 0
M  V30 6802 O 646.378 5.69167 -0.0611735 0
M  V30 6803 N 647.58 5.50985 1.82745 0
M  V30 6804 H 650.345 2.75838 -1.17191 0
M  V30 6805 H 647.906 1.42716 -0.764438 0
M  V30 6806 H 649.898 3.89794 1.08825 0
M  V30 6807 H 648.468 2.85272 1.27823 0
M  V30 6808 H 647.688 3.80875 -1.01626 0
M  V30 6809 H 648.976 5.01573 -0.854518 0
M  V30 6810 H 648.374 5.15781 2.32349 0
M  V30 6811 H 646.931 6.09036 2.32204 0
M  V30 6812 N 650.364 0.662433 1.43002 0
M  V30 6813 C 651.327 -0.0142016 2.29196 0
M  V30 6814 C 652.327 -0.741394 1.42688 0
M  V30 6815 O 653.517 -0.581257 1.64216 0
M  V30 6816 C 650.649 -1.03084 3.24941 0
M  V30 6817 H 651.842 0.7443 2.90517 0
M  V30 6818 H 649.395 0.424133 1.50435 0
M  V30 6819 H 650.13 -1.81826 2.68533 0
M  V30 6820 H 649.915 -0.512946 3.8873 0
M  V30 6821 H 651.405 -1.50308 3.89612 0
M  V30 6822 N 651.842 -1.52309 0.404946 0
M  V30 6823 C 652.79 -2.28452 -0.437321 0
M  V30 6824 C 653.784 -1.32975 -1.04948 0
M  V30 6825 O 654.99 -1.50451 -0.988159 0
M  V30 6826 H 651.365 -0.734824 -0.159805 0
M  V30 6827 H 653.336 -2.97542 0.22615 0
M  V30 6828 C 652.085 -3.11536 -1.54404 0
M  V30 6829 H 651.408 -3.84871 -1.08233 0
M  V30 6830 H 652.848 -3.67926 -2.10729 0
M  V30 6831 C 651.307 -2.24833 -2.50902 0
M  V30 6832 O 651.837 -1.88574 -3.54687 0
M  V30 6833 N 650.043 -1.88685 -2.21012 0
M  V30 6834 H 649.59 -2.18371 -1.36646 0
M  V30 6835 H 649.548 -1.30966 -2.85824 0
M  V30 6836 N 653.32 -0.135238 -1.57019 0
M  V30 6837 C 654.736 0.221262 -1.58059 0
M  V30 6838 C 654.936 1.65538 -1.14889 0
M  V30 6839 O 653.992 2.37985 -0.843751 0
M  V30 6840 C 655.305 -0.0268114 -3.00688 0
M  V30 6841 C 656.853 0.0378206 -3.12977 0
M  V30 6842 C 657.328 -0.182769 -4.57635 0
M  V30 6843 N 658.819 -0.129292 -4.6302 0
M  V30 6844 C 659.554 -0.274648 -5.72742 0
M  V30 6845 N 659.05 -0.477075 -6.91155 0
M  V30 6846 N 660.843 -0.213077 -5.61696 0
M  V30 6847 H 652.994 -1.07177 -1.83376 0
M  V30 6848 H 655.257 -0.423338 -0.848227 0
M  V30 6849 H 654.963 -1.01889 -3.36618 0
M  V30 6850 H 654.837 0.697863 -3.70688 0
M  V30 6851 H 657.224 1.02043 -2.76896 0
M  V30 6852 H 657.305 -0.718996 -2.45487 0
M  V30 6853 H 656.949 -1.16243 -4.94419 0
M  V30 6854 H 656.879 0.59423 -5.23237 0
M  V30 6855 H 659.37 0.0229896 -3.77893 0
M  V30 6856 H 659.683 -0.578413 -7.70632 0
M  V30 6857 H 658.028 -0.513252 -6.93102 0
M  V30 6858 H 661.219 -0.0557796 -4.68067 0
M  V30 6859 H 661.392 -0.329796 -6.4716 0
M  V30 6860 N 654.798 1.5699 0.138552 0
M  V30 6861 C 656.045 1.83809 0.849732 0
M  V30 6862 C 656.373 0.717409 1.80786 0
M  V30 6863 O 655.628 -0.292897 1.93496 0
M  V30 6864 C 655.927 3.17007 1.65049 0
M  V30 6865 C 655.593 4.43037 0.838398 0
M  V30 6866 C 654.255 4.77262 0.614385 0
M  V30 6867 C 656.607 5.20495 0.271044 0
M  V30 6868 C 653.935 5.864 -0.187552 0
M  V30 6869 C 656.287 6.30476 -0.517979 0
M  V30 6870 C 654.951 6.63245 -0.75249 0
M  V30 6871 H 654.221 0.672605 0.310939 0
M  V30 6872 H 656.868 1.91166 0.112971 0
M  V30 6873 H 655.173 3.05138 2.4576 0
M  V30 6874 H 656.87 3.34975 2.20437 0
M  V30 6875 H 653.46 4.16211 1.02307 0
M  V30 6876 H 657.644 4.94422 0.431371 0
M  V30 6877 H 652.9 6.10226 -0.378659 0
M  V30 6878 H 657.074 6.89686 -0.964694 0
M  V30 6879 H 654.701 7.47648 -1.37573 0
M  V30 6880 N 656.276 -0.40816 1.52223 0
M  V30 6881 C 657.506 -1.17501 1.69932 0
M  V30 6882 C 657.914 -1.84729 0.408874 0
M  V30 6883 O 657.257 -1.7274 -0.625025 0
M  V30 6884 C 657.319 -2.27994 2.77955 0
M  V30 6885 C 656.983 -1.80894 4.19674 0
M  V30 6886 C 657.98 -1.29618 5.03483 0
M  V30 6887 C 655.665 -1.87698 4.65913 0
M  V30 6888 C 657.659 -0.857695 6.31603 0
M  V30 6889 C 655.346 -1.43461 5.94022 0
M  V30 6890 C 656.344 -0.925822 6.76696 0
M  V30 6891 O 656.032 -0.489841 8.02406 0
M  V30 6892 H 655.764 -0.359065 0.572755 0
M  V30 6893 H 658.318 -0.486188 1.99563 0
M  V30 6894 H 656.548 -3.00243 2.43703 0
M  V30 6895 H 658.237 -2.89749 2.84254 0
M  V30 6896 H 659.003 -1.23733 4.68951 0
M  V30 6897 H 654.882 -2.26244 4.01665 0
M  V30 6898 H 658.426 -0.459879 6.96083 0
M  V30 6899 H 654.323 -1.49026 6.28062 0
M  V30 6900 H 655.091 -0.613062 8.16201 0
M  V30 6901 N 657.755 -1.42862 -0.66545 0
M  V30 6902 C 658.665 -1.49491 -1.80803 0
M  V30 6903 C 659.681 -0.382914 -1.69734 0
M  V30 6904 O 660.857 -0.635223 -1.9112 0
M  V30 6905 C 657.922 -1.40383 -3.17007 0
M  V30 6906 C 656.983 -2.62152 -3.39963 0
M  V30 6907 C 656.216 -2.53469 -4.69669 0
M  V30 6908 O 656.439 -1.57568 -5.48205 0
M  V30 6909 O 655.373 -3.43763 -4.94075 0
M  V30 6910 H 659.199 -2.45949 -1.78165 0
M  V30 6911 H 656.784 -1.24728 -0.822387 0
M  V30 6912 H 658.666 -1.377 -3.98267 0
M  V30 6913 H 657.341 -0.470546 -3.20262 0
M  V30 6914 H 656.248 -2.70409 -2.58515 0
M  V30 6915 H 657.581 -3.54411 -3.41546 0
M  V30 6916 N 659.233 0.902656 -1.29189 0
M  V30 6917 C 660.481 1.6496 -1.16758 0
M  V30 6918 C 660.802 1.92952 0.28188 0
M  V30 6919 O 660.072 1.55351 1.19344 0
M  V30 6920 H 658.652 0.611447 -0.429118 0
M  V30 6921 H 661.314 1.0825 -1.62074 0
M  V30 6922 H 660.41 2.60728 -1.71544 0
M  V30 6923 N 660.711 1.11618 1.11262 0
M  V30 6924 C 661.674 0.779447 2.15539 0
M  V30 6925 C 662.674 -0.202081 1.59525 0
M  V30 6926 O 663.864 0.0226356 1.74185 0
M  V30 6927 C 660.996 0.15674 3.40539 0
M  V30 6928 H 662.189 1.70324 2.4684 0
M  V30 6929 H 659.742 0.918298 1.26479 0
M  V30 6930 H 660.477 -0.777186 3.1485 0
M  V30 6931 H 660.262 0.863308 3.82478 0
M  V30 6932 H 661.752 -0.062661 4.17553 0
M  V30 6933 N 662.189 -1.289 0.906776 0
M  V30 6934 C 663.438 -1.9455 0.532262 0
M  V30 6935 C 663.751 -1.72219 -0.927353 0
M  V30 6936 O 664.957 -2.32033 -1.40971 0
M  V30 6937 C 663.413 -3.48438 0.901041 0
M  V30 6938 C 663.021 -3.79558 2.37991 0
M  V30 6939 C 664.765 -4.20284 0.596777 0
M  V30 6940 C 662.672 -5.26723 2.68918 0
M  V30 6941 H 661.602 -0.728259 0.195333 0
M  V30 6942 H 664.253 -1.46519 1.10474 0
M  V30 6943 H 662.635 -3.95162 0.257419 0
M  V30 6944 H 663.809 -3.43668 3.06967 0
M  V30 6945 H 662.124 -3.20868 2.65391 0
M  V30 6946 H 664.721 -5.28612 0.8046 0
M  V30 6947 H 665.064 -4.13694 -0.465072 0
M  V30 6948 H 665.597 -3.79315 1.19855 0
M  V30 6949 H 662.336 -5.38384 3.73928 0
M  V30 6950 H 661.856 -5.63836 2.04571 0
M  V30 6951 H 663.535 -5.94391 2.55555 0
M  V30 6952 N 663.667 -0.670007 -1.42649 0
M  V30 6953 C 664.892 -0.196955 -2.06463 0
M  V30 6954 C 665.317 1.1352 -1.49983 0
M  V30 6955 O 664.675 1.705 -0.616397 0
M  V30 6956 C 664.723 -0.137381 -3.60338 0
M  V30 6957 O 663.827 0.895523 -4.02559 0
M  V30 6958 H 663.168 -0.102579 -0.656029 0
M  V30 6959 H 665.698 -0.917669 -1.82866 0
M  V30 6960 H 665.708 0.0403625 -4.0798 0
M  V30 6961 H 664.383 -1.10977 -4.0082 0
M  V30 6962 H 662.96 0.689209 -3.66476 0
M  V30 6963 N 665.145 1.52092 -0.413018 0
M  V30 6964 C 666.055 2.30858 0.417318 0
M  V30 6965 C 667.071 1.38746 1.05003 0
M  V30 6966 O 668.247 1.71821 1.05069 0
M  V30 6967 C 665.312 3.11756 1.51687 0
M  V30 6968 C 664.373 4.19613 0.906825 0
M  V30 6969 C 663.606 4.96644 1.95399 0
M  V30 6970 O 663.829 4.7402 3.17271 0
M  V30 6971 O 662.763 5.81385 1.55805 0
M  V30 6972 H 666.589 3.02865 -0.225028 0
M  V30 6973 H 664.174 1.48358 -0.176126 0
M  V30 6974 H 666.056 3.62122 2.15512 0
M  V30 6975 H 664.731 2.42539 2.14375 0
M  V30 6976 H 663.638 3.73385 0.231183 0
M  V30 6977 H 664.971 4.91134 0.323814 0
M  V30 6978 N 666.623 0.143563 1.56945 0
M  V30 6979 C 667.573 -0.809115 2.1316 0
M  V30 6980 C 668.557 -1.21176 1.05855 0
M  V30 6981 O 669.749 -1.17875 1.3204 0
M  V30 6982 C 666.878 -2.04957 2.75405 0
M  V30 6983 C 665.964 -1.67018 3.89828 0
M  V30 6984 N 666.355 -0.998822 4.9584 0
M  V30 6985 C 664.653 -1.96313 4.00471 0
M  V30 6986 C 665.354 -0.816217 5.75945 0
M  V30 6987 N 664.33 -1.349 5.26596 0
M  V30 6988 H 668.132 -0.286919 2.92496 0
M  V30 6989 H 665.646 -0.0580948 1.62296 0
M  V30 6990 H 667.643 -2.74201 3.14037 0
M  V30 6991 H 666.303 -2.57697 1.97541 0
M  V30 6992 H 667.314 -0.659975 5.13678 0
M  V30 6993 H 663.991 -2.50927 3.33679 0
M  V30 6994 H 665.381 -0.287353 6.71285 0
M  V30 6995 N 668.101 -1.57061 -0.130224 0
M  V30 6996 C 669.031 -2.02552 -1.16168 0
M  V30 6997 C 670.012 -0.907971 -1.4384 0
M  V30 6998 O 671.197 -1.17693 -1.54473 0
M  V30 6999 C 668.327 -2.42035 -2.49071 0
M  V30 7000 C 667.281 -3.5713 -2.35886 0
M  V30 7001 C 666.607 -3.82478 -3.7365 0
M  V30 7002 C 667.907 -4.89236 -1.8288 0
M  V30 7003 H 669.601 -2.8897 -0.783359 0
M  V30 7004 H 667.147 -1.39021 -0.375376 0
M  V30 7005 H 669.1 -2.72462 -3.21469 0
M  V30 7006 H 667.824 -1.52573 -2.88771 0
M  V30 7007 H 666.483 -3.26895 -1.65938 0
M  V30 7008 H 666.131 -2.9024 -4.10816 0
M  V30 7009 H 665.831 -4.59944 -3.65685 0
M  V30 7010 H 667.355 -4.15347 -4.47571 0
M  V30 7011 H 668.769 -5.18272 -2.45085 0
M  V30 7012 H 667.166 -5.70624 -1.85763 0
M  V30 7013 H 668.236 -4.78494 -0.785571 0
M  V30 7014 N 669.579 0.400081 -1.52437 0
M  V30 7015 C 670.511 1.50729 -1.72666 0
M  V30 7016 C 671.524 1.51058 -0.607075 0
M  V30 7017 O 672.713 1.5516 -0.88248 0
M  V30 7018 C 669.813 2.89604 -1.76019 0
M  V30 7019 C 668.986 3.13365 -3.05157 0
M  V30 7020 C 668.045 4.32163 -3.00203 0
M  V30 7021 O 667.071 4.29004 -3.74092 0
M  V30 7022 N 668.273 5.3776 -2.18619 0
M  V30 7023 H 671.038 1.33767 -2.68191 0
M  V30 7024 H 668.599 0.58948 -1.50787 0
M  V30 7025 H 670.591 3.67159 -1.70225 0
M  V30 7026 H 669.161 2.99979 -0.879284 0
M  V30 7027 H 668.381 2.23774 -3.24529 0
M  V30 7028 H 669.669 3.26089 -3.90568 0
M  V30 7029 H 669.067 5.43177 -1.58035 0
M  V30 7030 H 667.624 6.14023 -2.18674 0
M  V30 7031 N 671.057 1.43213 0.657864 0
M  V30 7032 C 672.306 1.43871 1.41365 0
M  V30 7033 C 672.619 0.064898 1.95492 0
M  V30 7034 O 673.825 -0.0510796 2.71452 0
M  V30 7035 C 672.281 2.53158 2.55811 0
M  V30 7036 C 671.889 3.96624 2.08311 0
M  V30 7037 C 673.633 2.63004 3.3321 0
M  V30 7038 C 671.54 4.97385 3.1994 0
M  V30 7039 H 670.47 0.535174 0.531136 0
M  V30 7040 H 673.121 1.69185 0.710543 0
M  V30 7041 H 671.503 2.21037 3.2857 0
M  V30 7042 H 672.677 4.38182 1.42593 0
M  V30 7043 H 670.992 3.90781 1.43804 0
M  V30 7044 H 673.589 3.3546 4.16378 0
M  V30 7045 H 673.932 1.67918 3.80932 0
M  V30 7046 H 674.465 2.94403 2.67529 0
M  V30 7047 H 671.204 5.94007 2.77192 0
M  V30 7048 H 670.724 4.60444 3.84385 0
M  V30 7049 H 672.403 5.19877 3.85145 0
M  V30 7050 N 672.536 -0.895792 1.29666 0
M  V30 7051 C 673.784 -1.64339 1.17631 0
M  V30 7052 C 674.105 -1.93099 -0.271643 0
M  V30 7053 O 673.375 -1.55981 -1.18518 0
M  V30 7054 H 671.955 -0.609162 0.432354 0
M  V30 7055 H 674.617 -1.07389 1.62646 0
M  V30 7056 H 673.713 -2.59815 1.72924 0
M  V30 7057 N 674.014 -1.12206 -1.10668 0
M  V30 7058 C 675.263 -0.870595 -1.81944 0
M  V30 7059 C 675.576 0.605447 -1.85994 0
M  V30 7060 O 676.782 0.973433 -2.53449 0
M  V30 7061 C 675.238 -1.50783 -3.26791 0
M  V30 7062 C 674.846 -3.01849 -3.31046 0
M  V30 7063 C 676.59 -1.33653 -4.02911 0
M  V30 7064 C 674.497 -3.58518 -4.70339 0
M  V30 7065 H 673.427 -0.322043 -0.681765 0
M  V30 7066 H 676.078 -1.34827 -1.24475 0
M  V30 7067 H 674.46 -0.957825 -3.84242 0
M  V30 7068 H 675.634 -3.63321 -2.83433 0
M  V30 7069 H 673.949 -3.18346 -2.68411 0
M  V30 7070 H 676.546 -1.73416 -5.05797 0
M  V30 7071 H 676.889 -0.279949 -4.15358 0
M  V30 7072 H 677.422 -1.85562 -3.51868 0
M  V30 7073 H 674.161 -4.63925 -4.63091 0
M  V30 7074 H 673.681 -3.01819 -5.18329 0
M  V30 7075 H 675.36 -3.57434 -5.39305 0
M  V30 7076 N 675.492 1.28418 -0.913599 0
M  V30 7077 C 676.908 1.47411 -0.611728 0
M  V30 7078 C 677.108 1.83018 0.843008 0
M  V30 7079 O 676.164 1.93505 1.6221 0
M  V30 7080 C 677.477 2.57703 -1.5495 0
M  V30 7081 C 679.025 2.71572 -1.5562 0
M  V30 7082 C 679.5 3.85008 -2.48058 0
M  V30 7083 N 680.991 3.92361 -2.46184 0
M  V30 7084 C 681.726 4.79516 -3.14407 0
M  V30 7085 N 681.222 5.71262 -3.91958 0
M  V30 7086 N 683.015 4.73125 -3.03495 0
M  V30 7087 H 675.166 1.03585 -1.85429 0
M  V30 7088 H 677.429 0.515907 -0.795326 0
M  V30 7089 H 677.135 2.38298 -2.58663 0
M  V30 7090 H 677.009 3.54801 -1.28048 0
M  V30 7091 H 679.396 2.90366 -0.526441 0
M  V30 7092 H 679.477 1.75006 -1.86565 0
M  V30 7093 H 679.121 3.66969 -3.51136 0
M  V30 7094 H 679.051 4.80971 -2.14416 0
M  V30 7095 H 681.542 3.26749 -1.89851 0
M  V30 7096 H 681.855 6.34593 -4.41034 0
M  V30 7097 H 680.2 5.71103 -3.96063 0
M  V30 7098 H 683.391 4.00442 -2.42413 0
M  V30 7099 H 683.564 5.40834 -3.56935 0
M  V30 7100 N 676.97 0.677563 1.42291 0
M  V30 7101 C 677.933 0.0101085 2.29198 0
M  V30 7102 C 678.933 -0.726219 1.43467 0
M  V30 7103 O 680.123 -0.563807 1.64824 0
M  V30 7104 C 677.255 -0.996316 3.26016 0
M  V30 7105 H 678.448 0.775071 2.89711 0
M  V30 7106 H 676.001 0.440065 1.49977 0
M  V30 7107 H 676.736 -1.78967 2.70446 0
M  V30 7108 H 676.521 -0.471687 3.89253 0
M  V30 7109 H 678.011 -1.46167 3.91184 0
M  V30 7110 N 678.448 -1.51871 0.421078 0
M  V30 7111 C 679.697 -2.01125 -0.152206 0
M  V30 7112 C 680.01 -1.3106 -1.45199 0
M  V30 7113 O 681.216 -1.71195 -2.10724 0
M  V30 7114 C 679.672 -3.58458 -0.3218 0
M  V30 7115 C 679.28 -4.37448 0.96659 0
M  V30 7116 C 681.024 -4.15908 -0.84973 0
M  V30 7117 C 678.931 -5.86451 0.763529 0
M  V30 7118 H 677.861 -0.751556 -0.0606565 0
M  V30 7119 H 680.512 -1.75115 0.548354 0
M  V30 7120 H 678.894 -3.80847 -1.08498 0
M  V30 7121 H 680.068 -4.26814 1.73684 0
M  V30 7122 H 678.383 -3.91373 1.42183 0
M  V30 7123 H 680.98 -5.24922 -1.01788 0
M  V30 7124 H 681.323 -3.74031 -1.82774 0
M  V30 7125 H 681.856 -3.97535 -0.145297 0
M  V30 7126 H 678.595 -6.3271 1.71344 0
M  V30 7127 H 678.115 -5.99791 0.0327889 0
M  V30 7128 H 679.794 -6.45697 0.410354 0
M  V30 7129 N 679.926 -0.151884 -1.56866 0
M  V30 7130 C 681.203 0.543328 -1.87902 0
M  V30 7131 C 681.583 1.82636 -1.05864 0
M  V30 7132 O 680.931 2.28028 -0.146868 0
M  V30 7133 C 681.141 0.804056 -3.39611 0
M  V30 7134 C 682.489 1.14267 -4.08935 0
M  V30 7135 O 683.513 0.893248 -3.44818 0
M  V30 7136 O 682.372 1.61229 -5.22176 0
M  V30 7137 H 679.466 0.277724 -0.778973 0
M  V30 7138 H 682.012 -0.188862 -1.68646 0
M  V30 7139 H 680.784 -0.103772 -3.91162 0
M  V30 7140 H 680.407 1.59025 -3.64413 0
M  V30 7141 N 681.404 1.57128 0.121893 0
M  V30 7142 C 682.334 2.03165 1.15092 0
M  V30 7143 C 683.315 0.915587 1.43356 0
M  V30 7144 O 684.5 1.1851 1.53847 0
M  V30 7145 C 681.63 2.43352 2.47784 0
M  V30 7146 C 680.584 3.58376 2.33989 0
M  V30 7147 C 679.91 3.84454 3.71617 0
M  V30 7148 C 681.21 4.90199 1.80283 0
M  V30 7149 H 682.904 2.89382 0.768023 0
M  V30 7150 H 680.45 1.39218 0.367998 0
M  V30 7151 H 682.403 2.74163 3.20019 0
M  V30 7152 H 681.127 1.54103 2.87958 0
M  V30 7153 H 679.786 3.2777 1.64202 0
M  V30 7154 H 679.434 2.92414 4.09271 0
M  V30 7155 H 679.134 4.61877 3.6324 0
M  V30 7156 H 680.658 4.17714 4.45362 0
M  V30 7157 H 682.072 5.19565 2.42333 0
M  V30 7158 H 680.469 5.71601 1.82735 0
M  V30 7159 H 681.539 4.78904 0.760184 0
M  V30 7160 N 682.882 -0.391992 1.52647 0
M  V30 7161 C 683.812 -1.48517 1.8018 0
M  V30 7162 C 684.793 -1.57039 0.653667 0
M  V30 7163 O 685.978 -1.72036 0.900962 0
M  V30 7164 C 683.108 -2.86161 1.96797 0
M  V30 7165 C 682.062 -2.92481 3.12472 0
M  V30 7166 C 681.388 -4.32546 3.14338 0
M  V30 7167 C 682.688 -2.624 4.51601 0
M  V30 7168 H 684.382 -1.25726 2.71723 0
M  V30 7169 H 681.928 -0.603387 1.30749 0
M  V30 7170 H 683.881 -3.62639 2.14641 0
M  V30 7171 H 682.605 -3.10283 1.01941 0
M  V30 7172 H 681.264 -2.18451 2.94406 0
M  V30 7173 H 680.912 -4.53703 2.1717 0
M  V30 7174 H 680.612 -4.37695 3.92042 0
M  V30 7175 H 682.136 -5.10934 3.34333 0
M  V30 7176 H 683.55 -3.28596 4.69785 0
M  V30 7177 H 681.947 -2.78903 5.3135 0
M  V30 7178 H 683.017 -1.57754 4.58521 0
M  V30 7179 N 684.36 -1.4356 -0.65026 0
M  V30 7180 C 685.776 -1.27025 -0.966269 0
M  V30 7181 C 685.976 -0.192117 -2.00582 0
M  V30 7182 O 685.032 0.428459 -2.48838 0
M  V30 7183 C 686.345 -2.63556 -1.44772 0
M  V30 7184 C 687.893 -2.71111 -1.56421 0
M  V30 7185 C 688.368 -4.08067 -2.07956 0
M  V30 7186 N 689.859 -4.10146 -2.15254 0
M  V30 7187 C 690.594 -5.12952 -2.56258 0
M  V30 7188 N 690.09 -6.26129 -2.96537 0
M  V30 7189 N 691.883 -5.00306 -2.56224 0
M  V30 7190 H 684.034 -2.12367 0.0375758 0
M  V30 7191 H 686.297 -0.946894 -0.0457782 0
M  V30 7192 H 686.003 -3.43429 -0.758271 0
M  V30 7193 H 685.877 -2.89152 -2.42221 0
M  V30 7194 H 688.264 -1.91569 -2.24467 0
M  V30 7195 H 688.345 -2.49277 -0.573967 0
M  V30 7196 H 687.989 -4.88077 -1.40511 0
M  V30 7197 H 687.919 -4.27266 -3.07817 0
M  V30 7198 H 690.41 -3.28453 -1.86887 0
M  V30 7199 H 690.723 -7.00403 -3.26582 0
M  V30 7200 H 689.068 -6.29597 -2.94334 0
M  V30 7201 H 692.259 -4.10952 -2.24135 0
M  V30 7202 H 692.432 -5.80553 -2.87857 0
M  V30 7203 N 685.838 0.888903 -1.30139 0
M  V30 7204 C 686.801 1.97576 -1.16174 0
M  V30 7205 C 687.801 1.60525 -0.094086 0
M  V30 7206 O 688.991 1.70812 -0.341889 0
M  V30 7207 C 686.123 3.3188 -0.778983 0
M  V30 7208 H 687.316 2.11393 -2.12728 0
M  V30 7209 H 684.869 1.0748 -1.1348 0
M  V30 7210 H 685.604 3.23765 0.186225 0
M  V30 7211 H 685.389 3.60141 -1.55051 0
M  V30 7212 H 686.879 4.11612 -0.704631 0
M  V30 7213 N 687.317 1.12792 1.10072 0
M  V30 7214 C 688.227 0.812369 2.20086 0
M  V30 7215 C 689.243 -0.200349 1.72843 0
M  V30 7216 O 690.419 -0.0330262 2.01373 0
M  V30 7217 C 687.484 0.275685 3.45602 0
M  V30 7218 C 686.545 1.34881 4.07561 0
M  V30 7219 C 685.778 0.837639 5.27086 0
M  V30 7220 O 686.001 -0.327224 5.69461 0
M  V30 7221 O 684.935 1.60894 5.79997 0
M  V30 7222 H 688.761 1.73133 2.49517 0
M  V30 7223 H 686.346 0.904863 1.18881 0
M  V30 7224 H 688.228 -0.0185375 4.21396 0
M  V30 7225 H 686.903 -0.615783 3.17789 0
M  V30 7226 H 685.81 1.69625 3.33434 0
M  V30 7227 H 687.143 2.21418 4.39585 0
M  V30 7228 N 688.795 -1.27931 0.920396 0
M  V30 7229 C 690.043 -1.94304 0.555906 0
M  V30 7230 C 690.364 -1.72753 -0.904519 0
M  V30 7231 O 689.634 -1.07104 -1.64029 0
M  V30 7232 H 688.214 -0.719001 0.202599 0
M  V30 7233 H 690.876 -1.55785 1.1712 0
M  V30 7234 H 689.972 -3.02806 0.755981 0
M  V30 7235 N 690.273 -0.685099 -1.4193 0
M  V30 7236 C 691.55 -0.140152 -1.95097 0
M  V30 7237 C 691.93 1.34745 -1.62502 0
M  V30 7238 O 691.278 2.08872 -0.926534 0
M  V30 7239 C 691.488 -0.420268 -3.4646 0
M  V30 7240 C 692.836 -0.342338 -4.23218 0
M  V30 7241 O 693.86 -0.354592 -3.54431 0
M  V30 7242 O 692.719 -0.293404 -5.45712 0
M  V30 7243 H 689.813 -0.00885998 -0.826953 0
M  V30 7244 H 692.359 -0.760539 -1.51703 0
M  V30 7245 H 691.131 -1.45037 -3.63428 0
M  V30 7246 H 690.754 0.231616 -3.96925 0
M  V30 7247 N 691.751 1.51645 -0.429126 0
M  V30 7248 C 693.167 1.59394 -0.080994 0
M  V30 7249 C 693.367 1.44064 1.40882 0
M  V30 7250 O 692.423 1.27771 2.17786 0
M  V30 7251 C 693.736 2.94779 -0.593773 0
M  V30 7252 C 695.284 3.08067 -0.553494 0
M  V30 7253 C 695.759 4.45963 -1.04311 0
M  V30 7254 N 697.25 4.5226 -1.00076 0
M  V30 7255 C 697.985 5.57268 -1.35056 0
M  V30 7256 N 697.481 6.69734 -1.77282 0
M  V30 7257 N 699.274 5.47582 -1.26925 0
M  V30 7258 H 691.425 1.59856 -1.39857 0
M  V30 7259 H 693.688 0.753095 -0.575805 0
M  V30 7260 H 693.394 3.11342 -1.63583 0
M  V30 7261 H 693.268 3.77197 -0.0142202 0
M  V30 7262 H 695.655 2.91177 0.479556 0
M  V30 7263 H 695.736 2.27508 -1.16935 0
M  V30 7264 H 695.38 4.63598 -2.07459 0
M  V30 7265 H 695.31 5.25049 -0.403873 0
M  V30 7266 H 697.801 3.71537 -0.690564 0
M  V30 7267 H 698.114 7.4587 -2.02232 0
M  V30 7268 H 696.459 6.70963 -1.81202 0
M  V30 7269 H 699.65 4.58604 -0.93809 0
M  V30 7270 H 699.823 6.29308 -1.54516 0
M  V30 7271 N 693.229 0.160201 1.56784 0
M  V30 7272 C 694.159 -0.770264 2.2043 0
M  V30 7273 C 695.14 -1.24736 1.15651 0
M  V30 7274 O 696.325 -1.30253 1.44041 0
M  V30 7275 C 693.455 -2.00427 2.83631 0
M  V30 7276 C 692.409 -1.66345 3.94352 0
M  V30 7277 C 691.735 -2.97119 4.4455 0
M  V30 7278 C 693.035 -0.899972 5.14488 0
M  V30 7279 H 694.729 -0.239783 2.98438 0
M  V30 7280 H 692.275 -0.113891 1.43549 0
M  V30 7281 H 694.228 -2.66012 3.26827 0
M  V30 7282 H 692.952 -2.5587 2.02973 0
M  V30 7283 H 691.611 -1.03133 3.51794 0
M  V30 7284 H 691.259 -3.5058 3.60698 0
M  V30 7285 H 690.959 -2.75073 5.19238 0
M  V30 7286 H 692.483 -3.63753 4.90425 0
M  V30 7287 H 693.897 -1.45818 5.54446 0
M  V30 7288 H 692.294 -0.778968 5.95023 0
M  V30 7289 H 693.364 0.105827 4.84785 0
M  V30 7290 N 694.707 -1.5719 -0.113559 0
M  V30 7291 C 695.657 -1.97166 -1.14497 0
M  V30 7292 C 696.641 -0.847413 -1.36776 0
M  V30 7293 O 697.833 -1.11114 -1.37777 0
M  V30 7294 C 694.962 -2.38411 -2.47013 0
M  V30 7295 C 694.048 -3.5748 -2.28185 0
M  V30 7296 N 694.439 -4.72998 -1.79182 0
M  V30 7297 C 692.737 -3.63218 -2.58821 0
M  V30 7298 C 693.438 -5.55007 -1.74191 0
M  V30 7299 N 692.414 -4.9765 -2.18735 0
M  V30 7300 H 696.216 -2.83937 -0.758733 0
M  V30 7301 H 693.73 -1.59191 -0.321234 0
M  V30 7302 H 695.727 -2.65269 -3.21618 0
M  V30 7303 H 694.387 -1.53007 -2.8639 0
M  V30 7304 H 695.398 -4.96109 -1.48649 0
M  V30 7305 H 692.075 -2.88434 -3.01847 0
M  V30 7306 H 693.465 -6.57678 -1.37512 0
M  V30 7307 N 696.185 0.383891 -1.52853 0
M  V30 7308 C 697.41 1.154 -1.7233 0
M  V30 7309 C 697.835 1.82809 -0.44298 0
M  V30 7310 O 697.193 1.71026 0.601645 0
M  V30 7311 C 697.241 2.17386 -2.87708 0
M  V30 7312 O 696.345 3.24082 -2.55038 0
M  V30 7313 H 695.686 0.335709 -0.572883 0
M  V30 7314 H 698.216 0.44662 -1.99666 0
M  V30 7315 H 698.226 2.61296 -3.1335 0
M  V30 7316 H 696.901 1.6771 -3.80587 0
M  V30 7317 H 695.478 2.85273 -2.40153 0
M  V30 7318 N 697.663 1.43903 0.642637 0
M  V30 7319 C 699.079 1.27536 0.959519 0
M  V30 7320 C 699.279 0.202751 2.00477 0
M  V30 7321 O 698.335 -0.415256 2.49062 0
M  V30 7322 C 699.648 2.6432 1.43372 0
M  V30 7323 C 701.196 2.71937 1.54981 0
M  V30 7324 C 701.671 4.09164 2.05789 0
M  V30 7325 N 703.162 4.11282 2.13076 0
M  V30 7326 C 703.897 5.14303 2.53534 0
M  V30 7327 N 703.393 6.27693 2.93212 0
M  V30 7328 N 705.186 5.01657 2.53567 0
M  V30 7329 H 697.337 2.12344 -0.0488376 0
M  V30 7330 H 699.6 0.947124 0.0407559 0
M  V30 7331 H 699.306 3.43826 0.740048 0
M  V30 7332 H 699.18 2.90432 2.40685 0
M  V30 7333 H 701.567 1.92757 2.23448 0
M  V30 7334 H 701.648 2.49578 0.560739 0
M  V30 7335 H 701.292 4.88815 1.37921 0
M  V30 7336 H 701.222 4.28893 3.05546 0
M  V30 7337 H 703.713 3.2944 1.85143 0
M  V30 7338 H 704.026 7.02125 3.22863 0
M  V30 7339 H 702.371 6.31149 2.90991 0
M  V30 7340 H 705.562 4.12134 2.21952 0
M  V30 7341 H 705.735 5.82072 2.84774 0
M  V30 7342 N 699.141 -0.881989 1.30609 0
M  V30 7343 C 700.088 -1.98803 1.17244 0
M  V30 7344 C 701.058 -1.65987 0.0611905 0
M  V30 7345 O 702.243 -1.89385 0.231911 0
M  V30 7346 C 699.383 -3.33867 0.87333 0
M  V30 7347 C 698.496 -3.79354 2.06675 0
M  V30 7348 C 697.631 -5.03078 1.70547 0
M  V30 7349 C 696.67 -5.40981 2.86366 0
M  V30 7350 N 695.807 -6.55886 2.50514 0
M  V30 7351 H 700.647 -2.09566 2.11863 0
M  V30 7352 H 698.184 -1.02607 1.05405 0
M  V30 7353 H 700.142 -4.11612 0.680519 0
M  V30 7354 H 698.772 -3.2278 -0.0359983 0
M  V30 7355 H 697.824 -2.97492 2.37071 0
M  V30 7356 H 699.136 -4.03382 2.93401 0
M  V30 7357 H 698.29 -5.88457 1.47658 0
M  V30 7358 H 697.029 -4.80927 0.809947 0
M  V30 7359 H 696.034 -4.54127 3.09917 0
M  V30 7360 H 697.259 -5.65104 3.76609 0
M  V30 7361 H 695.205 -6.35306 1.63471 0
M  V30 7362 H 695.122 -6.79799 3.30771 0
M  V30 7363 H 696.39 -7.44489 2.30989 0
M  V30 7364 N 700.619 -1.13374 -1.09472 0
M  V30 7365 C 701.549 -0.833268 -2.18126 0
M  V30 7366 C 702.53 0.207169 -1.68834 0
M  V30 7367 O 703.715 0.0662012 -1.94087 0
M  V30 7368 C 700.845 -0.297979 -3.46019 0
M  V30 7369 C 699.799 -1.27261 -4.08642 0
M  V30 7370 C 699.125 -0.597104 -5.31356 0
M  V30 7371 C 700.425 -2.63095 -4.51197 0
M  V30 7372 H 702.119 -1.74182 -2.43518 0
M  V30 7373 H 699.665 -0.838921 -1.17039 0
M  V30 7374 H 701.618 -0.0754444 -4.21332 0
M  V30 7375 H 700.342 0.645959 -3.20148 0
M  V30 7376 H 699.001 -1.48113 -3.35348 0
M  V30 7377 H 698.649 0.352293 -5.01765 0
M  V30 7378 H 698.349 -1.24734 -5.74208 0
M  V30 7379 H 699.873 -0.38384 -6.09392 0
M  V30 7380 H 701.287 -2.46214 -5.17737 0
M  V30 7381 H 699.684 -3.2429 -5.04932 0
M  V30 7382 H 700.754 -3.20793 -3.6362 0
M  V30 7383 N 702.098 1.27442 -0.927168 0
M  V30 7384 C 703.514 1.46754 -0.627329 0
M  V30 7385 C 703.714 1.83902 0.823549 0
M  V30 7386 O 702.77 1.95215 1.60148 0
M  V30 7387 C 704.083 2.56045 -1.57674 0
M  V30 7388 C 705.631 2.69906 -1.58491 0
M  V30 7389 C 706.106 3.82355 -2.52128 0
M  V30 7390 N 707.597 3.89728 -2.50332 0
M  V30 7391 C 708.332 4.76155 -3.19475 0
M  V30 7392 N 707.828 5.67073 -3.97995 0
M  V30 7393 N 709.621 4.6988 -3.08496 0
M  V30 7394 H 701.772 1.01613 -1.86517 0
M  V30 7395 H 704.035 0.507443 -0.800753 0
M  V30 7396 H 703.741 2.35542 -2.61176 0
M  V30 7397 H 703.615 3.53423 -1.31804 0
M  V30 7398 H 706.002 2.89792 -0.557208 0
M  V30 7399 H 706.083 1.73018 -1.8841 0
M  V30 7400 H 705.727 3.63224 -3.55008 0
M  V30 7401 H 705.657 4.7867 -2.19505 0
M  V30 7402 H 708.148 3.24717 -1.93306 0
M  V30 7403 H 708.461 6.2988 -4.4774 0
M  V30 7404 H 706.806 5.6687 -4.02098 0
M  V30 7405 H 709.997 3.97848 -2.46646 0
M  V30 7406 H 710.17 5.37017 -3.62652 0
M  V30 7407 N 703.576 0.692616 1.41565 0
M  V30 7408 C 704.804 0.231279 2.05603 0
M  V30 7409 C 705.219 -1.11837 1.52111 0
M  V30 7410 O 704.576 -1.6983 0.66813 0
M  V30 7411 C 704.627 0.177125 3.61066 0
M  V30 7412 O 704.348 1.47346 4.12578 0
M  V30 7413 C 705.849 -0.30556 4.42246 0
M  V30 7414 H 703.069 0.108238 0.662213 0
M  V30 7415 H 705.613 0.944369 1.81389 0
M  V30 7416 H 703.768 -0.486769 3.8433 0
M  V30 7417 H 704.182 1.35861 5.06599 0
M  V30 7418 H 705.656 -0.29233 5.51225 0
M  V30 7419 H 706.133 -1.34393 4.18133 0
M  V30 7420 H 706.739 0.327229 4.24039 0
M  V30 7421 N 705.054 -1.51416 0.437162 0
M  V30 7422 C 706.301 -2.02086 -0.129364 0
M  V30 7423 C 706.629 -1.32133 -1.42728 0
M  V30 7424 O 705.884 -0.424916 -1.91031 0
M  V30 7425 C 706.183 -3.55203 -0.39564 0
M  V30 7426 C 705.849 -4.43447 0.81644 0
M  V30 7427 C 704.511 -4.67285 1.14884 0
M  V30 7428 C 706.863 -4.95219 1.62503 0
M  V30 7429 C 704.191 -5.40141 2.29052 0
M  V30 7430 C 706.543 -5.69327 2.7577 0
M  V30 7431 C 705.207 -5.91429 3.09464 0
M  V30 7432 H 704.477 -0.739486 -0.0473375 0
M  V30 7433 H 707.124 -1.82368 0.584321 0
M  V30 7434 H 705.429 -3.73252 -1.19121 0
M  V30 7435 H 707.126 -3.91944 -0.847399 0
M  V30 7436 H 703.716 -4.2509 0.547422 0
M  V30 7437 H 707.9 -4.76686 1.38144 0
M  V30 7438 H 703.156 -5.55468 2.55471 0
M  V30 7439 H 707.33 -6.08433 3.38795 0
M  V30 7440 H 704.957 -6.47662 3.98042 0
M  V30 7441 N 706.532 -0.168513 -1.56696 0
M  V30 7442 C 707.48 0.779791 -2.19139 0
M  V30 7443 C 708.474 1.23957 -1.1546 0
M  V30 7444 O 709.68 1.20555 -1.33666 0
M  V30 7445 H 706.055 0.269739 -0.701958 0
M  V30 7446 H 708.026 0.229156 -2.97519 0
M  V30 7447 C 706.775 2.00003 -2.84419 0
M  V30 7448 H 706.098 1.65527 -3.63924 0
M  V30 7449 H 707.538 2.64251 -3.31583 0
M  V30 7450 C 705.997 2.82187 -1.84044 0
M  V30 7451 O 706.527 3.79247 -1.32418 0
M  V30 7452 N 704.733 2.47145 -1.52864 0
M  V30 7453 H 704.28 1.68277 -1.9504 0
M  V30 7454 H 704.238 3.02422 -0.859569 0
M  V30 7455 N 708.01 1.57248 0.105221 0
M  V30 7456 C 708.92 2.04653 1.14693 0
M  V30 7457 C 709.936 0.969488 1.44489 0
M  V30 7458 O 711.112 1.28196 1.55331 0
M  V30 7459 C 708.177 2.45297 2.45011 0
M  V30 7460 C 707.238 3.67148 2.22489 0
M  V30 7461 C 706.471 4.05844 3.46592 0
M  V30 7462 O 706.694 3.44736 4.54437 0
M  V30 7463 O 705.628 4.98862 3.36779 0
M  V30 7464 H 709.454 2.93663 0.774336 0
M  V30 7465 H 707.039 1.45998 0.31701 0
M  V30 7466 H 708.921 2.72112 3.21766 0
M  V30 7467 H 707.596 1.59429 2.81717 0
M  V30 7468 H 706.503 3.45463 1.43547 0
M  V30 7469 H 707.836 4.53764 1.9068 0
M  V30 7470 N 709.488 -0.375779 1.53054 0
M  V30 7471 C 710.899 -0.95309 1.6054 0
M  V30 7472 C 711.25 -1.90575 0.466446 0
M  V30 7473 O 710.375 -2.12507 -0.408609 0
M  V30 7474 C 710.97 -1.73537 2.90982 0
M  V30 7475 C 709.529 -2.26218 3.00836 0
M  V30 7476 C 708.676 -1.07157 2.55759 0
M  V30 7477 H 711.627 -0.154895 1.57942 0
M  V30 7478 H 711.648 -2.59574 2.78211 0
M  V30 7479 H 711.16 -1.04176 3.73857 0
M  V30 7480 H 709.261 -2.98852 2.22527 0
M  V30 7481 H 709.374 -2.54799 4.05727 0
M  V30 7482 H 707.738 -1.43553 2.10391 0
M  V30 7483 H 708.521 -0.393099 3.41042 0
M  V30 7484 N 710.966 -1.44241 -0.634997 0
M  V30 7485 C 712.377 -1.41622 -1.21655 0
M  V30 7486 C 712.728 -0.129584 -1.95772 0
M  V30 7487 O 711.853 0.770225 -2.02229 0
M  V30 7488 C 712.448 -2.56557 -2.21278 0
M  V30 7489 C 711.007 -2.57145 -2.7487 0
M  V30 7490 C 710.154 -2.33354 -1.49804 0
M  V30 7491 H 713.105 -1.52878 -0.425905 0
M  V30 7492 H 713.126 -2.29089 -3.03807 0
M  V30 7493 H 712.638 -3.50186 -1.67306 0
M  V30 7494 H 710.739 -1.67447 -3.32855 0
M  V30 7495 H 710.852 -3.55507 -3.21172 0
M  V30 7496 H 709.216 -1.82372 -1.77799 0
M  V30 7497 H 709.999 -3.29092 -0.977402 0
M  V30 7498 N 712.444 0.87505 -1.31075 0
M  V30 7499 C 713.691 1.62768 -1.20469 0
M  V30 7500 C 714.019 1.93034 0.23834 0
M  V30 7501 O 713.274 1.55693 1.18567 0
M  V30 7502 C 713.573 2.96948 -1.98888 0
M  V30 7503 C 713.239 2.86195 -3.4843 0
M  V30 7504 C 711.901 2.82969 -3.89207 0
M  V30 7505 C 714.253 2.73599 -4.43614 0
M  V30 7506 C 711.581 2.64999 -5.23443 0
M  V30 7507 C 713.933 2.57166 -5.77969 0
M  V30 7508 C 712.597 2.52321 -6.17973 0
M  V30 7509 H 711.867 0.595611 -0.440827 0
M  V30 7510 H 714.514 1.01665 -1.62285 0
M  V30 7511 H 712.819 3.62058 -1.49737 0
M  V30 7512 H 714.516 3.54164 -1.88067 0
M  V30 7513 H 711.106 2.8952 -3.16032 0
M  V30 7514 H 715.29 2.7515 -4.13045 0
M  V30 7515 H 710.546 2.5967 -5.53517 0
M  V30 7516 H 714.72 2.46396 -6.51354 0
M  V30 7517 H 712.347 2.38156 -7.21932 0
M  V30 7518 N 713.922 1.13953 1.08869 0
M  V30 7519 C 715.338 0.878924 1.33218 0
M  V30 7520 C 715.538 -0.482478 1.95638 0
M  V30 7521 O 714.594 -1.22778 2.2064 0
M  V30 7522 C 715.907 2.00798 2.23832 0
M  V30 7523 C 717.455 2.04073 2.37325 0
M  V30 7524 C 717.93 3.16258 3.31278 0
M  V30 7525 N 719.421 3.15805 3.38853 0
M  V30 7526 C 720.156 3.99249 4.11567 0
M  V30 7527 N 719.652 4.92721 4.87029 0
M  V30 7528 N 721.445 3.87327 4.0735 0
M  V30 7529 H 713.596 2.01645 0.66731 0
M  V30 7530 H 715.859 0.878395 0.356547 0
M  V30 7531 H 715.565 2.98986 1.85203 0
M  V30 7532 H 715.439 1.92704 3.24261 0
M  V30 7533 H 717.826 1.06495 2.75214 0
M  V30 7534 H 717.907 2.16239 1.36654 0
M  V30 7535 H 717.551 4.14079 2.9411 0
M  V30 7536 H 717.481 3.0133 4.31866 0
M  V30 7537 H 719.972 2.48102 2.8505 0
M  V30 7538 H 720.285 5.52867 5.39961 0
M  V30 7539 H 718.63 4.96723 4.86098 0
M  V30 7540 H 721.821 3.13627 3.475 0
M  V30 7541 H 721.994 4.52585 4.63757 0
M  V30 7542 O 715.439 -1.21416 1.06491 0
M  V30 7543 H 716.13 -1.7871 0.747168 0
M  V30 END ATOM
M  V30 BEGIN BOND
M  V30 END BOND
M  V30 END CTAB
M  END
$$$$
