drugbank_target|P0AEK7 Formate dehydrogenase, nitrate-inducible, cytochrome b556(Fdn) subunit (DB07918)
 OpenBabel12092120473D

  0  0  0     0  0            999 V3000
M  V30 BEGIN CTAB
M  V30 COUNTS 3639 3696 0 0 0
M  V30 BEGIN ATOM
M  V30 1 H -0.908 1.98254 -0.117106 0
M  V30 2 N 0 1.576 0 0
M  V30 3 C 0.933 2.03868 1.02534 0
M  V30 4 C 1.911 0.928543 1.3348 0
M  V30 5 O 3.095 1.19667 1.45644 0
M  V30 6 C 0.222 2.43627 2.35294 0
M  V30 7 C -0.732 3.65373 2.2001 0
M  V30 8 S 0.101 5.13292 1.52614 0
M  V30 9 C 1.257 5.56322 2.86805 0
M  V30 10 H 1.49 2.90518 0.631377 0
M  V30 11 H -0.977 1.52953 0.210867 0
M  V30 12 H 0.981 2.67203 3.11629 0
M  V30 13 H -0.358 1.57376 2.7183 0
M  V30 14 H -1.165 3.90944 3.18086 0
M  V30 15 H -1.563 3.418 1.51819 0
M  V30 16 H 0.729 5.58782 3.83104 0
M  V30 17 H 1.672 6.56266 2.65933 0
M  V30 18 H 2.08 4.83886 2.90714 0
M  V30 19 N 1.4781 -0.272755 1.55222 0
M  V30 20 C 2.7031 -1.02683 1.80197 0
M  V30 21 C 3.1281 -1.79142 0.573551 0
M  V30 22 O 2.4861 -1.74917 -0.476849 0
M  V30 23 C 2.5341 -1.9609 3.02624 0
M  V30 24 O 1.6381 -3.04863 2.77727 0
M  V30 25 H 0.9791 -0.293557 0.595584 0
M  V30 26 H 3.5091 -0.30159 2.02365 0
M  V30 27 H 3.5191 -2.38039 3.31363 0
M  V30 28 H 2.1941 -1.39851 3.91682 0
M  V30 29 H 0.7711 -2.67228 2.60084 0
M  V30 30 N 2.9562 -1.48159 -0.537278 0
M  V30 31 C 3.9032 -1.62138 -1.64256 0
M  V30 32 C 4.8732 -0.463668 -1.59497 0
M  V30 33 O 6.0582 -0.686241 -1.78032 0
M  V30 34 C 3.1982 -1.66028 -3.02537 0
M  V30 35 C 2.3112 -2.92855 -3.17585 0
M  V30 36 C 1.4462 -2.87952 -4.46382 0
M  V30 37 C 0.4852 -4.09516 -4.54932 0
M  V30 38 N -0.3778 -4.02733 -5.75109 0
M  V30 39 H 4.4622 -2.56529 -1.51647 0
M  V30 40 H 1.9992 -1.27224 -0.738414 0
M  V30 41 H 3.9572 -1.66265 -3.82638 0
M  V30 42 H 2.5872 -0.751331 -3.13934 0
M  V30 43 H 1.6392 -3.02395 -2.30784 0
M  V30 44 H 2.9512 -3.82822 -3.19764 0
M  V30 45 H 2.1052 -2.8655 -5.34765 0
M  V30 46 H 0.8442 -1.95702 -4.46712 0
M  V30 47 H -0.1508 -4.11201 -3.64957 0
M  V30 48 H 1.0742 -5.02917 -4.56346 0
M  V30 49 H -0.9798 -3.13299 -5.76351 0
M  V30 50 H -1.0628 -4.86397 -5.78752 0
M  V30 51 H 0.2052 -4.05379 -6.65799 0
M  V30 52 N 4.4343 0.785586 -1.36625 0
M  V30 53 C 5.6593 1.57963 -1.34397 0
M  V30 54 C 6.0843 1.87964 0.071526 0
M  V30 55 O 5.4423 1.48182 1.0446 0
M  V30 56 C 5.4903 2.87511 -2.17646 0
M  V30 57 O 4.5943 3.81281 -1.57158 0
M  V30 58 H 3.9353 0.479014 -0.459828 0
M  V30 59 H 6.4653 0.973411 -1.79961 0
M  V30 60 H 6.4753 3.36745 -2.30362 0
M  V30 61 H 5.1503 2.65002 -3.20541 0
M  V30 62 H 3.7273 3.39885 -1.53403 0
M  V30 63 N 5.9124 1.20967 1.01018 0
M  V30 64 C 6.8594 0.964281 2.09691 0
M  V30 65 C 7.8294 -0.107853 1.65749 0
M  V30 66 O 9.0144 0.0381987 1.90762 0
M  V30 67 C 6.1544 0.52943 3.41015 0
M  V30 68 C 5.2674 1.67043 3.98398 0
M  V30 69 C 4.4024 1.18525 5.17808 0
M  V30 70 C 3.4414 2.29892 5.67288 0
M  V30 71 N 2.5784 1.82546 6.77954 0
M  V30 72 H 7.4184 1.89463 2.30017 0
M  V30 73 H 4.9554 0.944289 1.1279 0
M  V30 74 H 6.9134 0.258588 4.16398 0
M  V30 75 H 5.5434 -0.363919 3.20742 0
M  V30 76 H 4.5954 2.05603 3.20049 0
M  V30 77 H 5.9074 2.50877 4.31117 0
M  V30 78 H 5.0614 0.870762 6.00419 0
M  V30 79 H 3.8004 0.316887 4.86669 0
M  V30 80 H 2.8054 2.6215 4.83278 0
M  V30 81 H 4.0304 3.17216 6.00459 0
M  V30 82 H 1.9764 0.980454 6.48632 0
M  V30 83 H 1.8934 2.59956 7.09901 0
M  V30 84 H 3.1614 1.54115 7.64113 0
M  V30 85 N 7.3905 -1.2043 1.01659 0
M  V30 86 C 8.3235 -2.21924 0.531521 0
M  V30 87 C 9.3015 -1.57054 -0.421032 0
M  V30 88 O 10.4855 -1.85389 -0.341035 0
M  V30 89 C 7.6125 -3.37942 -0.226496 0
M  V30 90 C 6.6585 -4.21115 0.67561 0
M  V30 91 S 7.4915 -4.90674 2.14475 0
M  V30 92 C 8.6475 -6.10113 1.3969 0
M  V30 93 H 8.8805 -2.62725 1.3915 0
M  V30 94 H 6.4135 -1.30481 0.825479 0
M  V30 95 H 8.3715 -4.05196 -0.657738 0
M  V30 96 H 7.0325 -2.956 -1.06205 0
M  V30 97 H 6.2255 -5.03918 0.091108 0
M  V30 98 H 5.8275 -3.59115 1.04463 0
M  V30 99 H 8.1195 -6.7411 0.676897 0
M  V30 100 H 9.0625 -6.73022 2.20107 0
M  V30 101 H 9.4705 -5.57283 0.899786 0
M  V30 102 N 8.8686 -0.792821 -1.36206 0
M  V30 103 C 10.1176 -0.363353 -1.984 0
M  V30 104 C 10.4306 1.07172 -1.63626 0
M  V30 105 O 11.6366 1.60362 -2.19081 0
M  V30 106 C 10.0926 -0.59872 -3.54885 0
M  V30 107 C 9.7006 -2.04543 -3.9858 0
M  V30 108 C 11.4446 -0.233926 -4.23855 0
M  V30 109 C 9.3516 -2.22727 -5.47856 0
M  V30 110 H 8.2816 -0.13212 -0.742334 0
M  V30 111 H 10.9326 -0.974935 -1.55458 0
M  V30 112 H 9.3146 0.0826222 -3.95914 0
M  V30 113 H 10.4886 -2.76345 -3.68741 0
M  V30 114 H 8.8036 -2.36879 -3.42458 0
M  V30 115 H 11.4006 -0.348027 -5.33566 0
M  V30 116 H 11.7436 0.818351 -4.08177 0
M  V30 117 H 12.2766 -0.868639 -3.882 0
M  V30 118 H 9.0156 -3.2635 -5.68486 0
M  V30 119 H 8.5356 -1.55434 -5.7931 0
M  V30 120 H 10.2146 -2.03607 -6.14128 0
M  V30 121 N 10.3467 1.47872 -0.545128 0
M  V30 122 C 11.5927 2.02793 -0.0166104 0
M  V30 123 C 11.9257 1.41987 1.32489 0
M  V30 124 O 11.2007 0.571045 1.85928 0
M  V30 125 C 11.4837 3.59989 0.0893294 0
M  V30 126 C 11.3367 4.3125 -1.27841 0
M  V30 127 C 12.6557 4.32606 0.808724 0
M  V30 128 H 9.7747 0.736962 -0.00751035 0
M  V30 129 H 12.4167 1.76433 -0.705085 0
M  V30 130 H 10.5667 3.82579 0.675681 0
M  V30 131 H 12.2387 4.20035 -1.90704 0
M  V30 132 H 10.4817 3.92076 -1.85632 0
M  V30 133 H 11.1527 5.39736 -1.15713 0
M  V30 134 H 13.6287 4.14936 0.310992 0
M  V30 135 H 12.5047 5.42251 0.851782 0
M  V30 136 H 12.7657 4.00963 1.86229 0
M  V30 137 N 11.8248 0.280983 1.55075 0
M  V30 138 C 13.2408 -0.0729964 1.59433 0
M  V30 139 C 13.4408 -1.5411 1.29817 0
M  V30 140 O 12.4968 -2.29086 1.06187 0
M  V30 141 C 13.8098 0.306921 2.9913 0
M  V30 142 C 15.3578 0.254023 3.11968 0
M  V30 143 C 15.8328 0.608467 4.5394 0
M  V30 144 N 17.3238 0.560241 4.59799 0
M  V30 145 C 18.0588 0.80722 5.6769 0
M  V30 146 N 17.5548 1.11912 6.83701 0
M  V30 147 N 19.3478 0.735623 5.57266 0
M  V30 148 H 11.4988 1.238 1.7259 0
M  V30 149 H 13.7618 0.500547 0.805082 0
M  V30 150 H 13.4678 1.32816 3.25657 0
M  V30 151 H 13.3418 -0.349363 3.75579 0
M  V30 152 H 15.7288 -0.75794 2.852 0
M  V30 153 H 15.8098 0.944649 2.37718 0
M  V30 154 H 15.4538 1.61814 4.81434 0
M  V30 155 H 15.3838 -0.104013 5.26497 0
M  V30 156 H 17.8748 0.329288 3.76463 0
M  V30 157 H 18.1878 1.29409 7.61888 0
M  V30 158 H 16.5328 1.15695 6.85303 0
M  V30 159 H 19.7238 0.491752 4.6551 0
M  V30 160 H 19.8968 0.931482 6.4127 0
M  V30 161 N 13.3029 -1.57598 0.00835791 0
M  V30 162 C 14.5309 -1.95214 -0.68549 0
M  V30 163 C 14.9459 -0.883706 -1.66841 0
M  V30 164 O 14.3029 0.136565 -1.81988 0
M  V30 165 C 14.3539 -3.32865 -1.41007 0
M  V30 166 O 14.0749 -4.35609 -0.466552 0
M  V30 167 C 15.5759 -3.84991 -2.19765 0
M  V30 168 H 12.7959 -0.643422 -0.190392 0
M  V30 169 H 15.3399 -2.04406 0.0619607 0
M  V30 170 H 13.4949 -3.24956 -2.10908 0
M  V30 171 H 13.9089 -5.15288 -0.978699 0
M  V30 172 H 15.3829 -4.8371 -2.65948 0
M  V30 173 H 15.8599 -3.18137 -3.02796 0
M  V30 174 H 16.4659 -3.96103 -1.54864 0
M  V30 175 N 14.781 0.264519 -1.55364 0
M  V30 176 C 15.728 1.32717 -1.88825 0
M  V30 177 C 16.698 1.48675 -0.740605 0
M  V30 178 O 17.883 1.62945 -0.992657 0
M  V30 179 C 15.023 2.68089 -2.17307 0
M  V30 180 C 14.136 2.60284 -3.44785 0
M  V30 181 C 13.271 3.87892 -3.62924 0
M  V30 182 C 12.31 3.74631 -4.84064 0
M  V30 183 N 11.447 4.94092 -4.98816 0
M  V30 184 H 16.287 1.03481 -2.79456 0
M  V30 185 H 13.824 0.499757 -1.3835 0
M  V30 186 H 15.782 3.46864 -2.31821 0
M  V30 187 H 14.412 2.95509 -1.299 0
M  V30 188 H 13.464 1.73173 -3.38697 0
M  V30 189 H 14.776 2.46388 -4.33698 0
M  V30 190 H 13.93 4.75109 -3.77302 0
M  V30 191 H 12.669 4.04664 -2.7221 0
M  V30 192 H 11.674 2.85797 -4.69681 0
M  V30 193 H 12.899 3.5937 -5.76221 0
M  V30 194 H 10.845 5.11259 -4.11036 0
M  V30 195 H 10.762 4.8276 -5.81789 0
M  V30 196 H 12.03 5.82857 -5.17588 0
M  V30 197 N 16.2591 1.48442 0.529413 0
M  V30 198 C 17.5061 1.56488 1.28521 0
M  V30 199 C 17.8341 0.239042 1.93025 0
M  V30 200 O 17.0891 -0.770713 1.79885 0
M  V30 201 C 17.3881 2.6523 2.39558 0
M  V30 202 C 17.0541 4.07648 1.92702 0
M  V30 203 C 15.7161 4.46411 1.79641 0
M  V30 204 C 18.0681 4.96896 1.573 0
M  V30 205 C 15.3961 5.72226 1.29514 0
M  V30 206 C 17.7481 6.23202 1.08636 0
M  V30 207 C 16.4121 6.60821 0.941919 0
M  V30 208 H 15.6821 0.572631 0.470292 0
M  V30 209 H 18.3291 1.82161 0.59072 0
M  V30 210 H 16.6341 2.33419 3.14679 0
M  V30 211 H 18.3311 2.68671 2.97686 0
M  V30 212 H 14.9211 3.77036 2.03819 0
M  V30 213 H 19.1051 4.67626 1.66251 0
M  V30 214 H 14.3611 6.00097 1.17019 0
M  V30 215 H 18.5351 6.91753 0.803136 0
M  V30 216 H 16.1621 7.58198 0.5513 0
M  V30 217 N 17.7372 -0.778329 1.37039 0
M  V30 218 C 18.9862 -1.53189 1.3121 0
M  V30 219 C 19.2992 -1.95328 -0.103095 0
M  V30 220 O 20.5052 -2.70012 -0.283826 0
M  V30 221 C 18.9612 -2.76591 2.30272 0
M  V30 222 C 18.5692 -2.41577 3.77286 0
M  V30 223 C 20.3132 -3.5455 2.33441 0
M  V30 224 C 18.2202 -3.61441 4.68096 0
M  V30 225 H 17.1502 -0.5751 0.487622 0
M  V30 226 H 19.8012 -0.853101 1.62464 0
M  V30 227 H 18.1832 -3.46326 1.92027 0
M  V30 228 H 19.3572 -1.79668 4.2433 0
M  V30 229 H 17.6722 -1.76806 3.76999 0
M  V30 230 H 20.2692 -4.43628 2.98493 0
M  V30 231 H 20.6122 -3.93936 1.34611 0
M  V30 232 H 21.1452 -2.91805 2.7036 0
M  V30 233 H 17.8842 -3.27142 5.6803 0
M  V30 234 H 17.4042 -4.22478 4.25761 0
M  V30 235 H 19.0832 -4.28335 4.8491 0
M  V30 236 N 19.2153 -1.21501 -1.00376 0
M  V30 237 C 20.4923 -0.941745 -1.71437 0
M  V30 238 C 20.8723 0.546114 -2.03914 0
M  V30 239 O 20.2203 1.51128 -1.71384 0
M  V30 240 C 20.4303 -1.82812 -2.97289 0
M  V30 241 C 21.7783 -2.07771 -3.70292 0
M  V30 242 O 22.8023 -1.80171 -3.07273 0
M  V30 243 O 21.6613 -2.54456 -4.83647 0
M  V30 244 H 18.7553 -0.353243 -0.747762 0
M  V30 245 H 21.3013 -1.32436 -1.06108 0
M  V30 246 H 20.0733 -2.83501 -2.69709 0
M  V30 247 H 19.6963 -1.4464 -3.70358 0
M  V30 248 N 20.6934 1.19889 -1.02296 0
M  V30 249 C 22.1094 1.41462 -0.738954 0
M  V30 250 C 22.3094 1.89721 0.678846 0
M  V30 251 O 21.3654 2.07016 1.4457 0
M  V30 252 C 22.6784 2.43083 -1.77005 0
M  V30 253 C 24.2264 2.5684 -1.78892 0
M  V30 254 C 24.7014 3.61709 -2.80945 0
M  V30 255 N 26.1924 3.69199 -2.79725 0
M  V30 256 C 26.9274 4.50019 -3.55345 0
M  V30 257 N 26.4234 5.34592 -4.40662 0
M  V30 258 N 28.2164 4.44612 -3.43914 0
M  V30 259 H 20.3674 0.868827 -1.93817 0
M  V30 260 H 22.6304 0.44399 -0.837602 0
M  V30 261 H 22.3364 2.14636 -2.78612 0
M  V30 262 H 22.2104 3.4217 -1.58744 0
M  V30 263 H 24.5974 2.84614 -0.779674 0
M  V30 264 H 24.6784 1.57927 -2.01228 0
M  V30 265 H 24.3224 3.34678 -3.82038 0
M  V30 266 H 24.2524 4.60259 -2.5587 0
M  V30 267 H 26.7434 3.08794 -2.17842 0
M  V30 268 H 27.0564 5.93363 -4.95116 0
M  V30 269 H 25.4014 5.34073 -4.44737 0
M  V30 270 H 28.5924 3.7758 -2.76679 0
M  V30 271 H 28.7654 5.0736 -4.031 0
M  V30 272 N 22.1715 0.800033 1.35784 0
M  V30 273 C 23.1345 0.211565 2.28221 0
M  V30 274 C 24.1345 -0.59728 1.49296 0
M  V30 275 O 25.3245 -0.416721 1.69142 0
M  V30 276 C 22.4565 -0.705846 3.33513 0
M  V30 277 H 23.6495 1.02677 2.81776 0
M  V30 278 H 21.2025 0.570211 1.45528 0
M  V30 279 H 21.9375 -1.54498 2.85133 0
M  V30 280 H 21.7225 -0.127655 3.91892 0
M  V30 281 H 23.2125 -1.11211 4.02519 0
M  V30 282 N 23.6496 -1.47581 0.552962 0
M  V30 283 C 24.8896 -2.04379 0.0296245 0
M  V30 284 C 25.2536 -1.4185 -1.29393 0
M  V30 285 O 26.4546 -1.89669 -1.90471 0
M  V30 286 C 24.7256 -3.57339 -0.0661371 0
M  V30 287 S 26.2846 -4.35511 -0.536213 0
M  V30 288 H 23.1026 -0.710625 0.0230991 0
M  V30 289 H 25.7046 -1.81005 0.738734 0
M  V30 290 H 24.4086 -4.00374 0.901596 0
M  V30 291 H 23.9396 -3.85202 -0.798931 0
M  V30 292 H 25.9546 -4.6253 -1.79668 0
M  V30 293 N 25.1277 -0.289203 -1.54924 0
M  V30 294 C 26.0777 0.606939 -2.19773 0
M  V30 295 C 27.0617 1.10783 -1.16687 0
M  V30 296 O 28.2537 1.05057 -1.4245 0
M  V30 297 C 25.3827 1.78398 -2.93307 0
M  V30 298 C 24.4687 1.29961 -4.03697 0
M  V30 299 N 24.8597 0.532377 -5.0299 0
M  V30 300 C 23.1577 1.58136 -4.17024 0
M  V30 301 C 23.8587 0.275912 -5.81045 0
M  V30 302 N 22.8347 0.852365 -5.36876 0
M  V30 303 H 26.6367 0.0130779 -2.93897 0
M  V30 304 H 24.1507 -0.09341 -1.62131 0
M  V30 305 H 26.1477 2.43741 -3.38225 0
M  V30 306 H 24.8077 2.38166 -2.20697 0
M  V30 307 H 25.8187 0.17838 -5.17593 0
M  V30 308 H 22.4957 2.18738 -3.55612 0
M  V30 309 H 23.8857 -0.339502 -6.71042 0
M  V30 310 N 26.6058 1.57591 -0.0167156 0
M  V30 311 C 27.8518 1.92399 0.659861 0
M  V30 312 C 28.2068 0.892561 1.70444 0
M  V30 313 O 27.4998 -0.0930755 1.91374 0
M  V30 314 C 27.6938 3.3172 1.33029 0
M  V30 315 C 27.5228 4.48319 0.352174 0
M  V30 316 C 26.2928 5.05281 -0.0434883 0
M  V30 317 C 28.4908 5.12831 -0.388474 0
M  V30 318 N 26.4728 6.05399 -1.01807 0
M  V30 319 C 27.8438 6.07934 -1.2172 0
M  V30 320 C 29.8988 4.95858 -0.450513 0
M  V30 321 C 28.6018 6.87891 -2.10235 0
M  V30 322 C 30.6278 5.76413 -1.32295 0
M  V30 323 C 29.9898 6.71123 -2.13948 0
M  V30 324 H 26.0888 0.752106 0.21415 0
M  V30 325 H 28.6728 1.94532 -0.0809846 0
M  V30 326 H 26.8438 3.3043 2.04134 0
M  V30 327 H 28.5758 3.5391 1.9629 0
M  V30 328 H 25.3308 4.7246 0.328384 0
M  V30 329 H 25.7548 6.60145 -1.50123 0
M  V30 330 H 30.3968 4.22472 0.166512 0
M  V30 331 H 28.1148 7.60591 -2.72997 0
M  V30 332 H 31.7008 5.65317 -1.37508 0
M  V30 333 H 30.5808 7.3237 -2.80364 0
M  V30 334 N 28.0839 -0.256276 1.55502 0
M  V30 335 C 29.3119 -1.00342 1.8094 0
M  V30 336 C 29.7269 -1.79307 0.59114 0
M  V30 337 O 29.0839 -1.77114 -0.440081 0
M  V30 338 C 29.1349 -1.94875 3.04476 0
M  V30 339 O 28.8559 -1.19107 4.21598 0
M  V30 340 C 30.3569 -2.81266 3.42644 0
M  V30 341 H 27.5769 -0.295685 0.602338 0
M  V30 342 H 30.1209 -0.281998 2.02546 0
M  V30 343 H 28.2759 -2.62457 2.84947 0
M  V30 344 H 28.6899 -1.82969 4.91551 0
M  V30 345 H 30.1639 -3.43362 4.32211 0
M  V30 346 H 30.6409 -3.51897 2.62802 0
M  V30 347 H 31.2469 -2.1915 3.64491 0
M  V30 348 N 29.562 -1.4872 -0.521534 0
M  V30 349 C 30.808 -1.574 -1.27879 0
M  V30 350 C 31.141 -0.250817 -1.92573 0
M  V30 351 O 30.416 0.743934 -1.79711 0
M  V30 352 C 30.699 -2.71843 -2.36164 0
M  V30 353 C 30.552 -4.13893 -1.76105 0
M  V30 354 C 31.871 -2.82008 -3.37875 0
M  V30 355 H 28.99 -0.572941 -0.463581 0
M  V30 356 H 31.632 -1.80927 -0.580119 0
M  V30 357 H 29.782 -2.51914 -2.95756 0
M  V30 358 H 31.454 -4.45284 -1.20499 0
M  V30 359 H 29.697 -4.20498 -1.06601 0
M  V30 360 H 30.368 -4.89804 -2.5455 0
M  V30 361 H 32.844 -3.00086 -2.88249 0
M  V30 362 H 31.72 -3.63796 -4.11028 0
M  V30 363 H 31.981 -1.90511 -3.98946 0
M  V30 364 N 31.0401 0.771051 -1.3745 0
M  V30 365 C 32.2861 1.5319 -1.32894 0
M  V30 366 C 32.6191 1.94008 0.0862511 0
M  V30 367 O 31.8941 1.64124 1.04373 0
M  V30 368 C 32.1771 2.79648 -2.26868 0
M  V30 369 C 32.0301 2.45079 -3.77169 0
M  V30 370 C 33.3491 3.81583 -2.19277 0
M  V30 371 H 30.4681 0.555744 -0.484064 0
M  V30 372 H 33.1101 0.884492 -1.68157 0
M  V30 373 H 31.2601 3.34891 -1.96926 0
M  V30 374 H 32.9321 1.95745 -4.1771 0
M  V30 375 H 31.1751 1.77767 -3.95704 0
M  V30 376 H 31.8461 3.35478 -4.38359 0
M  V30 377 H 34.3221 3.35835 -2.45671 0
M  V30 378 H 33.1981 4.67787 -2.87171 0
M  V30 379 H 33.4591 4.25897 -1.18592 0
M  V30 380 N 32.5182 1.22032 0.997298 0
M  V30 381 C 33.7672 1.03637 1.73038 0
M  V30 382 C 34.0802 -0.429475 1.90827 0
M  V30 383 O 35.2862 -0.732995 2.61418 0
M  V30 384 C 33.7422 1.80582 3.11317 0
M  V30 385 C 33.3502 3.31387 3.01474 0
M  V30 386 C 35.0942 1.70621 3.88701 0
M  V30 387 C 33.0012 4.00791 4.3488 0
M  V30 388 H 31.9312 0.384179 0.648785 0
M  V30 389 H 34.5822 1.4584 1.11368 0
M  V30 390 H 32.9642 1.31175 3.73643 0
M  V30 391 H 34.1382 3.88155 2.4834 0
M  V30 392 H 32.4532 3.41976 2.37575 0
M  V30 393 H 35.0502 2.19799 4.87434 0
M  V30 394 H 35.3932 0.665823 4.10941 0
M  V30 395 H 35.9262 2.17547 3.33044 0
M  V30 396 H 32.6652 5.05064 4.1784 0
M  V30 397 H 32.1852 3.48811 4.87945 0
M  V30 398 H 33.8642 4.06139 5.03647 0
M  V30 399 N 33.9963 -1.19345 1.0293 0
M  V30 400 C 35.2363 -1.90738 0.734727 0
M  V30 401 C 35.6003 -1.7785 -0.723414 0
M  V30 402 O 36.8013 -2.43844 -1.13108 0
M  V30 403 C 35.0723 -3.37569 1.17396 0
M  V30 404 S 36.6313 -4.27176 1.00329 0
M  V30 405 H 33.4493 -0.658771 0.267474 0
M  V30 406 H 36.0513 -1.4428 1.31922 0
M  V30 407 H 34.7553 -3.44475 2.23081 0
M  V30 408 H 34.2863 -3.8906 0.582772 0
M  V30 409 H 36.3013 -4.96126 -0.0859152 0
M  V30 410 N 35.4744 -0.807222 -1.35358 0
M  V30 411 C 36.7214 -0.387888 -1.9875 0
M  V30 412 C 37.0494 1.04509 -1.64037 0
M  V30 413 O 36.3044 1.73986 -0.895946 0
M  V30 414 C 36.6034 -0.519036 -3.53611 0
M  V30 415 C 36.2694 -1.91542 -4.08194 0
M  V30 416 C 34.9314 -2.29745 -4.22813 0
M  V30 417 C 37.2834 -2.82896 -4.37744 0
M  V30 418 C 34.6114 -3.58668 -4.643 0
M  V30 419 C 36.9634 -4.11265 -4.8067 0
M  V30 420 C 35.6274 -4.49466 -4.93494 0
M  V30 421 H 34.8974 -0.141938 -0.727279 0
M  V30 422 H 37.5444 -1.02814 -1.6156 0
M  V30 423 H 35.8494 0.204658 -3.91265 0
M  V30 424 H 37.5464 -0.175345 -4.00616 0
M  V30 425 H 34.1364 -1.60862 -3.97268 0
M  V30 426 H 38.3204 -2.54629 -4.26002 0
M  V30 427 H 33.5764 -3.88113 -4.72418 0
M  V30 428 H 37.7504 -4.82153 -5.02496 0
M  V30 429 H 35.3774 -5.49418 -5.25399 0
M  V30 430 N 36.9525 1.47285 -0.560781 0
M  V30 431 C 38.1995 2.02464 -0.038062 0
M  V30 432 C 38.5275 1.43474 1.31322 0
M  V30 433 O 37.7825 0.581311 1.86867 0
M  V30 434 C 38.0815 3.57258 0.100784 0
M  V30 435 C 37.7475 4.35184 -1.18007 0
M  V30 436 C 36.4095 4.56194 -1.53103 0
M  V30 437 C 38.7615 4.80098 -2.02867 0
M  V30 438 C 36.0895 5.19367 -2.729 0
M  V30 439 C 38.4415 5.44593 -3.21871 0
M  V30 440 C 37.1055 5.63835 -3.57276 0
M  V30 441 H 36.3755 0.740869 -0.0139279 0
M  V30 442 H 39.0225 1.76916 -0.733012 0
M  V30 443 H 37.3275 3.81819 0.878724 0
M  V30 444 H 39.0245 3.97606 0.520639 0
M  V30 445 H 35.6145 4.19113 -0.8968 0
M  V30 446 H 39.7985 4.63642 -1.7706 0
M  V30 447 H 35.0545 5.32459 -3.00496 0
M  V30 448 H 39.2285 5.78358 -3.87911 0
M  V30 449 H 36.8555 6.12557 -4.50197 0
M  V30 450 N 38.4306 0.297415 1.54768 0
M  V30 451 C 39.3606 -0.573494 2.26348 0
M  V30 452 C 40.3416 -1.14085 1.26169 0
M  V30 453 O 41.5266 -1.17086 1.54934 0
M  V30 454 C 38.6566 -1.74716 3.00153 0
M  V30 455 C 37.6106 -1.31032 4.07449 0
M  V30 456 C 36.9366 -2.56887 4.68949 0
M  V30 457 C 38.2366 -0.444183 5.20408 0
M  V30 458 H 39.9306 0.0235131 2.99391 0
M  V30 459 H 37.4766 0.0127488 1.43994 0
M  V30 460 H 39.4296 -2.3625 3.48947 0
M  V30 461 H 38.1536 -2.37035 2.24682 0
M  V30 462 H 36.8126 -0.718066 3.59499 0
M  V30 463 H 36.4606 -3.17512 3.90122 0
M  V30 464 H 36.1606 -2.2836 5.41411 0
M  V30 465 H 37.6846 -3.19229 5.20505 0
M  V30 466 H 39.0986 -0.9651 5.65118 0
M  V30 467 H 37.4956 -0.252846 5.99567 0
M  V30 468 H 38.5656 0.531609 4.81977 0
M  V30 469 N 39.9087 -1.5758 0.0250728 0
M  V30 470 C 41.1547 -1.91917 -0.655413 0
M  V30 471 C 41.4877 -0.901433 -1.72011 0
M  V30 472 O 40.7627 0.0764069 -1.9435 0
M  V30 473 C 41.0457 -3.36751 -1.27558 0
M  V30 474 C 40.8987 -4.49258 -0.220719 0
M  V30 475 C 42.2177 -3.81469 -2.19475 0
M  V30 476 H 39.3367 -0.697925 -0.23679 0
M  V30 477 H 41.9787 -1.89825 0.0815036 0
M  V30 478 H 40.1287 -3.38664 -1.90365 0
M  V30 479 H 41.8007 -4.59478 0.409601 0
M  V30 480 H 40.0437 -4.31415 0.454264 0
M  V30 481 H 40.7147 -5.47618 -0.694175 0
M  V30 482 H 43.1907 -3.81266 -1.66659 0
M  V30 483 H 42.0667 -4.83512 -2.59822 0
M  V30 484 H 42.3277 -3.16744 -3.08424 0
M  V30 485 N 41.3868 0.248026 -1.55636 0
M  V30 486 C 42.3498 1.29044 -1.89421 0
M  V30 487 C 43.3498 1.41134 -0.770581 0
M  V30 488 O 44.5398 1.39854 -1.03858 0
M  V30 489 C 41.6718 2.66831 -2.12165 0
M  V30 490 H 42.8648 1.00305 -2.82629 0
M  V30 491 H 40.4178 0.487265 -1.48511 0
M  V30 492 H 41.1528 3.00711 -1.21422 0
M  V30 493 H 40.9378 2.59438 -2.93997 0
M  V30 494 H 42.4278 3.42103 -2.3949 0
M  V30 495 N 42.8649 1.48995 0.513639 0
M  V30 496 C 43.7949 1.67636 1.62544 0
M  V30 497 C 44.7759 0.525087 1.61793 0
M  V30 498 O 45.9609 0.759502 1.78732 0
M  V30 499 C 43.0909 1.73114 3.01079 0
M  V30 500 C 42.0449 2.87905 3.16693 0
M  V30 501 C 41.3709 2.78486 4.56453 0
M  V30 502 C 42.6709 4.29005 2.97913 0
M  V30 503 H 44.3649 2.60716 1.47198 0
M  V30 504 H 41.9109 1.25465 0.706714 0
M  V30 505 H 43.8639 1.84742 3.78746 0
M  V30 506 H 42.5879 0.766241 3.17484 0
M  V30 507 H 41.2469 2.75859 2.41448 0
M  V30 508 H 40.8949 1.7993 4.69717 0
M  V30 509 H 40.5949 3.55523 4.67843 0
M  V30 510 H 42.1189 2.92104 5.36197 0
M  V30 511 H 43.5329 4.41798 3.65359 0
M  V30 512 H 41.9299 5.07166 3.20785 0
M  V30 513 H 42.9999 4.44329 1.94165 0
M  V30 514 N 44.343 -0.763751 1.37857 0
M  V30 515 C 45.568 -1.55805 1.36893 0
M  V30 516 C 45.993 -1.88054 -0.0416135 0
M  V30 517 O 45.351 -1.49825 -1.02089 0
M  V30 518 C 45.399 -2.84012 2.22192 0
M  V30 519 O 44.503 -3.78732 1.63204 0
M  V30 520 H 43.844 -0.471638 0.46739 0
M  V30 521 H 46.374 -0.944657 1.81487 0
M  V30 522 H 46.384 -3.33037 2.35691 0
M  V30 523 H 45.059 -2.59869 3.24716 0
M  V30 524 H 43.636 -3.37402 1.58791 0
M  V30 525 N 45.8211 -1.22559 -0.990812 0
M  V30 526 C 47.0691 -1.04933 -1.72724 0
M  V30 527 C 47.3901 0.416158 -1.90508 0
M  V30 528 O 46.6601 1.29918 -1.46622 0
M  V30 529 H 45.2401 -0.385296 -0.639965 0
M  V30 530 H 47.9021 -1.54105 -1.19322 0
M  V30 531 H 46.9981 -1.52886 -2.72089 0
M  V30 532 N 47.2992 1.18797 -1.03562 0
M  V30 533 C 48.5482 1.87978 -0.731235 0
M  V30 534 C 48.8612 1.80911 0.743671 0
M  V30 535 O 50.0672 2.45407 1.16137 0
M  V30 536 C 48.5232 3.3721 -1.25768 0
M  V30 537 C 48.1312 3.52818 -2.76085 0
M  V30 538 C 49.8752 4.11825 -1.0296 0
M  V30 539 C 47.7822 4.9598 -3.22114 0
M  V30 540 H 46.7122 0.704063 -0.269835 0
M  V30 541 H 49.3632 1.34266 -1.25079 0
M  V30 542 H 47.7452 3.90359 -0.666011 0
M  V30 543 H 48.9192 3.09965 -3.40966 0
M  V30 544 H 47.2342 2.91602 -2.97249 0
M  V30 545 H 49.8312 5.17411 -1.34869 0
M  V30 546 H 50.1742 4.16287 0.0333546 0
M  V30 547 H 50.7072 3.64833 -1.58562 0
M  V30 548 H 47.4462 4.96684 -4.27768 0
M  V30 549 H 46.9662 5.39569 -2.61965 0
M  V30 550 H 48.6452 5.6467 -3.15844 0
M  V30 551 N 48.7773 0.814389 1.34928 0
M  V30 552 C 50.0023 0.410097 2.03305 0
M  V30 553 C 50.4273 -0.973464 1.60951 0
M  V30 554 O 49.7853 -1.63185 0.789964 0
M  V30 555 C 49.8333 0.51049 3.56968 0
M  V30 556 O 48.9373 -0.473035 4.09678 0
M  V30 557 H 48.2783 0.170088 0.641846 0
M  V30 558 H 50.8083 1.10244 1.72358 0
M  V30 559 H 50.8183 0.383135 4.06197 0
M  V30 560 H 49.4933 1.51963 3.87144 0
M  V30 561 H 48.0703 -0.305272 3.71648 0
M  V30 562 N 50.2554 -1.46986 0.568584 0
M  V30 563 C 51.5024 -2.02441 0.0487986 0
M  V30 564 C 51.8304 -1.44169 -1.30559 0
M  V30 565 O 51.0854 -0.591213 -1.86556 0
M  V30 566 C 51.3844 -3.57306 -0.081836 0
M  V30 567 C 51.0504 -4.34552 1.20313 0
M  V30 568 C 49.7124 -4.55376 1.5552 0
M  V30 569 C 52.0644 -4.79016 2.05411 0
M  V30 570 C 49.3924 -5.17913 2.7565 0
M  V30 571 C 51.7444 -5.42879 3.24754 0
M  V30 572 C 50.4084 -5.61933 3.60261 0
M  V30 573 H 49.6784 -0.740785 0.0178567 0
M  V30 574 H 52.3254 -1.76525 0.742384 0
M  V30 575 H 50.6304 -3.8228 -0.858463 0
M  V30 576 H 52.3274 -3.97876 -0.499546 0
M  V30 577 H 48.9174 -4.18631 0.919014 0
M  V30 578 H 53.1014 -4.62696 1.79516 0
M  V30 579 H 48.3574 -5.30858 3.03315 0
M  V30 580 H 52.5314 -5.76293 3.90973 0
M  V30 581 H 50.1584 -6.10161 4.53439 0
M  V30 582 N 51.7335 -0.305618 -1.54608 0
M  V30 583 C 52.9805 0.302298 -2.00231 0
M  V30 584 C 53.3085 1.5354 -1.19398 0
M  V30 585 O 52.5635 1.93973 -0.259423 0
M  V30 586 C 52.8625 0.698983 -3.50498 0
M  V30 587 C 52.5285 -0.432903 -4.48817 0
M  V30 588 C 51.1905 -0.743622 -4.75419 0
M  V30 589 C 53.5425 -1.19409 -5.07337 0
M  V30 590 C 50.8705 -1.81857 -5.57804 0
M  V30 591 C 53.2225 -2.25899 -5.90891 0
M  V30 592 C 51.8865 -2.57572 -6.15803 0
M  V30 593 H 51.1565 0.110619 -0.732697 0
M  V30 594 H 53.8035 -0.425674 -1.86709 0
M  V30 595 H 52.1085 1.50711 -3.61654 0
M  V30 596 H 53.8055 1.1806 -3.83227 0
M  V30 597 H 50.3955 -0.18063 -4.28219 0
M  V30 598 H 54.5795 -0.967295 -4.86782 0
M  V30 599 H 49.8355 -2.06864 -5.75341 0
M  V30 600 H 54.0095 -2.85335 -6.35261 0
M  V30 601 H 51.6365 -3.40998 -6.7943 0
M  V30 602 N 53.2116 1.57565 -0.0334293 0
M  V30 603 C 54.4586 1.91978 0.644272 0
M  V30 604 C 54.7866 0.910231 1.71887 0
M  V30 605 O 54.0416 -0.0801961 1.95536 0
M  V30 606 C 54.3406 3.33112 1.29504 0
M  V30 607 C 54.0066 4.49537 0.350388 0
M  V30 608 C 52.6686 4.81115 0.0903974 0
M  V30 609 C 55.0206 5.20347 -0.298032 0
M  V30 610 C 52.3486 5.8086 -0.825746 0
M  V30 611 C 54.7006 6.2107 -1.20226 0
M  V30 612 C 53.3646 6.51088 -1.4711 0
M  V30 613 H 52.6346 0.702496 0.235756 0
M  V30 614 H 55.2816 1.91259 -0.0961176 0
M  V30 615 H 53.5866 3.30113 2.11028 0
M  V30 616 H 55.2836 3.57011 1.82603 0
M  V30 617 H 51.8736 4.24883 0.563205 0
M  V30 618 H 56.0576 4.96178 -0.110234 0
M  V30 619 H 51.3136 6.02461 -1.04169 0
M  V30 620 H 55.4876 6.75057 -1.71086 0
M  V30 621 H 53.1146 7.28193 -2.18264 0
M  V30 622 N 54.6897 -0.239769 1.55765 0
M  V30 623 C 56.1007 -0.808263 1.68297 0
M  V30 624 C 56.4517 -1.85736 0.632181 0
M  V30 625 O 55.5767 -2.15277 -0.220204 0
M  V30 626 C 56.1717 -1.47284 3.05111 0
M  V30 627 C 54.7307 -1.98895 3.19559 0
M  V30 628 C 53.8777 -0.842575 2.64189 0
M  V30 629 H 56.8287 -0.0154422 1.58692 0
M  V30 630 H 56.8497 -2.34111 2.99954 0
M  V30 631 H 56.3617 -0.709053 3.81568 0
M  V30 632 H 54.4627 -2.78132 2.47938 0
M  V30 633 H 54.5757 -2.18143 4.26556 0
M  V30 634 H 52.9397 -1.24501 2.22197 0
M  V30 635 H 53.7227 -0.0917552 3.43177 0
M  V30 636 N 56.1678 -1.49265 -0.50573 0
M  V30 637 C 57.3958 -1.62215 -1.28429 0
M  V30 638 C 57.8108 -0.291697 -1.86533 0
M  V30 639 O 57.1678 0.722233 -1.67601 0
M  V30 640 C 57.2188 -2.68735 -2.41793 0
M  V30 641 O 56.9398 -3.96619 -1.86078 0
M  V30 642 C 58.4408 -2.92346 -3.3324 0
M  V30 643 H 55.6608 -0.546239 -0.389697 0
M  V30 644 H 58.2048 -1.95265 -0.607609 0
M  V30 645 H 56.3598 -2.38476 -3.053 0
M  V30 646 H 56.7738 -4.55256 -2.60465 0
M  V30 647 H 58.2478 -3.70623 -4.09075 0
M  V30 648 H 58.7248 -2.02081 -3.89948 0
M  V30 649 H 59.3308 -3.24003 -2.75503 0
M  V30 650 N 57.6459 0.756429 -1.3826 0
M  V30 651 C 58.5759 1.88374 -1.37976 0
M  V30 652 C 59.5569 1.68311 -0.246082 0
M  V30 653 O 60.7419 1.88944 -0.44874 0
M  V30 654 C 57.8719 3.25864 -1.20125 0
M  V30 655 C 56.8259 3.60523 -2.30666 0
M  V30 656 C 56.1519 4.9672 -1.97923 0
M  V30 657 C 57.4519 3.65692 -3.72916 0
M  V30 658 H 59.1459 1.88869 -2.32312 0
M  V30 659 H 56.6919 0.907272 -1.11824 0
M  V30 660 H 58.6449 4.0438 -1.18552 0
M  V30 661 H 57.3689 3.25841 -0.222498 0
M  V30 662 H 56.0279 2.84324 -2.3142 0
M  V30 663 H 55.6759 4.93253 -0.985393 0
M  V30 664 H 55.3759 5.20878 -2.71955 0
M  V30 665 H 56.8999 5.77618 -1.97964 0
M  V30 666 H 58.3139 4.34328 -3.74208 0
M  V30 667 H 56.7109 4.01358 -4.4613 0
M  V30 668 H 57.7809 2.65987 -4.05436 0
M  V30 669 N 59.124 1.23083 0.984299 0
M  V30 670 C 60.056 0.96636 2.07832 0
M  V30 671 C 61.069 -0.0582135 1.62696 0
M  V30 672 O 62.258 0.176843 1.77622 0
M  V30 673 C 59.358 0.433397 3.36117 0
M  V30 674 C 58.531 1.51722 4.10243 0
M  V30 675 C 57.59 0.989821 5.16807 0
M  V30 676 O 56.616 1.67794 5.43906 0
M  V30 677 N 57.818 -0.184367 5.80207 0
M  V30 678 H 60.583 1.90824 2.31098 0
M  V30 679 H 58.144 1.13888 1.1507 0
M  V30 680 H 60.136 0.065699 4.04647 0
M  V30 681 H 58.706 -0.413806 3.09849 0
M  V30 682 H 57.926 2.05786 3.36223 0
M  V30 683 H 59.214 2.24619 4.56534 0
M  V30 684 H 58.612 -0.760062 5.60571 0
M  V30 685 H 57.169 -0.493366 6.4993 0
M  V30 686 N 60.6021 -1.18246 1.0419 0
M  V30 687 C 61.8481 -1.88793 0.75689 0
M  V30 688 C 62.2031 -1.78909 -0.707767 0
M  V30 689 O 61.4961 -1.1794 -1.50999 0
M  V30 690 C 61.6901 -3.38082 1.15911 0
M  V30 691 C 61.5191 -3.62496 2.66133 0
M  V30 692 C 60.2891 -3.7979 3.33298 0
M  V30 693 C 62.4871 -3.62976 3.64353 0
M  V30 694 N 60.4691 -3.91955 4.72487 0
M  V30 695 C 61.8401 -3.80869 4.89222 0
M  V30 696 C 63.8951 -3.46071 3.57965 0
M  V30 697 C 62.5981 -3.83608 6.08471 0
M  V30 698 C 64.6241 -3.50093 4.76643 0
M  V30 699 C 63.9861 -3.68484 6.00332 0
M  V30 700 H 60.0851 -0.709406 0.32904 0
M  V30 701 H 62.6691 -1.42022 1.33183 0
M  V30 702 H 60.8401 -3.83544 0.612238 0
M  V30 703 H 62.5721 -3.96202 0.824989 0
M  V30 704 H 59.3271 -3.79224 2.83701 0
M  V30 705 H 59.7511 -4.01857 5.44831 0
M  V30 706 H 64.3931 -3.30797 2.63311 0
M  V30 707 H 62.1111 -3.97669 7.0348 0
M  V30 708 H 65.6971 -3.38285 4.73344 0
M  V30 709 H 64.5771 -3.71488 6.90627 0
M  V30 710 N 62.0802 -0.821533 -1.34494 0
M  V30 711 C 63.0102 -0.257138 -2.3208 0
M  V30 712 C 63.9912 0.625645 -1.58176 0
M  V30 713 O 65.1762 0.552811 -1.86166 0
M  V30 714 C 62.3062 0.582958 -3.42372 0
M  V30 715 C 61.2602 -0.202571 -4.2752 0
M  V30 716 C 60.5862 0.760179 -5.29269 0
M  V30 717 C 61.8862 -1.40998 -5.02908 0
M  V30 718 H 63.5802 -1.07247 -2.79532 0
M  V30 719 H 61.1262 -0.517163 -1.34393 0
M  V30 720 H 63.0792 0.987972 -4.09655 0
M  V30 721 H 61.8032 1.43133 -2.93565 0
M  V30 722 H 60.4622 -0.588936 -3.61838 0
M  V30 723 H 60.1102 1.60447 -4.76724 0
M  V30 724 H 59.8102 0.238809 -5.87115 0
M  V30 725 H 61.3342 1.16308 -5.9942 0
M  V30 726 H 62.7482 -1.07905 -5.63054 0
M  V30 727 H 61.1452 -1.86689 -5.70322 0
M  V30 728 H 62.2152 -2.1889 -4.32684 0
M  V30 729 N 63.5583 1.46682 -0.576371 0
M  V30 730 C 64.7863 2.06798 -0.0649635 0
M  V30 731 C 65.2013 1.42612 1.23723 0
M  V30 732 O 64.5583 0.529203 1.74659 0
M  V30 733 C 64.6093 3.6132 0.114202 0
M  V30 734 O 64.3303 4.23104 -1.13644 0
M  V30 735 C 65.8313 4.38349 0.66069 0
M  V30 736 H 63.0513 0.668778 -0.0545616 0
M  V30 737 H 65.5953 1.88404 -0.795237 0
M  V30 738 H 63.7503 3.79162 0.794673 0
M  V30 739 H 64.1643 5.15894 -0.946253 0
M  V30 740 H 65.6383 5.47081 0.73526 0
M  V30 741 H 66.1153 4.05953 1.67627 0
M  V30 742 H 66.7213 4.25297 0.0152951 0
M  V30 743 N 65.0364 0.313813 1.54444 0
M  V30 744 C 65.9684 -0.590425 2.21465 0
M  V30 745 C 66.9814 -1.08753 1.21147 0
M  V30 746 O 68.1704 -1.00278 1.4767 0
M  V30 747 C 65.2704 -1.82179 2.85769 0
M  V30 748 C 64.4434 -1.46502 4.12136 0
M  V30 749 C 63.5024 -2.55288 4.60124 0
M  V30 750 O 62.5284 -2.19842 5.25032 0
M  V30 751 N 63.7304 -3.86053 4.33525 0
M  V30 752 H 66.4954 -0.0166033 2.99695 0
M  V30 753 H 64.0564 0.136578 1.61323 0
M  V30 754 H 66.0484 -2.54328 3.14801 0
M  V30 755 H 64.6184 -2.30369 2.11303 0
M  V30 756 H 63.8384 -0.575595 3.89975 0
M  V30 757 H 65.1264 -1.20221 4.94393 0
M  V30 758 H 64.5244 -4.17654 3.81552 0
M  V30 759 H 63.0814 -4.54461 4.67235 0
M  V30 760 N 66.5145 -1.57545 0.0417849 0
M  V30 761 C 67.7425 -1.96624 -0.643928 0
M  V30 762 C 68.1575 -0.918897 -1.64929 0
M  V30 763 O 67.5145 0.0979323 -1.82237 0
M  V30 764 C 67.5655 -3.35781 -1.33914 0
M  V30 765 O 67.2865 -4.365 -0.374048 0
M  V30 766 C 68.7875 -3.89566 -2.1155 0
M  V30 767 H 66.0075 -0.647316 -0.176702 0
M  V30 768 H 68.5515 -2.04229 0.105304 0
M  V30 769 H 66.7065 -3.29357 -2.03968 0
M  V30 770 H 67.1205 -5.17248 -0.869179 0
M  V30 771 H 68.5945 -4.89242 -2.55628 0
M  V30 772 H 69.0715 -3.24488 -2.9598 0
M  V30 773 H 69.6775 -3.99298 -1.46427 0
M  V30 774 N 67.9926 0.231505 -1.5589 0
M  V30 775 C 69.2396 0.957352 -1.78441 0
M  V30 776 C 69.5676 1.84726 -0.60882 0
M  V30 777 O 68.8226 1.91416 0.40725 0
M  V30 778 C 69.1216 1.83577 -3.0665 0
M  V30 779 C 68.7876 1.09993 -4.37278 0
M  V30 780 C 67.4496 0.896629 -4.72773 0
M  V30 781 C 69.8016 0.579558 -5.17968 0
M  V30 782 C 67.1296 0.160896 -5.86479 0
M  V30 783 C 69.4816 -0.142783 -6.32439 0
M  V30 784 C 68.1456 -0.357427 -6.66542 0
M  V30 785 H 67.4156 0.35032 -0.65296 0
M  V30 786 H 70.0626 0.226259 -1.90159 0
M  V30 787 H 68.3676 2.63441 -2.90011 0
M  V30 788 H 70.0646 2.39934 -3.21298 0
M  V30 789 H 66.6546 1.26835 -4.09403 0
M  V30 790 H 70.8386 0.724125 -4.90989 0
M  V30 791 H 66.0946 -0.0157293 -6.11398 0
M  V30 792 H 70.2686 -0.553559 -6.94196 0
M  V30 793 H 67.8956 -0.929466 -7.54497 0
M  V30 794 N 69.4707 1.49531 0.497807 0
M  V30 795 C 70.7187 1.58865 1.24926 0
M  V30 796 C 71.0397 0.278721 1.92998 0
M  V30 797 O 70.3097 -0.702144 1.82885 0
M  V30 798 H 68.8897 0.585343 0.464094 0
M  V30 799 H 71.5517 1.86174 0.57666 0
M  V30 800 H 70.6477 2.38633 2.01149 0
M  V30 801 N 70.9488 -0.749086 1.3866 0
M  V30 802 C 72.1768 -1.53834 1.38358 0
M  V30 803 C 72.5918 -1.88783 -0.0255219 0
M  V30 804 O 71.9488 -1.53101 -0.993292 0
M  V30 805 C 71.9998 -2.83468 2.2434 0
M  V30 806 O 71.7208 -2.50008 3.5976 0
M  V30 807 C 73.2218 -3.7758 2.32267 0
M  V30 808 H 70.4418 -0.47585 0.473083 0
M  V30 809 H 72.9858 -0.926726 1.82297 0
M  V30 810 H 71.1408 -3.40995 1.83851 0
M  V30 811 H 71.5548 -3.33182 4.05081 0
M  V30 812 H 73.0288 -4.65478 2.96706 0
M  V30 813 H 73.5058 -4.18334 1.33765 0
M  V30 814 H 74.1118 -3.25976 2.73166 0
M  V30 815 N 72.4269 -1.23603 -0.977757 0
M  V30 816 C 73.8379 -1.06424 -1.53398 0
M  V30 817 C 74.1889 0.367578 -1.92726 0
M  V30 818 O 73.3139 1.25465 -1.76316 0
M  V30 819 C 73.9089 -1.92568 -2.78753 0
M  V30 820 C 72.4679 -1.79642 -3.30765 0
M  V30 821 C 71.6149 -1.88111 -2.03739 0
M  V30 822 H 74.5659 -1.37227 -0.797152 0
M  V30 823 H 74.5869 -1.45203 -3.51705 0
M  V30 824 H 74.0989 -2.96771 -2.50098 0
M  V30 825 H 72.1999 -0.782325 -3.64294 0
M  V30 826 H 72.3129 -2.63174 -4.00345 0
M  V30 827 H 70.6769 -1.31723 -2.17994 0
M  V30 828 H 71.4599 -2.93875 -1.77461 0
M  V30 829 N 73.905 1.17692 -1.04816 0
M  V30 830 C 74.837 2.21103 -0.603822 0
M  V30 831 C 75.85 1.59411 0.33046 0
M  V30 832 O 77.039 1.7807 0.12379 0
M  V30 833 C 74.139 3.38623 0.136898 0
M  V30 834 C 73.312 4.29888 -0.807137 0
M  V30 835 C 72.371 5.26088 -0.10836 0
M  V30 836 O 71.397 5.64353 -0.741232 0
M  V30 837 N 72.599 5.68882 1.15558 0
M  V30 838 H 75.364 2.59848 -1.49329 0
M  V30 839 H 72.925 1.32553 -0.929587 0
M  V30 840 H 74.917 4.00009 0.614401 0
M  V30 841 H 73.487 2.98508 0.927993 0
M  V30 842 H 72.707 3.65993 -1.46434 0
M  V30 843 H 73.995 4.87759 -1.44807 0
M  V30 844 H 73.393 5.39861 1.69015 0
M  V30 845 H 71.95 6.32429 1.57722 0
M  V30 846 N 75.3831 0.828654 1.34056 0
M  V30 847 C 76.3161 0.199763 2.27324 0
M  V30 848 C 77.2941 -0.647168 1.49166 0
M  V30 849 O 78.4781 -0.609661 1.78369 0
M  V30 850 C 75.6051 -0.720455 3.30949 0
M  V30 851 C 74.6511 0.0496888 4.26471 0
M  V30 852 S 75.4841 1.40072 5.16856 0
M  V30 853 C 76.6401 0.485527 6.24014 0
M  V30 854 H 76.8731 0.990478 2.80316 0
M  V30 855 H 74.4061 0.624857 1.41191 0
M  V30 856 H 76.3641 -1.24581 3.91139 0
M  V30 857 H 75.0251 -1.48474 2.76793 0
M  V30 858 H 74.2181 -0.650104 4.9979 0
M  V30 859 H 73.8201 0.505779 3.70564 0
M  V30 860 H 76.1121 -0.320672 6.76741 0
M  V30 861 H 77.0551 1.18856 6.98054 0
M  V30 862 H 77.4631 0.0714109 5.64455 0
M  V30 863 N 76.8612 -1.46375 0.584142 0
M  V30 864 C 78.1092 -2.01978 0.0701287 0
M  V30 865 C 78.4302 -1.4579 -1.295 0
M  V30 866 O 77.7002 -0.64314 -1.85042 0
M  V30 867 H 76.2802 -0.746648 0.0229345 0
M  V30 868 H 78.9422 -1.79461 0.760245 0
M  V30 869 H 78.0382 -3.121 0.0022064 0
M  V30 870 N 78.3393 -0.321999 -1.54275 0
M  V30 871 C 79.7553 0.0306999 -1.5957 0
M  V30 872 C 79.9553 1.50614 -1.33857 0
M  V30 873 O 79.0113 2.2619 -1.12223 0
M  V30 874 C 80.3243 -0.386122 -2.98211 0
M  V30 875 C 81.8723 -0.336647 -3.11184 0
M  V30 876 C 82.3473 -0.728607 -4.52167 0
M  V30 877 N 83.8383 -0.681952 -4.58152 0
M  V30 878 C 84.5733 -0.957449 -5.6535 0
M  V30 879 N 84.0693 -1.3 -6.80494 0
M  V30 880 N 85.8623 -0.883113 -5.55119 0
M  V30 881 H 78.0133 -1.28332 -1.69247 0
M  V30 882 H 80.2763 -0.521716 -0.791528 0
M  V30 883 H 79.9823 -1.41404 -3.22022 0
M  V30 884 H 79.8563 0.249662 -3.76373 0
M  V30 885 H 82.2433 0.682058 -2.8711 0
M  V30 886 H 82.3243 -1.00734 -2.3513 0
M  V30 887 H 81.9683 -1.74522 -4.76974 0
M  V30 888 H 81.8983 -0.0356152 -5.26588 0
M  V30 889 H 84.3893 -0.428985 -3.75457 0
M  V30 890 H 84.7023 -1.49563 -7.58189 0
M  V30 891 H 83.0473 -1.33824 -6.81994 0
M  V30 892 H 86.2383 -0.615001 -4.64042 0
M  V30 893 H 86.4113 -1.10118 -6.38575 0
M  V30 894 N 79.8174 1.5752 -0.0501392 0
M  V30 895 C 81.0664 1.91827 0.623328 0
M  V30 896 C 81.3794 0.930222 1.72065 0
M  V30 897 O 82.5854 1.1653 2.4522 0
M  V30 898 C 81.0414 3.40692 1.16003 0
M  V30 899 C 80.6494 4.479 0.0948811 0
M  V30 900 C 82.3934 3.84034 1.80881 0
M  V30 901 C 80.3004 5.87879 0.644411 0
M  V30 902 H 79.2304 0.715918 0.236596 0
M  V30 903 H 81.8814 1.83115 -0.118861 0
M  V30 904 H 80.2634 3.44405 1.9545 0
M  V30 905 H 81.4374 4.55775 -0.678675 0
M  V30 906 H 79.7524 4.13892 -0.45637 0
M  V30 907 H 82.3494 4.85984 2.22988 0
M  V30 908 H 82.6924 3.20225 2.6601 0
M  V30 909 H 83.2254 3.82833 1.0809 0
M  V30 910 H 79.9644 6.55282 -0.169229 0
M  V30 911 H 79.4844 5.83567 1.38598 0
M  V30 912 H 81.1634 6.37098 1.12763 0
M  V30 913 N 81.2955 -0.223234 1.56011 0
M  V30 914 C 82.2255 -1.27988 1.95298 0
M  V30 915 C 83.2065 -1.48976 0.820979 0
M  V30 916 O 84.3915 -1.61188 1.08315 0
M  V30 917 C 81.5215 -2.63 2.26822 0
M  V30 918 C 80.4755 -2.56671 3.42497 0
M  V30 919 C 79.8015 -3.95697 3.59622 0
M  V30 920 C 81.1015 -2.11601 4.77517 0
M  V30 921 H 82.7955 -0.953525 2.8381 0
M  V30 922 H 80.3415 -0.457244 1.36548 0
M  V30 923 H 82.2945 -3.37077 2.52898 0
M  V30 924 H 81.0185 -2.9732 1.35161 0
M  V30 925 H 79.6775 -1.85051 3.16467 0
M  V30 926 H 79.3255 -4.27322 2.6534 0
M  V30 927 H 79.0255 -3.92345 4.37424 0
M  V30 928 H 80.5495 -4.71438 3.88044 0
M  V30 929 H 81.9635 -2.7542 5.02809 0
M  V30 930 H 80.3605 -2.19311 5.5859 0
M  V30 931 H 81.4305 -1.06824 4.72987 0
M  V30 932 N 82.7736 -1.49793 -0.48987 0
M  V30 933 C 83.7236 -1.63673 -1.5873 0
M  V30 934 C 84.7076 -0.491956 -1.53195 0
M  V30 935 O 85.8996 -0.745461 -1.60536 0
M  V30 936 C 83.0286 -1.71689 -2.97284 0
M  V30 937 C 82.1146 -2.91781 -3.07774 0
M  V30 938 N 82.5056 -4.15714 -2.88124 0
M  V30 939 C 80.8036 -2.89949 -3.38889 0
M  V30 940 C 81.5046 -4.965 -3.03088 0
M  V30 941 N 80.4806 -4.30083 -3.3246 0
M  V30 942 H 84.2826 -2.57204 -1.42208 0
M  V30 943 H 81.7966 -1.46719 -0.69623 0
M  V30 944 H 83.7936 -1.79732 -3.76168 0
M  V30 945 H 82.4536 -0.793024 -3.14867 0
M  V30 946 H 83.4646 -4.45515 -2.64077 0
M  V30 947 H 80.1416 -2.06987 -3.62578 0
M  V30 948 H 81.5316 -6.04991 -2.92294 0
M  V30 949 N 84.2517 0.741722 -1.39055 0
M  V30 950 C 85.6627 1.31966 -1.32068 0
M  V30 951 C 86.0137 1.96192 0.0180797 0
M  V30 952 O 85.1387 1.95861 0.920196 0
M  V30 953 C 85.7337 2.39954 -2.39181 0
M  V30 954 C 84.2927 2.93438 -2.35735 0
M  V30 955 C 83.4397 1.66936 -2.21422 0
M  V30 956 H 86.3907 0.539721 -1.4924 0
M  V30 957 H 86.4117 3.20182 -2.05581 0
M  V30 958 H 85.9237 1.9318 -3.36605 0
M  V30 959 H 84.0247 3.4451 -1.41929 0
M  V30 960 H 84.1377 3.4701 -3.30335 0
M  V30 961 H 82.5017 1.91016 -1.68478 0
M  V30 962 H 83.2847 1.22224 -3.20806 0
M  V30 963 N 85.7298 1.2412 0.971189 0
M  V30 964 C 86.9768 1.07881 1.71371 0
M  V30 965 C 87.3048 -0.382901 1.90694 0
M  V30 966 O 86.5598 -1.29945 1.46331 0
M  V30 967 C 86.8588 1.75983 3.11071 0
M  V30 968 C 86.5248 3.25909 3.11599 0
M  V30 969 C 85.1868 3.66813 3.11451 0
M  V30 970 C 87.5388 4.21771 3.062 0
M  V30 971 C 84.8668 5.02021 3.03631 0
M  V30 972 C 87.2188 5.56982 2.99923 0
M  V30 973 C 85.8828 5.97237 2.98102 0
M  V30 974 H 85.1528 0.394764 0.62709 0
M  V30 975 H 87.7998 1.54176 1.13587 0
M  V30 976 H 86.1048 1.22072 3.72298 0
M  V30 977 H 87.8018 1.60887 3.6731 0
M  V30 978 H 84.3918 2.93353 3.12477 0
M  V30 979 H 88.5758 3.91172 3.05447 0
M  V30 980 H 83.8318 5.32411 3.0058 0
M  V30 981 H 88.0058 6.30969 2.94704 0
M  V30 982 H 85.6328 7.01967 2.91798 0
M  V30 983 N 87.2079 -1.17134 1.05439 0
M  V30 984 C 88.4549 -1.87456 0.765942 0
M  V30 985 C 88.7829 -1.81189 -0.707153 0
M  V30 986 O 88.0379 -1.21633 -1.5331 0
M  V30 987 C 88.3369 -3.36833 1.19491 0
M  V30 988 C 88.0029 -3.63301 2.67063 0
M  V30 989 C 86.6649 -3.70234 3.07376 0
M  V30 990 C 89.0169 -3.74575 3.62413 0
M  V30 991 C 86.3449 -3.85933 4.41896 0
M  V30 992 C 88.6969 -3.91793 4.9667 0
M  V30 993 C 87.3609 -3.96966 5.36633 0
M  V30 994 H 86.6309 -0.685948 0.280278 0
M  V30 995 H 89.2779 -1.38556 1.32192 0
M  V30 996 H 87.5829 -3.87807 0.557969 0
M  V30 997 H 89.2799 -3.89611 0.948893 0
M  V30 998 H 85.8699 -3.58532 2.34846 0
M  V30 999 H 90.0539 -3.68537 3.32406 0
M  V30 1000 H 85.3099 -3.88187 4.72357 0
M  V30 1001 H 89.4839 -3.99458 5.70444 0
M  V30 1002 H 87.1109 -4.08883 6.40874 0
M  V30 1003 N 88.686 -0.835752 -1.33615 0
M  V30 1004 C 89.934 -0.429109 -1.97492 0
M  V30 1005 C 90.255 1.01433 -1.66543 0
M  V30 1006 O 89.525 1.70611 -0.962744 0
M  V30 1007 H 88.105 -0.155686 -0.730596 0
M  V30 1008 H 90.767 -1.06802 -1.63031 0
M  V30 1009 H 89.863 -0.55861 -3.0706 0
M  V30 1010 N 90.1641 1.46063 -0.591896 0
M  V30 1011 C 91.4131 2.01547 -0.0786637 0
M  V30 1012 C 91.7261 1.46796 1.29268 0
M  V30 1013 O 92.9321 1.94157 1.89777 0
M  V30 1014 C 91.3881 3.59787 -0.0900024 0
M  V30 1015 C 90.9961 4.23534 -1.46023 0
M  V30 1016 C 92.7401 4.22895 0.368806 0
M  V30 1017 C 90.6471 5.73881 -1.4288 0
M  V30 1018 H 89.5771 0.753564 -0.0256388 0
M  V30 1019 H 92.2281 1.677 -0.744905 0
M  V30 1020 H 90.6101 3.90752 0.642586 0
M  V30 1021 H 91.7841 4.04167 -2.21328 0
M  V30 1022 H 90.0991 3.72558 -1.85982 0
M  V30 1023 H 92.6961 5.33116 0.411258 0
M  V30 1024 H 93.0391 3.9247 1.38827 0
M  V30 1025 H 93.5721 3.9659 -0.31001 0
M  V30 1026 H 90.3111 6.0898 -2.42536 0
M  V30 1027 H 89.8311 5.95486 -0.718095 0
M  V30 1028 H 91.5101 6.36776 -1.14565 0
M  V30 1029 N 91.6422 0.330177 1.54103 0
M  V30 1030 C 92.6052 -0.520144 2.2322 0
M  V30 1031 C 93.6052 -1.03828 1.22786 0
M  V30 1032 O 94.7952 -0.929652 1.4732 0
M  V30 1033 C 91.9272 -1.72317 2.94142 0
M  V30 1034 H 93.1202 0.0841605 2.99782 0
M  V30 1035 H 90.6732 0.0813433 1.56088 0
M  V30 1036 H 91.4082 -2.36653 2.21734 0
M  V30 1037 H 91.1932 -1.35898 3.67796 0
M  V30 1038 H 92.6832 -2.3266 3.46784 0
M  V30 1039 N 93.1203 -1.57491 0.0584922 0
M  V30 1040 C 94.3693 -1.92155 -0.613146 0
M  V30 1041 C 94.6823 -0.939334 -1.71569 0
M  V30 1042 O 95.8883 -1.17829 -2.44599 0
M  V30 1043 C 94.3443 -3.41303 -1.14195 0
M  V30 1044 C 93.9523 -4.47944 -0.0711265 0
M  V30 1045 C 95.6963 -3.84988 -1.78841 0
M  V30 1046 C 93.6033 -5.88212 -0.613225 0
M  V30 1047 H 92.5333 -0.717162 -0.232796 0
M  V30 1048 H 95.1843 -1.83049 0.12857 0
M  V30 1049 H 93.5663 -3.45437 -1.93621 0
M  V30 1050 H 94.7403 -4.55408 0.702836 0
M  V30 1051 H 93.0553 -4.13644 0.478313 0
M  V30 1052 H 95.6523 -4.87159 -2.20408 0
M  V30 1053 H 95.9953 -3.21632 -2.64308 0
M  V30 1054 H 96.5283 -3.83401 -1.06059 0
M  V30 1055 H 93.2673 -6.55183 0.203978 0
M  V30 1056 H 92.7873 -5.84294 -1.35501 0
M  V30 1057 H 94.4663 -6.37687 -1.09383 0
M  V30 1058 N 94.5984 0.214957 -1.56127 0
M  V30 1059 C 95.8454 0.938372 -1.79446 0
M  V30 1060 C 96.1734 1.8407 -0.628378 0
M  V30 1061 O 95.4284 1.91837 0.386925 0
M  V30 1062 C 95.7274 1.80314 -3.0858 0
M  V30 1063 C 95.3934 1.05349 -4.3842 0
M  V30 1064 C 94.0554 0.846435 -4.73697 0
M  V30 1065 C 96.4074 0.524588 -5.18553 0
M  V30 1066 C 93.7354 0.098683 -5.86617 0
M  V30 1067 C 96.0874 -0.209853 -6.32252 0
M  V30 1068 C 94.7514 -0.428102 -6.66126 0
M  V30 1069 H 94.0214 0.343375 -0.656639 0
M  V30 1070 H 96.6684 0.206077 -1.90388 0
M  V30 1071 H 94.9734 2.6035 -2.92789 0
M  V30 1072 H 96.6704 2.36513 -3.23825 0
M  V30 1073 H 93.2604 1.22486 -4.10725 0
M  V30 1074 H 97.4444 0.672008 -4.91729 0
M  V30 1075 H 92.7004 -0.0805753 -6.11347 0
M  V30 1076 H 96.8744 -0.627157 -6.9357 0
M  V30 1077 H 94.5014 -1.00944 -7.53468 0
M  V30 1078 N 96.0765 1.50051 0.48192 0
M  V30 1079 C 97.3225 1.60736 1.2366 0
M  V30 1080 C 97.6555 0.301786 1.91841 0
M  V30 1081 O 96.9305 -0.696025 1.8162 0
M  V30 1082 C 97.2135 2.78009 2.28874 0
M  V30 1083 C 97.0665 4.18416 1.65069 0
M  V30 1084 C 98.3855 2.90867 3.30279 0
M  V30 1085 H 95.5045 0.585031 0.448228 0
M  V30 1086 H 98.1465 1.82402 0.531946 0
M  V30 1087 H 96.2965 2.59667 2.88973 0
M  V30 1088 H 97.9685 4.48322 1.0865 0
M  V30 1089 H 96.2115 4.23177 0.954148 0
M  V30 1090 H 96.8825 4.96381 2.41474 0
M  V30 1091 H 99.3585 3.07623 2.80191 0
M  V30 1092 H 98.2345 3.74566 4.01238 0
M  V30 1093 H 98.4955 2.01021 3.93755 0
M  V30 1094 N 97.5546 -0.734337 1.39446 0
M  V30 1095 C 98.5176 -1.83004 1.37994 0
M  V30 1096 C 99.5176 -1.58397 0.276938 0
M  V30 1097 O 100.708 -1.65785 0.534875 0
M  V30 1098 C 97.8396 -3.20802 1.1532 0
M  V30 1099 H 99.0326 -1.85694 2.35494 0
M  V30 1100 H 96.5856 -0.938059 1.25021 0
M  V30 1101 H 97.3206 -3.23772 0.185036 0
M  V30 1102 H 97.1056 -3.4006 1.95197 0
M  V30 1103 H 98.5956 -4.00862 1.17046 0
M  V30 1104 N 99.0327 -1.24633 -0.964593 0
M  V30 1105 C 99.9627 -1.06611 -2.07741 0
M  V30 1106 C 100.944 0.0218666 -1.70086 0
M  V30 1107 O 102.129 -0.145793 -1.93652 0
M  V30 1108 C 99.2587 -0.673444 -3.40708 0
M  V30 1109 C 98.2127 -1.71054 -3.92332 0
M  V30 1110 C 97.5387 -1.17285 -5.21678 0
M  V30 1111 C 98.8387 -3.10718 -4.19824 0
M  V30 1112 H 100.533 -1.99693 -2.23076 0
M  V30 1113 H 98.0787 -0.96152 -1.07195 0
M  V30 1114 H 100.032 -0.534345 -4.17998 0
M  V30 1115 H 98.7557 0.293073 -3.25282 0
M  V30 1116 H 97.4147 -1.83791 -3.17201 0
M  V30 1117 H 97.0627 -0.196847 -5.02615 0
M  V30 1118 H 96.7627 -1.86592 -5.57187 0
M  V30 1119 H 98.2867 -1.04593 -6.01575 0
M  V30 1120 H 99.7007 -3.01192 -4.87808 0
M  V30 1121 H 98.0977 -3.77406 -4.66567 0
M  V30 1122 H 99.1677 -3.58524 -3.26479 0
M  V30 1123 N 100.511 1.16574 -1.06058 0
M  V30 1124 C 101.444 2.19798 -0.61352 0
M  V30 1125 C 102.422 1.58509 0.362453 0
M  V30 1126 O 103.606 1.86527 0.271994 0
M  V30 1127 C 100.733 3.3855 0.100915 0
M  V30 1128 C 99.7788 4.18317 -0.831438 0
M  V30 1129 S 100.612 4.82375 -2.32539 0
M  V30 1130 C 101.768 6.04508 -1.62238 0
M  V30 1131 H 102.001 2.5738 -1.48805 0
M  V30 1132 H 99.5338 1.27327 -0.873338 0
M  V30 1133 H 101.492 4.07358 0.506898 0
M  V30 1134 H 100.153 2.99338 0.951604 0
M  V30 1135 H 99.3458 5.03232 -0.278071 0
M  V30 1136 H 98.9478 3.5499 -1.17719 0
M  V30 1137 H 101.24 6.71133 -0.926622 0
M  V30 1138 H 102.183 6.64389 -2.44934 0
M  V30 1139 H 102.591 5.53559 -1.106 0
M  V30 1140 N 101.989 0.842826 1.3317 0
M  V30 1141 C 103.236 0.440447 1.97652 0
M  V30 1142 C 103.564 -1.00123 1.6675 0
M  V30 1143 O 102.819 -1.7155 0.941761 0
M  V30 1144 C 103.118 0.612607 3.52111 0
M  V30 1145 C 102.784 2.02297 4.02972 0
M  V30 1146 C 101.446 2.40874 4.16573 0
M  V30 1147 C 103.798 2.94402 4.30089 0
M  V30 1148 C 101.126 3.70852 4.54627 0
M  V30 1149 C 103.478 4.23865 4.69597 0
M  V30 1150 C 102.142 4.62392 4.81404 0
M  V30 1151 H 101.412 0.161171 0.72326 0
M  V30 1152 H 104.059 1.07061 1.58777 0
M  V30 1153 H 102.364 -0.100849 3.9167 0
M  V30 1154 H 104.061 0.2815 4.00011 0
M  V30 1155 H 100.651 1.71338 3.92863 0
M  V30 1156 H 104.835 2.65835 4.19101 0
M  V30 1157 H 100.091 4.00501 4.61962 0
M  V30 1158 H 104.265 4.95306 4.89536 0
M  V30 1159 H 101.892 5.63154 5.10648 0
M  V30 1160 N 103.467 -1.45747 0.599634 0
M  V30 1161 C 104.4 -2.27547 -0.172552 0
M  V30 1162 C 105.378 -1.36657 -0.881116 0
M  V30 1163 O 106.562 -1.66081 -0.891595 0
M  V30 1164 C 103.689 -3.14829 -1.24903 0
M  V30 1165 C 102.735 -4.21603 -0.644465 0
M  V30 1166 S 103.568 -5.32754 0.541606 0
M  V30 1167 C 104.724 -6.23604 -0.535656 0
M  V30 1168 H 104.957 -2.92691 0.521468 0
M  V30 1169 H 102.49 -1.49473 0.386947 0
M  V30 1170 H 104.448 -3.65675 -1.86527 0
M  V30 1171 H 103.109 -2.48965 -1.91508 0
M  V30 1172 H 102.302 -4.82566 -1.45417 0
M  V30 1173 H 101.904 -3.73857 -0.103534 0
M  V30 1174 H 104.196 -6.62519 -1.41686 0
M  V30 1175 H 105.139 -7.0809 0.0376246 0
M  V30 1176 H 105.547 -5.58103 -0.84741 0
M  V30 1177 N 104.945 -0.338344 -1.53925 0
M  V30 1178 C 106.192 0.259758 -2.00827 0
M  V30 1179 C 106.52 1.50973 -1.22628 0
M  V30 1180 O 105.775 1.93379 -0.300509 0
M  V30 1181 C 106.074 0.62448 -3.51902 0
M  V30 1182 C 105.74 -0.528006 -4.47798 0
M  V30 1183 C 104.402 -0.844298 -4.73735 0
M  V30 1184 C 106.754 -1.30143 -5.0469 0
M  V30 1185 C 104.082 -1.93648 -5.53821 0
M  V30 1186 C 106.434 -2.38382 -5.85967 0
M  V30 1187 C 105.098 -2.70576 -6.10201 0
M  V30 1188 H 104.368 0.0950523 -0.734878 0
M  V30 1189 H 107.015 -0.465182 -1.85764 0
M  V30 1190 H 105.32 1.43006 -3.64769 0
M  V30 1191 H 107.017 1.09905 -3.85645 0
M  V30 1192 H 103.607 -0.271421 -4.2774 0
M  V30 1193 H 107.791 -1.07033 -4.84621 0
M  V30 1194 H 103.047 -2.19021 -5.70824 0
M  V30 1195 H 107.221 -2.98746 -6.29066 0
M  V30 1196 H 104.848 -3.55333 -6.72044 0
M  V30 1197 N 106.423 1.57458 -0.0668435 0
M  V30 1198 C 107.669 1.93587 0.6043 0
M  V30 1199 C 108.002 0.946722 1.69561 0
M  V30 1200 O 107.277 -0.0248516 1.94484 0
M  V30 1201 C 107.56 3.40014 1.18585 0
M  V30 1202 C 107.413 4.49685 0.101529 0
M  V30 1203 C 108.732 3.87154 2.09284 0
M  V30 1204 H 105.851 0.703958 0.218202 0
M  V30 1205 H 108.493 1.89542 -0.131804 0
M  V30 1206 H 106.643 3.43592 1.81319 0
M  V30 1207 H 108.315 4.5823 -0.531279 0
M  V30 1208 H 106.558 4.30059 -0.568487 0
M  V30 1209 H 107.229 5.49266 0.54874 0
M  V30 1210 H 109.705 3.85551 1.56491 0
M  V30 1211 H 108.581 4.90231 2.46911 0
M  V30 1212 H 108.842 3.2481 2.99918 0
M  V30 1213 N 107.901 -0.206675 1.56239 0
M  V30 1214 C 109.317 -0.557025 1.49564 0
M  V30 1215 C 109.517 -1.86424 0.764735 0
M  V30 1216 O 108.573 -2.50584 0.310491 0
M  V30 1217 C 109.886 -0.622478 2.94186 0
M  V30 1218 C 111.434 -0.712099 3.04792 0
M  V30 1219 C 111.909 -0.808767 4.50803 0
M  V30 1220 N 113.4 -0.8726 4.54907 0
M  V30 1221 C 114.135 -0.967365 5.65181 0
M  V30 1222 N 113.631 -1.02515 6.85173 0
M  V30 1223 N 115.424 -1.00366 5.53067 0
M  V30 1224 H 107.575 0.650943 2.02179 0
M  V30 1225 H 109.838 0.230387 0.919579 0
M  V30 1226 H 109.544 0.268727 3.50672 0
M  V30 1227 H 109.418 -1.4811 3.46905 0
M  V30 1228 H 111.805 -1.59374 2.48363 0
M  V30 1229 H 111.886 0.172489 2.55218 0
M  V30 1230 H 111.53 0.0684754 5.07854 0
M  V30 1231 H 111.46 -1.70899 4.98098 0
M  V30 1232 H 113.951 -0.837657 3.68499 0
M  V30 1233 H 114.264 -1.09765 7.64965 0
M  V30 1234 H 112.609 -0.994026 6.87855 0
M  V30 1235 H 115.8 -0.95527 4.58249 0
M  V30 1236 H 115.973 -1.07405 6.39037 0
M  V30 1237 N 109.379 -1.50304 -0.473955 0
M  V30 1238 C 110.626 -1.6115 -1.22625 0
M  V30 1239 C 110.954 -0.310517 -1.92005 0
M  V30 1240 O 110.209 0.703419 -1.82621 0
M  V30 1241 C 110.508 -2.73938 -2.29549 0
M  V30 1242 C 110.174 -4.14519 -1.7744 0
M  V30 1243 C 108.836 -4.5277 -1.62949 0
M  V30 1244 C 111.188 -5.02392 -1.3875 0
M  V30 1245 C 108.516 -5.76639 -1.08187 0
M  V30 1246 C 110.868 -6.26805 -0.854309 0
M  V30 1247 C 109.532 -6.63861 -0.696011 0
M  V30 1248 H 108.802 -0.589691 -0.448715 0
M  V30 1249 H 111.449 -1.84228 -0.522705 0
M  V30 1250 H 109.754 -2.44937 -3.05799 0
M  V30 1251 H 111.451 -2.79534 -2.87509 0
M  V30 1252 H 108.041 -3.8434 -1.89685 0
M  V30 1253 H 112.225 -4.73474 -1.4878 0
M  V30 1254 H 107.481 -6.04027 -0.946666 0
M  V30 1255 H 111.655 -6.94258 -0.545843 0
M  V30 1256 H 109.282 -7.59722 -0.26952 0
M  V30 1257 N 110.857 0.726932 -1.39834 0
M  V30 1258 C 112.103 1.48884 -1.377 0
M  V30 1259 C 112.436 1.94185 0.0244852 0
M  V30 1260 O 111.711 1.67361 0.990986 0
M  V30 1261 C 111.994 2.72288 -2.3565 0
M  V30 1262 C 111.847 2.32956 -3.84775 0
M  V30 1263 C 113.166 3.74414 -2.31306 0
M  V30 1264 H 110.285 0.540062 -0.5015 0
M  V30 1265 H 112.927 0.830547 -1.70886 0
M  V30 1266 H 111.077 3.28457 -2.07481 0
M  V30 1267 H 112.749 1.82356 -4.23726 0
M  V30 1268 H 110.992 1.65088 -4.01159 0
M  V30 1269 H 111.663 3.21362 -4.4881 0
M  V30 1270 H 114.139 3.27849 -2.56231 0
M  V30 1271 H 113.015 4.58414 -3.01907 0
M  V30 1272 H 113.276 4.21909 -1.32081 0
M  V30 1273 N 112.336 1.25143 0.95797 0
M  V30 1274 C 113.286 1.01924 2.0395 0
M  V30 1275 C 114.27 -0.0427175 1.60843 0
M  V30 1276 O 115.462 0.17221 1.7616 0
M  V30 1277 C 112.591 0.636373 3.3735 0
M  V30 1278 C 111.677 1.73492 3.8699 0
M  V30 1279 N 112.068 2.96945 4.0946 0
M  V30 1280 C 110.366 1.61467 4.15746 0
M  V30 1281 C 111.067 3.68228 4.50315 0
M  V30 1282 N 110.043 2.95833 4.56053 0
M  V30 1283 H 113.845 1.95653 2.19311 0
M  V30 1284 H 111.359 1.15413 1.14253 0
M  V30 1285 H 113.356 0.451233 4.14451 0
M  V30 1286 H 112.016 -0.293621 3.2337 0
M  V30 1287 H 113.027 3.33025 3.96629 0
M  V30 1288 H 109.704 0.753394 4.10646 0
M  V30 1289 H 111.094 4.74178 4.76031 0
M  V30 1290 N 113.814 -1.1601 1.06675 0
M  V30 1291 C 114.764 -2.18512 0.650888 0
M  V30 1292 C 115.748 -1.57677 -0.320441 0
M  V30 1293 O 116.94 -1.76482 -0.135266 0
M  V30 1294 C 114.069 -3.43273 0.0429255 0
M  V30 1295 C 113.155 -4.11176 1.03898 0
M  V30 1296 N 113.546 -4.54672 2.216 0
M  V30 1297 C 111.844 -4.37417 0.870779 0
M  V30 1298 C 112.545 -5.07248 2.84736 0
M  V30 1299 N 111.521 -5.0037 2.12441 0
M  V30 1300 H 115.323 -2.49863 1.54745 0
M  V30 1301 H 112.837 -1.32503 0.938975 0
M  V30 1302 H 114.834 -4.16006 -0.272857 0
M  V30 1303 H 113.494 -3.13408 -0.84884 0
M  V30 1304 H 114.505 -4.4828 2.59356 0
M  V30 1305 H 111.182 -4.17488 0.0313293 0
M  V30 1306 H 112.572 -5.50912 3.84636 0
M  V30 1307 N 115.292 -0.849877 -1.32721 0
M  V30 1308 C 116.24 -0.279745 -2.30912 0
M  V30 1309 C 117.234 0.594278 -1.58634 0
M  V30 1310 O 118.44 0.482613 -1.73409 0
M  V30 1311 H 114.815 -0.0717521 -0.748569 0
M  V30 1312 H 116.786 -1.12222 -2.76494 0
M  V30 1313 C 115.535 0.521108 -3.43773 0
M  V30 1314 H 114.858 -0.142141 -3.99547 0
M  V30 1315 H 116.298 0.885693 -4.14646 0
M  V30 1316 C 114.757 1.70442 -2.90605 0
M  V30 1317 O 115.287 2.8034 -2.87702 0
M  V30 1318 N 113.493 1.52991 -2.47067 0
M  V30 1319 H 113.04 0.635914 -2.49628 0
M  V30 1320 H 112.998 2.32311 -2.11847 0
M  V30 1321 N 116.77 1.45427 -0.607355 0
M  V30 1322 C 118.019 2.01452 -0.100036 0
M  V30 1323 C 118.332 1.48159 1.27704 0
M  V30 1324 O 119.538 1.96159 1.87707 0
M  V30 1325 C 117.994 3.59672 -0.128158 0
M  V30 1326 C 117.602 4.21962 -1.50507 0
M  V30 1327 C 119.346 4.23262 0.323932 0
M  V30 1328 C 117.253 5.72333 -1.48959 0
M  V30 1329 H 116.183 0.75325 -0.0336299 0
M  V30 1330 H 118.834 1.66901 -0.76265 0
M  V30 1331 H 117.216 3.91411 0.601105 0
M  V30 1332 H 118.39 4.01796 -2.25602 0
M  V30 1333 H 116.705 3.70565 -1.89923 0
M  V30 1334 H 119.302 5.33522 0.354691 0
M  V30 1335 H 119.645 3.93921 1.34656 0
M  V30 1336 H 120.178 3.96239 -0.352056 0
M  V30 1337 H 116.917 6.06373 -2.48981 0
M  V30 1338 H 116.437 5.94691 -0.781214 0
M  V30 1339 H 118.116 6.35525 -1.21313 0
M  V30 1340 N 118.248 0.346503 1.53744 0
M  V30 1341 C 119.659 -0.136779 1.86198 0
M  V30 1342 C 120.01 -1.49749 1.26766 0
M  V30 1343 O 119.135 -2.08417 0.582355 0
M  V30 1344 C 119.73 -0.254966 3.37839 0
M  V30 1345 C 118.289 -0.682482 3.70161 0
M  V30 1346 C 117.436 0.181981 2.76702 0
M  V30 1347 H 120.387 0.565994 1.48264 0
M  V30 1348 H 120.408 -1.08195 3.64793 0
M  V30 1349 H 119.92 0.735526 3.81066 0
M  V30 1350 H 118.021 -1.68189 3.3248 0
M  V30 1351 H 118.134 -0.470326 4.76786 0
M  V30 1352 H 116.498 -0.34615 2.52337 0
M  V30 1353 H 117.281 1.16966 3.2276 0
M  V30 1354 N 119.726 -1.57421 0.075193 0
M  V30 1355 C 121.003 -1.85029 -0.634329 0
M  V30 1356 C 121.383 -0.968305 -1.87582 0
M  V30 1357 O 120.731 -0.0354749 -2.28472 0
M  V30 1358 C 120.941 -3.35286 -0.968742 0
M  V30 1359 C 122.289 -4.02875 -1.34077 0
M  V30 1360 O 123.313 -3.40051 -1.06037 0
M  V30 1361 O 122.172 -5.13691 -1.86506 0
M  V30 1362 H 119.266 -0.7645 -0.315387 0
M  V30 1363 H 121.812 -1.69366 0.106382 0
M  V30 1364 H 120.584 -3.91203 -0.0871376 0
M  V30 1365 H 120.207 -3.56223 -1.7661 0
M  V30 1366 N 121.204 0.198386 -1.56346 0
M  V30 1367 C 122.151 1.24589 -1.94284 0
M  V30 1368 C 123.121 1.454 -0.802997 0
M  V30 1369 O 124.306 1.58588 -1.06087 0
M  V30 1370 C 121.446 2.58631 -2.28482 0
M  V30 1371 C 120.559 2.45426 -3.55514 0
M  V30 1372 C 119.694 3.7215 -3.79049 0
M  V30 1373 C 118.733 3.53763 -4.99518 0
M  V30 1374 N 117.87 4.72491 -5.19323 0
M  V30 1375 H 122.71 0.915356 -2.83593 0
M  V30 1376 H 120.247 0.440629 -1.40346 0
M  V30 1377 H 122.205 3.3672 -2.46324 0
M  V30 1378 H 120.835 2.89734 -1.42317 0
M  V30 1379 H 119.887 1.58652 -3.45737 0
M  V30 1380 H 121.199 2.27772 -4.43758 0
M  V30 1381 H 120.353 4.58679 -3.97113 0
M  V30 1382 H 119.092 3.92754 -2.89129 0
M  V30 1383 H 118.097 2.65619 -4.8138 0
M  V30 1384 H 119.322 3.34607 -5.90944 0
M  V30 1385 H 117.268 4.93365 -4.3235 0
M  V30 1386 H 117.185 4.5765 -6.01741 0
M  V30 1387 H 118.453 5.6038 -5.41843 0
M  V30 1388 N 122.682 1.50554 0.465978 0
M  V30 1389 C 123.629 1.6979 1.56333 0
M  V30 1390 C 124.599 0.539239 1.57103 0
M  V30 1391 O 125.784 0.770401 1.74555 0
M  V30 1392 C 122.924 1.80273 2.94271 0
M  V30 1393 C 122.037 3.07674 3.0325 0
M  V30 1394 C 121.172 3.08922 4.32135 0
M  V30 1395 C 120.211 4.30755 4.34875 0
M  V30 1396 N 119.348 4.29714 5.55239 0
M  V30 1397 H 124.188 2.63472 1.39235 0
M  V30 1398 H 121.725 1.30602 0.676873 0
M  V30 1399 H 123.683 1.84332 3.74269 0
M  V30 1400 H 122.313 0.900258 3.09992 0
M  V30 1401 H 121.365 3.13062 2.16094 0
M  V30 1402 H 122.677 3.97642 3.01135 0
M  V30 1403 H 121.831 3.11738 5.20485 0
M  V30 1404 H 120.57 2.16792 4.36866 0
M  V30 1405 H 119.575 4.28146 3.44922 0
M  V30 1406 H 120.8 5.24117 4.31831 0
M  V30 1407 H 118.746 3.4044 5.60746 0
M  V30 1408 H 118.663 5.13456 5.54886 0
M  V30 1409 H 119.931 4.36683 6.457 0
M  V30 1410 N 124.16 -0.719506 1.40217 0
M  V30 1411 C 125.437 -1.47221 1.28784 0
M  V30 1412 C 125.817 -2.10883 -0.0956067 0
M  V30 1413 O 125.165 -1.99833 -1.10811 0
M  V30 1414 C 125.375 -2.5111 2.42373 0
M  V30 1415 C 126.723 -3.17053 2.82423 0
M  V30 1416 O 127.747 -2.61429 2.41937 0
M  V30 1417 O 126.606 -4.17742 3.52355 0
M  V30 1418 H 123.7 -0.654491 0.50554 0
M  V30 1419 H 126.246 -0.752014 1.52128 0
M  V30 1420 H 125.018 -2.02556 3.34793 0
M  V30 1421 H 124.641 -3.3067 2.20778 0
M  V30 1422 N 125.638 -1.25649 -0.95132 0
M  V30 1423 C 126.887 -1.09988 -1.69073 0
M  V30 1424 C 127.2 0.358355 -1.92289 0
M  V30 1425 O 128.406 0.635466 -2.63958 0
M  V30 1426 C 126.862 -1.92012 -3.044 0
M  V30 1427 C 126.47 -3.42347 -2.88968 0
M  V30 1428 C 128.214 -1.8493 -3.82101 0
M  V30 1429 C 126.121 -4.16655 -4.19705 0
M  V30 1430 H 125.051 -0.407993 -0.63408 0
M  V30 1431 H 127.702 -1.49873 -1.05879 0
M  V30 1432 H 126.084 -1.44952 -3.68517 0
M  V30 1433 H 127.258 -3.97104 -2.33762 0
M  V30 1434 H 125.573 -3.50557 -2.24719 0
M  V30 1435 H 128.17 -2.37739 -4.78941 0
M  V30 1436 H 128.513 -0.817883 -4.08187 0
M  V30 1437 H 129.046 -2.29758 -3.2474 0
M  V30 1438 H 125.785 -5.20224 -3.98807 0
M  V30 1439 H 125.305 -3.66681 -4.74663 0
M  V30 1440 H 126.984 -4.24551 -4.88227 0
M  V30 1441 N 127.117 1.15442 -1.07289 0
M  V30 1442 C 128.528 1.67803 -0.818475 0
M  V30 1443 C 128.879 1.8489 0.656507 0
M  V30 1444 O 128.004 1.55176 1.50829 0
M  V30 1445 C 128.599 3.04805 -1.47917 0
M  V30 1446 C 127.158 3.54245 -1.27229 0
M  V30 1447 C 126.305 2.29986 -1.54925 0
M  V30 1448 H 129.256 0.996646 -1.23502 0
M  V30 1449 H 129.277 3.69702 -0.90005 0
M  V30 1450 H 128.789 2.92336 -2.55267 0
M  V30 1451 H 126.89 3.71956 -0.21899 0
M  V30 1452 H 127.003 4.35723 -1.99203 0
M  V30 1453 H 125.367 2.35496 -0.970242 0
M  V30 1454 H 126.15 2.20105 -2.63455 0
M  V30 1455 N 128.595 0.856903 1.32268 0
M  V30 1456 C 129.841 0.471355 1.97863 0
M  V30 1457 C 130.196 -0.962896 1.66572 0
M  V30 1458 O 129.489 -1.66686 0.944797 0
M  V30 1459 C 129.683 0.649919 3.51441 0
M  V30 1460 C 129.512 2.09997 3.97657 0
M  V30 1461 C 128.282 2.73893 4.2463 0
M  V30 1462 C 130.48 3.07081 4.1256 0
M  V30 1463 N 128.462 4.09786 4.57109 0
M  V30 1464 C 129.833 4.27968 4.48602 0
M  V30 1465 C 131.888 3.03247 3.949 0
M  V30 1466 C 130.591 5.45521 4.68827 0
M  V30 1467 C 132.617 4.20046 4.16311 0
M  V30 1468 C 131.979 5.39692 4.52672 0
M  V30 1469 H 128.078 0.221263 0.750044 0
M  V30 1470 H 130.662 1.10876 1.60045 0
M  V30 1471 H 128.833 0.0421938 3.88377 0
M  V30 1472 H 130.565 0.234044 4.04023 0
M  V30 1473 H 127.32 2.24918 4.16784 0
M  V30 1474 H 127.744 4.7989 4.7753 0
M  V30 1475 H 132.386 2.11863 3.65888 0
M  V30 1476 H 130.104 6.37434 4.96693 0
M  V30 1477 H 133.69 4.18517 4.04147 0
M  V30 1478 H 132.57 6.28566 4.68907 0
M  V30 1479 N 130.073 -1.45103 0.615059 0
M  V30 1480 C 131.003 -2.33339 -0.0865619 0
M  V30 1481 C 131.984 -1.4727 -0.851209 0
M  V30 1482 O 133.169 -1.76026 -0.820281 0
M  V30 1483 C 130.299 -3.30095 -1.07956 0
M  V30 1484 C 129.253 -4.25858 -0.427628 0
M  V30 1485 C 128.579 -5.12361 -1.5294 0
M  V30 1486 C 129.879 -5.18165 0.655944 0
M  V30 1487 H 131.573 -2.92254 0.650224 0
M  V30 1488 H 129.119 -1.40532 0.314138 0
M  V30 1489 H 131.072 -3.90698 -1.57901 0
M  V30 1490 H 129.796 -2.69355 -1.84703 0
M  V30 1491 H 128.455 -3.66564 0.0510292 0
M  V30 1492 H 128.103 -4.47984 -2.28734 0
M  V30 1493 H 127.803 -5.77238 -1.09865 0
M  V30 1494 H 129.327 -5.75833 -2.03098 0
M  V30 1495 H 130.741 -5.72796 0.240257 0
M  V30 1496 H 129.138 -5.91559 1.00888 0
M  V30 1497 H 130.208 -4.60144 1.52957 0
M  V30 1498 N 131.551 -0.354651 -1.53558 0
M  V30 1499 C 132.481 0.489091 -2.2832 0
M  V30 1500 C 133.462 1.09324 -1.30316 0
M  V30 1501 O 134.647 1.11255 -1.59173 0
M  V30 1502 C 131.777 1.63456 -3.0643 0
M  V30 1503 C 130.731 1.1582 -4.12031 0
M  V30 1504 C 130.057 2.39305 -4.7816 0
M  V30 1505 C 131.357 0.250731 -5.21698 0
M  V30 1506 H 133.051 -0.134614 -2.99097 0
M  V30 1507 H 130.597 -0.0661826 -1.43848 0
M  V30 1508 H 132.55 2.23136 -3.57475 0
M  V30 1509 H 131.274 2.28533 -2.33325 0
M  V30 1510 H 129.933 0.584146 -3.61916 0
M  V30 1511 H 129.581 3.02814 -4.01637 0
M  V30 1512 H 129.281 2.08109 -5.49513 0
M  V30 1513 H 130.805 2.99691 -5.31994 0
M  V30 1514 H 132.219 0.754695 -5.68311 0
M  V30 1515 H 130.616 0.0301468 -6.00092 0
M  V30 1516 H 131.686 -0.710125 -4.79672 0
M  V30 1517 N 133.029 1.57378 -0.0835403 0
M  V30 1518 C 133.977 2.14602 0.89714 0
M  V30 1519 C 134.971 1.08589 1.30018 0
M  V30 1520 O 136.177 1.26952 1.27606 0
M  V30 1521 H 132.552 0.686346 0.3073 0
M  V30 1522 H 134.523 2.95845 0.38969 0
M  V30 1523 C 133.272 2.73188 2.15089 0
M  V30 1524 H 132.595 3.54442 1.84962 0
M  V30 1525 H 134.035 3.1681 2.81793 0
M  V30 1526 C 132.494 1.68517 2.91725 0
M  V30 1527 O 133.024 1.11718 3.85852 0
M  V30 1528 N 131.23 1.39277 2.55049 0
M  V30 1529 H 130.777 1.85655 1.78577 0
M  V30 1530 H 130.735 0.694791 3.06627 0
M  V30 1531 N 134.507 -0.190092 1.56449 0
M  V30 1532 C 135.756 -0.907912 1.80111 0
M  V30 1533 C 136.069 -1.84214 0.657619 0
M  V30 1534 O 137.275 -2.60094 0.778663 0
M  V30 1535 C 135.731 -1.66485 3.19078 0
M  V30 1536 C 135.339 -0.7752 4.41242 0
M  V30 1537 C 137.083 -2.37201 3.52045 0
M  V30 1538 C 134.99 -1.53129 5.71231 0
M  V30 1539 H 133.92 -0.34276 0.671589 0
M  V30 1540 H 136.571 -0.161109 1.82791 0
M  V30 1541 H 134.953 -2.45572 3.10661 0
M  V30 1542 H 136.127 -0.0226298 4.60794 0
M  V30 1543 H 134.442 -0.178627 4.16017 0
M  V30 1544 H 137.039 -2.94329 4.46402 0
M  V30 1545 H 137.382 -3.11632 2.76028 0
M  V30 1546 H 137.915 -1.65075 3.61932 0
M  V30 1547 H 134.654 -0.82967 6.50228 0
M  V30 1548 H 134.174 -2.25767 5.55688 0
M  V30 1549 H 135.853 -2.08377 6.12526 0
M  V30 1550 N 135.985 -1.50799 -0.457987 0
M  V30 1551 C 137.231 -1.62683 -1.21088 0
M  V30 1552 C 137.564 -0.332268 -1.91336 0
M  V30 1553 O 136.839 0.667043 -1.82704 0
M  V30 1554 C 137.122 -2.81615 -2.24422 0
M  V30 1555 C 136.975 -4.20989 -1.58392 0
M  V30 1556 C 138.294 -2.96085 -3.2561 0
M  V30 1557 H 135.413 -0.592087 -0.438864 0
M  V30 1558 H 138.055 -1.83225 -0.50286 0
M  V30 1559 H 136.205 -2.64231 -2.84806 0
M  V30 1560 H 137.877 -4.49994 -1.01504 0
M  V30 1561 H 136.12 -4.24641 -0.886704 0
M  V30 1562 H 136.791 -5.0016 -2.33547 0
M  V30 1563 H 139.267 -3.12042 -2.75262 0
M  V30 1564 H 138.143 -3.80902 -3.95228 0
M  V30 1565 H 138.404 -2.0726 -3.90507 0
M  V30 1566 N 137.463 0.71206 -1.40597 0
M  V30 1567 C 138.373 1.8562 -1.43466 0
M  V30 1568 C 139.389 1.70902 -0.326902 0
M  V30 1569 O 140.565 1.93105 -0.572043 0
M  V30 1570 C 137.63 3.21451 -1.29884 0
M  V30 1571 C 136.691 3.48398 -2.50833 0
M  V30 1572 C 135.924 4.77749 -2.3789 0
M  V30 1573 O 136.147 5.53089 -1.39459 0
M  V30 1574 O 135.081 5.05111 -3.27333 0
M  V30 1575 H 138.907 1.86155 -2.39958 0
M  V30 1576 H 136.492 0.86295 -1.21957 0
M  V30 1577 H 138.374 4.02579 -1.24531 0
M  V30 1578 H 137.049 3.21636 -0.364997 0
M  V30 1579 H 135.956 2.67265 -2.61763 0
M  V30 1580 H 137.289 3.53014 -3.4299 0
M  V30 1581 N 138.941 1.26152 0.944643 0
M  V30 1582 C 140.187 1.11657 1.69294 0
M  V30 1583 C 140.52 -0.339926 1.91202 0
M  V30 1584 O 139.795 -1.24994 1.49019 0
M  V30 1585 C 140.078 1.88236 3.06984 0
M  V30 1586 C 139.931 3.41772 2.92424 0
M  V30 1587 C 141.25 1.67343 4.07043 0
M  V30 1588 H 138.369 0.407004 0.614424 0
M  V30 1589 H 141.011 1.55106 1.09737 0
M  V30 1590 H 139.161 1.51308 3.57824 0
M  V30 1591 H 140.833 3.88433 2.48832 0
M  V30 1592 H 139.076 3.68974 2.28124 0
M  V30 1593 H 139.747 3.90579 3.90067 0
M  V30 1594 H 142.223 1.99509 3.65151 0
M  V30 1595 H 141.099 2.23346 5.01406 0
M  V30 1596 H 141.36 0.617158 4.37771 0
M  V30 1597 N 140.419 -1.14872 1.07899 0
M  V30 1598 C 141.349 -2.2193 0.725887 0
M  V30 1599 C 142.33 -1.67622 -0.28927 0
M  V30 1600 O 143.515 -1.93533 -0.160787 0
M  V30 1601 C 140.645 -3.47061 0.128856 0
M  V30 1602 C 139.599 -4.14363 1.07178 0
M  V30 1603 C 138.925 -5.33636 0.337229 0
M  V30 1604 C 140.225 -4.63492 2.40775 0
M  V30 1605 H 141.919 -2.51724 1.62097 0
M  V30 1606 H 139.465 -1.20991 0.780838 0
M  V30 1607 H 141.418 -4.21199 -0.130147 0
M  V30 1608 H 140.142 -3.16617 -0.80134 0
M  V30 1609 H 138.801 -3.42173 1.3158 0
M  V30 1610 H 138.449 -4.99449 -0.596606 0
M  V30 1611 H 138.149 -5.79609 0.965788 0
M  V30 1612 H 139.673 -6.10539 0.0861567 0
M  V30 1613 H 141.087 -5.2913 2.20669 0
M  V30 1614 H 139.484 -5.20148 2.99276 0
M  V30 1615 H 140.554 -3.78834 3.02676 0
M  V30 1616 N 141.898 -0.863906 -1.31812 0
M  V30 1617 C 142.845 -0.313303 -2.28664 0
M  V30 1618 C 143.815 0.584868 -1.55462 0
M  V30 1619 O 145 0.517805 -1.83639 0
M  V30 1620 C 142.14 0.48441 -3.41683 0
M  V30 1621 C 141.253 -0.440594 -4.29747 0
M  V30 1622 C 140.388 0.370652 -5.29905 0
M  V30 1623 C 139.427 -0.551164 -6.09613 0
M  V30 1624 N 138.564 0.223462 -7.01744 0
M  V30 1625 H 143.404 -1.14444 -2.75148 0
M  V30 1626 H 140.941 -0.575769 -1.35364 0
M  V30 1627 H 142.899 0.962627 -4.05943 0
M  V30 1628 H 141.529 1.28029 -2.96325 0
M  V30 1629 H 140.581 -1.03724 -3.65986 0
M  V30 1630 H 141.893 -1.14767 -4.85417 0
M  V30 1631 H 141.047 0.911638 -5.99812 0
M  V30 1632 H 139.786 1.11105 -4.74876 0
M  V30 1633 H 138.791 -1.10396 -5.38603 0
M  V30 1634 H 140.016 -1.29032 -6.66729 0
M  V30 1635 H 137.962 0.946787 -6.49132 0
M  V30 1636 H 137.879 -0.424399 -7.54808 0
M  V30 1637 H 139.147 0.745876 -7.75923 0
M  V30 1638 N 143.376 1.44774 -0.622745 0
M  V30 1639 C 144.624 2.01721 -0.123655 0
M  V30 1640 C 144.945 1.49172 1.25589 0
M  V30 1641 O 144.215 0.691974 1.83272 0
M  V30 1642 H 142.795 0.745777 -0.0427225 0
M  V30 1643 H 145.457 1.77382 -0.807559 0
M  V30 1644 H 144.553 3.11984 -0.0849534 0
M  V30 1645 N 144.854 0.36279 1.53368 0
M  V30 1646 C 145.802 -0.500155 2.27159 0
M  V30 1647 C 146.796 -1.08575 1.3003 0
M  V30 1648 O 148.002 -1.02927 1.47668 0
M  V30 1649 H 144.377 -0.180009 0.730138 0
M  V30 1650 H 146.348 0.14401 2.98052 0
M  V30 1651 C 145.097 -1.62937 3.07159 0
M  V30 1652 H 144.42 -1.18806 3.8174 0
M  V30 1653 H 145.86 -2.20795 3.61975 0
M  V30 1654 C 144.319 -2.57007 2.17829 0
M  V30 1655 O 144.849 -3.59752 1.78721 0
M  V30 1656 N 143.055 -2.26131 1.82518 0
M  V30 1657 H 142.602 -1.42616 2.14519 0
M  V30 1658 H 142.56 -2.89327 1.23034 0
M  V30 1659 N 146.332 -1.57332 0.0918853 0
M  V30 1660 C 147.242 -2.17368 -0.882505 0
M  V30 1661 C 148.258 -1.14226 -1.31257 0
M  V30 1662 O 149.434 -1.46582 -1.38115 0
M  V30 1663 C 146.499 -2.73962 -2.12476 0
M  V30 1664 C 145.56 -3.92048 -1.7492 0
M  V30 1665 C 144.793 -4.45933 -2.93223 0
M  V30 1666 O 145.016 -3.98764 -4.07852 0
M  V30 1667 O 143.95 -5.36999 -2.71875 0
M  V30 1668 H 147.776 -3.01031 -0.40172 0
M  V30 1669 H 145.361 -1.48813 -0.132291 0
M  V30 1670 H 147.243 -3.10147 -2.85283 0
M  V30 1671 H 145.918 -1.93347 -2.59613 0
M  V30 1672 H 144.825 -3.6068 -0.993025 0
M  V30 1673 H 146.158 -4.74017 -1.32548 0
M  V30 1674 N 147.81 0.181792 -1.56548 0
M  V30 1675 C 148.76 1.22961 -1.92002 0
M  V30 1676 C 149.744 1.40331 -0.787146 0
M  V30 1677 O 150.936 1.42478 -1.05019 0
M  V30 1678 C 148.065 2.57144 -2.27446 0
M  V30 1679 C 147.151 2.43512 -3.47222 0
M  V30 1680 N 147.542 1.99577 -4.64761 0
M  V30 1681 C 145.84 2.74368 -3.51622 0
M  V30 1682 C 146.541 1.98156 -5.46909 0
M  V30 1683 N 145.517 2.40164 -4.8767 0
M  V30 1684 H 149.319 0.881462 -2.8037 0
M  V30 1685 H 146.833 0.390141 -1.57644 0
M  V30 1686 H 148.83 3.32847 -2.51035 0
M  V30 1687 H 147.49 2.92771 -1.40411 0
M  V30 1688 H 148.501 1.70078 -4.89177 0
M  V30 1689 H 145.178 3.14102 -2.75038 0
M  V30 1690 H 146.568 1.65975 -6.51077 0
M  V30 1691 N 149.288 1.51039 0.449983 0
M  V30 1692 C 150.235 1.71439 1.54523 0
M  V30 1693 C 151.205 0.555871 1.56522 0
M  V30 1694 O 152.39 0.788871 1.73728 0
M  V30 1695 C 149.53 1.83384 2.92343 0
M  V30 1696 C 148.643 3.10873 2.9997 0
M  V30 1697 C 147.778 3.13488 4.28834 0
M  V30 1698 C 146.817 4.35343 4.30282 0
M  V30 1699 N 145.954 4.35579 5.5065 0
M  V30 1700 H 150.794 2.64934 1.36433 0
M  V30 1701 H 148.331 1.31312 0.662982 0
M  V30 1702 H 150.289 1.88291 3.72293 0
M  V30 1703 H 148.919 0.933086 3.0902 0
M  V30 1704 H 147.971 3.15336 2.12761 0
M  V30 1705 H 149.283 4.00814 2.96901 0
M  V30 1706 H 148.437 3.17241 5.17149 0
M  V30 1707 H 147.176 2.21414 4.34543 0
M  V30 1708 H 146.181 4.3178 3.40362 0
M  V30 1709 H 147.406 5.28668 4.26248 0
M  V30 1710 H 145.352 3.46369 5.57104 0
M  V30 1711 H 145.269 5.19313 5.49409 0
M  V30 1712 H 146.537 4.43507 6.41032 0
M  V30 1713 N 150.766 -0.704594 1.40972 0
M  V30 1714 C 152.012 -1.46675 1.40051 0
M  V30 1715 C 152.345 -1.94199 0.00641102 0
M  V30 1716 O 151.62 -1.68916 -0.964235 0
M  V30 1717 C 151.903 -2.68505 2.39952 0
M  V30 1718 C 151.756 -2.26805 3.88432 0
M  V30 1719 C 153.075 -3.70686 2.37233 0
M  V30 1720 H 150.194 -0.532015 0.510028 0
M  V30 1721 H 152.836 -0.803255 1.72185 0
M  V30 1722 H 150.986 -3.25114 2.1268 0
M  V30 1723 H 152.658 -1.75592 4.26574 0
M  V30 1724 H 150.901 -1.58685 4.03734 0
M  V30 1725 H 151.572 -3.14181 4.53866 0
M  V30 1726 H 154.048 -3.23731 2.61415 0
M  V30 1727 H 152.924 -4.53553 3.09162 0
M  V30 1728 H 153.185 -4.19754 1.38777 0
M  V30 1729 N 152.244 -1.26651 -0.937939 0
M  V30 1730 C 153.207 -1.08546 -2.01867 0
M  V30 1731 C 154.207 -0.0327327 -1.60767 0
M  V30 1732 O 155.397 -0.276427 -1.71993 0
M  V30 1733 C 152.529 -0.651711 -3.34613 0
M  V30 1734 H 153.722 -2.04502 -2.1936 0
M  V30 1735 H 151.275 -1.09294 -1.11734 0
M  V30 1736 H 152.01 0.309696 -3.22818 0
M  V30 1737 H 151.795 -1.41189 -3.65798 0
M  V30 1738 H 153.285 -0.546973 -4.14002 0
M  V30 1739 N 153.722 1.14298 -1.08507 0
M  V30 1740 C 154.999 1.81544 -0.728088 0
M  V30 1741 C 155.379 1.95838 0.78808 0
M  V30 1742 O 154.727 1.51904 1.70697 0
M  V30 1743 C 154.937 3.17169 -1.45619 0
M  V30 1744 C 156.285 3.9265 -1.61591 0
M  V30 1745 O 157.309 3.26762 -1.41793 0
M  V30 1746 O 156.168 5.10807 -1.94263 0
M  V30 1747 H 153.262 0.78491 -0.260471 0
M  V30 1748 H 155.808 1.21307 -1.18671 0
M  V30 1749 H 154.58 3.01934 -2.489 0
M  V30 1750 H 154.203 3.851 -0.989124 0
M  V30 1751 N 155.201 0.870884 1.31352 0
M  V30 1752 C 156.447 0.482987 1.96965 0
M  V30 1753 C 156.78 -0.962462 1.68672 0
M  V30 1754 O 156.055 -1.6779 0.98371 0
M  V30 1755 C 156.338 0.741752 3.52378 0
M  V30 1756 C 156.191 2.2368 3.9024 0
M  V30 1757 C 157.51 0.208838 4.39604 0
M  V30 1758 H 154.629 0.176955 0.715441 0
M  V30 1759 H 157.271 1.09229 1.55464 0
M  V30 1760 H 155.421 0.223149 3.87859 0
M  V30 1761 H 157.093 2.82273 3.64856 0
M  V30 1762 H 155.336 2.70901 3.38814 0
M  V30 1763 H 156.007 2.3685 4.98604 0
M  V30 1764 H 158.483 0.652529 4.10952 0
M  V30 1765 H 157.359 0.419336 5.47296 0
M  V30 1766 H 157.62 -0.889275 4.33064 0
M  V30 1767 N 156.679 -1.44442 0.630414 0
M  V30 1768 C 157.927 -2.01653 0.134351 0
M  V30 1769 C 158.248 -1.49836 -1.24796 0
M  V30 1770 O 157.518 -0.701684 -1.82902 0
M  V30 1771 H 156.098 -0.74554 0.0466769 0
M  V30 1772 H 158.76 -1.76952 0.816955 0
M  V30 1773 H 157.856 -3.11935 0.101498 0
M  V30 1774 N 158.157 -0.370918 -1.53173 0
M  V30 1775 C 159.104 0.473035 -2.259 0
M  V30 1776 C 160.074 1.07311 -1.26781 0
M  V30 1777 O 161.259 1.1046 -1.55574 0
M  V30 1778 C 158.399 1.60405 -3.05556 0
M  V30 1779 C 157.512 1.02863 -4.19575 0
M  V30 1780 C 156.647 2.12918 -4.86661 0
M  V30 1781 C 155.686 1.52869 -5.92704 0
M  V30 1782 N 154.823 2.56779 -6.53459 0
M  V30 1783 H 159.663 -0.153649 -2.97604 0
M  V30 1784 H 157.2 -0.0875946 -1.46839 0
M  V30 1785 H 159.158 2.27034 -3.50016 0
M  V30 1786 H 157.788 2.20131 -2.36097 0
M  V30 1787 H 156.84 0.252465 -3.79561 0
M  V30 1788 H 158.152 0.549642 -4.95762 0
M  V30 1789 H 157.306 2.87356 -5.34333 0
M  V30 1790 H 156.045 2.6417 -4.09958 0
M  V30 1791 H 155.05 0.769479 -5.44389 0
M  V30 1792 H 156.275 1.02435 -6.7133 0
M  V30 1793 H 154.221 3.07235 -5.79606 0
M  V30 1794 H 154.138 2.13583 -7.25202 0
M  V30 1795 H 155.406 3.30903 -7.05779 0
M  V30 1796 N 159.635 1.57281 -0.100228 0
M  V30 1797 C 160.865 1.98591 0.569681 0
M  V30 1798 C 161.273 0.978315 1.61943 0
M  V30 1799 O 160.616 -0.0396108 1.83657 0
M  V30 1800 C 160.678 3.36282 1.271 0
M  V30 1801 C 160.342 4.55488 0.371409 0
M  V30 1802 C 161.339 5.18491 -0.382504 0
M  V30 1803 C 159.024 5.01474 0.287965 0
M  V30 1804 C 161.018 6.25852 -1.20779 0
M  V30 1805 C 158.705 6.08701 -0.540965 0
M  V30 1806 C 159.703 6.70755 -1.28749 0
M  V30 1807 O 159.391 7.75914 -2.10269 0
M  V30 1808 H 159.123 0.65752 0.156982 0
M  V30 1809 H 161.677 2.0463 -0.177734 0
M  V30 1810 H 159.907 3.26941 2.0651 0
M  V30 1811 H 161.596 3.62005 1.83595 0
M  V30 1812 H 162.362 4.83891 -0.3278 0
M  V30 1813 H 158.241 4.52932 0.858689 0
M  V30 1814 H 161.785 6.74218 -1.79096 0
M  V30 1815 H 157.682 6.42732 -0.597131 0
M  V30 1816 H 158.45 7.92925 -2.03007 0
M  V30 1817 N 161.113 -0.173488 1.56642 0
M  V30 1818 C 162.061 -1.23417 1.97157 0
M  V30 1819 C 163.055 -1.45946 0.860013 0
M  V30 1820 O 164.261 -1.46551 1.04512 0
M  V30 1821 H 160.636 -0.414818 0.62724 0
M  V30 1822 H 162.607 -0.865582 2.8557 0
M  V30 1823 C 161.356 -2.5665 2.34576 0
M  V30 1824 H 160.679 -2.40137 3.19647 0
M  V30 1825 H 162.119 -3.2956 2.6677 0
M  V30 1826 C 160.578 -3.15245 1.18836 0
M  V30 1827 O 161.108 -3.98883 0.474869 0
M  V30 1828 N 159.314 -2.74303 0.959497 0
M  V30 1829 H 158.861 -2.0639 1.54146 0
M  V30 1830 H 158.819 -3.13844 0.186932 0
M  V30 1831 N 162.591 -1.51276 -0.441967 0
M  V30 1832 C 163.554 -1.7167 -1.51862 0
M  V30 1833 C 164.554 -0.586793 -1.49711 0
M  V30 1834 O 165.744 -0.854276 -1.51815 0
M  V30 1835 C 162.876 -1.76889 -2.91416 0
M  V30 1836 H 164.069 -2.67754 -1.35084 0
M  V30 1837 H 161.622 -1.41196 -0.670333 0
M  V30 1838 H 162.357 -0.826026 -3.13604 0
M  V30 1839 H 162.142 -2.59001 -2.94382 0
M  V30 1840 H 163.632 -1.94522 -3.69528 0
M  V30 1841 N 164.069 0.697108 -1.41344 0
M  V30 1842 C 165.317 1.45426 -1.40341 0
M  V30 1843 C 165.638 1.94996 -0.0128787 0
M  V30 1844 O 164.908 1.71599 0.945027 0
M  V30 1845 H 163.488 0.539594 -0.516573 0
M  V30 1846 H 166.15 0.825201 -1.76569 0
M  V30 1847 H 165.246 2.31817 -2.08967 0
M  V30 1848 N 165.547 1.27147 0.931209 0
M  V30 1849 C 166.479 1.05364 2.03546 0
M  V30 1850 C 167.492 0.0108438 1.62796 0
M  V30 1851 O 168.681 0.25202 1.76712 0
M  V30 1852 C 165.781 0.575566 3.33977 0
M  V30 1853 C 164.954 1.68985 4.03439 0
M  V30 1854 C 164.013 1.20813 5.12143 0
M  V30 1855 O 163.039 1.90712 5.363 0
M  V30 1856 N 164.241 0.0618851 5.80467 0
M  V30 1857 H 167.006 2.00454 2.22796 0
M  V30 1858 H 164.567 1.18666 1.10136 0
M  V30 1859 H 166.559 0.237264 4.04004 0
M  V30 1860 H 165.129 -0.282016 3.11325 0
M  V30 1861 H 164.349 2.19861 3.27192 0
M  V30 1862 H 165.637 2.4378 4.46597 0
M  V30 1863 H 165.035 -0.521621 5.6329 0
M  V30 1864 H 163.592 -0.217264 6.51438 0
M  V30 1865 N 167.025 -1.13721 1.09112 0
M  V30 1866 C 167.972 -2.19031 0.727591 0
M  V30 1867 C 168.942 -1.63555 -0.289656 0
M  V30 1868 O 170.127 -1.90023 -0.172026 0
M  V30 1869 C 167.267 -3.4477 0.15082 0
M  V30 1870 C 166.38 -4.14365 1.22172 0
M  V30 1871 C 165.515 -5.27709 0.608042 0
M  V30 1872 C 164.554 -5.89147 1.66047 0
M  V30 1873 N 163.691 -6.93929 1.06806 0
M  V30 1874 H 168.531 -2.49475 1.62991 0
M  V30 1875 H 166.068 -1.22499 0.81439 0
M  V30 1876 H 168.026 -4.16714 -0.201358 0
M  V30 1877 H 166.656 -3.14787 -0.714783 0
M  V30 1878 H 165.708 -3.40737 1.69122 0
M  V30 1879 H 167.02 -4.56114 2.01895 0
M  V30 1880 H 166.174 -6.06355 0.204523 0
M  V30 1881 H 164.913 -4.872 -0.220769 0
M  V30 1882 H 163.918 -5.09198 2.07357 0
M  V30 1883 H 165.143 -6.31729 2.49189 0
M  V30 1884 H 163.089 -6.55483 0.260476 0
M  V30 1885 H 163.006 -7.34202 1.8023 0
M  V30 1886 H 164.274 -7.76434 0.690644 0
M  V30 1887 N 168.503 -0.877838 -1.30888 0
M  V30 1888 C 169.436 -0.283995 -2.26426 0
M  V30 1889 C 170.414 0.591361 -1.51465 0
M  V30 1890 O 171.598 0.54304 -1.80509 0
M  V30 1891 C 168.725 0.597129 -3.33395 0
M  V30 1892 C 167.771 -0.207937 -4.25993 0
M  V30 1893 S 168.604 -1.59158 -5.11301 0
M  V30 1894 C 169.76 -0.716791 -6.21782 0
M  V30 1895 H 169.993 -1.09383 -2.76446 0
M  V30 1896 H 167.526 -0.676828 -1.38775 0
M  V30 1897 H 169.484 1.09978 -3.95493 0
M  V30 1898 H 168.145 1.38099 -2.82113 0
M  V30 1899 H 167.338 0.464163 -5.01858 0
M  V30 1900 H 166.94 -0.642963 -3.68432 0
M  V30 1901 H 169.232 0.0692833 -6.77465 0
M  V30 1902 H 170.175 -1.44682 -6.93161 0
M  V30 1903 H 170.583 -0.280855 -5.63801 0
M  V30 1904 N 169.982 1.44106 -0.638065 0
M  V30 1905 C 170.915 2.27924 0.112161 0
M  V30 1906 C 171.893 1.38945 0.844574 0
M  V30 1907 O 173.077 1.68386 0.847248 0
M  V30 1908 C 170.204 3.18029 1.16512 0
M  V30 1909 C 169.25 4.23163 0.532458 0
M  V30 1910 S 170.083 5.31131 -0.682666 0
M  V30 1911 C 171.239 6.24805 0.37013 0
M  V30 1912 H 171.472 2.91205 -0.598887 0
M  V30 1913 H 169.005 1.48394 -0.426441 0
M  V30 1914 H 170.963 3.70492 1.76766 0
M  V30 1915 H 169.624 2.53955 1.8484 0
M  V30 1916 H 168.817 4.86252 1.32571 0
M  V30 1917 H 168.419 3.74 0.00437644 0
M  V30 1918 H 170.711 6.66042 1.24071 0
M  V30 1919 H 171.654 7.07741 -0.225349 0
M  V30 1920 H 172.062 5.60154 0.699141 0
M  V30 1921 N 171.46 0.379036 1.52974 0
M  V30 1922 C 172.707 -0.206421 2.01445 0
M  V30 1923 C 173.035 -1.47668 1.26587 0
M  V30 1924 O 172.29 -1.92514 0.351675 0
M  V30 1925 C 172.589 -0.53096 3.53434 0
M  V30 1926 C 172.255 0.646546 4.46241 0
M  V30 1927 C 170.917 0.969604 4.7133 0
M  V30 1928 C 173.269 1.43479 5.01062 0
M  V30 1929 C 170.597 2.08263 5.48492 0
M  V30 1930 C 172.949 2.53834 5.7944 0
M  V30 1931 C 171.613 2.86659 6.02812 0
M  V30 1932 H 170.883 -0.0755349 0.73714 0
M  V30 1933 H 173.53 0.514271 1.84465 0
M  V30 1934 H 171.835 -1.33285 3.68432 0
M  V30 1935 H 173.532 -0.996417 3.88423 0
M  V30 1936 H 170.122 0.384734 4.2687 0
M  V30 1937 H 174.306 1.19844 4.81613 0
M  V30 1938 H 169.562 2.34078 5.64816 0
M  V30 1939 H 173.736 3.15319 6.20924 0
M  V30 1940 H 171.363 3.73026 6.62387 0
M  V30 1941 N 172.938 -1.57226 0.108567 0
M  V30 1942 C 174.184 -1.95919 -0.546564 0
M  V30 1943 C 174.539 -0.990417 -1.6495 0
M  V30 1944 O 173.832 -0.0186593 -1.91591 0
M  V30 1945 C 174.026 -3.38911 -1.13463 0
M  V30 1946 C 173.855 -4.4961 -0.0901926 0
M  V30 1947 C 172.625 -5.04168 0.338008 0
M  V30 1948 C 174.823 -5.09693 0.686808 0
M  V30 1949 N 172.805 -5.98434 1.36931 0
M  V30 1950 C 174.176 -5.99804 1.56958 0
M  V30 1951 C 176.231 -4.92388 0.738846 0
M  V30 1952 C 174.934 -6.74463 2.49983 0
M  V30 1953 C 176.96 -5.67719 1.65676 0
M  V30 1954 C 176.322 -6.57507 2.52713 0
M  V30 1955 H 172.421 -0.763312 -0.169936 0
M  V30 1956 H 175.005 -1.93728 0.194264 0
M  V30 1957 H 173.176 -3.41769 -1.84522 0
M  V30 1958 H 174.908 -3.64752 -1.75322 0
M  V30 1959 H 171.663 -4.73571 -0.0523673 0
M  V30 1960 H 172.087 -6.5027 1.88356 0
M  V30 1961 H 176.729 -4.22724 0.080084 0
M  V30 1962 H 174.447 -7.4338 3.16878 0
M  V30 1963 H 178.033 -5.56338 1.70233 0
M  V30 1964 H 176.913 -7.14778 3.22586 0
M  V30 1965 N 174.416 0.165178 -1.56732 0
M  V30 1966 C 175.641 0.900253 -1.86843 0
M  V30 1967 C 176.066 1.74766 -0.695596 0
M  V30 1968 O 175.424 1.77786 0.35522 0
M  V30 1969 C 175.472 1.74777 -3.15413 0
M  V30 1970 O 174.576 2.85007 -2.98068 0
M  V30 1971 H 173.917 0.251832 -0.614391 0
M  V30 1972 H 176.447 0.161468 -2.03962 0
M  V30 1973 H 176.457 2.14646 -3.46974 0
M  V30 1974 H 175.132 1.12537 -4.00385 0
M  V30 1975 H 173.709 2.48676 -2.77875 0
M  V30 1976 N 175.894 1.51508 0.433938 0
M  V30 1977 C 177.143 1.63578 1.18005 0
M  V30 1978 C 177.456 0.359514 1.92268 0
M  V30 1979 O 178.662 0.359632 2.69108 0
M  V30 1980 C 177.118 2.88901 2.14626 0
M  V30 1981 C 176.726 4.23544 1.45995 0
M  V30 1982 C 178.47 3.10328 2.89649 0
M  V30 1983 C 176.377 5.40014 2.4112 0
M  V30 1984 H 175.307 0.609277 0.444182 0
M  V30 1985 H 177.958 1.77978 0.446773 0
M  V30 1986 H 176.34 2.68142 2.91403 0
M  V30 1987 H 177.514 4.54696 0.747532 0
M  V30 1988 H 175.829 4.08021 0.831115 0
M  V30 1989 H 178.426 3.94518 3.60915 0
M  V30 1990 H 178.769 2.23544 3.51189 0
M  V30 1991 H 179.302 3.31443 2.19978 0
M  V30 1992 H 176.041 6.29068 1.84264 0
M  V30 1993 H 175.561 5.13233 3.10406 0
M  V30 1994 H 177.24 5.72099 3.02177 0
M  V30 1995 N 177.372 -0.689602 1.41712 0
M  V30 1996 C 178.305 -1.81403 1.3845 0
M  V30 1997 C 179.283 -1.60653 0.250874 0
M  V30 1998 O 180.467 -1.83323 0.43874 0
M  V30 1999 C 177.594 -3.18176 1.1611 0
M  V30 2000 C 176.64 -3.57705 2.3227 0
M  V30 2001 S 177.473 -3.61827 3.94767 0
M  V30 2002 C 178.629 -5.01318 3.74742 0
M  V30 2003 H 178.862 -1.83893 2.33603 0
M  V30 2004 H 176.395 -0.858878 1.28307 0
M  V30 2005 H 178.353 -3.97132 1.03907 0
M  V30 2006 H 177.014 -3.13288 0.225668 0
M  V30 2007 H 176.207 -4.57082 2.12349 0
M  V30 2008 H 175.809 -2.86073 2.40911 0
M  V30 2009 H 178.101 -5.88986 3.34817 0
M  V30 2010 H 179.044 -5.26283 4.73743 0
M  V30 2011 H 179.452 -4.73138 3.07898 0
M  V30 2012 N 178.85 -1.27639 -0.924453 0
M  V30 2013 C 180.075 -1.17101 -1.71179 0
M  V30 2014 C 180.5 0.268134 -1.86179 0
M  V30 2015 O 179.858 1.19415 -1.36418 0
M  V30 2016 C 179.906 -1.86313 -3.08739 0
M  V30 2017 O 179.01 -1.16331 -3.95652 0
M  V30 2018 H 178.351 -0.407091 -0.524569 0
M  V30 2019 H 180.881 -1.68767 -1.15666 0
M  V30 2020 H 180.891 -1.938 -3.59034 0
M  V30 2021 H 179.566 -2.91001 -2.97138 0
M  V30 2022 H 178.143 -1.16935 -3.54091 0
M  V30 2023 N 180.328 1.1314 -1.09713 0
M  V30 2024 C 181.261 2.17735 -0.683137 0
M  V30 2025 C 182.239 1.59582 0.311841 0
M  V30 2026 O 183.423 1.87298 0.212514 0
M  V30 2027 C 180.55 3.38699 -0.00684324 0
M  V30 2028 C 179.596 4.1546 -0.964102 0
M  V30 2029 S 180.429 4.74733 -2.47767 0
M  V30 2030 C 181.585 5.9904 -1.81387 0
M  V30 2031 H 181.818 2.52515 -1.56918 0
M  V30 2032 H 179.351 1.24484 -0.913404 0
M  V30 2033 H 181.309 4.08765 0.377044 0
M  V30 2034 H 179.97 3.02214 0.85589 0
M  V30 2035 H 179.163 5.02093 -0.43803 0
M  V30 2036 H 178.765 3.51066 -1.28953 0
M  V30 2037 H 181.057 6.67846 -1.13967 0
M  V30 2038 H 182 6.56261 -2.65947 0
M  V30 2039 H 182.408 5.4976 -1.28155 0
M  V30 2040 N 181.806 0.884767 1.30421 0
M  V30 2041 C 183.055 0.499164 1.95426 0
M  V30 2042 C 183.368 -0.95645 1.70621 0
M  V30 2043 O 184.574 -1.44889 2.29607 0
M  V30 2044 C 183.03 0.84177 3.49917 0
M  V30 2045 C 182.638 2.31514 3.83543 0
M  V30 2046 C 184.382 0.525355 4.21237 0
M  V30 2047 C 182.289 2.59939 5.31212 0
M  V30 2048 H 181.219 0.182944 0.73147 0
M  V30 2049 H 183.87 1.07971 1.48373 0
M  V30 2050 H 182.252 0.190311 3.95542 0
M  V30 2051 H 183.426 3.0109 3.48829 0
M  V30 2052 H 181.741 2.59907 3.25326 0
M  V30 2053 H 184.338 0.714762 5.29901 0
M  V30 2054 H 184.681 -0.535222 4.12845 0
M  V30 2055 H 185.214 1.134 3.81294 0
M  V30 2056 H 181.953 3.64736 5.44654 0
M  V30 2057 H 181.473 1.94972 5.67227 0
M  V30 2058 H 183.152 2.45429 5.98643 0
M  V30 2059 N 183.284 -1.43765 0.645699 0
M  V30 2060 C 184.531 -2.01898 0.15604 0
M  V30 2061 C 184.859 -1.50887 -1.22733 0
M  V30 2062 O 184.114 -0.689271 -1.8316 0
M  V30 2063 C 184.413 -3.57238 0.107679 0
M  V30 2064 C 184.079 -4.27564 1.43178 0
M  V30 2065 C 182.741 -4.46492 1.7944 0
M  V30 2066 C 185.093 -4.67454 2.30513 0
M  V30 2067 C 182.421 -5.02573 3.02716 0
M  V30 2068 C 184.773 -5.24901 3.53074 0
M  V30 2069 C 183.437 -5.42046 3.89541 0
M  V30 2070 H 182.707 -0.738797 0.057099 0
M  V30 2071 H 185.354 -1.72341 0.834912 0
M  V30 2072 H 183.659 -3.86293 -0.654618 0
M  V30 2073 H 185.356 -3.99965 -0.287938 0
M  V30 2074 H 181.946 -4.13171 1.13963 0
M  V30 2075 H 186.13 -4.5253 2.0379 0
M  V30 2076 H 181.386 -5.14033 3.31028 0
M  V30 2077 H 185.56 -5.54758 4.20971 0
M  V30 2078 H 183.187 -5.85268 4.85145 0
M  V30 2079 N 184.763 -0.387143 -1.52771 0
M  V30 2080 C 186.009 0.196025 -2.0185 0
M  V30 2081 C 186.342 1.46641 -1.27319 0
M  V30 2082 O 185.617 1.90889 -0.373032 0
M  V30 2083 C 185.9 0.466136 -3.5707 0
M  V30 2084 C 185.753 -0.819385 -4.42274 0
M  V30 2085 C 187.072 1.25768 -4.21747 0
M  V30 2086 H 184.191 0.0697708 -0.73369 0
M  V30 2087 H 186.833 -0.516286 -1.82851 0
M  V30 2088 H 184.983 1.07293 -3.7339 0
M  V30 2089 H 186.655 -1.4563 -4.37709 0
M  V30 2090 H 184.898 -1.43517 -4.09372 0
M  V30 2091 H 185.569 -0.585065 -5.48891 0
M  V30 2092 H 188.045 0.744167 -4.09391 0
M  V30 2093 H 186.921 1.41541 -5.30337 0
M  V30 2094 H 187.182 2.27228 -3.79236 0
M  V30 2095 N 186.241 1.57166 -0.116904 0
M  V30 2096 C 187.171 2.18222 0.830759 0
M  V30 2097 C 188.152 1.12167 1.27877 0
M  V30 2098 O 189.337 1.40394 1.34176 0
M  V30 2099 C 186.467 2.77996 2.08172 0
M  V30 2100 C 185.421 3.89614 1.77157 0
M  V30 2101 C 184.747 4.36187 3.09265 0
M  V30 2102 C 186.047 5.1181 1.04151 0
M  V30 2103 H 187.741 2.97664 0.321992 0
M  V30 2104 H 185.287 1.4318 0.153434 0
M  V30 2105 H 187.24 3.19366 2.74924 0
M  V30 2106 H 185.964 1.9584 2.6137 0
M  V30 2107 H 184.623 3.48816 1.12796 0
M  V30 2108 H 184.271 3.50893 3.60393 0
M  V30 2109 H 183.971 5.11455 2.89288 0
M  V30 2110 H 185.495 4.80207 3.77139 0
M  V30 2111 H 186.909 5.50214 1.61052 0
M  V30 2112 H 185.306 5.92648 0.942762 0
M  V30 2113 H 186.376 4.84892 0.0279022 0
M  V30 2114 N 187.719 -0.156864 1.56817 0
M  V30 2115 C 188.649 -1.19589 2.00551 0
M  V30 2116 C 189.63 -1.4536 0.883426 0
M  V30 2117 O 190.815 -1.56449 1.15054 0
M  V30 2118 C 187.945 -2.53143 2.37773 0
M  V30 2119 C 186.899 -2.41913 3.53075 0
M  V30 2120 C 186.225 -3.80088 3.76081 0
M  V30 2121 C 187.525 -1.91157 4.86062 0
M  V30 2122 H 189.219 -0.832293 2.87599 0
M  V30 2123 H 186.765 -0.398918 1.38364 0
M  V30 2124 H 188.718 -3.26047 2.66967 0
M  V30 2125 H 187.442 -2.91319 1.4765 0
M  V30 2126 H 186.101 -1.71462 3.24031 0
M  V30 2127 H 185.749 -4.15683 2.83225 0
M  V30 2128 H 185.449 -3.73439 4.53671 0
M  V30 2129 H 186.973 -4.54556 4.0769 0
M  V30 2130 H 188.387 -2.53846 5.14038 0
M  V30 2131 H 186.784 -1.95422 5.67389 0
M  V30 2132 H 187.854 -0.866673 4.77092 0
M  V30 2133 N 189.197 -1.51736 -0.425897 0
M  V30 2134 C 190.443 -1.65214 -1.1761 0
M  V30 2135 C 190.776 -0.372778 -1.90589 0
M  V30 2136 O 190.051 0.628139 -1.84078 0
M  V30 2137 C 190.334 -2.86312 -2.18398 0
M  V30 2138 C 190.187 -4.24254 -1.49426 0
M  V30 2139 C 191.506 -3.02925 -3.19256 0
M  V30 2140 H 188.625 -0.601263 -0.426206 0
M  V30 2141 H 191.267 -1.8425 -0.463882 0
M  V30 2142 H 189.417 -2.70213 -2.79137 0
M  V30 2143 H 191.089 -4.52046 -0.919362 0
M  V30 2144 H 189.332 -4.26426 -0.796432 0
M  V30 2145 H 190.003 -5.05001 -2.22885 0
M  V30 2146 H 192.479 -3.1781 -2.68581 0
M  V30 2147 H 191.355 -3.89199 -3.8706 0
M  V30 2148 H 191.616 -2.15497 -3.86023 0
M  V30 2149 N 190.675 0.682077 -1.42076 0
M  V30 2150 C 191.903 1.47057 -1.4554 0
M  V30 2151 C 192.318 1.8869 -0.0645779 0
M  V30 2152 O 191.675 1.57666 0.919115 0
M  V30 2153 C 191.726 2.72442 -2.37609 0
M  V30 2154 O 191.447 2.32559 -3.71279 0
M  V30 2155 C 192.948 3.66069 -2.50017 0
M  V30 2156 H 190.168 0.452737 -0.495248 0
M  V30 2157 H 192.712 0.838695 -1.8651 0
M  V30 2158 H 190.867 3.31835 -1.9991 0
M  V30 2159 H 191.281 3.13475 -4.20516 0
M  V30 2160 H 192.755 4.50792 -3.18576 0
M  V30 2161 H 193.232 4.11476 -1.53572 0
M  V30 2162 H 193.838 3.12572 -2.88407 0
M  V30 2163 N 192.153 1.28127 0.917671 0
M  V30 2164 C 193.401 1.14825 1.66312 0
M  V30 2165 C 193.722 -0.304379 1.9261 0
M  V30 2166 O 192.992 -1.21149 1.53947 0
M  V30 2167 H 191.572 0.421953 0.616413 0
M  V30 2168 H 194.234 1.608 1.10134 0
M  V30 2169 H 193.33 1.68489 2.62712 0
M  V30 2170 N 193.631 -1.12557 1.10312 0
M  V30 2171 C 194.877 -1.84311 0.846011 0
M  V30 2172 C 195.21 -1.83805 -0.626859 0
M  V30 2173 O 194.485 -1.28268 -1.46211 0
M  V30 2174 C 194.768 -3.32048 1.39341 0
M  V30 2175 C 194.621 -3.41016 2.93305 0
M  V30 2176 C 195.94 -4.27764 1.03468 0
M  V30 2177 H 193.059 -0.669192 0.30879 0
M  V30 2178 H 195.701 -1.32057 1.36605 0
M  V30 2179 H 193.851 -3.76678 0.951087 0
M  V30 2180 H 195.523 -3.05031 3.46055 0
M  V30 2181 H 193.766 -2.81603 3.29973 0
M  V30 2182 H 194.437 -4.44948 3.26689 0
M  V30 2183 H 196.913 -3.91253 1.41633 0
M  V30 2184 H 195.789 -5.29549 1.44463 0
M  V30 2185 H 196.05 -4.42064 -0.0560404 0
M  V30 2186 N 195.109 -0.891671 -1.2995 0
M  V30 2187 C 196.358 -0.509521 -1.95158 0
M  V30 2188 C 196.671 0.947388 -1.71125 0
M  V30 2189 O 197.877 1.43669 -2.30372 0
M  V30 2190 C 196.333 -0.860315 -3.49466 0
M  V30 2191 C 195.941 -2.33545 -3.8231 0
M  V30 2192 C 197.685 -0.547687 -4.20952 0
M  V30 2193 C 195.592 -2.62752 -5.29826 0
M  V30 2194 H 194.522 -0.18682 -0.730489 0
M  V30 2195 H 197.173 -1.08756 -1.47798 0
M  V30 2196 H 195.555 -0.211285 -3.95436 0
M  V30 2197 H 196.729 -3.02936 -3.47227 0
M  V30 2198 H 195.044 -2.61629 -3.23944 0
M  V30 2199 H 197.641 -0.742854 -5.29515 0
M  V30 2200 H 197.984 0.51332 -4.13123 0
M  V30 2201 H 198.517 -1.1542 -3.80688 0
M  V30 2202 H 195.256 -3.6762 -5.42712 0
M  V30 2203 H 194.776 -1.97977 -5.66185 0
M  V30 2204 H 196.455 -2.48601 -5.97333 0
M  V30 2205 N 196.587 1.43421 -0.653314 0
M  V30 2206 C 197.836 2.01032 -0.164076 0
M  V30 2207 C 198.149 1.52147 1.22926 0
M  V30 2208 O 199.355 2.02031 1.81371 0
M  V30 2209 C 197.811 3.59082 -0.24252 0
M  V30 2210 C 197.419 4.1696 -1.63855 0
M  V30 2211 C 199.163 4.24079 0.18911 0
M  V30 2212 C 197.07 5.67304 -1.67092 0
M  V30 2213 H 196 0.751798 -0.0575769 0
M  V30 2214 H 198.651 1.6439 -0.815362 0
M  V30 2215 H 197.033 3.93125 0.476276 0
M  V30 2216 H 198.207 3.94416 -2.38271 0
M  V30 2217 H 196.522 3.64335 -2.01616 0
M  V30 2218 H 199.119 5.34381 0.184775 0
M  V30 2219 H 199.462 3.98005 1.22056 0
M  V30 2220 H 199.995 3.94918 -0.477938 0
M  V30 2221 H 196.734 5.98145 -2.68146 0
M  V30 2222 H 196.254 5.91904 -0.970014 0
M  V30 2223 H 197.933 6.31344 -1.4147 0
M  V30 2224 N 198.065 0.39524 1.52563 0
M  V30 2225 C 199.311 -0.177763 2.02622 0
M  V30 2226 C 199.666 -1.43974 1.27629 0
M  V30 2227 O 198.959 -1.87995 0.36992 0
M  V30 2228 C 199.153 -0.493444 3.53977 0
M  V30 2229 C 198.982 0.736392 4.4363 0
M  V30 2230 C 197.752 1.25744 4.89404 0
M  V30 2231 C 199.95 1.61046 4.88435 0
M  V30 2232 N 197.932 2.44421 5.63145 0
M  V30 2233 C 199.303 2.64359 5.60816 0
M  V30 2234 C 201.358 1.62985 4.70468 0
M  V30 2235 C 200.061 3.69505 6.17137 0
M  V30 2236 C 202.087 2.67042 5.27677 0
M  V30 2237 C 201.449 3.69077 5.99968 0
M  V30 2238 H 197.548 -0.0269794 0.781534 0
M  V30 2239 H 200.132 0.546466 1.86874 0
M  V30 2240 H 198.303 -1.18672 3.69826 0
M  V30 2241 H 200.035 -1.05412 3.90731 0
M  V30 2242 H 196.79 0.817546 4.6649 0
M  V30 2243 H 197.214 3.04485 6.04663 0
M  V30 2244 H 201.856 0.854442 4.14076 0
M  V30 2245 H 199.574 4.4791 6.72608 0
M  V30 2246 H 203.16 2.69433 5.15652 0
M  V30 2247 H 202.04 4.48273 6.43444 0
M  V30 2248 N 199.544 -1.57102 0.125237 0
M  V30 2249 C 200.96 -1.57915 -0.231322 0
M  V30 2250 C 201.16 -1.13833 -1.66266 0
M  V30 2251 O 200.216 -0.828581 -2.38518 0
M  V30 2252 C 201.529 -3.00699 0.00766489 0
M  V30 2253 C 203.077 -3.12947 -0.0577483 0
M  V30 2254 C 203.552 -4.57742 0.153626 0
M  V30 2255 N 205.043 -4.63092 0.0998073 0
M  V30 2256 C 205.778 -5.72905 0.238174 0
M  V30 2257 N 205.274 -6.91445 0.433057 0
M  V30 2258 N 207.067 -5.6182 0.177308 0
M  V30 2259 H 199.218 -1.84055 1.06007 0
M  V30 2260 H 201.481 -0.850905 0.417929 0
M  V30 2261 H 201.187 -3.3726 0.997431 0
M  V30 2262 H 201.061 -3.70236 -0.721452 0
M  V30 2263 H 203.448 -2.7624 -1.03804 0
M  V30 2264 H 203.529 -2.4594 0.70335 0
M  V30 2265 H 203.173 -4.95149 1.13092 0
M  V30 2266 H 203.103 -5.22848 -0.627534 0
M  V30 2267 H 205.594 -3.77871 -0.047051 0
M  V30 2268 H 205.907 -7.70985 0.529332 0
M  V30 2269 H 204.252 -6.93415 0.469109 0
M  V30 2270 H 207.443 -4.68093 0.0259748 0
M  V30 2271 H 207.616 -6.47357 0.288582 0
M  V30 2272 N 201.022 0.148545 -1.56898 0
M  V30 2273 C 202.433 0.708766 -1.72723 0
M  V30 2274 C 202.784 1.81734 -0.739395 0
M  V30 2275 O 201.909 2.16194 0.0943169 0
M  V30 2276 C 202.504 1.29245 -3.13179 0
M  V30 2277 C 201.063 1.79925 -3.30611 0
M  V30 2278 C 200.21 0.687111 -2.68652 0
M  V30 2279 H 203.161 -0.0771063 -1.58513 0
M  V30 2280 H 203.182 2.16224 -3.13093 0
M  V30 2281 H 202.694 0.485382 -3.85053 0
M  V30 2282 H 200.795 2.63203 -2.63732 0
M  V30 2283 H 200.908 1.92903 -4.38549 0
M  V30 2284 H 199.272 1.11335 -2.29078 0
M  V30 2285 H 200.055 -0.108483 -3.43129 0
M  V30 2286 N 202.5 1.5196 0.417844 0
M  V30 2287 C 203.73 1.69181 1.18581 0
M  V30 2288 C 204.138 0.397104 1.84986 0
M  V30 2289 O 203.481 -0.636011 1.72339 0
M  V30 2290 C 203.543 2.76497 2.29759 0
M  V30 2291 C 203.207 4.18514 1.83563 0
M  V30 2292 C 204.204 5.02648 1.32821 0
M  V30 2293 C 201.889 4.64708 1.90661 0
M  V30 2294 C 203.883 6.31044 0.897894 0
M  V30 2295 C 201.57 5.93096 1.47241 0
M  V30 2296 C 202.568 6.76093 0.968891 0
M  V30 2297 O 202.256 8.02078 0.540924 0
M  V30 2298 H 201.988 0.570457 0.362705 0
M  V30 2299 H 204.542 1.99249 0.498885 0
M  V30 2300 H 202.772 2.41786 3.01789 0
M  V30 2301 H 204.461 2.82403 2.91553 0
M  V30 2302 H 205.227 4.68154 1.26716 0
M  V30 2303 H 201.106 4.00216 2.28797 0
M  V30 2304 H 204.65 6.95776 0.504192 0
M  V30 2305 H 200.547 6.271 1.53022 0
M  V30 2306 H 201.315 8.15794 0.66502 0
M  V30 2307 N 203.978 -0.674533 1.42435 0
M  V30 2308 C 205.225 -1.43459 1.42919 0
M  V30 2309 C 205.553 -1.94446 0.0457312 0
M  V30 2310 O 204.808 -1.7132 -0.94593 0
M  V30 2311 C 205.107 -2.64767 2.40069 0
M  V30 2312 C 204.773 -2.3232 3.86443 0
M  V30 2313 C 203.435 -2.23182 4.26314 0
M  V30 2314 C 205.787 -2.05977 4.78773 0
M  V30 2315 C 203.115 -1.85827 5.56494 0
M  V30 2316 C 205.467 -1.70125 6.09295 0
M  V30 2317 C 204.131 -1.59498 6.48164 0
M  V30 2318 H 203.401 -0.524952 0.522978 0
M  V30 2319 H 206.048 -0.769097 1.75377 0
M  V30 2320 H 204.353 -3.36349 2.00939 0
M  V30 2321 H 206.05 -3.22949 2.37707 0
M  V30 2322 H 202.64 -2.40334 3.54877 0
M  V30 2323 H 206.824 -2.11969 4.48757 0
M  V30 2324 H 202.08 -1.76168 5.8547 0
M  V30 2325 H 206.254 -1.48767 6.80324 0
M  V30 2326 H 203.881 -1.30322 7.48946 0
M  V30 2327 N 205.456 -1.28612 -0.910864 0
M  V30 2328 C 206.419 -1.12803 -1.9952 0
M  V30 2329 C 207.419 -0.0668264 -1.60661 0
M  V30 2330 O 208.609 -0.312847 -1.71368 0
M  V30 2331 C 205.741 -0.72254 -3.33155 0
M  V30 2332 H 206.934 -2.09109 -2.14973 0
M  V30 2333 H 204.487 -1.11639 -1.09391 0
M  V30 2334 H 205.222 0.241152 -3.23402 0
M  V30 2335 H 205.007 -1.48916 -3.62721 0
M  V30 2336 H 206.497 -0.634666 -4.12749 0
M  V30 2337 N 206.934 1.1197 -1.10907 0
M  V30 2338 C 207.866 2.17592 -0.720175 0
M  V30 2339 C 208.879 1.60938 0.245495 0
M  V30 2340 O 210.068 1.78476 0.0292245 0
M  V30 2341 C 207.168 3.38873 -0.0427917 0
M  V30 2342 C 206.341 4.25006 -1.03388 0
M  V30 2343 C 205.4 5.24774 -0.387075 0
M  V30 2344 O 204.426 5.59631 -1.03934 0
M  V30 2345 N 205.628 5.74208 0.852407 0
M  V30 2346 H 208.393 2.51567 -1.62893 0
M  V30 2347 H 205.954 1.27439 -0.998543 0
M  V30 2348 H 207.946 4.02703 0.401501 0
M  V30 2349 H 206.516 3.03007 0.768456 0
M  V30 2350 H 205.736 3.57716 -1.65629 0
M  V30 2351 H 207.024 4.79397 -1.70458 0
M  V30 2352 H 206.422 5.48062 1.40161 0
M  V30 2353 H 204.979 6.39901 1.23977 0
M  V30 2354 N 208.412 0.89855 1.29475 0
M  V30 2355 C 209.642 0.538479 1.99459 0
M  V30 2356 C 210.05 -0.880922 1.67441 0
M  V30 2357 O 209.393 -1.59283 0.915127 0
M  V30 2358 C 209.455 0.649564 3.53583 0
M  V30 2359 C 209.119 2.03573 4.09154 0
M  V30 2360 C 210.116 3.00675 4.24135 0
M  V30 2361 C 207.801 2.3448 4.44212 0
M  V30 2362 C 209.795 4.26809 4.73405 0
M  V30 2363 C 207.482 3.60857 4.93179 0
M  V30 2364 C 208.48 4.56836 5.0773 0
M  V30 2365 O 208.168 5.80969 5.55635 0
M  V30 2366 H 207.9 0.205372 0.644048 0
M  V30 2367 H 210.454 1.20958 1.66007 0
M  V30 2368 H 208.684 -0.0785592 3.8662 0
M  V30 2369 H 210.373 0.29881 4.04799 0
M  V30 2370 H 211.139 2.78112 3.97339 0
M  V30 2371 H 207.018 1.60534 4.32145 0
M  V30 2372 H 210.562 5.0173 4.84678 0
M  V30 2373 H 206.459 3.83251 5.19412 0
M  V30 2374 H 207.227 5.83542 5.73952 0
M  V30 2375 N 209.89 -1.43072 0.660911 0
M  V30 2376 C 211.137 -2.01721 0.177445 0
M  V30 2377 C 211.465 -1.5218 -1.21126 0
M  V30 2378 O 210.72 -0.708659 -1.82419 0
M  V30 2379 C 211.019 -3.57103 0.145563 0
M  V30 2380 C 210.685 -4.26021 1.47705 0
M  V30 2381 C 209.347 -4.44563 1.84165 0
M  V30 2382 C 211.699 -4.64983 2.35458 0
M  V30 2383 C 209.027 -4.99334 3.0803 0
M  V30 2384 C 211.379 -5.21127 3.58622 0
M  V30 2385 C 210.043 -5.37884 3.95268 0
M  V30 2386 H 209.313 -0.73815 0.0649317 0
M  V30 2387 H 211.96 -1.71446 0.853144 0
M  V30 2388 H 210.265 -3.86965 -0.61361 0
M  V30 2389 H 211.962 -4.00248 -0.2455 0
M  V30 2390 H 208.552 -4.11939 1.18339 0
M  V30 2391 H 212.736 -4.50343 2.08579 0
M  V30 2392 H 207.992 -5.10493 3.36462 0
M  V30 2393 H 212.166 -5.50262 4.26831 0
M  V30 2394 H 209.793 -5.80089 4.91325 0
M  V30 2395 N 211.368 -0.403325 -1.52352 0
M  V30 2396 C 212.779 0.0675782 -1.86578 0
M  V30 2397 C 213.13 1.44941 -1.32236 0
M  V30 2398 O 212.255 2.06112 -0.659307 0
M  V30 2399 C 212.85 0.129404 -3.38553 0
M  V30 2400 C 211.409 0.544629 -3.72439 0
M  V30 2401 C 210.556 -0.284551 -2.75836 0
M  V30 2402 H 213.507 -0.620631 -1.46061 0
M  V30 2403 H 213.528 0.94581 -3.68558 0
M  V30 2404 H 213.04 -0.87645 -3.78074 0
M  V30 2405 H 211.141 1.55734 -3.38493 0
M  V30 2406 H 211.254 0.293046 -4.78203 0
M  V30 2407 H 209.618 0.252258 -2.53448 0
M  V30 2408 H 210.401 -1.28865 -3.18196 0
M  V30 2409 N 212.846 1.57033 -0.133567 0
M  V30 2410 C 213.779 2.11824 0.848872 0
M  V30 2411 C 214.757 1.03833 1.2513 0
M  V30 2412 O 215.941 1.31579 1.34978 0
M  V30 2413 C 213.068 2.62692 2.138 0
M  V30 2414 C 212.114 3.82705 1.88253 0
M  V30 2415 S 212.947 5.2438 1.08563 0
M  V30 2416 C 214.103 5.78627 2.38624 0
M  V30 2417 H 214.336 2.94824 0.38289 0
M  V30 2418 H 211.869 1.5419 0.0804796 0
M  V30 2419 H 213.827 2.92652 2.87863 0
M  V30 2420 H 212.488 1.79847 2.57515 0
M  V30 2421 H 211.681 4.16496 2.83809 0
M  V30 2422 H 211.283 3.53437 1.22305 0
M  V30 2423 H 213.575 5.8924 3.34369 0
M  V30 2424 H 214.518 6.76443 2.09358 0
M  V30 2425 H 214.926 5.06783 2.48658 0
M  V30 2426 N 214.325 -0.140222 1.56975 0
M  V30 2427 C 215.257 -1.19818 1.95388 0
M  V30 2428 C 216.27 -1.38816 0.850525 0
M  V30 2429 O 217.459 -1.38267 1.12891 0
M  V30 2430 C 214.559 -2.56189 2.21857 0
M  V30 2431 C 213.732 -2.58077 3.5315 0
M  V30 2432 C 212.791 -3.76037 3.6808 0
M  V30 2433 O 211.817 -3.60598 4.40406 0
M  V30 2434 N 213.019 -4.93763 3.05251 0
M  V30 2435 H 215.784 -0.871609 2.86746 0
M  V30 2436 H 213.345 -0.32972 1.58507 0
M  V30 2437 H 215.337 -3.33623 2.2908 0
M  V30 2438 H 213.907 -2.81111 1.36731 0
M  V30 2439 H 213.127 -1.6651 3.57307 0
M  V30 2440 H 214.415 -2.56377 4.39486 0
M  V30 2441 H 213.813 -5.09209 2.46419 0
M  V30 2442 H 212.37 -5.68949 3.18026 0
M  V30 2443 N 215.803 -1.52179 -0.40978 0
M  V30 2444 C 217.049 -1.66453 -1.15851 0
M  V30 2445 C 217.382 -0.392972 -1.90182 0
M  V30 2446 O 216.657 0.608579 -1.84734 0
M  V30 2447 C 216.94 -2.88612 -2.15349 0
M  V30 2448 C 216.793 -4.25815 -1.44918 0
M  V30 2449 C 218.112 -3.06294 -3.16026 0
M  V30 2450 H 215.231 -0.60575 -0.419805 0
M  V30 2451 H 217.873 -1.84732 -0.444314 0
M  V30 2452 H 216.023 -2.73158 -2.76255 0
M  V30 2453 H 217.695 -4.52995 -0.871365 0
M  V30 2454 H 215.938 -4.27247 -0.751159 0
M  V30 2455 H 216.609 -5.07337 -2.17516 0
M  V30 2456 H 219.085 -3.20641 -2.65195 0
M  V30 2457 H 217.961 -3.93283 -3.8291 0
M  V30 2458 H 218.222 -2.19579 -3.83715 0
M  V30 2459 N 217.281 0.66697 -1.42791 0
M  V30 2460 C 218.527 1.4291 -1.43891 0
M  V30 2461 C 218.86 1.94114 -0.0578972 0
M  V30 2462 O 218.135 1.71414 0.91911 0
M  V30 2463 C 218.418 2.62049 -2.46987 0
M  V30 2464 C 218.271 2.16426 -3.94309 0
M  V30 2465 C 219.59 3.64266 -2.46978 0
M  V30 2466 H 216.709 0.518306 -0.523954 0
M  V30 2467 H 219.351 0.757321 -1.74255 0
M  V30 2468 H 217.501 3.19361 -2.21225 0
M  V30 2469 H 219.173 1.64221 -4.31079 0
M  V30 2470 H 217.416 1.47925 -4.078 0
M  V30 2471 H 218.087 3.02038 -4.62036 0
M  V30 2472 H 220.563 3.16686 -2.69906 0
M  V30 2473 H 219.439 4.45196 -3.21079 0
M  V30 2474 H 219.7 4.15927 -1.49857 0
M  V30 2475 N 218.759 1.29093 0.90403 0
M  V30 2476 C 220.175 1.07011 1.1841 0
M  V30 2477 C 220.375 -0.181358 2.00682 0
M  V30 2478 O 219.431 -0.880331 2.36657 0
M  V30 2479 C 220.744 2.32311 1.90924 0
M  V30 2480 C 222.292 2.37587 2.03768 0
M  V30 2481 C 222.767 3.62679 2.79693 0
M  V30 2482 N 224.258 3.63376 2.87249 0
M  V30 2483 C 224.993 4.56848 3.46522 0
M  V30 2484 N 224.489 5.60648 4.06996 0
M  V30 2485 N 226.282 4.44426 3.44154 0
M  V30 2486 H 218.433 2.09412 0.354993 0
M  V30 2487 H 220.696 0.922181 0.219742 0
M  V30 2488 H 220.402 3.23536 1.37905 0
M  V30 2489 H 220.276 2.39483 2.91424 0
M  V30 2490 H 222.663 1.46853 2.55965 0
M  V30 2491 H 222.744 2.34403 1.02415 0
M  V30 2492 H 222.388 4.53762 2.28173 0
M  V30 2493 H 222.318 3.63119 3.81381 0
M  V30 2494 H 224.809 2.88321 2.44293 0
M  V30 2495 H 225.122 6.28101 4.50232 0
M  V30 2496 H 223.467 5.64463 4.05471 0
M  V30 2497 H 226.658 3.62529 2.96126 0
M  V30 2498 H 226.831 5.17457 3.90054 0
M  V30 2499 N 220.237 -1.11381 1.11499 0
M  V30 2500 C 221.467 -1.86663 0.885464 0
M  V30 2501 C 221.875 -1.80464 -0.568281 0
M  V30 2502 O 221.218 -1.18445 -1.40415 0
M  V30 2503 C 221.28 -3.36337 1.26956 0
M  V30 2504 C 220.944 -3.66304 2.73259 0
M  V30 2505 C 221.941 -3.63733 3.71476 0
M  V30 2506 C 219.626 -3.9529 3.09921 0
M  V30 2507 C 221.62 -3.89725 5.04374 0
M  V30 2508 C 219.307 -4.20941 4.43004 0
M  V30 2509 C 220.305 -4.18147 5.40039 0
M  V30 2510 O 219.993 -4.43153 6.70724 0
M  V30 2511 H 219.725 -0.597114 0.316908 0
M  V30 2512 H 222.279 -1.41782 1.48617 0
M  V30 2513 H 220.509 -3.81826 0.611999 0
M  V30 2514 H 222.198 -3.92986 1.01573 0
M  V30 2515 H 222.964 -3.41389 3.44498 0
M  V30 2516 H 218.843 -3.966 2.35009 0
M  V30 2517 H 222.387 -3.8746 5.80104 0
M  V30 2518 H 218.284 -4.42761 4.69716 0
M  V30 2519 H 219.052 -4.60717 6.76522 0
M  V30 2520 N 221.715 -0.905404 -1.28997 0
M  V30 2521 C 222.94 -0.549175 -1.99997 0
M  V30 2522 C 223.365 0.860276 -1.67275 0
M  V30 2523 O 222.723 1.57355 -0.900502 0
M  V30 2524 C 222.771 -0.755185 -3.52604 0
M  V30 2525 O 221.875 0.189692 -4.11964 0
M  V30 2526 H 221.216 -0.213899 -0.628604 0
M  V30 2527 H 223.746 -1.21856 -1.64354 0
M  V30 2528 H 223.756 -0.662045 -4.02593 0
M  V30 2529 H 222.431 -1.78271 -3.75755 0
M  V30 2530 H 221.008 0.0485257 -3.72868 0
M  V30 2531 N 223.193 1.4272 -0.668489 0
M  V30 2532 C 224.123 2.335 -0.000100175 0
M  V30 2533 C 225.104 1.50328 0.795964 0
M  V30 2534 O 226.289 1.78949 0.754385 0
M  V30 2535 C 223.419 3.33874 0.956302 0
M  V30 2536 C 222.373 4.27152 0.269278 0
M  V30 2537 C 221.699 5.17684 1.33818 0
M  V30 2538 C 222.999 5.15373 -0.847805 0
M  V30 2539 H 224.693 2.89639 -0.758244 0
M  V30 2540 H 222.239 1.39269 -0.366079 0
M  V30 2541 H 224.192 3.9629 1.43292 0
M  V30 2542 H 222.916 2.76025 1.74579 0
M  V30 2543 H 221.575 3.66123 -0.187042 0
M  V30 2544 H 221.223 4.56165 2.1195 0
M  V30 2545 H 220.923 5.80918 0.883659 0
M  V30 2546 H 222.447 5.82974 1.81586 0
M  V30 2547 H 223.861 5.7151 -0.452681 0
M  V30 2548 H 222.258 5.87407 -1.22773 0
M  V30 2549 H 223.328 4.5415 -1.69929 0
M  V30 2550 N 224.671 0.411399 1.52136 0
M  V30 2551 C 225.601 -0.404015 2.29978 0
M  V30 2552 C 226.582 -1.04412 1.34284 0
M  V30 2553 O 227.767 -1.0527 1.63192 0
M  V30 2554 C 224.897 -1.5197 3.12286 0
M  V30 2555 C 223.851 -1.00448 4.16046 0
M  V30 2556 C 223.177 -2.21393 4.86712 0
M  V30 2557 C 224.477 -0.0569336 5.22269 0
M  V30 2558 H 226.171 0.245529 2.98392 0
M  V30 2559 H 223.717 0.119525 1.43503 0
M  V30 2560 H 225.67 -2.09715 3.6551 0
M  V30 2561 H 224.394 -2.19716 2.41646 0
M  V30 2562 H 223.053 -0.449421 3.63835 0
M  V30 2563 H 222.701 -2.87699 4.12599 0
M  V30 2564 H 222.401 -1.87571 5.56858 0
M  V30 2565 H 223.925 -2.7974 5.4275 0
M  V30 2566 H 225.339 -0.54325 5.7072 0
M  V30 2567 H 223.736 0.192594 5.99791 0
M  V30 2568 H 224.806 0.887663 4.76706 0
M  V30 2569 N 226.149 -1.5696 0.141893 0
M  V30 2570 C 227.398 -1.95135 -0.510427 0
M  V30 2571 C 227.711 -1.02896 -1.66348 0
M  V30 2572 O 228.917 -1.30629 -2.38009 0
M  V30 2573 C 227.373 -3.46876 -0.959427 0
M  V30 2574 C 226.981 -4.47691 0.166419 0
M  V30 2575 C 228.725 -3.93927 -1.58183 0
M  V30 2576 C 226.632 -5.90636 -0.300565 0
M  V30 2577 H 225.562 -0.728494 -0.194454 0
M  V30 2578 H 228.213 -1.8211 0.22542 0
M  V30 2579 H 226.595 -3.55215 -1.75038 0
M  V30 2580 H 227.769 -4.51043 0.94325 0
M  V30 2581 H 226.084 -4.10527 0.696905 0
M  V30 2582 H 228.681 -4.98158 -1.94275 0
M  V30 2583 H 229.024 -3.3519 -2.46888 0
M  V30 2584 H 229.557 -3.88484 -0.855863 0
M  V30 2585 H 226.296 -6.5318 0.550989 0
M  V30 2586 H 225.816 -5.90655 -1.04338 0
M  V30 2587 H 227.495 -6.42588 -0.754265 0
M  V30 2588 N 227.627 0.131896 -1.57047 0
M  V30 2589 C 228.577 1.1679 -1.95816 0
M  V30 2590 C 229.561 1.37756 -0.831393 0
M  V30 2591 O 230.753 1.39065 -1.09499 0
M  V30 2592 C 227.882 2.49778 -2.35512 0
M  V30 2593 C 226.968 2.32342 -3.54793 0
M  V30 2594 N 227.359 1.8469 -4.70875 0
M  V30 2595 C 225.657 2.63043 -3.60173 0
M  V30 2596 C 226.358 1.80656 -5.52936 0
M  V30 2597 N 225.334 2.24528 -4.95064 0
M  V30 2598 H 229.136 0.791818 -2.83033 0
M  V30 2599 H 226.65 0.339791 -1.58805 0
M  V30 2600 H 228.647 3.24692 -2.61498 0
M  V30 2601 H 227.307 2.88156 -1.49654 0
M  V30 2602 H 228.318 1.54429 -4.9434 0
M  V30 2603 H 224.995 3.05193 -2.84892 0
M  V30 2604 H 226.385 1.45178 -6.56028 0
M  V30 2605 N 229.106 1.52395 0.401703 0
M  V30 2606 C 230.069 1.75636 1.47257 0
M  V30 2607 C 231.069 0.62628 1.48103 0
M  V30 2608 O 232.259 0.894227 1.49497 0
M  V30 2609 C 229.391 1.84553 2.86624 0
M  V30 2610 H 230.584 2.71241 1.27938 0
M  V30 2611 H 228.137 1.42923 0.632662 0
M  V30 2612 H 228.872 0.908882 3.11303 0
M  V30 2613 H 228.657 2.66715 2.87412 0
M  V30 2614 H 230.147 2.04251 3.64241 0
M  V30 2615 N 230.584 -0.659388 1.43143 0
M  V30 2616 C 231.547 -1.75432 1.47501 0
M  V30 2617 C 232.547 -1.56707 0.360512 0
M  V30 2618 O 233.737 -1.62717 0.622002 0
M  V30 2619 C 230.869 -3.14239 1.32162 0
M  V30 2620 H 232.062 -1.7295 2.45006 0
M  V30 2621 H 229.615 -0.870469 1.29817 0
M  V30 2622 H 230.35 -3.22336 0.356401 0
M  V30 2623 H 230.135 -3.29235 2.12948 0
M  V30 2624 H 231.625 -3.94094 1.3813 0
M  V30 2625 N 232.062 -1.29571 -0.897171 0
M  V30 2626 C 233.025 -1.14913 -1.98312 0
M  V30 2627 C 234.025 -0.0838629 -1.60581 0
M  V30 2628 O 235.215 -0.331006 -1.71026 0
M  V30 2629 C 232.347 -0.757835 -3.3237 0
M  V30 2630 H 233.54 -2.11377 -2.12743 0
M  V30 2631 H 231.093 -1.12793 -1.08201 0
M  V30 2632 H 231.828 0.206837 -3.2364 0
M  V30 2633 H 231.613 -1.52755 -3.61121 0
M  V30 2634 H 233.103 -0.678408 -4.12053 0
M  V30 2635 N 233.54 1.10788 -1.12088 0
M  V30 2636 C 234.788 1.8231 -0.872205 0
M  V30 2637 C 235.109 1.85419 0.603709 0
M  V30 2638 O 234.379 1.32963 1.43867 0
M  V30 2639 H 232.959 0.675137 -0.319686 0
M  V30 2640 H 235.621 1.34068 -1.41463 0
M  V30 2641 H 234.717 2.85955 -1.25045 0
M  V30 2642 N 235.018 0.912232 1.28515 0
M  V30 2643 C 236.267 0.540504 1.94323 0
M  V30 2644 C 236.58 -0.920044 1.72611 0
M  V30 2645 O 237.786 -1.39986 2.32629 0
M  V30 2646 C 236.242 0.915803 3.48053 0
M  V30 2647 C 235.85 2.39598 3.78546 0
M  V30 2648 C 237.594 0.614588 4.20027 0
M  V30 2649 C 235.501 2.71148 5.25578 0
M  V30 2650 H 234.431 0.198418 0.727424 0
M  V30 2651 H 237.082 1.11094 1.46049 0
M  V30 2652 H 235.464 0.274168 3.9505 0
M  V30 2653 H 236.638 3.08422 3.42364 0
M  V30 2654 H 234.953 2.66749 3.1974 0
M  V30 2655 H 237.55 0.827002 5.28266 0
M  V30 2656 H 237.893 -0.447531 4.13887 0
M  V30 2657 H 238.426 1.21462 3.78803 0
M  V30 2658 H 235.165 3.76207 5.36794 0
M  V30 2659 H 234.685 2.0696 5.62963 0
M  V30 2660 H 236.364 2.58072 5.93302 0
M  V30 2661 N 236.496 -1.42363 0.676048 0
M  V30 2662 C 237.745 -2.00745 0.196037 0
M  V30 2663 C 238.058 -1.54083 -1.20489 0
M  V30 2664 O 239.264 -2.04891 -1.78134 0
M  V30 2665 C 237.72 -3.58651 0.299616 0
M  V30 2666 C 237.328 -4.143 1.70468 0
M  V30 2667 C 239.072 -4.24326 -0.121619 0
M  V30 2668 C 236.979 -5.64574 1.76096 0
M  V30 2669 H 235.909 -0.750787 0.0695301 0
M  V30 2670 H 238.56 -1.63072 0.841412 0
M  V30 2671 H 236.942 -3.93833 -0.413673 0
M  V30 2672 H 238.116 -3.90575 2.44515 0
M  V30 2673 H 236.431 -3.61081 2.07387 0
M  V30 2674 H 239.028 -5.34607 -0.0997362 0
M  V30 2675 H 239.371 -3.99897 -1.15708 0
M  V30 2676 H 239.904 -3.94108 0.540706 0
M  V30 2677 H 236.643 -5.93804 2.77628 0
M  V30 2678 H 236.163 -5.90286 1.06406 0
M  V30 2679 H 237.842 -6.29013 1.51496 0
M  V30 2680 N 237.974 -0.419461 -1.51915 0
M  V30 2681 C 238.904 0.391813 -2.30189 0
M  V30 2682 C 239.885 1.03699 -1.34836 0
M  V30 2683 O 241.07 1.04403 -1.63748 0
M  V30 2684 C 238.2 1.50312 -3.13087 0
M  V30 2685 C 237.154 0.9824 -4.16573 0
M  V30 2686 C 236.48 2.18809 -4.8788 0
M  V30 2687 C 237.78 0.0292356 -5.22292 0
M  V30 2688 H 239.474 -0.26135 -2.98257 0
M  V30 2689 H 237.02 -0.127134 -1.43438 0
M  V30 2690 H 238.973 2.07773 -3.66617 0
M  V30 2691 H 237.697 2.18431 -2.42807 0
M  V30 2692 H 236.356 0.430119 -3.64068 0
M  V30 2693 H 236.004 2.85507 -4.14119 0
M  V30 2694 H 235.704 1.84615 -5.57845 0
M  V30 2695 H 237.228 2.76858 -5.44226 0
M  V30 2696 H 238.642 0.512976 -5.71 0
M  V30 2697 H 237.039 -0.2244 -5.9968 0
M  V30 2698 H 238.109 -0.912931 -4.76228 0
M  V30 2699 N 239.452 1.56882 -0.150215 0
M  V30 2700 C 240.701 1.95403 0.500071 0
M  V30 2701 C 241.014 1.03777 1.658 0
M  V30 2702 O 242.22 1.31889 2.37313 0
M  V30 2703 C 240.676 3.4738 0.941018 0
M  V30 2704 C 240.284 4.47596 -0.190158 0
M  V30 2705 C 242.028 3.9476 1.56091 0
M  V30 2706 C 239.935 5.90787 0.269237 0
M  V30 2707 H 238.865 0.729515 0.190588 0
M  V30 2708 H 241.516 1.81988 -0.235074 0
M  V30 2709 H 239.898 3.56138 1.73152 0
M  V30 2710 H 241.072 4.50536 -0.967157 0
M  V30 2711 H 239.387 4.10151 -0.718666 0
M  V30 2712 H 241.984 4.99181 1.9163 0
M  V30 2713 H 242.327 3.36494 2.45107 0
M  V30 2714 H 242.86 3.88932 0.835249 0
M  V30 2715 H 239.599 6.52879 -0.585621 0
M  V30 2716 H 239.119 5.912 1.01204 0
M  V30 2717 H 240.798 6.42979 0.720176 0
M  V30 2718 N 240.93 -0.123565 1.57115 0
M  V30 2719 C 241.88 -1.1575 1.96433 0
M  V30 2720 C 242.864 -1.37313 0.838686 0
M  V30 2721 O 244.056 -1.38482 1.10235 0
M  V30 2722 C 241.185 -2.48526 2.36833 0
M  V30 2723 C 240.271 -2.30457 3.5602 0
M  V30 2724 N 240.662 -1.8219 4.71848 0
M  V30 2725 C 238.96 -2.61129 3.61563 0
M  V30 2726 C 239.661 -1.77721 5.53886 0
M  V30 2727 N 238.637 -2.21899 4.96248 0
M  V30 2728 H 242.439 -0.776797 2.83449 0
M  V30 2729 H 239.953 -0.331364 1.58983 0
M  V30 2730 H 241.95 -3.233 2.63216 0
M  V30 2731 H 240.61 -2.87358 1.5118 0
M  V30 2732 H 241.621 -1.51805 4.95152 0
M  V30 2733 H 238.298 -3.03678 2.86507 0
M  V30 2734 H 239.688 -1.41697 6.56789 0
M  V30 2735 N 242.408 -1.52605 -0.393616 0
M  V30 2736 C 243.371 -1.76415 -1.46323 0
M  V30 2737 C 244.371 -0.634126 -1.47768 0
M  V30 2738 O 245.561 -0.902142 -1.4902 0
M  V30 2739 C 242.693 -1.8607 -2.85641 0
M  V30 2740 H 243.886 -2.71916 -1.26498 0
M  V30 2741 H 241.439 -1.43257 -0.625073 0
M  V30 2742 H 242.174 -0.925378 -3.10817 0
M  V30 2743 H 241.959 -2.68235 -2.85993 0
M  V30 2744 H 243.449 -2.06179 -3.63153 0
M  V30 2745 N 243.887 0.651787 -1.4349 0
M  V30 2746 C 245.136 1.40754 -1.44469 0
M  V30 2747 C 245.449 1.95463 -0.0731845 0
M  V30 2748 O 246.655 2.71471 0.0395721 0
M  V30 2749 C 245.111 2.54735 -2.5424 0
M  V30 2750 C 244.719 2.06628 -3.97504 0
M  V30 2751 C 246.463 3.32092 -2.64414 0
M  V30 2752 C 244.37 3.17829 -4.98737 0
M  V30 2753 H 243.3 0.528862 -0.53742 0
M  V30 2754 H 245.951 0.703365 -1.69485 0
M  V30 2755 H 244.333 3.2763 -2.22428 0
M  V30 2756 H 245.507 1.40734 -4.38783 0
M  V30 2757 H 243.822 1.42146 -3.91387 0
M  V30 2758 H 246.419 4.14952 -3.37223 0
M  V30 2759 H 246.762 3.80217 -1.69532 0
M  V30 2760 H 247.295 2.66279 -2.95534 0
M  V30 2761 H 244.034 2.74671 -5.95177 0
M  V30 2762 H 243.554 3.82429 -4.62069 0
M  V30 2763 H 245.233 3.82937 -5.21505 0
M  V30 2764 N 245.365 1.30045 0.890287 0
M  V30 2765 C 246.295 1.18541 2.01172 0
M  V30 2766 C 247.276 0.0773356 1.69924 0
M  V30 2767 O 248.461 0.25845 1.92473 0
M  V30 2768 C 245.591 0.870941 3.36202 0
M  V30 2769 C 244.545 1.93637 3.81692 0
M  V30 2770 C 243.871 1.475 5.13953 0
M  V30 2771 C 245.171 3.34666 4.00994 0
M  V30 2772 H 246.865 2.12359 2.11054 0
M  V30 2773 H 244.411 1.02238 1.01407 0
M  V30 2774 H 246.364 0.777141 4.14172 0
M  V30 2775 H 245.088 -0.102926 3.26438 0
M  V30 2776 H 243.747 2.01972 3.05946 0
M  V30 2777 H 243.395 0.489551 5.00612 0
M  V30 2778 H 243.095 2.1876 5.4536 0
M  V30 2779 H 244.619 1.39489 5.94454 0
M  V30 2780 H 246.033 3.2912 4.69417 0
M  V30 2781 H 244.43 4.03966 4.43769 0
M  V30 2782 H 245.5 3.76949 3.05021 0
M  V30 2783 N 246.843 -1.10192 1.12674 0
M  V30 2784 C 248.092 -1.81573 0.8783 0
M  V30 2785 C 248.405 -1.86249 -0.597557 0
M  V30 2786 O 249.611 -2.5386 -0.962681 0
M  V30 2787 C 248.067 -3.26149 1.52167 0
M  V30 2788 C 247.675 -3.29763 3.03249 0
M  V30 2789 C 249.419 -4.0234 1.3536 0
M  V30 2790 C 247.326 -4.68815 3.60508 0
M  V30 2791 H 246.256 -0.680394 0.324931 0
M  V30 2792 H 248.907 -1.23902 1.35353 0
M  V30 2793 H 247.289 -3.83832 0.974104 0
M  V30 2794 H 248.463 -2.8189 3.6452 0
M  V30 2795 H 246.778 -2.67059 3.19481 0
M  V30 2796 H 249.375 -5.05058 1.75559 0
M  V30 2797 H 249.718 -4.15235 0.297554 0
M  V30 2798 H 250.251 -3.51079 1.87052 0
M  V30 2799 H 246.99 -4.61121 4.65884 0
M  V30 2800 H 246.51 -5.17045 3.04014 0
M  V30 2801 H 248.189 -5.37785 3.59717 0
M  V30 2802 N 248.321 -0.919034 -1.28029 0
M  V30 2803 C 249.271 -0.382574 -2.24767 0
M  V30 2804 C 250.255 0.508286 -1.52661 0
M  V30 2805 O 251.447 0.347145 -1.73562 0
M  V30 2806 C 248.576 0.371432 -3.41285 0
M  V30 2807 C 247.662 -0.535449 -4.20706 0
M  V30 2808 N 248.053 -1.65141 -4.78082 0
M  V30 2809 C 246.351 -0.336824 -4.44726 0
M  V30 2810 C 247.052 -2.21475 -5.37888 0
M  V30 2811 N 246.028 -1.50537 -5.22341 0
M  V30 2812 H 249.83 -1.23477 -2.66703 0
M  V30 2813 H 247.344 -0.772299 -1.42861 0
M  V30 2814 H 249.341 0.772638 -4.09678 0
M  V30 2815 H 248.001 1.22066 -3.00882 0
M  V30 2816 H 249.012 -2.03392 -4.7629 0
M  V30 2817 H 245.689 0.47246 -4.14818 0
M  V30 2818 H 247.079 -3.15379 -5.93284 0
M  V30 2819 N 249.799 1.42003 -0.683588 0
M  V30 2820 C 250.732 2.28166 0.039592 0
M  V30 2821 C 251.71 1.41562 0.799942 0
M  V30 2822 O 252.894 1.70997 0.793248 0
M  V30 2823 C 250.021 3.21575 1.06335 0
M  V30 2824 C 249.067 4.24643 0.397562 0
M  V30 2825 S 249.9 5.2869 -0.851296 0
M  V30 2826 C 251.056 6.25666 0.171166 0
M  V30 2827 H 251.289 2.89153 -0.691229 0
M  V30 2828 H 248.822 1.46962 -0.473435 0
M  V30 2829 H 250.78 3.75928 1.6489 0
M  V30 2830 H 249.441 2.59707 1.76667 0
M  V30 2831 H 248.634 4.90223 1.17035 0
M  V30 2832 H 248.236 3.73824 -0.114611 0
M  V30 2833 H 250.528 6.69653 1.02819 0
M  V30 2834 H 251.471 7.06666 -0.450397 0
M  V30 2835 H 251.879 5.62095 0.520578 0
M  V30 2836 N 251.277 0.427512 1.51691 0
M  V30 2837 C 252.507 -0.140986 2.06118 0
M  V30 2838 C 252.915 -1.37854 1.29588 0
M  V30 2839 O 252.258 -1.80411 0.346036 0
M  V30 2840 C 252.32 -0.538276 3.55447 0
M  V30 2841 C 251.984 0.591095 4.53161 0
M  V30 2842 C 252.981 1.46027 4.98971 0
M  V30 2843 C 250.666 0.769028 4.96378 0
M  V30 2844 C 252.66 2.49216 5.8666 0
M  V30 2845 C 250.347 1.80421 5.83859 0
M  V30 2846 C 251.345 2.66417 6.28897 0
M  V30 2847 O 251.033 3.68159 7.14643 0
M  V30 2848 H 250.765 -0.0157455 0.675817 0
M  V30 2849 H 253.319 0.602495 1.96365 0
M  V30 2850 H 251.549 -1.33432 3.6295 0
M  V30 2851 H 253.238 -1.0368 3.92435 0
M  V30 2852 H 254.004 1.33429 4.66285 0
M  V30 2853 H 249.883 0.109273 4.6087 0
M  V30 2854 H 253.427 3.16372 6.21735 0
M  V30 2855 H 249.324 1.93042 6.15959 0
M  V30 2856 H 250.092 3.64622 7.32798 0
M  V30 2857 N 252.755 -1.56801 0.158532 0
M  V30 2858 C 253.688 -2.13148 -0.815065 0
M  V30 2859 C 254.666 -1.0581 -1.23462 0
M  V30 2860 O 255.85 -1.3371 -1.32868 0
M  V30 2861 C 252.977 -2.6606 -2.09594 0
M  V30 2862 C 252.023 -3.85651 -1.82141 0
M  V30 2863 S 252.856 -5.26041 -1.00207 0
M  V30 2864 C 254.012 -5.8235 -2.29389 0
M  V30 2865 H 254.245 -2.95396 -0.335937 0
M  V30 2866 H 251.778 -1.54299 -0.0559391 0
M  V30 2867 H 253.736 -2.97195 -2.8317 0
M  V30 2868 H 252.397 -1.83921 -2.54621 0
M  V30 2869 H 251.59 -4.20958 -2.77147 0
M  V30 2870 H 251.192 -3.55338 -1.16667 0
M  V30 2871 H 253.484 -5.94485 -3.24952 0
M  V30 2872 H 254.427 -6.79688 -1.9857 0
M  V30 2873 H 254.835 -5.10675 -2.40564 0
M  V30 2874 N 254.233 0.115231 -1.57178 0
M  V30 2875 C 255.196 1.12526 -1.99676 0
M  V30 2876 C 256.196 1.34095 -0.88742 0
M  V30 2877 O 257.386 1.30548 -1.15337 0
M  V30 2878 C 254.518 2.4789 -2.34015 0
M  V30 2879 H 255.711 0.759912 -2.90113 0
M  V30 2880 H 253.264 0.359648 -1.52106 0
M  V30 2881 H 253.999 2.89339 -1.4647 0
M  V30 2882 H 253.784 2.33588 -3.14927 0
M  V30 2883 H 255.274 3.20575 -2.67622 0
M  V30 2884 N 255.711 1.52812 0.385517 0
M  V30 2885 C 256.958 1.68026 1.1302 0
M  V30 2886 C 257.286 0.421934 1.89868 0
M  V30 2887 O 256.541 -0.595749 1.86412 0
M  V30 2888 C 256.84 2.86856 2.13187 0
M  V30 2889 C 256.506 4.24159 1.5297 0
M  V30 2890 C 255.168 4.61501 1.36274 0
M  V30 2891 C 257.52 5.09627 1.09223 0
M  V30 2892 C 254.848 5.81966 0.743837 0
M  V30 2893 C 257.2 6.30719 0.487411 0
M  V30 2894 C 255.864 6.6679 0.307777 0
M  V30 2895 H 255.134 0.614849 0.413571 0
M  V30 2896 H 257.781 1.86962 0.414405 0
M  V30 2897 H 256.086 2.6235 2.90998 0
M  V30 2898 H 257.783 2.95821 2.70722 0
M  V30 2899 H 254.373 3.94746 1.66954 0
M  V30 2900 H 258.557 4.81343 1.20922 0
M  V30 2901 H 253.813 6.08519 0.592891 0
M  V30 2902 H 257.987 6.96259 0.140143 0
M  V30 2903 H 255.614 7.60001 -0.173879 0
M  V30 2904 N 257.189 -0.644168 1.43834 0
M  V30 2905 C 258.435 -1.40431 1.47141 0
M  V30 2906 C 258.79 -1.92153 0.0975577 0
M  V30 2907 O 258.083 -1.69924 -0.885232 0
M  V30 2908 C 258.277 -2.59615 2.45631 0
M  V30 2909 C 258.106 -2.1956 3.92458 0
M  V30 2910 C 256.876 -2.07456 4.60749 0
M  V30 2911 C 259.074 -1.79281 4.8204 0
M  V30 2912 N 257.056 -1.60827 5.92459 0
M  V30 2913 C 258.427 -1.43801 6.03093 0
M  V30 2914 C 260.482 -1.66545 4.6922 0
M  V30 2915 C 259.185 -0.968599 7.12749 0
M  V30 2916 C 261.211 -1.21008 5.78888 0
M  V30 2917 C 260.573 -0.864711 6.99072 0
M  V30 2918 H 256.672 -0.509182 0.593513 0
M  V30 2919 H 259.256 -0.740351 1.80075 0
M  V30 2920 H 257.427 -3.23658 2.1471 0
M  V30 2921 H 259.159 -3.26357 2.39318 0
M  V30 2922 H 255.914 -2.275 4.1538 0
M  V30 2923 H 256.338 -1.39848 6.62398 0
M  V30 2924 H 260.98 -1.91883 3.7675 0
M  V30 2925 H 258.698 -0.702715 8.05039 0
M  V30 2926 H 262.284 -1.11631 5.7099 0
M  V30 2927 H 261.164 -0.517736 7.82489 0
M  V30 2928 N 258.668 -1.30515 -0.883378 0
M  V30 2929 C 259.914 -1.19607 -1.63774 0
M  V30 2930 C 260.247 0.248314 -1.92606 0
M  V30 2931 O 259.522 1.17742 -1.54813 0
M  V30 2932 C 259.805 -2.02669 -2.97653 0
M  V30 2933 C 259.658 -3.55335 -2.75784 0
M  V30 2934 C 260.977 -1.86573 -3.98596 0
M  V30 2935 H 258.096 -0.435856 -0.594305 0
M  V30 2936 H 260.738 -1.60165 -1.02212 0
M  V30 2937 H 258.888 -1.68208 -3.50197 0
M  V30 2938 H 260.56 -3.99863 -2.30016 0
M  V30 2939 H 258.803 -3.79438 -2.1026 0
M  V30 2940 H 259.474 -4.08745 -3.70988 0
M  V30 2941 H 261.95 -2.16703 -3.55217 0
M  V30 2942 H 260.826 -2.47014 -4.90179 0
M  V30 2943 H 261.087 -0.825321 -4.34328 0
M  V30 2944 N 260.146 1.09593 -1.13257 0
M  V30 2945 C 261.093 2.1618 -0.808381 0
M  V30 2946 C 262.063 1.64517 0.228754 0
M  V30 2947 O 263.248 1.9053 0.101381 0
M  V30 2948 C 260.388 3.43973 -0.278675 0
M  V30 2949 C 259.501 4.09545 -1.37466 0
M  V30 2950 C 258.636 5.25088 -0.803479 0
M  V30 2951 C 257.675 5.82579 -1.87799 0
M  V30 2952 N 256.812 6.89486 -1.32488 0
M  V30 2953 H 261.652 2.43254 -1.72138 0
M  V30 2954 H 259.189 1.19392 -0.859294 0
M  V30 2955 H 261.147 4.17174 0.0465583 0
M  V30 2956 H 259.777 3.17223 0.597459 0
M  V30 2957 H 258.829 3.34226 -1.81652 0
M  V30 2958 H 260.141 4.48307 -2.18684 0
M  V30 2959 H 259.295 6.05178 -0.429427 0
M  V30 2960 H 258.034 4.87684 0.0397956 0
M  V30 2961 H 257.039 5.01152 -2.26113 0
M  V30 2962 H 258.264 6.22045 -2.72463 0
M  V30 2963 H 256.21 6.54064 -0.503575 0
M  V30 2964 H 256.127 7.27007 -2.07355 0
M  V30 2965 H 257.395 7.73336 -0.978336 0
M  V30 2966 N 261.624 0.925811 1.2754 0
M  V30 2967 C 262.872 0.564138 1.94067 0
M  V30 2968 C 263.193 -0.897188 1.73134 0
M  V30 2969 O 262.463 -1.63573 1.07799 0
M  V30 2970 H 261.043 0.205645 0.718136 0
M  V30 2971 H 263.705 1.1778 1.55287 0
M  V30 2972 H 262.801 0.76881 3.02483 0
M  V30 2973 N 263.102 -1.41638 0.69111 0
M  V30 2974 C 264.327 -2.06148 0.227583 0
M  V30 2975 C 264.752 -1.51652 -1.11281 0
M  V30 2976 O 264.11 -0.64164 -1.69566 0
M  V30 2977 C 264.158 -3.60095 0.190858 0
M  V30 2978 O 263.262 -4.03845 -0.835664 0
M  V30 2979 H 262.603 -0.654434 0.112306 0
M  V30 2980 H 265.133 -1.81484 0.944714 0
M  V30 2981 H 265.143 -4.07995 0.020207 0
M  V30 2982 H 263.818 -3.99129 1.16915 0
M  V30 2983 H 262.395 -3.67458 -0.63473 0
M  V30 2984 N 264.58 -0.43555 -1.51462 0
M  V30 2985 C 265.829 0.133007 -2.01261 0
M  V30 2986 C 266.142 1.43942 -1.32439 0
M  V30 2987 O 267.348 2.09081 -1.73198 0
M  V30 2988 C 265.804 0.287581 -3.58749 0
M  V30 2989 C 265.412 -1.00829 -4.36506 0
M  V30 2990 C 267.156 0.810004 -4.167 0
M  V30 2991 C 265.063 -0.819454 -5.85695 0
M  V30 2992 H 263.993 0.0534822 -0.752101 0
M  V30 2993 H 266.644 -0.565038 -1.74584 0
M  V30 2994 H 265.026 1.04859 -3.81865 0
M  V30 2995 H 266.2 -1.77749 -4.25138 0
M  V30 2996 H 264.515 -1.45911 -3.89999 0
M  V30 2997 H 267.112 0.967743 -5.2587 0
M  V30 2998 H 267.455 1.79196 -3.75758 0
M  V30 2999 H 267.988 0.107357 -3.97655 0
M  V30 3000 H 264.727 -1.77374 -6.31046 0
M  V30 3001 H 264.247 -0.0900208 -5.99732 0
M  V30 3002 H 265.926 -0.471949 -6.45276 0
M  V30 3003 N 266.058 1.56714 -0.166846 0
M  V30 3004 C 267.005 2.17746 0.765193 0
M  V30 3005 C 267.975 1.11614 1.23011 0
M  V30 3006 O 269.16 1.39745 1.29908 0
M  V30 3007 C 266.3 2.81882 1.9909 0
M  V30 3008 C 265.413 4.02462 1.56997 0
M  V30 3009 C 264.548 4.54537 2.749 0
M  V30 3010 C 263.587 5.67538 2.29275 0
M  V30 3011 N 262.724 6.14142 3.40255 0
M  V30 3012 H 267.564 2.97048 0.237952 0
M  V30 3013 H 265.101 1.4672 0.105725 0
M  V30 3014 H 267.059 3.17221 2.70974 0
M  V30 3015 H 265.689 2.05191 2.49192 0
M  V30 3016 H 264.741 3.72973 0.748037 0
M  V30 3017 H 266.053 4.84273 1.19503 0
M  V30 3018 H 265.207 4.92035 3.54946 0
M  V30 3019 H 263.946 3.71774 3.1565 0
M  V30 3020 H 262.951 5.29597 1.47674 0
M  V30 3021 H 264.176 6.52099 1.89588 0
M  V30 3022 H 262.122 5.3431 3.8059 0
M  V30 3023 H 262.039 6.9093 3.06841 0
M  V30 3024 H 263.307 6.56289 4.206 0
M  V30 3025 N 267.536 -0.106894 1.57237 0
M  V30 3026 C 268.784 -0.810921 1.85117 0
M  V30 3027 C 269.105 -1.7984 0.753827 0
M  V30 3028 O 268.375 -1.94649 -0.221056 0
M  V30 3029 H 266.955 -0.302466 0.683025 0
M  V30 3030 H 269.617 -0.0913324 1.94686 0
M  V30 3031 H 268.713 -1.34875 2.81452 0
M  V30 3032 N 269.014 -1.53014 -0.377408 0
M  V30 3033 C 269.947 -1.73382 -1.48371 0
M  V30 3034 C 270.925 -0.581879 -1.51832 0
M  V30 3035 O 272.109 -0.81307 -1.70063 0
M  V30 3036 C 269.236 -1.80192 -2.8679 0
M  V30 3037 C 268.282 -3.02056 -3.01105 0
M  V30 3038 S 269.115 -4.61811 -2.71093 0
M  V30 3039 C 270.271 -4.71453 -4.11683 0
M  V30 3040 H 270.504 -2.66946 -1.30872 0
M  V30 3041 H 268.037 -1.43453 -0.571012 0
M  V30 3042 H 269.995 -1.84802 -3.6655 0
M  V30 3043 H 268.656 -0.877008 -3.01608 0
M  V30 3044 H 267.849 -3.03396 -4.02451 0
M  V30 3045 H 267.451 -2.95498 -2.29253 0
M  V30 3046 H 269.743 -4.50781 -5.0577 0
M  V30 3047 H 270.686 -5.73487 -4.15353 0
M  V30 3048 H 271.094 -4.00189 -3.98132 0
M  V30 3049 N 270.492 0.636531 -1.44174 0
M  V30 3050 C 271.741 1.39213 -1.45954 0
M  V30 3051 C 272.054 1.95374 -0.0939119 0
M  V30 3052 O 273.26 2.71498 0.0107767 0
M  V30 3053 C 271.716 2.52025 -2.56927 0
M  V30 3054 C 271.324 2.024 -3.99673 0
M  V30 3055 C 273.068 3.29269 -2.67922 0
M  V30 3056 C 270.975 3.12521 -5.0208 0
M  V30 3057 H 269.905 0.523132 -0.542999 0
M  V30 3058 H 272.556 0.685349 -1.70221 0
M  V30 3059 H 270.938 3.25253 -2.25891 0
M  V30 3060 H 272.112 1.36073 -4.40251 0
M  V30 3061 H 270.427 1.37987 -3.92872 0
M  V30 3062 H 273.024 4.11352 -3.41605 0
M  V30 3063 H 273.367 3.78397 -1.73555 0
M  V30 3064 H 273.9 2.63129 -2.98342 0
M  V30 3065 H 270.639 2.68343 -5.98057 0
M  V30 3066 H 270.159 3.77507 -4.66099 0
M  V30 3067 H 271.838 3.77385 -5.25538 0
M  V30 3068 N 271.97 1.30982 0.876444 0
M  V30 3069 C 272.88 1.2003 2.01569 0
M  V30 3070 C 273.896 0.11838 1.73597 0
M  V30 3071 O 275.072 0.33495 1.98595 0
M  V30 3072 C 272.137 0.901637 3.34771 0
M  V30 3073 C 271.198 2.06979 3.76109 0
M  V30 3074 C 270.431 1.78529 5.02954 0
M  V30 3075 O 270.654 0.717296 5.65872 0
M  V30 3076 O 269.588 2.64019 5.40905 0
M  V30 3077 H 273.414 2.15753 2.13739 0
M  V30 3078 H 270.999 1.10658 1.00375 0
M  V30 3079 H 272.881 0.750645 4.1466 0
M  V30 3080 H 271.556 -0.0256141 3.2369 0
M  V30 3081 H 270.463 2.27616 2.96887 0
M  V30 3082 H 271.796 2.97907 3.91807 0
M  V30 3083 N 273.449 -1.08991 1.13837 0
M  V30 3084 C 274.697 -1.80899 0.901098 0
M  V30 3085 C 275.018 -1.86356 -0.574134 0
M  V30 3086 O 274.288 -1.35235 -1.41733 0
M  V30 3087 H 272.868 -0.669966 0.330386 0
M  V30 3088 H 275.53 -1.318 1.43578 0
M  V30 3089 H 274.626 -2.83929 1.29578 0
M  V30 3090 N 274.927 -0.932562 -1.27047 0
M  V30 3091 C 275.874 -0.434072 -2.26681 0
M  V30 3092 C 276.844 0.501639 -1.58344 0
M  V30 3093 O 278.029 0.419734 -1.86126 0
M  V30 3094 C 275.169 0.30261 -3.43771 0
M  V30 3095 C 274.282 -0.667774 -4.26808 0
M  V30 3096 C 273.417 0.0892393 -5.31125 0
M  V30 3097 C 272.456 -0.873532 -6.05835 0
M  V30 3098 N 271.593 -0.148832 -7.01942 0
M  V30 3099 H 276.433 -1.28868 -2.68695 0
M  V30 3100 H 273.97 -0.646713 -1.32121 0
M  V30 3101 H 275.928 0.746092 -4.10474 0
M  V30 3102 H 274.558 1.12142 -3.02695 0
M  V30 3103 H 273.61 -1.22978 -3.59973 0
M  V30 3104 H 274.922 -1.40337 -4.78651 0
M  V30 3105 H 274.076 0.592409 -6.03801 0
M  V30 3106 H 272.815 0.85777 -4.80097 0
M  V30 3107 H 271.82 -1.38791 -5.31994 0
M  V30 3108 H 273.045 -1.64193 -6.58952 0
M  V30 3109 H 270.991 0.601365 -6.53238 0
M  V30 3110 H 270.908 -0.82391 -7.51497 0
M  V30 3111 H 272.176 0.333527 -7.78786 0
M  V30 3112 N 276.405 1.4127 -0.698611 0
M  V30 3113 C 277.651 2.01478 -0.231207 0
M  V30 3114 C 277.984 1.55215 1.16713 0
M  V30 3115 O 277.259 0.764672 1.78838 0
M  V30 3116 C 277.542 3.58912 -0.292281 0
M  V30 3117 C 277.395 4.15293 -1.72778 0
M  V30 3118 C 278.714 4.38736 0.346194 0
M  V30 3119 H 275.833 0.732025 -0.0854878 0
M  V30 3120 H 278.475 1.67977 -0.887906 0
M  V30 3121 H 276.625 3.87582 0.26686 0
M  V30 3122 H 278.297 3.97486 -2.341 0
M  V30 3123 H 276.54 3.7022 -2.26096 0
M  V30 3124 H 277.211 5.24452 -1.72202 0
M  V30 3125 H 279.687 4.15897 -0.130035 0
M  V30 3126 H 278.563 5.48221 0.272932 0
M  V30 3127 H 278.824 4.18425 1.42734 0
M  V30 3128 N 277.883 0.443576 1.51229 0
M  V30 3129 C 279.108 -0.121648 2.07043 0
M  V30 3130 C 279.533 -1.35156 1.30823 0
M  V30 3131 O 278.891 -1.7793 0.347934 0
M  V30 3132 C 278.939 -0.41624 3.5819 0
M  V30 3133 O 278.043 -1.50163 3.8409 0
M  V30 3134 H 277.384 0.000871367 0.663999 0
M  V30 3135 H 279.914 0.626706 1.94765 0
M  V30 3136 H 279.924 -0.664867 4.02546 0
M  V30 3137 H 278.599 0.482653 4.1309 0
M  V30 3138 H 277.176 -1.24248 3.51592 0
M  V30 3139 N 279.361 -1.56624 0.175154 0
M  V30 3140 C 280.777 -1.58571 -0.180966 0
M  V30 3141 C 280.977 -1.19065 -1.6256 0
M  V30 3142 O 280.033 -0.904044 -2.35761 0
M  V30 3143 C 281.346 -3.00522 0.103326 0
M  V30 3144 C 282.894 -3.12972 0.0418426 0
M  V30 3145 C 283.369 -4.57022 0.299175 0
M  V30 3146 N 284.86 -4.62541 0.247086 0
M  V30 3147 C 285.595 -5.71857 0.420318 0
M  V30 3148 N 285.091 -6.89717 0.652816 0
M  V30 3149 N 286.884 -5.60972 0.355957 0
M  V30 3150 H 279.035 -1.80589 1.11809 0
M  V30 3151 H 281.298 -0.837178 0.444788 0
M  V30 3152 H 281.004 -3.33916 1.10422 0
M  V30 3153 H 280.878 -3.72344 -0.603299 0
M  V30 3154 H 283.265 -2.79403 -0.949636 0
M  V30 3155 H 283.346 -2.43578 0.781238 0
M  V30 3156 H 282.99 -4.913 1.28788 0
M  V30 3157 H 282.92 -5.24579 -0.460876 0
M  V30 3158 H 285.411 -3.77829 0.0731895 0
M  V30 3159 H 285.724 -7.68911 0.774347 0
M  V30 3160 H 284.069 -6.91572 0.689476 0
M  V30 3161 H 287.26 -4.67773 0.174882 0
M  V30 3162 H 287.433 -6.46111 0.494388 0
M  V30 3163 N 280.839 0.0985539 -1.57292 0
M  V30 3164 C 282.255 0.45267 -1.53046 0
M  V30 3165 C 282.455 1.80713 -0.891342 0
M  V30 3166 O 281.511 2.4785 -0.482375 0
M  V30 3167 C 282.824 0.418341 -2.97776 0
M  V30 3168 C 284.372 0.500443 -3.08973 0
M  V30 3169 C 284.847 0.496297 -4.55303 0
M  V30 3170 N 286.338 0.557151 -4.59837 0
M  V30 3171 C 287.073 0.575726 -5.70502 0
M  V30 3172 N 286.569 0.550714 -6.90608 0
M  V30 3173 N 288.362 0.620277 -5.58667 0
M  V30 3174 H 280.513 -0.788673 -1.97215 0
M  V30 3175 H 282.776 -0.293188 -0.901524 0
M  V30 3176 H 282.482 -0.509659 -3.47988 0
M  V30 3177 H 282.356 1.2386 -3.56284 0
M  V30 3178 H 284.743 1.41886 -2.58751 0
M  V30 3179 H 284.824 -0.347894 -2.53423 0
M  V30 3180 H 284.468 -0.418162 -5.06176 0
M  V30 3181 H 284.398 1.3618 -5.08687 0
M  V30 3182 H 286.889 0.581816 -3.73394 0
M  V30 3183 H 287.202 0.568075 -7.70709 0
M  V30 3184 H 285.547 0.517816 -6.93068 0
M  V30 3185 H 288.738 0.637322 -4.63741 0
M  V30 3186 H 288.911 0.631283 -6.44918 0
M  V30 3187 N 282.317 1.53212 0.369288 0
M  V30 3188 C 283.563 1.70413 1.11046 0
M  V30 3189 C 283.918 0.448509 1.87099 0
M  V30 3190 O 283.211 -0.558382 1.83283 0
M  V30 3191 C 283.405 2.89101 2.10132 0
M  V30 3192 C 283.234 4.26084 1.43814 0
M  V30 3193 C 282.004 4.90994 1.19384 0
M  V30 3194 C 284.202 5.06754 0.877802 0
M  V30 3195 N 282.184 6.11911 0.49377 0
M  V30 3196 C 283.555 6.1924 0.306891 0
M  V30 3197 C 285.61 4.91814 0.776129 0
M  V30 3198 C 284.313 7.1842 -0.355774 0
M  V30 3199 C 286.339 5.91263 0.127252 0
M  V30 3200 C 285.701 7.03069 -0.432801 0
M  V30 3201 H 281.8 0.676872 0.391623 0
M  V30 3202 H 284.384 1.90603 0.397334 0
M  V30 3203 H 282.555 2.70456 2.78761 0
M  V30 3204 H 284.287 2.95142 2.76899 0
M  V30 3205 H 281.042 4.50074 1.47413 0
M  V30 3206 H 281.466 6.76813 0.159207 0
M  V30 3207 H 286.108 4.05564 1.19489 0
M  V30 3208 H 283.826 8.04264 -0.786499 0
M  V30 3209 H 287.412 5.81779 0.0495613 0
M  V30 3210 H 286.292 7.78702 -0.926958 0
M  V30 3211 N 283.795 -0.628877 1.44509 0
M  V30 3212 C 284.758 -1.72263 1.51188 0
M  V30 3213 C 285.758 -1.55907 0.39367 0
M  V30 3214 O 286.948 -1.61361 0.656377 0
M  V30 3215 C 284.08 -3.11365 1.38798 0
M  V30 3216 H 285.273 -1.67714 2.4862 0
M  V30 3217 H 282.826 -0.842737 1.31634 0
M  V30 3218 H 283.561 -3.21507 0.424693 0
M  V30 3219 H 283.346 -3.24644 2.19884 0
M  V30 3220 H 284.836 -3.91075 1.46458 0
M  V30 3221 N 285.273 -1.31445 -0.869486 0
M  V30 3222 C 286.22 -1.19135 -1.97675 0
M  V30 3223 C 287.19 -0.0770266 -1.65921 0
M  V30 3224 O 288.375 -0.249972 -1.89155 0
M  V30 3225 C 285.515 -0.905149 -3.33018 0
M  V30 3226 C 284.628 -2.10285 -3.77365 0
M  V30 3227 C 283.763 -1.75339 -5.01427 0
M  V30 3228 C 282.802 -2.91515 -5.38224 0
M  V30 3229 N 281.939 -2.56762 -6.53466 0
M  V30 3230 H 286.779 -2.13853 -2.07535 0
M  V30 3231 H 284.316 -1.06379 -1.01597 0
M  V30 3232 H 286.274 -0.719765 -4.10944 0
M  V30 3233 H 284.904 0.00519624 -3.228 0
M  V30 3234 H 283.956 -2.39899 -2.95216 0
M  V30 3235 H 285.268 -2.97237 -4.00564 0
M  V30 3236 H 284.422 -1.53266 -5.87022 0
M  V30 3237 H 283.161 -0.855801 -4.80133 0
M  V30 3238 H 282.166 -3.14237 -4.51149 0
M  V30 3239 H 283.391 -3.81985 -5.61484 0
M  V30 3240 H 281.337 -1.69526 -6.33717 0
M  V30 3241 H 281.254 -3.37243 -6.76612 0
M  V30 3242 H 282.522 -2.38083 -7.42251 0
M  V30 3243 N 286.751 1.08385 -1.14413 0
M  V30 3244 C 287.698 2.15311 -0.831265 0
M  V30 3245 C 288.668 1.64751 0.211292 0
M  V30 3246 O 289.853 1.90627 0.0811674 0
M  V30 3247 C 286.993 3.43658 -0.315143 0
M  V30 3248 C 286.106 4.08064 -1.41802 0
M  V30 3249 C 285.241 5.24207 -0.859126 0
M  V30 3250 C 284.28 5.80554 -1.93967 0
M  V30 3251 N 283.417 6.88042 -1.39793 0
M  V30 3252 H 288.257 2.41415 -1.74708 0
M  V30 3253 H 285.794 1.18474 -0.871909 0
M  V30 3254 H 287.752 4.172 0.00230884 0
M  V30 3255 H 286.382 3.17839 0.56378 0
M  V30 3256 H 285.434 3.3228 -1.85187 0
M  V30 3257 H 286.746 4.45962 -2.23427 0
M  V30 3258 H 285.9 6.04689 -0.49359 0
M  V30 3259 H 284.639 4.87699 -0.011932 0
M  V30 3260 H 283.644 4.98725 -2.31415 0
M  V30 3261 H 284.869 6.19121 -2.79046 0
M  V30 3262 H 282.815 6.53493 -0.572919 0
M  V30 3263 H 282.732 7.24767 -2.15054 0
M  V30 3264 H 284 7.72255 -1.0603 0
M  V30 3265 N 288.23 0.939286 1.26551 0
M  V30 3266 C 289.18 0.418284 2.2413 0
M  V30 3267 C 290.164 -0.483935 1.5345 0
M  V30 3268 O 291.356 -0.319489 1.74093 0
M  V30 3269 C 288.485 -0.31709 3.41832 0
M  V30 3270 C 287.571 0.602311 4.19801 0
M  V30 3271 N 287.962 1.72726 4.75394 0
M  V30 3272 C 286.26 0.407534 4.44134 0
M  V30 3273 C 286.961 2.30004 5.34297 0
M  V30 3274 N 285.937 1.58828 5.1988 0
M  V30 3275 H 289.739 1.27705 2.64705 0
M  V30 3276 H 287.253 0.794929 1.41614 0
M  V30 3277 H 289.25 -0.707364 4.10855 0
M  V30 3278 H 287.91 -1.17264 3.02786 0
M  V30 3279 H 288.921 2.10944 4.72994 0
M  V30 3280 H 285.598 -0.406406 4.15517 0
M  V30 3281 H 286.988 3.24778 5.88191 0
M  V30 3282 N 289.708 -1.40897 0.706093 0
M  V30 3283 C 290.658 -2.27987 0.0240746 0
M  V30 3284 C 291.642 -1.42759 -0.742204 0
M  V30 3285 O 292.834 -1.65936 -0.615966 0
M  V30 3286 C 289.963 -3.31186 -0.903907 0
M  V30 3287 C 289.049 -4.2389 -0.133318 0
M  V30 3288 N 289.44 -4.98113 0.878444 0
M  V30 3289 C 287.738 -4.44485 -0.367269 0
M  V30 3290 C 288.439 -5.6604 1.34064 0
M  V30 3291 N 287.415 -5.39522 0.664565 0
M  V30 3292 H 291.217 -2.82812 0.799658 0
M  V30 3293 H 288.731 -1.53235 0.537845 0
M  V30 3294 H 290.728 -3.92413 -1.40775 0
M  V30 3295 H 289.388 -2.77922 -1.67897 0
M  V30 3296 H 290.399 -5.02364 1.25901 0
M  V30 3297 H 287.076 -4.02213 -1.1194 0
M  V30 3298 H 288.466 -6.35524 2.1808 0
M  V30 3299 N 291.186 -0.45159 -1.50991 0
M  V30 3300 C 292.597 0.00818571 -1.86698 0
M  V30 3301 C 292.948 1.40661 -1.3678 0
M  V30 3302 O 292.073 2.0391 -0.724546 0
M  V30 3303 C 292.668 0.0216303 -3.38793 0
M  V30 3304 C 291.227 0.425865 -3.73983 0
M  V30 3305 C 290.374 -0.372163 -2.74791 0
M  V30 3306 H 293.325 -0.666785 -1.44013 0
M  V30 3307 H 293.346 0.828078 -3.7138 0
M  V30 3308 H 292.858 -0.996288 -3.75094 0
M  V30 3309 H 290.959 1.44886 -3.43277 0
M  V30 3310 H 291.072 0.140761 -4.78893 0
M  V30 3311 H 289.436 0.171498 -2.54122 0
M  V30 3312 H 290.219 -1.38922 -3.13935 0
M  V30 3313 N 292.664 1.56529 -0.183458 0
M  V30 3314 C 294.08 1.58664 0.172554 0
M  V30 3315 C 294.28 1.19925 1.61926 0
M  V30 3316 O 293.336 0.916534 2.35278 0
M  V30 3317 C 294.649 3.00463 -0.119262 0
M  V30 3318 C 296.197 3.12945 -0.0584396 0
M  V30 3319 C 296.672 4.56857 -0.323408 0
M  V30 3320 N 298.163 4.62403 -0.271612 0
M  V30 3321 C 298.898 5.71626 -0.450639 0
M  V30 3322 N 298.394 6.89362 -0.689384 0
M  V30 3323 N 300.187 5.60775 -0.385701 0
M  V30 3324 H 292.338 1.79994 -1.12765 0
M  V30 3325 H 294.601 0.834808 -0.449222 0
M  V30 3326 H 294.307 3.33326 -1.12192 0
M  V30 3327 H 294.181 3.72659 0.583544 0
M  V30 3328 H 296.568 2.79902 0.934805 0
M  V30 3329 H 296.649 2.4316 -0.794144 0
M  V30 3330 H 296.293 4.9061 -1.31392 0
M  V30 3331 H 296.223 5.24816 0.43305 0
M  V30 3332 H 298.714 3.77785 -0.0932256 0
M  V30 3333 H 299.027 7.68489 -0.815113 0
M  V30 3334 H 297.372 6.91196 -0.726142 0
M  V30 3335 H 300.563 4.67674 -0.199687 0
M  V30 3336 H 300.736 6.4584 -0.528646 0
M  V30 3337 N 294.142 -0.090211 1.57342 0
M  V30 3338 C 295.388 -0.788838 1.8748 0
M  V30 3339 C 295.743 -1.76105 0.7749 0
M  V30 3340 O 295.036 -1.90302 -0.222663 0
M  V30 3341 C 295.23 -1.55222 3.21933 0
M  V30 3342 C 295.059 -0.655441 4.44898 0
M  V30 3343 C 293.829 -0.299325 5.04413 0
M  V30 3344 C 296.027 0.0397458 5.14285 0
M  V30 3345 N 294.009 0.605108 6.10911 0
M  V30 3346 C 295.38 0.802061 6.1479 0
M  V30 3347 C 297.435 0.113154 4.97771 0
M  V30 3348 C 296.138 1.63093 7.00566 0
M  V30 3349 C 298.164 0.928942 5.84059 0
M  V30 3350 C 297.526 1.67936 6.84088 0
M  V30 3351 H 293.625 -0.26467 0.735849 0
M  V30 3352 H 296.209 -0.0511453 1.94633 0
M  V30 3353 H 294.38 -2.26076 3.15823 0
M  V30 3354 H 296.112 -2.19843 3.39781 0
M  V30 3355 H 292.867 -0.648079 4.69145 0
M  V30 3356 H 293.291 1.05002 6.68808 0
M  V30 3357 H 297.933 -0.452676 4.2037 0
M  V30 3358 H 295.651 2.20781 7.77355 0
M  V30 3359 H 299.237 0.988478 5.73341 0
M  V30 3360 H 298.117 2.30044 7.49699 0
M  V30 3361 N 295.62 -1.53406 -0.361157 0
M  V30 3362 C 296.85 -1.73465 -1.1222 0
M  V30 3363 C 297.258 -0.465486 -1.83384 0
M  V30 3364 O 296.601 0.571611 -1.7458 0
M  V30 3365 C 296.663 -2.84834 -2.19339 0
M  V30 3366 C 296.327 -4.25038 -1.67903 0
M  V30 3367 C 297.324 -5.07231 -1.14074 0
M  V30 3368 C 295.009 -4.71464 -1.73282 0
M  V30 3369 C 297.003 -6.33942 -0.663068 0
M  V30 3370 C 294.69 -5.98153 -1.25127 0
M  V30 3371 C 295.688 -6.79223 -0.717296 0
M  V30 3372 O 295.376 -8.03533 -0.242865 0
M  V30 3373 H 295.108 -0.583526 -0.341283 0
M  V30 3374 H 297.662 -2.00964 -0.424591 0
M  V30 3375 H 295.892 -2.5282 -2.92607 0
M  V30 3376 H 297.581 -2.9303 -2.80871 0
M  V30 3377 H 298.347 -4.72534 -1.09254 0
M  V30 3378 H 294.226 -4.08432 -2.13786 0
M  V30 3379 H 297.77 -6.97167 -0.245612 0
M  V30 3380 H 293.667 -6.32347 -1.29642 0
M  V30 3381 H 294.435 -8.177 -0.361786 0
M  V30 3382 N 297.098 0.621204 -1.44841 0
M  V30 3383 C 298.514 0.94048 -1.28946 0
M  V30 3384 C 298.714 2.00154 -0.23249 0
M  V30 3385 O 297.77 2.49651 0.378237 0
M  V30 3386 C 299.083 1.39433 -2.66419 0
M  V30 3387 C 300.631 1.50927 -2.74208 0
M  V30 3388 C 301.106 1.99692 -4.12174 0
M  V30 3389 N 302.597 2.06947 -4.144 0
M  V30 3390 C 303.332 2.45871 -5.1801 0
M  V30 3391 N 302.828 2.83862 -6.31977 0
M  V30 3392 N 304.621 2.46092 -5.05366 0
M  V30 3393 H 296.772 -0.0803548 -2.12248 0
M  V30 3394 H 299.035 0.0266913 -0.947624 0
M  V30 3395 H 298.741 0.688925 -3.44887 0
M  V30 3396 H 298.615 2.36347 -2.93973 0
M  V30 3397 H 301.002 2.20561 -1.96053 0
M  V30 3398 H 301.083 0.523627 -2.50383 0
M  V30 3399 H 300.727 1.30649 -4.90809 0
M  V30 3400 H 300.657 2.99146 -4.33381 0
M  V30 3401 H 303.148 1.80232 -3.32152 0
M  V30 3402 H 303.461 3.12405 -7.0684 0
M  V30 3403 H 301.806 2.8159 -6.35399 0
M  V30 3404 H 304.997 2.1581 -4.15384 0
M  V30 3405 H 305.17 2.76102 -5.86235 0
M  V30 3406 N 298.576 1.31904 0.862503 0
M  V30 3407 C 299.486 1.22161 2.00285 0
M  V30 3408 C 300.502 0.136785 1.73462 0
M  V30 3409 O 301.678 0.355994 1.98229 0
M  V30 3410 C 298.743 0.937093 3.33796 0
M  V30 3411 C 297.804 2.10957 3.73893 0
M  V30 3412 C 297.037 1.83853 5.01033 0
M  V30 3413 O 297.26 0.777274 5.65079 0
M  V30 3414 O 296.194 2.69741 5.38074 0
M  V30 3415 H 300.02 2.18008 2.11439 0
M  V30 3416 H 297.605 1.11716 0.991957 0
M  V30 3417 H 299.487 0.794583 4.13841 0
M  V30 3418 H 298.162 0.00871894 3.23699 0
M  V30 3419 H 297.069 2.30752 2.94456 0
M  V30 3420 H 298.402 3.02046 3.88625 0
M  V30 3421 N 300.054 -1.07777 1.14986 0
M  V30 3422 C 301.303 -1.79669 0.916617 0
M  V30 3423 C 301.616 -1.87474 -0.557917 0
M  V30 3424 O 302.822 -2.55845 -0.908617 0
M  V30 3425 C 301.278 -3.22848 1.59051 0
M  V30 3426 C 300.886 -3.23257 3.10176 0
M  V30 3427 C 302.63 -3.99379 1.43864 0
M  V30 3428 C 300.537 -4.61063 3.70372 0
M  V30 3429 H 299.467 -0.673349 0.33929 0
M  V30 3430 H 302.118 -1.21003 1.37951 0
M  V30 3431 H 300.5 -3.8168 1.0553 0
M  V30 3432 H 301.674 -2.74095 3.70417 0
M  V30 3433 H 299.989 -2.60222 3.25074 0
M  V30 3434 H 302.586 -5.0122 1.86232 0
M  V30 3435 H 302.929 -4.14511 0.385564 0
M  V30 3436 H 303.462 -3.47032 1.94457 0
M  V30 3437 H 300.201 -4.51135 4.7556 0
M  V30 3438 H 299.721 -5.1048 3.14913 0
M  V30 3439 H 301.4 -5.30034 3.71043 0
M  V30 3440 N 301.532 -0.945985 -1.26051 0
M  V30 3441 C 302.442 -0.465633 -2.29933 0
M  V30 3442 C 303.458 0.462761 -1.67733 0
M  V30 3443 O 304.634 0.341118 -1.9849 0
M  V30 3444 C 301.699 0.256994 -3.45746 0
M  V30 3445 C 300.76 -0.708549 -4.23412 0
M  V30 3446 C 299.993 -0.0203135 -5.33696 0
M  V30 3447 O 300.216 1.19571 -5.57726 0
M  V30 3448 O 299.15 -0.701459 -5.97799 0
M  V30 3449 H 302.976 -1.32866 -2.73094 0
M  V30 3450 H 300.561 -0.712071 -1.31339 0
M  V30 3451 H 302.443 0.663852 -4.16138 0
M  V30 3452 H 301.118 1.09533 -3.04605 0
M  V30 3453 H 300.025 -1.16545 -3.55483 0
M  V30 3454 H 301.358 -1.51465 -4.68315 0
M  V30 3455 N 303.011 1.40521 -0.713556 0
M  V30 3456 C 303.958 2.30723 -0.059684 0
M  V30 3457 C 304.928 1.48079 0.752448 0
M  V30 3458 O 306.113 1.76823 0.71681 0
M  V30 3459 C 303.253 3.34274 0.857594 0
M  V30 3460 C 302.366 4.31986 0.0351536 0
M  V30 3461 C 301.501 5.22605 0.951724 0
M  V30 3462 C 300.54 6.11976 0.123253 0
M  V30 3463 N 299.677 6.9502 0.99459 0
M  V30 3464 H 304.517 2.86074 -0.834596 0
M  V30 3465 H 302.054 1.40879 -0.42326 0
M  V30 3466 H 304.012 3.92879 1.40364 0
M  V30 3467 H 302.642 2.8043 1.59871 0
M  V30 3468 H 301.694 3.7518 -0.628052 0
M  V30 3469 H 303.006 4.95101 -0.606347 0
M  V30 3470 H 302.16 5.86131 1.56638 0
M  V30 3471 H 300.899 4.59759 1.62705 0
M  V30 3472 H 299.904 5.47482 -0.50435 0
M  V30 3473 H 301.129 6.76881 -0.548539 0
M  V30 3474 H 299.075 6.34764 1.6556 0
M  V30 3475 H 298.992 7.54892 0.40908 0
M  V30 3476 H 300.26 7.62997 1.59549 0
M  V30 3477 N 304.489 0.459591 1.5075 0
M  V30 3478 C 305.452 -0.329093 2.26825 0
M  V30 3479 C 306.452 -0.930481 1.31144 0
M  V30 3480 O 307.642 -0.801453 1.54669 0
M  V30 3481 C 304.774 -1.46768 3.07688 0
M  V30 3482 H 305.967 0.337924 2.9799 0
M  V30 3483 H 303.52 0.213336 1.54837 0
M  V30 3484 H 304.255 -2.17009 2.40993 0
M  V30 3485 H 304.04 -1.04238 3.77991 0
M  V30 3486 H 305.53 -2.02433 3.65254 0
M  V30 3487 N 305.967 -1.56429 0.191757 0
M  V30 3488 C 306.877 -2.22541 -0.742481 0
M  V30 3489 C 307.893 -1.22342 -1.23727 0
M  V30 3490 O 309.069 -1.55069 -1.28513 0
M  V30 3491 C 306.134 -2.8692 -1.94623 0
M  V30 3492 C 305.195 -4.02378 -1.49633 0
M  V30 3493 C 304.428 -4.63678 -2.6427 0
M  V30 3494 O 304.651 -4.23895 -3.81666 0
M  V30 3495 O 303.585 -5.53202 -2.37174 0
M  V30 3496 H 307.411 -3.02977 -0.209462 0
M  V30 3497 H 304.996 -1.49353 -0.0373832 0
M  V30 3498 H 306.878 -3.27663 -2.64982 0
M  V30 3499 H 305.553 -2.09466 -2.46791 0
M  V30 3500 H 304.46 -3.66265 -0.761636 0
M  V30 3501 H 305.793 -4.81487 -1.02134 0
M  V30 3502 N 307.445 0.0818655 -1.57387 0
M  V30 3503 C 308.408 1.08265 -2.02018 0
M  V30 3504 C 309.408 1.32183 -0.915664 0
M  V30 3505 O 310.598 1.28073 -1.18081 0
M  V30 3506 C 307.73 2.42871 -2.39221 0
M  V30 3507 H 308.923 0.698204 -2.91659 0
M  V30 3508 H 306.476 0.327303 -1.52835 0
M  V30 3509 H 307.211 2.86167 -1.52575 0
M  V30 3510 H 306.996 2.26855 -3.19811 0
M  V30 3511 H 308.486 3.14826 -2.74362 0
M  V30 3512 N 308.923 1.53595 0.353017 0
M  V30 3513 C 309.87 1.80919 1.43308 0
M  V30 3514 C 310.84 0.654288 1.5267 0
M  V30 3515 O 312.025 0.897759 1.6836 0
M  V30 3516 C 309.165 2.01605 2.80089 0
M  V30 3517 C 308.278 3.29321 2.79593 0
M  V30 3518 C 307.413 3.40125 4.0803 0
M  V30 3519 C 306.452 4.61826 4.01725 0
M  V30 3520 N 305.589 4.69716 5.21834 0
M  V30 3521 H 310.429 2.73074 1.19308 0
M  V30 3522 H 307.966 1.35263 0.578131 0
M  V30 3523 H 309.924 2.11586 3.59565 0
M  V30 3524 H 308.554 1.12772 3.0246 0
M  V30 3525 H 307.606 3.28229 1.92276 0
M  V30 3526 H 308.918 4.18884 2.70809 0
M  V30 3527 H 308.072 3.49488 4.95927 0
M  V30 3528 H 306.811 2.48601 4.19582 0
M  V30 3529 H 305.816 4.52552 3.12213 0
M  V30 3530 H 307.041 5.54705 3.91764 0
M  V30 3531 H 304.987 3.81097 5.33948 0
M  V30 3532 H 304.904 5.53202 5.1527 0
M  V30 3533 H 306.172 4.83376 6.11529 0
M  V30 3534 N 310.401 -0.613514 1.45168 0
M  V30 3535 C 311.348 -1.72456 1.53387 0
M  V30 3536 C 312.318 -1.6169 0.380191 0
M  V30 3537 O 313.503 -1.81356 0.592836 0
M  V30 3538 C 310.643 -3.10753 1.50088 0
M  V30 3539 C 309.756 -3.32368 2.75963 0
M  V30 3540 C 308.891 -4.60737 2.64376 0
M  V30 3541 C 307.93 -4.7559 3.85332 0
M  V30 3542 N 307.067 -5.95253 3.72315 0
M  V30 3543 H 311.907 -1.64768 2.48305 0
M  V30 3544 H 309.444 -0.803503 1.23216 0
M  V30 3545 H 311.402 -3.90758 1.46164 0
M  V30 3546 H 310.032 -3.17413 0.587243 0
M  V30 3547 H 309.084 -2.4618 2.89999 0
M  V30 3548 H 310.396 -3.39218 3.65695 0
M  V30 3549 H 309.55 -5.48928 2.58385 0
M  V30 3550 H 308.289 -4.56275 1.72233 0
M  V30 3551 H 307.294 -3.85824 3.91688 0
M  V30 3552 H 308.519 -4.81854 4.78533 0
M  V30 3553 H 306.465 -5.91847 2.82937 0
M  V30 3554 H 306.382 -6.03236 4.55677 0
M  V30 3555 H 307.65 -6.85958 3.70246 0
M  V30 3556 N 311.879 -1.3236 -0.855495 0
M  V30 3557 C 312.789 -1.23221 -1.99634 0
M  V30 3558 C 313.805 -0.145983 -1.73387 0
M  V30 3559 O 314.981 -0.366502 -1.98037 0
M  V30 3560 C 312.046 -0.954782 -3.33294 0
M  V30 3561 C 311.107 -2.12937 -3.72769 0
M  V30 3562 C 310.34 -1.86508 -5.00051 0
M  V30 3563 O 310.563 -0.807231 -5.64659 0
M  V30 3564 O 309.497 -2.72591 -5.36636 0
M  V30 3565 H 313.323 -2.19126 -2.1028 0
M  V30 3566 H 310.908 -1.12241 -0.986018 0
M  V30 3567 H 312.79 -0.816519 -4.13414 0
M  V30 3568 H 311.465 -0.0258854 -3.2369 0
M  V30 3569 H 310.372 -2.3231 -2.93228 0
M  V30 3570 H 311.705 -3.04102 -3.87018 0
M  V30 3571 N 313.357 1.07166 -1.15556 0
M  V30 3572 C 314.582 1.84053 -0.955988 0
M  V30 3573 C 315.007 1.81586 0.490739 0
M  V30 3574 O 314.365 1.21018 1.34997 0
M  V30 3575 C 314.413 3.28957 -1.47714 0
M  V30 3576 O 313.517 4.06795 -0.677593 0
M  V30 3577 H 312.858 0.569842 -0.340847 0
M  V30 3578 H 315.388 1.35178 -1.53584 0
M  V30 3579 H 315.398 3.79788 -1.4908 0
M  V30 3580 H 314.073 3.30068 -2.53037 0
M  V30 3581 H 312.65 3.6561 -0.733721 0
M  V30 3582 N 314.835 0.952656 1.25548 0
M  V30 3583 C 315.745 0.47782 2.29682 0
M  V30 3584 C 316.761 -0.453859 1.67977 0
M  V30 3585 O 317.937 -0.330587 1.98668 0
M  V30 3586 C 315.002 -0.238655 3.45878 0
M  V30 3587 C 314.063 0.730994 4.23031 0
M  V30 3588 C 313.296 0.0486165 5.33678 0
M  V30 3589 O 313.519 -1.16612 5.58353 0
M  V30 3590 O 312.453 0.733152 5.97418 0
M  V30 3591 H 316.279 1.34312 2.72386 0
M  V30 3592 H 313.864 0.719026 1.30959 0
M  V30 3593 H 315.746 -0.641774 4.16484 0
M  V30 3594 H 314.421 -1.07916 3.05181 0
M  V30 3595 H 313.328 1.18428 3.5486 0
M  V30 3596 H 314.661 1.53946 4.67506 0
M  V30 3597 N 316.313 -1.40141 0.720998 0
M  V30 3598 C 317.223 -2.34486 0.0731031 0
M  V30 3599 C 318.239 -1.57587 -0.737723 0
M  V30 3600 O 319.415 -1.89949 -0.669429 0
M  V30 3601 C 316.48 -3.36528 -0.833656 0
M  V30 3602 C 315.541 -4.29298 -0.0121673 0
M  V30 3603 C 314.774 -5.26466 -0.875742 0
M  V30 3604 O 314.997 -5.29745 -2.11485 0
M  V30 3605 O 313.931 -6.01092 -0.31185 0
M  V30 3606 H 317.757 -2.9152 0.851444 0
M  V30 3607 H 315.342 -1.41427 0.481527 0
M  V30 3608 H 317.224 -3.99093 -1.35289 0
M  V30 3609 H 315.899 -2.81899 -1.59105 0
M  V30 3610 H 314.806 -3.70001 0.552262 0
M  V30 3611 H 316.139 -4.87094 0.707129 0
M  V30 3612 N 317.792 -0.46758 -1.50504 0
M  V30 3613 C 319.04 0.0884469 -2.01906 0
M  V30 3614 C 319.361 1.40532 -1.35188 0
M  V30 3615 O 318.631 1.89515 -0.496079 0
M  V30 3616 H 317.211 0.0356765 -0.746148 0
M  V30 3617 H 319.873 -0.6172 -1.84869 0
M  V30 3618 H 318.969 0.2425 -3.11156 0
M  V30 3619 N 319.27 1.56325 -0.20005 0
M  V30 3620 C 320.519 1.96895 0.437652 0
M  V30 3621 C 320.832 1.08999 1.62415 0
M  V30 3622 O 322.038 1.39372 2.32997 0
M  V30 3623 C 320.494 3.50198 0.830025 0
M  V30 3624 C 320.102 4.46765 -0.332461 0
M  V30 3625 C 321.846 3.99526 1.43453 0
M  V30 3626 C 319.753 5.91344 0.0811468 0
M  V30 3627 H 318.683 0.735209 0.167282 0
M  V30 3628 H 321.334 1.81148 -0.292853 0
M  V30 3629 H 319.716 3.61467 1.61734 0
M  V30 3630 H 320.89 4.47231 -1.11 0
M  V30 3631 H 319.205 4.07657 -0.848789 0
M  V30 3632 H 321.802 5.05025 1.75652 0
M  V30 3633 H 322.145 3.44122 2.34277 0
M  V30 3634 H 322.678 3.91393 0.71109 0
M  V30 3635 H 319.417 6.50685 -0.793033 0
M  V30 3636 H 318.937 5.94121 0.823445 0
M  V30 3637 H 320.616 6.44945 0.515252 0
M  V30 3638 O 320.787 0.0630897 1.61377 0
M  V30 3639 H 321.478 -0.544463 1.85891 0
M  V30 END ATOM
M  V30 BEGIN BOND
M  V30 END BOND
M  V30 END CTAB
M  END
$$$$
