drugbank_target|P0AET8 7-alpha-hydroxysteroid dehydrogenase (DB02123)
 OpenBabel12092120033D

  0  0  0     0  0            999 V3000
M  V30 BEGIN CTAB
M  V30 COUNTS 3758 3785 0 0 0
M  V30 BEGIN ATOM
M  V30 1 H -0.908 1.98254 -0.117106 0
M  V30 2 N 0 1.576 0 0
M  V30 3 C 0.933 2.03868 1.02534 0
M  V30 4 C 1.911 0.928543 1.3348 0
M  V30 5 O 3.095 1.19667 1.45644 0
M  V30 6 C 0.222 2.43627 2.35294 0
M  V30 7 C -0.732 3.65373 2.2001 0
M  V30 8 S 0.101 5.13292 1.52614 0
M  V30 9 C 1.257 5.56322 2.86805 0
M  V30 10 H 1.49 2.90518 0.631377 0
M  V30 11 H -0.977 1.52953 0.210867 0
M  V30 12 H 0.981 2.67203 3.11629 0
M  V30 13 H -0.358 1.57376 2.7183 0
M  V30 14 H -1.165 3.90944 3.18086 0
M  V30 15 H -1.563 3.418 1.51819 0
M  V30 16 H 0.729 5.58782 3.83104 0
M  V30 17 H 1.672 6.56266 2.65933 0
M  V30 18 H 2.08 4.83886 2.90714 0
M  V30 19 N 1.4781 -0.272755 1.55222 0
M  V30 20 C 2.7251 -1.00433 1.7584 0
M  V30 21 C 3.0531 -1.86275 0.559629 0
M  V30 22 O 2.3081 -1.90269 -0.457857 0
M  V30 23 C 2.6071 -1.91642 3.01675 0
M  V30 24 C 2.2731 -1.21548 4.34208 0
M  V30 25 C 0.9351 -1.02166 4.70229 0
M  V30 26 C 3.2871 -0.716684 5.16249 0
M  V30 27 C 0.6151 -0.316334 5.85847 0
M  V30 28 C 2.9671 -0.0249476 6.32595 0
M  V30 29 C 1.6311 0.180579 6.67256 0
M  V30 30 H 0.9011 -0.367509 0.643443 0
M  V30 31 H 3.5481 -0.276596 1.89492 0
M  V30 32 H 1.8531 -2.71037 2.82924 0
M  V30 33 H 3.5501 -2.48369 3.14824 0
M  V30 34 H 0.1401 -1.37645 4.05896 0
M  V30 35 H 4.3241 -0.854047 4.88896 0
M  V30 36 H -0.4199 -0.146378 6.11225 0
M  V30 37 H 3.7541 0.369311 6.9542 0
M  V30 38 H 1.3811 0.729098 7.56696 0
M  V30 39 N 2.9562 -1.48159 -0.537278 0
M  V30 40 C 3.9042 -1.62573 -1.66352 0
M  V30 41 C 4.8982 -0.492366 -1.62087 0
M  V30 42 O 6.1042 -0.670847 -1.67032 0
M  V30 43 H 2.4792 -0.511992 -0.550789 0
M  V30 44 H 4.4502 -2.57176 -1.51337 0
M  V30 45 C 3.1992 -1.67583 -3.04649 0
M  V30 46 H 2.5222 -2.54151 -3.08622 0
M  V30 47 H 3.9622 -1.81713 -3.83088 0
M  V30 48 C 2.4212 -0.413039 -3.34358 0
M  V30 49 O 2.9512 0.477259 -3.98855 0
M  V30 50 N 1.1572 -0.286961 -2.8918 0
M  V30 51 H 0.7042 -1.01241 -2.36871 0
M  V30 52 H 0.6622 0.556963 -3.09427 0
M  V30 53 N 4.4343 0.785586 -1.36625 0
M  V30 54 C 5.6593 1.57963 -1.34397 0
M  V30 55 C 6.0843 1.87964 0.071526 0
M  V30 56 O 5.4423 1.48182 1.0446 0
M  V30 57 C 5.4903 2.87511 -2.17646 0
M  V30 58 O 4.5943 3.81281 -1.57158 0
M  V30 59 H 3.9353 0.479014 -0.459828 0
M  V30 60 H 6.4653 0.973411 -1.79961 0
M  V30 61 H 6.4753 3.36745 -2.30362 0
M  V30 62 H 5.1503 2.65002 -3.20541 0
M  V30 63 H 3.7273 3.39885 -1.53403 0
M  V30 64 N 5.9124 1.20967 1.01018 0
M  V30 65 C 7.1894 0.93264 1.71934 0
M  V30 66 C 7.5694 -0.55692 2.03621 0
M  V30 67 O 6.9174 -1.52035 1.7058 0
M  V30 68 C 7.1274 1.81233 2.98254 0
M  V30 69 C 8.4754 2.05804 3.71389 0
M  V30 70 O 9.4994 1.78539 3.08225 0
M  V30 71 O 8.3584 2.51888 4.84989 0
M  V30 72 H 5.4524 0.349272 0.749625 0
M  V30 73 H 7.9984 1.31871 1.06808 0
M  V30 74 H 6.7704 2.82067 2.71208 0
M  V30 75 H 6.3934 1.42674 3.7112 0
M  V30 76 N 7.3905 -1.2043 1.01659 0
M  V30 77 C 8.3385 -2.25249 0.580143 0
M  V30 78 C 9.3325 -1.65057 -0.381115 0
M  V30 79 O 10.5385 -1.78241 -0.251039 0
M  V30 80 H 6.9135 -0.732695 0.169299 0
M  V30 81 H 8.8845 -2.59389 1.47512 0
M  V30 82 C 7.6335 -3.47638 -0.065788 0
M  V30 83 H 6.9565 -3.94233 0.664874 0
M  V30 84 H 8.3965 -4.2268 -0.334282 0
M  V30 85 C 6.8555 -3.10447 -1.3086 0
M  V30 86 O 7.3855 -3.21981 -2.4019 0
M  V30 87 N 5.5915 -2.64996 -1.1927 0
M  V30 88 H 5.1385 -2.55811 -0.303064 0
M  V30 89 H 5.0965 -2.40482 -2.02523 0
M  V30 90 N 8.8686 -0.792821 -1.36206 0
M  V30 91 C 9.7986 -0.207853 -2.32573 0
M  V30 92 C 10.7796 0.659055 -1.56813 0
M  V30 93 O 11.9646 0.592176 -1.84951 0
M  V30 94 C 9.0946 0.655449 -3.41059 0
M  V30 95 C 8.0486 -0.111842 -4.27854 0
M  V30 96 C 7.3746 0.872274 -5.27537 0
M  V30 97 C 8.6746 -1.30299 -5.05786 0
M  V30 98 H 10.3686 -1.01294 -2.81744 0
M  V30 99 H 7.9146 -0.48854 -1.3546 0
M  V30 100 H 9.8676 1.07464 -4.07467 0
M  V30 101 H 8.5916 1.49328 -2.90463 0
M  V30 102 H 7.2506 -0.512053 -3.63006 0
M  V30 103 H 6.8986 1.70523 -4.73214 0
M  V30 104 H 6.5986 0.363291 -5.86476 0
M  V30 105 H 8.1226 1.28996 -5.96818 0
M  V30 106 H 9.5366 -0.959379 -5.65216 0
M  V30 107 H 7.9336 -1.7455 -5.74154 0
M  V30 108 H 9.0036 -2.09663 -4.37229 0
M  V30 109 N 10.3467 1.47872 -0.545128 0
M  V30 110 C 11.7627 1.5829 -0.204032 0
M  V30 111 C 11.9627 1.54529 1.29317 0
M  V30 112 O 11.0187 1.44232 2.07252 0
M  V30 113 C 12.3317 2.89304 -0.819987 0
M  V30 114 C 13.8797 3.02864 -0.790105 0
M  V30 115 C 14.3547 4.3656 -1.38491 0
M  V30 116 N 15.8457 4.43165 -1.34755 0
M  V30 117 C 16.5807 5.45153 -1.77753 0
M  V30 118 N 16.0767 6.54016 -2.2855 0
M  V30 119 N 17.8697 5.36125 -1.68897 0
M  V30 120 H 10.0207 1.4856 -1.51802 0
M  V30 121 H 12.2837 0.706305 -0.632327 0
M  V30 122 H 11.9897 2.97757 -1.87173 0
M  V30 123 H 11.8637 3.75957 -0.305915 0
M  V30 124 H 14.2507 2.94014 0.252913 0
M  V30 125 H 14.3317 2.17782 -1.34181 0
M  V30 126 H 13.9757 4.46164 -2.42693 0
M  V30 127 H 13.9057 5.20353 -0.808754 0
M  V30 128 H 16.3967 3.65083 -0.975855 0
M  V30 129 H 16.7097 7.27994 -2.59314 0
M  V30 130 H 15.0547 6.54938 -2.32553 0
M  V30 131 H 18.2457 4.49975 -1.28998 0
M  V30 132 H 18.4187 6.15472 -2.02726 0
M  V30 133 N 11.8248 0.280983 1.55075 0
M  V30 134 C 12.7548 -0.597469 2.25727 0
M  V30 135 C 13.7358 -1.15417 1.24952 0
M  V30 136 O 14.9208 -1.18722 1.53684 0
M  V30 137 C 12.0508 -1.7789 2.98283 0
M  V30 138 C 11.0048 -1.35347 4.06036 0
M  V30 139 C 10.3308 -2.61846 4.66198 0
M  V30 140 C 11.6308 -0.499354 5.19907 0
M  V30 141 H 13.3248 -0.00824265 2.99399 0
M  V30 142 H 10.8708 -0.0025244 1.44 0
M  V30 143 H 12.8238 -2.39937 3.46422 0
M  V30 144 H 11.5478 -2.39405 2.22155 0
M  V30 145 H 10.2068 -0.756156 3.58717 0
M  V30 146 H 9.8548 -3.21632 3.86732 0
M  V30 147 H 9.5548 -2.3409 5.38958 0
M  V30 148 H 11.0788 -3.24732 5.1709 0
M  V30 149 H 12.4928 -1.02498 5.64063 0
M  V30 150 H 10.8898 -0.316424 5.99265 0
M  V30 151 H 11.9598 0.480459 4.82514 0
M  V30 152 N 13.3029 -1.57598 0.00835791 0
M  V30 153 C 14.5799 -1.82172 -0.712235 0
M  V30 154 C 14.9599 -0.887873 -1.9152 0
M  V30 155 O 14.3079 0.06146 -2.28417 0
M  V30 156 C 14.5179 -3.30875 -1.11008 0
M  V30 157 C 15.8659 -3.96826 -1.51044 0
M  V30 158 O 16.8899 -3.35248 -1.20364 0
M  V30 159 O 15.7489 -5.05318 -2.08125 0
M  V30 160 H 12.8429 -0.750435 -0.347529 0
M  V30 161 H 15.3889 -1.69665 0.0344523 0
M  V30 162 H 14.1609 -3.90481 -0.252982 0
M  V30 163 H 13.7839 -3.48412 -1.9156 0
M  V30 164 N 14.781 0.264519 -1.55364 0
M  V30 165 C 16.029 0.993021 -1.76021 0
M  V30 166 C 16.35 1.86511 -0.569099 0
M  V30 167 O 15.62 1.91438 0.415735 0
M  V30 168 H 14.2 0.369639 -0.649135 0
M  V30 169 H 16.862 0.286707 -1.9278 0
M  V30 170 H 15.958 1.62502 -2.66457 0
M  V30 171 N 16.2591 1.48442 0.529413 0
M  V30 172 C 17.2061 1.63007 1.63394 0
M  V30 173 C 18.1761 0.47212 1.59249 0
M  V30 174 O 19.3611 0.695673 1.77666 0
M  V30 175 C 16.5011 1.6763 3.01653 0
M  V30 176 C 15.6141 2.94535 3.16027 0
M  V30 177 C 14.7491 2.90316 4.44849 0
M  V30 178 C 13.7881 4.11923 4.52754 0
M  V30 179 N 12.9251 4.05777 5.72965 0
M  V30 180 H 17.7651 2.5733 1.50285 0
M  V30 181 H 15.3021 1.27613 0.731656 0
M  V30 182 H 17.2601 1.68292 3.81751 0
M  V30 183 H 15.8901 0.76797 3.13532 0
M  V30 184 H 14.9421 3.03615 2.29177 0
M  V30 185 H 16.2541 3.84512 3.17729 0
M  V30 186 H 15.4081 2.89382 5.33238 0
M  V30 187 H 14.1471 1.98068 4.45668 0
M  V30 188 H 13.1521 4.13131 3.62771 0
M  V30 189 H 14.3771 5.0533 4.53672 0
M  V30 190 H 12.3231 3.16351 5.74681 0
M  V30 191 H 12.2401 4.8946 5.76164 0
M  V30 192 H 13.5081 4.08904 6.6364 0
M  V30 193 N 17.7372 -0.778329 1.37039 0
M  V30 194 C 18.9772 -1.54973 1.33276 0
M  V30 195 C 19.3412 -1.91816 -0.0839376 0
M  V30 196 O 20.5422 -2.6767 -0.246228 0
M  V30 197 C 18.8132 -2.78517 2.23971 0
M  V30 198 S 20.3722 -3.6865 2.37997 0
M  V30 199 H 17.1902 -0.530639 0.473226 0
M  V30 200 H 19.7922 -0.915806 1.72723 0
M  V30 201 H 18.4962 -2.4952 3.25835 0
M  V30 202 H 18.0272 -3.46875 1.85584 0
M  V30 203 H 20.0422 -4.70182 1.58567 0
M  V30 204 N 19.2153 -1.21501 -1.00376 0
M  V30 205 C 20.1783 -0.976927 -2.07337 0
M  V30 206 C 21.1783 0.0525322 -1.60714 0
M  V30 207 O 22.3683 -0.184869 -1.73216 0
M  V30 208 C 19.5003 -0.473423 -3.37597 0
M  V30 209 H 20.6933 -1.92587 -2.29892 0
M  V30 210 H 18.2463 -1.03217 -1.17371 0
M  V30 211 H 18.9813 0.480379 -3.20722 0
M  V30 212 H 18.7663 -1.216 -3.72768 0
M  V30 213 H 20.2563 -0.32675 -4.1632 0
M  V30 214 N 20.6934 1.19889 -1.02296 0
M  V30 215 C 21.9424 1.88743 -0.711257 0
M  V30 216 C 22.2554 1.80112 0.762817 0
M  V30 217 O 23.4614 2.44161 1.18733 0
M  V30 218 C 21.9174 3.38525 -1.22185 0
M  V30 219 C 21.5254 3.55727 -2.72328 0
M  V30 220 C 23.2694 4.12893 -0.985864 0
M  V30 221 C 21.1764 4.99369 -3.16835 0
M  V30 222 H 20.1064 0.706885 -0.262353 0
M  V30 223 H 22.7574 1.35586 -1.23648 0
M  V30 224 H 21.1394 3.91044 -0.624571 0
M  V30 225 H 22.3134 3.13564 -3.3766 0
M  V30 226 H 20.6284 2.94739 -2.9414 0
M  V30 227 H 23.2254 5.18813 -1.29374 0
M  V30 228 H 23.5684 4.16228 0.0775055 0
M  V30 229 H 24.1014 3.66494 -1.54684 0
M  V30 230 H 20.8404 5.01193 -4.22476 0
M  V30 231 H 20.3604 5.42317 -2.56228 0
M  V30 232 H 22.0394 5.67988 -3.09837 0
M  V30 233 N 22.1715 0.800033 1.35784 0
M  V30 234 C 23.4205 0.37387 1.98205 0
M  V30 235 C 23.7335 -1.06302 1.64193 0
M  V30 236 O 24.9395 -1.59198 2.19928 0
M  V30 237 C 23.3955 0.617532 3.54562 0
M  V30 238 C 23.0035 2.06654 3.9749 0
M  V30 239 C 24.7475 0.256401 4.23725 0
M  V30 240 C 22.6545 2.2563 5.46667 0
M  V30 241 H 21.5845 0.136055 0.741623 0
M  V30 242 H 24.2355 0.983166 1.54939 0
M  V30 243 H 22.6175 -0.0616248 3.95952 0
M  V30 244 H 23.7915 2.78296 3.67271 0
M  V30 245 H 22.1065 2.38691 3.41197 0
M  V30 246 H 24.7035 0.376318 5.33374 0
M  V30 247 H 25.0465 -0.796692 4.08606 0
M  V30 248 H 25.5795 0.889214 3.87734 0
M  V30 249 H 22.3185 3.2936 5.66747 0
M  V30 250 H 21.8385 1.58504 5.78478 0
M  V30 251 H 23.5175 2.06861 6.1304 0
M  V30 252 N 23.6496 -1.47581 0.552962 0
M  V30 253 C 24.8776 -2.06875 0.0320556 0
M  V30 254 C 25.2926 -1.40625 -1.25976 0
M  V30 255 O 24.6496 -0.501349 -1.75479 0
M  V30 256 C 24.7006 -3.61092 -0.17167 0
M  V30 257 O 24.4216 -4.24858 1.06899 0
M  V30 258 C 25.9226 -4.37242 -0.730344 0
M  V30 259 H 23.1426 -0.669561 0.043915 0
M  V30 260 H 25.6866 -1.89646 0.765163 0
M  V30 261 H 23.8416 -3.7785 -0.854894 0
M  V30 262 H 24.2556 -5.17334 0.864059 0
M  V30 263 H 25.7296 -5.45842 -0.822203 0
M  V30 264 H 26.2066 -4.03235 -1.74064 0
M  V30 265 H 26.8126 -4.25219 -0.0829543 0
M  V30 266 N 25.1277 -0.289203 -1.54924 0
M  V30 267 C 26.3757 0.322879 -1.99504 0
M  V30 268 C 26.6967 1.55313 -1.1791 0
M  V30 269 O 25.9667 1.94001 -0.272097 0
M  V30 270 H 24.5467 0.122291 -0.736922 0
M  V30 271 H 27.2087 -0.397802 -1.90797 0
M  V30 272 H 26.3047 0.603061 -3.06218 0
M  V30 273 N 26.6058 1.57591 -0.0167156 0
M  V30 274 C 27.5688 2.08393 0.954204 0
M  V30 275 C 28.5688 0.996531 1.26198 0
M  V30 276 O 29.7588 1.25858 1.20438 0
M  V30 277 C 26.8908 2.5394 2.27436 0
M  V30 278 H 28.0838 2.95455 0.514451 0
M  V30 279 H 25.6368 1.54582 0.231089 0
M  V30 280 H 26.3718 1.70171 2.76066 0
M  V30 281 H 26.1568 3.33371 2.06412 0
M  V30 282 H 27.6468 2.93512 2.97053 0
M  V30 283 N 28.0839 -0.256276 1.55502 0
M  V30 284 C 29.3319 -0.983672 1.76545 0
M  V30 285 C 29.6529 -1.86206 0.578982 0
M  V30 286 O 28.9229 -1.91656 -0.405577 0
M  V30 287 H 27.5029 -0.366191 0.651086 0
M  V30 288 H 30.1649 -0.276479 1.92929 0
M  V30 289 H 29.2609 -1.61087 2.67315 0
M  V30 290 N 29.562 -1.4872 -0.521534 0
M  V30 291 C 30.525 -1.63379 -1.60748 0
M  V30 292 C 31.525 -0.50661 -1.52611 0
M  V30 293 O 32.715 -0.772601 -1.5613 0
M  V30 294 C 29.847 -1.61192 -3.00383 0
M  V30 295 H 31.04 -2.60217 -1.49087 0
M  V30 296 H 28.593 -1.37444 -0.744235 0
M  V30 297 H 29.328 -0.65863 -3.17541 0
M  V30 298 H 29.113 -2.43032 -3.07698 0
M  V30 299 H 30.603 -1.7466 -3.7932 0
M  V30 300 N 31.0401 0.771051 -1.3745 0
M  V30 301 C 32.2881 1.52661 -1.32435 0
M  V30 302 C 32.6091 1.9479 0.0905024 0
M  V30 303 O 31.8791 1.66348 1.03466 0
M  V30 304 H 30.4591 0.566218 -0.487244 0
M  V30 305 H 33.1211 0.917636 -1.71946 0
M  V30 306 H 32.2171 2.42568 -1.96385 0
M  V30 307 N 32.5182 1.22032 0.997298 0
M  V30 308 C 33.7672 1.03637 1.73038 0
M  V30 309 C 34.0802 -0.429475 1.90827 0
M  V30 310 O 35.2862 -0.732995 2.61418 0
M  V30 311 C 33.7422 1.80582 3.11317 0
M  V30 312 C 33.3502 3.31387 3.01474 0
M  V30 313 C 35.0942 1.70621 3.88701 0
M  V30 314 C 33.0012 4.00791 4.3488 0
M  V30 315 H 31.9312 0.384179 0.648785 0
M  V30 316 H 34.5822 1.4584 1.11368 0
M  V30 317 H 32.9642 1.31175 3.73643 0
M  V30 318 H 34.1382 3.88155 2.4834 0
M  V30 319 H 32.4532 3.41976 2.37575 0
M  V30 320 H 35.0502 2.19799 4.87434 0
M  V30 321 H 35.3932 0.665823 4.10941 0
M  V30 322 H 35.9262 2.17547 3.33044 0
M  V30 323 H 32.6652 5.05064 4.1784 0
M  V30 324 H 32.1852 3.48811 4.87945 0
M  V30 325 H 33.8642 4.06139 5.03647 0
M  V30 326 N 33.9963 -1.19345 1.0293 0
M  V30 327 C 35.2443 -1.88665 0.724574 0
M  V30 328 C 35.5653 -1.80036 -0.749144 0
M  V30 329 O 34.8353 -1.2111 -1.53978 0
M  V30 330 H 33.4153 -0.698406 0.265025 0
M  V30 331 H 36.0773 -1.44885 1.30362 0
M  V30 332 H 35.1733 -2.94987 1.01926 0
M  V30 333 N 35.4744 -0.807222 -1.35358 0
M  V30 334 C 36.4214 -0.216037 -2.29787 0
M  V30 335 C 37.3914 0.650278 -1.52842 0
M  V30 336 O 38.5764 0.595227 -1.81278 0
M  V30 337 C 35.7164 0.628893 -3.39321 0
M  V30 338 C 34.8294 -0.257927 -4.31229 0
M  V30 339 C 33.9644 0.595069 -5.27856 0
M  V30 340 C 33.0034 -0.292111 -6.11403 0
M  V30 341 N 32.1404 0.520895 -7.00165 0
M  V30 342 H 36.9804 -1.02671 -2.79755 0
M  V30 343 H 34.5174 -0.517839 -1.37684 0
M  V30 344 H 36.4754 1.13393 -4.01494 0
M  V30 345 H 35.1054 1.40482 -2.90628 0
M  V30 346 H 34.1574 -0.881076 -3.70056 0
M  V30 347 H 35.4694 -0.940759 -4.89848 0
M  V30 348 H 34.6234 1.16522 -5.95405 0
M  V30 349 H 33.3624 1.31146 -4.69736 0
M  V30 350 H 32.3674 -0.874525 -5.428 0
M  V30 351 H 33.5924 -1.00638 -6.71602 0
M  V30 352 H 31.5384 1.22125 -6.44532 0
M  V30 353 H 31.4554 -0.103877 -7.55929 0
M  V30 354 H 32.7234 1.0743 -7.72062 0
M  V30 355 N 36.9525 1.47285 -0.560781 0
M  V30 356 C 37.8625 2.33846 0.187954 0
M  V30 357 C 38.8785 1.48412 0.908293 0
M  V30 358 O 40.0545 1.81332 0.876388 0
M  V30 359 C 37.1195 3.25178 1.2025 0
M  V30 360 C 36.1805 4.26504 0.489208 0
M  V30 361 C 35.4135 5.13472 1.45542 0
M  V30 362 O 35.6365 5.02959 2.6905 0
M  V30 363 O 34.5705 5.93902 0.977963 0
M  V30 364 H 38.3965 2.99177 -0.522177 0
M  V30 365 H 35.9815 1.45903 -0.321364 0
M  V30 366 H 37.8635 3.81584 1.78805 0
M  V30 367 H 36.5385 2.6247 1.89449 0
M  V30 368 H 35.4455 3.73847 -0.137627 0
M  V30 369 H 36.7785 4.91935 -0.161399 0
M  V30 370 N 38.4306 0.297415 1.54768 0
M  V30 371 C 39.6796 -0.313669 1.99246 0
M  V30 372 C 39.9926 -1.55281 1.18942 0
M  V30 373 O 41.1986 -2.23825 1.5367 0
M  V30 374 C 39.6546 -0.609407 3.54703 0
M  V30 375 C 39.2626 0.611192 4.43811 0
M  V30 376 C 41.0066 -1.18188 4.07715 0
M  V30 377 C 38.9136 0.288805 5.90694 0
M  V30 378 H 37.8436 -0.120979 0.744231 0
M  V30 379 H 40.4946 0.40556 1.78962 0
M  V30 380 H 38.8766 -1.38813 3.70873 0
M  V30 381 H 40.0506 1.3875 4.39414 0
M  V30 382 H 38.3656 1.10205 4.01552 0
M  V30 383 H 40.9626 -1.43727 5.15021 0
M  V30 384 H 41.3056 -2.12299 3.58099 0
M  V30 385 H 41.8386 -0.464944 3.95074 0
M  V30 386 H 38.5776 1.19838 6.44453 0
M  V30 387 H 38.0976 -0.450305 5.98107 0
M  V30 388 H 39.7766 -0.110933 6.46905 0
M  V30 389 N 39.9087 -1.5758 0.0250728 0
M  V30 390 C 40.8717 -2.08896 -0.943139 0
M  V30 391 C 41.8717 -1.00321 -1.25668 0
M  V30 392 O 43.0617 -1.26495 -1.19769 0
M  V30 393 C 40.1937 -2.55143 -2.26086 0
M  V30 394 H 41.3867 -2.95723 -0.498775 0
M  V30 395 H 38.9397 -1.54703 -0.222888 0
M  V30 396 H 39.6747 -1.71633 -2.75159 0
M  V30 397 H 39.4597 -3.34461 -2.04641 0
M  V30 398 H 40.9497 -2.95083 -2.95492 0
M  V30 399 N 41.3868 0.248026 -1.55636 0
M  V30 400 C 42.6358 0.974134 -1.76617 0
M  V30 401 C 42.9488 1.86528 -0.588796 0
M  V30 402 O 44.1548 2.62805 -0.681594 0
M  V30 403 C 42.6108 1.78213 -3.12679 0
M  V30 404 C 42.2188 0.93843 -4.38061 0
M  V30 405 C 43.9628 2.50104 -3.42999 0
M  V30 406 C 41.8698 1.74225 -5.65155 0
M  V30 407 H 40.7998 0.36745 -0.658405 0
M  V30 408 H 43.4508 0.22884 -1.82067 0
M  V30 409 H 41.8328 2.56933 -3.01333 0
M  V30 410 H 43.0068 0.193635 -4.60393 0
M  V30 411 H 41.3218 0.332905 -4.15067 0
M  V30 412 H 43.9188 3.10694 -4.3517 0
M  V30 413 H 44.2618 3.21662 -2.64271 0
M  V30 414 H 44.7948 1.78395 -3.55556 0
M  V30 415 H 41.5338 1.07043 -6.46701 0
M  V30 416 H 41.0538 2.46235 -5.46926 0
M  V30 417 H 42.7328 2.30967 -6.0437 0
M  V30 418 N 42.8649 1.48995 0.513639 0
M  V30 419 C 44.0929 1.61531 1.29288 0
M  V30 420 C 44.5079 0.281801 1.86685 0
M  V30 421 O 43.8649 -0.731111 1.67215 0
M  V30 422 C 43.9159 2.67449 2.43215 0
M  V30 423 O 43.6369 3.95626 1.88179 0
M  V30 424 C 45.1379 2.90575 3.34785 0
M  V30 425 H 42.3579 0.544165 0.392588 0
M  V30 426 H 44.9019 1.9494 0.617956 0
M  V30 427 H 43.0569 2.36853 3.0656 0
M  V30 428 H 43.4709 4.53868 2.62876 0
M  V30 429 H 44.9449 3.68449 4.11035 0
M  V30 430 H 45.4219 2.00011 3.91015 0
M  V30 431 H 46.0279 3.22538 2.77218 0
M  V30 432 N 44.343 -0.763751 1.37857 0
M  V30 433 C 45.59 -1.52257 1.33506 0
M  V30 434 C 45.918 -1.94343 -0.078022 0
M  V30 435 O 45.173 -1.64958 -1.05297 0
M  V30 436 C 45.472 -2.79499 2.22745 0
M  V30 437 C 45.138 -2.56426 3.70886 0
M  V30 438 C 43.8 -2.49842 4.11257 0
M  V30 439 C 46.152 -2.36008 4.64704 0
M  V30 440 C 43.48 -2.20841 5.43549 0
M  V30 441 C 45.832 -2.0853 5.97242 0
M  V30 442 C 44.496 -2.00396 6.36709 0
M  V30 443 H 43.766 -0.557149 0.488534 0
M  V30 444 H 46.413 -0.879073 1.70131 0
M  V30 445 H 44.718 -3.48447 1.79142 0
M  V30 446 H 46.415 -3.37413 2.16688 0
M  V30 447 H 43.005 -2.62416 3.38874 0
M  V30 448 H 47.189 -2.40079 4.34368 0
M  V30 449 H 42.445 -2.13045 5.73081 0
M  V30 450 H 46.619 -1.91732 6.69486 0
M  V30 451 H 44.246 -1.77688 7.39142 0
M  V30 452 N 45.8211 -1.22559 -0.990812 0
M  V30 453 C 46.7841 -0.998863 -2.0629 0
M  V30 454 C 47.7841 0.0354834 -1.60761 0
M  V30 455 O 48.9741 -0.203231 -1.7301 0
M  V30 456 C 46.1061 -0.509203 -3.37076 0
M  V30 457 H 47.2991 -1.95014 -2.27837 0
M  V30 458 H 44.8521 -1.04456 -1.16269 0
M  V30 459 H 45.5871 0.446335 -3.21214 0
M  V30 460 H 45.3721 -1.25547 -3.71457 0
M  V30 461 H 46.8621 -0.370888 -4.1595 0
M  V30 462 N 47.2992 1.18797 -1.03562 0
M  V30 463 C 48.5272 1.92599 -0.755869 0
M  V30 464 C 48.9422 1.75886 0.686271 0
M  V30 465 O 48.2992 1.08517 1.46732 0
M  V30 466 C 48.3502 3.44159 -1.10619 0
M  V30 467 O 48.0712 3.60341 -2.4917 0
M  V30 468 C 49.5722 4.3507 -0.850214 0
M  V30 469 H 46.7922 0.611587 -0.276048 0
M  V30 470 H 49.3362 1.50742 -1.38192 0
M  V30 471 H 47.4912 3.83823 -0.525194 0
M  V30 472 H 47.9052 4.54128 -2.62427 0
M  V30 473 H 49.3792 5.39989 -1.14523 0
M  V30 474 H 49.8562 4.38673 0.215176 0
M  V30 475 H 50.4622 4.01097 -1.41426 0
M  V30 476 N 48.7773 0.814389 1.34928 0
M  V30 477 C 49.7403 0.235759 2.27984 0
M  V30 478 C 50.7403 -0.581412 1.49921 0
M  V30 479 O 51.9303 -0.398758 1.69575 0
M  V30 480 C 49.0623 -0.670433 3.34242 0
M  V30 481 H 50.2553 1.05659 2.80671 0
M  V30 482 H 47.8083 0.585614 1.44915 0
M  V30 483 H 48.5433 -1.51466 2.86755 0
M  V30 484 H 48.3283 -0.0860822 3.92005 0
M  V30 485 H 49.8183 -1.06935 4.03676 0
M  V30 486 N 50.2554 -1.46986 0.568584 0
M  V30 487 C 51.5034 -2.02041 0.0487022 0
M  V30 488 C 51.8244 -1.44408 -1.31039 0
M  V30 489 O 51.0944 -0.623477 -1.85714 0
M  V30 490 H 49.6744 -0.746849 0.015014 0
M  V30 491 H 52.3364 -1.80257 0.741168 0
M  V30 492 H 51.4324 -3.12085 -0.0308961 0
M  V30 493 N 51.7335 -0.305618 -1.54608 0
M  V30 494 C 52.6965 0.555591 -2.22364 0
M  V30 495 C 53.6965 1.05768 -1.21119 0
M  V30 496 O 54.8865 0.952972 -1.45822 0
M  V30 497 C 52.0185 1.76974 -2.91364 0
M  V30 498 H 53.2115 -0.0364572 -2.99878 0
M  V30 499 H 50.7645 -0.0565007 -1.56198 0
M  V30 500 H 51.4995 2.40151 -2.17941 0
M  V30 501 H 51.2845 1.41732 -3.65588 0
M  V30 502 H 52.7745 2.38148 -3.43038 0
M  V30 503 N 53.2116 1.57565 -0.0334293 0
M  V30 504 C 54.4366 1.96689 0.657895 0
M  V30 505 C 54.8616 0.910057 1.64619 0
M  V30 506 O 54.2196 -0.128598 1.80843 0
M  V30 507 C 54.2676 3.34905 1.33683 0
M  V30 508 O 53.3716 3.31574 2.45219 0
M  V30 509 H 52.7126 0.641205 0.172489 0
M  V30 510 H 55.2426 2.04372 -0.0965621 0
M  V30 511 H 55.2526 3.71234 1.69262 0
M  V30 512 H 53.9276 4.11366 0.612411 0
M  V30 513 H 52.5046 3.06968 2.11719 0
M  V30 514 N 54.6897 -0.239769 1.55765 0
M  V30 515 C 55.9357 -0.968234 1.78194 0
M  V30 516 C 56.2687 -1.84701 0.599938 0
M  V30 517 O 55.5437 -1.9031 -0.401524 0
M  V30 518 C 55.8267 -1.8227 3.10564 0
M  V30 519 C 55.6797 -0.971633 4.3918 0
M  V30 520 C 56.9987 -2.80388 3.39221 0
M  V30 521 H 54.1177 -0.350572 0.648281 0
M  V30 522 H 56.7597 -0.238259 1.885 0
M  V30 523 H 54.9097 -2.44507 3.01908 0
M  V30 524 H 56.5817 -0.367408 4.59835 0
M  V30 525 H 54.8247 -0.276276 4.32919 0
M  V30 526 H 55.4957 -1.60346 5.28198 0
M  V30 527 H 57.9717 -2.28287 3.47885 0
M  V30 528 H 56.8477 -3.3729 4.33044 0
M  V30 529 H 57.1087 -3.57212 2.60484 0
M  V30 530 N 56.1678 -1.49265 -0.50573 0
M  V30 531 C 57.4138 -1.58748 -1.26202 0
M  V30 532 C 57.7468 -0.271227 -1.92297 0
M  V30 533 O 57.0218 0.724831 -1.80489 0
M  V30 534 C 57.3048 -2.74332 -2.33268 0
M  V30 535 C 57.1578 -4.15737 -1.71705 0
M  V30 536 C 58.4768 -2.85576 -3.34865 0
M  V30 537 H 55.5958 -0.577826 -0.457478 0
M  V30 538 H 58.2378 -1.81532 -0.560897 0
M  V30 539 H 56.3878 -2.55036 -2.93068 0
M  V30 540 H 58.0598 -4.46537 -1.15769 0
M  V30 541 H 56.3028 -4.21605 -1.02135 0
M  V30 542 H 56.9738 -4.92477 -2.49341 0
M  V30 543 H 59.4498 -3.03127 -2.8505 0
M  V30 544 H 58.3258 -3.68135 -4.07146 0
M  V30 545 H 58.5868 -1.94732 -3.96903 0
M  V30 546 N 57.6459 0.756429 -1.3826 0
M  V30 547 C 58.8919 1.51772 -1.34511 0
M  V30 548 C 59.2249 1.94089 0.0656691 0
M  V30 549 O 58.4999 1.65221 1.02626 0
M  V30 550 C 58.7829 2.77226 -2.29821 0
M  V30 551 C 58.6359 2.41065 -3.79747 0
M  V30 552 C 59.9549 3.79236 -2.23312 0
M  V30 553 H 57.0739 0.550578 -0.489931 0
M  V30 554 H 59.7159 0.866607 -1.69086 0
M  V30 555 H 57.8659 3.32784 -2.00467 0
M  V30 556 H 59.5379 1.91303 -4.19763 0
M  V30 557 H 57.7809 1.7356 -3.97567 0
M  V30 558 H 58.4519 3.3081 -4.41892 0
M  V30 559 H 60.9279 3.3321 -2.49219 0
M  V30 560 H 59.8039 4.64714 -2.92116 0
M  V30 561 H 60.0649 4.24615 -1.23102 0
M  V30 562 N 59.124 1.23083 0.984299 0
M  V30 563 C 60.349 1.088 1.76571 0
M  V30 564 C 60.774 -0.356657 1.84688 0
M  V30 565 O 60.132 -1.25788 1.30565 0
M  V30 566 C 60.18 1.71371 3.17277 0
M  V30 567 O 59.284 0.973213 4.00752 0
M  V30 568 H 58.625 0.381599 0.543395 0
M  V30 569 H 61.155 1.63057 1.23587 0
M  V30 570 H 61.165 1.76449 3.67872 0
M  V30 571 H 59.84 2.76493 3.10684 0
M  V30 572 H 58.417 0.999078 3.59267 0
M  V30 573 N 60.6021 -1.18246 1.0419 0
M  V30 574 C 61.8791 -1.84121 0.660208 0
M  V30 575 C 62.2591 -1.92778 -0.860221 0
M  V30 576 O 61.6071 -1.45464 -1.76217 0
M  V30 577 C 61.8171 -3.22355 1.33747 0
M  V30 578 C 63.1651 -3.98376 1.46906 0
M  V30 579 O 64.1891 -3.31799 1.29568 0
M  V30 580 O 63.0481 -5.17665 1.75171 0
M  V30 581 H 60.1421 -0.794036 0.231161 0
M  V30 582 H 62.6881 -1.25628 1.14087 0
M  V30 583 H 61.4601 -3.10964 2.37522 0
M  V30 584 H 61.0831 -3.88506 0.845515 0
M  V30 585 N 62.0802 -0.821533 -1.34494 0
M  V30 586 C 63.3292 -0.405355 -1.97585 0
M  V30 587 C 63.6422 1.03677 -1.65863 0
M  V30 588 O 64.8482 1.55679 -2.22433 0
M  V30 589 C 63.3042 -0.673861 -3.53535 0
M  V30 590 C 62.9122 -2.12951 -3.94152 0
M  V30 591 C 64.6562 -0.32378 -4.23263 0
M  V30 592 C 62.5632 -2.34298 -5.43009 0
M  V30 593 H 61.4932 -0.147836 -0.739365 0
M  V30 594 H 64.1442 -1.00769 -1.53355 0
M  V30 595 H 62.5262 -0.00137554 -3.96 0
M  V30 596 H 63.7002 -2.84104 -3.62797 0
M  V30 597 H 62.0152 -2.44089 -3.37356 0
M  V30 598 H 64.6122 -0.461126 -5.32708 0
M  V30 599 H 64.9552 0.731586 -4.09821 0
M  V30 600 H 65.4882 -0.950786 -3.8627 0
M  V30 601 H 62.2272 -3.38335 -5.61435 0
M  V30 602 H 61.7472 -1.67687 -5.75883 0
M  V30 603 H 63.4262 -2.16588 -6.09671 0
M  V30 604 N 63.5583 1.46682 -0.576371 0
M  V30 605 C 64.5063 2.31953 0.17335 0
M  V30 606 C 65.5003 1.44098 0.89062 0
M  V30 607 O 66.7063 1.60759 0.809728 0
M  V30 608 H 63.0813 0.748273 0.0747727 0
M  V30 609 H 65.0523 2.93007 -0.564738 0
M  V30 610 C 63.8013 3.27142 1.17786 0
M  V30 611 H 63.1243 3.94719 0.635361 0
M  V30 612 H 64.5643 3.896 1.67296 0
M  V30 613 C 63.0233 2.52036 2.23561 0
M  V30 614 O 63.5533 2.27877 3.3081 0
M  V30 615 N 61.7593 2.12709 1.97998 0
M  V30 616 H 61.3063 2.32557 1.10792 0
M  V30 617 H 61.2643 1.62776 2.68982 0
M  V30 618 N 65.0364 0.313813 1.54444 0
M  V30 619 C 65.9994 -0.54379 2.22656 0
M  V30 620 C 66.9994 -1.05124 1.21678 0
M  V30 621 O 68.1894 -0.945225 1.46325 0
M  V30 622 C 65.3214 -1.75427 2.92298 0
M  V30 623 H 66.5144 0.0523599 2.99854 0
M  V30 624 H 64.0674 0.0647834 1.56166 0
M  V30 625 H 64.8024 -2.38991 2.19211 0
M  V30 626 H 64.5874 -1.39791 3.66334 0
M  V30 627 H 66.0774 -2.36325 3.44297 0
M  V30 628 N 66.5145 -1.57545 0.0417849 0
M  V30 629 C 67.7915 -1.83642 -0.673433 0
M  V30 630 C 68.1715 -0.928298 -1.89594 0
M  V30 631 O 67.5195 0.0129955 -2.28496 0
M  V30 632 C 67.7295 -3.33155 -1.03964 0
M  V30 633 C 69.0775 -3.99941 -1.42592 0
M  V30 634 O 70.1015 -3.37725 -1.13226 0
M  V30 635 O 68.9605 -5.09619 -1.9736 0
M  V30 636 H 66.0545 -0.757638 -0.331533 0
M  V30 637 H 68.6005 -1.69554 0.070433 0
M  V30 638 H 67.3725 -3.9093 -0.170098 0
M  V30 639 H 66.9955 -3.52396 -1.84126 0
M  V30 640 N 67.9926 0.231505 -1.5589 0
M  V30 641 C 68.9556 1.27028 -1.90779 0
M  V30 642 C 69.9556 1.40308 -0.785507 0
M  V30 643 O 71.1456 1.38744 -1.05336 0
M  V30 644 C 68.2776 2.64566 -2.14983 0
M  V30 645 H 69.4706 0.973017 -2.83677 0
M  V30 646 H 67.0236 0.471486 -1.49019 0
M  V30 647 H 67.7586 2.99406 -1.24604 0
M  V30 648 H 67.5436 2.56305 -2.96732 0
M  V30 649 H 69.0336 3.39543 -2.43105 0
M  V30 650 N 69.4707 1.49531 0.497807 0
M  V30 651 C 70.4337 1.65916 1.58128 0
M  V30 652 C 71.4337 0.530825 1.51786 0
M  V30 653 O 72.6237 0.797342 1.54881 0
M  V30 654 C 69.7557 1.65951 2.9778 0
M  V30 655 H 70.9487 2.62556 1.44929 0
M  V30 656 H 68.5017 1.38611 0.722275 0
M  V30 657 H 69.2367 0.709065 3.16453 0
M  V30 658 H 69.0217 2.47897 3.03792 0
M  V30 659 H 70.5117 1.80673 3.76493 0
M  V30 660 N 70.9488 -0.749086 1.3866 0
M  V30 661 C 71.8968 -1.88428 1.36373 0
M  V30 662 C 72.8908 -1.67561 0.248929 0
M  V30 663 O 74.0968 -1.75074 0.41821 0
M  V30 664 H 70.4718 -0.620023 0.42553 0
M  V30 665 H 72.4428 -1.87473 2.32156 0
M  V30 666 C 71.1918 -3.25961 1.21014 0
M  V30 667 H 70.5148 -3.42607 2.06059 0
M  V30 668 H 71.9548 -4.05625 1.23469 0
M  V30 669 C 70.4138 -3.36799 -0.0825941 0
M  V30 670 O 70.9438 -3.87517 -1.05797 0
M  V30 671 N 69.1498 -2.90258 -0.140939 0
M  V30 672 H 68.6968 -2.49174 0.653477 0
M  V30 673 H 68.6548 -2.97889 -1.00545 0
M  V30 674 N 72.4269 -1.23603 -0.977757 0
M  V30 675 C 73.3769 -0.986664 -2.05545 0
M  V30 676 C 74.3609 0.0683009 -1.60755 0
M  V30 677 O 75.5529 -0.144162 -1.76412 0
M  V30 678 C 72.6819 -0.582623 -3.3832 0
M  V30 679 C 71.7679 -1.67313 -3.89701 0
M  V30 680 N 72.1589 -2.90394 -4.14132 0
M  V30 681 C 70.4569 -1.54832 -4.18262 0
M  V30 682 C 71.1579 -3.61017 -4.56116 0
M  V30 683 N 70.1339 -2.8854 -4.60701 0
M  V30 684 H 73.9359 -1.92139 -2.22396 0
M  V30 685 H 71.4499 -1.1358 -1.16074 0
M  V30 686 H 73.4469 -0.38524 -4.15116 0
M  V30 687 H 72.1069 0.34503 -3.22862 0
M  V30 688 H 73.1179 -3.26673 -4.01877 0
M  V30 689 H 69.7949 -0.687969 -4.11793 0
M  V30 690 H 71.1849 -4.66544 -4.83514 0
M  V30 691 N 73.905 1.17692 -1.04816 0
M  V30 692 C 75.151 1.88137 -0.75711 0
M  V30 693 C 75.484 1.80604 0.713841 0
M  V30 694 O 74.759 1.21146 1.52164 0
M  V30 695 C 75.042 3.38318 -1.2334 0
M  V30 696 C 74.895 3.54622 -2.76701 0
M  V30 697 C 76.214 4.32214 -0.829415 0
M  V30 698 H 73.333 0.683163 -0.27651 0
M  V30 699 H 75.975 1.38424 -1.30149 0
M  V30 700 H 74.125 3.80787 -0.770286 0
M  V30 701 H 75.797 3.21194 -3.31107 0
M  V30 702 H 74.04 2.97026 -3.16161 0
M  V30 703 H 74.711 4.60028 -3.05088 0
M  V30 704 H 77.187 3.97565 -1.22805 0
M  V30 705 H 76.063 5.35838 -1.19033 0
M  V30 706 H 76.324 4.41294 0.266891 0
M  V30 707 N 75.3831 0.828654 1.34056 0
M  V30 708 C 76.6291 0.42008 1.98402 0
M  V30 709 C 76.9621 -1.01564 1.65525 0
M  V30 710 O 76.2371 -1.70834 0.929831 0
M  V30 711 C 76.5201 0.62927 3.54559 0
M  V30 712 C 76.3731 2.11152 3.97159 0
M  V30 713 C 77.6921 0.0688756 4.40046 0
M  V30 714 H 74.8111 0.154104 0.720709 0
M  V30 715 H 77.4531 1.04228 1.5886 0
M  V30 716 H 75.6031 0.0996418 3.88372 0
M  V30 717 H 77.2751 2.70522 3.73651 0
M  V30 718 H 75.5181 2.59985 3.47261 0
M  V30 719 H 76.1891 2.20868 5.05887 0
M  V30 720 H 78.6651 0.521458 4.1282 0
M  V30 721 H 77.5411 0.245006 5.48353 0
M  V30 722 H 77.8021 -1.0266 4.30015 0
M  V30 723 N 76.8612 -1.46375 0.584142 0
M  V30 724 C 78.1382 -1.956 0.0033388 0
M  V30 725 C 78.5182 -1.52679 -1.45782 0
M  V30 726 O 77.8662 -0.77816 -2.14842 0
M  V30 727 C 78.0762 -3.48551 0.176891 0
M  V30 728 C 79.4242 -4.24576 0.0454609 0
M  V30 729 O 80.4482 -3.56043 0.105801 0
M  V30 730 O 79.3072 -5.46427 -0.0890376 0
M  V30 731 H 76.4012 -0.825547 -0.0490066 0
M  V30 732 H 78.9472 -1.56652 0.65256 0
M  V30 733 H 77.7192 -3.72683 1.1926 0
M  V30 734 H 77.3422 -3.94332 -0.508695 0
M  V30 735 N 78.3393 -0.321999 -1.54275 0
M  V30 736 C 79.2493 0.553631 -2.27974 0
M  V30 737 C 80.2653 1.13054 -1.32268 0
M  V30 738 O 81.4413 1.15084 -1.6528 0
M  V30 739 C 78.5063 1.69927 -3.02201 0
M  V30 740 C 77.5673 1.15433 -4.1349 0
M  V30 741 C 76.8003 2.24537 -4.84168 0
M  V30 742 O 77.0233 3.44852 -4.5435 0
M  V30 743 O 75.9573 1.90044 -5.7111 0
M  V30 744 H 79.7833 -0.0448345 -3.03667 0
M  V30 745 H 77.3683 -0.0877418 -1.49142 0
M  V30 746 H 79.2503 2.3663 -3.48689 0
M  V30 747 H 77.9253 2.28395 -2.29385 0
M  V30 748 H 76.8323 0.452436 -3.71354 0
M  V30 749 H 78.1653 0.614805 -4.88345 0
M  V30 750 N 79.8174 1.5752 -0.0501392 0
M  V30 751 C 81.0664 1.91827 0.623328 0
M  V30 752 C 81.3794 0.930222 1.72065 0
M  V30 753 O 82.5854 1.1653 2.4522 0
M  V30 754 C 81.0414 3.40692 1.16003 0
M  V30 755 C 80.6494 4.479 0.0948811 0
M  V30 756 C 82.3934 3.84034 1.80881 0
M  V30 757 C 80.3004 5.87879 0.644411 0
M  V30 758 H 79.2304 0.715918 0.236596 0
M  V30 759 H 81.8814 1.83115 -0.118861 0
M  V30 760 H 80.2634 3.44405 1.9545 0
M  V30 761 H 81.4374 4.55775 -0.678675 0
M  V30 762 H 79.7524 4.13892 -0.45637 0
M  V30 763 H 82.3494 4.85984 2.22988 0
M  V30 764 H 82.6924 3.20225 2.6601 0
M  V30 765 H 83.2254 3.82833 1.0809 0
M  V30 766 H 79.9644 6.55282 -0.169229 0
M  V30 767 H 79.4844 5.83567 1.38598 0
M  V30 768 H 81.1634 6.37098 1.12763 0
M  V30 769 N 81.2955 -0.223234 1.56011 0
M  V30 770 C 82.2275 -1.30006 1.88762 0
M  V30 771 C 83.2405 -1.43129 0.775746 0
M  V30 772 O 84.4295 -1.44057 1.05403 0
M  V30 773 C 81.5295 -2.67589 2.07965 0
M  V30 774 C 80.7025 -2.76434 3.38973 0
M  V30 775 C 79.7615 -3.95019 3.47629 0
M  V30 776 O 78.7875 -3.83436 4.20672 0
M  V30 777 N 79.9895 -5.09249 2.78649 0
M  V30 778 H 82.7545 -1.02238 2.81722 0
M  V30 779 H 80.3155 -0.413278 1.56536 0
M  V30 780 H 82.3075 -3.45297 2.11073 0
M  V30 781 H 80.8775 -2.87964 1.21638 0
M  V30 782 H 80.0975 -1.85216 3.47978 0
M  V30 783 H 81.3855 -2.79313 4.25278 0
M  V30 784 H 80.7835 -5.21556 2.19081 0
M  V30 785 H 79.3405 -5.85007 2.8742 0
M  V30 786 N 82.7736 -1.49793 -0.48987 0
M  V30 787 C 83.7056 -1.63413 -1.60713 0
M  V30 788 C 84.7186 -0.516329 -1.54395 0
M  V30 789 O 85.9076 -0.788812 -1.60125 0
M  V30 790 C 83.0076 -1.58516 -2.99543 0
M  V30 791 C 82.1806 -2.86016 -3.30928 0
M  V30 792 C 81.2396 -2.74018 -4.49222 0
M  V30 793 O 80.2656 -3.47964 -4.50455 0
M  V30 794 N 81.4676 -1.86309 -5.4979 0
M  V30 795 H 84.2326 -2.59777 -1.49452 0
M  V30 796 H 81.7936 -1.47022 -0.677955 0
M  V30 797 H 83.7856 -1.48128 -3.76617 0
M  V30 798 H 82.3556 -0.69965 -3.0467 0
M  V30 799 H 81.5756 -3.10672 -2.42645 0
M  V30 800 H 82.8636 -3.70521 -3.487 0
M  V30 801 H 82.2616 -1.2551 -5.51601 0
M  V30 802 H 80.8186 -1.81837 -6.25922 0
M  V30 803 N 84.2517 0.741722 -1.39055 0
M  V30 804 C 85.1817 1.869 -1.39966 0
M  V30 805 C 86.1627 1.6804 -0.26392 0
M  V30 806 O 87.3477 1.88458 -0.468755 0
M  V30 807 C 84.4777 3.24572 -1.23574 0
M  V30 808 C 83.4317 3.58056 -2.34477 0
M  V30 809 C 82.7577 4.94593 -2.0318 0
M  V30 810 C 84.0577 3.61716 -3.76774 0
M  V30 811 H 85.7517 1.86395 -2.34302 0
M  V30 812 H 83.2977 0.895361 -1.1278 0
M  V30 813 H 85.2507 4.031 -1.22834 0
M  V30 814 H 83.9747 3.25587 -0.257045 0
M  V30 815 H 82.6337 2.81854 -2.34423 0
M  V30 816 H 82.2817 4.92181 -1.03765 0
M  V30 817 H 81.9817 5.17964 -2.77465 0
M  V30 818 H 83.5057 5.75486 -2.04079 0
M  V30 819 H 84.9197 4.30335 -3.78794 0
M  V30 820 H 83.3167 3.96603 -4.50362 0
M  V30 821 H 84.3867 2.61672 -4.08235 0
M  V30 822 N 85.7298 1.2412 0.971189 0
M  V30 823 C 86.9778 1.07668 1.71032 0
M  V30 824 C 87.2988 -0.385797 1.91146 0
M  V30 825 O 86.5688 -1.27569 1.4867 0
M  V30 826 H 85.1488 0.395429 0.633755 0
M  V30 827 H 87.8108 1.55984 1.16855 0
M  V30 828 H 86.9068 1.57195 2.69622 0
M  V30 829 N 87.2079 -1.17134 1.05439 0
M  V30 830 C 88.4559 -1.87085 0.764429 0
M  V30 831 C 88.7769 -1.81584 -0.710787 0
M  V30 832 O 88.0469 -1.24349 -1.51374 0
M  V30 833 H 86.6269 -0.692627 0.279779 0
M  V30 834 H 89.2889 -1.42087 1.33406 0
M  V30 835 H 88.3849 -2.92759 1.0816 0
M  V30 836 N 88.686 -0.835752 -1.33615 0
M  V30 837 C 89.618 -0.224151 -2.28101 0
M  V30 838 C 90.631 0.593331 -1.51603 0
M  V30 839 O 91.82 0.420911 -1.73466 0
M  V30 840 C 88.92 0.703309 -3.31522 0
M  V30 841 C 88.093 -0.0741528 -4.37337 0
M  V30 842 C 87.152 0.776176 -5.20444 0
M  V30 843 O 86.178 0.216506 -5.68788 0
M  V30 844 N 87.38 2.09401 -5.41416 0
M  V30 845 H 90.145 -1.03598 -2.81225 0
M  V30 846 H 87.706 -0.69392 -1.46275 0
M  V30 847 H 89.698 1.27707 -3.84022 0
M  V30 848 H 88.268 1.41585 -2.78698 0
M  V30 849 H 87.488 -0.82928 -3.85378 0
M  V30 850 H 88.776 -0.608863 -5.05144 0
M  V30 851 H 88.174 2.57229 -5.03835 0
M  V30 852 H 86.731 2.61633 -5.96985 0
M  V30 853 N 90.1641 1.46063 -0.591896 0
M  V30 854 C 91.1271 2.28854 0.125973 0
M  V30 855 C 92.1271 1.38903 0.810107 0
M  V30 856 O 93.3171 1.61186 0.66066 0
M  V30 857 C 90.4491 3.19526 1.1881 0
M  V30 858 H 91.6421 2.93802 -0.601717 0
M  V30 859 H 89.1951 1.52325 -0.350254 0
M  V30 860 H 89.9301 2.59345 1.94707 0
M  V30 861 H 89.7151 3.85766 0.701936 0
M  V30 862 H 91.2051 3.81817 1.69132 0
M  V30 863 N 91.6422 0.330177 1.54103 0
M  V30 864 C 92.8892 -0.270405 2.00686 0
M  V30 865 C 93.2172 -1.51621 1.21825 0
M  V30 866 O 92.4722 -1.93536 0.29025 0
M  V30 867 C 92.7712 -0.643134 3.51566 0
M  V30 868 C 92.4372 0.504251 4.48072 0
M  V30 869 C 91.0992 0.819163 4.74176 0
M  V30 870 C 93.4512 1.27465 5.05373 0
M  V30 871 C 90.7792 1.90708 5.5484 0
M  V30 872 C 93.1312 2.35271 5.87223 0
M  V30 873 C 91.7952 2.67336 6.11627 0
M  V30 874 H 91.0652 -0.0989482 0.734364 0
M  V30 875 H 93.7122 0.455324 1.86008 0
M  V30 876 H 92.0172 -1.44938 3.64006 0
M  V30 877 H 93.7142 -1.11949 3.85056 0
M  V30 878 H 90.3042 0.248733 4.27878 0
M  V30 879 H 94.4882 1.04462 4.85182 0
M  V30 880 H 89.7442 2.15991 5.71977 0
M  V30 881 H 93.9182 2.95405 6.30641 0
M  V30 882 H 91.5452 3.51763 6.73919 0
M  V30 883 N 93.1203 -1.57491 0.0584922 0
M  V30 884 C 94.0833 -2.1085 -0.898617 0
M  V30 885 C 95.0833 -1.02964 -1.23511 0
M  V30 886 O 96.2733 -1.29007 -1.17059 0
M  V30 887 C 93.4053 -2.59881 -2.20623 0
M  V30 888 H 94.5983 -2.96715 -0.435936 0
M  V30 889 H 92.1513 -1.55141 -0.190023 0
M  V30 890 H 92.8863 -1.77431 -2.71457 0
M  V30 891 H 92.6713 -3.38727 -1.97501 0
M  V30 892 H 94.1613 -3.01285 -2.89166 0
M  V30 893 N 94.5984 0.214957 -1.56127 0
M  V30 894 C 95.8384 0.945364 -1.81224 0
M  V30 895 C 96.2024 1.81265 -0.633005 0
M  V30 896 O 97.4034 2.57731 -0.763423 0
M  V30 897 C 95.6744 1.75665 -3.1125 0
M  V30 898 S 97.2334 2.54179 -3.57685 0
M  V30 899 H 94.0514 0.317443 -0.6362 0
M  V30 900 H 96.6534 0.210381 -1.94365 0
M  V30 901 H 95.3574 1.10977 -3.9511 0
M  V30 902 H 94.8884 2.53381 -3.00934 0
M  V30 903 H 96.9034 3.7792 -3.21545 0
M  V30 904 N 96.0765 1.50051 0.48192 0
M  V30 905 C 97.4925 1.37237 0.814756 0
M  V30 906 C 97.6925 0.420109 1.97072 0
M  V30 907 O 96.7485 -0.141246 2.52105 0
M  V30 908 C 98.0615 2.78375 1.13701 0
M  V30 909 C 99.6095 2.87213 1.2441 0
M  V30 910 C 100.084 4.29161 1.59954 0
M  V30 911 N 101.575 4.32061 1.66967 0
M  V30 912 C 102.31 5.38879 1.95952 0
M  V30 913 N 101.806 6.55918 2.23031 0
M  V30 914 N 103.599 5.26312 1.97363 0
M  V30 915 H 95.7505 2.10546 -0.28005 0
M  V30 916 H 98.0135 0.945921 -0.0627454 0
M  V30 917 H 97.7195 3.49845 0.360787 0
M  V30 918 H 97.5935 3.14941 2.07586 0
M  V30 919 H 99.9805 2.15969 2.01101 0
M  V30 920 H 100.061 2.54204 0.285299 0
M  V30 921 H 99.7055 5.00938 0.838067 0
M  V30 922 H 99.6355 4.59648 2.56966 0
M  V30 923 H 102.126 3.47661 1.48123 0
M  V30 924 H 102.439 7.33139 2.44391 0
M  V30 925 H 100.784 6.59112 2.20447 0
M  V30 926 H 103.975 4.33876 1.75697 0
M  V30 927 H 104.148 6.09649 2.19618 0
M  V30 928 N 97.5546 -0.734337 1.39446 0
M  V30 929 C 98.7946 -1.50655 1.38139 0
M  V30 930 C 99.1586 -1.91986 -0.0228701 0
M  V30 931 O 100.36 -2.68318 -0.160947 0
M  V30 932 C 98.6306 -2.71251 2.32718 0
M  V30 933 S 100.19 -3.60892 2.49605 0
M  V30 934 H 97.0076 -0.515315 0.489869 0
M  V30 935 H 99.6096 -0.860392 1.75549 0
M  V30 936 H 98.3136 -2.39027 3.33608 0
M  V30 937 H 97.8446 -3.40795 1.96526 0
M  V30 938 H 99.8596 -4.64899 1.73446 0
M  V30 939 N 99.0327 -1.24633 -0.964593 0
M  V30 940 C 100.31 -0.995809 -1.68354 0
M  V30 941 C 100.69 0.480964 -2.05548 0
M  V30 942 O 100.038 1.45599 -1.76105 0
M  V30 943 C 100.248 -1.92177 -2.91323 0
M  V30 944 C 101.596 -2.19446 -3.63495 0
M  V30 945 O 102.62 -1.89855 -3.01386 0
M  V30 946 O 101.479 -2.69714 -4.75307 0
M  V30 947 H 98.5727 -0.376854 -0.736146 0
M  V30 948 H 101.119 -1.35745 -1.0184 0
M  V30 949 H 99.8907 -2.91938 -2.60553 0
M  V30 950 H 99.5137 -1.56349 -3.65569 0
M  V30 951 N 100.511 1.16574 -1.06058 0
M  V30 952 C 101.76 1.86385 -0.770944 0
M  V30 953 C 102.073 1.82448 0.705129 0
M  V30 954 O 103.279 2.47815 1.10905 0
M  V30 955 C 101.735 3.34466 -1.32893 0
M  V30 956 C 101.343 3.46883 -2.83507 0
M  V30 957 C 103.087 4.09548 -1.11672 0
M  V30 958 C 100.994 4.89036 -3.32562 0
M  V30 959 H 99.9238 0.698181 -0.284709 0
M  V30 960 H 102.575 1.31583 -1.27899 0
M  V30 961 H 100.957 3.88859 -0.748662 0
M  V30 962 H 102.131 3.02663 -3.47465 0
M  V30 963 H 100.446 2.85232 -3.03368 0
M  V30 964 H 103.043 5.14434 -1.45814 0
M  V30 965 H 103.386 4.16264 -0.0549535 0
M  V30 966 H 103.919 3.61387 -1.66265 0
M  V30 967 H 100.658 4.87499 -4.38207 0
M  V30 968 H 100.178 5.3389 -2.73351 0
M  V30 969 H 101.857 5.57843 -3.2775 0
M  V30 970 N 101.989 0.842826 1.3317 0
M  V30 971 C 103.217 0.454055 2.01856 0
M  V30 972 C 103.632 -0.94587 1.63397 0
M  V30 973 O 102.989 -1.61534 0.849302 0
M  V30 974 C 103.04 0.569715 3.56982 0
M  V30 975 O 102.761 1.91448 3.94055 0
M  V30 976 C 104.262 0.178412 4.42941 0
M  V30 977 H 101.482 0.17979 0.646465 0
M  V30 978 H 104.026 1.1365 1.70012 0
M  V30 979 H 102.181 -0.0648587 3.87346 0
M  V30 980 H 102.595 1.90282 4.88767 0
M  V30 981 H 104.069 0.310376 5.51127 0
M  V30 982 H 104.546 -0.880056 4.30293 0
M  V30 983 H 105.152 0.787579 4.17944 0
M  V30 984 N 103.467 -1.45747 0.599634 0
M  V30 985 C 104.692 -2.07178 0.0960198 0
M  V30 986 C 105.117 -1.44268 -1.207 0
M  V30 987 O 104.475 -0.532503 -1.73303 0
M  V30 988 C 104.523 -3.60579 -0.0385348 0
M  V30 989 O 103.627 -3.97713 -1.0908 0
M  V30 990 H 102.968 -0.660251 0.0704593 0
M  V30 991 H 105.498 -1.87124 0.827385 0
M  V30 992 H 105.508 -4.07298 -0.239304 0
M  V30 993 H 104.183 -4.05756 0.912947 0
M  V30 994 H 102.76 -3.62678 -0.867135 0
M  V30 995 N 104.945 -0.338344 -1.53925 0
M  V30 996 C 105.855 0.529421 -2.28548 0
M  V30 997 C 106.871 1.11645 -1.3346 0
M  V30 998 O 108.047 1.13325 -1.66492 0
M  V30 999 C 105.112 1.66713 -3.03987 0
M  V30 1000 C 104.173 1.11041 -4.14691 0
M  V30 1001 C 103.406 2.19389 -4.86522 0
M  V30 1002 O 103.629 3.40013 -4.57982 0
M  V30 1003 O 102.563 1.83976 -5.73094 0
M  V30 1004 H 106.389 -0.0770399 -3.03602 0
M  V30 1005 H 103.974 -0.103555 -1.49041 0
M  V30 1006 H 105.856 2.32918 -3.5118 0
M  V30 1007 H 104.531 2.25949 -2.31794 0
M  V30 1008 H 103.438 0.413024 -3.71813 0
M  V30 1009 H 104.771 0.562975 -4.8897 0
M  V30 1010 N 106.423 1.57458 -0.0668435 0
M  V30 1011 C 107.355 2.09413 0.931601 0
M  V30 1012 C 108.368 1.02522 1.26464 0
M  V30 1013 O 109.557 1.30049 1.22269 0
M  V30 1014 C 106.657 2.53537 2.24882 0
M  V30 1015 C 105.83 3.83944 2.09537 0
M  V30 1016 C 104.889 4.14214 3.2452 0
M  V30 1017 O 103.915 4.83891 2.9973 0
M  V30 1018 N 105.117 3.67367 4.49469 0
M  V30 1019 H 107.882 2.95699 0.488048 0
M  V30 1020 H 105.443 1.61462 0.119009 0
M  V30 1021 H 107.435 2.70853 3.00701 0
M  V30 1022 H 106.005 1.72415 2.60753 0
M  V30 1023 H 105.225 3.76057 1.18215 0
M  V30 1024 H 106.513 4.69312 1.96529 0
M  V30 1025 H 105.911 3.11068 4.72497 0
M  V30 1026 H 104.468 3.89891 5.2233 0
M  V30 1027 N 107.901 -0.206675 1.56239 0
M  V30 1028 C 108.811 -1.27686 1.96808 0
M  V30 1029 C 109.827 -1.50455 0.874035 0
M  V30 1030 O 111.003 -1.63295 1.17884 0
M  V30 1031 C 108.068 -2.60358 2.28942 0
M  V30 1032 C 107.129 -2.45762 3.51994 0
M  V30 1033 C 106.362 -3.72108 3.82585 0
M  V30 1034 O 106.585 -4.75776 3.14631 0
M  V30 1035 O 105.519 -3.6833 4.76043 0
M  V30 1036 H 109.345 -0.962593 2.88041 0
M  V30 1037 H 106.93 -0.410746 1.43643 0
M  V30 1038 H 108.812 -3.38687 2.50737 0
M  V30 1039 H 107.487 -2.91435 1.4088 0
M  V30 1040 H 106.394 -1.65584 3.35459 0
M  V30 1041 H 107.727 -2.19621 4.40486 0
M  V30 1042 N 109.379 -1.50304 -0.473955 0
M  V30 1043 C 110.309 -1.71886 -1.58042 0
M  V30 1044 C 111.29 -0.567799 -1.60344 0
M  V30 1045 O 112.475 -0.806623 -1.76656 0
M  V30 1046 C 109.605 -1.81036 -2.96384 0
M  V30 1047 C 108.559 -2.962 -3.08949 0
M  V30 1048 C 107.885 -2.9049 -4.48909 0
M  V30 1049 C 109.185 -4.36752 -2.86434 0
M  V30 1050 H 110.879 -2.64527 -1.40234 0
M  V30 1051 H 108.425 -1.27295 -0.673201 0
M  V30 1052 H 110.378 -1.94719 -3.73714 0
M  V30 1053 H 109.102 -0.850147 -3.15341 0
M  V30 1054 H 107.761 -2.82164 -2.3405 0
M  V30 1055 H 107.409 -1.92321 -4.64781 0
M  V30 1056 H 107.109 -3.67802 -4.58253 0
M  V30 1057 H 108.633 -3.06218 -5.28264 0
M  V30 1058 H 110.047 -4.5133 -3.53517 0
M  V30 1059 H 108.444 -5.15493 -3.07225 0
M  V30 1060 H 109.514 -4.49321 -1.82316 0
M  V30 1061 N 110.857 0.726932 -1.39834 0
M  V30 1062 C 112.082 1.52121 -1.40976 0
M  V30 1063 C 112.507 1.88098 -0.00826029 0
M  V30 1064 O 111.865 1.52479 0.980807 0
M  V30 1065 C 111.913 2.78021 -2.29644 0
M  V30 1066 O 111.017 3.74272 -1.73188 0
M  V30 1067 H 110.358 0.45908 -0.479731 0
M  V30 1068 H 112.888 0.896207 -1.83927 0
M  V30 1069 H 112.898 3.26671 -2.44438 0
M  V30 1070 H 111.573 2.51169 -3.31492 0
M  V30 1071 H 110.15 3.33073 -1.6768 0
M  V30 1072 N 112.336 1.25143 0.95797 0
M  V30 1073 C 113.299 1.05321 2.03569 0
M  V30 1074 C 114.299 0.007152 1.60798 0
M  V30 1075 O 115.489 0.24903 1.72411 0
M  V30 1076 C 112.621 0.598394 3.35607 0
M  V30 1077 H 113.814 2.00986 2.22586 0
M  V30 1078 H 111.367 1.07502 1.13459 0
M  V30 1079 H 112.102 -0.361014 3.22284 0
M  V30 1080 H 111.887 1.35351 3.67998 0
M  V30 1081 H 113.377 0.48104 4.1482 0
M  V30 1082 N 113.814 -1.1601 1.06675 0
M  V30 1083 C 114.744 -2.22688 0.702307 0
M  V30 1084 C 115.725 -1.67306 -0.307032 0
M  V30 1085 O 116.91 -1.93352 -0.181305 0
M  V30 1086 C 114.04 -3.47178 0.092038 0
M  V30 1087 C 112.994 -4.15477 1.02777 0
M  V30 1088 C 112.32 -5.33963 0.28061 0
M  V30 1089 C 113.62 -4.66019 2.35846 0
M  V30 1090 H 115.314 -2.53429 1.59419 0
M  V30 1091 H 112.86 -1.21813 0.767961 0
M  V30 1092 H 114.813 -4.21037 -0.174814 0
M  V30 1093 H 113.537 -3.15749 -0.834877 0
M  V30 1094 H 112.196 -3.43549 1.27944 0
M  V30 1095 H 111.844 -4.98788 -0.649545 0
M  V30 1096 H 111.544 -5.806 0.904258 0
M  V30 1097 H 113.068 -6.10596 0.021396 0
M  V30 1098 H 114.482 -5.3144 2.15045 0
M  V30 1099 H 112.879 -5.23293 2.93743 0
M  V30 1100 H 113.949 -3.82023 2.98641 0
M  V30 1101 N 115.292 -0.849877 -1.32721 0
M  V30 1102 C 116.255 -0.296122 -2.27279 0
M  V30 1103 C 117.255 0.541458 -1.5141 0
M  V30 1104 O 118.445 0.353658 -1.70572 0
M  V30 1105 C 115.577 0.581579 -3.35902 0
M  V30 1106 H 116.77 -1.13064 -2.77771 0
M  V30 1107 H 114.323 -0.62383 -1.43311 0
M  V30 1108 H 115.058 1.43809 -2.9067 0
M  V30 1109 H 114.843 -0.0178814 -3.92096 0
M  V30 1110 H 116.333 0.961951 -4.0637 0
M  V30 1111 N 116.77 1.45427 -0.607355 0
M  V30 1112 C 118.047 1.9557 -0.0344566 0
M  V30 1113 C 118.427 1.54979 1.43334 0
M  V30 1114 O 117.775 0.812241 2.13576 0
M  V30 1115 C 117.985 3.48226 -0.232321 0
M  V30 1116 C 119.333 4.2445 -0.113001 0
M  V30 1117 O 120.357 3.55829 -0.162431 0
M  V30 1118 O 119.216 5.465 0.00209442 0
M  V30 1119 H 116.31 0.826222 0.0358667 0
M  V30 1120 H 118.856 1.55594 -0.6774 0
M  V30 1121 H 117.628 3.70739 -1.25174 0
M  V30 1122 H 117.251 3.95092 0.445896 0
M  V30 1123 N 118.248 0.346503 1.53744 0
M  V30 1124 C 119.495 -0.249104 2.00962 0
M  V30 1125 C 119.823 -1.5032 1.23426 0
M  V30 1126 O 119.078 -1.93217 0.310761 0
M  V30 1127 C 119.377 -0.605809 3.52228 0
M  V30 1128 C 119.043 0.551747 4.47512 0
M  V30 1129 C 117.705 0.86941 4.73281 0
M  V30 1130 C 120.057 1.32818 5.03993 0
M  V30 1131 C 117.385 1.96582 5.52786 0
M  V30 1132 C 119.737 2.41486 5.84694 0
M  V30 1133 C 118.401 2.73808 6.08757 0
M  V30 1134 H 117.671 -0.0911538 0.735372 0
M  V30 1135 H 120.318 0.475027 1.85515 0
M  V30 1136 H 118.623 -1.4107 3.65522 0
M  V30 1137 H 120.32 -1.07858 3.86222 0
M  V30 1138 H 116.91 0.294102 4.2759 0
M  V30 1139 H 121.094 1.09602 4.84047 0
M  V30 1140 H 116.35 2.22045 5.69654 0
M  V30 1141 H 120.524 3.02078 6.27473 0
M  V30 1142 H 118.151 3.58892 6.7015 0
M  V30 1143 N 119.726 -1.57421 0.075193 0
M  V30 1144 C 120.689 -2.11791 -0.876203 0
M  V30 1145 C 121.689 -1.04268 -1.22412 0
M  V30 1146 O 122.879 -1.30242 -1.15684 0
M  V30 1147 C 120.011 -2.62207 -2.17854 0
M  V30 1148 H 121.204 -2.9716 -0.40444 0
M  V30 1149 H 118.757 -1.55333 -0.173557 0
M  V30 1150 H 119.492 -1.803 -2.6956 0
M  V30 1151 H 119.277 -3.40802 -1.93897 0
M  V30 1152 H 120.767 -3.04335 -2.85955 0
M  V30 1153 N 121.204 0.198386 -1.56346 0
M  V30 1154 C 122.453 0.917451 -1.79627 0
M  V30 1155 C 122.766 1.8456 -0.64784 0
M  V30 1156 O 123.972 2.60504 -0.764859 0
M  V30 1157 C 122.428 1.68175 -3.18191 0
M  V30 1158 C 122.036 0.798589 -4.40825 0
M  V30 1159 C 123.78 2.39065 -3.50782 0
M  V30 1160 C 121.687 1.56157 -5.70411 0
M  V30 1161 H 120.617 0.346317 -0.669762 0
M  V30 1162 H 123.268 0.170801 -1.82703 0
M  V30 1163 H 121.65 2.47216 -3.09354 0
M  V30 1164 H 122.824 0.0470665 -4.60776 0
M  V30 1165 H 121.139 0.200686 -4.15916 0
M  V30 1166 H 123.736 2.96692 -4.44835 0
M  V30 1167 H 124.079 3.13091 -2.74371 0
M  V30 1168 H 124.612 1.66993 -3.61052 0
M  V30 1169 H 121.351 0.864142 -6.49779 0
M  V30 1170 H 120.871 2.2871 -5.54483 0
M  V30 1171 H 122.55 2.11622 -6.11412 0
M  V30 1172 N 122.682 1.50554 0.465978 0
M  V30 1173 C 123.907 1.65838 1.24549 0
M  V30 1174 C 124.332 0.343486 1.84937 0
M  V30 1175 O 123.69 -0.69324 1.67523 0
M  V30 1176 C 123.738 2.75533 2.32624 0
M  V30 1177 O 122.842 2.37142 3.37398 0
M  V30 1178 H 122.183 0.553893 0.366194 0
M  V30 1179 H 124.713 1.96959 0.553927 0
M  V30 1180 H 124.723 2.98763 2.77857 0
M  V30 1181 H 123.398 3.70962 1.88043 0
M  V30 1182 H 121.975 2.24377 2.97841 0
M  V30 1183 N 124.16 -0.719506 1.40217 0
M  V30 1184 C 125.107 -1.83359 1.40172 0
M  V30 1185 C 126.077 -1.64065 0.259206 0
M  V30 1186 O 127.262 -1.85254 0.456677 0
M  V30 1187 C 124.402 -3.2103 1.26624 0
M  V30 1188 C 123.515 -3.51923 2.50548 0
M  V30 1189 C 122.65 -4.79079 2.29471 0
M  V30 1190 C 121.689 -5.02863 3.48992 0
M  V30 1191 N 120.826 -6.2123 3.27135 0
M  V30 1192 H 125.666 -1.82733 2.35399 0
M  V30 1193 H 123.203 -0.892688 1.16917 0
M  V30 1194 H 125.161 -4.00524 1.16776 0
M  V30 1195 H 123.791 -3.20895 0.350176 0
M  V30 1196 H 122.843 -2.67014 2.70939 0
M  V30 1197 H 124.155 -3.6541 3.39525 0
M  V30 1198 H 123.309 -5.66582 2.16955 0
M  V30 1199 H 122.048 -4.67794 1.37913 0
M  V30 1200 H 121.053 -4.13816 3.6199 0
M  V30 1201 H 122.278 -5.16023 4.41472 0
M  V30 1202 H 120.224 -6.11204 2.38256 0
M  V30 1203 H 120.141 -6.35375 4.09675 0
M  V30 1204 H 121.409 -7.11532 3.18344 0
M  V30 1205 N 125.638 -1.25649 -0.95132 0
M  V30 1206 C 126.568 -1.08808 -2.06599 0
M  V30 1207 C 127.549 0.00382547 -1.701 0
M  V30 1208 O 128.734 -0.166325 -1.93486 0
M  V30 1209 C 125.864 -0.709542 -3.39975 0
M  V30 1210 C 124.818 -1.75206 -3.90496 0
M  V30 1211 C 124.144 -1.22811 -5.20405 0
M  V30 1212 C 125.444 -3.15153 -4.16504 0
M  V30 1213 H 127.138 -2.02048 -2.20946 0
M  V30 1214 H 124.684 -0.972835 -1.06169 0
M  V30 1215 H 126.637 -0.578649 -4.17408 0
M  V30 1216 H 125.361 0.258556 -3.25575 0
M  V30 1217 H 124.02 -1.87145 -3.15234 0
M  V30 1218 H 123.668 -0.250145 -5.02378 0
M  V30 1219 H 123.368 -1.92492 -5.55176 0
M  V30 1220 H 124.892 -1.10968 -6.00432 0
M  V30 1221 H 126.306 -3.06349 -4.84586 0
M  V30 1222 H 124.703 -3.82333 -4.62538 0
M  V30 1223 H 125.773 -3.61966 -3.22658 0
M  V30 1224 N 127.117 1.15442 -1.07289 0
M  V30 1225 C 128.365 1.85845 -0.794096 0
M  V30 1226 C 128.686 1.82692 0.681809 0
M  V30 1227 O 127.956 1.26741 1.49377 0
M  V30 1228 H 126.536 0.688089 -0.290763 0
M  V30 1229 H 129.198 1.39947 -1.3565 0
M  V30 1230 H 128.294 2.91001 -1.12804 0
M  V30 1231 N 128.595 0.856903 1.32268 0
M  V30 1232 C 129.542 0.301172 2.28827 0
M  V30 1233 C 130.512 -0.593104 1.5515 0
M  V30 1234 O 131.697 -0.527537 1.83362 0
M  V30 1235 C 128.837 -0.502523 3.41422 0
M  V30 1236 C 127.95 0.417797 4.29975 0
M  V30 1237 C 127.085 -0.398749 5.29701 0
M  V30 1238 C 126.124 0.518827 6.09897 0
M  V30 1239 N 125.261 -0.260674 7.01616 0
M  V30 1240 H 130.101 1.12983 2.75751 0
M  V30 1241 H 127.638 0.568582 1.35667 0
M  V30 1242 H 129.596 -0.984141 4.05426 0
M  V30 1243 H 128.226 -1.29599 2.95642 0
M  V30 1244 H 127.278 1.01781 3.66531 0
M  V30 1245 H 128.59 1.12191 4.86019 0
M  V30 1246 H 127.744 -0.943435 5.9932 0
M  V30 1247 H 126.483 -1.13622 4.7428 0
M  V30 1248 H 125.488 1.07538 5.39181 0
M  V30 1249 H 126.713 1.25495 6.67404 0
M  V30 1250 H 124.659 -0.981198 6.4862 0
M  V30 1251 H 124.576 0.384364 7.55022 0
M  V30 1252 H 125.844 -0.787014 7.75517 0
M  V30 1253 N 130.073 -1.45103 0.615059 0
M  V30 1254 C 131.319 -2.02483 0.113347 0
M  V30 1255 C 131.652 -1.48146 -1.25564 0
M  V30 1256 O 130.927 -0.659104 -1.82992 0
M  V30 1257 C 131.21 -3.60005 0.0825278 0
M  V30 1258 C 131.063 -4.2466 1.48271 0
M  V30 1259 C 132.382 -4.35972 -0.601401 0
M  V30 1260 H 129.501 -0.735764 0.0426632 0
M  V30 1261 H 132.143 -1.72868 0.788461 0
M  V30 1262 H 130.293 -3.85367 -0.492378 0
M  V30 1263 H 131.965 -4.10458 2.10527 0
M  V30 1264 H 130.208 -3.82772 2.04127 0
M  V30 1265 H 130.879 -5.336 1.41332 0
M  V30 1266 H 133.355 -4.15947 -0.112666 0
M  V30 1267 H 132.231 -5.45697 -0.592097 0
M  V30 1268 H 132.492 -4.09391 -1.66887 0
M  V30 1269 N 131.551 -0.354651 -1.53558 0
M  V30 1270 C 132.828 0.294281 -1.93374 0
M  V30 1271 C 133.208 1.67313 -1.28723 0
M  V30 1272 O 132.556 2.24179 -0.442247 0
M  V30 1273 C 132.766 0.355445 -3.47185 0
M  V30 1274 C 134.114 0.601007 -4.20325 0
M  V30 1275 O 135.138 0.437106 -3.53508 0
M  V30 1276 O 133.997 0.919322 -5.38712 0
M  V30 1277 H 131.091 0.174033 -0.808481 0
M  V30 1278 H 133.637 -0.406638 -1.64756 0
M  V30 1279 H 132.409 -0.611729 -3.86489 0
M  V30 1280 H 132.032 1.1027 -3.82003 0
M  V30 1281 N 133.029 1.57378 -0.0835403 0
M  V30 1282 C 134.278 1.93106 0.582498 0
M  V30 1283 C 134.591 0.96651 1.70053 0
M  V30 1284 O 135.797 1.21705 2.42693 0
M  V30 1285 C 134.253 3.43076 1.08751 0
M  V30 1286 C 133.861 4.48 -0.000146404 0
M  V30 1287 C 135.605 3.87785 1.72694 0
M  V30 1288 C 133.512 5.89113 0.519568 0
M  V30 1289 H 132.442 0.720775 0.221358 0
M  V30 1290 H 135.093 1.82821 -0.157675 0
M  V30 1291 H 133.475 3.48474 1.88101 0
M  V30 1292 H 134.649 4.54233 -0.775199 0
M  V30 1293 H 132.964 4.1283 -0.54406 0
M  V30 1294 H 135.561 4.90604 2.1263 0
M  V30 1295 H 135.904 3.25796 2.59158 0
M  V30 1296 H 136.437 3.8504 0.999457 0
M  V30 1297 H 133.176 6.54775 -0.308186 0
M  V30 1298 H 132.696 5.86376 1.26188 0
M  V30 1299 H 134.375 6.39346 0.992237 0
M  V30 1300 N 134.507 -0.190092 1.56449 0
M  V30 1301 C 135.437 -1.23816 1.97969 0
M  V30 1302 C 136.418 -1.47201 0.852395 0
M  V30 1303 O 137.603 -1.58854 1.1171 0
M  V30 1304 C 134.733 -2.5813 2.3235 0
M  V30 1305 C 133.687 -2.49348 3.47864 0
M  V30 1306 C 133.013 -3.8798 3.67934 0
M  V30 1307 C 134.313 -2.01424 4.81898 0
M  V30 1308 H 136.007 -0.89311 2.85769 0
M  V30 1309 H 133.553 -0.428177 1.37487 0
M  V30 1310 H 135.506 -3.31637 2.59991 0
M  V30 1311 H 134.23 -2.94386 1.41438 0
M  V30 1312 H 132.889 -1.78297 3.20321 0
M  V30 1313 H 132.537 -4.21597 2.74344 0
M  V30 1314 H 132.237 -3.82978 4.45648 0
M  V30 1315 H 133.761 -4.63101 3.97957 0
M  V30 1316 H 135.175 -2.64693 5.08538 0
M  V30 1317 H 133.572 -2.07413 5.63116 0
M  V30 1318 H 134.642 -0.967677 4.75146 0
M  V30 1319 N 135.985 -1.50799 -0.457987 0
M  V30 1320 C 137.231 -1.62683 -1.21088 0
M  V30 1321 C 137.564 -0.332268 -1.91336 0
M  V30 1322 O 136.839 0.667043 -1.82704 0
M  V30 1323 C 137.122 -2.81615 -2.24422 0
M  V30 1324 C 136.975 -4.20989 -1.58392 0
M  V30 1325 C 138.294 -2.96085 -3.2561 0
M  V30 1326 H 135.413 -0.592087 -0.438864 0
M  V30 1327 H 138.055 -1.83225 -0.50286 0
M  V30 1328 H 136.205 -2.64231 -2.84806 0
M  V30 1329 H 137.877 -4.49994 -1.01504 0
M  V30 1330 H 136.12 -4.24641 -0.886704 0
M  V30 1331 H 136.791 -5.0016 -2.33547 0
M  V30 1332 H 139.267 -3.12042 -2.75262 0
M  V30 1333 H 138.143 -3.80902 -3.95228 0
M  V30 1334 H 138.404 -2.0726 -3.90507 0
M  V30 1335 N 137.463 0.71206 -1.40597 0
M  V30 1336 C 138.411 1.84746 -1.41321 0
M  V30 1337 C 139.405 1.66842 -0.293268 0
M  V30 1338 O 140.611 1.73904 -0.464481 0
M  V30 1339 H 136.986 0.608522 -0.441819 0
M  V30 1340 H 138.957 1.81252 -2.37045 0
M  V30 1341 C 137.706 3.22638 -1.29614 0
M  V30 1342 H 137.029 3.37023 -2.15071 0
M  V30 1343 H 138.469 4.02209 -1.3418 0
M  V30 1344 C 136.928 3.36899 -0.00673121 0
M  V30 1345 O 137.458 3.90186 0.954859 0
M  V30 1346 N 135.664 2.9053 0.0639327 0
M  V30 1347 H 135.211 2.47353 -0.719311 0
M  V30 1348 H 135.169 3.0045 0.926118 0
M  V30 1349 N 138.941 1.26152 0.944643 0
M  V30 1350 C 139.889 1.07215 2.06417 0
M  V30 1351 C 140.883 9.2007e-05 1.694 0
M  V30 1352 O 142.089 0.1565 1.79318 0
M  V30 1353 H 138.464 0.329837 0.675805 0
M  V30 1354 H 140.435 2.02099 2.19541 0
M  V30 1355 C 139.184 0.718197 3.40202 0
M  V30 1356 H 138.507 1.53497 3.69159 0
M  V30 1357 H 139.947 0.625459 4.19361 0
M  V30 1358 C 138.406 -0.576435 3.31932 0
M  V30 1359 O 138.936 -1.61574 3.67773 0
M  V30 1360 N 137.142 -0.565781 2.85039 0
M  V30 1361 H 136.689 0.280367 2.5607 0
M  V30 1362 H 136.647 -1.43213 2.79888 0
M  V30 1363 N 140.419 -1.14872 1.07899 0
M  V30 1364 C 141.382 -2.17986 0.708161 0
M  V30 1365 C 142.382 -1.58775 -0.25442 0
M  V30 1366 O 143.572 -1.74166 -0.034645 0
M  V30 1367 C 140.704 -3.40871 0.0446929 0
M  V30 1368 H 141.897 -2.52306 1.62116 0
M  V30 1369 H 139.45 -1.2943 0.876218 0
M  V30 1370 H 140.185 -3.12124 -0.880281 0
M  V30 1371 H 139.97 -3.8511 0.737091 0
M  V30 1372 H 141.46 -4.17121 -0.19991 0
M  V30 1373 N 141.898 -0.863906 -1.31812 0
M  V30 1374 C 143.146 -0.470904 -1.96537 0
M  V30 1375 C 143.467 0.978771 -1.68657 0
M  V30 1376 O 142.737 1.6853 -0.998717 0
M  V30 1377 H 141.317 -0.171148 -0.72713 0
M  V30 1378 H 143.979 -1.10236 -1.60729 0
M  V30 1379 H 143.075 -0.623616 -3.05806 0
M  V30 1380 N 143.376 1.44774 -0.622745 0
M  V30 1381 C 144.624 2.01721 -0.123655 0
M  V30 1382 C 144.945 1.49172 1.25589 0
M  V30 1383 O 144.215 0.691974 1.83272 0
M  V30 1384 H 142.795 0.745777 -0.0427225 0
M  V30 1385 H 145.457 1.77382 -0.807559 0
M  V30 1386 H 144.553 3.11984 -0.0849534 0
M  V30 1387 N 144.854 0.36279 1.53368 0
M  V30 1388 C 146.102 -0.227326 2.00817 0
M  V30 1389 C 146.423 -1.49511 1.25186 0
M  V30 1390 O 145.693 -1.92482 0.364348 0
M  V30 1391 H 144.273 -0.0869923 0.741917 0
M  V30 1392 H 146.935 0.488381 1.88682 0
M  V30 1393 H 146.031 -0.456273 3.08747 0
M  V30 1394 N 146.332 -1.57332 0.0918853 0
M  V30 1395 C 147.58 -1.93853 -0.571446 0
M  V30 1396 C 147.901 -0.974212 -1.6892 0
M  V30 1397 O 147.171 -0.0257254 -1.95883 0
M  V30 1398 H 145.751 -0.715666 -0.214082 0
M  V30 1399 H 148.413 -1.94287 0.154464 0
M  V30 1400 H 147.509 -2.96191 -0.983729 0
M  V30 1401 N 147.81 0.181792 -1.56548 0
M  V30 1402 C 149.221 0.745244 -1.71181 0
M  V30 1403 C 149.572 1.83262 -0.70068 0
M  V30 1404 O 148.697 2.15946 0.140154 0
M  V30 1405 C 149.292 1.35859 -3.10367 0
M  V30 1406 C 147.851 1.86898 -3.2672 0
M  V30 1407 C 146.998 0.743942 -2.67134 0
M  V30 1408 H 149.949 -0.0434661 -1.5864 0
M  V30 1409 H 149.97 2.22817 -3.08436 0
M  V30 1410 H 149.482 0.566948 -3.83937 0
M  V30 1411 H 147.583 2.68738 -2.5809 0
M  V30 1412 H 147.696 2.02162 -4.34359 0
M  V30 1413 H 146.06 1.16169 -2.26665 0
M  V30 1414 H 146.843 -0.035676 -3.43281 0
M  V30 1415 N 149.288 1.51039 0.449983 0
M  V30 1416 C 150.235 1.71439 1.54523 0
M  V30 1417 C 151.205 0.555871 1.56522 0
M  V30 1418 O 152.39 0.788871 1.73728 0
M  V30 1419 C 149.53 1.83384 2.92343 0
M  V30 1420 C 148.643 3.10873 2.9997 0
M  V30 1421 C 147.778 3.13488 4.28834 0
M  V30 1422 C 146.817 4.35343 4.30282 0
M  V30 1423 N 145.954 4.35579 5.5065 0
M  V30 1424 H 150.794 2.64934 1.36433 0
M  V30 1425 H 148.331 1.31312 0.662982 0
M  V30 1426 H 150.289 1.88291 3.72293 0
M  V30 1427 H 148.919 0.933086 3.0902 0
M  V30 1428 H 147.971 3.15336 2.12761 0
M  V30 1429 H 149.283 4.00814 2.96901 0
M  V30 1430 H 148.437 3.17241 5.17149 0
M  V30 1431 H 147.176 2.21414 4.34543 0
M  V30 1432 H 146.181 4.3178 3.40362 0
M  V30 1433 H 147.406 5.28668 4.26248 0
M  V30 1434 H 145.352 3.46369 5.57104 0
M  V30 1435 H 145.269 5.19313 5.49409 0
M  V30 1436 H 146.537 4.43507 6.41032 0
M  V30 1437 N 150.766 -0.704594 1.40972 0
M  V30 1438 C 152.177 -1.28418 1.3552 0
M  V30 1439 C 152.528 -1.96171 0.0339434 0
M  V30 1440 O 151.653 -1.98231 -0.867944 0
M  V30 1441 C 152.248 -2.33528 2.45459 0
M  V30 1442 C 150.807 -2.87085 2.43433 0
M  V30 1443 C 149.954 -1.61007 2.2577 0
M  V30 1444 H 152.905 -0.499963 1.50619 0
M  V30 1445 H 152.926 -3.14619 2.13998 0
M  V30 1446 H 152.438 -1.84187 3.41609 0
M  V30 1447 H 150.539 -3.40626 1.51013 0
M  V30 1448 H 150.652 -3.3813 3.39419 0
M  V30 1449 H 149.016 -1.86482 1.73483 0
M  V30 1450 H 149.799 -1.13675 3.23933 0
M  V30 1451 N 152.244 -1.26651 -0.937939 0
M  V30 1452 C 153.491 -1.12387 -1.6845 0
M  V30 1453 C 153.819 0.332208 -1.91642 0
M  V30 1454 O 153.074 1.2602 -1.49725 0
M  V30 1455 C 153.373 -1.84168 -3.06295 0
M  V30 1456 C 153.039 -3.34056 -3.02849 0
M  V30 1457 C 151.701 -3.74942 -3.01616 0
M  V30 1458 C 154.053 -4.29741 -2.9491 0
M  V30 1459 C 151.381 -5.09894 -2.90215 0
M  V30 1460 C 153.733 -5.64738 -2.8505 0
M  V30 1461 C 152.397 -6.0493 -2.82162 0
M  V30 1462 H 151.667 -0.411252 -0.616403 0
M  V30 1463 H 154.314 -1.57134 -1.09459 0
M  V30 1464 H 152.619 -1.319 -3.6893 0
M  V30 1465 H 154.316 -1.70569 -3.62915 0
M  V30 1466 H 150.906 -3.01534 -3.0459 0
M  V30 1467 H 155.09 -3.99133 -2.94969 0
M  V30 1468 H 150.346 -5.40194 -2.86358 0
M  V30 1469 H 154.52 -6.38561 -2.77872 0
M  V30 1470 H 152.147 -7.09457 -2.73084 0
M  V30 1471 N 153.722 1.14298 -1.08507 0
M  V30 1472 C 154.999 1.81544 -0.728088 0
M  V30 1473 C 155.379 1.95838 0.78808 0
M  V30 1474 O 154.727 1.51904 1.70697 0
M  V30 1475 C 154.937 3.17169 -1.45619 0
M  V30 1476 C 156.285 3.9265 -1.61591 0
M  V30 1477 O 157.309 3.26762 -1.41793 0
M  V30 1478 O 156.168 5.10807 -1.94263 0
M  V30 1479 H 153.262 0.78491 -0.260471 0
M  V30 1480 H 155.808 1.21307 -1.18671 0
M  V30 1481 H 154.58 3.01934 -2.489 0
M  V30 1482 H 154.203 3.851 -0.989124 0
M  V30 1483 N 155.201 0.870884 1.31352 0
M  V30 1484 C 156.134 0.271983 2.26573 0
M  V30 1485 C 157.112 -0.599385 1.51149 0
M  V30 1486 O 158.296 -0.552605 1.80218 0
M  V30 1487 C 155.423 -0.614801 3.33073 0
M  V30 1488 C 154.469 0.185342 4.26097 0
M  V30 1489 S 155.302 1.56444 5.12138 0
M  V30 1490 C 156.458 0.683807 6.22153 0
M  V30 1491 H 156.691 1.07916 2.77023 0
M  V30 1492 H 154.224 0.669459 1.39132 0
M  V30 1493 H 156.182 -1.12074 3.94905 0
M  V30 1494 H 154.843 -1.39593 2.81376 0
M  V30 1495 H 154.036 -0.490771 5.01605 0
M  V30 1496 H 153.638 0.623415 3.68768 0
M  V30 1497 H 155.93 -0.10521 6.77418 0
M  V30 1498 H 156.873 1.41004 6.93919 0
M  V30 1499 H 157.281 0.250952 5.63942 0
M  V30 1500 N 156.679 -1.44442 0.630414 0
M  V30 1501 C 158.09 -1.85434 0.217063 0
M  V30 1502 C 158.441 -1.52748 -1.23136 0
M  V30 1503 O 157.566 -0.965205 -1.93682 0
M  V30 1504 C 158.161 -3.36581 0.387168 0
M  V30 1505 C 156.72 -3.76389 0.0283297 0
M  V30 1506 C 155.867 -2.68296 0.700889 0
M  V30 1507 H 158.818 -1.34919 0.83562 0
M  V30 1508 H 158.839 -3.78657 -0.374086 0
M  V30 1509 H 158.351 -3.60339 1.44144 0
M  V30 1510 H 156.452 -3.58246 -1.02423 0
M  V30 1511 H 156.565 -4.77095 0.437892 0
M  V30 1512 H 154.929 -2.54335 0.136267 0
M  V30 1513 H 155.712 -2.94887 1.75774 0
M  V30 1514 N 158.157 -0.370918 -1.53173 0
M  V30 1515 C 159.09 0.516727 -2.22273 0
M  V30 1516 C 160.068 1.07877 -1.21661 0
M  V30 1517 O 161.252 1.13389 -1.50583 0
M  V30 1518 C 158.379 1.71346 -2.92161 0
M  V30 1519 C 157.425 1.27838 -4.0689 0
M  V30 1520 S 158.258 0.275217 -5.34792 0
M  V30 1521 C 159.414 1.47816 -6.08195 0
M  V30 1522 H 159.647 -0.0701054 -2.97217 0
M  V30 1523 H 157.18 -0.155038 -1.5362 0
M  V30 1524 H 159.138 2.39988 -3.3304 0
M  V30 1525 H 157.799 2.27156 -2.16931 0
M  V30 1526 H 156.992 2.17141 -4.54825 0
M  V30 1527 H 156.594 0.671105 -3.6793 0
M  V30 1528 H 158.886 2.40831 -6.33251 0
M  V30 1529 H 159.829 1.04008 -7.0042 0
M  V30 1530 H 160.237 1.68663 -5.38714 0
M  V30 1531 N 159.635 1.57281 -0.100228 0
M  V30 1532 C 160.598 2.13158 0.842398 0
M  V30 1533 C 161.598 1.06202 1.20738 0
M  V30 1534 O 162.788 1.32066 1.13597 0
M  V30 1535 C 159.92 2.65639 2.13655 0
M  V30 1536 H 161.113 2.97766 0.357114 0
M  V30 1537 H 158.666 1.5559 0.148823 0
M  V30 1538 H 159.401 1.84566 2.66657 0
M  V30 1539 H 159.186 3.43844 1.88451 0
M  V30 1540 H 160.676 3.08846 2.81077 0
M  V30 1541 N 161.113 -0.173488 1.56642 0
M  V30 1542 C 162.39 -0.917617 1.7274 0
M  V30 1543 C 162.77 -2.00484 0.661027 0
M  V30 1544 O 162.118 -2.26184 -0.32453 0
M  V30 1545 C 162.328 -1.48433 3.15862 0
M  V30 1546 C 163.676 -1.95809 3.76754 0
M  V30 1547 O 164.7 -1.58231 3.19126 0
M  V30 1548 O 163.559 -2.65024 4.77938 0
M  V30 1549 H 160.653 -0.431772 0.705338 0
M  V30 1550 H 163.199 -0.161487 1.6893 0
M  V30 1551 H 161.971 -0.701715 3.84957 0
M  V30 1552 H 161.594 -2.30471 3.23989 0
M  V30 1553 N 162.591 -1.51276 -0.441967 0
M  V30 1554 C 163.838 -1.63715 -1.19179 0
M  V30 1555 C 164.166 -0.351175 -1.91303 0
M  V30 1556 O 163.421 0.664524 -1.84072 0
M  V30 1557 C 163.72 -2.78746 -2.23686 0
M  V30 1558 C 163.386 -4.18189 -1.68607 0
M  V30 1559 C 162.048 -4.56125 -1.53308 0
M  V30 1560 C 164.4 -5.05222 -1.28062 0
M  V30 1561 C 161.728 -5.78804 -0.959317 0
M  V30 1562 C 164.08 -6.28476 -0.721162 0
M  V30 1563 C 162.744 -6.65188 -0.55504 0
M  V30 1564 H 162.014 -0.599076 -0.436106 0
M  V30 1565 H 164.661 -1.85296 -0.48351 0
M  V30 1566 H 162.966 -2.51369 -3.00535 0
M  V30 1567 H 164.663 -2.8557 -2.81515 0
M  V30 1568 H 161.253 -3.88277 -1.8149 0
M  V30 1569 H 165.437 -4.76524 -1.38704 0
M  V30 1570 H 160.693 -6.05899 -0.81833 0
M  V30 1571 H 164.867 -6.95259 -0.398458 0
M  V30 1572 H 162.494 -7.60123 -0.108311 0
M  V30 1573 N 164.069 0.697108 -1.41344 0
M  V30 1574 C 165.485 1.00751 -1.2378 0
M  V30 1575 C 165.685 2.01105 -0.126066 0
M  V30 1576 O 164.741 2.47295 0.51004 0
M  V30 1577 C 166.054 1.53359 -2.58653 0
M  V30 1578 C 167.602 1.6525 -2.65822 0
M  V30 1579 C 168.077 2.2126 -4.01009 0
M  V30 1580 N 169.568 2.28622 -4.02847 0
M  V30 1581 C 170.303 2.72984 -5.04249 0
M  V30 1582 N 169.799 3.16962 -6.16041 0
M  V30 1583 N 171.592 2.72534 -4.91611 0
M  V30 1584 H 163.743 0.0322662 -2.12375 0
M  V30 1585 H 166.006 0.0768853 -0.944877 0
M  V30 1586 H 165.712 0.870773 -3.4075 0
M  V30 1587 H 165.586 2.51597 -2.81032 0
M  V30 1588 H 167.973 2.30644 -1.84086 0
M  V30 1589 H 168.054 0.655614 -2.47256 0
M  V30 1590 H 167.698 1.56482 -4.83193 0
M  V30 1591 H 167.628 3.21698 -4.16915 0
M  V30 1592 H 170.119 1.97585 -3.22131 0
M  V30 1593 H 170.432 3.49434 -6.89287 0
M  V30 1594 H 168.777 3.14875 -6.1958 0
M  V30 1595 H 171.968 2.37525 -4.0336 0
M  V30 1596 H 172.141 3.06789 -5.70775 0
M  V30 1597 N 165.547 1.27147 0.931209 0
M  V30 1598 C 166.963 1.04475 1.20653 0
M  V30 1599 C 167.163 -0.223885 2.00252 0
M  V30 1600 O 166.219 -0.930332 2.34736 0
M  V30 1601 C 167.532 2.28209 1.95809 0
M  V30 1602 C 169.08 2.33211 2.08762 0
M  V30 1603 C 169.555 3.56665 2.87323 0
M  V30 1604 N 171.046 3.57201 2.94892 0
M  V30 1605 C 171.781 4.49395 3.56134 0
M  V30 1606 N 171.277 5.51889 4.18796 0
M  V30 1607 N 173.07 4.37026 3.53504 0
M  V30 1608 H 165.221 2.08612 0.399333 0
M  V30 1609 H 167.484 0.917312 0.239253 0
M  V30 1610 H 167.19 3.20538 1.44736 0
M  V30 1611 H 167.064 2.33247 2.96438 0
M  V30 1612 H 169.451 1.41391 2.59023 0
M  V30 1613 H 169.532 2.32178 1.07364 0
M  V30 1614 H 169.176 4.4882 2.37746 0
M  V30 1615 H 169.106 3.54948 3.88998 0
M  V30 1616 H 171.597 2.83074 2.50354 0
M  V30 1617 H 171.91 6.18409 4.63454 0
M  V30 1618 H 170.255 5.55735 4.17353 0
M  V30 1619 H 173.446 3.56166 3.03749 0
M  V30 1620 H 173.619 5.09067 4.00942 0
M  V30 1621 N 167.025 -1.13721 1.09112 0
M  V30 1622 C 167.988 -2.17222 0.731241 0
M  V30 1623 C 168.988 -1.59035 -0.237566 0
M  V30 1624 O 170.178 -1.74192 -0.0161704 0
M  V30 1625 C 167.31 -3.40804 0.0808443 0
M  V30 1626 H 168.503 -2.50573 1.64783 0
M  V30 1627 H 166.056 -1.28493 0.889897 0
M  V30 1628 H 166.791 -3.1304 -0.847127 0
M  V30 1629 H 166.576 -3.84306 0.777896 0
M  V30 1630 H 168.066 -4.1731 -0.155657 0
M  V30 1631 N 168.503 -0.877838 -1.30888 0
M  V30 1632 C 169.733 -0.506678 -2.00291 0
M  V30 1633 C 170.141 0.907449 -1.66018 0
M  V30 1634 O 169.484 1.60719 -0.88967 0
M  V30 1635 C 169.546 -0.59323 -3.54572 0
M  V30 1636 C 169.21 -1.97038 -4.12341 0
M  V30 1637 C 170.207 -2.93889 -4.28865 0
M  V30 1638 C 167.892 -2.27383 -4.47886 0
M  V30 1639 C 169.886 -4.19224 -4.80136 0
M  V30 1640 C 167.573 -3.52965 -4.98857 0
M  V30 1641 C 168.571 -4.48701 -5.14934 0
M  V30 1642 O 168.259 -5.72056 -5.64808 0
M  V30 1643 H 167.991 -0.1951 -0.647234 0
M  V30 1644 H 170.545 -1.18301 -1.6791 0
M  V30 1645 H 168.775 0.140057 -3.86446 0
M  V30 1646 H 170.464 -0.234372 -4.05223 0
M  V30 1647 H 171.23 -2.71756 -4.01714 0
M  V30 1648 H 167.109 -1.53639 -4.34645 0
M  V30 1649 H 170.653 -4.93956 -4.92599 0
M  V30 1650 H 166.55 -3.74939 -5.25443 0
M  V30 1651 H 167.318 -5.74337 -5.83163 0
M  V30 1652 N 169.982 1.44106 -0.638065 0
M  V30 1653 C 170.892 2.34513 0.0637334 0
M  V30 1654 C 171.908 1.53018 0.828346 0
M  V30 1655 O 173.084 1.85723 0.779036 0
M  V30 1656 C 170.149 3.31095 1.02844 0
M  V30 1657 C 169.21 4.28497 0.26244 0
M  V30 1658 C 168.443 5.20465 1.1812 0
M  V30 1659 O 168.666 5.16514 2.42011 0
M  V30 1660 O 167.6 5.98251 0.661774 0
M  V30 1661 H 171.426 2.95989 -0.68003 0
M  V30 1662 H 169.011 1.43994 -0.398252 0
M  V30 1663 H 170.893 3.90526 1.58327 0
M  V30 1664 H 169.568 2.72144 1.7527 0
M  V30 1665 H 168.475 3.72592 -0.335602 0
M  V30 1666 H 169.808 4.90388 -0.421936 0
M  V30 1667 N 171.46 0.379036 1.52974 0
M  V30 1668 C 172.39 -0.452706 2.29069 0
M  V30 1669 C 173.371 -1.07237 1.32039 0
M  V30 1670 O 174.556 -1.08708 1.60923 0
M  V30 1671 C 171.686 -1.5856 3.08992 0
M  V30 1672 C 170.64 -1.0925 4.13822 0
M  V30 1673 C 169.966 -2.31668 4.81907 0
M  V30 1674 C 171.266 -0.167702 5.22031 0
M  V30 1675 H 172.96 0.182181 2.98845 0
M  V30 1676 H 170.506 0.0890592 1.43724 0
M  V30 1677 H 172.459 -2.1742 3.6098 0
M  V30 1678 H 171.183 -2.24792 2.36931 0
M  V30 1679 H 169.842 -0.526494 3.628 0
M  V30 1680 H 169.49 -2.96386 4.06404 0
M  V30 1681 H 169.19 -1.9934 5.52754 0
M  V30 1682 H 170.714 -2.91189 5.36695 0
M  V30 1683 H 172.128 -0.664186 5.6944 0
M  V30 1684 H 170.525 0.0653265 6.00064 0
M  V30 1685 H 171.595 0.786347 4.78482 0
M  V30 1686 N 172.938 -1.57226 0.108567 0
M  V30 1687 C 173.886 -2.16002 -0.862885 0
M  V30 1688 C 174.88 -1.10644 -1.28274 0
M  V30 1689 O 176.086 -1.28966 -1.2557 0
M  V30 1690 H 172.461 -0.691148 -0.296342 0
M  V30 1691 H 174.432 -2.96427 -0.342575 0
M  V30 1692 C 173.181 -2.76576 -2.10716 0
M  V30 1693 H 172.504 -3.5734 -1.793 0
M  V30 1694 H 173.944 -3.21253 -2.76717 0
M  V30 1695 C 172.403 -1.73137 -2.89007 0
M  V30 1696 O 172.933 -1.17842 -3.84026 0
M  V30 1697 N 171.139 -1.43317 -2.52801 0
M  V30 1698 H 170.686 -1.88473 -1.75601 0
M  V30 1699 H 170.644 -0.743485 -3.05483 0
M  V30 1700 N 174.416 0.165178 -1.56732 0
M  V30 1701 C 175.662 0.882112 -1.82611 0
M  V30 1702 C 175.995 1.81628 -0.687378 0
M  V30 1703 O 175.27 1.92009 0.310267 0
M  V30 1704 C 175.553 1.67245 -3.18906 0
M  V30 1705 C 175.406 0.760987 -4.43316 0
M  V30 1706 C 176.725 2.63884 -3.52212 0
M  V30 1707 H 173.844 0.319242 -0.664269 0
M  V30 1708 H 176.486 0.148052 -1.89422 0
M  V30 1709 H 174.636 2.29824 -3.1323 0
M  V30 1710 H 176.308 0.147596 -4.61064 0
M  V30 1711 H 174.551 0.0694102 -4.33744 0
M  V30 1712 H 175.222 1.34962 -5.35247 0
M  V30 1713 H 177.698 2.11429 -3.58381 0
M  V30 1714 H 176.574 3.16245 -4.48643 0
M  V30 1715 H 176.835 3.44377 -2.77231 0
M  V30 1716 N 175.894 1.51508 0.433938 0
M  V30 1717 C 177.141 1.64345 1.18309 0
M  V30 1718 C 177.469 0.361315 1.91115 0
M  V30 1719 O 176.724 -0.654753 1.84422 0
M  V30 1720 C 177.023 2.79928 2.22205 0
M  V30 1721 C 176.689 4.19078 1.66387 0
M  V30 1722 C 175.351 4.56932 1.50887 0
M  V30 1723 C 177.703 5.05894 1.25381 0
M  V30 1724 C 175.031 5.79305 0.928608 0
M  V30 1725 C 177.383 6.2885 0.687823 0
M  V30 1726 C 176.047 6.65473 0.519755 0
M  V30 1727 H 175.317 0.601381 0.432923 0
M  V30 1728 H 177.964 1.85549 0.473676 0
M  V30 1729 H 176.269 2.52959 2.99197 0
M  V30 1730 H 177.966 2.87059 2.79997 0
M  V30 1731 H 174.556 3.89234 1.79428 0
M  V30 1732 H 178.74 4.77253 1.36175 0
M  V30 1733 H 173.996 6.06324 0.786186 0
M  V30 1734 H 178.17 6.95461 0.361581 0
M  V30 1735 H 175.797 7.6017 0.0679979 0
M  V30 1736 N 177.372 -0.689602 1.41712 0
M  V30 1737 C 178.597 -1.48329 1.44959 0
M  V30 1738 C 179.022 -1.8801 0.0581283 0
M  V30 1739 O 178.38 -1.55026 -0.940035 0
M  V30 1740 C 178.428 -2.71835 2.36935 0
M  V30 1741 O 177.532 -3.69549 1.8305 0
M  V30 1742 H 176.873 -0.446199 0.491734 0
M  V30 1743 H 179.403 -0.847127 1.86239 0
M  V30 1744 H 179.413 -3.20076 2.53013 0
M  V30 1745 H 178.088 -2.42291 3.38035 0
M  V30 1746 H 176.665 -3.2851 1.76452 0
M  V30 1747 N 178.85 -1.27639 -0.924453 0
M  V30 1748 C 180.097 -1.14167 -1.67249 0
M  V30 1749 C 180.425 0.311863 -1.91984 0
M  V30 1750 O 179.68 1.24425 -1.51053 0
M  V30 1751 C 179.979 -1.87407 -3.04325 0
M  V30 1752 C 179.645 -3.37249 -2.99289 0
M  V30 1753 C 178.307 -3.7812 -2.97622 0
M  V30 1754 C 180.659 -4.32845 -2.90336 0
M  V30 1755 C 177.987 -5.12944 -2.8479 0
M  V30 1756 C 180.339 -5.6773 -2.79045 0
M  V30 1757 C 179.003 -6.07889 -2.7573 0
M  V30 1758 H 178.273 -0.417766 -0.612007 0
M  V30 1759 H 180.92 -1.58286 -1.07786 0
M  V30 1760 H 179.225 -1.35805 -3.67511 0
M  V30 1761 H 180.922 -1.74408 -3.61086 0
M  V30 1762 H 177.512 -3.04748 -3.01374 0
M  V30 1763 H 181.696 -4.02239 -2.90719 0
M  V30 1764 H 176.952 -5.432 -2.80612 0
M  V30 1765 H 181.126 -6.41472 -2.71083 0
M  V30 1766 H 178.753 -7.12314 -2.65544 0
M  V30 1767 N 180.328 1.1314 -1.09713 0
M  V30 1768 C 181.575 1.84484 -0.834987 0
M  V30 1769 C 181.903 1.83689 0.639418 0
M  V30 1770 O 181.158 1.2724 1.4869 0
M  V30 1771 C 181.457 3.32167 -1.3191 0
M  V30 1772 C 181.123 3.53139 -2.80363 0
M  V30 1773 C 179.785 3.58571 -3.20905 0
M  V30 1774 C 182.137 3.60866 -3.76065 0
M  V30 1775 C 179.465 3.69267 -4.55916 0
M  V30 1776 C 181.817 3.73089 -5.10869 0
M  V30 1777 C 180.481 3.76775 -5.50996 0
M  V30 1778 H 179.751 0.675073 -0.305544 0
M  V30 1779 H 182.398 1.33554 -1.37243 0
M  V30 1780 H 180.703 3.85469 -0.701517 0
M  V30 1781 H 182.4 3.85821 -1.09284 0
M  V30 1782 H 178.99 3.49569 -2.47991 0
M  V30 1783 H 183.174 3.55946 -3.45855 0
M  V30 1784 H 178.43 3.70388 -4.86438 0
M  V30 1785 H 182.604 3.78011 -5.84877 0
M  V30 1786 H 180.231 3.84815 -6.55608 0
M  V30 1787 N 181.806 0.884767 1.30421 0
M  V30 1788 C 182.756 0.322846 2.25703 0
M  V30 1789 C 183.74 -0.548582 1.51259 0
M  V30 1790 O 184.932 -0.39304 1.72581 0
M  V30 1791 C 182.061 -0.461787 3.4018 0
M  V30 1792 C 181.147 0.423717 4.21978 0
M  V30 1793 N 181.538 1.52408 4.82292 0
M  V30 1794 C 179.836 0.218795 4.45463 0
M  V30 1795 C 180.537 2.07136 5.43571 0
M  V30 1796 N 179.513 1.36635 5.26148 0
M  V30 1797 H 183.315 1.16363 2.69883 0
M  V30 1798 H 180.829 0.73415 1.44859 0
M  V30 1799 H 182.826 -0.880985 4.07485 0
M  V30 1800 H 181.486 -1.30001 2.9754 0
M  V30 1801 H 182.497 1.90693 4.81515 0
M  V30 1802 H 179.174 -0.582275 4.1342 0
M  V30 1803 H 180.564 2.99538 6.01437 0
M  V30 1804 N 183.284 -1.43765 0.645699 0
M  V30 1805 C 184.214 -2.33471 -0.0370477 0
M  V30 1806 C 185.195 -1.49042 -0.819779 0
M  V30 1807 O 186.38 -1.77726 -0.782758 0
M  V30 1808 C 183.51 -3.32311 -1.0093 0
M  V30 1809 C 182.464 -4.2667 -0.337201 0
M  V30 1810 C 181.79 -5.1549 -1.42037 0
M  V30 1811 C 183.09 -5.16657 0.765706 0
M  V30 1812 H 184.784 -2.90809 0.712069 0
M  V30 1813 H 182.33 -1.39834 0.343876 0
M  V30 1814 H 184.283 -3.9396 -1.49578 0
M  V30 1815 H 183.007 -2.73213 -1.78948 0
M  V30 1816 H 181.666 -3.66374 0.128771 0
M  V30 1817 H 181.314 -4.52735 -2.1918 0
M  V30 1818 H 181.014 -5.79438 -0.975966 0
M  V30 1819 H 182.538 -5.80012 -1.90838 0
M  V30 1820 H 183.952 -5.72158 0.361702 0
M  V30 1821 H 182.349 -5.89286 1.13413 0
M  V30 1822 H 183.419 -4.56796 1.62683 0
M  V30 1823 N 184.763 -0.387143 -1.52771 0
M  V30 1824 C 185.988 0.198407 -2.06449 0
M  V30 1825 C 186.413 1.39918 -1.25716 0
M  V30 1826 O 185.771 1.79099 -0.281657 0
M  V30 1827 C 185.819 0.548893 -3.56398 0
M  V30 1828 O 184.923 1.64315 -3.78252 0
M  V30 1829 H 184.264 0.0237731 -0.663574 0
M  V30 1830 H 186.794 -0.553989 -1.96957 0
M  V30 1831 H 186.804 0.813812 -3.99801 0
M  V30 1832 H 185.479 -0.329005 -4.14597 0
M  V30 1833 H 184.056 1.37211 -3.46738 0
M  V30 1834 N 186.241 1.57166 -0.116904 0
M  V30 1835 C 187.173 2.12271 0.864507 0
M  V30 1836 C 188.186 1.06494 1.23138 0
M  V30 1837 O 189.375 1.33873 1.18069 0
M  V30 1838 C 186.475 2.60564 2.16702 0
M  V30 1839 C 185.648 3.90416 1.97216 0
M  V30 1840 C 184.707 4.24329 3.11178 0
M  V30 1841 O 183.733 4.93182 2.84184 0
M  V30 1842 N 184.935 3.8148 4.37554 0
M  V30 1843 H 187.7 2.97102 0.393726 0
M  V30 1844 H 185.261 1.61759 0.0675805 0
M  V30 1845 H 187.253 2.80282 2.91932 0
M  V30 1846 H 185.823 1.80623 2.55135 0
M  V30 1847 H 185.043 3.79627 1.06192 0
M  V30 1848 H 186.331 4.75327 1.81499 0
M  V30 1849 H 185.729 3.25943 4.62361 0
M  V30 1850 H 184.286 4.06311 5.09661 0
M  V30 1851 N 187.719 -0.156864 1.56817 0
M  V30 1852 C 188.649 -1.19589 2.00551 0
M  V30 1853 C 189.63 -1.4536 0.883426 0
M  V30 1854 O 190.815 -1.56449 1.15054 0
M  V30 1855 C 187.945 -2.53143 2.37773 0
M  V30 1856 C 186.899 -2.41913 3.53075 0
M  V30 1857 C 186.225 -3.80088 3.76081 0
M  V30 1858 C 187.525 -1.91157 4.86062 0
M  V30 1859 H 189.219 -0.832293 2.87599 0
M  V30 1860 H 186.765 -0.398918 1.38364 0
M  V30 1861 H 188.718 -3.26047 2.66967 0
M  V30 1862 H 187.442 -2.91319 1.4765 0
M  V30 1863 H 186.101 -1.71462 3.24031 0
M  V30 1864 H 185.749 -4.15683 2.83225 0
M  V30 1865 H 185.449 -3.73439 4.53671 0
M  V30 1866 H 186.973 -4.54556 4.0769 0
M  V30 1867 H 188.387 -2.53846 5.14038 0
M  V30 1868 H 186.784 -1.95422 5.67389 0
M  V30 1869 H 187.854 -0.866673 4.77092 0
M  V30 1870 N 189.197 -1.51736 -0.425897 0
M  V30 1871 C 190.443 -1.65214 -1.1761 0
M  V30 1872 C 190.776 -0.372778 -1.90589 0
M  V30 1873 O 190.051 0.628139 -1.84078 0
M  V30 1874 C 190.334 -2.86312 -2.18398 0
M  V30 1875 C 190.187 -4.24254 -1.49426 0
M  V30 1876 C 191.506 -3.02925 -3.19256 0
M  V30 1877 H 188.625 -0.601263 -0.426206 0
M  V30 1878 H 191.267 -1.8425 -0.463882 0
M  V30 1879 H 189.417 -2.70213 -2.79137 0
M  V30 1880 H 191.089 -4.52046 -0.919362 0
M  V30 1881 H 189.332 -4.26426 -0.796432 0
M  V30 1882 H 190.003 -5.05001 -2.22885 0
M  V30 1883 H 192.479 -3.1781 -2.68581 0
M  V30 1884 H 191.355 -3.89199 -3.8706 0
M  V30 1885 H 191.616 -2.15497 -3.86023 0
M  V30 1886 N 190.675 0.682077 -1.42076 0
M  V30 1887 C 191.638 1.77756 -1.44691 0
M  V30 1888 C 192.638 1.5726 -0.335535 0
M  V30 1889 O 193.828 1.63686 -0.596037 0
M  V30 1890 C 190.96 3.16301 -1.27146 0
M  V30 1891 H 192.153 1.76826 -2.42224 0
M  V30 1892 H 189.706 0.891012 -1.28416 0
M  V30 1893 H 190.441 3.22862 -0.305075 0
M  V30 1894 H 190.226 3.32581 -2.07683 0
M  V30 1895 H 191.716 3.96241 -1.31843 0
M  V30 1896 N 192.153 1.28127 0.917671 0
M  V30 1897 C 193.564 1.13622 1.48145 0
M  V30 1898 C 193.915 -0.275207 1.9426 0
M  V30 1899 O 193.04 -1.1691 1.82102 0
M  V30 1900 C 193.635 2.05648 2.69248 0
M  V30 1901 C 192.194 1.95219 3.21818 0
M  V30 1902 C 191.341 1.97618 1.94532 0
M  V30 1903 H 194.292 1.40874 0.730772 0
M  V30 1904 H 194.313 1.61818 3.44377 0
M  V30 1905 H 193.825 3.08365 2.35653 0
M  V30 1906 H 191.926 0.955244 3.60147 0
M  V30 1907 H 192.039 2.81976 3.87333 0
M  V30 1908 H 190.403 1.41973 2.11461 0
M  V30 1909 H 191.186 3.02007 1.63238 0
M  V30 1910 N 193.631 -1.12557 1.10312 0
M  V30 1911 C 194.541 -2.21841 0.763142 0
M  V30 1912 C 195.557 -1.72354 -0.238801 0
M  V30 1913 O 196.733 -2.01249 -0.0778746 0
M  V30 1914 C 193.798 -3.46131 0.198632 0
M  V30 1915 C 192.859 -4.10464 1.25769 0
M  V30 1916 C 192.092 -5.28821 0.72002 0
M  V30 1917 O 192.315 -5.6859 -0.453993 0
M  V30 1918 O 191.249 -5.83437 1.47935 0
M  V30 1919 H 195.075 -2.53312 1.67532 0
M  V30 1920 H 192.66 -1.20867 0.878157 0
M  V30 1921 H 194.542 -4.2125 -0.112401 0
M  V30 1922 H 193.217 -3.16338 -0.686419 0
M  V30 1923 H 192.124 -3.3713 1.62156 0
M  V30 1924 H 193.457 -4.44408 2.11571 0
M  V30 1925 N 195.109 -0.891671 -1.2995 0
M  V30 1926 C 196.042 -0.307994 -2.26112 0
M  V30 1927 C 197.02 0.575262 -1.52084 0
M  V30 1928 O 198.204 0.523864 -1.81074 0
M  V30 1929 C 195.331 0.561734 -3.34009 0
M  V30 1930 C 194.377 -0.253107 -4.25748 0
M  V30 1931 S 195.21 -1.64572 -5.09584 0
M  V30 1932 C 196.366 -0.782699 -6.20987 0
M  V30 1933 H 196.599 -1.12309 -2.75271 0
M  V30 1934 H 194.132 -0.691509 -1.38049 0
M  V30 1935 H 196.09 1.05777 -3.96638 0
M  V30 1936 H 194.751 1.35099 -2.83561 0
M  V30 1937 H 193.944 0.410908 -5.02322 0
M  V30 1938 H 193.546 -0.682004 -3.67729 0
M  V30 1939 H 195.838 -0.00257476 -6.775 0
M  V30 1940 H 196.781 -1.52026 -6.91588 0
M  V30 1941 H 197.189 -0.340638 -5.63471 0
M  V30 1942 N 196.587 1.43421 -0.653314 0
M  V30 1943 C 197.497 2.34568 0.0388565 0
M  V30 1944 C 198.513 1.53888 0.81207 0
M  V30 1945 O 199.689 1.86539 0.759294 0
M  V30 1946 C 196.754 3.32167 0.993269 0
M  V30 1947 C 195.815 4.28751 0.216977 0
M  V30 1948 C 195.048 5.21688 1.12593 0
M  V30 1949 O 195.271 5.19052 2.36519 0
M  V30 1950 O 194.205 5.98919 0.598284 0
M  V30 1951 H 198.031 2.95251 -0.711386 0
M  V30 1952 H 195.616 1.43564 -0.413502 0
M  V30 1953 H 197.498 3.92183 1.54176 0
M  V30 1954 H 196.173 2.73987 1.72374 0
M  V30 1955 H 195.08 3.72215 -0.375101 0
M  V30 1956 H 196.413 4.89913 -0.473924 0
M  V30 1957 N 198.065 0.39524 1.52563 0
M  V30 1958 C 199.012 -0.437036 2.26624 0
M  V30 1959 C 199.982 -1.05281 1.28472 0
M  V30 1960 O 201.167 -1.07971 1.57311 0
M  V30 1961 C 198.307 -1.55524 3.08069 0
M  V30 1962 C 197.42 -0.961745 4.21158 0
M  V30 1963 C 196.555 -2.05149 4.89987 0
M  V30 1964 C 195.594 -1.4342 5.95061 0
M  V30 1965 N 194.731 -2.46351 6.57462 0
M  V30 1966 H 199.571 0.200976 2.97322 0
M  V30 1967 H 197.108 0.110944 1.46681 0
M  V30 1968 H 199.066 -2.21437 3.53584 0
M  V30 1969 H 197.696 -2.16348 2.3957 0
M  V30 1970 H 196.748 -0.192048 3.79915 0
M  V30 1971 H 198.06 -0.470701 4.96574 0
M  V30 1972 H 197.214 -2.78819 5.38837 0
M  V30 1973 H 195.953 -2.57615 4.14109 0
M  V30 1974 H 194.958 -0.682774 5.45544 0
M  V30 1975 H 196.183 -0.917416 6.72875 0
M  V30 1976 H 194.129 -2.97975 5.8442 0
M  V30 1977 H 194.046 -2.02019 7.28508 0
M  V30 1978 H 195.314 -3.19633 7.10954 0
M  V30 1979 N 199.544 -1.57102 0.125237 0
M  V30 1980 C 200.492 -2.16905 -0.839927 0
M  V30 1981 C 201.486 -1.11998 -1.27094 0
M  V30 1982 O 202.692 -1.3029 -1.24195 0
M  V30 1983 H 199.067 -0.694252 -0.288995 0
M  V30 1984 H 201.038 -2.96774 -0.311115 0
M  V30 1985 C 199.787 -2.78795 -2.07771 0
M  V30 1986 H 199.11 -3.59221 -1.755 0
M  V30 1987 H 200.55 -3.2417 -2.73295 0
M  V30 1988 C 199.009 -1.76193 -2.87155 0
M  V30 1989 O 199.539 -1.21909 -3.82755 0
M  V30 1990 N 197.745 -1.45991 -2.51267 0
M  V30 1991 H 197.292 -1.90325 -1.73592 0
M  V30 1992 H 197.25 -0.775844 -3.04677 0
M  V30 1993 N 201.022 0.148545 -1.56898 0
M  V30 1994 C 202.27 0.859717 -1.82902 0
M  V30 1995 C 202.591 1.81775 -0.70588 0
M  V30 1996 O 201.861 1.93994 0.272586 0
M  V30 1997 H 200.441 0.320469 -0.674766 0
M  V30 1998 H 203.103 0.142918 -1.94375 0
M  V30 1999 H 202.199 1.4229 -2.77777 0
M  V30 2000 N 202.5 1.5196 0.417844 0
M  V30 2001 C 203.748 1.65263 1.16329 0
M  V30 2002 C 204.069 0.380634 1.91249 0
M  V30 2003 O 203.339 -0.604214 1.86349 0
M  V30 2004 H 201.919 0.60912 0.432414 0
M  V30 2005 H 204.581 1.88969 0.477162 0
M  V30 2006 H 203.677 2.4896 1.88217 0
M  V30 2007 N 203.978 -0.674533 1.42435 0
M  V30 2008 C 205.226 -1.43175 1.42637 0
M  V30 2009 C 205.547 -1.94951 0.0438992 0
M  V30 2010 O 204.817 -1.7308 -0.917607 0
M  V30 2011 H 203.397 -0.531307 0.525092 0
M  V30 2012 H 206.059 -0.797006 1.77859 0
M  V30 2013 H 205.155 -2.28463 2.12629 0
M  V30 2014 N 205.456 -1.28612 -0.910864 0
M  V30 2015 C 206.702 -1.16106 -1.66274 0
M  V30 2016 C 207.035 0.289113 -1.92036 0
M  V30 2017 O 206.31 1.21 -1.52281 0
M  V30 2018 C 206.593 -1.96309 -3.01885 0
M  V30 2019 C 206.446 -3.49405 -2.8326 0
M  V30 2020 C 207.765 -1.78076 -4.02463 0
M  V30 2021 H 204.884 -0.423152 -0.603417 0
M  V30 2022 H 207.526 -1.57961 -1.05586 0
M  V30 2023 H 205.676 -1.60742 -3.53687 0
M  V30 2024 H 207.348 -3.94894 -2.38446 0
M  V30 2025 H 205.591 -3.74893 -2.18261 0
M  V30 2026 H 206.262 -4.00784 -3.79574 0
M  V30 2027 H 208.738 -2.0912 -3.59733 0
M  V30 2028 H 207.614 -2.36561 -4.95308 0
M  V30 2029 H 207.875 -0.733008 -4.35981 0
M  V30 2030 N 206.934 1.1197 -1.10907 0
M  V30 2031 C 208.183 1.82947 -0.849302 0
M  V30 2032 C 208.496 1.85275 0.627112 0
M  V30 2033 O 209.702 2.52296 1.00295 0
M  V30 2034 C 208.158 3.28529 -1.46959 0
M  V30 2035 C 207.766 3.34546 -2.97965 0
M  V30 2036 C 209.51 4.04443 -1.28942 0
M  V30 2037 C 207.417 4.74491 -3.53004 0
M  V30 2038 H 206.347 0.685477 -0.314065 0
M  V30 2039 H 208.998 1.2604 -1.33365 0
M  V30 2040 H 207.38 3.85333 -0.912917 0
M  V30 2041 H 208.554 2.87654 -3.59989 0
M  V30 2042 H 206.869 2.72108 -3.15192 0
M  V30 2043 H 209.466 5.07787 -1.67502 0
M  V30 2044 H 209.809 4.15656 -0.231456 0
M  V30 2045 H 210.342 3.5401 -1.81443 0
M  V30 2046 H 207.081 4.68474 -4.58489 0
M  V30 2047 H 206.601 5.21816 -2.9575 0
M  V30 2048 H 208.28 5.4344 -3.51115 0
M  V30 2049 N 208.412 0.89855 1.29475 0
M  V30 2050 C 209.342 0.39201 2.30186 0
M  V30 2051 C 210.323 -0.532359 1.61555 0
M  V30 2052 O 211.508 -0.443331 1.89072 0
M  V30 2053 C 208.638 -0.382353 3.45189 0
M  V30 2054 C 207.592 0.451483 4.25612 0
M  V30 2055 C 206.918 -0.450307 5.328 0
M  V30 2056 C 208.218 1.70079 4.93832 0
M  V30 2057 H 209.912 1.23362 2.72804 0
M  V30 2058 H 207.458 0.594638 1.31149 0
M  V30 2059 H 209.411 -0.747451 4.14718 0
M  V30 2060 H 208.135 -1.25774 3.01411 0
M  V30 2061 H 206.794 0.798897 3.57789 0
M  V30 2062 H 206.442 -1.32379 4.85268 0
M  V30 2063 H 206.142 0.103902 5.87508 0
M  V30 2064 H 207.666 -0.811623 6.05182 0
M  V30 2065 H 209.08 1.40549 5.55805 0
M  V30 2066 H 207.477 2.19623 5.58467 0
M  V30 2067 H 208.547 2.43744 4.19186 0
M  V30 2068 N 209.89 -1.43072 0.660911 0
M  V30 2069 C 211.118 -2.06067 0.185422 0
M  V30 2070 C 211.533 -1.49582 -1.15198 0
M  V30 2071 O 210.89 -0.630134 -1.71276 0
M  V30 2072 C 210.941 -3.61371 0.0966523 0
M  V30 2073 O 210.662 -4.15758 1.38119 0
M  V30 2074 C 212.163 -4.41455 -0.403996 0
M  V30 2075 H 209.383 -0.664459 0.0934604 0
M  V30 2076 H 211.927 -1.83447 0.90373 0
M  V30 2077 H 210.082 -3.8315 -0.572259 0
M  V30 2078 H 210.496 -5.09499 1.24542 0
M  V30 2079 H 211.97 -5.50437 -0.415045 0
M  V30 2080 H 212.447 -4.15036 -1.43674 0
M  V30 2081 H 213.053 -4.24663 0.232691 0
M  V30 2082 N 211.368 -0.403325 -1.52352 0
M  V30 2083 C 212.617 0.175668 -2.00934 0
M  V30 2084 C 212.93 1.46718 -1.29356 0
M  V30 2085 O 214.136 2.12708 -1.68724 0
M  V30 2086 C 212.592 0.363612 -3.58058 0
M  V30 2087 C 212.2 -0.915472 -4.38547 0
M  V30 2088 C 213.944 0.89821 -4.14888 0
M  V30 2089 C 211.851 -0.695035 -5.87302 0
M  V30 2090 H 210.781 0.0694234 -0.750797 0
M  V30 2091 H 213.432 -0.527879 -1.75743 0
M  V30 2092 H 211.814 1.12935 -3.79555 0
M  V30 2093 H 212.988 -1.68691 -4.28812 0
M  V30 2094 H 211.303 -1.37606 -3.93006 0
M  V30 2095 H 213.9 1.07907 -5.23699 0
M  V30 2096 H 214.243 1.87126 -3.71873 0
M  V30 2097 H 214.776 0.191681 -3.97338 0
M  V30 2098 H 211.515 -1.63948 -6.34666 0
M  V30 2099 H 211.035 0.0372116 -5.99788 0
M  V30 2100 H 212.714 -0.33497 -6.46132 0
M  V30 2101 N 212.846 1.57033 -0.133567 0
M  V30 2102 C 214.074 2.00044 0.528195 0
M  V30 2103 C 214.489 1.01349 1.59291 0
M  V30 2104 O 213.846 0.00848369 1.82498 0
M  V30 2105 C 213.897 3.43018 1.1411 0
M  V30 2106 O 213.618 4.37939 0.11892 0
M  V30 2107 C 215.119 4.01237 1.88477 0
M  V30 2108 H 212.339 0.656517 0.138661 0
M  V30 2109 H 214.883 2.03267 -0.224196 0
M  V30 2110 H 213.038 3.40688 1.84418 0
M  V30 2111 H 213.452 5.21436 0.56613 0
M  V30 2112 H 214.926 5.03314 2.26669 0
M  V30 2113 H 215.403 3.41193 2.76558 0
M  V30 2114 H 216.009 4.07156 1.22898 0
M  V30 2115 N 214.325 -0.140222 1.56975 0
M  V30 2116 C 215.55 -0.870414 1.88251 0
M  V30 2117 C 215.975 -1.73637 0.723312 0
M  V30 2118 O 215.333 -1.78329 -0.32689 0
M  V30 2119 C 215.381 -1.69737 3.18154 0
M  V30 2120 O 214.485 -2.80229 3.02565 0
M  V30 2121 H 213.826 -0.242025 0.61832 0
M  V30 2122 H 216.356 -0.128999 2.04193 0
M  V30 2123 H 216.366 -2.09099 3.50345 0
M  V30 2124 H 215.041 -1.06152 4.02125 0
M  V30 2125 H 213.618 -2.44224 2.81796 0
M  V30 2126 N 215.803 -1.52179 -0.40978 0
M  V30 2127 C 216.736 -1.70196 -1.52015 0
M  V30 2128 C 217.714 -0.549542 -1.53032 0
M  V30 2129 O 218.898 -0.776815 -1.71749 0
M  V30 2130 C 216.025 -1.74069 -2.90547 0
M  V30 2131 C 215.071 -2.95601 -3.07445 0
M  V30 2132 S 215.904 -4.55956 -2.80827 0
M  V30 2133 C 217.06 -4.62614 -4.21591 0
M  V30 2134 H 217.293 -2.64109 -1.36504 0
M  V30 2135 H 214.826 -1.4221 -0.601312 0
M  V30 2136 H 216.784 -1.76985 -3.70387 0
M  V30 2137 H 215.445 -0.812835 -3.034 0
M  V30 2138 H 214.638 -2.94791 -4.08796 0
M  V30 2139 H 214.24 -2.90569 -2.35469 0
M  V30 2140 H 216.532 -4.39951 -5.15218 0
M  V30 2141 H 217.475 -5.64548 -4.27424 0
M  V30 2142 H 217.883 -3.91654 -4.06531 0
M  V30 2143 N 217.281 0.66697 -1.42791 0
M  V30 2144 C 218.244 1.76211 -1.46568 0
M  V30 2145 C 219.244 1.56896 -0.352196 0
M  V30 2146 O 220.434 1.63044 -0.613364 0
M  V30 2147 C 217.566 3.14935 -1.30494 0
M  V30 2148 H 218.759 1.74247 -2.44086 0
M  V30 2149 H 216.312 0.877342 -1.29354 0
M  V30 2150 H 217.047 3.2252 -0.339301 0
M  V30 2151 H 216.832 3.30359 -2.11199 0
M  V30 2152 H 218.322 3.94821 -1.36038 0
M  V30 2153 N 218.759 1.29093 0.90403 0
M  V30 2154 C 219.722 1.1386 1.98919 0
M  V30 2155 C 220.722 0.0753457 1.60623 0
M  V30 2156 O 221.912 0.321931 1.71199 0
M  V30 2157 C 219.044 0.740198 3.32767 0
M  V30 2158 H 220.237 2.10246 2.13861 0
M  V30 2159 H 217.79 1.12218 1.08797 0
M  V30 2160 H 218.525 -0.223997 3.23525 0
M  V30 2161 H 218.31 1.50838 3.61926 0
M  V30 2162 H 219.8 0.656546 4.12407 0
M  V30 2163 N 220.237 -1.11381 1.11499 0
M  V30 2164 C 221.147 -2.21019 0.786628 0
M  V30 2165 C 222.163 -1.72597 -0.220507 0
M  V30 2166 O 223.339 -2.01321 -0.0565251 0
M  V30 2167 C 220.404 -3.459 0.235333 0
M  V30 2168 C 219.465 -4.09107 1.30115 0
M  V30 2169 C 218.698 -5.28027 0.776068 0
M  V30 2170 O 218.921 -5.6904 -0.393661 0
M  V30 2171 O 217.855 -5.81835 1.54114 0
M  V30 2172 H 221.681 -2.51521 1.70209 0
M  V30 2173 H 219.266 -1.19928 0.890928 0
M  V30 2174 H 221.148 -4.21346 -0.067715 0
M  V30 2175 H 219.823 -3.17049 -0.652828 0
M  V30 2176 H 218.73 -3.35391 1.65722 0
M  V30 2177 H 220.063 -4.42139 2.16273 0
M  V30 2178 N 221.715 -0.905404 -1.28997 0
M  V30 2179 C 222.663 -0.377431 -2.29517 0
M  V30 2180 C 223.657 0.526461 -1.61012 0
M  V30 2181 O 224.863 0.40863 -1.753 0
M  V30 2182 H 221.238 -0.103437 -0.744852 0
M  V30 2183 H 223.209 -1.23848 -2.71485 0
M  V30 2184 C 221.958 0.374833 -3.45674 0
M  V30 2185 H 221.281 -0.311474 -3.98585 0
M  V30 2186 H 222.721 0.70903 -4.1803 0
M  V30 2187 C 221.18 1.57963 -2.97572 0
M  V30 2188 O 221.71 2.67886 -2.99333 0
M  V30 2189 N 219.916 1.42375 -2.53333 0
M  V30 2190 H 219.463 0.529466 -2.521 0
M  V30 2191 H 219.421 2.23117 -2.21509 0
M  V30 2192 N 223.193 1.4272 -0.668489 0
M  V30 2193 C 224.14 2.30796 0.0137489 0
M  V30 2194 C 225.11 1.4561 0.799177 0
M  V30 2195 O 226.295 1.74453 0.772702 0
M  V30 2196 C 223.435 3.31377 0.963507 0
M  V30 2197 C 222.548 4.31655 0.172569 0
M  V30 2198 C 221.683 5.19312 1.1175 0
M  V30 2199 C 220.722 6.11274 0.317886 0
M  V30 2200 N 219.859 6.91504 1.2152 0
M  V30 2201 H 224.699 2.88585 -0.743161 0
M  V30 2202 H 222.236 1.42154 -0.378226 0
M  V30 2203 H 224.194 3.88214 1.52792 0
M  V30 2204 H 222.824 2.75202 1.68712 0
M  V30 2205 H 221.876 3.76988 -0.508374 0
M  V30 2206 H 223.188 4.96779 -0.448527 0
M  V30 2207 H 222.342 5.80851 1.75206 0
M  V30 2208 H 221.081 4.5435 1.77249 0
M  V30 2209 H 220.086 5.48809 -0.329918 0
M  V30 2210 H 221.311 6.78283 -0.332917 0
M  V30 2211 H 219.257 6.29176 1.85671 0
M  V30 2212 H 219.174 7.53209 0.649036 0
M  V30 2213 H 220.442 7.57535 1.83742 0
M  V30 2214 N 224.671 0.411399 1.52136 0
M  V30 2215 C 225.619 -0.427633 2.28635 0
M  V30 2216 C 226.613 -1.04383 1.33419 0
M  V30 2217 O 227.819 -0.981772 1.50868 0
M  V30 2218 H 224.194 -0.156689 0.735495 0
M  V30 2219 H 226.165 0.238761 2.97443 0
M  V30 2220 C 224.914 -1.53082 3.12188 0
M  V30 2221 H 224.237 -1.06601 3.85326 0
M  V30 2222 H 225.677 -2.09167 3.68816 0
M  V30 2223 C 224.136 -2.49946 2.25895 0
M  V30 2224 O 224.666 -3.53884 1.90076 0
M  V30 2225 N 222.872 -2.2021 1.8962 0
M  V30 2226 H 222.419 -1.35719 2.18948 0
M  V30 2227 H 222.377 -2.85266 1.32176 0
M  V30 2228 N 226.149 -1.5696 0.141893 0
M  V30 2229 C 227.398 -1.95135 -0.510427 0
M  V30 2230 C 227.711 -1.02896 -1.66348 0
M  V30 2231 O 228.917 -1.30629 -2.38009 0
M  V30 2232 C 227.373 -3.46876 -0.959427 0
M  V30 2233 C 226.981 -4.47691 0.166419 0
M  V30 2234 C 228.725 -3.93927 -1.58183 0
M  V30 2235 C 226.632 -5.90636 -0.300565 0
M  V30 2236 H 225.562 -0.728494 -0.194454 0
M  V30 2237 H 228.213 -1.8211 0.22542 0
M  V30 2238 H 226.595 -3.55215 -1.75038 0
M  V30 2239 H 227.769 -4.51043 0.94325 0
M  V30 2240 H 226.084 -4.10527 0.696905 0
M  V30 2241 H 228.681 -4.98158 -1.94275 0
M  V30 2242 H 229.024 -3.3519 -2.46888 0
M  V30 2243 H 229.557 -3.88484 -0.855863 0
M  V30 2244 H 226.296 -6.5318 0.550989 0
M  V30 2245 H 225.816 -5.90655 -1.04338 0
M  V30 2246 H 227.495 -6.42588 -0.754265 0
M  V30 2247 N 227.627 0.131896 -1.57047 0
M  V30 2248 C 228.575 1.18146 -2.0036 0
M  V30 2249 C 229.569 1.43614 -0.898406 0
M  V30 2250 O 230.775 1.43729 -1.08361 0
M  V30 2251 H 227.15 0.398042 -0.638018 0
M  V30 2252 H 229.121 0.789564 -2.87765 0
M  V30 2253 C 227.87 2.50341 -2.41298 0
M  V30 2254 H 227.193 2.31578 -3.25902 0
M  V30 2255 H 228.633 3.22371 -2.75414 0
M  V30 2256 C 227.092 3.11984 -1.27153 0
M  V30 2257 O 227.622 3.97484 -0.580459 0
M  V30 2258 N 225.828 2.71662 -1.03189 0
M  V30 2259 H 225.375 2.02231 -1.59564 0
M  V30 2260 H 225.333 3.13238 -0.270077 0
M  V30 2261 N 229.106 1.52395 0.401703 0
M  V30 2262 C 230.039 1.70999 1.51111 0
M  V30 2263 C 231.017 0.55765 1.52738 0
M  V30 2264 O 232.201 0.785912 1.71335 0
M  V30 2265 C 229.328 1.75607 2.8962 0
M  V30 2266 C 228.374 2.97227 3.05873 0
M  V30 2267 S 229.207 4.57439 2.78405 0
M  V30 2268 C 230.363 4.64844 4.19131 0
M  V30 2269 H 230.596 2.6483 1.35102 0
M  V30 2270 H 228.129 1.42527 0.593762 0
M  V30 2271 H 230.087 1.78947 3.69443 0
M  V30 2272 H 228.748 0.828914 3.02965 0
M  V30 2273 H 227.941 2.96955 4.07227 0
M  V30 2274 H 227.543 2.91813 2.33925 0
M  V30 2275 H 229.835 4.42677 5.12877 0
M  V30 2276 H 230.778 5.66807 4.24424 0
M  V30 2277 H 231.186 3.93804 4.04448 0
M  V30 2278 N 230.584 -0.659388 1.43143 0
M  V30 2279 C 231.812 -1.44723 1.47861 0
M  V30 2280 C 232.227 -1.88563 0.0945886 0
M  V30 2281 O 231.584 -1.59108 -0.893915 0
M  V30 2282 C 231.635 -2.68627 2.41913 0
M  V30 2283 O 231.356 -2.26623 3.74932 0
M  V30 2284 C 232.857 -3.62045 2.55809 0
M  V30 2285 H 230.077 -0.444801 0.502387 0
M  V30 2286 H 232.621 -0.808916 1.87821 0
M  V30 2287 H 230.776 -3.28613 2.05164 0
M  V30 2288 H 231.19 -3.06745 4.2545 0
M  V30 2289 H 232.664 -4.45666 3.25708 0
M  V30 2290 H 233.141 -4.08981 1.60099 0
M  V30 2291 H 233.747 -3.07944 2.93344 0
M  V30 2292 N 232.062 -1.29571 -0.897171 0
M  V30 2293 C 233.287 -1.20705 -1.68656 0
M  V30 2294 C 233.712 0.228582 -1.86706 0
M  V30 2295 O 233.07 1.16494 -1.3892 0
M  V30 2296 C 233.118 -1.9282 -3.04717 0
M  V30 2297 O 232.222 -1.24697 -3.93096 0
M  V30 2298 H 231.563 -0.418126 -0.515816 0
M  V30 2299 H 234.093 -1.71183 -1.12061 0
M  V30 2300 H 234.103 -2.01372 -3.54843 0
M  V30 2301 H 232.778 -2.97239 -2.90899 0
M  V30 2302 H 231.355 -1.2442 -3.51531 0
M  V30 2303 N 233.54 1.10788 -1.12088 0
M  V30 2304 C 234.77 1.86191 -0.895351 0
M  V30 2305 C 235.178 1.80763 0.558702 0
M  V30 2306 O 234.521 1.19188 1.39785 0
M  V30 2307 C 234.583 3.35659 -1.28737 0
M  V30 2308 C 234.247 3.64849 -2.75198 0
M  V30 2309 C 235.244 3.61757 -3.734 0
M  V30 2310 C 232.929 3.93641 -3.12013 0
M  V30 2311 C 234.923 3.87045 -5.06434 0
M  V30 2312 C 232.61 4.18585 -4.4523 0
M  V30 2313 C 233.608 4.15277 -5.42249 0
M  V30 2314 O 233.296 4.3959 -6.73065 0
M  V30 2315 H 233.028 0.595425 -0.32007 0
M  V30 2316 H 235.582 1.40992 -1.49367 0
M  V30 2317 H 233.812 3.81497 -0.63224 0
M  V30 2318 H 235.501 3.92441 -1.03656 0
M  V30 2319 H 236.267 3.39557 -3.46303 0
M  V30 2320 H 232.146 3.95348 -2.37109 0
M  V30 2321 H 235.69 3.84378 -5.82151 0
M  V30 2322 H 231.587 4.40264 -4.72057 0
M  V30 2323 H 232.355 4.57123 -6.78956 0
M  V30 2324 N 235.018 0.912232 1.28515 0
M  V30 2325 C 235.981 0.404223 2.25607 0
M  V30 2326 C 236.981 -0.468602 1.53821 0
M  V30 2327 O 238.171 -0.271873 1.72065 0
M  V30 2328 C 235.303 -0.420653 3.38295 0
M  V30 2329 H 236.496 1.26188 2.7206 0
M  V30 2330 H 234.049 0.691495 1.40171 0
M  V30 2331 H 234.784 -1.29777 2.97201 0
M  V30 2332 H 234.569 0.204935 3.91564 0
M  V30 2333 H 236.059 -0.766971 4.10496 0
M  V30 2334 N 236.496 -1.42363 0.676048 0
M  V30 2335 C 237.721 -2.06377 0.205705 0
M  V30 2336 C 238.146 -1.50463 -1.12883 0
M  V30 2337 O 237.504 -0.623619 -1.70237 0
M  V30 2338 C 237.552 -3.60277 0.152655 0
M  V30 2339 O 236.656 -4.02935 -0.87845 0
M  V30 2340 H 235.997 -0.655588 0.105359 0
M  V30 2341 H 238.527 -1.82475 0.925412 0
M  V30 2342 H 238.537 -4.07993 -0.0230675 0
M  V30 2343 H 237.212 -4.00346 1.12675 0
M  V30 2344 H 235.789 -3.66764 -0.673668 0
M  V30 2345 N 237.974 -0.419461 -1.51915 0
M  V30 2346 C 239.199 0.154572 -2.06823 0
M  V30 2347 C 239.624 1.3722 -1.28656 0
M  V30 2348 O 238.982 1.78461 -0.319583 0
M  V30 2349 C 239.03 0.473172 -3.57482 0
M  V30 2350 O 238.134 1.56255 -3.81652 0
M  V30 2351 H 237.475 0.0096924 -0.663929 0
M  V30 2352 H 240.005 -0.595642 -1.95738 0
M  V30 2353 H 240.015 0.728825 -4.01438 0
M  V30 2354 H 238.69 -0.416873 -4.13805 0
M  V30 2355 H 237.267 1.29825 -3.49571 0
M  V30 2356 N 239.452 1.56882 -0.150215 0
M  V30 2357 C 240.399 2.16922 0.788244 0
M  V30 2358 C 241.369 1.10303 1.24187 0
M  V30 2359 O 242.554 1.38359 1.31383 0
M  V30 2360 C 239.694 2.79754 2.02068 0
M  V30 2361 C 238.807 4.00775 1.61257 0
M  V30 2362 C 237.942 4.51595 2.79705 0
M  V30 2363 C 236.981 5.65074 2.35282 0
M  V30 2364 N 236.118 6.10499 3.4675 0
M  V30 2365 H 240.958 2.96779 0.269444 0
M  V30 2366 H 238.495 1.46599 0.12128 0
M  V30 2367 H 240.453 3.14329 2.74323 0
M  V30 2368 H 239.083 2.02536 2.51354 0
M  V30 2369 H 238.135 3.72158 0.787553 0
M  V30 2370 H 239.447 4.82978 1.24633 0
M  V30 2371 H 238.601 4.88242 3.60145 0
M  V30 2372 H 237.34 3.68406 3.19576 0
M  V30 2373 H 236.345 5.28 1.53283 0
M  V30 2374 H 237.57 6.50052 1.96493 0
M  V30 2375 H 235.516 5.30243 3.86236 0
M  V30 2376 H 235.433 6.87637 3.14152 0
M  V30 2377 H 236.701 6.51791 4.27537 0
M  V30 2378 N 240.93 -0.123565 1.57115 0
M  V30 2379 C 241.893 -1.13583 1.99076 0
M  V30 2380 C 242.893 -1.34564 0.880296 0
M  V30 2381 O 244.083 -1.31158 1.14644 0
M  V30 2382 C 241.215 -2.49128 2.32698 0
M  V30 2383 H 242.408 -0.775287 2.89706 0
M  V30 2384 H 239.961 -0.36771 1.51913 0
M  V30 2385 H 240.696 -2.90111 1.44934 0
M  V30 2386 H 240.481 -2.35255 3.13684 0
M  V30 2387 H 241.971 -3.2199 2.65918 0
M  V30 2388 N 242.408 -1.52605 -0.393616 0
M  V30 2389 C 243.371 -1.76415 -1.46323 0
M  V30 2390 C 244.371 -0.634126 -1.47768 0
M  V30 2391 O 245.561 -0.902142 -1.4902 0
M  V30 2392 C 242.693 -1.8607 -2.85641 0
M  V30 2393 H 243.886 -2.71916 -1.26498 0
M  V30 2394 H 241.439 -1.43257 -0.625073 0
M  V30 2395 H 242.174 -0.925378 -3.10817 0
M  V30 2396 H 241.959 -2.68235 -2.85993 0
M  V30 2397 H 243.449 -2.06179 -3.63153 0
M  V30 2398 N 243.887 0.651787 -1.4349 0
M  V30 2399 C 244.85 1.74647 -1.48429 0
M  V30 2400 C 245.85 1.56513 -0.368817 0
M  V30 2401 O 247.04 1.62385 -0.630623 0
M  V30 2402 C 244.172 3.13533 -1.33827 0
M  V30 2403 H 245.365 1.71649 -2.4592 0
M  V30 2404 H 242.918 0.863573 -1.30277 0
M  V30 2405 H 243.653 3.22142 -0.37349 0
M  V30 2406 H 243.438 3.28101 -2.14691 0
M  V30 2407 H 244.928 3.93356 -1.40218 0
M  V30 2408 N 245.365 1.30045 0.890287 0
M  V30 2409 C 246.59 1.21598 1.68014 0
M  V30 2410 C 247.015 -0.218678 1.86825 0
M  V30 2411 O 246.373 -1.15756 1.39536 0
M  V30 2412 C 246.421 1.94434 3.03691 0
M  V30 2413 O 245.525 1.2678 3.92429 0
M  V30 2414 H 244.866 0.420856 0.513592 0
M  V30 2415 H 247.396 1.71775 1.11151 0
M  V30 2416 H 247.406 2.03251 3.5377 0
M  V30 2417 H 246.081 2.98777 2.89318 0
M  V30 2418 H 244.658 1.26282 3.50866 0
M  V30 2419 N 246.843 -1.10192 1.12674 0
M  V30 2420 C 247.793 -2.14754 0.765801 0
M  V30 2421 C 248.777 -1.59154 -0.236409 0
M  V30 2422 O 249.969 -1.76951 -0.0415261 0
M  V30 2423 C 247.098 -3.42563 0.224827 0
M  V30 2424 C 246.184 -4.05091 1.25548 0
M  V30 2425 N 246.575 -4.42287 2.4539 0
M  V30 2426 C 244.873 -4.32186 1.10142 0
M  V30 2427 C 245.574 -4.91441 3.11224 0
M  V30 2428 N 244.55 -4.88405 2.38666 0
M  V30 2429 H 248.352 -2.41309 1.67772 0
M  V30 2430 H 245.866 -1.27339 1.00789 0
M  V30 2431 H 247.863 -4.16868 -0.0519578 0
M  V30 2432 H 246.523 -3.17467 -0.681515 0
M  V30 2433 H 247.534 -4.33902 2.82754 0
M  V30 2434 H 244.211 -4.16735 0.252587 0
M  V30 2435 H 245.601 -5.29749 4.13298 0
M  V30 2436 N 248.321 -0.919034 -1.28029 0
M  V30 2437 C 249.251 -0.428581 -2.29533 0
M  V30 2438 C 250.232 0.50659 -1.62381 0
M  V30 2439 O 251.417 0.413195 -1.89753 0
M  V30 2440 C 248.547 0.327388 -3.45753 0
M  V30 2441 C 247.501 -0.519137 -4.2484 0
M  V30 2442 C 246.827 0.365486 -5.33449 0
M  V30 2443 C 248.127 -1.77914 -4.91064 0
M  V30 2444 H 249.821 -1.27687 -2.70807 0
M  V30 2445 H 247.367 -0.615428 -1.30186 0
M  V30 2446 H 249.32 0.681378 -4.15855 0
M  V30 2447 H 248.044 1.20963 -3.03374 0
M  V30 2448 H 246.703 -0.855717 -3.56473 0
M  V30 2449 H 246.351 1.24642 -4.87312 0
M  V30 2450 H 246.051 -0.197356 -5.87268 0
M  V30 2451 H 247.575 0.715241 -6.06396 0
M  V30 2452 H 248.989 -1.49374 -5.53498 0
M  V30 2453 H 247.386 -2.2848 -5.54903 0
M  V30 2454 H 248.456 -2.50382 -4.15255 0
M  V30 2455 N 249.799 1.42003 -0.683588 0
M  V30 2456 C 251.045 2.01712 -0.209825 0
M  V30 2457 C 251.378 1.53968 1.18353 0
M  V30 2458 O 250.653 0.745661 1.79639 0
M  V30 2459 C 250.936 3.59202 -0.254197 0
M  V30 2460 C 250.789 4.17102 -1.68363 0
M  V30 2461 C 252.108 4.38344 0.392709 0
M  V30 2462 H 249.227 0.732891 -0.0777189 0
M  V30 2463 H 251.869 1.68909 -0.87004 0
M  V30 2464 H 250.019 3.87278 0.307954 0
M  V30 2465 H 251.691 3.99946 -2.29871 0
M  V30 2466 H 249.934 3.72597 -2.22157 0
M  V30 2467 H 250.605 5.26249 -1.6663 0
M  V30 2468 H 253.081 4.16011 -0.0859162 0
M  V30 2469 H 251.957 5.47901 0.331063 0
M  V30 2470 H 252.218 4.16887 1.47164 0
M  V30 2471 N 251.277 0.427512 1.51691 0
M  V30 2472 C 252.693 0.0792977 1.59403 0
M  V30 2473 C 252.893 -1.41035 1.43914 0
M  V30 2474 O 251.949 -2.17922 1.27539 0
M  V30 2475 C 253.262 0.590636 2.94842 0
M  V30 2476 C 254.81 0.550215 3.08126 0
M  V30 2477 C 255.285 1.03836 4.46074 0
M  V30 2478 N 256.776 0.995943 4.52366 0
M  V30 2479 C 257.511 1.34463 5.57411 0
M  V30 2480 N 257.007 1.76569 6.69922 0
M  V30 2481 N 258.8 1.26343 5.47717 0
M  V30 2482 H 250.951 1.39687 1.60004 0
M  V30 2483 H 253.214 0.575003 0.753708 0
M  V30 2484 H 252.92 1.63251 3.11516 0
M  V30 2485 H 252.794 0.0102061 3.77199 0
M  V30 2486 H 255.181 -0.482654 2.91126 0
M  V30 2487 H 255.262 1.16693 2.27632 0
M  V30 2488 H 254.906 2.06965 4.63819 0
M  V30 2489 H 254.836 0.398286 5.25092 0
M  V30 2490 H 257.327 0.68661 3.7161 0
M  V30 2491 H 257.64 2.01438 7.46085 0
M  V30 2492 H 255.985 1.80488 6.71155 0
M  V30 2493 H 259.176 0.933209 4.58703 0
M  V30 2494 H 259.349 1.53846 6.29472 0
M  V30 2495 N 252.755 -1.56801 0.158532 0
M  V30 2496 C 253.703 -2.18638 -0.793729 0
M  V30 2497 C 254.697 -1.14669 -1.24689 0
M  V30 2498 O 255.903 -1.32895 -1.21403 0
M  V30 2499 H 252.278 -0.700226 -0.274204 0
M  V30 2500 H 254.249 -2.97367 -0.248095 0
M  V30 2501 C 252.998 -2.83139 -2.0181 0
M  V30 2502 H 252.321 -3.62863 -1.67841 0
M  V30 2503 H 253.761 -3.29894 -2.66357 0
M  V30 2504 C 252.22 -1.82244 -2.83353 0
M  V30 2505 O 252.75 -1.3 -3.80083 0
M  V30 2506 N 250.956 -1.51288 -2.48114 0
M  V30 2507 H 250.503 -1.93964 -1.69516 0
M  V30 2508 H 250.461 -0.840296 -3.02963 0
M  V30 2509 N 254.233 0.115231 -1.57178 0
M  V30 2510 C 255.166 1.17166 -1.95825 0
M  V30 2511 C 256.144 1.39912 -0.828463 0
M  V30 2512 O 257.328 1.54004 -1.08697 0
M  V30 2513 C 254.455 2.52478 -2.25771 0
M  V30 2514 C 253.501 2.46136 -3.48309 0
M  V30 2515 S 254.334 1.89736 -5.0076 0
M  V30 2516 C 255.49 3.26713 -5.33863 0
M  V30 2517 H 255.723 0.842103 -2.85124 0
M  V30 2518 H 253.256 0.322136 -1.51002 0
M  V30 2519 H 255.214 3.30332 -2.43702 0
M  V30 2520 H 253.875 2.82609 -1.37079 0
M  V30 2521 H 253.068 3.45819 -3.66641 0
M  V30 2522 H 252.67 1.76404 -3.29784 0
M  V30 2523 H 254.962 4.22935 -5.29275 0
M  V30 2524 H 255.905 3.13205 -6.35065 0
M  V30 2525 H 256.313 3.25316 -4.61335 0
M  V30 2526 N 255.711 1.52812 0.385517 0
M  V30 2527 C 256.674 1.77188 1.45386 0
M  V30 2528 C 257.674 0.641953 1.4743 0
M  V30 2529 O 258.864 0.910033 1.4854 0
M  V30 2530 C 255.996 1.87582 2.8465 0
M  V30 2531 H 257.189 2.72583 1.25054 0
M  V30 2532 H 254.742 1.43586 0.617467 0
M  V30 2533 H 255.477 0.941849 3.10322 0
M  V30 2534 H 255.262 2.69748 2.84567 0
M  V30 2535 H 256.752 2.08102 3.62054 0
M  V30 2536 N 257.189 -0.644168 1.43834 0
M  V30 2537 C 258.436 -1.40395 1.4593 0
M  V30 2538 C 258.764 -1.94305 0.0869658 0
M  V30 2539 O 258.019 -1.73288 -0.909378 0
M  V30 2540 C 258.318 -2.59615 2.45631 0
M  V30 2541 C 257.984 -2.2407 3.91284 0
M  V30 2542 C 256.646 -2.14089 4.30952 0
M  V30 2543 C 258.998 -1.95775 4.83034 0
M  V30 2544 C 256.326 -1.73981 5.6031 0
M  V30 2545 C 258.678 -1.57163 6.12766 0
M  V30 2546 C 257.342 -1.45713 6.51402 0
M  V30 2547 H 256.612 -0.513741 0.533995 0
M  V30 2548 H 259.259 -0.731724 1.76969 0
M  V30 2549 H 257.564 -3.32011 2.08028 0
M  V30 2550 H 259.261 -3.17834 2.44504 0
M  V30 2551 H 255.851 -2.32753 3.59895 0
M  V30 2552 H 260.035 -2.02403 4.53152 0
M  V30 2553 H 255.291 -1.63709 5.89075 0
M  V30 2554 H 259.465 -1.34303 6.83327 0
M  V30 2555 H 257.092 -1.14406 7.51542 0
M  V30 2556 N 258.668 -1.30515 -0.883378 0
M  V30 2557 C 259.945 -1.10086 -1.6168 0
M  V30 2558 C 260.325 0.349269 -2.08191 0
M  V30 2559 O 259.673 1.34105 -1.85008 0
M  V30 2560 C 259.883 -2.10315 -2.78511 0
M  V30 2561 C 261.231 -2.42119 -3.48803 0
M  V30 2562 O 262.255 -2.08638 -2.88702 0
M  V30 2563 O 261.114 -2.99396 -4.57192 0
M  V30 2564 H 258.208 -0.422907 -0.710689 0
M  V30 2565 H 260.754 -1.41947 -0.930015 0
M  V30 2566 H 259.526 -3.07917 -2.41459 0
M  V30 2567 H 259.149 -1.79282 -3.54886 0
M  V30 2568 N 260.146 1.09593 -1.13257 0
M  V30 2569 C 261.076 2.18214 -0.830946 0
M  V30 2570 C 262.057 1.68812 0.208966 0
M  V30 2571 O 263.242 1.9408 0.0682666 0
M  V30 2572 C 260.372 3.46051 -0.294296 0
M  V30 2573 C 259.326 4.08778 -1.26826 0
M  V30 2574 C 258.652 5.31419 -0.591449 0
M  V30 2575 C 259.952 4.51476 -2.62615 0
M  V30 2576 H 261.646 2.43703 -1.73923 0
M  V30 2577 H 259.192 1.17128 -0.837675 0
M  V30 2578 H 261.145 4.2134 -0.0709606 0
M  V30 2579 H 259.869 3.20079 0.649366 0
M  V30 2580 H 258.528 3.35505 -1.47756 0
M  V30 2581 H 258.176 5.01727 0.357633 0
M  V30 2582 H 257.876 5.74341 -1.24123 0
M  V30 2583 H 259.4 6.09433 -0.377355 0
M  V30 2584 H 260.814 5.17999 -2.45663 0
M  V30 2585 H 259.211 5.05277 -3.23752 0
M  V30 2586 H 260.281 3.63962 -3.20406 0
M  V30 2587 N 261.624 0.925811 1.2754 0
M  V30 2588 C 262.872 0.564138 1.94067 0
M  V30 2589 C 263.193 -0.897188 1.73134 0
M  V30 2590 O 262.463 -1.63573 1.07799 0
M  V30 2591 H 261.043 0.205645 0.718136 0
M  V30 2592 H 263.705 1.1778 1.55287 0
M  V30 2593 H 262.801 0.76881 3.02483 0
M  V30 2594 N 263.102 -1.41638 0.69111 0
M  V30 2595 C 264.012 -2.34588 0.0233487 0
M  V30 2596 C 265.028 -1.55987 -0.770984 0
M  V30 2597 O 266.204 -1.88486 -0.709569 0
M  V30 2598 C 263.269 -3.34684 -0.904851 0
M  V30 2599 C 262.33 -4.29176 -0.103225 0
M  V30 2600 C 261.563 -5.2449 -0.987216 0
M  V30 2601 O 261.786 -5.2514 -2.22674 0
M  V30 2602 O 260.72 -6.00295 -0.439281 0
M  V30 2603 H 264.546 -2.93261 0.789416 0
M  V30 2604 H 262.131 -1.42417 0.45142 0
M  V30 2605 H 264.013 -3.96133 -1.43724 0
M  V30 2606 H 262.688 -2.78461 -1.65049 0
M  V30 2607 H 261.595 -3.71089 0.473655 0
M  V30 2608 H 262.928 -4.88484 0.60365 0
M  V30 2609 N 264.58 -0.43555 -1.51462 0
M  V30 2610 C 265.527 0.376797 -2.27703 0
M  V30 2611 C 266.497 1.01838 -1.31219 0
M  V30 2612 O 267.682 1.03762 -1.60119 0
M  V30 2613 C 264.822 1.47301 -3.12084 0
M  V30 2614 C 263.935 0.849744 -4.2356 0
M  V30 2615 C 263.07 1.92086 -4.95254 0
M  V30 2616 C 262.109 1.27593 -5.98654 0
M  V30 2617 N 261.246 2.28833 -6.63762 0
M  V30 2618 H 266.086 -0.279734 -2.96684 0
M  V30 2619 H 263.623 -0.149795 -1.46335 0
M  V30 2620 H 265.581 2.11984 -3.59331 0
M  V30 2621 H 264.211 2.0992 -2.45221 0
M  V30 2622 H 263.263 0.0912529 -3.80291 0
M  V30 2623 H 264.575 0.338878 -4.97648 0
M  V30 2624 H 263.729 2.64435 -5.46039 0
M  V30 2625 H 262.468 2.46545 -4.20793 0
M  V30 2626 H 261.473 0.537893 -5.47162 0
M  V30 2627 H 262.698 0.738693 -6.7507 0
M  V30 2628 H 260.644 2.82375 -5.92115 0
M  V30 2629 H 260.561 1.82632 -7.33608 0
M  V30 2630 H 261.829 3.00671 -7.19178 0
M  V30 2631 N 266.058 1.56714 -0.166846 0
M  V30 2632 C 267.006 2.19056 0.782123 0
M  V30 2633 C 268 1.15328 1.24079 0
M  V30 2634 O 269.206 1.33537 1.20697 0
M  V30 2635 H 265.581 0.70167 0.270486 0
M  V30 2636 H 267.552 2.97494 0.232322 0
M  V30 2637 C 266.301 2.84206 2.00306 0
M  V30 2638 H 265.624 3.63748 1.65914 0
M  V30 2639 H 267.064 3.31302 2.64604 0
M  V30 2640 C 265.523 1.83744 2.82382 0
M  V30 2641 O 266.053 1.32014 3.79388 0
M  V30 2642 N 264.259 1.52601 2.47308 0
M  V30 2643 H 263.806 1.9486 1.68485 0
M  V30 2644 H 263.764 0.856351 3.02513 0
M  V30 2645 N 267.536 -0.106894 1.57237 0
M  V30 2646 C 268.785 -0.811163 1.8467 0
M  V30 2647 C 269.098 -1.80469 0.754342 0
M  V30 2648 O 270.304 -2.55601 0.915439 0
M  V30 2649 C 268.76 -1.49337 3.27454 0
M  V30 2650 C 268.368 -0.540217 4.44731 0
M  V30 2651 C 270.112 -2.18206 3.64124 0
M  V30 2652 C 268.019 -1.22634 5.78545 0
M  V30 2653 H 266.949 -0.306679 0.688813 0
M  V30 2654 H 269.6 -0.0639887 1.83388 0
M  V30 2655 H 267.982 -2.2876 3.23241 0
M  V30 2656 H 269.156 0.221659 4.60267 0
M  V30 2657 H 267.471 0.042146 4.16379 0
M  V30 2658 H 270.068 -2.70253 4.61376 0
M  V30 2659 H 270.411 -2.96562 2.92158 0
M  V30 2660 H 270.944 -1.45658 3.70174 0
M  V30 2661 H 267.683 -0.483832 6.53712 0
M  V30 2662 H 267.203 -1.95993 5.66874 0
M  V30 2663 H 268.882 -1.75615 6.2271 0
M  V30 2664 N 269.014 -1.53014 -0.377408 0
M  V30 2665 C 270.43 -1.42523 -0.718281 0
M  V30 2666 C 270.63 -0.55487 -1.9371 0
M  V30 2667 O 269.686 -0.0327593 -2.52479 0
M  V30 2668 C 270.999 -2.85546 -0.942539 0
M  V30 2669 C 272.547 -2.95101 -1.04329 0
M  V30 2670 C 273.022 -4.3916 -1.3001 0
M  V30 2671 N 274.513 -4.42536 -1.36806 0
M  V30 2672 C 275.248 -5.51097 -1.58364 0
M  V30 2673 N 274.744 -6.69724 -1.77317 0
M  V30 2674 N 276.537 -5.38657 -1.60638 0
M  V30 2675 H 268.688 -2.08116 0.424426 0
M  V30 2676 H 270.951 -0.939352 0.127759 0
M  V30 2677 H 270.657 -3.51499 -0.118929 0
M  V30 2678 H 270.531 -3.28493 -1.85397 0
M  V30 2679 H 272.918 -2.29309 -1.85745 0
M  V30 2680 H 272.999 -2.55566 -0.109505 0
M  V30 2681 H 272.643 -5.05521 -0.490991 0
M  V30 2682 H 272.573 -4.76258 -2.24691 0
M  V30 2683 H 275.064 -3.57039 -1.23821 0
M  V30 2684 H 275.377 -7.48233 -1.93306 0
M  V30 2685 H 273.722 -6.72732 -1.74518 0
M  V30 2686 H 276.913 -4.44948 -1.45391 0
M  V30 2687 H 277.086 -6.2333 -1.77098 0
M  V30 2688 N 270.492 0.636531 -1.44174 0
M  V30 2689 C 271.738 1.39826 -1.4689 0
M  V30 2690 C 272.071 1.93947 -0.0990585 0
M  V30 2691 O 271.346 1.73325 0.882544 0
M  V30 2692 C 271.629 2.56751 -2.5249 0
M  V30 2693 C 271.482 2.08014 -3.98811 0
M  V30 2694 C 272.801 3.58946 -2.54649 0
M  V30 2695 H 269.92 0.507075 -0.53483 0
M  V30 2696 H 272.562 0.720188 -1.75822 0
M  V30 2697 H 270.712 3.14597 -2.2795 0
M  V30 2698 H 272.384 1.5504 -4.34466 0
M  V30 2699 H 270.627 1.39242 -4.10846 0
M  V30 2700 H 271.298 2.92169 -4.68339 0
M  V30 2701 H 273.774 3.1089 -2.76563 0
M  V30 2702 H 272.65 4.38286 -3.3045 0
M  V30 2703 H 272.911 4.12655 -1.58646 0
M  V30 2704 N 271.97 1.30982 0.876444 0
M  V30 2705 C 272.918 1.18006 2.00443 0
M  V30 2706 C 273.912 0.0898871 1.69161 0
M  V30 2707 O 275.118 0.251333 1.78237 0
M  V30 2708 H 271.493 0.365196 0.65737 0
M  V30 2709 H 273.464 2.13453 2.0852 0
M  V30 2710 C 272.213 0.897521 3.35916 0
M  V30 2711 H 271.536 1.7285 3.60504 0
M  V30 2712 H 272.976 0.846874 4.15456 0
M  V30 2713 C 271.435 -0.399674 3.34521 0
M  V30 2714 O 271.965 -1.41852 3.7582 0
M  V30 2715 N 270.171 -0.413893 2.87637 0
M  V30 2716 H 269.718 0.41571 2.54224 0
M  V30 2717 H 269.676 -1.28175 2.87086 0
M  V30 2718 N 273.449 -1.08991 1.13837 0
M  V30 2719 C 274.697 -1.80899 0.901098 0
M  V30 2720 C 275.018 -1.86356 -0.574134 0
M  V30 2721 O 274.288 -1.35235 -1.41733 0
M  V30 2722 H 272.868 -0.669966 0.330386 0
M  V30 2723 H 275.53 -1.318 1.43578 0
M  V30 2724 H 274.626 -2.83929 1.29578 0
M  V30 2725 N 274.927 -0.932562 -1.27047 0
M  V30 2726 C 276.176 -0.571351 -1.93439 0
M  V30 2727 C 276.489 0.892467 -1.74053 0
M  V30 2728 O 277.695 1.36267 -2.34826 0
M  V30 2729 C 276.151 -0.97106 -3.46552 0
M  V30 2730 C 275.759 -2.4559 -3.74686 0
M  V30 2731 C 277.503 -0.681333 -4.18997 0
M  V30 2732 C 275.41 -2.79475 -5.21198 0
M  V30 2733 H 274.34 -0.209966 -0.724176 0
M  V30 2734 H 276.991 -1.13403 -1.44263 0
M  V30 2735 H 275.373 -0.336983 -3.94564 0
M  V30 2736 H 276.547 -3.13829 -3.37414 0
M  V30 2737 H 274.862 -2.71802 -3.15456 0
M  V30 2738 H 277.459 -0.910939 -5.26883 0
M  V30 2739 H 277.802 0.381628 -4.14547 0
M  V30 2740 H 278.335 -1.27473 -3.76823 0
M  V30 2741 H 275.074 -3.847 -5.30741 0
M  V30 2742 H 274.594 -2.1589 -5.596 0
M  V30 2743 H 276.273 -2.67478 -5.89122 0
M  V30 2744 N 276.405 1.4127 -0.698611 0
M  V30 2745 C 277.368 2.29158 -0.044132 0
M  V30 2746 C 278.368 1.44529 0.704841 0
M  V30 2747 O 279.558 1.65643 0.539276 0
M  V30 2748 C 276.69 3.27459 0.947809 0
M  V30 2749 H 277.883 2.88529 -0.817994 0
M  V30 2750 H 275.436 1.49307 -0.46228 0
M  V30 2751 H 276.171 2.73073 1.74933 0
M  V30 2752 H 275.956 3.8991 0.41385 0
M  V30 2753 H 277.446 3.93311 1.40344 0
M  V30 2754 N 277.883 0.443576 1.51229 0
M  V30 2755 C 279.294 -0.0180867 1.86691 0
M  V30 2756 C 279.645 -1.41384 1.36033 0
M  V30 2757 O 278.77 -2.04291 0.713722 0
M  V30 2758 C 279.365 -0.039597 3.38777 0
M  V30 2759 C 277.924 -0.445692 3.73752 0
M  V30 2760 C 277.071 0.357584 2.74985 0
M  V30 2761 H 280.022 0.659138 1.44364 0
M  V30 2762 H 280.043 -0.847761 3.70936 0
M  V30 2763 H 279.555 0.976382 3.75617 0
M  V30 2764 H 277.656 -1.46704 3.42503 0
M  V30 2765 H 277.769 -0.166155 4.78812 0
M  V30 2766 H 276.133 -0.184973 2.54027 0
M  V30 2767 H 276.916 1.37256 3.14668 0
M  V30 2768 N 279.361 -1.56624 0.175154 0
M  V30 2769 C 280.609 -1.96609 -0.467885 0
M  V30 2770 C 280.93 -1.06238 -1.63519 0
M  V30 2771 O 280.2 -0.129523 -1.95471 0
M  V30 2772 H 278.78 -0.726008 -0.175845 0
M  V30 2773 H 281.442 -1.93195 0.257234 0
M  V30 2774 H 280.538 -3.00989 -0.825342 0
M  V30 2775 N 280.839 0.0985539 -1.57292 0
M  V30 2776 C 281.802 1.10402 -2.00858 0
M  V30 2777 C 282.802 1.33146 -0.901593 0
M  V30 2778 O 283.992 1.29318 -1.16716 0
M  V30 2779 C 281.124 2.45394 -2.36632 0
M  V30 2780 H 282.317 0.729099 -2.90902 0
M  V30 2781 H 279.87 0.343495 -1.52479 0
M  V30 2782 H 280.605 2.87769 -1.49531 0
M  V30 2783 H 280.39 2.30235 -3.17387 0
M  V30 2784 H 281.88 3.17718 -2.71007 0
M  V30 2785 N 282.317 1.53212 0.369288 0
M  V30 2786 C 283.566 1.68436 1.10961 0
M  V30 2787 C 283.879 0.440738 1.9057 0
M  V30 2788 O 285.085 0.473446 2.6734 0
M  V30 2789 C 283.541 2.97744 2.0218 0
M  V30 2790 C 283.149 4.29355 1.279 0
M  V30 2791 C 284.893 3.22334 2.76226 0
M  V30 2792 C 282.8 5.49755 2.17999 0
M  V30 2793 H 281.73 0.627568 0.41794 0
M  V30 2794 H 284.381 1.79713 0.370884 0
M  V30 2795 H 282.763 2.8026 2.79768 0
M  V30 2796 H 283.937 4.57458 0.554007 0
M  V30 2797 H 282.252 4.11179 0.657311 0
M  V30 2798 H 284.849 4.09471 3.43857 0
M  V30 2799 H 285.192 2.38238 3.41392 0
M  V30 2800 H 285.725 3.40475 2.05723 0
M  V30 2801 H 282.464 6.36318 1.57417 0
M  V30 2802 H 281.984 5.25937 2.88359 0
M  V30 2803 H 283.663 5.84401 2.77641 0
M  V30 2804 N 283.795 -0.628877 1.44509 0
M  V30 2805 C 284.725 -1.75187 1.54376 0
M  V30 2806 C 285.706 -1.65411 0.396618 0
M  V30 2807 O 286.891 -1.84137 0.617031 0
M  V30 2808 C 284.021 -3.13725 1.48976 0
M  V30 2809 C 282.975 -3.38291 2.62189 0
M  V30 2810 C 282.301 -4.76883 2.41841 0
M  V30 2811 C 283.601 -3.30632 4.04326 0
M  V30 2812 H 285.295 -1.67187 2.48373 0
M  V30 2813 H 282.841 -0.802909 1.19538 0
M  V30 2814 H 284.794 -3.92064 1.54478 0
M  V30 2815 H 283.518 -3.22515 0.514961 0
M  V30 2816 H 282.177 -2.62334 2.56079 0
M  V30 2817 H 281.825 -4.82378 1.42548 0
M  V30 2818 H 281.525 -4.94278 3.17747 0
M  V30 2819 H 283.049 -5.57449 2.49165 0
M  V30 2820 H 284.463 -3.98873 4.11793 0
M  V30 2821 H 282.86 -3.59561 4.80454 0
M  V30 2822 H 283.93 -2.28404 4.27738 0
M  V30 2823 N 285.273 -1.31445 -0.869486 0
M  V30 2824 C 286.501 -1.24122 -1.65534 0
M  V30 2825 C 286.916 0.193387 -1.87807 0
M  V30 2826 O 286.273 1.12557 -1.43656 0
M  V30 2827 C 286.324 -1.98229 -3.02304 0
M  V30 2828 O 286.045 -3.3609 -2.81026 0
M  V30 2829 C 287.546 -1.97751 -3.96749 0
M  V30 2830 H 284.766 -0.428868 -0.516055 0
M  V30 2831 H 287.31 -1.73328 -1.08525 0
M  V30 2832 H 285.465 -1.52782 -3.56001 0
M  V30 2833 H 285.879 -3.7383 -3.67902 0
M  V30 2834 H 287.353 -2.54114 -4.90031 0
M  V30 2835 H 287.83 -0.960137 -4.28577 0
M  V30 2836 H 288.436 -2.43079 -3.48988 0
M  V30 2837 N 286.751 1.08385 -1.14413 0
M  V30 2838 C 288.028 1.77429 -0.823297 0
M  V30 2839 C 288.408 1.9974 0.683163 0
M  V30 2840 O 287.756 1.60739 1.62405 0
M  V30 2841 C 287.966 3.09004 -1.62227 0
M  V30 2842 C 289.314 3.83532 -1.82177 0
M  V30 2843 O 290.338 3.18786 -1.58915 0
M  V30 2844 O 289.197 4.99792 -2.21067 0
M  V30 2845 H 286.291 0.769999 -0.301712 0
M  V30 2846 H 288.837 1.14846 -1.24934 0
M  V30 2847 H 287.609 2.88316 -2.64555 0
M  V30 2848 H 287.232 3.79316 -1.19187 0
M  V30 2849 N 288.23 0.939286 1.26551 0
M  V30 2850 C 289.193 0.451987 2.24699 0
M  V30 2851 C 290.193 -0.435869 1.5478 0
M  V30 2852 O 291.383 -0.235314 1.72603 0
M  V30 2853 C 288.515 -0.348801 3.39111 0
M  V30 2854 H 289.708 1.3193 2.69322 0
M  V30 2855 H 287.261 0.721072 1.38673 0
M  V30 2856 H 287.996 -1.23444 2.99887 0
M  V30 2857 H 287.781 0.287945 3.91041 0
M  V30 2858 H 289.271 -0.679726 4.12031 0
M  V30 2859 N 289.708 -1.40897 0.706093 0
M  V30 2860 C 290.638 -2.33418 0.0620085 0
M  V30 2861 C 291.619 -1.52385 -0.755827 0
M  V30 2862 O 292.804 -1.80886 -0.706674 0
M  V30 2863 C 289.934 -3.36293 -0.867445 0
M  V30 2864 C 288.888 -4.27716 -0.155932 0
M  V30 2865 C 288.214 -5.2105 -1.20046 0
M  V30 2866 C 289.514 -5.12944 0.984149 0
M  V30 2867 H 291.208 -2.87527 0.83477 0
M  V30 2868 H 288.754 -1.38249 0.402875 0
M  V30 2869 H 290.707 -3.99949 -1.32735 0
M  V30 2870 H 289.431 -2.80556 -1.67199 0
M  V30 2871 H 288.09 -3.65498 0.284047 0
M  V30 2872 H 287.738 -4.61624 -1.99781 0
M  V30 2873 H 287.438 -5.83056 -0.729328 0
M  V30 2874 H 288.962 -5.87584 -1.66066 0
M  V30 2875 H 290.376 -5.70109 0.604048 0
M  V30 2876 H 288.773 -5.83945 1.38304 0
M  V30 2877 H 289.843 -4.49485 1.81911 0
M  V30 2878 N 291.186 -0.45159 -1.50991 0
M  V30 2879 C 292.133 0.352625 -2.2809 0
M  V30 2880 C 293.103 1.0044 -1.32291 0
M  V30 2881 O 294.288 1.02058 -1.6121 0
M  V30 2882 C 291.428 1.43983 -3.13629 0
M  V30 2883 C 290.541 0.804772 -4.24438 0
M  V30 2884 C 289.676 1.86822 -4.97263 0
M  V30 2885 C 288.715 1.21236 -5.99973 0
M  V30 2886 N 287.852 2.2178 -6.66152 0
M  V30 2887 H 292.692 -0.311186 -2.96371 0
M  V30 2888 H 290.229 -0.165308 -1.46168 0
M  V30 2889 H 292.187 2.08161 -3.61559 0
M  V30 2890 H 290.817 2.07307 -2.47434 0
M  V30 2891 H 289.869 0.0509129 -3.80366 0
M  V30 2892 H 291.181 0.286076 -4.97979 0
M  V30 2893 H 290.335 2.58628 -5.48813 0
M  V30 2894 H 289.074 2.42068 -4.23385 0
M  V30 2895 H 288.079 0.479828 -5.47702 0
M  V30 2896 H 289.304 0.667051 -6.75816 0
M  V30 2897 H 287.25 2.76079 -5.95077 0
M  V30 2898 H 287.167 1.74841 -7.35504 0
M  V30 2899 H 288.435 2.93026 -7.22327 0
M  V30 2900 N 292.664 1.56529 -0.183458 0
M  V30 2901 C 293.889 2.02064 0.467428 0
M  V30 2902 C 294.314 1.06282 1.55196 0
M  V30 2903 O 293.672 0.0443565 1.81246 0
M  V30 2904 C 293.72 3.46122 1.01153 0
M  V30 2905 O 292.824 3.53437 2.12499 0
M  V30 2906 H 292.165 0.654726 0.110588 0
M  V30 2907 H 294.695 2.02521 -0.290917 0
M  V30 2908 H 294.705 3.85676 1.33108 0
M  V30 2909 H 293.38 4.15331 0.217533 0
M  V30 2910 H 291.957 3.2575 1.81497 0
M  V30 2911 N 294.142 -0.090211 1.57342 0
M  V30 2912 C 295.388 -0.793982 1.86611 0
M  V30 2913 C 295.721 -1.78142 0.773252 0
M  V30 2914 O 294.996 -1.93271 -0.218304 0
M  V30 2915 C 295.279 -1.51839 3.26523 0
M  V30 2916 C 295.132 -0.548609 4.46442 0
M  V30 2917 C 296.451 -2.46779 3.64401 0
M  V30 2918 H 293.57 -0.287186 0.678744 0
M  V30 2919 H 296.212 -0.0575076 1.89913 0
M  V30 2920 H 294.362 -2.14617 3.23839 0
M  V30 2921 H 296.034 0.0725513 4.61243 0
M  V30 2922 H 294.277 0.137614 4.33582 0
M  V30 2923 H 294.948 -1.09271 5.41076 0
M  V30 2924 H 297.424 -1.94089 3.68061 0
M  V30 2925 H 296.3 -2.94479 4.63221 0
M  V30 2926 H 296.561 -3.30758 2.93346 0
M  V30 2927 N 295.62 -1.53406 -0.361157 0
M  V30 2928 C 296.869 -1.69022 -1.10066 0
M  V30 2929 C 297.182 -0.450838 -1.90333 0
M  V30 2930 O 298.388 -0.487617 -2.67085 0
M  V30 2931 C 296.844 -2.98812 -2.00598 0
M  V30 2932 C 296.452 -4.30027 -1.25621 0
M  V30 2933 C 298.196 -3.23795 -2.74513 0
M  V30 2934 C 296.103 -5.50903 -2.1508 0
M  V30 2935 H 295.033 -0.629776 -0.414606 0
M  V30 2936 H 297.684 -1.79907 -0.361348 0
M  V30 2937 H 296.066 -2.8174 -2.78278 0
M  V30 2938 H 297.24 -4.57745 -0.529739 0
M  V30 2939 H 295.555 -4.11522 -0.635496 0
M  V30 2940 H 298.152 -4.11289 -3.41681 0
M  V30 2941 H 298.495 -2.40045 -3.40123 0
M  V30 2942 H 299.028 -3.41561 -2.03914 0
M  V30 2943 H 295.767 -6.37143 -1.54041 0
M  V30 2944 H 295.287 -5.27459 -2.85565 0
M  V30 2945 H 296.966 -5.85865 -2.74538 0
M  V30 2946 N 297.098 0.621204 -1.44841 0
M  V30 2947 C 298.326 1.40752 -1.51646 0
M  V30 2948 C 298.741 1.88246 -0.144549 0
M  V30 2949 O 298.098 1.61422 0.851416 0
M  V30 2950 C 298.149 2.62119 -2.4895 0
M  V30 2951 O 297.87 2.16602 -3.80808 0
M  V30 2952 C 299.371 3.55135 -2.65319 0
M  V30 2953 H 296.591 0.431325 -0.514004 0
M  V30 2954 H 299.135 0.758835 -1.899 0
M  V30 2955 H 297.29 3.23058 -2.13805 0
M  V30 2956 H 297.704 2.95358 -4.33433 0
M  V30 2957 H 299.178 4.36874 -3.37409 0
M  V30 2958 H 299.655 4.04592 -1.70886 0
M  V30 2959 H 300.261 3.00058 -3.01405 0
M  V30 2960 N 298.576 1.31904 0.862503 0
M  V30 2961 C 299.987 1.19803 1.43193 0
M  V30 2962 C 300.338 -0.192567 1.95253 0
M  V30 2963 O 299.463 -1.09081 1.86896 0
M  V30 2964 C 300.058 2.16883 2.60283 0
M  V30 2965 C 298.617 2.08692 3.13248 0
M  V30 2966 C 297.764 2.05691 1.85975 0
M  V30 2967 H 300.715 1.43846 0.670365 0
M  V30 2968 H 300.736 1.76278 3.37204 0
M  V30 2969 H 300.248 3.18083 2.22363 0
M  V30 2970 H 298.349 1.10713 3.55771 0
M  V30 2971 H 298.462 2.9815 3.75025 0
M  V30 2972 H 296.826 1.50814 2.05249 0
M  V30 2973 H 297.609 3.08659 1.50282 0
M  V30 2974 N 300.054 -1.07777 1.14986 0
M  V30 2975 C 300.964 -2.18404 0.856546 0
M  V30 2976 C 301.98 -1.73211 -0.165485 0
M  V30 2977 O 303.156 -2.01399 0.00755219 0
M  V30 2978 C 300.221 -3.44977 0.34526 0
M  V30 2979 C 299.282 -4.0476 1.43065 0
M  V30 2980 C 298.515 -5.25291 0.943663 0
M  V30 2981 O 298.738 -5.70004 -0.212426 0
M  V30 2982 O 297.672 -5.76638 1.72547 0
M  V30 2983 H 301.498 -2.45978 1.78125 0
M  V30 2984 H 299.083 -1.17033 0.928631 0
M  V30 2985 H 300.965 -4.21348 0.0663671 0
M  V30 2986 H 299.64 -3.18965 -0.551631 0
M  V30 2987 H 298.547 -3.29949 1.76309 0
M  V30 2988 H 299.88 -4.35035 2.30229 0
M  V30 2989 N 301.532 -0.945985 -1.26051 0
M  V30 2990 C 302.781 -0.591836 -1.92822 0
M  V30 2991 C 303.094 0.873956 -1.7499 0
M  V30 2992 O 304.3 1.33769 -2.36259 0
M  V30 2993 C 302.756 -1.00776 -3.45503 0
M  V30 2994 C 302.364 -2.4955 -3.7206 0
M  V30 2995 C 304.108 -0.725735 -4.1825 0
M  V30 2996 C 302.015 -2.84988 -5.18205 0
M  V30 2997 H 300.945 -0.217635 -0.721908 0
M  V30 2998 H 303.596 -1.14927 -1.43052 0
M  V30 2999 H 301.978 -0.378812 -3.94184 0
M  V30 3000 H 303.152 -3.1739 -3.34066 0
M  V30 3001 H 301.467 -2.75133 -3.12555 0
M  V30 3002 H 304.064 -0.966771 -5.25887 0
M  V30 3003 H 304.407 0.337639 -4.14929 0
M  V30 3004 H 304.94 -1.31463 -3.7545 0
M  V30 3005 H 301.679 -3.90307 -5.26631 0
M  V30 3006 H 301.199 -2.21813 -5.57278 0
M  V30 3007 H 302.878 -2.73712 -5.86252 0
M  V30 3008 N 303.011 1.40521 -0.713556 0
M  V30 3009 C 303.921 2.34522 -0.0606667 0
M  V30 3010 C 304.937 1.57193 0.74607 0
M  V30 3011 O 306.113 1.89591 0.679493 0
M  V30 3012 C 303.178 3.36081 0.851491 0
M  V30 3013 C 302.239 4.29286 0.0349339 0
M  V30 3014 C 301.472 5.25994 0.903649 0
M  V30 3015 O 301.695 5.28616 2.14292 0
M  V30 3016 O 300.629 6.00918 0.343723 0
M  V30 3017 H 304.455 2.91968 -0.835972 0
M  V30 3018 H 302.04 1.41681 -0.47402 0
M  V30 3019 H 303.922 3.98369 1.37404 0
M  V30 3020 H 302.597 2.81052 1.60598 0
M  V30 3021 H 301.504 3.70289 -0.532633 0
M  V30 3022 H 302.837 4.87462 -0.681287 0
M  V30 3023 N 304.489 0.459591 1.5075 0
M  V30 3024 C 305.421 -0.37665 2.26084 0
M  V30 3025 C 306.434 -0.967109 1.30961 0
M  V30 3026 O 307.623 -0.857468 1.56556 0
M  V30 3027 C 304.723 -1.54112 3.01832 0
M  V30 3028 C 303.896 -1.06553 4.24223 0
M  V30 3029 C 302.955 -2.1027 4.82362 0
M  V30 3030 O 301.981 -1.68798 5.43595 0
M  V30 3031 N 303.183 -3.42974 4.68347 0
M  V30 3032 H 305.948 0.269124 2.98489 0
M  V30 3033 H 303.509 0.28972 1.59287 0
M  V30 3034 H 305.501 -2.23165 3.37608 0
M  V30 3035 H 304.071 -2.0918 2.32298 0
M  V30 3036 H 303.291 -0.201274 3.93686 0
M  V30 3037 H 304.579 -0.725516 5.03601 0
M  V30 3038 H 303.977 -3.79385 4.19623 0
M  V30 3039 H 302.534 -4.07858 5.08424 0
M  V30 3040 N 305.967 -1.56429 0.191757 0
M  V30 3041 C 306.914 -2.18936 -0.730454 0
M  V30 3042 C 307.884 -1.13557 -1.21219 0
M  V30 3043 O 309.069 -1.41794 -1.27668 0
M  V30 3044 C 306.209 -2.85013 -1.9458 0
M  V30 3045 C 305.322 -4.04909 -1.50574 0
M  V30 3046 C 304.457 -4.58853 -2.67634 0
M  V30 3047 C 303.496 -5.71114 -2.20217 0
M  V30 3048 N 302.633 -6.19478 -3.30442 0
M  V30 3049 H 307.473 -2.97389 -0.190664 0
M  V30 3050 H 305.01 -1.46869 -0.0823694 0
M  V30 3051 H 306.968 -3.21492 -2.65893 0
M  V30 3052 H 305.598 -2.09129 -2.45896 0
M  V30 3053 H 304.65 -3.74115 -0.688605 0
M  V30 3054 H 305.962 -4.86113 -1.11784 0
M  V30 3055 H 305.116 -4.97619 -3.47074 0
M  V30 3056 H 303.855 -3.76749 -3.09696 0
M  V30 3057 H 302.86 -5.31879 -1.3923 0
M  V30 3058 H 304.085 -6.55033 -1.79189 0
M  V30 3059 H 302.031 -5.40297 -3.72041 0
M  V30 3060 H 301.948 -6.95725 -2.9581 0
M  V30 3061 H 303.216 -6.62898 -4.10106 0
M  V30 3062 N 307.445 0.0818655 -1.57387 0
M  V30 3063 C 308.378 1.12986 -1.98266 0
M  V30 3064 C 309.356 1.38123 -0.857954 0
M  V30 3065 O 310.54 1.51663 -1.1194 0
M  V30 3066 C 307.667 2.47632 -2.31076 0
M  V30 3067 C 306.713 2.38693 -3.53452 0
M  V30 3068 S 307.546 1.79071 -5.04672 0
M  V30 3069 C 308.702 3.15316 -5.40673 0
M  V30 3070 H 308.935 0.781435 -2.86846 0
M  V30 3071 H 306.468 0.290034 -1.51651 0
M  V30 3072 H 308.426 3.25089 -2.50654 0
M  V30 3073 H 307.087 2.79638 -1.43043 0
M  V30 3074 H 306.28 3.37964 -3.73893 0
M  V30 3075 H 305.882 1.69369 -3.33452 0
M  V30 3076 H 308.174 4.11613 -5.38127 0
M  V30 3077 H 309.117 2.99664 -6.41566 0
M  V30 3078 H 309.525 3.15457 -4.68132 0
M  V30 3079 N 308.923 1.53595 0.353017 0
M  V30 3080 C 309.853 1.83902 1.43883 0
M  V30 3081 C 310.834 0.693421 1.55324 0
M  V30 3082 O 312.019 0.944452 1.69687 0
M  V30 3083 C 309.149 2.04016 2.8106 0
M  V30 3084 C 308.103 3.19814 2.84434 0
M  V30 3085 C 307.429 3.25244 4.24406 0
M  V30 3086 C 308.729 4.58133 2.50822 0
M  V30 3087 H 310.423 2.74835 1.1877 0
M  V30 3088 H 307.969 1.32242 0.569917 0
M  V30 3089 H 309.922 2.238 3.57059 0
M  V30 3090 H 308.646 1.09804 3.07588 0
M  V30 3091 H 307.305 2.9987 2.10887 0
M  V30 3092 H 306.953 2.28646 4.48029 0
M  V30 3093 H 306.653 4.03054 4.27576 0
M  V30 3094 H 308.177 3.47228 5.0226 0
M  V30 3095 H 309.591 4.77995 3.16534 0
M  V30 3096 H 307.988 5.38276 2.6529 0
M  V30 3097 H 309.058 4.62387 1.46034 0
M  V30 3098 N 310.401 -0.613514 1.45168 0
M  V30 3099 C 311.333 -1.73825 1.4939 0
M  V30 3100 C 312.346 -1.58175 0.385304 0
M  V30 3101 O 313.535 -1.66165 0.652036 0
M  V30 3102 C 310.635 -3.11758 1.32891 0
M  V30 3103 C 309.808 -3.53704 2.57317 0
M  V30 3104 C 308.867 -4.70579 2.35462 0
M  V30 3105 O 307.893 -4.77996 3.09044 0
M  V30 3106 N 309.095 -5.63454 1.39644 0
M  V30 3107 H 311.86 -1.70669 2.46358 0
M  V30 3108 H 309.421 -0.79862 1.40832 0
M  V30 3109 H 311.413 -3.87692 1.1609 0
M  V30 3110 H 309.983 -3.09456 0.442218 0
M  V30 3111 H 309.203 -2.67794 2.89275 0
M  V30 3112 H 310.491 -3.78486 3.40038 0
M  V30 3113 H 309.889 -5.6017 0.789062 0
M  V30 3114 H 308.446 -6.38944 1.28816 0
M  V30 3115 N 311.879 -1.3236 -0.855495 0
M  V30 3116 C 312.829 -1.17809 -1.95205 0
M  V30 3117 C 313.813 -0.0852319 -1.60674 0
M  V30 3118 O 315.005 -0.311651 -1.74235 0
M  V30 3119 C 312.134 -0.902437 -3.31226 0
M  V30 3120 C 311.22 -2.03695 -3.7198 0
M  V30 3121 N 311.611 -3.28544 -3.84568 0
M  V30 3122 C 309.909 -1.93993 -4.016 0
M  V30 3123 C 310.61 -4.02847 -4.19629 0
M  V30 3124 N 309.586 -3.31138 -4.31102 0
M  V30 3125 H 313.388 -2.12462 -2.0307 0
M  V30 3126 H 310.902 -1.24127 -1.0472 0
M  V30 3127 H 312.899 -0.77915 -4.09554 0
M  V30 3128 H 311.559 0.0357267 -3.2468 0
M  V30 3129 H 312.57 -3.6349 -3.68911 0
M  V30 3130 H 309.247 -1.07733 -4.03361 0
M  V30 3131 H 310.637 -5.10506 -4.36845 0
M  V30 3132 N 313.357 1.07166 -1.15556 0
M  V30 3133 C 314.585 1.83514 -0.955519 0
M  V30 3134 C 315 1.82163 0.49621 0
M  V30 3135 O 314.357 1.23441 1.34419 0
M  V30 3136 C 314.408 3.30515 -1.46432 0
M  V30 3137 O 314.129 3.31937 -2.85918 0
M  V30 3138 C 315.63 4.23625 -1.30603 0
M  V30 3139 H 312.85 0.578926 -0.339244 0
M  V30 3140 H 315.394 1.35265 -1.53374 0
M  V30 3141 H 313.549 3.76106 -0.928584 0
M  V30 3142 H 313.963 4.23794 -3.09029 0
M  V30 3143 H 315.437 5.24831 -1.71047 0
M  V30 3144 H 315.914 4.38485 -0.250441 0
M  V30 3145 H 316.52 3.83871 -1.83094 0
M  V30 3146 N 314.835 0.952656 1.25548 0
M  V30 3147 C 316.246 0.647392 1.75116 0
M  V30 3148 C 316.597 -0.837274 1.77438 0
M  V30 3149 O 315.722 -1.65525 1.39393 0
M  V30 3150 C 316.317 1.16845 3.18014 0
M  V30 3151 C 314.876 0.913382 3.6515 0
M  V30 3152 C 314.023 1.31265 2.44264 0
M  V30 3153 H 316.974 1.12968 1.11462 0
M  V30 3154 H 316.995 0.527606 3.76824 0
M  V30 3155 H 316.507 2.24902 3.16292 0
M  V30 3156 H 314.608 -0.152316 3.72289 0
M  V30 3157 H 314.721 1.54845 4.53387 0
M  V30 3158 H 313.085 0.731028 2.43984 0
M  V30 3159 H 313.868 2.40239 2.45234 0
M  V30 3160 N 316.313 -1.40141 0.720998 0
M  V30 3161 C 317.562 -2.0002 0.259804 0
M  V30 3162 C 317.875 -1.57839 -1.15526 0
M  V30 3163 O 319.081 -2.10455 -1.71525 0
M  V30 3164 C 317.537 -3.57516 0.413566 0
M  V30 3165 C 317.145 -4.08667 1.83562 0
M  V30 3166 C 318.889 -4.24498 0.0134387 0
M  V30 3167 C 316.796 -5.58686 1.93968 0
M  V30 3168 H 315.726 -0.748195 0.0933806 0
M  V30 3169 H 318.377 -1.60313 0.892866 0
M  V30 3170 H 316.759 -3.9495 -0.288169 0
M  V30 3171 H 317.933 -3.82598 2.56817 0
M  V30 3172 H 316.248 -3.543 2.1877 0
M  V30 3173 H 318.845 -5.34654 0.0703954 0
M  V30 3174 H 319.188 -4.03375 -1.02927 0
M  V30 3175 H 319.721 -3.92188 0.665815 0
M  V30 3176 H 316.46 -5.8467 2.96379 0
M  V30 3177 H 315.98 -5.86602 1.25131 0
M  V30 3178 H 317.659 -6.23875 1.71431 0
M  V30 3179 N 317.792 -0.46758 -1.50504 0
M  V30 3180 C 319.208 -0.121533 -1.59137 0
M  V30 3181 C 319.408 1.3717 -1.47603 0
M  V30 3182 O 318.464 2.14464 -1.33272 0
M  V30 3183 C 319.777 -0.6686 -2.93173 0
M  V30 3184 C 321.325 -0.631716 -3.06559 0
M  V30 3185 C 321.8 -1.15627 -4.43164 0
M  V30 3186 N 323.291 -1.11553 -4.49567 0
M  V30 3187 C 324.026 -1.49195 -5.5365 0
M  V30 3188 N 323.522 -1.94269 -6.65005 0
M  V30 3189 N 325.315 -1.4082 -5.44175 0
M  V30 3190 H 317.466 -1.4388 -1.56245 0
M  V30 3191 H 319.729 -0.594784 -0.738198 0
M  V30 3192 H 319.435 -1.71453 -3.07078 0
M  V30 3193 H 319.309 -0.11021 -3.77039 0
M  V30 3194 H 321.696 0.405297 -2.92304 0
M  V30 3195 H 321.777 -1.22687 -2.24458 0
M  V30 3196 H 321.421 -2.1919 -4.58168 0
M  V30 3197 H 321.351 -0.537365 -5.23851 0
M  V30 3198 H 323.842 -0.784895 -3.69659 0
M  V30 3199 H 324.155 -2.21148 -7.40482 0
M  V30 3200 H 322.5 -1.98219 -6.66134 0
M  V30 3201 H 325.691 -1.0545 -4.56068 0
M  V30 3202 H 325.864 -1.70481 -6.25172 0
M  V30 3203 N 319.27 1.56325 -0.20005 0
M  V30 3204 C 320.686 1.58839 0.155716 0
M  V30 3205 C 320.886 1.21636 1.60645 0
M  V30 3206 O 319.942 0.941437 2.34293 0
M  V30 3207 C 321.255 3.0032 -0.151124 0
M  V30 3208 C 322.803 3.12866 -0.0916284 0
M  V30 3209 C 323.278 4.56488 -0.371845 0
M  V30 3210 N 324.769 4.62089 -0.320641 0
M  V30 3211 C 325.504 5.71116 -0.511243 0
M  V30 3212 N 325 6.88592 -0.762461 0
M  V30 3213 N 326.793 5.60335 -0.445157 0
M  V30 3214 H 318.944 1.78788 -1.14668 0
M  V30 3215 H 321.207 0.829996 -0.458051 0
M  V30 3216 H 320.913 3.32117 -1.15721 0
M  V30 3217 H 320.787 3.73257 0.543986 0
M  V30 3218 H 323.174 2.80878 0.905065 0
M  V30 3219 H 323.255 2.42304 -0.81989 0
M  V30 3220 H 322.899 4.89189 -1.36588 0
M  V30 3221 H 322.829 5.25246 0.377362 0
M  V30 3222 H 325.32 3.77665 -0.13329 0
M  V30 3223 H 325.633 7.67581 -0.896576 0
M  V30 3224 H 323.978 6.90387 -0.799412 0
M  V30 3225 H 327.169 4.67436 -0.249278 0
M  V30 3226 H 327.342 6.45243 -0.597116 0
M  V30 3227 N 320.748 -0.0735177 1.57428 0
M  V30 3228 C 321.678 -1.0879 2.06608 0
M  V30 3229 C 322.659 -1.40473 0.959237 0
M  V30 3230 O 323.844 -1.5013 1.23185 0
M  V30 3231 C 320.974 -2.40183 2.50857 0
M  V30 3232 C 319.928 -2.22858 3.65402 0
M  V30 3233 C 319.254 -3.59619 3.957 0
M  V30 3234 C 320.554 -1.65123 4.95511 0
M  V30 3235 H 322.248 -0.678673 2.91607 0
M  V30 3236 H 319.794 -0.325013 1.40284 0
M  V30 3237 H 321.747 -3.11437 2.83874 0
M  V30 3238 H 320.471 -2.83083 1.62885 0
M  V30 3239 H 319.13 -1.54045 3.32664 0
M  V30 3240 H 318.778 -4.00086 3.04861 0
M  V30 3241 H 318.478 -3.48866 4.72828 0
M  V30 3242 H 320.002 -4.32306 4.31212 0
M  V30 3243 H 321.416 -2.26241 5.26771 0
M  V30 3244 H 319.813 -1.65071 5.7695 0
M  V30 3245 H 320.883 -0.612559 4.81015 0
M  V30 3246 N 322.226 -1.5378 -0.344866 0
M  V30 3247 C 323.474 -1.70625 -1.08311 0
M  V30 3248 C 323.795 -0.471447 -1.89215 0
M  V30 3249 O 323.065 0.514616 -1.8902 0
M  V30 3250 H 321.645 -0.629058 -0.402859 0
M  V30 3251 H 324.307 -1.9103 -0.386459 0
M  V30 3252 H 323.403 -2.57656 -1.76124 0
M  V30 3253 N 323.704 0.605807 -1.45491 0
M  V30 3254 C 324.636 1.73031 -1.5031 0
M  V30 3255 C 325.649 1.57968 -0.393687 0
M  V30 3256 O 326.838 1.65817 -0.660839 0
M  V30 3257 C 323.938 3.11049 -1.34543 0
M  V30 3258 C 323.111 3.52334 -2.59189 0
M  V30 3259 C 322.17 4.69323 -2.37954 0
M  V30 3260 O 321.196 4.7635 -3.11575 0
M  V30 3261 N 322.398 5.62705 -1.4263 0
M  V30 3262 H 325.163 1.6936 -2.4726 0
M  V30 3263 H 322.724 0.79114 -1.41254 0
M  V30 3264 H 324.716 3.87071 -1.18144 0
M  V30 3265 H 323.286 3.09217 -0.458623 0
M  V30 3266 H 322.506 2.66256 -2.90691 0
M  V30 3267 H 323.794 3.76677 -3.42041 0
M  V30 3268 H 323.192 5.59744 -0.818758 0
M  V30 3269 H 321.749 6.38252 -1.32202 0
M  V30 3270 N 325.182 1.32811 0.848464 0
M  V30 3271 C 326.593 1.21315 1.41914 0
M  V30 3272 C 326.944 -0.171847 1.95446 0
M  V30 3273 O 326.069 -1.07093 1.88043 0
M  V30 3274 C 326.664 2.19631 2.57968 0
M  V30 3275 C 325.223 2.12003 3.11017 0
M  V30 3276 C 324.37 2.07651 1.83783 0
M  V30 3277 H 327.321 1.44549 0.655071 0
M  V30 3278 H 327.342 1.79845 3.35315 0
M  V30 3279 H 326.854 3.20423 2.18976 0
M  V30 3280 H 324.955 1.14481 3.54577 0
M  V30 3281 H 325.068 3.02111 3.71841 0
M  V30 3282 H 323.432 1.52983 2.03638 0
M  V30 3283 H 324.215 3.10235 1.47 0
M  V30 3284 N 326.66 -1.06551 1.16123 0
M  V30 3285 C 327.592 -2.13908 0.823171 0
M  V30 3286 C 328.605 -1.61926 -0.16843 0
M  V30 3287 O 329.794 -1.78412 0.055962 0
M  V30 3288 C 326.894 -3.38283 0.204424 0
M  V30 3289 C 326.067 -4.19589 1.23548 0
M  V30 3290 C 325.126 -5.2233 0.637011 0
M  V30 3291 O 324.152 -5.54034 1.30516 0
M  V30 3292 N 325.354 -5.77621 -0.577474 0
M  V30 3293 H 328.119 -2.43508 1.74711 0
M  V30 3294 H 325.68 -1.2253 1.05821 0
M  V30 3295 H 327.672 -4.0416 -0.208909 0
M  V30 3296 H 326.242 -3.06329 -0.623012 0
M  V30 3297 H 325.462 -3.49406 1.82507 0
M  V30 3298 H 326.75 -4.70718 1.93137 0
M  V30 3299 H 326.148 -5.54125 -1.13853 0
M  V30 3300 H 324.705 -6.45087 -0.933053 0
M  V30 3301 N 328.138 -0.959301 -1.25041 0
M  V30 3302 C 329.415 -0.533805 -1.88175 0
M  V30 3303 C 329.795 0.988994 -1.865 0
M  V30 3304 O 329.143 1.85677 -1.33177 0
M  V30 3305 C 329.353 -1.11575 -3.30684 0
M  V30 3306 C 330.701 -1.19548 -4.07423 0
M  V30 3307 O 331.725 -1.06765 -3.39823 0
M  V30 3308 O 330.584 -1.39656 -5.28354 0
M  V30 3309 H 327.678 -0.176772 -0.807887 0
M  V30 3310 H 330.224 -1.05303 -1.33076 0
M  V30 3311 H 328.996 -2.15884 -3.26358 0
M  V30 3312 H 328.619 -0.580059 -3.93346 0
M  V30 3313 N 329.616 1.39756 -0.72842 0
M  V30 3314 C 330.865 1.99879 -0.270407 0
M  V30 3315 C 331.178 1.58449 1.14688 0
M  V30 3316 O 332.384 2.11362 1.70407 0
M  V30 3317 C 330.84 3.57292 -0.43252 0
M  V30 3318 C 330.448 4.07688 -1.85727 0
M  V30 3319 C 332.192 4.24485 -0.0359507 0
M  V30 3320 C 330.099 5.5765 -1.96928 0
M  V30 3321 H 329.029 0.747689 -0.0973472 0
M  V30 3322 H 331.68 1.59837 -0.901355 0
M  V30 3323 H 330.062 3.95097 0.267219 0
M  V30 3324 H 331.236 3.81231 -2.58843 0
M  V30 3325 H 329.551 3.53135 -2.20646 0
M  V30 3326 H 332.148 5.34609 -0.0987484 0
M  V30 3327 H 332.491 4.03915 1.00787 0
M  V30 3328 H 333.024 3.9183 -0.686604 0
M  V30 3329 H 329.763 5.8309 -2.99476 0
M  V30 3330 H 329.283 5.8593 -1.28241 0
M  V30 3331 H 330.962 6.22957 -1.74737 0
M  V30 3332 N 331.094 0.475555 1.50254 0
M  V30 3333 C 332.057 -0.305016 2.27161 0
M  V30 3334 C 333.057 -0.916519 1.32123 0
M  V30 3335 O 334.247 -0.785003 1.5551 0
M  V30 3336 C 331.379 -1.43496 3.09227 0
M  V30 3337 H 332.572 0.369511 2.97615 0
M  V30 3338 H 330.125 0.229747 1.54602 0
M  V30 3339 H 330.86 -2.14441 2.43281 0
M  V30 3340 H 330.645 -1.00223 3.79075 0
M  V30 3341 H 332.135 -1.98548 3.67381 0
M  V30 3342 N 332.573 -1.56217 0.208337 0
M  V30 3343 C 333.521 -2.21053 -0.723769 0
M  V30 3344 C 334.515 -1.18578 -1.20978 0
M  V30 3345 O 335.721 -1.36691 -1.17114 0
M  V30 3346 H 332.096 -0.708595 -0.251788 0
M  V30 3347 H 334.067 -2.98006 -0.153365 0
M  V30 3348 C 332.816 -2.89417 -1.927 0
M  V30 3349 H 332.139 -3.68019 -1.56212 0
M  V30 3350 H 333.579 -3.38201 -2.55727 0
M  V30 3351 C 332.038 -1.91166 -2.77411 0
M  V30 3352 O 332.568 -1.42026 -3.75754 0
M  V30 3353 N 330.774 -1.59105 -2.43175 0
M  V30 3354 H 330.321 -1.99259 -1.63259 0
M  V30 3355 H 330.279 -0.936255 -3.00136 0
M  V30 3356 N 334.051 0.0651679 -1.57465 0
M  V30 3357 C 335.014 1.06117 -2.03155 0
M  V30 3358 C 336.014 1.31204 -0.929632 0
M  V30 3359 O 337.204 1.26813 -1.19432 0
M  V30 3360 C 334.336 2.4032 -2.41783 0
M  V30 3361 H 335.529 0.667231 -2.92383 0
M  V30 3362 H 333.082 0.311075 -1.53173 0
M  V30 3363 H 333.817 2.84532 -1.55601 0
M  V30 3364 H 333.602 2.23451 -3.22199 0
M  V30 3365 H 335.092 3.11898 -2.77685 0
M  V30 3366 N 335.529 1.53961 0.336706 0
M  V30 3367 C 336.492 1.81724 1.39675 0
M  V30 3368 C 337.492 0.688532 1.45313 0
M  V30 3369 O 338.682 0.956829 1.45569 0
M  V30 3370 C 335.814 1.96543 2.78538 0
M  V30 3371 H 337.007 2.76424 1.16318 0
M  V30 3372 H 334.56 1.45478 0.571474 0
M  V30 3373 H 335.295 1.0401 3.07168 0
M  V30 3374 H 335.08 2.78665 2.75841 0
M  V30 3375 H 336.57 2.19516 3.5525 0
M  V30 3376 N 337.007 -0.598083 1.45811 0
M  V30 3377 C 337.937 -1.71873 1.58057 0
M  V30 3378 C 338.918 -1.64533 0.431615 0
M  V30 3379 O 340.103 -1.82787 0.65595 0
M  V30 3380 C 337.233 -3.10495 1.55597 0
M  V30 3381 C 336.187 -3.32654 2.69305 0
M  V30 3382 C 335.513 -4.71646 2.51902 0
M  V30 3383 C 336.813 -3.21981 4.11248 0
M  V30 3384 H 338.507 -1.61881 2.51863 0
M  V30 3385 H 336.053 -0.777372 1.21214 0
M  V30 3386 H 338.006 -3.88699 1.6276 0
M  V30 3387 H 336.73 -3.2135 0.583255 0
M  V30 3388 H 335.389 -2.56843 2.61586 0
M  V30 3389 H 335.037 -4.79246 1.52748 0
M  V30 3390 H 334.737 -4.87426 3.2816 0
M  V30 3391 H 336.261 -5.52038 2.60933 0
M  V30 3392 H 337.675 -3.90049 4.20161 0
M  V30 3393 H 336.072 -3.49289 4.87972 0
M  V30 3394 H 337.142 -2.1928 4.32486 0
M  V30 3395 N 338.485 -1.33259 -0.841409 0
M  V30 3396 C 339.732 -1.24572 -1.5965 0
M  V30 3397 C 340.06 0.189137 -1.93578 0
M  V30 3398 O 339.315 1.14566 -1.5866 0
M  V30 3399 C 339.614 -2.06381 -2.9179 0
M  V30 3400 C 339.28 -3.556 -2.77235 0
M  V30 3401 C 337.942 -3.96282 -2.72973 0
M  V30 3402 C 340.294 -4.50433 -2.62221 0
M  V30 3403 C 337.622 -5.30017 -2.51592 0
M  V30 3404 C 339.974 -5.84327 -2.42374 0
M  V30 3405 C 338.638 -6.24194 -2.36512 0
M  V30 3406 H 337.908 -0.455842 -0.5842 0
M  V30 3407 H 340.555 -1.6482 -0.975016 0
M  V30 3408 H 338.86 -1.58903 -3.5813 0
M  V30 3409 H 340.557 -1.97019 -3.49263 0
M  V30 3410 H 337.147 -3.23298 -2.81384 0
M  V30 3411 H 341.331 -4.19914 -2.64549 0
M  V30 3412 H 336.587 -5.59947 -2.45499 0
M  V30 3413 H 340.761 -6.57414 -2.29739 0
M  V30 3414 H 338.388 -7.27759 -2.19706 0
M  V30 3415 N 339.963 1.05934 -1.16686 0
M  V30 3416 C 340.893 2.1546 -0.899949 0
M  V30 3417 C 341.874 1.69391 0.155154 0
M  V30 3418 O 343.059 1.94199 0.00648693 0
M  V30 3419 C 340.189 3.44939 -0.404241 0
M  V30 3420 C 339.143 4.04536 -1.39767 0
M  V30 3421 C 338.469 5.29268 -0.760216 0
M  V30 3422 C 339.769 4.42893 -2.76845 0
M  V30 3423 H 341.463 2.38046 -1.81588 0
M  V30 3424 H 339.009 1.14404 -0.874514 0
M  V30 3425 H 340.962 4.20901 -0.204971 0
M  V30 3426 H 339.686 3.21983 0.547206 0
M  V30 3427 H 338.345 3.30635 -1.58355 0
M  V30 3428 H 337.993 5.02611 0.197831 0
M  V30 3429 H 337.693 5.70101 -1.42332 0
M  V30 3430 H 339.217 6.07924 -0.57105 0
M  V30 3431 H 340.631 5.09921 -2.62019 0
M  V30 3432 H 339.028 4.94721 -3.39663 0
M  V30 3433 H 340.098 3.53584 -3.31823 0
M  V30 3434 N 341.441 0.965919 1.2453 0
M  V30 3435 C 342.681 0.634656 1.94297 0
M  V30 3436 C 343.045 -0.814822 1.73852 0
M  V30 3437 O 344.246 -1.25622 2.3764 0
M  V30 3438 C 342.517 0.99702 3.43212 0
M  V30 3439 S 344.076 0.780038 4.31811 0
M  V30 3440 H 340.894 0.232893 0.671775 0
M  V30 3441 H 343.496 1.24249 1.50938 0
M  V30 3442 H 342.2 2.04886 3.55598 0
M  V30 3443 H 341.731 0.379888 3.91562 0
M  V30 3444 H 343.746 -0.343512 4.9501 0
M  V30 3445 N 342.919 -1.39368 0.735821 0
M  V30 3446 C 344.144 -2.05319 0.293052 0
M  V30 3447 C 344.569 -1.55115 -1.064 0
M  V30 3448 O 343.927 -0.695261 -1.67439 0
M  V30 3449 C 343.975 -3.59305 0.305323 0
M  V30 3450 O 343.079 -4.06299 -0.706761 0
M  V30 3451 H 342.42 -0.650529 0.13307 0
M  V30 3452 H 344.95 -1.78386 1.00197 0
M  V30 3453 H 344.96 -4.07724 0.149997 0
M  V30 3454 H 343.635 -3.95207 1.29553 0
M  V30 3455 H 342.212 -3.69292 -0.517504 0
M  V30 3456 N 344.397 -0.483516 -1.5 0
M  V30 3457 C 345.808 -0.0314176 -1.86674 0
M  V30 3458 C 346.159 1.37728 -1.39733 0
M  V30 3459 O 345.284 2.02327 -0.767635 0
M  V30 3460 C 345.879 -0.0502376 -3.38763 0
M  V30 3461 C 344.438 0.346442 -3.74802 0
M  V30 3462 C 343.585 -0.430366 -2.7394 0
M  V30 3463 H 346.536 -0.697182 -1.42566 0
M  V30 3464 H 346.557 0.749116 -3.73053 0
M  V30 3465 H 346.069 -1.07563 -3.72897 0
M  V30 3466 H 344.17 1.37572 -3.46273 0
M  V30 3467 H 344.283 0.0391486 -4.79084 0
M  V30 3468 H 342.647 0.117557 -2.54429 0
M  V30 3469 H 343.43 -1.4555 -3.10918 0
M  V30 3470 N 345.875 1.56104 -0.216619 0
M  V30 3471 C 346.838 2.18819 0.681962 0
M  V30 3472 C 347.838 1.14866 1.12528 0
M  V30 3473 O 349.028 1.40128 1.03488 0
M  V30 3474 C 346.16 2.80756 1.93362 0
M  V30 3475 H 347.353 2.99595 0.135254 0
M  V30 3476 H 344.906 1.56265 0.0330003 0
M  V30 3477 H 345.641 2.03837 2.52232 0
M  V30 3478 H 345.426 3.56876 1.62426 0
M  V30 3479 H 346.916 3.28844 2.57393 0
M  V30 3480 N 347.353 -0.0568162 1.57498 0
M  V30 3481 C 348.316 -1.05038 2.03715 0
M  V30 3482 C 349.316 -1.30709 0.936577 0
M  V30 3483 O 350.506 -1.26178 1.20103 0
M  V30 3484 C 347.638 -2.39034 2.43055 0
M  V30 3485 H 348.831 -0.651715 2.92733 0
M  V30 3486 H 346.384 -0.302947 1.53336 0
M  V30 3487 H 347.119 -2.83703 1.57108 0
M  V30 3488 H 346.904 -2.21739 3.2338 0
M  V30 3489 H 348.394 -3.10421 2.79336 0
M  V30 3490 N 348.832 -1.54138 -0.328536 0
M  V30 3491 C 350.057 -1.76378 -1.09112 0
M  V30 3492 C 350.482 -0.508596 -1.81094 0
M  V30 3493 O 349.84 0.539598 -1.73084 0
M  V30 3494 C 349.888 -2.95358 -2.06872 0
M  V30 3495 O 348.992 -2.66556 -3.14677 0
M  V30 3496 H 348.333 -0.584614 -0.314838 0
M  V30 3497 H 350.863 -2.01146 -0.374348 0
M  V30 3498 H 350.873 -3.22566 -2.4983 0
M  V30 3499 H 349.548 -3.86385 -1.5388 0
M  V30 3500 H 348.125 -2.50282 -2.7643 0
M  V30 3501 N 350.31 0.590341 -1.46126 0
M  V30 3502 C 351.556 1.34874 -1.52252 0
M  V30 3503 C 351.911 1.91658 -0.168807 0
M  V30 3504 O 351.204 1.73093 0.821556 0
M  V30 3505 C 351.398 2.5032 -2.55097 0
M  V30 3506 C 351.227 2.04843 -4.00337 0
M  V30 3507 C 349.997 1.90213 -4.68132 0
M  V30 3508 C 352.195 1.61267 -4.88362 0
M  V30 3509 N 350.177 1.38727 -5.9802 0
M  V30 3510 C 351.548 1.21319 -6.08015 0
M  V30 3511 C 353.603 1.49015 -4.75078 0
M  V30 3512 C 352.306 0.7034 -7.15852 0
M  V30 3513 C 354.332 0.994401 -5.8298 0
M  V30 3514 C 353.694 0.604659 -7.018 0
M  V30 3515 H 349.793 0.486803 -0.612002 0
M  V30 3516 H 352.377 0.673007 -1.82698 0
M  V30 3517 H 350.548 3.15466 -2.26574 0
M  V30 3518 H 352.28 3.1725 -2.51266 0
M  V30 3519 H 349.035 2.11927 -4.23537 0
M  V30 3520 H 349.459 1.15168 -6.67132 0
M  V30 3521 H 354.101 1.77768 -3.83612 0
M  V30 3522 H 351.819 0.403446 -8.07092 0
M  V30 3523 H 355.405 0.903621 -5.7474 0
M  V30 3524 H 354.285 0.226963 -7.83871 0
M  V30 3525 N 351.788 1.33704 0.83433 0
M  V30 3526 C 353.034 1.25603 1.59222 0
M  V30 3527 C 353.367 -0.176659 1.93395 0
M  V30 3528 O 352.642 -1.11915 1.59076 0
M  V30 3529 C 352.925 2.13576 2.89926 0
M  V30 3530 C 352.778 3.65326 2.62406 0
M  V30 3531 C 354.097 2.01238 3.91397 0
M  V30 3532 H 351.216 0.457613 0.577719 0
M  V30 3533 H 353.858 1.63848 0.961972 0
M  V30 3534 H 352.008 1.8109 3.43713 0
M  V30 3535 H 353.68 4.08124 2.15017 0
M  V30 3536 H 351.923 3.8698 1.96033 0
M  V30 3537 H 352.594 4.22232 3.55562 0
M  V30 3538 H 355.07 2.29738 3.46929 0
M  V30 3539 H 353.946 2.65036 4.80673 0
M  V30 3540 H 354.207 0.985951 4.30966 0
M  V30 3541 N 353.266 -1.05314 1.17247 0
M  V30 3542 C 354.491 -1.82509 0.985148 0
M  V30 3543 C 354.916 -1.82343 -0.461788 0
M  V30 3544 O 354.274 -1.23151 -1.33055 0
M  V30 3545 C 354.322 -3.26566 1.52929 0
M  V30 3546 O 353.426 -4.05666 0.742225 0
M  V30 3547 H 352.767 -0.564347 0.349869 0
M  V30 3548 H 355.297 -1.32718 1.55715 0
M  V30 3549 H 355.307 -3.77369 1.55103 0
M  V30 3550 H 353.982 -3.26001 2.58256 0
M  V30 3551 H 352.559 -3.64397 0.791794 0
M  V30 3552 N 354.744 -0.972509 -1.24016 0
M  V30 3553 C 355.992 -0.635776 -1.91839 0
M  V30 3554 C 356.313 0.832312 -1.76345 0
M  V30 3555 O 355.583 1.5946 -1.13795 0
M  V30 3556 H 354.163 -0.232157 -0.710009 0
M  V30 3557 H 356.825 -1.23462 -1.50809 0
M  V30 3558 H 355.921 -0.880545 -2.99421 0
M  V30 3559 N 356.222 1.38976 -0.743202 0
M  V30 3560 C 357.154 2.29096 -0.0689228 0
M  V30 3561 C 358.167 1.47229 0.694791 0
M  V30 3562 O 359.356 1.70212 0.537597 0
M  V30 3563 C 356.456 3.25988 0.926548 0
M  V30 3564 C 355.629 4.36833 0.222647 0
M  V30 3565 C 354.688 5.13981 1.12739 0
M  V30 3566 O 353.714 5.6601 0.601795 0
M  V30 3567 N 354.916 5.25966 2.45641 0
M  V30 3568 H 357.681 2.87604 -0.842846 0
M  V30 3569 H 355.242 1.50645 -0.593109 0
M  V30 3570 H 357.234 3.74476 1.5346 0
M  V30 3571 H 355.804 2.68453 1.60162 0
M  V30 3572 H 355.024 3.90116 -0.565983 0
M  V30 3573 H 356.312 5.0811 -0.264841 0
M  V30 3574 H 355.71 4.85228 2.9081 0
M  V30 3575 H 354.267 5.77865 3.01522 0
M  V30 3576 N 357.7 0.491464 1.49741 0
M  V30 3577 C 358.949 -0.0582189 2.01616 0
M  V30 3578 C 359.262 -1.38927 1.3769 0
M  V30 3579 O 360.468 -2.02509 1.80838 0
M  V30 3580 C 358.924 -0.154235 3.59569 0
M  V30 3581 C 358.532 1.1696 4.32463 0
M  V30 3582 C 360.276 -0.65479 4.1942 0
M  V30 3583 C 358.183 1.03627 5.8225 0
M  V30 3584 H 357.113 -0.0255317 0.753568 0
M  V30 3585 H 359.764 0.629445 1.72367 0
M  V30 3586 H 358.146 -0.906138 3.85493 0
M  V30 3587 H 359.32 1.93405 4.18248 0
M  V30 3588 H 357.635 1.60285 3.84315 0
M  V30 3589 H 360.232 -0.771903 5.29099 0
M  V30 3590 H 360.575 -1.65127 3.8215 0
M  V30 3591 H 361.108 0.040304 3.9778 0
M  V30 3592 H 357.847 2.00672 6.24028 0
M  V30 3593 H 357.367 0.312546 5.98985 0
M  V30 3594 H 359.046 0.711114 6.4308 0
M  V30 3595 N 359.178 -1.55987 0.224894 0
M  V30 3596 C 360.108 -2.23426 -0.678457 0
M  V30 3597 C 361.089 -1.20709 -1.19847 0
M  V30 3598 O 362.274 -1.49304 -1.24186 0
M  V30 3599 C 359.404 -2.91676 -1.88527 0
M  V30 3600 C 358.358 -4.00893 -1.49896 0
M  V30 3601 C 357.684 -4.56455 -2.78483 0
M  V30 3602 C 358.984 -5.17769 -0.686461 0
M  V30 3603 H 360.678 -2.99175 -0.116173 0
M  V30 3604 H 358.224 -1.43897 -0.054436 0
M  V30 3605 H 360.177 -3.37547 -2.5227 0
M  V30 3606 H 358.901 -2.1338 -2.47258 0
M  V30 3607 H 357.56 -3.55758 -0.884985 0
M  V30 3608 H 357.208 -3.74886 -3.35365 0
M  V30 3609 H 356.908 -5.30169 -2.53368 0
M  V30 3610 H 358.432 -5.05047 -3.43162 0
M  V30 3611 H 359.846 -5.60001 -1.22767 0
M  V30 3612 H 358.243 -5.97735 -0.532259 0
M  V30 3613 H 359.313 -4.83932 0.306196 0
M  V30 3614 N 360.656 0.0484629 -1.57525 0
M  V30 3615 C 361.884 0.755421 -1.92616 0
M  V30 3616 C 362.299 1.69919 -0.822984 0
M  V30 3617 O 361.656 1.81378 0.202085 0
M  V30 3618 C 361.707 1.52915 -3.27566 0
M  V30 3619 O 361.428 0.62329 -4.33644 0
M  V30 3620 C 362.929 2.33502 -3.76818 0
M  V30 3621 H 360.149 0.213465 -0.63614 0
M  V30 3622 H 362.693 0.0117698 -2.04497 0
M  V30 3623 H 360.848 2.22486 -3.17142 0
M  V30 3624 H 361.262 1.16383 -5.11425 0
M  V30 3625 H 362.736 2.83214 -4.73808 0
M  V30 3626 H 363.213 3.14068 -3.07014 0
M  V30 3627 H 363.819 1.69043 -3.90262 0
M  V30 3628 N 362.134 1.5431 0.320358 0
M  V30 3629 C 363.38 1.72924 1.05949 0
M  V30 3630 C 363.713 0.503185 1.87568 0
M  V30 3631 O 362.988 -0.499839 1.87968 0
M  V30 3632 C 363.271 3.00676 1.98156 0
M  V30 3633 C 363.124 4.3354 1.19845 0
M  V30 3634 C 364.443 3.24198 2.9763 0
M  V30 3635 H 361.562 0.629195 0.383774 0
M  V30 3636 H 364.204 1.87008 0.335854 0
M  V30 3637 H 362.354 2.888 2.59859 0
M  V30 3638 H 364.026 4.57305 0.605773 0
M  V30 3639 H 362.269 4.309 0.500784 0
M  V30 3640 H 362.94 5.19156 1.87567 0
M  V30 3641 H 365.416 3.35557 2.4605 0
M  V30 3642 H 364.292 4.14938 3.59329 0
M  V30 3643 H 364.553 2.41577 3.7026 0
M  V30 3644 N 363.613 -0.582584 1.46437 0
M  V30 3645 C 364.838 -1.37168 1.55563 0
M  V30 3646 C 365.263 -1.87061 0.19743 0
M  V30 3647 O 364.621 -1.61572 -0.822451 0
M  V30 3648 C 364.669 -2.53511 2.56446 0
M  V30 3649 O 363.773 -3.54953 2.09958 0
M  V30 3650 H 363.114 -0.408494 0.523477 0
M  V30 3651 H 365.644 -0.706646 1.9201 0
M  V30 3652 H 365.654 -3.00426 2.76058 0
M  V30 3653 H 364.329 -2.16549 3.55076 0
M  V30 3654 H 362.906 -3.14516 2.00334 0
M  V30 3655 N 365.091 -1.34144 -0.827227 0
M  V30 3656 C 366.339 -1.26009 -1.58007 0
M  V30 3657 C 366.66 0.170971 -1.94249 0
M  V30 3658 O 365.93 1.10256 -1.61927 0
M  V30 3659 H 364.51 -0.463414 -0.585881 0
M  V30 3660 H 367.172 -1.68005 -0.987951 0
M  V30 3661 H 366.268 -1.86187 -2.50481 0
M  V30 3662 N 366.569 1.04691 -1.17803 0
M  V30 3663 C 367.817 1.7743 -0.967617 0
M  V30 3664 C 368.138 1.88359 0.504574 0
M  V30 3665 O 367.408 1.40402 1.36617 0
M  V30 3666 H 365.988 0.657242 -0.355024 0
M  V30 3667 H 368.65 1.2638 -1.48371 0
M  V30 3668 H 367.746 2.78924 -1.40027 0
M  V30 3669 N 368.047 0.979072 1.23499 0
M  V30 3670 C 369.295 0.645941 1.91499 0
M  V30 3671 C 369.616 -0.822948 1.76784 0
M  V30 3672 O 368.886 -1.58854 1.14639 0
M  V30 3673 H 367.466 0.235919 0.708767 0
M  V30 3674 H 370.128 1.2426 1.50152 0
M  V30 3675 H 369.224 0.896411 2.9895 0
M  V30 3676 N 369.525 -1.3858 0.750561 0
M  V30 3677 C 370.771 -2.00481 0.305825 0
M  V30 3678 C 371.104 -1.5944 -1.10872 0
M  V30 3679 O 370.379 -0.83052 -1.75877 0
M  V30 3680 C 370.662 -3.5758 0.425287 0
M  V30 3681 C 370.515 -4.08594 1.88072 0
M  V30 3682 C 371.834 -4.39719 -0.183122 0
M  V30 3683 H 368.953 -0.728348 0.112598 0
M  V30 3684 H 371.595 -1.64566 0.949638 0
M  V30 3685 H 369.745 -3.88306 -0.122828 0
M  V30 3686 H 371.417 -3.88523 2.48691 0
M  V30 3687 H 369.66 -3.61574 2.39681 0
M  V30 3688 H 370.331 -5.177 1.91548 0
M  V30 3689 H 372.807 -4.15128 0.284303 0
M  V30 3690 H 371.683 -5.48856 -0.0692757 0
M  V30 3691 H 371.944 -4.23434 -1.27106 0
M  V30 3692 N 371.003 -0.499398 -1.49478 0
M  V30 3693 C 371.935 0.316575 -2.27003 0
M  V30 3694 C 372.948 0.932047 -1.33479 0
M  V30 3695 O 374.137 0.815658 -1.58774 0
M  V30 3696 C 371.237 1.46055 -3.05812 0
M  V30 3697 C 370.41 0.952679 -4.26899 0
M  V30 3698 C 369.469 1.97407 -4.87767 0
M  V30 3699 O 368.495 1.54326 -5.4788 0
M  V30 3700 N 369.697 3.30436 -4.77276 0
M  V30 3701 H 372.462 -0.348168 -2.97671 0
M  V30 3702 H 370.023 -0.33185 -1.58463 0
M  V30 3703 H 372.015 2.14135 -3.43407 0
M  V30 3704 H 370.585 2.02948 -2.37762 0
M  V30 3705 H 369.805 0.0968248 -3.94081 0
M  V30 3706 H 371.093 0.59174 -5.05347 0
M  V30 3707 H 370.491 3.68126 -4.29534 0
M  V30 3708 H 369.048 3.94235 -5.19059 0
M  V30 3709 N 372.481 1.55866 -0.233164 0
M  V30 3710 C 373.391 2.24431 0.683217 0
M  V30 3711 C 374.407 1.2558 1.2044 0
M  V30 3712 O 375.583 1.58422 1.24356 0
M  V30 3713 C 372.648 2.91979 1.86947 0
M  V30 3714 C 371.709 4.06204 1.38912 0
M  V30 3715 C 370.942 4.70522 2.51883 0
M  V30 3716 O 371.165 4.33865 3.70293 0
M  V30 3717 O 370.099 5.59296 2.22423 0
M  V30 3718 H 373.925 3.03426 0.129059 0
M  V30 3719 H 371.51 1.494 -0.0022283 0
M  V30 3720 H 373.392 3.34573 2.56201 0
M  V30 3721 H 372.067 2.15935 2.41151 0
M  V30 3722 H 370.974 3.68155 0.664259 0
M  V30 3723 H 372.307 4.84025 0.893328 0
M  V30 3724 N 373.959 -0.0401083 1.57549 0
M  V30 3725 C 374.889 -1.04384 2.08869 0
M  V30 3726 C 375.87 -1.38407 0.988817 0
M  V30 3727 O 377.055 -1.47483 1.26342 0
M  V30 3728 C 374.185 -2.34808 2.55895 0
M  V30 3729 C 373.139 -2.15057 3.70047 0
M  V30 3730 C 372.465 -3.51145 4.03239 0
M  V30 3731 C 373.765 -1.54576 4.98902 0
M  V30 3732 H 375.459 -0.616666 2.92981 0
M  V30 3733 H 373.005 -0.295184 1.40942 0
M  V30 3734 H 374.958 -3.05346 2.90417 0
M  V30 3735 H 373.682 -2.79565 1.68853 0
M  V30 3736 H 372.341 -1.46954 3.35857 0
M  V30 3737 H 371.989 -3.93529 3.13279 0
M  V30 3738 H 371.689 -3.38758 4.80122 0
M  V30 3739 H 373.213 -4.23062 4.40285 0
M  V30 3740 H 374.627 -2.15017 5.31451 0
M  V30 3741 H 373.024 -1.52796 5.80322 0
M  V30 3742 H 374.094 -0.51039 4.82206 0
M  V30 3743 N 375.437 -1.54477 -0.31217 0
M  V30 3744 C 376.385 -1.85395 -1.40469 0
M  V30 3745 C 377.379 -0.726749 -1.53019 0
M  V30 3746 O 378.585 -0.910582 -1.55269 0
M  V30 3747 H 374.96 -0.587845 -0.46898 0
M  V30 3748 H 376.931 -2.76736 -1.11623 0
M  V30 3749 C 375.68 -2.10811 -2.76503 0
M  V30 3750 H 375.003 -2.97014 -2.67625 0
M  V30 3751 H 376.443 -2.3639 -3.51988 0
M  V30 3752 C 374.902 -0.903165 -3.24568 0
M  V30 3753 O 375.432 -0.118085 -4.01526 0
M  V30 3754 N 373.638 -0.711634 -2.81752 0
M  V30 3755 H 373.185 -1.35171 -2.19286 0
M  V30 3756 H 373.143 0.0930473 -3.14262 0
M  V30 3757 O 376.954 0.458097 -1.54867 0
M  V30 3758 H 377.645 1.11218 -1.58588 0
M  V30 END ATOM
M  V30 BEGIN BOND
M  V30 END BOND
M  V30 END CTAB
M  END
$$$$
