drugbank_target|P0AFI5 D-alanyl-D-alanine endopeptidase (DB01331)
 OpenBabel12092120533D

  0  0  0     0  0            999 V3000
M  V30 BEGIN CTAB
M  V30 COUNTS 4828 4873 0 0 0
M  V30 BEGIN ATOM
M  V30 1 H -0.908 1.98254 -0.117106 0
M  V30 2 N 0 1.576 0 0
M  V30 3 C 0.933 2.03868 1.02534 0
M  V30 4 C 1.911 0.928543 1.3348 0
M  V30 5 O 3.095 1.19667 1.45644 0
M  V30 6 C 0.222 2.43627 2.35294 0
M  V30 7 C -0.732 3.65373 2.2001 0
M  V30 8 S 0.101 5.13292 1.52614 0
M  V30 9 C 1.257 5.56322 2.86805 0
M  V30 10 H 1.49 2.90518 0.631377 0
M  V30 11 H -0.977 1.52953 0.210867 0
M  V30 12 H 0.981 2.67203 3.11629 0
M  V30 13 H -0.358 1.57376 2.7183 0
M  V30 14 H -1.165 3.90944 3.18086 0
M  V30 15 H -1.563 3.418 1.51819 0
M  V30 16 H 0.729 5.58782 3.83104 0
M  V30 17 H 1.672 6.56266 2.65933 0
M  V30 18 H 2.08 4.83886 2.90714 0
M  V30 19 N 1.4781 -0.272755 1.55222 0
M  V30 20 C 2.8891 -0.84378 1.66545 0
M  V30 21 C 3.2401 -1.87035 0.592641 0
M  V30 22 O 2.3651 -2.14761 -0.265818 0
M  V30 23 C 2.9601 -1.53723 3.01918 0
M  V30 24 C 1.5191 -2.05628 3.15268 0
M  V30 25 C 0.6661 -0.898424 2.62343 0
M  V30 26 H 3.6171 -0.0490998 1.58624 0
M  V30 27 H 3.6381 -2.40421 2.94921 0
M  V30 28 H 3.1501 -0.78983 3.79978 0
M  V30 29 H 1.2511 -2.83329 2.41983 0
M  V30 30 H 1.3641 -2.27142 4.21833 0
M  V30 31 H -0.2719 -1.29186 2.19506 0
M  V30 32 H 0.5111 -0.164528 3.42906 0
M  V30 33 N 2.9562 -1.48159 -0.537278 0
M  V30 34 C 3.9032 -1.62138 -1.64256 0
M  V30 35 C 4.8732 -0.463668 -1.59497 0
M  V30 36 O 6.0582 -0.686241 -1.78032 0
M  V30 37 C 3.1982 -1.66028 -3.02537 0
M  V30 38 C 2.3112 -2.92855 -3.17585 0
M  V30 39 C 1.4462 -2.87952 -4.46382 0
M  V30 40 C 0.4852 -4.09516 -4.54932 0
M  V30 41 N -0.3778 -4.02733 -5.75109 0
M  V30 42 H 4.4622 -2.56529 -1.51647 0
M  V30 43 H 1.9992 -1.27224 -0.738414 0
M  V30 44 H 3.9572 -1.66265 -3.82638 0
M  V30 45 H 2.5872 -0.751331 -3.13934 0
M  V30 46 H 1.6392 -3.02395 -2.30784 0
M  V30 47 H 2.9512 -3.82822 -3.19764 0
M  V30 48 H 2.1052 -2.8655 -5.34765 0
M  V30 49 H 0.8442 -1.95702 -4.46712 0
M  V30 50 H -0.1508 -4.11201 -3.64957 0
M  V30 51 H 1.0742 -5.02917 -4.56346 0
M  V30 52 H -0.9798 -3.13299 -5.76351 0
M  V30 53 H -1.0628 -4.86397 -5.78752 0
M  V30 54 H 0.2052 -4.05379 -6.65799 0
M  V30 55 N 4.4343 0.785586 -1.36625 0
M  V30 56 C 5.6813 1.54362 -1.31067 0
M  V30 57 C 6.0093 1.94195 0.10893 0
M  V30 58 O 5.2643 1.63262 1.07908 0
M  V30 59 C 5.5633 2.83007 -2.1827 0
M  V30 60 C 5.2293 2.62294 -3.6676 0
M  V30 61 C 3.8913 2.56353 -4.0723 0
M  V30 62 C 6.2433 2.43371 -4.6089 0
M  V30 63 C 3.5713 2.29461 -5.39967 0
M  V30 64 C 5.9233 2.18005 -5.93849 0
M  V30 65 C 4.5873 2.105 -6.3344 0
M  V30 66 H 3.8573 0.564851 -0.479609 0
M  V30 67 H 6.5043 0.906028 -1.68711 0
M  V30 68 H 4.8093 3.51253 -1.73576 0
M  V30 69 H 6.5063 3.40817 -2.11292 0
M  V30 70 H 3.0963 2.67774 -3.34656 0
M  V30 71 H 7.2803 2.46959 -4.30494 0
M  V30 72 H 2.5363 2.22135 -5.69619 0
M  V30 73 H 6.7103 2.02359 -6.66351 0
M  V30 74 H 4.3373 1.89425 -7.36222 0
M  V30 75 N 5.9124 1.20967 1.01018 0
M  V30 76 C 7.3284 0.965905 1.27053 0
M  V30 77 C 7.5284 -0.350785 1.98423 0
M  V30 78 O 6.5844 -1.07773 2.28344 0
M  V30 79 C 7.8974 2.15294 2.09926 0
M  V30 80 C 9.4454 2.19463 2.23171 0
M  V30 81 C 9.9204 3.3767 3.09424 0
M  V30 82 N 11.4114 3.37724 3.17012 0
M  V30 83 C 12.1464 4.25837 3.83993 0
M  V30 84 N 11.6424 5.24138 4.53047 0
M  V30 85 N 13.4354 4.1366 3.80581 0
M  V30 86 H 5.5864 2.0565 0.531194 0
M  V30 87 H 7.8494 0.90024 0.297106 0
M  V30 88 H 7.5554 3.10684 1.64828 0
M  V30 89 H 7.4294 2.13923 3.10672 0
M  V30 90 H 9.8164 1.24632 2.6749 0
M  V30 91 H 9.8974 2.2488 1.21912 0
M  V30 92 H 9.5414 4.32791 2.65808 0
M  V30 93 H 9.4714 3.29491 4.10784 0
M  V30 94 H 11.9624 2.6658 2.6785 0
M  V30 95 H 12.2754 5.87684 5.01844 0
M  V30 96 H 10.6204 5.28068 4.5185 0
M  V30 97 H 13.8114 3.36127 3.25785 0
M  V30 98 H 13.9844 4.82538 4.32505 0
M  V30 99 N 7.3905 -1.2043 1.01659 0
M  V30 100 C 8.6365 -1.90079 0.706963 0
M  V30 101 C 8.9695 -1.78648 -0.761474 0
M  V30 102 O 8.2445 -1.17069 -1.55323 0
M  V30 103 C 8.5275 -3.41469 1.14327 0
M  V30 104 C 8.3805 -3.61833 2.67201 0
M  V30 105 C 9.6995 -4.34261 0.714529 0
M  V30 106 H 6.8185 -0.690254 0.2583 0
M  V30 107 H 9.4605 -1.41826 1.26433 0
M  V30 108 H 7.6105 -3.82696 0.669056 0
M  V30 109 H 9.2825 -3.2986 3.22475 0
M  V30 110 H 7.5255 -3.05304 3.08175 0
M  V30 111 H 8.1965 -4.67955 2.92783 0
M  V30 112 H 10.6725 -4.00682 1.12221 0
M  V30 113 H 9.5485 -5.38806 1.04784 0
M  V30 114 H 9.8095 -4.40431 -0.383799 0
M  V30 115 N 8.8686 -0.792821 -1.36206 0
M  V30 116 C 10.0936 -0.377701 -2.03932 0
M  V30 117 C 10.5186 0.998947 -1.59382 0
M  V30 118 O 9.8766 1.64421 -0.763903 0
M  V30 119 C 9.9246 -0.453635 -3.57735 0
M  V30 120 O 9.0286 0.538151 -4.08874 0
M  V30 121 H 8.3696 -0.159855 -0.644471 0
M  V30 122 H 10.8996 -1.07488 -1.7409 0
M  V30 123 H 10.9096 -0.318464 -4.06755 0
M  V30 124 H 9.5846 -1.45784 -3.89512 0
M  V30 125 H 8.1616 0.364359 -3.71116 0
M  V30 126 N 10.3467 1.47872 -0.545128 0
M  V30 127 C 11.2767 2.32661 0.197793 0
M  V30 128 C 12.2577 1.43041 0.920504 0
M  V30 129 O 13.4427 1.71912 0.90333 0
M  V30 130 C 10.5727 3.24569 1.23582 0
M  V30 131 C 9.5267 4.23333 0.630323 0
M  V30 132 C 8.8527 5.0448 1.77211 0
M  V30 133 C 10.1527 5.20704 -0.407974 0
M  V30 134 H 11.8467 2.95024 -0.510045 0
M  V30 135 H 9.3927 1.4187 -0.246731 0
M  V30 136 H 11.3457 3.8272 1.76362 0
M  V30 137 H 10.0697 2.60236 1.97344 0
M  V30 138 H 8.7287 3.6639 0.123922 0
M  V30 139 H 8.3767 4.36561 2.49847 0
M  V30 140 H 8.0767 5.71339 1.37281 0
M  V30 141 H 9.6007 5.65487 2.3034 0
M  V30 142 H 11.0147 5.7329 0.033305 0
M  V30 143 H 9.4117 5.95699 -0.725486 0
M  V30 144 H 10.4817 4.66917 -1.30828 0
M  V30 145 N 11.8248 0.280983 1.55075 0
M  V30 146 C 13.0718 -0.334115 1.99725 0
M  V30 147 C 13.3998 -1.5542 1.1694 0
M  V30 148 O 12.6548 -1.94361 0.228531 0
M  V30 149 C 12.9538 -0.754656 3.49342 0
M  V30 150 C 12.6198 0.361445 4.49449 0
M  V30 151 C 11.2818 0.667893 4.76542 0
M  V30 152 C 13.6338 1.11322 5.09173 0
M  V30 153 C 10.9618 1.7296 5.60626 0
M  V30 154 C 13.3138 2.1647 5.9441 0
M  V30 155 C 11.9778 2.47742 6.19822 0
M  V30 156 H 11.2478 -0.122261 0.730844 0
M  V30 157 H 13.8948 0.395917 1.87363 0
M  V30 158 H 12.1998 -1.56446 3.5921 0
M  V30 159 H 13.8968 -1.24142 3.813 0
M  V30 160 H 10.4868 0.112481 4.28452 0
M  V30 161 H 14.6708 0.88973 4.8826 0
M  V30 162 H 9.9268 1.97684 5.78559 0
M  V30 163 H 14.1008 2.75193 6.3972 0
M  V30 164 H 11.7278 3.30145 6.84769 0
M  V30 165 N 13.3029 -1.57598 0.00835791 0
M  V30 166 C 14.5279 -1.95617 -0.689103 0
M  V30 167 C 14.9529 -0.883753 -1.66046 0
M  V30 168 O 14.3109 0.157352 -1.80616 0
M  V30 169 C 14.3589 -3.32736 -1.38994 0
M  V30 170 O 13.4629 -3.27631 -2.50463 0
M  V30 171 H 12.8039 -0.638379 -0.182668 0
M  V30 172 H 15.3339 -2.045 0.064036 0
M  V30 173 H 15.3439 -3.68494 -1.75147 0
M  V30 174 H 14.0189 -4.1034 -0.677778 0
M  V30 175 H 12.5959 -3.03561 -2.16576 0
M  V30 176 N 14.781 0.264519 -1.55364 0
M  V30 177 C 15.711 1.33121 -1.91836 0
M  V30 178 C 16.692 1.51101 -0.781192 0
M  V30 179 O 17.877 1.64003 -1.04003 0
M  V30 180 C 15.007 2.68921 -2.19769 0
M  V30 181 C 13.961 2.65661 -3.35571 0
M  V30 182 C 13.287 4.05093 -3.49004 0
M  V30 183 C 14.587 2.24187 -4.71739 0
M  V30 184 H 16.281 1.02844 -2.81182 0
M  V30 185 H 13.827 0.493286 -1.35287 0
M  V30 186 H 15.78 3.43663 -2.43872 0
M  V30 187 H 14.504 3.00799 -1.27231 0
M  V30 188 H 13.163 1.93377 -3.1145 0
M  V30 189 H 12.811 4.34206 -2.53917 0
M  V30 190 H 12.511 4.03804 -4.26868 0
M  V30 191 H 14.035 4.81561 -3.75408 0
M  V30 192 H 15.449 2.88654 -4.9533 0
M  V30 193 H 13.846 2.34044 -5.52579 0
M  V30 194 H 14.916 1.19327 -4.69988 0
M  V30 195 N 16.2591 1.48442 0.529413 0
M  V30 196 C 17.2221 1.62524 1.61612 0
M  V30 197 C 18.2221 0.498509 1.52877 0
M  V30 198 O 19.4121 0.76431 1.56537 0
M  V30 199 C 16.5441 1.59597 3.01233 0
M  V30 200 H 17.7371 2.59423 1.50465 0
M  V30 201 H 15.2901 1.37047 0.751514 0
M  V30 202 H 16.0251 0.641781 3.17886 0
M  V30 203 H 15.8101 2.41397 3.08982 0
M  V30 204 H 17.3001 1.72646 3.80241 0
M  V30 205 N 17.7372 -0.778329 1.37039 0
M  V30 206 C 18.6672 -1.90546 1.34962 0
M  V30 207 C 19.6482 -1.68681 0.219274 0
M  V30 208 O 20.8332 -1.89634 0.418624 0
M  V30 209 C 17.9632 -3.27734 1.14925 0
M  V30 210 C 16.9172 -3.64147 2.24902 0
M  V30 211 C 16.2432 -4.99806 1.89996 0
M  V30 212 C 17.5432 -3.71579 3.67051 0
M  V30 213 H 19.2372 -1.92541 2.29277 0
M  V30 214 H 16.7832 -0.924948 1.10366 0
M  V30 215 H 18.7362 -4.06215 1.12104 0
M  V30 216 H 17.4602 -3.26154 0.170631 0
M  V30 217 H 16.1192 -2.8797 2.26868 0
M  V30 218 H 15.7672 -4.94759 0.906796 0
M  V30 219 H 15.4672 -5.25139 2.63634 0
M  V30 220 H 16.9912 -5.80694 1.88749 0
M  V30 221 H 18.4052 -4.40227 3.67251 0
M  V30 222 H 16.8022 -4.08405 4.39688 0
M  V30 223 H 17.8722 -2.72404 4.01154 0
M  V30 224 N 19.2153 -1.21501 -1.00376 0
M  V30 225 C 20.1483 -0.918669 -2.08892 0
M  V30 226 C 21.1263 0.134277 -1.62045 0
M  V30 227 O 22.3103 0.00504255 -1.88499 0
M  V30 228 C 19.4373 -0.379645 -3.36566 0
M  V30 229 C 18.4833 -1.41559 -4.02323 0
M  V30 230 S 19.3163 -2.98521 -4.44574 0
M  V30 231 C 20.4723 -2.46228 -5.75433 0
M  V30 232 H 20.7053 -1.83761 -2.33707 0
M  V30 233 H 18.2383 -1.04489 -1.13673 0
M  V30 234 H 20.1963 -0.0752195 -4.10431 0
M  V30 235 H 18.8573 0.518008 -3.09799 0
M  V30 236 H 18.0503 -0.988076 -4.9422 0
M  V30 237 H 17.6523 -1.66815 -3.34737 0
M  V30 238 H 19.9443 -1.86791 -6.51241 0
M  V30 239 H 20.8873 -3.36572 -6.22997 0
M  V30 240 H 21.2953 -1.87894 -5.32312 0
M  V30 241 N 20.6934 1.19889 -1.02296 0
M  V30 242 C 21.6234 2.25141 -0.619174 0
M  V30 243 C 22.6044 1.66051 0.368915 0
M  V30 244 O 23.7894 1.92546 0.252941 0
M  V30 245 C 20.9194 3.4728 0.0368783 0
M  V30 246 C 19.8734 4.19005 -0.872865 0
M  V30 247 C 19.1994 5.34637 -0.0822402 0
M  V30 248 C 20.4994 4.74452 -2.18387 0
M  V30 249 H 22.1934 2.59171 -1.49903 0
M  V30 250 H 19.7394 1.24579 -0.722222 0
M  V30 251 H 21.6924 4.20098 0.330958 0
M  V30 252 H 20.4164 3.12433 0.95149 0
M  V30 253 H 19.0754 3.48061 -1.15105 0
M  V30 254 H 18.7234 4.96034 0.83422 0
M  V30 255 H 18.4234 5.83557 -0.688149 0
M  V30 256 H 19.9474 6.10255 0.205238 0
M  V30 257 H 21.3614 5.39055 -1.95172 0
M  V30 258 H 19.7584 5.33834 -2.74119 0
M  V30 259 H 20.8284 3.92844 -2.84257 0
M  V30 260 N 22.1715 0.800033 1.35784 0
M  V30 261 C 23.1345 0.211565 2.28221 0
M  V30 262 C 24.1345 -0.59728 1.49296 0
M  V30 263 O 25.3245 -0.416721 1.69142 0
M  V30 264 C 22.4565 -0.705846 3.33513 0
M  V30 265 H 23.6495 1.02677 2.81776 0
M  V30 266 H 21.2025 0.570211 1.45528 0
M  V30 267 H 21.9375 -1.54498 2.85133 0
M  V30 268 H 21.7225 -0.127655 3.91892 0
M  V30 269 H 23.2125 -1.11211 4.02519 0
M  V30 270 N 23.6496 -1.47581 0.552962 0
M  V30 271 C 24.8956 -2.02782 0.0273648 0
M  V30 272 C 25.2286 -1.42687 -1.31734 0
M  V30 273 O 24.5036 -0.580897 -1.85623 0
M  V30 274 C 24.7866 -3.60031 -0.0702371 0
M  V30 275 C 24.6396 -4.30566 1.30126 0
M  V30 276 C 25.9586 -4.33028 -0.785771 0
M  V30 277 H 23.0776 -0.736912 0.0114185 0
M  V30 278 H 25.7196 -1.76056 0.714432 0
M  V30 279 H 23.8696 -3.82932 -0.655382 0
M  V30 280 H 25.5416 -4.19018 1.92929 0
M  V30 281 H 23.7846 -3.91086 1.87709 0
M  V30 282 H 24.4556 -5.39114 1.18573 0
M  V30 283 H 26.9316 -4.15095 -0.288982 0
M  V30 284 H 25.8076 -5.42695 -0.823013 0
M  V30 285 H 26.0686 -4.01945 -1.841 0
M  V30 286 N 25.1277 -0.289203 -1.54924 0
M  V30 287 C 26.5387 0.205791 -1.85562 0
M  V30 288 C 26.8897 1.54351 -1.2112 0
M  V30 289 O 26.0147 2.10435 -0.504601 0
M  V30 290 C 26.6097 0.380177 -3.3666 0
M  V30 291 C 25.1687 0.819395 -3.67373 0
M  V30 292 C 24.3157 -0.079159 -2.77187 0
M  V30 293 H 27.2667 -0.510577 -1.50262 0
M  V30 294 H 27.2877 1.21659 -3.60526 0
M  V30 295 H 26.7997 -0.593589 -3.83534 0
M  V30 296 H 24.9007 1.80413 -3.26009 0
M  V30 297 H 25.0137 0.646957 -4.74712 0
M  V30 298 H 23.3777 0.439565 -2.50878 0
M  V30 299 H 24.1607 -1.04906 -3.26878 0
M  V30 300 N 26.6058 1.57591 -0.0167156 0
M  V30 301 C 27.8528 1.91283 0.664597 0
M  V30 302 C 28.1808 0.891949 1.72842 0
M  V30 303 O 27.4358 -0.100931 1.9544 0
M  V30 304 C 27.7348 3.3172 1.33029 0
M  V30 305 C 27.4008 4.4914 0.398047 0
M  V30 306 C 26.0628 4.80992 0.141421 0
M  V30 307 C 28.4148 5.20634 -0.242825 0
M  V30 308 C 25.7428 5.81703 -0.764092 0
M  V30 309 C 28.0948 6.22311 -1.13632 0
M  V30 310 C 26.7588 6.52611 -1.40196 0
M  V30 311 H 26.0288 0.699956 0.243193 0
M  V30 312 H 28.6758 1.9135 -0.0758267 0
M  V30 313 H 26.9808 3.27856 2.14517 0
M  V30 314 H 28.6778 3.55055 1.86379 0
M  V30 315 H 25.2678 4.24262 0.608238 0
M  V30 316 H 29.4518 4.96267 -0.0576019 0
M  V30 317 H 24.7078 6.03532 -0.977732 0
M  V30 318 H 28.8818 6.76834 -1.63917 0
M  V30 319 H 26.5088 7.30467 -2.10529 0
M  V30 320 N 28.0839 -0.256276 1.55502 0
M  V30 321 C 29.0469 -1.30047 1.88734 0
M  V30 322 C 30.0469 -1.4154 0.763086 0
M  V30 323 O 31.2369 -1.40403 1.03115 0
M  V30 324 C 28.3689 -2.67953 2.10747 0
M  V30 325 H 29.5619 -1.01802 2.82093 0
M  V30 326 H 27.1149 -0.495134 1.4825 0
M  V30 327 H 27.8499 -3.01351 1.19825 0
M  V30 328 H 27.6349 -2.60993 2.92617 0
M  V30 329 H 29.1249 -3.43368 2.37673 0
M  V30 330 N 29.562 -1.4872 -0.521534 0
M  V30 331 C 30.973 -1.50607 -1.10337 0
M  V30 332 C 31.324 -0.280612 -1.94183 0
M  V30 333 O 30.449 0.611507 -2.0758 0
M  V30 334 C 31.044 -2.72903 -2.00772 0
M  V30 335 C 29.603 -2.77634 -2.54158 0
M  V30 336 C 28.75 -2.44241 -1.31307 0
M  V30 337 H 31.701 -1.55714 -0.306388 0
M  V30 338 H 31.722 -2.519 -2.85178 0
M  V30 339 H 31.234 -3.62077 -1.39721 0
M  V30 340 H 29.335 -1.92689 -3.18907 0
M  V30 341 H 29.448 -3.79283 -2.92714 0
M  V30 342 H 27.812 -1.95577 -1.63161 0
M  V30 343 H 28.595 -3.35666 -0.719943 0
M  V30 344 N 31.0401 0.771051 -1.3745 0
M  V30 345 C 31.9721 1.89352 -1.29146 0
M  V30 346 C 32.9851 1.61477 -0.207124 0
M  V30 347 O 34.1741 1.72382 -0.463324 0
M  V30 348 C 31.2741 3.24596 -0.974195 0
M  V30 349 C 30.4471 3.80111 -2.16413 0
M  V30 350 C 29.5061 4.93832 -1.81703 0
M  V30 351 O 28.5321 5.09382 -2.54006 0
M  V30 352 N 29.7341 5.75483 -0.761573 0
M  V30 353 H 32.4991 1.96991 -2.25864 0
M  V30 354 H 30.0601 0.950191 -1.31084 0
M  V30 355 H 32.0521 3.98193 -0.722828 0
M  V30 356 H 30.6221 3.12454 -0.0955527 0
M  V30 357 H 29.8421 2.98284 -2.57721 0
M  V30 358 H 31.1301 4.13932 -2.95867 0
M  V30 359 H 30.5281 5.65469 -0.161609 0
M  V30 360 H 29.0851 6.49302 -0.570064 0
M  V30 361 N 32.5182 1.22032 0.997298 0
M  V30 362 C 33.4812 0.987909 2.06816 0
M  V30 363 C 34.4812 -0.0440084 1.6074 0
M  V30 364 O 35.6712 0.194053 1.73116 0
M  V30 365 C 32.8032 0.49132 3.37341 0
M  V30 366 H 33.9962 1.93803 2.28868 0
M  V30 367 H 31.5492 1.03838 1.16822 0
M  V30 368 H 32.2842 -0.463364 3.20973 0
M  V30 369 H 32.0692 1.23575 3.72118 0
M  V30 370 H 33.5592 0.348824 4.16141 0
M  V30 371 N 33.9963 -1.19345 1.0293 0
M  V30 372 C 35.2423 -1.89318 0.727083 0
M  V30 373 C 35.5753 -1.79446 -0.742483 0
M  V30 374 O 34.8503 -1.1871 -1.54072 0
M  V30 375 C 35.1333 -3.40238 1.17942 0
M  V30 376 C 34.9863 -3.58979 2.71024 0
M  V30 377 C 36.3053 -4.33479 0.760548 0
M  V30 378 H 33.4243 -0.687475 0.265606 0
M  V30 379 H 36.0663 -1.40477 1.2793 0
M  V30 380 H 34.2163 -3.81964 0.709608 0
M  V30 381 H 35.8883 -3.26421 3.25955 0
M  V30 382 H 34.1313 -3.02018 3.11396 0
M  V30 383 H 34.8023 -4.64823 2.9773 0
M  V30 384 H 37.2783 -3.99469 1.16464 0
M  V30 385 H 36.1543 -5.37664 1.10493 0
M  V30 386 H 36.4153 -4.40813 -0.337063 0
M  V30 387 N 35.4744 -0.807222 -1.35358 0
M  V30 388 C 36.4374 -0.223665 -2.28106 0
M  V30 389 C 37.4374 0.589354 -1.4961 0
M  V30 390 O 38.6274 0.407745 -1.69361 0
M  V30 391 C 35.7594 0.688149 -3.33882 0
M  V30 392 H 36.9524 -1.04169 -2.81227 0
M  V30 393 H 34.5054 -0.577921 -1.45223 0
M  V30 394 H 35.2404 1.52984 -2.85948 0
M  V30 395 H 35.0254 0.10687 -3.91954 0
M  V30 396 H 36.5154 1.09075 -4.03104 0
M  V30 397 N 36.9525 1.47285 -0.560781 0
M  V30 398 C 37.8995 2.30058 0.18491 0
M  V30 399 C 38.8695 1.39281 0.904986 0
M  V30 400 O 40.0545 1.68241 0.899979 0
M  V30 401 C 37.1945 3.23317 1.20666 0
M  V30 402 C 36.3075 4.29186 0.492285 0
M  V30 403 C 35.4425 5.09592 1.49964 0
M  V30 404 C 34.4815 6.07232 0.770439 0
M  V30 405 N 33.6185 6.80584 1.72479 0
M  V30 406 H 38.4585 2.93302 -0.527048 0
M  V30 407 H 35.9955 1.44568 -0.271738 0
M  V30 408 H 37.9535 3.75811 1.81168 0
M  V30 409 H 36.5835 2.61929 1.88661 0
M  V30 410 H 35.6355 3.7972 -0.227333 0
M  V30 411 H 36.9475 4.98738 -0.0787929 0
M  V30 412 H 36.1015 5.66254 2.17809 0
M  V30 413 H 34.8405 4.3995 2.10464 0
M  V30 414 H 33.8455 5.49745 0.0780846 0
M  V30 415 H 35.0705 6.78884 0.171134 0
M  V30 416 H 33.0165 6.1367 2.3183 0
M  V30 417 H 32.9335 7.46319 1.20596 0
M  V30 418 H 34.2015 7.41818 2.39428 0
M  V30 419 N 38.4306 0.297415 1.54768 0
M  V30 420 C 39.6586 -0.315623 2.04478 0
M  V30 421 C 40.0736 -1.47792 1.17486 0
M  V30 422 O 39.4306 -1.81404 0.19971 0
M  V30 423 C 39.4816 -0.7753 3.53088 0
M  V30 424 O 39.2026 0.340732 4.36773 0
M  V30 425 C 40.7036 -1.45386 4.18781 0
M  V30 426 H 37.9236 -0.0690887 0.667434 0
M  V30 427 H 40.4676 0.436003 1.99798 0
M  V30 428 H 38.6226 -1.47696 3.58141 0
M  V30 429 H 39.0366 -0.0165035 5.24497 0
M  V30 430 H 40.5106 -1.72669 5.24299 0
M  V30 431 H 40.9876 -2.39275 3.68299 0
M  V30 432 H 41.5936 -0.795475 4.17795 0
M  V30 433 N 39.9087 -1.5758 0.0250728 0
M  V30 434 C 40.8717 -2.08896 -0.943139 0
M  V30 435 C 41.8717 -1.00321 -1.25668 0
M  V30 436 O 43.0617 -1.26495 -1.19769 0
M  V30 437 C 40.1937 -2.55143 -2.26086 0
M  V30 438 H 41.3867 -2.95723 -0.498775 0
M  V30 439 H 38.9397 -1.54703 -0.222888 0
M  V30 440 H 39.6747 -1.71633 -2.75159 0
M  V30 441 H 39.4597 -3.34461 -2.04641 0
M  V30 442 H 40.9497 -2.95083 -2.95492 0
M  V30 443 N 41.3868 0.248026 -1.55636 0
M  V30 444 C 42.3498 1.29044 -1.89421 0
M  V30 445 C 43.3498 1.41134 -0.770581 0
M  V30 446 O 44.5398 1.39854 -1.03858 0
M  V30 447 C 41.6718 2.66831 -2.12165 0
M  V30 448 H 42.8648 1.00305 -2.82629 0
M  V30 449 H 40.4178 0.487265 -1.48511 0
M  V30 450 H 41.1528 3.00711 -1.21422 0
M  V30 451 H 40.9378 2.59438 -2.93997 0
M  V30 452 H 42.4278 3.42103 -2.3949 0
M  V30 453 N 42.8649 1.48995 0.513639 0
M  V30 454 C 43.8279 1.64229 1.59879 0
M  V30 455 C 44.8279 0.514696 1.5234 0
M  V30 456 O 46.0179 0.78087 1.55718 0
M  V30 457 C 43.1499 1.62783 2.99524 0
M  V30 458 H 44.3429 2.61004 1.47705 0
M  V30 459 H 41.8959 1.37837 0.736936 0
M  V30 460 H 42.6309 0.675461 3.17188 0
M  V30 461 H 42.4159 2.4466 3.06404 0
M  V30 462 H 43.9059 1.76669 3.78388 0
M  V30 463 N 44.343 -0.763751 1.37857 0
M  V30 464 C 45.571 -1.55293 1.36718 0
M  V30 465 C 45.986 -1.88745 -0.0455434 0
M  V30 466 O 45.343 -1.52039 -1.00947 0
M  V30 467 C 45.394 -2.85831 2.2132 0
M  V30 468 O 45.115 -2.5381 3.57089 0
M  V30 469 C 46.616 -3.80023 2.28249 0
M  V30 470 H 43.836 -0.480841 0.468009 0
M  V30 471 H 46.38 -0.946009 1.81303 0
M  V30 472 H 44.535 -3.42926 1.80223 0
M  V30 473 H 44.949 -3.37459 4.01524 0
M  V30 474 H 46.423 -4.68599 2.91752 0
M  V30 475 H 46.9 -4.1973 1.2932 0
M  V30 476 H 47.506 -3.28855 2.69693 0
M  V30 477 N 45.8211 -1.22559 -0.990812 0
M  V30 478 C 47.0491 -1.07779 -1.76611 0
M  V30 479 C 47.4641 0.371513 -1.85109 0
M  V30 480 O 46.8211 1.25737 -1.32274 0
M  V30 481 C 46.8721 -1.68512 -3.19822 0
M  V30 482 O 46.5931 -3.07774 -3.1178 0
M  V30 483 C 48.0941 -1.59035 -4.13791 0
M  V30 484 H 45.3141 -0.377729 -0.554583 0
M  V30 485 H 47.8581 -1.62195 -1.24551 0
M  V30 486 H 46.0131 -1.18154 -3.68942 0
M  V30 487 H 46.4271 -3.37062 -4.01858 0
M  V30 488 H 47.9011 -2.0625 -5.1202 0
M  V30 489 H 48.3781 -0.547273 -4.35777 0
M  V30 490 H 48.9841 -2.08709 -3.70568 0
M  V30 491 N 47.2992 1.18797 -1.03562 0
M  V30 492 C 48.2622 2.20464 -0.626769 0
M  V30 493 C 49.2622 1.57721 0.313173 0
M  V30 494 O 50.4522 1.73917 0.0992615 0
M  V30 495 C 47.5842 3.40802 0.0818498 0
M  V30 496 H 48.7772 2.58149 -1.5264 0
M  V30 497 H 46.3302 1.32593 -0.827578 0
M  V30 498 H 47.0652 3.08642 0.995518 0
M  V30 499 H 46.8502 3.8758 -0.593652 0
M  V30 500 H 48.3402 4.16092 0.354584 0
M  V30 501 N 48.7773 0.814389 1.34928 0
M  V30 502 C 50.0023 0.410097 2.03305 0
M  V30 503 C 50.4273 -0.973464 1.60951 0
M  V30 504 O 49.7853 -1.63185 0.789964 0
M  V30 505 C 49.8333 0.51049 3.56968 0
M  V30 506 O 48.9373 -0.473035 4.09678 0
M  V30 507 H 48.2783 0.170088 0.641846 0
M  V30 508 H 50.8083 1.10244 1.72358 0
M  V30 509 H 50.8183 0.383135 4.06197 0
M  V30 510 H 49.4933 1.51963 3.87144 0
M  V30 511 H 48.0703 -0.305272 3.71648 0
M  V30 512 N 50.2554 -1.46986 0.568584 0
M  V30 513 C 51.1874 -2.28233 -0.210337 0
M  V30 514 C 52.2004 -1.37682 -0.868767 0
M  V30 515 O 53.3894 -1.62406 -0.740705 0
M  V30 516 C 50.4894 -3.12293 -1.3163 0
M  V30 517 C 49.6624 -4.30878 -0.7525 0
M  V30 518 C 48.7214 -4.96445 -1.74439 0
M  V30 519 O 47.7474 -5.54482 -1.286 0
M  V30 520 N 48.9494 -4.92171 -3.07812 0
M  V30 521 H 51.7144 -2.95723 0.486648 0
M  V30 522 H 49.2754 -1.56742 0.405409 0
M  V30 523 H 51.2674 -3.53022 -1.97883 0
M  V30 524 H 49.8374 -2.46971 -1.91636 0
M  V30 525 H 49.0574 -3.94104 0.0871128 0
M  V30 526 H 50.3454 -5.07558 -0.35536 0
M  V30 527 H 49.7434 -4.46239 -3.47688 0
M  V30 528 H 48.3004 -5.36884 -3.69592 0
M  V30 529 N 51.7335 -0.305618 -1.54608 0
M  V30 530 C 53.1445 0.186098 -1.8577 0
M  V30 531 C 53.4955 1.53058 -1.22751 0
M  V30 532 O 52.6205 2.09888 -0.526893 0
M  V30 533 C 53.2155 0.344449 -3.37044 0
M  V30 534 C 51.7745 0.780384 -3.68221 0
M  V30 535 C 50.9215 -0.108554 -2.77087 0
M  V30 536 H 53.8725 -0.526485 -1.49712 0
M  V30 537 H 53.8935 1.17828 -3.61796 0
M  V30 538 H 53.4055 -0.634235 -3.82883 0
M  V30 539 H 51.5065 1.76945 -3.27904 0
M  V30 540 H 51.6195 0.596572 -4.75371 0
M  V30 541 H 49.9835 0.412931 -2.5133 0
M  V30 542 H 50.7665 -1.08368 -3.25747 0
M  V30 543 N 53.2116 1.57565 -0.0334293 0
M  V30 544 C 54.1216 2.13943 0.962572 0
M  V30 545 C 55.1376 1.09276 1.35406 0
M  V30 546 O 56.3136 1.41355 1.4346 0
M  V30 547 C 53.3786 2.65887 2.22497 0
M  V30 548 C 52.4396 3.85286 1.8935 0
M  V30 549 C 51.6726 4.34743 3.09571 0
M  V30 550 O 51.8956 3.83352 4.22371 0
M  V30 551 O 50.8296 5.26538 2.91618 0
M  V30 552 H 54.6556 2.99333 0.513169 0
M  V30 553 H 52.2406 1.4822 0.18743 0
M  V30 554 H 54.1226 2.99346 2.96598 0
M  V30 555 H 52.7976 1.83578 2.6661 0
M  V30 556 H 51.7046 3.56746 1.1262 0
M  V30 557 H 53.0376 4.68771 1.5005 0
M  V30 558 N 54.6897 -0.239769 1.55765 0
M  V30 559 C 55.9387 -0.964754 1.77131 0
M  V30 560 C 56.2517 -1.86213 0.59868 0
M  V30 561 O 57.4577 -2.6244 0.695522 0
M  V30 562 C 55.9137 -1.76552 3.1362 0
M  V30 563 C 55.5217 -0.915185 4.38553 0
M  V30 564 C 57.2657 -2.48281 3.44321 0
M  V30 565 C 55.1727 -1.71225 5.66071 0
M  V30 566 H 54.1027 -0.363953 0.660344 0
M  V30 567 H 56.7537 -0.219181 1.82186 0
M  V30 568 H 55.1357 -2.55331 3.02691 0
M  V30 569 H 56.3097 -0.169217 4.60489 0
M  V30 570 H 54.6247 -0.310889 4.15238 0
M  V30 571 H 57.2217 -3.08382 4.36812 0
M  V30 572 H 57.5647 -3.20256 2.65973 0
M  V30 573 H 58.0977 -1.76507 3.56497 0
M  V30 574 H 54.8367 -1.03612 6.4726 0
M  V30 575 H 54.3567 -2.43331 5.48224 0
M  V30 576 H 56.0357 -2.27758 6.05587 0
M  V30 577 N 56.1678 -1.49265 -0.50573 0
M  V30 578 C 57.1308 -1.65075 -1.59006 0
M  V30 579 C 58.1308 -0.522768 -1.52065 0
M  V30 580 O 59.3208 -0.789117 -1.55302 0
M  V30 581 C 56.4528 -1.64369 -2.98656 0
M  V30 582 H 57.6458 -2.61784 -1.46319 0
M  V30 583 H 55.1988 -1.38226 -0.729616 0
M  V30 584 H 55.9338 -0.692272 -3.16825 0
M  V30 585 H 55.7188 -2.46282 -3.05103 0
M  V30 586 H 57.2088 -1.78674 -3.77446 0
M  V30 587 N 57.6459 0.756429 -1.3826 0
M  V30 588 C 58.8709 1.55077 -1.37717 0
M  V30 589 C 59.2959 1.88073 0.03164 0
M  V30 590 O 58.6539 1.50364 1.01293 0
M  V30 591 C 58.7019 2.8283 -2.23695 0
M  V30 592 O 57.8059 3.77862 -1.6521 0
M  V30 593 H 57.1469 0.469152 -0.469885 0
M  V30 594 H 59.6769 0.935019 -1.81985 0
M  V30 595 H 59.6869 3.31783 -2.37453 0
M  V30 596 H 58.3619 2.58144 -3.2609 0
M  V30 597 H 56.9389 3.36555 -1.60578 0
M  V30 598 N 59.124 1.23083 0.984299 0
M  V30 599 C 60.372 1.05848 1.72165 0
M  V30 600 C 60.693 -0.406049 1.90726 0
M  V30 601 O 59.963 -1.29139 1.47309 0
M  V30 602 H 58.543 0.388685 0.637913 0
M  V30 603 H 61.205 1.54736 1.18503 0
M  V30 604 H 60.301 1.54327 2.71274 0
M  V30 605 N 60.6021 -1.18246 1.0419 0
M  V30 606 C 61.8271 -1.92736 0.765996 0
M  V30 607 C 62.2521 -1.75728 -0.67091 0
M  V30 608 O 61.6101 -1.06825 -1.46486 0
M  V30 609 C 61.6581 -3.42148 1.13875 0
M  V30 610 O 60.7621 -4.11548 0.264954 0
M  V30 611 H 60.1031 -0.601238 0.281797 0
M  V30 612 H 62.6331 -1.49942 1.39207 0
M  V30 613 H 62.6431 -3.92858 1.1012 0
M  V30 614 H 61.3181 -3.53848 2.18551 0
M  V30 615 H 59.8951 -3.71137 0.362226 0
M  V30 616 N 62.0802 -0.821533 -1.34494 0
M  V30 617 C 63.0432 -0.247847 -2.27856 0
M  V30 618 C 64.0432 0.573453 -1.50227 0
M  V30 619 O 65.2332 0.389759 -1.69784 0
M  V30 620 C 62.3652 0.652698 -3.34593 0
M  V30 621 H 63.5582 -1.07146 -2.80107 0
M  V30 622 H 61.1112 -0.593291 -1.44602 0
M  V30 623 H 61.8462 1.49943 -2.87555 0
M  V30 624 H 61.6312 0.065292 -3.92046 0
M  V30 625 H 63.1212 1.04793 -4.04238 0
M  V30 626 N 63.5583 1.46682 -0.576371 0
M  V30 627 C 64.4913 2.27243 0.208731 0
M  V30 628 C 65.4693 1.35238 0.902746 0
M  V30 629 O 66.6533 1.64641 0.917904 0
M  V30 630 C 63.7803 3.12802 1.29896 0
M  V30 631 C 62.8263 4.20524 0.711457 0
M  V30 632 S 63.6593 5.33548 -0.456781 0
M  V30 633 C 64.8153 6.22673 0.634798 0
M  V30 634 H 65.0483 2.93484 -0.474838 0
M  V30 635 H 62.5813 1.50069 -0.363118 0
M  V30 636 H 64.5393 3.62661 1.92321 0
M  V30 637 H 63.2003 2.45887 1.95444 0
M  V30 638 H 62.3933 4.80191 1.53076 0
M  V30 639 H 61.9953 3.73645 0.162999 0
M  V30 640 H 64.2873 6.60181 1.52209 0
M  V30 641 H 65.2303 7.0806 0.0750311 0
M  V30 642 H 65.6383 5.56684 0.936092 0
M  V30 643 N 65.0364 0.313813 1.54444 0
M  V30 644 C 66.2854 -0.292519 1.99568 0
M  V30 645 C 66.5984 -1.54011 1.20582 0
M  V30 646 O 67.8044 -2.22183 1.56035 0
M  V30 647 C 66.2604 -0.571752 3.55329 0
M  V30 648 C 65.8684 0.658229 4.43138 0
M  V30 649 C 67.6124 -1.13857 4.08946 0
M  V30 650 C 65.5194 0.351439 5.90355 0
M  V30 651 H 64.4494 -0.113079 0.745472 0
M  V30 652 H 67.1004 0.424518 1.78522 0
M  V30 653 H 65.4824 -1.34872 3.72325 0
M  V30 654 H 66.6564 1.43403 4.37918 0
M  V30 655 H 64.9714 1.14458 4.0036 0
M  V30 656 H 67.5684 -1.38257 5.16516 0
M  V30 657 H 67.9114 -2.08489 3.6033 0
M  V30 658 H 68.4444 -0.423015 3.95544 0
M  V30 659 H 65.1834 1.26667 6.43145 0
M  V30 660 H 64.7034 -0.386842 5.98551 0
M  V30 661 H 66.3824 -0.0423134 6.46986 0
M  V30 662 N 66.5145 -1.57545 0.0417849 0
M  V30 663 C 67.7605 -1.92601 -0.635021 0
M  V30 664 C 68.0935 -0.919627 -1.71045 0
M  V30 665 O 67.3685 0.0557892 -1.9442 0
M  V30 666 C 67.6515 -3.38085 -1.23979 0
M  V30 667 C 67.5045 -4.49467 -0.173057 0
M  V30 668 C 68.8235 -3.83776 -2.15416 0
M  V30 669 H 65.9425 -0.700397 -0.229374 0
M  V30 670 H 68.5845 -1.89728 0.101633 0
M  V30 671 H 66.7345 -3.40664 -1.86762 0
M  V30 672 H 68.4065 -4.59018 0.458312 0
M  V30 673 H 66.6495 -4.30909 0.499996 0
M  V30 674 H 67.3205 -5.48323 -0.636054 0
M  V30 675 H 69.7965 -3.83013 -1.62605 0
M  V30 676 H 68.6725 -4.8624 -2.54679 0
M  V30 677 H 68.9335 -3.19998 -3.05047 0
M  V30 678 N 67.9926 0.231505 -1.5589 0
M  V30 679 C 69.2696 0.981096 -1.69215 0
M  V30 680 C 69.6496 2.02799 -0.586164 0
M  V30 681 O 68.9976 2.24823 0.408253 0
M  V30 682 C 69.2076 1.60054 -3.10135 0
M  V30 683 C 70.5556 2.09658 -3.69227 0
M  V30 684 O 71.5796 1.69967 -3.13033 0
M  V30 685 O 70.4386 2.8258 -4.67772 0
M  V30 686 H 67.5326 0.457653 -0.688827 0
M  V30 687 H 70.0786 0.224073 -1.68214 0
M  V30 688 H 68.8506 0.844105 -3.82087 0
M  V30 689 H 68.4736 2.42336 -3.15212 0
M  V30 690 N 69.4707 1.49531 0.497807 0
M  V30 691 C 70.4007 1.6935 1.60757 0
M  V30 692 C 71.3817 0.542218 1.61227 0
M  V30 693 O 72.5667 0.778417 1.77917 0
M  V30 694 C 69.6967 1.76298 2.99226 0
M  V30 695 C 68.6507 2.91248 3.13622 0
M  V30 696 C 67.9767 2.83312 4.53474 0
M  V30 697 C 69.2767 4.3214 2.93346 0
M  V30 698 H 70.9707 2.62263 1.44425 0
M  V30 699 H 68.5167 1.26208 0.693367 0
M  V30 700 H 70.4697 1.88749 3.76765 0
M  V30 701 H 69.1937 0.799871 3.16654 0
M  V30 702 H 67.8527 2.78404 2.38509 0
M  V30 703 H 67.5007 1.84902 4.67782 0
M  V30 704 H 67.2007 3.60465 4.64046 0
M  V30 705 H 68.7247 2.97775 5.33069 0
M  V30 706 H 70.1387 4.45649 3.60652 0
M  V30 707 H 68.5357 5.1054 3.15387 0
M  V30 708 H 69.6057 4.46363 1.89441 0
M  V30 709 N 70.9488 -0.749086 1.3866 0
M  V30 710 C 71.8968 -1.88428 1.36373 0
M  V30 711 C 72.8908 -1.67561 0.248929 0
M  V30 712 O 74.0968 -1.75074 0.41821 0
M  V30 713 H 70.4718 -0.620023 0.42553 0
M  V30 714 H 72.4428 -1.87473 2.32156 0
M  V30 715 C 71.1918 -3.25961 1.21014 0
M  V30 716 H 70.5148 -3.42607 2.06059 0
M  V30 717 H 71.9548 -4.05625 1.23469 0
M  V30 718 C 70.4138 -3.36799 -0.0825941 0
M  V30 719 O 70.9438 -3.87517 -1.05797 0
M  V30 720 N 69.1498 -2.90258 -0.140939 0
M  V30 721 H 68.6968 -2.49174 0.653477 0
M  V30 722 H 68.6548 -2.97889 -1.00545 0
M  V30 723 N 72.4269 -1.23603 -0.977757 0
M  V30 724 C 73.6549 -1.09646 -1.75458 0
M  V30 725 C 74.0699 0.351859 -1.85492 0
M  V30 726 O 73.4269 1.24327 -1.336 0
M  V30 727 C 73.4779 -1.71895 -3.18016 0
M  V30 728 O 73.1989 -3.11063 -3.08498 0
M  V30 729 C 74.6999 -1.63415 -4.12081 0
M  V30 730 H 71.9199 -0.38359 -0.550545 0
M  V30 731 H 74.4639 -1.63507 -1.22824 0
M  V30 732 H 72.6189 -1.22061 -3.67668 0
M  V30 733 H 73.0329 -3.41305 -3.9826 0
M  V30 734 H 74.5069 -2.11669 -5.09804 0
M  V30 735 H 74.9839 -0.593462 -4.35172 0
M  V30 736 H 75.5899 -2.12628 -3.68334 0
M  V30 737 N 73.905 1.17692 -1.04816 0
M  V30 738 C 74.853 2.23632 -0.63966 0
M  V30 739 C 75.847 1.6601 0.337219 0
M  V30 740 O 77.053 1.78844 0.203693 0
M  V30 741 H 73.428 0.727949 -0.188665 0
M  V30 742 H 75.399 2.55387 -1.54337 0
M  V30 743 C 74.148 3.4769 -0.0264051 0
M  V30 744 H 73.471 3.92331 -0.769164 0
M  V30 745 H 74.911 4.23418 0.222098 0
M  V30 746 C 73.37 3.13807 1.22584 0
M  V30 747 O 73.9 3.28236 2.31569 0
M  V30 748 N 72.106 2.68065 1.12202 0
M  V30 749 H 71.653 2.56525 0.235133 0
M  V30 750 H 71.611 2.45767 1.96076 0
M  V30 751 N 75.3831 0.828654 1.34056 0
M  V30 752 C 76.3301 0.252567 2.29414 0
M  V30 753 C 77.3001 -0.62588 1.53857 0
M  V30 754 O 78.4851 -0.566312 1.82202 0
M  V30 755 C 75.6251 -0.574831 3.40279 0
M  V30 756 C 74.7381 0.326499 4.30764 0
M  V30 757 C 73.8731 -0.511016 5.28736 0
M  V30 758 C 72.9121 0.389342 6.1086 0
M  V30 759 N 72.0491 -0.409439 7.00905 0
M  V30 760 H 76.8891 1.07108 2.78086 0
M  V30 761 H 74.4261 0.539677 1.36843 0
M  V30 762 H 76.3841 -1.06992 4.03248 0
M  V30 763 H 75.0141 -1.35841 2.92826 0
M  V30 764 H 74.0661 0.939837 3.68607 0
M  V30 765 H 75.3781 1.01857 4.88289 0
M  V30 766 H 74.5321 -1.07035 5.97184 0
M  V30 767 H 73.2711 -1.23657 4.71763 0
M  V30 768 H 72.2761 0.960769 5.4134 0
M  V30 769 H 73.5011 1.1131 6.69916 0
M  V30 770 H 71.4471 -1.11856 6.46393 0
M  V30 771 H 71.3641 0.224126 7.55668 0
M  V30 772 H 72.6321 -0.951336 7.73673 0
M  V30 773 N 76.8612 -1.46375 0.584142 0
M  V30 774 C 78.1072 -2.02678 0.0703716 0
M  V30 775 C 78.4402 -1.4545 -1.28678 0
M  V30 776 O 77.7152 -0.62014 -1.84349 0
M  V30 777 C 77.9982 -3.60099 0.00614674 0
M  V30 778 C 77.8512 -4.27709 1.3923 0
M  V30 779 C 79.1702 -4.34598 -0.693742 0
M  V30 780 H 76.2892 -0.736504 0.027047 0
M  V30 781 H 78.9312 -1.74501 0.751615 0
M  V30 782 H 77.0812 -3.84236 -0.574009 0
M  V30 783 H 78.7532 -4.14832 2.01773 0
M  V30 784 H 76.9962 -3.87016 1.95962 0
M  V30 785 H 77.6672 -5.36478 1.29982 0
M  V30 786 H 80.1432 -4.15615 -0.200869 0
M  V30 787 H 79.0192 -5.44318 -0.707714 0
M  V30 788 H 79.2802 -4.05759 -1.75533 0
M  V30 789 N 78.3393 -0.321999 -1.54275 0
M  V30 790 C 79.5883 0.281931 -1.9972 0
M  V30 791 C 79.9013 1.53369 -1.21397 0
M  V30 792 O 81.1073 2.21352 -1.57211 0
M  V30 793 C 79.5633 0.5529 -3.55628 0
M  V30 794 C 79.1713 -0.681721 -4.42783 0
M  V30 795 C 80.9153 1.11687 -4.09544 0
M  V30 796 C 78.8223 -0.382742 -5.9016 0
M  V30 797 H 77.7523 0.109124 -0.746062 0
M  V30 798 H 80.4033 -0.43398 -1.78294 0
M  V30 799 H 78.7853 1.32896 -3.73035 0
M  V30 800 H 79.9593 -1.45723 -4.37151 0
M  V30 801 H 78.2743 -1.1658 -3.99748 0
M  V30 802 H 80.8713 1.35515 -5.17242 0
M  V30 803 H 81.2143 2.06575 -3.61431 0
M  V30 804 H 81.7473 0.402032 -3.95763 0
M  V30 805 H 78.4863 -1.30076 -6.42464 0
M  V30 806 H 78.0063 0.355094 -5.98748 0
M  V30 807 H 79.6853 0.00800157 -6.47 0
M  V30 808 N 79.8174 1.5752 -0.0501392 0
M  V30 809 C 81.0474 1.96678 0.632573 0
M  V30 810 C 81.4554 0.926298 1.64974 0
M  V30 811 O 80.7984 -0.09802 1.83438 0
M  V30 812 C 80.8604 3.32068 1.37735 0
M  V30 813 C 80.5244 4.54076 0.516131 0
M  V30 814 C 81.5214 5.19445 -0.217357 0
M  V30 815 C 79.2064 5.00304 0.44736 0
M  V30 816 C 81.2004 6.29378 -1.00807 0
M  V30 817 C 78.8874 6.10114 -0.347038 0
M  V30 818 C 79.8854 6.74512 -1.07344 0
M  V30 819 O 79.5734 7.82211 -1.85477 0
M  V30 820 H 79.3054 0.652193 0.177821 0
M  V30 821 H 81.8594 2.05091 -0.112543 0
M  V30 822 H 80.0894 3.20206 2.16807 0
M  V30 823 H 81.7784 3.55981 1.95019 0
M  V30 824 H 82.5444 4.84689 -0.173688 0
M  V30 825 H 78.4234 4.49971 1.00235 0
M  V30 826 H 81.9674 6.79575 -1.57556 0
M  V30 827 H 77.8644 6.44307 -0.392349 0
M  V30 828 H 78.6324 7.98982 -1.77678 0
M  V30 829 N 81.2955 -0.223234 1.56011 0
M  V30 830 C 82.5205 -0.968978 1.83373 0
M  V30 831 C 82.9455 -1.77227 0.630254 0
M  V30 832 O 82.3035 -1.76345 -0.420959 0
M  V30 833 C 82.3515 -1.86363 3.08709 0
M  V30 834 O 81.4555 -2.95873 2.87285 0
M  V30 835 H 80.7965 -0.274461 0.604622 0
M  V30 836 H 83.3265 -0.237056 2.03222 0
M  V30 837 H 83.3365 -2.27376 3.38768 0
M  V30 838 H 82.0115 -1.27319 3.95933 0
M  V30 839 H 80.5885 -2.58818 2.68454 0
M  V30 840 N 82.7736 -1.49793 -0.48987 0
M  V30 841 C 83.7216 -1.67783 -1.61095 0
M  V30 842 C 84.7156 -0.543683 -1.60438 0
M  V30 843 O 85.9216 -0.723647 -1.64813 0
M  V30 844 H 82.2966 -0.529255 -0.534222 0
M  V30 845 H 84.2676 -2.61861 -1.43078 0
M  V30 846 C 83.0166 -1.77191 -2.99164 0
M  V30 847 H 82.3396 -2.63841 -3.0038 0
M  V30 848 H 83.7796 -1.93809 -3.77113 0
M  V30 849 C 82.2386 -0.519203 -3.32875 0
M  V30 850 O 82.7686 0.350124 -4.00171 0
M  V30 851 N 80.9746 -0.378816 -2.8812 0
M  V30 852 H 80.5216 -1.08725 -2.33531 0
M  V30 853 H 80.4796 0.458239 -3.11043 0
M  V30 854 N 84.2517 0.741722 -1.39055 0
M  V30 855 C 85.2017 1.84661 -1.33732 0
M  V30 856 C 86.1857 1.59397 -0.219401 0
M  V30 857 O 87.3777 1.71015 -0.456375 0
M  V30 858 C 84.5067 3.22512 -1.17647 0
M  V30 859 C 83.5927 3.53628 -2.34112 0
M  V30 860 N 83.9837 3.55723 -3.59576 0
M  V30 861 C 82.2817 3.83956 -2.26923 0
M  V30 862 C 82.9827 3.84443 -4.36553 0
M  V30 863 N 81.9587 4.01877 -3.66055 0
M  V30 864 H 85.7607 1.84576 -2.28711 0
M  V30 865 H 83.2747 0.939647 -1.32455 0
M  V30 866 H 85.2717 4.01597 -1.11917 0
M  V30 867 H 83.9317 3.2384 -0.236124 0
M  V30 868 H 84.9427 3.37196 -3.93089 0
M  V30 869 H 81.6197 3.92929 -1.41113 0
M  V30 870 H 83.0097 3.92588 -5.45274 0
M  V30 871 N 85.7298 1.2412 0.971189 0
M  V30 872 C 87.1408 1.07236 1.52831 0
M  V30 873 C 87.4918 -0.357352 1.92918 0
M  V30 874 O 86.6168 -1.24528 1.76979 0
M  V30 875 C 87.2118 1.94043 2.77728 0
M  V30 876 C 85.7708 1.81394 3.29808 0
M  V30 877 C 84.9178 1.89189 2.02738 0
M  V30 878 H 87.8688 1.37648 0.789864 0
M  V30 879 H 87.8898 1.47066 3.5093 0
M  V30 880 H 87.4018 2.98093 2.4852 0
M  V30 881 H 85.5028 0.801634 3.63874 0
M  V30 882 H 85.6158 2.65294 3.98944 0
M  V30 883 H 83.9798 1.32877 2.17292 0
M  V30 884 H 84.7628 2.94812 1.759 0
M  V30 885 N 87.2079 -1.17134 1.05439 0
M  V30 886 C 88.4849 -1.83411 0.679699 0
M  V30 887 C 88.8649 -1.9368 -0.839726 0
M  V30 888 O 88.2129 -1.47325 -1.74664 0
M  V30 889 C 88.4229 -3.20918 1.37159 0
M  V30 890 C 89.7709 -3.96796 1.51123 0
M  V30 891 O 90.7949 -3.30406 1.3308 0
M  V30 892 O 89.6539 -5.15778 1.80651 0
M  V30 893 H 86.7479 -0.79154 0.239569 0
M  V30 894 H 89.2939 -1.24411 1.15413 0
M  V30 895 H 88.0659 -3.08428 2.40807 0
M  V30 896 H 87.6889 -3.87587 0.886674 0
M  V30 897 N 88.686 -0.835752 -1.33615 0
M  V30 898 C 89.616 -0.281739 -2.31794 0
M  V30 899 C 90.597 0.608833 -1.58831 0
M  V30 900 O 91.782 0.533035 -1.86741 0
M  V30 901 C 88.912 0.546612 -3.42971 0
M  V30 902 C 87.866 -0.247904 -4.27281 0
M  V30 903 C 87.192 0.704001 -5.30045 0
M  V30 904 C 88.492 -1.46324 -5.01385 0
M  V30 905 H 90.186 -1.10206 -2.78379 0
M  V30 906 H 87.732 -0.531388 -1.33837 0
M  V30 907 H 89.685 0.944467 -4.1068 0
M  V30 908 H 88.409 1.40011 -2.95067 0
M  V30 909 H 87.068 -0.627281 -3.61194 0
M  V30 910 H 86.716 1.55381 -4.78399 0
M  V30 911 H 86.416 0.176524 -5.87335 0
M  V30 912 H 87.94 1.09944 -6.0062 0
M  V30 913 H 89.354 -1.13871 -5.61877 0
M  V30 914 H 87.751 -1.92728 -5.6831 0
M  V30 915 H 88.821 -2.23467 -4.30338 0
M  V30 916 N 90.1641 1.46063 -0.591896 0
M  V30 917 C 91.4101 2.02638 -0.0811191 0
M  V30 918 C 91.7431 1.4613 1.27905 0
M  V30 919 O 91.0181 0.629908 1.84017 0
M  V30 920 C 91.3011 3.60091 -0.0252436 0
M  V30 921 C 91.1541 4.26965 -1.41496 0
M  V30 922 C 92.4731 4.3496 0.670685 0
M  V30 923 H 89.5921 0.73635 -0.0309524 0
M  V30 924 H 92.2341 1.741 -0.760859 0
M  V30 925 H 90.3841 3.84535 0.553624 0
M  V30 926 H 92.0561 4.13756 -2.0397 0
M  V30 927 H 90.2991 3.85971 -1.98011 0
M  V30 928 H 90.9701 5.35781 -1.32825 0
M  V30 929 H 93.4461 4.15716 0.178825 0
M  V30 930 H 92.3221 5.44686 0.678837 0
M  V30 931 H 92.5831 4.06685 1.73379 0
M  V30 932 N 91.6422 0.330177 1.54103 0
M  V30 933 C 93.0582 -0.0222371 1.59585 0
M  V30 934 C 93.2582 -1.49902 1.34654 0
M  V30 935 O 92.3142 -2.25592 1.13421 0
M  V30 936 C 93.6272 0.401932 2.98002 0
M  V30 937 C 95.1752 0.353145 3.11001 0
M  V30 938 C 95.6502 0.752576 4.51775 0
M  V30 939 N 97.1412 0.706239 4.57784 0
M  V30 940 C 97.8762 0.987417 5.64834 0
M  V30 941 N 97.3722 1.33607 6.79795 0
M  V30 942 N 99.1652 0.91254 5.54643 0
M  V30 943 H 91.3162 1.29228 1.68564 0
M  V30 944 H 93.5792 0.525906 0.78875 0
M  V30 945 H 93.2852 1.4311 3.21267 0
M  V30 946 H 93.1592 -0.229699 3.765 0
M  V30 947 H 95.5462 -0.666822 2.87467 0
M  V30 948 H 95.6272 1.0198 2.34593 0
M  V30 949 H 95.2712 1.77049 4.76042 0
M  V30 950 H 95.2012 0.0635409 5.26562 0
M  V30 951 H 97.6922 0.44889 3.75224 0
M  V30 952 H 98.0052 1.53582 7.57385 0
M  V30 953 H 96.3502 1.37439 6.81275 0
M  V30 954 H 99.5412 0.639601 4.6371 0
M  V30 955 H 99.7142 1.13503 6.37982 0
M  V30 956 N 93.1203 -1.57491 0.0584922 0
M  V30 957 C 94.5313 -1.80526 -0.476138 0
M  V30 958 C 94.8823 -0.971334 -1.70469 0
M  V30 959 O 94.0073 -0.190012 -2.15564 0
M  V30 960 C 94.6023 -3.27424 -0.870587 0
M  V30 961 C 93.1613 -3.51351 -1.35015 0
M  V30 962 C 92.3083 -2.75343 -0.32887 0
M  V30 963 H 95.2593 -1.56133 0.284312 0
M  V30 964 H 95.2803 -3.38745 -1.73299 0
M  V30 965 H 94.7923 -3.88093 0.0237627 0
M  V30 966 H 92.8933 -2.95971 -2.26345 0
M  V30 967 H 93.0063 -4.60059 -1.33726 0
M  V30 968 H 91.3703 -2.417 -0.803321 0
M  V30 969 H 92.1533 -3.38743 0.557521 0
M  V30 970 N 94.5984 0.214957 -1.56127 0
M  V30 971 C 95.8474 0.936451 -1.78643 0
M  V30 972 C 96.1604 1.85237 -0.628229 0
M  V30 973 O 97.3664 2.613 -0.737186 0
M  V30 974 C 95.8224 1.7154 -3.16389 0
M  V30 975 C 95.4304 0.845299 -4.39953 0
M  V30 976 C 97.1744 2.42772 -3.48227 0
M  V30 977 C 95.0814 1.62198 -5.68723 0
M  V30 978 H 94.0114 0.353401 -0.666051 0
M  V30 979 H 96.6624 0.190169 -1.82512 0
M  V30 980 H 95.0444 2.50484 -3.06715 0
M  V30 981 H 96.2184 0.0959353 -4.607 0
M  V30 982 H 94.5334 0.244789 -4.1568 0
M  V30 983 H 97.1304 3.01394 -4.41663 0
M  V30 984 H 97.4734 3.15984 -2.71035 0
M  V30 985 H 98.0064 1.70813 -3.5926 0
M  V30 986 H 94.7454 0.933011 -6.48826 0
M  V30 987 H 94.2654 2.34579 -5.52026 0
M  V30 988 H 95.9444 2.18095 -6.09133 0
M  V30 989 N 96.0765 1.50051 0.48192 0
M  V30 990 C 97.0395 1.67584 1.5636 0
M  V30 991 C 98.0395 0.546894 1.51214 0
M  V30 992 O 99.2295 0.813725 1.54026 0
M  V30 993 C 96.3615 1.691 2.96003 0
M  V30 994 H 97.5545 2.64078 1.42136 0
M  V30 995 H 95.1075 1.39369 0.707533 0
M  V30 996 H 95.8425 0.742589 3.15684 0
M  V30 997 H 95.6275 2.51105 3.01146 0
M  V30 998 H 97.1175 1.84656 3.74556 0
M  V30 999 N 97.5546 -0.734337 1.39446 0
M  V30 1000 C 98.7796 -1.52866 1.40167 0
M  V30 1001 C 99.2046 -1.881 -0.00171513 0
M  V30 1002 O 98.5626 -1.51957 -0.988879 0
M  V30 1003 C 98.6106 -2.79235 2.28167 0
M  V30 1004 O 97.7146 -3.75185 1.71201 0
M  V30 1005 H 97.0556 -0.461618 0.477289 0
M  V30 1006 H 99.5856 -0.905949 1.8345 0
M  V30 1007 H 99.5956 -3.27963 2.42702 0
M  V30 1008 H 98.2706 -2.52923 3.30156 0
M  V30 1009 H 96.8476 -3.33958 1.65912 0
M  V30 1010 N 99.0327 -1.24633 -0.964593 0
M  V30 1011 C 100.282 -1.08188 -1.7023 0
M  V30 1012 C 100.595 0.37873 -1.91898 0
M  V30 1013 O 101.801 0.663427 -2.6327 0
M  V30 1014 C 100.257 -1.88773 -3.06419 0
M  V30 1015 C 99.8647 -3.39263 -2.92582 0
M  V30 1016 C 101.609 -1.80867 -3.84041 0
M  V30 1017 C 99.5157 -4.1218 -4.24101 0
M  V30 1018 H 98.4457 -0.401245 -0.638372 0
M  V30 1019 H 101.097 -1.48742 -1.07462 0
M  V30 1020 H 99.4787 -1.41035 -3.70034 0
M  V30 1021 H 100.653 -3.94603 -2.37961 0
M  V30 1022 H 98.9677 -3.48154 -2.28424 0
M  V30 1023 H 101.565 -2.32646 -4.81435 0
M  V30 1024 H 101.908 -0.774543 -4.09031 0
M  V30 1025 H 102.441 -2.26301 -3.27159 0
M  V30 1026 H 99.1797 -5.15965 -4.04303 0
M  V30 1027 H 98.6997 -3.61626 -4.78526 0
M  V30 1028 H 100.379 -4.19349 -4.92702 0
M  V30 1029 N 100.511 1.16574 -1.06058 0
M  V30 1030 C 101.736 1.91493 -0.796562 0
M  V30 1031 C 102.161 1.76773 0.642868 0
M  V30 1032 O 101.519 1.09142 1.44768 0
M  V30 1033 C 101.567 3.40293 -1.19303 0
M  V30 1034 O 100.671 4.11074 -0.330394 0
M  V30 1035 H 100.012 0.596678 -0.291326 0
M  V30 1036 H 102.542 1.47708 -1.41575 0
M  V30 1037 H 102.552 3.91057 -1.16356 0
M  V30 1038 H 101.227 3.50326 -2.24153 0
M  V30 1039 H 99.8038 3.70513 -0.421225 0
M  V30 1040 N 101.989 0.842826 1.3317 0
M  V30 1041 C 102.936 0.276885 2.29133 0
M  V30 1042 C 103.906 -0.609527 1.54512 0
M  V30 1043 O 105.091 -0.546955 1.82792 0
M  V30 1044 C 102.231 -0.538707 3.40869 0
M  V30 1045 C 101.344 0.372169 4.30394 0
M  V30 1046 C 100.479 -0.454908 5.29249 0
M  V30 1047 C 99.5179 0.45411 6.10413 0
M  V30 1048 N 98.6549 -0.335075 7.013 0
M  V30 1049 H 103.495 1.10052 2.76934 0
M  V30 1050 H 101.032 0.554161 1.36262 0
M  V30 1051 H 102.99 -1.02709 4.0436 0
M  V30 1052 H 101.62 -1.32727 2.9425 0
M  V30 1053 H 100.672 0.97888 3.6759 0
M  V30 1054 H 101.984 1.0703 4.87182 0
M  V30 1055 H 101.138 -1.00695 5.98285 0
M  V30 1056 H 99.8769 -1.18646 4.73048 0
M  V30 1057 H 98.8819 1.01813 5.40291 0
M  V30 1058 H 100.107 1.18409 6.68697 0
M  V30 1059 H 98.0529 -1.04994 6.47543 0
M  V30 1060 H 97.9699 0.304262 7.55387 0
M  V30 1061 H 99.2379 -0.869224 7.74638 0
M  V30 1062 N 103.467 -1.45747 0.599634 0
M  V30 1063 C 104.397 -2.33235 -0.111306 0
M  V30 1064 C 105.378 -1.46359 -0.866781 0
M  V30 1065 O 106.563 -1.75146 -0.838904 0
M  V30 1066 C 103.693 -3.28932 -1.11451 0
M  V30 1067 C 102.647 -4.25381 -0.472772 0
M  V30 1068 C 101.973 -5.1071 -1.58365 0
M  V30 1069 C 103.273 -5.18831 0.600948 0
M  V30 1070 H 104.967 -2.92927 0.61919 0
M  V30 1071 H 102.513 -1.40857 0.299215 0
M  V30 1072 H 104.466 -3.89002 -1.62036 0
M  V30 1073 H 103.19 -2.67381 -1.8755 0
M  V30 1074 H 101.849 -3.66598 0.0121472 0
M  V30 1075 H 101.497 -4.45533 -2.33473 0
M  V30 1076 H 101.197 -5.7604 -1.15982 0
M  V30 1077 H 102.721 -5.73647 -2.09194 0
M  V30 1078 H 104.135 -5.73019 0.179491 0
M  V30 1079 H 102.532 -5.92595 0.946076 0
M  V30 1080 H 103.602 -4.6174 1.48068 0
M  V30 1081 N 104.945 -0.338344 -1.53925 0
M  V30 1082 C 105.878 0.563758 -2.21127 0
M  V30 1083 C 106.856 1.10433 -1.19345 0
M  V30 1084 O 108.04 1.16557 -1.48144 0
M  V30 1085 C 105.167 1.77505 -2.88461 0
M  V30 1086 C 104.213 1.3644 -4.04087 0
M  V30 1087 S 105.046 0.388593 -5.34088 0
M  V30 1088 C 106.202 1.60683 -6.04923 0
M  V30 1089 H 106.435 -0.00704546 -2.97299 0
M  V30 1090 H 103.968 -0.122418 -1.53914 0
M  V30 1091 H 105.926 2.46999 -3.27875 0
M  V30 1092 H 104.587 2.31706 -2.12064 0
M  V30 1093 H 103.78 2.26739 -4.50117 0
M  V30 1094 H 103.382 0.748998 -3.66423 0
M  V30 1095 H 105.674 2.54209 -6.28 0
M  V30 1096 H 106.617 1.18842 -6.98056 0
M  V30 1097 H 107.025 1.80052 -5.35015 0
M  V30 1098 N 106.423 1.57458 -0.0668435 0
M  V30 1099 C 107.651 1.97624 0.612565 0
M  V30 1100 C 108.066 0.94502 1.63447 0
M  V30 1101 O 107.423 -0.0689276 1.8237 0
M  V30 1102 C 107.474 3.37869 1.28555 0
M  V30 1103 O 107.195 4.3704 0.304557 0
M  V30 1104 C 108.696 3.92882 2.05325 0
M  V30 1105 H 105.916 0.650045 0.166381 0
M  V30 1106 H 108.46 2.04035 -0.137782 0
M  V30 1107 H 106.615 3.3256 1.98702 0
M  V30 1108 H 107.029 5.18565 0.786779 0
M  V30 1109 H 108.503 4.93247 2.47812 0
M  V30 1110 H 108.98 3.29156 2.9078 0
M  V30 1111 H 109.586 4.01577 1.40056 0
M  V30 1112 N 107.901 -0.206675 1.56239 0
M  V30 1113 C 108.864 -1.23976 1.92776 0
M  V30 1114 C 109.864 -1.39041 0.807729 0
M  V30 1115 O 111.054 -1.37051 1.0753 0
M  V30 1116 C 108.186 -2.61112 2.19165 0
M  V30 1117 H 109.379 -0.927764 2.85189 0
M  V30 1118 H 106.932 -0.447718 1.4975 0
M  V30 1119 H 107.667 -2.97386 1.29352 0
M  V30 1120 H 107.452 -2.51552 3.00772 0
M  V30 1121 H 108.942 -3.35633 2.48476 0
M  V30 1122 N 109.379 -1.50304 -0.473955 0
M  V30 1123 C 110.312 -1.63595 -1.59097 0
M  V30 1124 C 111.29 -0.484142 -1.55225 0
M  V30 1125 O 112.474 -0.703271 -1.7489 0
M  V30 1126 C 109.601 -1.61589 -2.97669 0
M  V30 1127 C 108.647 -2.82295 -3.19705 0
M  V30 1128 S 109.48 -4.43635 -2.99913 0
M  V30 1129 C 110.636 -4.44317 -4.40832 0
M  V30 1130 H 110.869 -2.58082 -1.47583 0
M  V30 1131 H 108.402 -1.39531 -0.661087 0
M  V30 1132 H 110.36 -1.61116 -3.7756 0
M  V30 1133 H 109.021 -0.683421 -3.06575 0
M  V30 1134 H 108.214 -2.77188 -4.20931 0
M  V30 1135 H 107.816 -2.8032 -2.47582 0
M  V30 1136 H 110.108 -4.17703 -5.33414 0
M  V30 1137 H 111.051 -5.45911 -4.50984 0
M  V30 1138 H 111.459 -3.74059 -4.22777 0
M  V30 1139 N 110.857 0.726932 -1.39834 0
M  V30 1140 C 112.103 1.48884 -1.377 0
M  V30 1141 C 112.436 1.94185 0.0244852 0
M  V30 1142 O 111.711 1.67361 0.990986 0
M  V30 1143 C 111.994 2.72288 -2.3565 0
M  V30 1144 C 111.847 2.32956 -3.84775 0
M  V30 1145 C 113.166 3.74414 -2.31306 0
M  V30 1146 H 110.285 0.540062 -0.5015 0
M  V30 1147 H 112.927 0.830547 -1.70886 0
M  V30 1148 H 111.077 3.28457 -2.07481 0
M  V30 1149 H 112.749 1.82356 -4.23726 0
M  V30 1150 H 110.992 1.65088 -4.01159 0
M  V30 1151 H 111.663 3.21362 -4.4881 0
M  V30 1152 H 114.139 3.27849 -2.56231 0
M  V30 1153 H 113.015 4.58414 -3.01907 0
M  V30 1154 H 113.276 4.21909 -1.32081 0
M  V30 1155 N 112.336 1.25143 0.95797 0
M  V30 1156 C 113.582 1.09855 1.70469 0
M  V30 1157 C 113.915 -0.360187 1.90831 0
M  V30 1158 O 113.19 -1.26568 1.47685 0
M  V30 1159 C 113.473 1.8497 3.08963 0
M  V30 1160 C 113.326 3.38652 2.96032 0
M  V30 1161 C 114.645 1.63016 4.08795 0
M  V30 1162 H 111.764 0.400465 0.618706 0
M  V30 1163 H 114.406 1.53933 1.11376 0
M  V30 1164 H 112.556 1.47505 3.59409 0
M  V30 1165 H 114.228 3.85772 2.52938 0
M  V30 1166 H 112.471 3.66534 2.32025 0
M  V30 1167 H 113.142 3.8642 3.94187 0
M  V30 1168 H 115.618 1.95625 3.67247 0
M  V30 1169 H 114.494 2.18015 5.03747 0
M  V30 1170 H 114.755 0.570692 4.38401 0
M  V30 1171 N 113.814 -1.1601 1.06675 0
M  V30 1172 C 114.744 -2.22688 0.702307 0
M  V30 1173 C 115.725 -1.67306 -0.307032 0
M  V30 1174 O 116.91 -1.93352 -0.181305 0
M  V30 1175 C 114.04 -3.47178 0.092038 0
M  V30 1176 C 112.994 -4.15477 1.02777 0
M  V30 1177 C 112.32 -5.33963 0.28061 0
M  V30 1178 C 113.62 -4.66019 2.35846 0
M  V30 1179 H 115.314 -2.53429 1.59419 0
M  V30 1180 H 112.86 -1.21813 0.767961 0
M  V30 1181 H 114.813 -4.21037 -0.174814 0
M  V30 1182 H 113.537 -3.15749 -0.834877 0
M  V30 1183 H 112.196 -3.43549 1.27944 0
M  V30 1184 H 111.844 -4.98788 -0.649545 0
M  V30 1185 H 111.544 -5.806 0.904258 0
M  V30 1186 H 113.068 -6.10596 0.021396 0
M  V30 1187 H 114.482 -5.3144 2.15045 0
M  V30 1188 H 112.879 -5.23293 2.93743 0
M  V30 1189 H 113.949 -3.82023 2.98641 0
M  V30 1190 N 115.292 -0.849877 -1.32721 0
M  V30 1191 C 116.569 -0.372405 -1.92022 0
M  V30 1192 C 116.949 1.1435 -1.77447 0
M  V30 1193 O 116.297 1.96296 -1.16962 0
M  V30 1194 C 116.507 -0.831482 -3.3895 0
M  V30 1195 C 117.855 -0.845882 -4.16089 0
M  V30 1196 O 118.879 -0.775806 -3.47649 0
M  V30 1197 O 117.738 -0.943753 -5.38289 0
M  V30 1198 H 114.832 -0.107667 -0.819961 0
M  V30 1199 H 117.378 -0.93646 -1.41522 0
M  V30 1200 H 116.15 -1.87448 -3.4348 0
M  V30 1201 H 115.773 -0.24461 -3.96847 0
M  V30 1202 N 116.77 1.45427 -0.607355 0
M  V30 1203 C 117.733 2.28974 0.101693 0
M  V30 1204 C 118.733 1.39754 0.795329 0
M  V30 1205 O 119.923 1.61878 0.643527 0
M  V30 1206 C 117.055 3.20768 1.15414 0
M  V30 1207 H 118.248 2.93147 -0.632844 0
M  V30 1208 H 115.801 1.51945 -0.366391 0
M  V30 1209 H 116.536 2.61395 1.91945 0
M  V30 1210 H 116.321 3.86489 0.66098 0
M  V30 1211 H 117.811 3.83589 1.65073 0
M  V30 1212 N 118.248 0.346503 1.53744 0
M  V30 1213 C 119.664 -0.00530975 1.59599 0
M  V30 1214 C 119.864 -1.48465 1.36236 0
M  V30 1215 O 118.92 -2.24376 1.15808 0
M  V30 1216 C 120.233 0.433516 2.97559 0
M  V30 1217 C 121.781 0.386111 3.10609 0
M  V30 1218 C 122.256 0.800451 4.50951 0
M  V30 1219 N 123.747 0.754753 4.5701 0
M  V30 1220 C 124.482 1.04727 5.63755 0
M  V30 1221 N 123.978 1.4081 6.7834 0
M  V30 1222 N 125.771 0.971316 5.53644 0
M  V30 1223 H 117.922 1.31009 1.67184 0
M  V30 1224 H 120.185 0.534242 0.783128 0
M  V30 1225 H 119.891 1.46509 3.19731 0
M  V30 1226 H 119.765 -0.189753 3.76722 0
M  V30 1227 H 122.152 -0.636295 2.88158 0
M  V30 1228 H 122.233 1.04462 2.33498 0
M  V30 1229 H 121.877 1.82088 4.74137 0
M  V30 1230 H 121.807 0.119386 5.26465 0
M  V30 1231 H 124.298 0.488662 3.74727 0
M  V30 1232 H 124.611 1.61607 7.55714 0
M  V30 1233 H 122.956 1.44657 6.79779 0
M  V30 1234 H 126.147 0.688748 4.63005 0
M  V30 1235 H 126.32 1.20263 6.36742 0
M  V30 1236 N 119.726 -1.57421 0.075193 0
M  V30 1237 C 120.656 -2.15942 -0.888324 0
M  V30 1238 C 121.637 -1.08737 -1.30806 0
M  V30 1239 O 122.822 -1.36787 -1.37851 0
M  V30 1240 C 119.952 -2.72379 -2.1547 0
M  V30 1241 C 118.906 -3.8478 -1.87425 0
M  V30 1242 C 118.232 -4.27834 -3.20721 0
M  V30 1243 C 119.532 -5.08869 -1.17684 0
M  V30 1244 H 121.226 -2.96705 -0.400799 0
M  V30 1245 H 118.772 -1.42723 -0.191342 0
M  V30 1246 H 120.725 -3.11965 -2.83295 0
M  V30 1247 H 119.449 -1.88841 -2.6647 0
M  V30 1248 H 118.108 -3.45703 -1.22004 0
M  V30 1249 H 117.756 -3.41214 -3.6957 0
M  V30 1250 H 117.456 -5.03605 -3.02746 0
M  V30 1251 H 118.98 -4.70039 -3.89738 0
M  V30 1252 H 120.394 -5.4575 -1.75584 0
M  V30 1253 H 118.791 -5.8994 -1.09956 0
M  V30 1254 H 119.861 -4.84648 -0.156453 0
M  V30 1255 N 121.204 0.198386 -1.56346 0
M  V30 1256 C 122.615 0.763358 -1.70381 0
M  V30 1257 C 122.966 1.83995 -0.681203 0
M  V30 1258 O 122.091 2.15785 0.16305 0
M  V30 1259 C 122.686 1.39143 -3.08909 0
M  V30 1260 C 121.245 1.90352 -3.2472 0
M  V30 1261 C 120.392 0.772233 -2.6633 0
M  V30 1262 H 123.343 -0.0266377 -1.58678 0
M  V30 1263 H 123.364 2.26076 -3.06055 0
M  V30 1264 H 122.876 0.607638 -3.83314 0
M  V30 1265 H 120.977 2.71461 -2.55225 0
M  V30 1266 H 121.09 2.06757 -4.3219 0
M  V30 1267 H 119.454 1.18566 -2.2542 0
M  V30 1268 H 120.237 0.00073556 -3.433 0
M  V30 1269 N 122.682 1.50554 0.465978 0
M  V30 1270 C 123.612 1.72722 1.57128 0
M  V30 1271 C 124.593 0.576294 1.6004 0
M  V30 1272 O 125.778 0.81598 1.76225 0
M  V30 1273 C 122.908 1.82605 2.95419 0
M  V30 1274 C 121.862 2.97835 3.07373 0
M  V30 1275 C 121.188 2.92867 4.47363 0
M  V30 1276 C 122.488 4.38265 2.84114 0
M  V30 1277 H 124.182 2.65267 1.38829 0
M  V30 1278 H 121.728 1.2765 0.666441 0
M  V30 1279 H 123.681 1.96698 3.72677 0
M  V30 1280 H 122.405 0.866858 3.14886 0
M  V30 1281 H 121.064 2.83401 2.3255 0
M  V30 1282 H 120.712 1.94783 4.63755 0
M  V30 1283 H 120.412 3.70227 4.56296 0
M  V30 1284 H 121.936 3.09015 5.26633 0
M  V30 1285 H 123.35 4.53198 3.51118 0
M  V30 1286 H 121.747 5.17115 3.04487 0
M  V30 1287 H 122.817 4.50281 1.7993 0
M  V30 1288 N 124.16 -0.719506 1.40217 0
M  V30 1289 C 125.437 -1.47221 1.28784 0
M  V30 1290 C 125.817 -2.10883 -0.0956067 0
M  V30 1291 O 125.165 -1.99833 -1.10811 0
M  V30 1292 C 125.375 -2.5111 2.42373 0
M  V30 1293 C 126.723 -3.17053 2.82423 0
M  V30 1294 O 127.747 -2.61429 2.41937 0
M  V30 1295 O 126.606 -4.17742 3.52355 0
M  V30 1296 H 123.7 -0.654491 0.50554 0
M  V30 1297 H 126.246 -0.752014 1.52128 0
M  V30 1298 H 125.018 -2.02556 3.34793 0
M  V30 1299 H 124.641 -3.3067 2.20778 0
M  V30 1300 N 125.638 -1.25649 -0.95132 0
M  V30 1301 C 126.548 -1.08073 -2.08224 0
M  V30 1302 C 127.564 -0.0169666 -1.73992 0
M  V30 1303 O 128.74 -0.218593 -2.0021 0
M  V30 1304 C 125.805 -0.704922 -3.39458 0
M  V30 1305 C 124.866 -1.84699 -3.87537 0
M  V30 1306 C 124.099 -1.48902 -5.12508 0
M  V30 1307 O 124.322 -0.386156 -5.69091 0
M  V30 1308 O 123.256 -2.32033 -5.55378 0
M  V30 1309 H 127.082 -2.02924 -2.25954 0
M  V30 1310 H 124.667 -1.04618 -1.06656 0
M  V30 1311 H 126.549 -0.507609 -4.18332 0
M  V30 1312 H 125.224 0.214291 -3.2299 0
M  V30 1313 H 124.131 -2.09919 -3.09653 0
M  V30 1314 H 125.464 -2.74557 -4.08509 0
M  V30 1315 N 127.117 1.15442 -1.07289 0
M  V30 1316 C 128.064 2.20161 -0.692653 0
M  V30 1317 C 129.034 1.63073 0.31564 0
M  V30 1318 O 130.219 1.89725 0.202235 0
M  V30 1319 C 127.359 3.44967 -0.0959509 0
M  V30 1320 C 126.472 4.16256 -1.15564 0
M  V30 1321 C 125.607 5.28609 -0.524011 0
M  V30 1322 C 124.646 5.91715 -1.56653 0
M  V30 1323 N 123.783 6.9554 -0.957531 0
M  V30 1324 H 128.623 2.52037 -1.59002 0
M  V30 1325 H 126.16 1.2378 -0.794798 0
M  V30 1326 H 128.118 4.16341 0.267628 0
M  V30 1327 H 126.748 3.1361 0.764772 0
M  V30 1328 H 125.8 3.43385 -1.6368 0
M  V30 1329 H 127.112 4.59268 -1.94613 0
M  V30 1330 H 126.266 6.06604 -0.108032 0
M  V30 1331 H 125.005 4.86787 0.29825 0
M  V30 1332 H 124.01 5.12433 -1.9923 0
M  V30 1333 H 125.235 6.35614 -2.39107 0
M  V30 1334 H 123.181 6.55814 -0.156162 0
M  V30 1335 H 123.098 7.36977 -1.68526 0
M  V30 1336 H 124.366 7.77435 -0.567032 0
M  V30 1337 N 128.595 0.856903 1.32268 0
M  V30 1338 C 129.525 0.31858 2.31316 0
M  V30 1339 C 130.506 -0.583487 1.59779 0
M  V30 1340 O 131.691 -0.503259 1.87566 0
M  V30 1341 C 128.821 -0.491979 3.43798 0
M  V30 1342 C 127.775 0.315849 4.26833 0
M  V30 1343 C 127.101 -0.619586 5.31098 0
M  V30 1344 C 128.401 1.54282 4.98993 0
M  V30 1345 H 130.095 1.14621 2.76591 0
M  V30 1346 H 127.641 0.552613 1.32974 0
M  V30 1347 H 129.594 -0.879012 4.1213 0
M  V30 1348 H 128.318 -1.35299 2.97257 0
M  V30 1349 H 126.977 0.684664 3.6015 0
M  V30 1350 H 126.625 -1.47751 4.8081 0
M  V30 1351 H 126.325 -0.0830621 5.87541 0
M  V30 1352 H 127.849 -1.00375 6.02293 0
M  V30 1353 H 129.263 1.22796 5.59995 0
M  V30 1354 H 127.66 2.01745 5.65172 0
M  V30 1355 H 128.73 2.30285 4.26728 0
M  V30 1356 N 130.073 -1.45103 0.615059 0
M  V30 1357 C 131.02 -2.30586 -0.0993978 0
M  V30 1358 C 131.99 -1.42544 -0.852669 0
M  V30 1359 O 133.175 -1.71465 -0.836917 0
M  V30 1360 C 130.315 -3.27572 -1.08583 0
M  V30 1361 C 129.428 -4.30717 -0.332656 0
M  V30 1362 C 128.563 -5.14807 -1.30947 0
M  V30 1363 C 127.602 -6.09673 -0.544538 0
M  V30 1364 N 126.739 -6.86517 -1.47101 0
M  V30 1365 H 131.579 -2.91144 0.635542 0
M  V30 1366 H 129.116 -1.4346 0.325206 0
M  V30 1367 H 131.074 -3.82276 -1.67095 0
M  V30 1368 H 129.704 -2.68751 -1.78809 0
M  V30 1369 H 128.756 -3.78615 0.368107 0
M  V30 1370 H 130.068 -4.98102 0.263842 0
M  V30 1371 H 129.222 -5.73948 -1.96643 0
M  V30 1372 H 127.961 -4.47458 -1.9399 0
M  V30 1373 H 126.966 -5.49656 0.126003 0
M  V30 1374 H 128.191 -6.79052 0.080947 0
M  V30 1375 H 126.137 -6.21851 -2.08895 0
M  V30 1376 H 126.054 -7.50281 -0.928137 0
M  V30 1377 H 127.322 -7.50194 -2.11731 0
M  V30 1378 N 131.551 -0.354651 -1.53558 0
M  V30 1379 C 132.797 0.238797 -2.01389 0
M  V30 1380 C 133.13 1.49309 -1.2418 0
M  V30 1381 O 132.405 1.91638 -0.332457 0
M  V30 1382 C 132.688 0.541771 -3.56001 0
M  V30 1383 C 132.541 -0.725388 -4.43912 0
M  V30 1384 C 133.86 1.34685 -4.18984 0
M  V30 1385 H 130.979 0.0853177 -0.732045 0
M  V30 1386 H 133.621 -0.477384 -1.83905 0
M  V30 1387 H 131.771 1.15189 -3.71031 0
M  V30 1388 H 133.443 -1.36313 -4.407 0
M  V30 1389 H 131.686 -1.34801 -4.12324 0
M  V30 1390 H 132.357 -0.468505 -5.50008 0
M  V30 1391 H 134.833 0.830837 -4.07721 0
M  V30 1392 H 133.709 1.52759 -5.27215 0
M  V30 1393 H 133.97 2.35221 -3.74331 0
M  V30 1394 N 133.029 1.57378 -0.0835403 0
M  V30 1395 C 134.306 1.85363 0.624507 0
M  V30 1396 C 134.686 0.978239 1.87066 0
M  V30 1397 O 134.034 0.0475908 2.2845 0
M  V30 1398 C 134.244 3.35795 0.950947 0
M  V30 1399 C 135.592 4.03581 1.31939 0
M  V30 1400 O 136.616 3.40609 1.04232 0
M  V30 1401 O 135.475 5.14672 1.83779 0
M  V30 1402 H 132.569 0.766162 0.311329 0
M  V30 1403 H 135.115 1.69307 -0.115362 0
M  V30 1404 H 133.887 3.91244 0.0663899 0
M  V30 1405 H 133.51 3.57154 1.74719 0
M  V30 1406 N 134.507 -0.190092 1.56449 0
M  V30 1407 C 135.756 -0.907912 1.80111 0
M  V30 1408 C 136.069 -1.84214 0.657619 0
M  V30 1409 O 137.275 -2.60094 0.778663 0
M  V30 1410 C 135.731 -1.66485 3.19078 0
M  V30 1411 C 135.339 -0.7752 4.41242 0
M  V30 1412 C 137.083 -2.37201 3.52045 0
M  V30 1413 C 134.99 -1.53129 5.71231 0
M  V30 1414 H 133.92 -0.34276 0.671589 0
M  V30 1415 H 136.571 -0.161109 1.82791 0
M  V30 1416 H 134.953 -2.45572 3.10661 0
M  V30 1417 H 136.127 -0.0226298 4.60794 0
M  V30 1418 H 134.442 -0.178627 4.16017 0
M  V30 1419 H 137.039 -2.94329 4.46402 0
M  V30 1420 H 137.382 -3.11632 2.76028 0
M  V30 1421 H 137.915 -1.65075 3.61932 0
M  V30 1422 H 134.654 -0.82967 6.50228 0
M  V30 1423 H 134.174 -2.25767 5.55688 0
M  V30 1424 H 135.853 -2.08377 6.12526 0
M  V30 1425 N 135.985 -1.50799 -0.457987 0
M  V30 1426 C 137.21 -1.66496 -1.23668 0
M  V30 1427 C 137.635 -0.353288 -1.84752 0
M  V30 1428 O 136.993 0.684346 -1.67888 0
M  V30 1429 C 137.041 -2.76763 -2.3116 0
M  V30 1430 O 136.145 -2.38928 -3.36136 0
M  V30 1431 H 135.486 -0.555828 -0.363252 0
M  V30 1432 H 138.016 -1.9725 -0.543474 0
M  V30 1433 H 138.026 -3.00232 -2.76269 0
M  V30 1434 H 136.701 -3.71954 -1.86073 0
M  V30 1435 H 135.278 -2.25953 -2.96647 0
M  V30 1436 N 137.463 0.71206 -1.40597 0
M  V30 1437 C 138.395 1.83704 -1.37061 0
M  V30 1438 C 139.408 1.60453 -0.275426 0
M  V30 1439 O 140.597 1.70262 -0.53602 0
M  V30 1440 C 137.697 3.20172 -1.11099 0
M  V30 1441 C 136.87 3.7059 -2.3234 0
M  V30 1442 C 135.929 4.85681 -2.02485 0
M  V30 1443 O 134.955 4.9815 -2.75382 0
M  V30 1444 N 136.157 5.71735 -1.00497 0
M  V30 1445 H 138.922 1.87235 -2.34016 0
M  V30 1446 H 136.483 0.893739 -1.34996 0
M  V30 1447 H 138.475 3.94768 -0.891064 0
M  V30 1448 H 137.045 3.11767 -0.227989 0
M  V30 1449 H 136.265 2.87085 -2.7014 0
M  V30 1450 H 137.553 4.01011 -3.13157 0
M  V30 1451 H 136.951 5.64275 -0.401298 0
M  V30 1452 H 135.508 6.463 -0.844942 0
M  V30 1453 N 138.941 1.26152 0.944643 0
M  V30 1454 C 140.169 1.14259 1.72489 0
M  V30 1455 C 140.584 -0.302555 1.8636 0
M  V30 1456 O 139.941 -1.20741 1.36849 0
M  V30 1457 C 139.992 1.80266 3.13347 0
M  V30 1458 O 139.713 3.19133 3.00143 0
M  V30 1459 C 141.214 1.74283 4.07603 0
M  V30 1460 H 138.434 0.398051 0.540181 0
M  V30 1461 H 140.978 1.66706 1.18446 0
M  V30 1462 H 139.133 1.31766 3.64303 0
M  V30 1463 H 139.547 3.51744 3.89071 0
M  V30 1464 H 141.021 2.25111 5.04013 0
M  V30 1465 H 141.498 0.708631 4.33446 0
M  V30 1466 H 142.104 2.22319 3.62567 0
M  V30 1467 N 140.419 -1.14872 1.07899 0
M  V30 1468 C 141.83 -1.67367 0.827363 0
M  V30 1469 C 142.181 -1.85236 -0.646693 0
M  V30 1470 O 141.306 -1.55974 -1.50004 0
M  V30 1471 C 141.901 -3.04016 1.49532 0
M  V30 1472 C 140.46 -3.53566 1.29106 0
M  V30 1473 C 139.607 -2.29161 1.56143 0
M  V30 1474 H 142.558 -0.990083 1.24028 0
M  V30 1475 H 142.579 -3.69219 0.919643 0
M  V30 1476 H 142.091 -2.90978 2.56814 0
M  V30 1477 H 140.192 -3.71835 0.238713 0
M  V30 1478 H 140.305 -4.34661 2.01511 0
M  V30 1479 H 138.669 -2.34978 0.982717 0
M  V30 1480 H 139.452 -2.18705 2.64619 0
M  V30 1481 N 141.898 -0.863906 -1.31812 0
M  V30 1482 C 142.808 -0.318461 -2.32428 0
M  V30 1483 C 143.824 0.568496 -1.64451 0
M  V30 1484 O 145 0.46666 -1.95919 0
M  V30 1485 C 142.065 0.476355 -3.43412 0
M  V30 1486 C 141.126 -0.43784 -4.27061 0
M  V30 1487 C 140.359 0.319138 -5.32745 0
M  V30 1488 O 140.582 1.54799 -5.48993 0
M  V30 1489 O 139.516 -0.319861 -6.01049 0
M  V30 1490 H 143.342 -1.15229 -2.80991 0
M  V30 1491 H 140.927 -0.627103 -1.35602 0
M  V30 1492 H 142.809 0.927156 -4.11074 0
M  V30 1493 H 141.484 1.28683 -2.97022 0
M  V30 1494 H 140.391 -0.937013 -3.62175 0
M  V30 1495 H 141.724 -1.21375 -4.77 0
M  V30 1496 N 143.376 1.44774 -0.622745 0
M  V30 1497 C 144.309 2.27792 0.136329 0
M  V30 1498 C 145.287 1.38041 0.859264 0
M  V30 1499 O 146.471 1.67478 0.86506 0
M  V30 1500 C 143.598 3.16776 1.19878 0
M  V30 1501 C 142.644 4.22575 0.57731 0
M  V30 1502 S 143.477 5.31825 -0.626294 0
M  V30 1503 C 144.633 6.24377 0.436378 0
M  V30 1504 H 144.866 2.91824 -0.567967 0
M  V30 1505 H 142.399 1.48838 -0.410677 0
M  V30 1506 H 144.357 3.68596 1.80686 0
M  V30 1507 H 143.018 2.5198 1.87523 0
M  V30 1508 H 142.211 4.84818 1.37721 0
M  V30 1509 H 141.813 3.73974 0.0440439 0
M  V30 1510 H 144.105 6.64689 1.31128 0
M  V30 1511 H 145.048 7.07941 -0.150271 0
M  V30 1512 H 145.456 5.59381 0.758513 0
M  V30 1513 N 144.854 0.36279 1.53368 0
M  V30 1514 C 145.801 -0.485008 2.25646 0
M  V30 1515 C 146.771 -1.07982 1.2621 0
M  V30 1516 O 147.956 -1.11284 1.54986 0
M  V30 1517 C 145.096 -1.62023 3.04701 0
M  V30 1518 C 144.209 -1.05086 4.19024 0
M  V30 1519 C 143.344 -2.15496 4.85525 0
M  V30 1520 C 142.383 -1.5601 5.91884 0
M  V30 1521 N 141.52 -2.60241 6.52088 0
M  V30 1522 H 146.36 0.137864 2.97681 0
M  V30 1523 H 143.897 0.0798061 1.46883 0
M  V30 1524 H 145.855 -2.28887 3.48807 0
M  V30 1525 H 144.485 -2.2138 2.34927 0
M  V30 1526 H 143.537 -0.27259 3.79422 0
M  V30 1527 H 144.849 -0.575926 4.95464 0
M  V30 1528 H 144.003 -2.90186 5.32801 0
M  V30 1529 H 142.742 -2.66341 4.08551 0
M  V30 1530 H 141.747 -0.798338 5.43973 0
M  V30 1531 H 142.972 -1.05994 6.70777 0
M  V30 1532 H 140.918 -3.10304 5.77968 0
M  V30 1533 H 140.835 -2.17426 7.24059 0
M  V30 1534 H 142.103 -3.34641 7.04014 0
M  V30 1535 N 146.332 -1.57332 0.0918853 0
M  V30 1536 C 147.58 -1.93853 -0.571446 0
M  V30 1537 C 147.901 -0.974212 -1.6892 0
M  V30 1538 O 147.171 -0.0257254 -1.95883 0
M  V30 1539 H 145.751 -0.715666 -0.214082 0
M  V30 1540 H 148.413 -1.94287 0.154464 0
M  V30 1541 H 147.509 -2.96191 -0.983729 0
M  V30 1542 N 147.81 0.181792 -1.56548 0
M  V30 1543 C 149.056 0.901431 -1.81665 0
M  V30 1544 C 149.389 1.82347 -0.668075 0
M  V30 1545 O 148.664 1.91669 0.330615 0
M  V30 1546 C 148.947 1.70618 -3.17115 0
M  V30 1547 C 148.8 0.807964 -4.42484 0
M  V30 1548 C 150.119 2.67605 -3.49393 0
M  V30 1549 H 147.238 0.32627 -0.660846 0
M  V30 1550 H 149.88 0.168134 -1.89255 0
M  V30 1551 H 148.03 2.33133 -3.10775 0
M  V30 1552 H 149.702 0.19649 -4.60881 0
M  V30 1553 H 147.945 0.115411 -4.33646 0
M  V30 1554 H 148.616 1.40632 -5.33785 0
M  V30 1555 H 151.092 2.15218 -3.56118 0
M  V30 1556 H 149.968 3.20985 -4.45264 0
M  V30 1557 H 150.229 3.47298 -2.73563 0
M  V30 1558 N 149.288 1.51039 0.449983 0
M  V30 1559 C 150.518 1.66627 1.22143 0
M  V30 1560 C 150.926 0.357776 1.85786 0
M  V30 1561 O 150.269 -0.672424 1.70951 0
M  V30 1562 C 150.331 2.71562 2.35573 0
M  V30 1563 C 149.995 4.14526 1.92399 0
M  V30 1564 C 150.992 4.99717 1.43453 0
M  V30 1565 C 148.677 4.60559 2.00475 0
M  V30 1566 C 150.671 6.28998 1.03155 0
M  V30 1567 C 148.358 5.8984 1.59788 0
M  V30 1568 C 149.356 6.73886 1.11208 0
M  V30 1569 O 149.044 8.0075 0.710935 0
M  V30 1570 H 148.776 0.562635 0.374724 0
M  V30 1571 H 151.33 1.98146 0.541036 0
M  V30 1572 H 149.56 2.3533 3.06849 0
M  V30 1573 H 151.249 2.76156 2.97478 0
M  V30 1574 H 152.015 4.65361 1.36618 0
M  V30 1575 H 147.894 3.95273 2.37235 0
M  V30 1576 H 151.438 6.9455 0.651663 0
M  V30 1577 H 147.335 6.23713 1.66289 0
M  V30 1578 H 148.103 8.142 0.837913 0
M  V30 1579 N 150.766 -0.704594 1.40972 0
M  V30 1580 C 151.991 -1.49858 1.43378 0
M  V30 1581 C 152.416 -1.88061 0.038184 0
M  V30 1582 O 151.774 -1.5402 -0.956425 0
M  V30 1583 C 151.822 -2.74333 2.34038 0
M  V30 1584 O 150.926 -3.7147 1.7912 0
M  V30 1585 H 150.267 -0.45139 0.486974 0
M  V30 1586 H 152.797 -0.866832 1.8533 0
M  V30 1587 H 152.807 -3.22741 2.49604 0
M  V30 1588 H 151.482 -2.45863 3.35446 0
M  V30 1589 H 150.059 -3.30363 1.72958 0
M  V30 1590 N 152.244 -1.26651 -0.937939 0
M  V30 1591 C 153.66 -1.03834 -1.21205 0
M  V30 1592 C 153.86 0.234502 -2.00131 0
M  V30 1593 O 152.916 0.942767 -2.3424 0
M  V30 1594 C 154.229 -2.27167 -1.97017 0
M  V30 1595 C 155.777 -2.32101 -2.09996 0
M  V30 1596 C 156.252 -3.55136 -2.8921 0
M  V30 1597 N 157.743 -3.55632 -2.96783 0
M  V30 1598 C 158.478 -4.475 -3.58512 0
M  V30 1599 N 157.974 -5.4966 -4.21717 0
M  V30 1600 N 159.767 -4.35145 -3.55816 0
M  V30 1601 H 151.918 -2.08398 -0.410391 0
M  V30 1602 H 154.181 -0.916031 -0.244114 0
M  V30 1603 H 153.887 -3.19765 -1.46434 0
M  V30 1604 H 153.761 -2.31672 -2.97671 0
M  V30 1605 H 156.148 -1.40015 -2.59769 0
M  V30 1606 H 156.229 -2.31605 -1.08594 0
M  V30 1607 H 155.873 -4.47553 -2.40123 0
M  V30 1608 H 155.803 -3.5288 -3.90875 0
M  V30 1609 H 158.294 -2.81743 -2.51852 0
M  V30 1610 H 158.607 -6.15943 -4.66727 0
M  V30 1611 H 156.952 -5.53514 -4.20294 0
M  V30 1612 H 160.143 -3.5455 -3.05634 0
M  V30 1613 H 160.316 -5.06934 -4.03636 0
M  V30 1614 N 153.722 1.14298 -1.08507 0
M  V30 1615 C 154.968 1.85633 -0.816581 0
M  V30 1616 C 155.301 1.82784 0.656021 0
M  V30 1617 O 154.576 1.25926 1.48233 0
M  V30 1618 C 154.859 3.34223 -1.34041 0
M  V30 1619 C 154.712 3.45639 -2.87843 0
M  V30 1620 C 156.031 4.29356 -0.9665 0
M  V30 1621 H 153.15 0.67402 -0.298104 0
M  V30 1622 H 155.792 1.34214 -1.34487 0
M  V30 1623 H 153.942 3.78144 -0.89104 0
M  V30 1624 H 155.614 3.10498 -3.41158 0
M  V30 1625 H 153.857 2.86817 -3.25451 0
M  V30 1626 H 154.528 4.50089 -3.19569 0
M  V30 1627 H 157.004 3.93457 -1.35391 0
M  V30 1628 H 155.88 5.3178 -1.3602 0
M  V30 1629 H 156.141 4.41919 0.126362 0
M  V30 1630 N 155.201 0.870884 1.31352 0
M  V30 1631 C 156.617 0.562932 1.49343 0
M  V30 1632 C 156.817 -0.902725 1.80148 0
M  V30 1633 O 155.873 -1.68484 1.88067 0
M  V30 1634 C 157.186 1.46393 2.62659 0
M  V30 1635 C 158.734 1.46607 2.76542 0
M  V30 1636 C 159.209 2.35266 3.92955 0
M  V30 1637 N 160.7 2.33151 4.00243 0
M  V30 1638 C 161.435 2.98471 4.89594 0
M  V30 1639 N 160.931 3.72964 5.8384 0
M  V30 1640 N 162.724 2.87775 4.82848 0
M  V30 1641 H 154.875 1.81923 1.09626 0
M  V30 1642 H 157.138 0.777934 0.541777 0
M  V30 1643 H 156.844 2.50689 2.46674 0
M  V30 1644 H 156.718 1.16314 3.58819 0
M  V30 1645 H 159.105 0.43069 2.9194 0
M  V30 1646 H 159.186 1.8071 1.81046 0
M  V30 1647 H 158.83 3.38881 3.78315 0
M  V30 1648 H 158.76 1.98487 4.87761 0
M  V30 1649 H 161.251 1.79006 3.32814 0
M  V30 1650 H 161.564 4.19932 6.4875 0
M  V30 1651 H 159.909 3.77073 5.83816 0
M  V30 1652 H 163.1 2.29116 4.08195 0
M  V30 1653 H 163.273 3.38961 5.52277 0
M  V30 1654 N 156.679 -1.44442 0.630414 0
M  V30 1655 C 157.609 -2.33418 -0.0618083 0
M  V30 1656 C 158.59 -1.48165 -0.835541 0
M  V30 1657 O 159.775 -1.76886 -0.801564 0
M  V30 1658 C 156.905 -3.31222 -1.04449 0
M  V30 1659 C 155.859 -4.26288 -0.382436 0
M  V30 1660 C 155.185 -5.13954 -1.47497 0
M  V30 1661 C 156.485 -5.1744 0.710865 0
M  V30 1662 H 158.179 -2.91548 0.681184 0
M  V30 1663 H 155.725 -1.40191 0.329026 0
M  V30 1664 H 157.678 -3.92351 -1.53748 0
M  V30 1665 H 156.402 -2.71299 -1.81836 0
M  V30 1666 H 155.061 -3.6649 0.0899054 0
M  V30 1667 H 154.709 -4.50385 -2.2397 0
M  V30 1668 H 154.409 -5.7837 -1.03737 0
M  V30 1669 H 155.933 -5.77955 -1.96979 0
M  V30 1670 H 157.347 -5.72509 0.300996 0
M  V30 1671 H 155.744 -5.90455 1.07156 0
M  V30 1672 H 156.814 -4.58496 1.57829 0
M  V30 1673 N 158.157 -0.370918 -1.53173 0
M  V30 1674 C 159.105 0.488101 -2.27421 0
M  V30 1675 C 160.099 1.07884 -1.30604 0
M  V30 1676 O 161.305 1.02143 -1.48212 0
M  V30 1677 H 157.68 0.176134 -0.731082 0
M  V30 1678 H 159.651 -0.159815 -2.97972 0
M  V30 1679 C 158.4 1.61306 -3.08019 0
M  V30 1680 H 157.723 1.1678 -3.82364 0
M  V30 1681 H 159.163 2.18872 -3.63141 0
M  V30 1682 C 157.622 2.55848 -2.19188 0
M  V30 1683 O 158.152 3.58799 -1.80626 0
M  V30 1684 N 156.358 2.2516 -1.83715 0
M  V30 1685 H 155.905 1.41476 -2.15273 0
M  V30 1686 H 155.863 2.8867 -1.24567 0
M  V30 1687 N 159.635 1.57281 -0.100228 0
M  V30 1688 C 160.86 1.99302 0.573881 0
M  V30 1689 C 161.285 0.979059 1.60611 0
M  V30 1690 O 160.643 -0.0517803 1.81226 0
M  V30 1691 C 160.691 3.40274 1.19358 0
M  V30 1692 O 159.795 3.41676 2.30935 0
M  V30 1693 H 159.136 0.647944 0.145138 0
M  V30 1694 H 161.666 2.03779 -0.183156 0
M  V30 1695 H 161.676 3.78078 1.53365 0
M  V30 1696 H 160.351 4.13594 0.437385 0
M  V30 1697 H 158.928 3.15672 1.98509 0
M  V30 1698 N 161.113 -0.173488 1.56642 0
M  V30 1699 C 162.023 -1.23482 1.99473 0
M  V30 1700 C 163.039 -1.48567 0.905752 0
M  V30 1701 O 164.215 -1.60758 1.21321 0
M  V30 1702 C 161.28 -2.55444 2.34413 0
M  V30 1703 C 160.341 -2.38241 3.57127 0
M  V30 1704 C 159.574 -3.63909 3.90392 0
M  V30 1705 O 159.797 -4.68996 3.24653 0
M  V30 1706 O 158.731 -3.58149 4.83749 0
M  V30 1707 H 162.557 -0.901279 2.90018 0
M  V30 1708 H 160.142 -0.380185 1.44482 0
M  V30 1709 H 162.024 -3.33292 2.57865 0
M  V30 1710 H 160.699 -2.88382 1.4703 0
M  V30 1711 H 159.606 -1.58431 3.38896 0
M  V30 1712 H 160.939 -2.10228 4.45045 0
M  V30 1713 N 162.591 -1.51276 -0.441967 0
M  V30 1714 C 163.84 -1.6295 -1.18871 0
M  V30 1715 C 164.153 -0.349312 -1.92456 0
M  V30 1716 O 165.359 -0.345355 -2.69295 0
M  V30 1717 C 163.815 -2.87759 -2.16155 0
M  V30 1718 C 163.423 -4.22764 -1.48239 0
M  V30 1719 C 165.167 -3.08788 -2.91291 0
M  V30 1720 C 163.074 -5.38728 -2.4398 0
M  V30 1721 H 162.004 -0.606913 -0.447406 0
M  V30 1722 H 164.655 -1.77739 -0.456205 0
M  V30 1723 H 163.037 -2.66593 -2.92821 0
M  V30 1724 H 164.211 -4.54293 -0.771635 0
M  V30 1725 H 162.526 -4.07575 -0.852741 0
M  V30 1726 H 165.123 -3.92599 -3.63002 0
M  V30 1727 H 165.466 -2.21679 -3.5237 0
M  V30 1728 H 165.999 -3.30272 -2.21733 0
M  V30 1729 H 162.738 -6.28082 -1.87598 0
M  V30 1730 H 162.258 -5.1158 -3.13123 0
M  V30 1731 H 163.937 -5.70489 -3.05207 0
M  V30 1732 N 164.069 0.697108 -1.41344 0
M  V30 1733 C 165.294 1.49096 -1.44171 0
M  V30 1734 C 165.719 1.88038 -0.0481568 0
M  V30 1735 O 165.077 1.54525 0.948243 0
M  V30 1736 C 165.125 2.73088 -2.3549 0
M  V30 1737 O 164.229 3.70514 -1.81088 0
M  V30 1738 H 163.57 0.448801 -0.489361 0
M  V30 1739 H 166.1 0.856992 -1.85787 0
M  V30 1740 H 166.11 3.21413 -2.51312 0
M  V30 1741 H 164.785 2.44081 -3.36745 0
M  V30 1742 H 163.362 3.29441 -1.74708 0
M  V30 1743 N 165.547 1.27147 0.931209 0
M  V30 1744 C 166.963 1.04475 1.20653 0
M  V30 1745 C 167.163 -0.223885 2.00252 0
M  V30 1746 O 166.219 -0.930332 2.34736 0
M  V30 1747 C 167.532 2.28209 1.95809 0
M  V30 1748 C 169.08 2.33211 2.08762 0
M  V30 1749 C 169.555 3.56665 2.87323 0
M  V30 1750 N 171.046 3.57201 2.94892 0
M  V30 1751 C 171.781 4.49395 3.56134 0
M  V30 1752 N 171.277 5.51889 4.18796 0
M  V30 1753 N 173.07 4.37026 3.53504 0
M  V30 1754 H 165.221 2.08612 0.399333 0
M  V30 1755 H 167.484 0.917312 0.239253 0
M  V30 1756 H 167.19 3.20538 1.44736 0
M  V30 1757 H 167.064 2.33247 2.96438 0
M  V30 1758 H 169.451 1.41391 2.59023 0
M  V30 1759 H 169.532 2.32178 1.07364 0
M  V30 1760 H 169.176 4.4882 2.37746 0
M  V30 1761 H 169.106 3.54948 3.88998 0
M  V30 1762 H 171.597 2.83074 2.50354 0
M  V30 1763 H 171.91 6.18409 4.63454 0
M  V30 1764 H 170.255 5.55735 4.17353 0
M  V30 1765 H 173.446 3.56166 3.03749 0
M  V30 1766 H 173.619 5.09067 4.00942 0
M  V30 1767 N 167.025 -1.13721 1.09112 0
M  V30 1768 C 167.972 -2.19031 0.727591 0
M  V30 1769 C 168.942 -1.63555 -0.289656 0
M  V30 1770 O 170.127 -1.90023 -0.172026 0
M  V30 1771 C 167.267 -3.4477 0.15082 0
M  V30 1772 C 166.38 -4.14365 1.22172 0
M  V30 1773 C 165.515 -5.27709 0.608042 0
M  V30 1774 C 164.554 -5.89147 1.66047 0
M  V30 1775 N 163.691 -6.93929 1.06806 0
M  V30 1776 H 168.531 -2.49475 1.62991 0
M  V30 1777 H 166.068 -1.22499 0.81439 0
M  V30 1778 H 168.026 -4.16714 -0.201358 0
M  V30 1779 H 166.656 -3.14787 -0.714783 0
M  V30 1780 H 165.708 -3.40737 1.69122 0
M  V30 1781 H 167.02 -4.56114 2.01895 0
M  V30 1782 H 166.174 -6.06355 0.204523 0
M  V30 1783 H 164.913 -4.872 -0.220769 0
M  V30 1784 H 163.918 -5.09198 2.07357 0
M  V30 1785 H 165.143 -6.31729 2.49189 0
M  V30 1786 H 163.089 -6.55483 0.260476 0
M  V30 1787 H 163.006 -7.34202 1.8023 0
M  V30 1788 H 164.274 -7.76434 0.690644 0
M  V30 1789 N 168.503 -0.877838 -1.30888 0
M  V30 1790 C 169.78 -0.413052 -1.91189 0
M  V30 1791 C 170.16 1.1056 -1.79832 0
M  V30 1792 O 169.508 1.93771 -1.21099 0
M  V30 1793 C 169.718 -0.903191 -3.3711 0
M  V30 1794 C 171.066 -0.93395 -4.14201 0
M  V30 1795 O 172.09 -0.849373 -3.45925 0
M  V30 1796 O 170.949 -1.05772 -5.36167 0
M  V30 1797 H 168.043 -0.125035 -0.817493 0
M  V30 1798 H 170.589 -0.966269 -1.39504 0
M  V30 1799 H 169.361 -1.94692 -3.39427 0
M  V30 1800 H 168.984 -0.328732 -3.96239 0
M  V30 1801 N 169.982 1.44106 -0.638065 0
M  V30 1802 C 170.915 2.27924 0.112161 0
M  V30 1803 C 171.893 1.38945 0.844574 0
M  V30 1804 O 173.077 1.68386 0.847248 0
M  V30 1805 C 170.204 3.18029 1.16512 0
M  V30 1806 C 169.25 4.23163 0.532458 0
M  V30 1807 S 170.083 5.31131 -0.682666 0
M  V30 1808 C 171.239 6.24805 0.37013 0
M  V30 1809 H 171.472 2.91205 -0.598887 0
M  V30 1810 H 169.005 1.48394 -0.426441 0
M  V30 1811 H 170.963 3.70492 1.76766 0
M  V30 1812 H 169.624 2.53955 1.8484 0
M  V30 1813 H 168.817 4.86252 1.32571 0
M  V30 1814 H 168.419 3.74 0.00437644 0
M  V30 1815 H 170.711 6.66042 1.24071 0
M  V30 1816 H 171.654 7.07741 -0.225349 0
M  V30 1817 H 172.062 5.60154 0.699141 0
M  V30 1818 N 171.46 0.379036 1.52974 0
M  V30 1819 C 172.39 -0.452706 2.29069 0
M  V30 1820 C 173.371 -1.07237 1.32039 0
M  V30 1821 O 174.556 -1.08708 1.60923 0
M  V30 1822 C 171.686 -1.5856 3.08992 0
M  V30 1823 C 170.64 -1.0925 4.13822 0
M  V30 1824 C 169.966 -2.31668 4.81907 0
M  V30 1825 C 171.266 -0.167702 5.22031 0
M  V30 1826 H 172.96 0.182181 2.98845 0
M  V30 1827 H 170.506 0.0890592 1.43724 0
M  V30 1828 H 172.459 -2.1742 3.6098 0
M  V30 1829 H 171.183 -2.24792 2.36931 0
M  V30 1830 H 169.842 -0.526494 3.628 0
M  V30 1831 H 169.49 -2.96386 4.06404 0
M  V30 1832 H 169.19 -1.9934 5.52754 0
M  V30 1833 H 170.714 -2.91189 5.36695 0
M  V30 1834 H 172.128 -0.664186 5.6944 0
M  V30 1835 H 170.525 0.0653265 6.00064 0
M  V30 1836 H 171.595 0.786347 4.78482 0
M  V30 1837 N 172.938 -1.57226 0.108567 0
M  V30 1838 C 173.868 -2.17778 -0.84232 0
M  V30 1839 C 174.849 -1.11487 -1.2847 0
M  V30 1840 O 176.034 -1.39681 -1.34918 0
M  V30 1841 C 173.164 -2.76888 -2.09644 0
M  V30 1842 C 172.118 -3.88669 -1.79221 0
M  V30 1843 C 171.444 -4.34541 -3.11574 0
M  V30 1844 C 172.744 -5.11251 -1.06864 0
M  V30 1845 H 174.438 -2.97489 -0.337774 0
M  V30 1846 H 171.984 -1.43097 -0.161025 0
M  V30 1847 H 173.937 -3.17904 -2.76614 0
M  V30 1848 H 172.661 -1.94451 -2.62405 0
M  V30 1849 H 171.32 -3.48213 -1.14644 0
M  V30 1850 H 170.968 -3.48977 -3.62249 0
M  V30 1851 H 170.668 -5.09914 -2.91996 0
M  V30 1852 H 172.192 -4.782 -3.7968 0
M  V30 1853 H 173.606 -5.49352 -1.63968 0
M  V30 1854 H 172.003 -5.9214 -0.974178 0
M  V30 1855 H 173.073 -4.8487 -0.0536168 0
M  V30 1856 N 174.416 0.165178 -1.56732 0
M  V30 1857 C 175.346 1.20651 -1.99914 0
M  V30 1858 C 176.327 1.45827 -0.875705 0
M  V30 1859 O 177.512 1.57057 -1.14223 0
M  V30 1860 C 174.642 2.54401 -2.36427 0
M  V30 1861 C 173.596 2.43782 -3.51787 0
M  V30 1862 C 172.922 3.82078 -3.7406 0
M  V30 1863 C 174.222 1.93732 -4.85041 0
M  V30 1864 H 175.916 0.847534 -2.87154 0
M  V30 1865 H 173.462 0.40625 -1.38151 0
M  V30 1866 H 175.415 3.27458 -2.65234 0
M  V30 1867 H 174.139 2.92098 -1.46103 0
M  V30 1868 H 172.798 1.73178 -3.23117 0
M  V30 1869 H 172.446 4.17179 -2.81017 0
M  V30 1870 H 172.146 3.7584 -4.51684 0
M  V30 1871 H 173.67 4.56712 -4.05274 0
M  V30 1872 H 175.084 2.56569 -5.12684 0
M  V30 1873 H 173.481 1.98428 -5.66345 0
M  V30 1874 H 174.551 0.891962 -4.76626 0
M  V30 1875 N 175.894 1.51508 0.433938 0
M  V30 1876 C 176.857 1.72473 1.50949 0
M  V30 1877 C 177.857 0.594725 1.49398 0
M  V30 1878 O 179.047 0.862315 1.5136 0
M  V30 1879 C 176.179 1.78431 2.90474 0
M  V30 1880 H 177.372 2.68467 1.33662 0
M  V30 1881 H 174.925 1.41549 0.662836 0
M  V30 1882 H 175.66 0.842645 3.13161 0
M  V30 1883 H 175.445 2.60558 2.93005 0
M  V30 1884 H 176.935 1.96479 3.68491 0
M  V30 1885 N 177.372 -0.689602 1.41712 0
M  V30 1886 C 178.302 -1.81577 1.46806 0
M  V30 1887 C 179.283 -1.66945 0.326105 0
M  V30 1888 O 180.468 -1.86588 0.538377 0
M  V30 1889 C 177.598 -3.19762 1.35535 0
M  V30 1890 C 176.552 -3.49107 2.47605 0
M  V30 1891 C 175.878 -4.86711 2.21397 0
M  V30 1892 C 177.178 -3.47483 3.89939 0
M  V30 1893 H 178.872 -1.7757 2.41058 0
M  V30 1894 H 176.418 -0.852887 1.16025 0
M  V30 1895 H 178.371 -3.98263 1.3771 0
M  V30 1896 H 177.095 -3.24409 0.377708 0
M  V30 1897 H 175.754 -2.72959 2.44722 0
M  V30 1898 H 175.402 -4.8799 1.21961 0
M  V30 1899 H 175.102 -5.0731 2.96497 0
M  V30 1900 H 176.626 -5.67515 2.25297 0
M  V30 1901 H 178.04 -4.1598 3.94505 0
M  V30 1902 H 176.437 -3.79615 4.64771 0
M  V30 1903 H 177.507 -2.46341 4.17665 0
M  V30 1904 N 178.85 -1.27639 -0.924453 0
M  V30 1905 C 179.783 -1.04966 -2.02626 0
M  V30 1906 C 180.761 0.0309505 -1.62571 0
M  V30 1907 O 181.945 -0.114846 -1.8815 0
M  V30 1908 C 179.072 -0.59292 -3.3347 0
M  V30 1909 C 178.118 -1.66858 -3.92506 0
M  V30 1910 S 178.951 -3.2619 -4.24689 0
M  V30 1911 C 180.107 -2.82325 -5.58609 0
M  V30 1912 H 180.34 -1.98252 -2.21547 0
M  V30 1913 H 177.873 -1.11506 -1.06798 0
M  V30 1914 H 179.831 -0.336086 -4.09122 0
M  V30 1915 H 178.492 0.319939 -3.12466 0
M  V30 1916 H 177.685 -1.30038 -4.86935 0
M  V30 1917 H 177.287 -1.87766 -3.2345 0
M  V30 1918 H 179.579 -2.2783 -6.38044 0
M  V30 1919 H 180.522 -3.75511 -6.00331 0
M  V30 1920 H 180.93 -2.21367 -5.19285 0
M  V30 1921 N 180.328 1.1314 -1.09713 0
M  V30 1922 C 181.553 1.88862 -0.857081 0
M  V30 1923 C 181.978 1.78729 0.586304 0
M  V30 1924 O 181.336 1.13692 1.41222 0
M  V30 1925 C 181.384 3.36325 -1.30069 0
M  V30 1926 O 180.488 4.09815 -0.461007 0
M  V30 1927 H 179.829 0.587108 -0.310162 0
M  V30 1928 H 182.359 1.43129 -1.46203 0
M  V30 1929 H 182.369 3.87157 -1.28738 0
M  V30 1930 H 181.044 3.43017 -2.35185 0
M  V30 1931 H 179.621 3.68986 -0.538888 0
M  V30 1932 N 181.806 0.884767 1.30421 0
M  V30 1933 C 183.031 0.517288 2.00845 0
M  V30 1934 C 183.456 -0.886779 1.65885 0
M  V30 1935 O 182.814 -1.58768 0.875354 0
M  V30 1936 C 182.862 0.698994 3.5376 0
M  V30 1937 O 181.966 -0.255208 4.1161 0
M  V30 1938 H 181.307 0.203872 0.631927 0
M  V30 1939 H 183.837 1.19225 1.66272 0
M  V30 1940 H 183.847 0.597912 4.03595 0
M  V30 1941 H 182.522 1.72271 3.78544 0
M  V30 1942 H 181.099 -0.10784 3.72744 0
M  V30 1943 N 183.284 -1.43765 0.645699 0
M  V30 1944 C 184.194 -2.34544 -0.0512957 0
M  V30 1945 C 185.21 -1.53455 -0.82022 0
M  V30 1946 O 186.386 -1.86133 -0.769176 0
M  V30 1947 C 183.451 -3.31636 -1.01087 0
M  V30 1948 C 182.512 -4.2863 -0.239712 0
M  V30 1949 C 181.745 -5.21084 -1.15358 0
M  V30 1950 O 181.968 -5.1779 -2.39269 0
M  V30 1951 O 180.902 -5.98593 -0.630038 0
M  V30 1952 H 184.728 -2.95624 0.695718 0
M  V30 1953 H 182.313 -1.43781 0.405882 0
M  V30 1954 H 184.195 -3.9136 -1.56254 0
M  V30 1955 H 182.87 -2.73069 -1.73824 0
M  V30 1956 H 181.777 -3.72408 0.355356 0
M  V30 1957 H 183.11 -4.90157 0.447936 0
M  V30 1958 N 184.763 -0.387143 -1.52771 0
M  V30 1959 C 185.711 0.463953 -2.27926 0
M  V30 1960 C 186.705 1.06493 -1.31741 0
M  V30 1961 O 187.911 1.00565 -1.49287 0
M  V30 1962 H 184.286 0.16837 -0.732909 0
M  V30 1963 H 186.257 -0.19141 -2.97785 0
M  V30 1964 C 185.006 1.5803 -3.09713 0
M  V30 1965 H 184.329 1.12718 -3.83581 0
M  V30 1966 H 185.769 2.15008 -3.65442 0
M  V30 1967 C 184.228 2.53509 -2.2189 0
M  V30 1968 O 184.758 3.56863 -1.84422 0
M  V30 1969 N 182.964 2.23199 -1.86093 0
M  V30 1970 H 182.511 1.39185 -2.16761 0
M  V30 1971 H 182.469 2.87333 -1.27621 0
M  V30 1972 N 186.241 1.57166 -0.116904 0
M  V30 1973 C 187.657 1.5779 0.239693 0
M  V30 1974 C 187.857 1.1295 1.66867 0
M  V30 1975 O 186.913 0.81592 2.38954 0
M  V30 1976 C 188.226 3.00699 0.00828202 0
M  V30 1977 C 189.774 3.12912 0.0743438 0
M  V30 1978 C 190.249 4.57817 -0.129348 0
M  V30 1979 N 191.74 4.63139 -0.075247 0
M  V30 1980 C 192.475 5.73023 -0.207788 0
M  V30 1981 N 191.971 6.91665 -0.396382 0
M  V30 1982 N 193.764 5.61906 -0.14751 0
M  V30 1983 H 185.915 1.84615 -1.05029 0
M  V30 1984 H 188.178 0.85311 -0.41341 0
M  V30 1985 H 187.884 3.37784 -0.979531 0
M  V30 1986 H 187.758 3.69848 0.741077 0
M  V30 1987 H 190.145 2.75686 1.05268 0
M  V30 1988 H 190.226 2.4631 -0.690297 0
M  V30 1989 H 189.87 4.95742 -1.10465 0
M  V30 1990 H 189.8 5.22507 0.655253 0
M  V30 1991 H 192.291 3.7784 0.0670898 0
M  V30 1992 H 192.604 7.71255 -0.488437 0
M  V30 1993 H 190.949 6.93654 -0.432329 0
M  V30 1994 H 194.14 4.681 -0.00115036 0
M  V30 1995 H 194.313 6.47501 -0.254247 0
M  V30 1996 N 187.719 -0.156864 1.56817 0
M  V30 1997 C 188.682 -1.17781 1.96622 0
M  V30 1998 C 189.682 -1.36401 0.851555 0
M  V30 1999 O 190.872 -1.33561 1.11836 0
M  V30 2000 C 188.004 -2.54008 2.27361 0
M  V30 2001 H 189.197 -0.836564 2.87996 0
M  V30 2002 H 186.75 -0.39985 1.51099 0
M  V30 2003 H 187.485 -2.9312 1.38748 0
M  V30 2004 H 187.27 -2.41856 3.08623 0
M  V30 2005 H 188.76 -3.27558 2.59029 0
M  V30 2006 N 189.197 -1.51736 -0.425897 0
M  V30 2007 C 190.16 -1.73271 -1.50032 0
M  V30 2008 C 191.16 -0.602639 -1.4908 0
M  V30 2009 O 192.35 -0.87033 -1.509 0
M  V30 2010 C 189.482 -1.79969 -2.89523 0
M  V30 2011 H 190.675 -2.69172 -1.32237 0
M  V30 2012 H 188.228 -1.41899 -0.65532 0
M  V30 2013 H 188.963 -0.859241 -3.1271 0
M  V30 2014 H 188.748 -2.62109 -2.91619 0
M  V30 2015 H 190.238 -1.9843 -3.67444 0
M  V30 2016 N 190.675 0.682077 -1.42076 0
M  V30 2017 C 191.638 1.77756 -1.44691 0
M  V30 2018 C 192.638 1.5726 -0.335535 0
M  V30 2019 O 193.828 1.63686 -0.596037 0
M  V30 2020 C 190.96 3.16301 -1.27146 0
M  V30 2021 H 192.153 1.76826 -2.42224 0
M  V30 2022 H 189.706 0.891012 -1.28416 0
M  V30 2023 H 190.441 3.22862 -0.305075 0
M  V30 2024 H 190.226 3.32581 -2.07683 0
M  V30 2025 H 191.716 3.96241 -1.31843 0
M  V30 2026 N 192.153 1.28127 0.917671 0
M  V30 2027 C 193.378 1.18007 1.70555 0
M  V30 2028 C 193.803 -0.258257 1.86319 0
M  V30 2029 O 193.161 -1.1869 1.37049 0
M  V30 2030 C 193.209 1.87948 3.07746 0
M  V30 2031 O 192.313 1.18427 3.9503 0
M  V30 2032 H 191.654 0.409867 0.522403 0
M  V30 2033 H 194.184 1.69379 1.1477 0
M  V30 2034 H 194.194 1.95701 3.58001 0
M  V30 2035 H 192.869 2.92573 2.95591 0
M  V30 2036 H 191.446 1.18811 3.53466 0
M  V30 2037 N 193.631 -1.12557 1.10312 0
M  V30 2038 C 194.561 -2.20341 0.772798 0
M  V30 2039 C 195.542 -1.68198 -0.25365 0
M  V30 2040 O 196.727 -1.93831 -0.119699 0
M  V30 2041 C 193.857 -3.46709 0.202443 0
M  V30 2042 C 192.811 -4.11996 1.15943 0
M  V30 2043 C 192.137 -5.328 0.450345 0
M  V30 2044 C 193.437 -4.5828 2.50552 0
M  V30 2045 H 195.131 -2.48229 1.674 0
M  V30 2046 H 192.677 -1.19308 0.806326 0
M  V30 2047 H 194.63 -4.2138 -0.0407752 0
M  V30 2048 H 193.354 -3.18245 -0.734001 0
M  V30 2049 H 192.013 -3.39305 1.38808 0
M  V30 2050 H 191.661 -5.00602 -0.490531 0
M  V30 2051 H 191.361 -5.7743 1.08851 0
M  V30 2052 H 192.885 -6.10219 0.215642 0
M  V30 2053 H 194.299 -5.2433 2.31843 0
M  V30 2054 H 192.696 -5.13683 3.10242 0
M  V30 2055 H 193.766 -3.72329 3.10643 0
M  V30 2056 N 195.109 -0.891671 -1.2995 0
M  V30 2057 C 196.072 -0.36828 -2.26222 0
M  V30 2058 C 197.072 0.493014 -1.53056 0
M  V30 2059 O 198.262 0.299213 -1.71611 0
M  V30 2060 C 195.394 0.47442 -3.37583 0
M  V30 2061 H 196.587 -1.21844 -2.74033 0
M  V30 2062 H 194.14 -0.669107 -1.41254 0
M  V30 2063 H 194.875 1.34489 -2.95099 0
M  V30 2064 H 194.66 -0.142615 -3.91841 0
M  V30 2065 H 196.15 0.83218 -4.09224 0
M  V30 2066 N 196.587 1.43421 -0.653314 0
M  V30 2067 C 197.537 2.2792 0.060558 0
M  V30 2068 C 198.521 1.39906 0.794677 0
M  V30 2069 O 199.713 1.63536 0.677128 0
M  V30 2070 C 196.842 3.27603 1.0262 0
M  V30 2071 C 195.928 4.23104 0.290551 0
M  V30 2072 N 196.319 5.01031 -0.692967 0
M  V30 2073 C 194.617 4.42816 0.531984 0
M  V30 2074 C 195.318 5.70626 -1.12963 0
M  V30 2075 N 194.294 5.41617 -0.463867 0
M  V30 2076 H 198.096 2.85585 -0.694143 0
M  V30 2077 H 195.61 1.55126 -0.480602 0
M  V30 2078 H 197.607 3.86918 1.55242 0
M  V30 2079 H 196.267 2.71499 1.78096 0
M  V30 2080 H 197.278 5.0669 -1.07169 0
M  V30 2081 H 193.955 3.97782 1.26791 0
M  V30 2082 H 195.345 6.4318 -1.94343 0
M  V30 2083 N 198.065 0.39524 1.52563 0
M  V30 2084 C 199.015 -0.4541 2.23432 0
M  V30 2085 C 199.999 -1.02482 1.24042 0
M  V30 2086 O 201.191 -0.949938 1.49349 0
M  V30 2087 C 198.32 -1.57769 3.049 0
M  V30 2088 C 197.406 -1.01842 4.1169 0
M  V30 2089 N 197.797 -0.184613 5.05463 0
M  V30 2090 C 196.095 -1.29033 4.26927 0
M  V30 2091 C 196.796 0.125013 5.81566 0
M  V30 2092 N 195.772 -0.480498 5.41472 0
M  V30 2093 H 199.574 0.189413 2.93289 0
M  V30 2094 H 197.088 0.204877 1.61102 0
M  V30 2095 H 199.085 -2.19862 3.54212 0
M  V30 2096 H 197.745 -2.22397 2.36579 0
M  V30 2097 H 198.756 0.178602 5.17592 0
M  V30 2098 H 195.433 -1.93721 3.69836 0
M  V30 2099 H 196.823 0.800962 6.67109 0
M  V30 2100 N 199.544 -1.57102 0.125237 0
M  V30 2101 C 200.774 -1.99472 -0.538015 0
M  V30 2102 C 201.182 -1.00395 -1.60366 0
M  V30 2103 O 200.525 0.0103875 -1.83697 0
M  V30 2104 C 200.587 -3.38262 -1.21734 0
M  V30 2105 C 200.251 -4.56021 -0.298897 0
M  V30 2106 C 201.248 -5.17817 0.464943 0
M  V30 2107 C 198.933 -5.01869 -0.208149 0
M  V30 2108 C 200.927 -6.23852 1.3072 0
M  V30 2109 C 198.614 -6.07763 0.637736 0
M  V30 2110 C 199.612 -6.68622 1.39403 0
M  V30 2111 O 199.3 -7.7247 2.22586 0
M  V30 2112 H 199.032 -0.659934 -0.146501 0
M  V30 2113 H 201.586 -2.04321 0.210267 0
M  V30 2114 H 199.816 -3.30185 -2.01282 0
M  V30 2115 H 201.505 -3.6488 -1.77813 0
M  V30 2116 H 202.271 -4.83308 0.404741 0
M  V30 2117 H 198.15 -4.54241 -0.786522 0
M  V30 2118 H 201.694 -6.71284 1.898 0
M  V30 2119 H 197.591 -6.41701 0.699309 0
M  V30 2120 H 198.359 -7.89595 2.15596 0
M  V30 2121 N 201.022 0.148545 -1.56898 0
M  V30 2122 C 202.433 0.708766 -1.72723 0
M  V30 2123 C 202.784 1.81734 -0.739395 0
M  V30 2124 O 201.909 2.16194 0.0943169 0
M  V30 2125 C 202.504 1.29245 -3.13179 0
M  V30 2126 C 201.063 1.79925 -3.30611 0
M  V30 2127 C 200.21 0.687111 -2.68652 0
M  V30 2128 H 203.161 -0.0771063 -1.58513 0
M  V30 2129 H 203.182 2.16224 -3.13093 0
M  V30 2130 H 202.694 0.485382 -3.85053 0
M  V30 2131 H 200.795 2.63203 -2.63732 0
M  V30 2132 H 200.908 1.92903 -4.38549 0
M  V30 2133 H 199.272 1.11335 -2.29078 0
M  V30 2134 H 200.055 -0.108483 -3.43129 0
M  V30 2135 N 202.5 1.5196 0.417844 0
M  V30 2136 C 203.748 1.65263 1.16329 0
M  V30 2137 C 204.069 0.380634 1.91249 0
M  V30 2138 O 203.339 -0.604214 1.86349 0
M  V30 2139 H 201.919 0.60912 0.432414 0
M  V30 2140 H 204.581 1.88969 0.477162 0
M  V30 2141 H 203.677 2.4896 1.88217 0
M  V30 2142 N 203.978 -0.674533 1.42435 0
M  V30 2143 C 205.226 -1.43175 1.42637 0
M  V30 2144 C 205.547 -1.94951 0.0438992 0
M  V30 2145 O 204.817 -1.7308 -0.917607 0
M  V30 2146 H 203.397 -0.531307 0.525092 0
M  V30 2147 H 206.059 -0.797006 1.77859 0
M  V30 2148 H 205.155 -2.28463 2.12629 0
M  V30 2149 N 205.456 -1.28612 -0.910864 0
M  V30 2150 C 206.686 -1.1862 -1.69153 0
M  V30 2151 C 207.094 0.257324 -1.87442 0
M  V30 2152 O 206.437 1.18543 -1.40332 0
M  V30 2153 C 206.499 -1.81606 -3.10257 0
M  V30 2154 C 206.163 -3.30864 -3.15243 0
M  V30 2155 C 207.16 -4.27256 -2.96223 0
M  V30 2156 C 204.845 -3.71871 -3.37664 0
M  V30 2157 C 206.839 -5.62631 -2.99541 0
M  V30 2158 C 204.526 -5.07371 -3.40614 0
M  V30 2159 C 205.524 -6.02561 -3.21573 0
M  V30 2160 O 205.212 -7.35589 -3.2429 0
M  V30 2161 H 204.944 -0.412633 -0.535453 0
M  V30 2162 H 207.498 -1.70306 -1.14827 0
M  V30 2163 H 205.728 -1.24418 -3.66138 0
M  V30 2164 H 207.417 -1.66092 -3.70362 0
M  V30 2165 H 208.183 -3.9691 -2.78725 0
M  V30 2166 H 204.062 -2.98241 -3.5153 0
M  V30 2167 H 207.606 -6.36907 -2.84597 0
M  V30 2168 H 203.503 -5.37366 -3.57642 0
M  V30 2169 H 204.271 -7.44252 -3.40633 0
M  V30 2170 N 206.934 1.1197 -1.10907 0
M  V30 2171 C 207.881 2.17846 -0.762345 0
M  V30 2172 C 208.851 1.63995 0.263599 0
M  V30 2173 O 210.036 1.90273 0.141773 0
M  V30 2174 C 207.176 3.44487 -0.205651 0
M  V30 2175 C 206.289 4.12369 -1.28748 0
M  V30 2176 C 205.424 5.26674 -0.691919 0
M  V30 2177 C 204.463 5.86431 -1.75399 0
M  V30 2178 N 203.6 6.92142 -1.17833 0
M  V30 2179 H 208.44 2.46851 -1.6694 0
M  V30 2180 H 205.977 1.21188 -0.833776 0
M  V30 2181 H 207.935 4.16981 0.135037 0
M  V30 2182 H 206.565 3.15884 0.664613 0
M  V30 2183 H 205.617 3.38003 -1.74522 0
M  V30 2184 H 206.929 4.52844 -2.09125 0
M  V30 2185 H 206.083 6.05953 -0.300963 0
M  V30 2186 H 204.822 4.8749 0.143232 0
M  V30 2187 H 203.827 5.05835 -2.15432 0
M  V30 2188 H 205.052 6.27685 -2.59208 0
M  V30 2189 H 202.998 6.54985 -0.364725 0
M  V30 2190 H 202.915 7.31242 -1.91887 0
M  V30 2191 H 204.183 7.75237 -0.81408 0
M  V30 2192 N 208.412 0.89855 1.29475 0
M  V30 2193 C 209.375 0.380272 2.26023 0
M  V30 2194 C 210.375 -0.484891 1.53315 0
M  V30 2195 O 211.565 -0.290108 1.71767 0
M  V30 2196 C 208.697 -0.45651 3.3783 0
M  V30 2197 H 209.89 1.23295 2.73383 0
M  V30 2198 H 207.443 0.676589 1.40897 0
M  V30 2199 H 208.178 -1.32922 2.95808 0
M  V30 2200 H 207.963 0.163393 3.91759 0
M  V30 2201 H 209.453 -0.810466 4.0966 0
M  V30 2202 N 209.89 -1.43072 0.660911 0
M  V30 2203 C 211.137 -2.01721 0.177445 0
M  V30 2204 C 211.465 -1.5218 -1.21126 0
M  V30 2205 O 210.72 -0.708659 -1.82419 0
M  V30 2206 C 211.019 -3.57103 0.145563 0
M  V30 2207 C 210.685 -4.26021 1.47705 0
M  V30 2208 C 209.347 -4.44563 1.84165 0
M  V30 2209 C 211.699 -4.64983 2.35458 0
M  V30 2210 C 209.027 -4.99334 3.0803 0
M  V30 2211 C 211.379 -5.21127 3.58622 0
M  V30 2212 C 210.043 -5.37884 3.95268 0
M  V30 2213 H 209.313 -0.73815 0.0649317 0
M  V30 2214 H 211.96 -1.71446 0.853144 0
M  V30 2215 H 210.265 -3.86965 -0.61361 0
M  V30 2216 H 211.962 -4.00248 -0.2455 0
M  V30 2217 H 208.552 -4.11939 1.18339 0
M  V30 2218 H 212.736 -4.50343 2.08579 0
M  V30 2219 H 207.992 -5.10493 3.36462 0
M  V30 2220 H 212.166 -5.50262 4.26831 0
M  V30 2221 H 209.793 -5.80089 4.91325 0
M  V30 2222 N 211.368 -0.403325 -1.52352 0
M  V30 2223 C 212.617 0.175668 -2.00934 0
M  V30 2224 C 212.93 1.46718 -1.29356 0
M  V30 2225 O 214.136 2.12708 -1.68724 0
M  V30 2226 C 212.592 0.363612 -3.58058 0
M  V30 2227 C 212.2 -0.915472 -4.38547 0
M  V30 2228 C 213.944 0.89821 -4.14888 0
M  V30 2229 C 211.851 -0.695035 -5.87302 0
M  V30 2230 H 210.781 0.0694234 -0.750797 0
M  V30 2231 H 213.432 -0.527879 -1.75743 0
M  V30 2232 H 211.814 1.12935 -3.79555 0
M  V30 2233 H 212.988 -1.68691 -4.28812 0
M  V30 2234 H 211.303 -1.37606 -3.93006 0
M  V30 2235 H 213.9 1.07907 -5.23699 0
M  V30 2236 H 214.243 1.87126 -3.71873 0
M  V30 2237 H 214.776 0.191681 -3.97338 0
M  V30 2238 H 211.515 -1.63948 -6.34666 0
M  V30 2239 H 211.035 0.0372116 -5.99788 0
M  V30 2240 H 212.714 -0.33497 -6.46132 0
M  V30 2241 N 212.846 1.57033 -0.133567 0
M  V30 2242 C 213.793 2.16074 0.811208 0
M  V30 2243 C 214.763 1.08979 1.2535 0
M  V30 2244 O 215.948 1.36958 1.32843 0
M  V30 2245 C 213.088 2.77595 2.05024 0
M  V30 2246 C 212.201 3.99042 1.65498 0
M  V30 2247 C 211.336 4.48603 2.84479 0
M  V30 2248 C 210.375 5.62547 2.41262 0
M  V30 2249 N 209.512 6.06787 3.53206 0
M  V30 2250 H 214.352 2.96477 0.300906 0
M  V30 2251 H 211.889 1.46462 0.136822 0
M  V30 2252 H 213.847 3.11402 2.77642 0
M  V30 2253 H 212.477 1.99859 2.53488 0
M  V30 2254 H 211.529 3.71302 0.826981 0
M  V30 2255 H 212.841 4.81629 1.29748 0
M  V30 2256 H 211.995 4.84395 3.65303 0
M  V30 2257 H 210.734 3.64995 3.23465 0
M  V30 2258 H 209.739 5.26345 1.58874 0
M  V30 2259 H 210.964 6.47931 2.03377 0
M  V30 2260 H 208.91 5.26117 3.91838 0
M  V30 2261 H 208.827 6.84266 3.21427 0
M  V30 2262 H 210.095 6.4722 4.34427 0
M  V30 2263 N 214.325 -0.140222 1.56975 0
M  V30 2264 C 215.288 -1.15689 1.97861 0
M  V30 2265 C 216.288 -1.3549 0.865974 0
M  V30 2266 O 217.478 -1.32367 1.13246 0
M  V30 2267 C 214.61 -2.51582 2.30042 0
M  V30 2268 H 215.803 -0.805971 2.88867 0
M  V30 2269 H 213.356 -0.383801 1.51515 0
M  V30 2270 H 214.091 -2.91632 1.41849 0
M  V30 2271 H 213.876 -2.38569 3.11171 0
M  V30 2272 H 215.366 -3.24792 2.62488 0
M  V30 2273 N 215.803 -1.52179 -0.40978 0
M  V30 2274 C 216.736 -1.70196 -1.52015 0
M  V30 2275 C 217.714 -0.549542 -1.53032 0
M  V30 2276 O 218.898 -0.776815 -1.71749 0
M  V30 2277 C 216.025 -1.74069 -2.90547 0
M  V30 2278 C 215.071 -2.95601 -3.07445 0
M  V30 2279 S 215.904 -4.55956 -2.80827 0
M  V30 2280 C 217.06 -4.62614 -4.21591 0
M  V30 2281 H 217.293 -2.64109 -1.36504 0
M  V30 2282 H 214.826 -1.4221 -0.601312 0
M  V30 2283 H 216.784 -1.76985 -3.70387 0
M  V30 2284 H 215.445 -0.812835 -3.034 0
M  V30 2285 H 214.638 -2.94791 -4.08796 0
M  V30 2286 H 214.24 -2.90569 -2.35469 0
M  V30 2287 H 216.532 -4.39951 -5.15218 0
M  V30 2288 H 217.475 -5.64548 -4.27424 0
M  V30 2289 H 217.883 -3.91654 -4.06531 0
M  V30 2290 N 217.281 0.66697 -1.42791 0
M  V30 2291 C 218.229 1.80157 -1.47127 0
M  V30 2292 C 219.223 1.65825 -0.346199 0
M  V30 2293 O 220.429 1.72338 -0.519572 0
M  V30 2294 H 216.804 0.594158 -0.460956 0
M  V30 2295 H 218.775 1.73619 -2.42692 0
M  V30 2296 C 217.524 3.18351 -1.39813 0
M  V30 2297 H 216.847 3.3001 -2.25684 0
M  V30 2298 H 218.287 3.97736 -1.46908 0
M  V30 2299 C 216.746 3.36707 -0.11391 0
M  V30 2300 O 217.276 3.93027 0.830241 0
M  V30 2301 N 215.482 2.90586 -0.0285295 0
M  V30 2302 H 215.029 2.4494 -0.79764 0
M  V30 2303 H 214.987 3.03245 0.830063 0
M  V30 2304 N 218.759 1.29093 0.90403 0
M  V30 2305 C 219.722 1.1386 1.98919 0
M  V30 2306 C 220.722 0.0753457 1.60623 0
M  V30 2307 O 221.912 0.321931 1.71199 0
M  V30 2308 C 219.044 0.740198 3.32767 0
M  V30 2309 H 220.237 2.10246 2.13861 0
M  V30 2310 H 217.79 1.12218 1.08797 0
M  V30 2311 H 218.525 -0.223997 3.23525 0
M  V30 2312 H 218.31 1.50838 3.61926 0
M  V30 2313 H 219.8 0.656546 4.12407 0
M  V30 2314 N 220.237 -1.11381 1.11499 0
M  V30 2315 C 221.184 -2.17439 0.773887 0
M  V30 2316 C 222.154 -1.64132 -0.254899 0
M  V30 2317 O 223.339 -1.90345 -0.13168 0
M  V30 2318 C 220.479 -3.44373 0.223917 0
M  V30 2319 C 219.592 -4.1168 1.30934 0
M  V30 2320 C 218.727 -5.263 0.71984 0
M  V30 2321 C 217.766 -5.85493 1.78507 0
M  V30 2322 N 216.903 -6.91507 1.21502 0
M  V30 2323 H 221.743 -2.45962 1.68246 0
M  V30 2324 H 219.28 -1.20744 0.840191 0
M  V30 2325 H 221.238 -4.17047 -0.112921 0
M  V30 2326 H 219.868 -3.16232 -0.647851 0
M  V30 2327 H 218.92 -3.37073 1.76312 0
M  V30 2328 H 220.232 -4.51729 2.11524 0
M  V30 2329 H 219.386 -6.05785 0.333094 0
M  V30 2330 H 218.125 -4.87559 -0.117377 0
M  V30 2331 H 217.13 -5.04686 2.18111 0
M  V30 2332 H 218.355 -6.26301 2.62533 0
M  V30 2333 H 216.301 -6.54783 0.399455 0
M  V30 2334 H 216.218 -7.30214 1.95763 0
M  V30 2335 H 217.486 -7.74795 0.855181 0
M  V30 2336 N 221.715 -0.905404 -1.28997 0
M  V30 2337 C 222.678 -0.392253 -2.25819 0
M  V30 2338 C 223.678 0.476753 -1.5357 0
M  V30 2339 O 224.868 0.280994 -1.71919 0
M  V30 2340 C 222 0.438588 -3.38067 0
M  V30 2341 H 223.193 -1.24743 -2.72725 0
M  V30 2342 H 220.746 -0.684051 -1.40536 0
M  V30 2343 H 221.481 1.31352 -2.96508 0
M  V30 2344 H 221.266 -0.184167 -3.91667 0
M  V30 2345 H 222.756 0.78873 -4.10084 0
M  V30 2346 N 223.193 1.4272 -0.668489 0
M  V30 2347 C 224.14 2.30796 0.0137489 0
M  V30 2348 C 225.11 1.4561 0.799177 0
M  V30 2349 O 226.295 1.74453 0.772702 0
M  V30 2350 C 223.435 3.31377 0.963507 0
M  V30 2351 C 222.548 4.31655 0.172569 0
M  V30 2352 C 221.683 5.19312 1.1175 0
M  V30 2353 C 220.722 6.11274 0.317886 0
M  V30 2354 N 219.859 6.91504 1.2152 0
M  V30 2355 H 224.699 2.88585 -0.743161 0
M  V30 2356 H 222.236 1.42154 -0.378226 0
M  V30 2357 H 224.194 3.88214 1.52792 0
M  V30 2358 H 222.824 2.75202 1.68712 0
M  V30 2359 H 221.876 3.76988 -0.508374 0
M  V30 2360 H 223.188 4.96779 -0.448527 0
M  V30 2361 H 222.342 5.80851 1.75206 0
M  V30 2362 H 221.081 4.5435 1.77249 0
M  V30 2363 H 220.086 5.48809 -0.329918 0
M  V30 2364 H 221.311 6.78283 -0.332917 0
M  V30 2365 H 219.257 6.29176 1.85671 0
M  V30 2366 H 219.174 7.53209 0.649036 0
M  V30 2367 H 220.442 7.57535 1.83742 0
M  V30 2368 N 224.671 0.411399 1.52136 0
M  V30 2369 C 225.896 -0.165538 2.06738 0
M  V30 2370 C 226.321 -1.379 1.27926 0
M  V30 2371 O 225.679 -1.78628 0.310114 0
M  V30 2372 C 225.727 -0.492124 3.57226 0
M  V30 2373 O 224.831 -1.58276 3.80818 0
M  V30 2374 H 224.172 -0.0132132 0.663869 0
M  V30 2375 H 226.702 0.585253 1.96051 0
M  V30 2376 H 226.712 -0.750104 4.01045 0
M  V30 2377 H 225.387 0.394922 4.14021 0
M  V30 2378 H 223.964 -1.31677 3.48877 0
M  V30 2379 N 226.149 -1.5696 0.141893 0
M  V30 2380 C 227.079 -2.19516 -0.795936 0
M  V30 2381 C 228.06 -1.14187 -1.26077 0
M  V30 2382 O 229.245 -1.42511 -1.31925 0
M  V30 2383 C 226.375 -2.81272 -2.03723 0
M  V30 2384 C 225.329 -3.92384 -1.70936 0
M  V30 2385 C 224.655 -4.41052 -3.02287 0
M  V30 2386 C 225.955 -5.13403 -0.959954 0
M  V30 2387 H 227.649 -2.98138 -0.274596 0
M  V30 2388 H 225.195 -1.43406 -0.130636 0
M  V30 2389 H 227.148 -3.237 -2.69808 0
M  V30 2390 H 225.872 -1.99973 -2.58221 0
M  V30 2391 H 224.531 -3.50566 -1.07232 0
M  V30 2392 H 224.179 -3.56582 -3.54765 0
M  V30 2393 H 223.879 -5.15993 -2.81114 0
M  V30 2394 H 225.403 -4.86146 -3.69451 0
M  V30 2395 H 226.817 -5.52706 -1.52279 0
M  V30 2396 H 225.214 -5.94073 -0.848357 0
M  V30 2397 H 226.284 -4.84875 0.0492434 0
M  V30 2398 N 227.627 0.131896 -1.57047 0
M  V30 2399 C 228.875 0.840269 -1.83804 0
M  V30 2400 C 229.196 1.81017 -0.72512 0
M  V30 2401 O 228.466 1.94272 0.251995 0
M  V30 2402 H 227.046 0.313294 -0.678127 0
M  V30 2403 H 229.708 0.122294 -1.94516 0
M  V30 2404 H 228.804 1.39335 -2.79271 0
M  V30 2405 N 229.106 1.52395 0.401703 0
M  V30 2406 C 230.039 1.70999 1.51111 0
M  V30 2407 C 231.017 0.55765 1.52738 0
M  V30 2408 O 232.201 0.785912 1.71335 0
M  V30 2409 C 229.328 1.75607 2.8962 0
M  V30 2410 C 228.374 2.97227 3.05873 0
M  V30 2411 S 229.207 4.57439 2.78405 0
M  V30 2412 C 230.363 4.64844 4.19131 0
M  V30 2413 H 230.596 2.6483 1.35102 0
M  V30 2414 H 228.129 1.42527 0.593762 0
M  V30 2415 H 230.087 1.78947 3.69443 0
M  V30 2416 H 228.748 0.828914 3.02965 0
M  V30 2417 H 227.941 2.96955 4.07227 0
M  V30 2418 H 227.543 2.91813 2.33925 0
M  V30 2419 H 229.835 4.42677 5.12877 0
M  V30 2420 H 230.778 5.66807 4.24424 0
M  V30 2421 H 231.186 3.93804 4.04448 0
M  V30 2422 N 230.584 -0.659388 1.43143 0
M  V30 2423 C 231.532 -1.79374 1.4808 0
M  V30 2424 C 232.526 -1.65639 0.354988 0
M  V30 2425 O 233.732 -1.7206 0.528704 0
M  V30 2426 H 230.107 -0.591705 0.4641 0
M  V30 2427 H 232.078 -1.72329 2.43609 0
M  V30 2428 C 230.827 -3.17606 1.41499 0
M  V30 2429 H 230.15 -3.28809 2.27431 0
M  V30 2430 H 231.59 -3.96951 1.49015 0
M  V30 2431 C 230.049 -3.36642 0.131765 0
M  V30 2432 O 230.579 -3.93461 -0.809386 0
M  V30 2433 N 228.785 -2.90567 0.0439396 0
M  V30 2434 H 228.332 -2.44513 0.810619 0
M  V30 2435 H 228.29 -3.03681 -0.813969 0
M  V30 2436 N 232.062 -1.29571 -0.897171 0
M  V30 2437 C 233.01 -1.14802 -2.02295 0
M  V30 2438 C 234.004 -0.0629637 -1.69283 0
M  V30 2439 O 235.21 -0.222945 -1.78614 0
M  V30 2440 H 231.585 -0.354692 -0.663097 0
M  V30 2441 H 233.556 -2.10108 -2.11889 0
M  V30 2442 C 232.305 -0.843966 -3.37302 0
M  V30 2443 H 231.628 -1.67093 -3.63208 0
M  V30 2444 H 233.068 -0.780672 -4.16751 0
M  V30 2445 C 231.527 0.452843 -3.33843 0
M  V30 2446 O 232.057 1.47813 -3.73516 0
M  V30 2447 N 230.263 0.459601 -2.86943 0
M  V30 2448 H 229.81 -0.375213 -2.54853 0
M  V30 2449 H 229.768 1.32726 -2.85011 0
M  V30 2450 N 233.54 1.10788 -1.12088 0
M  V30 2451 C 234.768 1.86461 -0.896651 0
M  V30 2452 C 235.183 1.80492 0.553912 0
M  V30 2453 O 234.54 1.19102 1.38278 0
M  V30 2454 C 234.591 3.35006 -1.35843 0
M  V30 2455 O 234.312 3.40866 -2.75213 0
M  V30 2456 C 235.813 4.27565 -1.1706 0
M  V30 2457 H 233.033 0.589425 -0.320654 0
M  V30 2458 H 235.577 1.40076 -1.48993 0
M  V30 2459 H 233.732 3.7887 -0.808458 0
M  V30 2460 H 234.146 4.33411 -2.9539 0
M  V30 2461 H 235.62 5.30007 -1.54263 0
M  V30 2462 H 236.097 4.3906 -0.110814 0
M  V30 2463 H 236.703 3.89501 -1.70789 0
M  V30 2464 N 235.018 0.912232 1.28515 0
M  V30 2465 C 236.434 0.610159 1.47476 0
M  V30 2466 C 236.634 -0.844955 1.82928 0
M  V30 2467 O 235.69 -1.62416 1.93332 0
M  V30 2468 C 237.003 1.54675 2.57868 0
M  V30 2469 C 238.551 1.55331 2.71738 0
M  V30 2470 C 239.026 2.47649 3.85272 0
M  V30 2471 N 240.517 2.45767 3.92623 0
M  V30 2472 C 241.252 3.13896 4.79851 0
M  V30 2473 N 240.748 3.9135 5.71679 0
M  V30 2474 N 242.541 3.02991 4.73448 0
M  V30 2475 H 234.692 1.85318 1.03783 0
M  V30 2476 H 236.955 0.794777 0.516753 0
M  V30 2477 H 236.661 2.5841 2.38574 0
M  V30 2478 H 236.535 1.27671 3.54937 0
M  V30 2479 H 238.922 0.52335 2.90422 0
M  V30 2480 H 239.003 1.86378 1.75205 0
M  V30 2481 H 238.647 3.50745 3.67342 0
M  V30 2482 H 238.577 2.13904 4.81199 0
M  V30 2483 H 241.068 1.89503 3.26951 0
M  V30 2484 H 241.381 4.40359 6.35062 0
M  V30 2485 H 239.726 3.95455 5.71524 0
M  V30 2486 H 242.917 2.41987 4.007 0
M  V30 2487 H 243.09 3.5636 5.41213 0
M  V30 2488 N 236.496 -1.42363 0.676048 0
M  V30 2489 C 237.743 -2.01522 0.19883 0
M  V30 2490 C 238.071 -1.53456 -1.19505 0
M  V30 2491 O 237.326 -0.727967 -1.81657 0
M  V30 2492 C 237.625 -3.56929 0.183431 0
M  V30 2493 C 237.291 -4.24431 1.52215 0
M  V30 2494 C 235.953 -4.42585 1.8887 0
M  V30 2495 C 238.305 -4.62459 2.40377 0
M  V30 2496 C 235.633 -4.96039 3.13309 0
M  V30 2497 C 237.985 -5.17294 3.64129 0
M  V30 2498 C 236.649 -5.33661 4.00951 0
M  V30 2499 H 235.919 -0.737419 0.0727571 0
M  V30 2500 H 238.566 -1.70531 0.871281 0
M  V30 2501 H 236.871 -3.87594 -0.572532 0
M  V30 2502 H 238.568 -4.00486 -0.203035 0
M  V30 2503 H 235.158 -4.10661 1.22701 0
M  V30 2504 H 239.342 -4.48105 2.13343 0
M  V30 2505 H 234.598 -5.06896 3.41857 0
M  V30 2506 H 238.772 -5.45704 4.32644 0
M  V30 2507 H 236.399 -5.74845 4.9745 0
M  V30 2508 N 237.974 -0.419461 -1.51915 0
M  V30 2509 C 239.22 0.153166 -2.02221 0
M  V30 2510 C 239.553 1.43907 -1.30401 0
M  V30 2511 O 238.828 1.90055 -0.413438 0
M  V30 2512 C 239.111 0.390291 -3.57979 0
M  V30 2513 C 238.964 -0.913014 -4.40436 0
M  V30 2514 C 240.283 1.16794 -4.2432 0
M  V30 2515 H 237.402 0.0541924 -0.735005 0
M  V30 2516 H 240.044 -0.554955 -1.81715 0
M  V30 2517 H 238.194 0.993491 -3.75582 0
M  V30 2518 H 239.866 -1.54882 -4.34522 0
M  V30 2519 H 238.109 -1.52168 -4.06236 0
M  V30 2520 H 238.78 -0.701361 -5.47526 0
M  V30 2521 H 241.256 0.657161 -4.10878 0
M  V30 2522 H 240.132 1.3026 -5.3322 0
M  V30 2523 H 240.393 2.19132 -3.83971 0
M  V30 2524 N 239.452 1.56882 -0.150215 0
M  V30 2525 C 240.362 2.20494 0.801222 0
M  V30 2526 C 241.378 1.19019 1.26927 0
M  V30 2527 O 242.554 1.51607 1.32579 0
M  V30 2528 C 239.619 2.81659 2.02161 0
M  V30 2529 C 238.68 3.9827 1.60249 0
M  V30 2530 C 237.913 4.56508 2.7647 0
M  V30 2531 O 238.136 4.13627 3.92771 0
M  V30 2532 O 237.07 5.46719 2.51757 0
M  V30 2533 H 240.896 3.02315 0.289717 0
M  V30 2534 H 238.481 1.49202 0.0769684 0
M  V30 2535 H 240.363 3.20522 2.73576 0
M  V30 2536 H 239.038 2.02849 2.52258 0
M  V30 2537 H 237.945 3.64117 0.858477 0
M  V30 2538 H 239.278 4.78609 1.14864 0
M  V30 2539 N 240.93 -0.123565 1.57115 0
M  V30 2540 C 242.341 -0.681198 1.73829 0
M  V30 2541 C 242.692 -1.80535 0.768214 0
M  V30 2542 O 241.817 -2.16317 -0.0599103 0
M  V30 2543 C 242.412 -1.24246 3.15196 0
M  V30 2544 C 240.971 -1.74643 3.33432 0
M  V30 2545 C 240.118 -0.644284 2.69711 0
M  V30 2546 H 243.069 0.102315 1.5837 0
M  V30 2547 H 243.09 -2.11216 3.16493 0
M  V30 2548 H 242.602 -0.424062 3.85776 0
M  V30 2549 H 240.703 -2.58974 2.67886 0
M  V30 2550 H 240.816 -1.85902 4.41562 0
M  V30 2551 H 239.18 -1.07676 2.3082 0
M  V30 2552 H 239.963 0.163058 3.42913 0
M  V30 2553 N 242.408 -1.52605 -0.393616 0
M  V30 2554 C 243.636 -1.71294 -1.16043 0
M  V30 2555 C 244.051 -0.429259 -1.83855 0
M  V30 2556 O 243.408 0.595921 -1.72496 0
M  V30 2557 C 243.459 -2.8593 -2.21193 0
M  V30 2558 O 243.18 -4.09329 -1.56146 0
M  V30 2559 C 244.681 -3.16259 -3.10636 0
M  V30 2560 H 241.901 -0.573641 -0.348104 0
M  V30 2561 H 244.445 -1.99234 -0.461092 0
M  V30 2562 H 242.6 -2.60465 -2.86769 0
M  V30 2563 H 243.014 -4.73323 -2.25978 0
M  V30 2564 H 244.488 -3.99946 -3.80456 0
M  V30 2565 H 244.965 -2.3045 -3.73884 0
M  V30 2566 H 245.571 -3.43547 -2.50711 0
M  V30 2567 N 243.887 0.651787 -1.4349 0
M  V30 2568 C 245.135 1.40888 -1.44897 0
M  V30 2569 C 245.456 1.94856 -0.0749086 0
M  V30 2570 O 244.726 1.74518 0.889956 0
M  V30 2571 H 243.306 0.522887 -0.533478 0
M  V30 2572 H 245.968 0.768609 -1.79104 0
M  V30 2573 H 245.064 2.25052 -2.16236 0
M  V30 2574 N 245.365 1.30045 0.890287 0
M  V30 2575 C 246.295 1.18541 2.01172 0
M  V30 2576 C 247.276 0.0773356 1.69924 0
M  V30 2577 O 248.461 0.25845 1.92473 0
M  V30 2578 C 245.591 0.870941 3.36202 0
M  V30 2579 C 244.545 1.93637 3.81692 0
M  V30 2580 C 243.871 1.475 5.13953 0
M  V30 2581 C 245.171 3.34666 4.00994 0
M  V30 2582 H 246.865 2.12359 2.11054 0
M  V30 2583 H 244.411 1.02238 1.01407 0
M  V30 2584 H 246.364 0.777141 4.14172 0
M  V30 2585 H 245.088 -0.102926 3.26438 0
M  V30 2586 H 243.747 2.01972 3.05946 0
M  V30 2587 H 243.395 0.489551 5.00612 0
M  V30 2588 H 243.095 2.1876 5.4536 0
M  V30 2589 H 244.619 1.39489 5.94454 0
M  V30 2590 H 246.033 3.2912 4.69417 0
M  V30 2591 H 244.43 4.03966 4.43769 0
M  V30 2592 H 245.5 3.76949 3.05021 0
M  V30 2593 N 246.843 -1.10192 1.12674 0
M  V30 2594 C 248.068 -1.86523 0.906853 0
M  V30 2595 C 248.493 -1.80221 -0.538711 0
M  V30 2596 O 247.851 -1.17396 -1.38158 0
M  V30 2597 C 247.899 -3.32758 1.3894 0
M  V30 2598 O 247.003 -4.08449 0.5695 0
M  V30 2599 H 246.344 -0.578678 0.325619 0
M  V30 2600 H 248.874 -1.39203 1.49946 0
M  V30 2601 H 248.884 -3.83608 1.38958 0
M  V30 2602 H 247.559 -3.36661 2.44197 0
M  V30 2603 H 246.136 -3.67427 0.636528 0
M  V30 2604 N 248.321 -0.919034 -1.28029 0
M  V30 2605 C 249.567 -0.555757 -1.95036 0
M  V30 2606 C 249.9 0.899198 -1.72128 0
M  V30 2607 O 249.175 1.64023 -1.04531 0
M  V30 2608 C 249.458 -0.872024 -3.49382 0
M  V30 2609 C 249.311 -2.3801 -3.81669 0
M  V30 2610 C 250.63 -0.37185 -4.38526 0
M  V30 2611 H 247.749 -0.203386 -0.708381 0
M  V30 2612 H 250.391 -1.14924 -1.51303 0
M  V30 2613 H 248.541 -0.366946 -3.86763 0
M  V30 2614 H 250.213 -2.9562 -3.54128 0
M  V30 2615 H 248.456 -2.83289 -3.28526 0
M  V30 2616 H 249.127 -2.55192 -4.8947 0
M  V30 2617 H 251.603 -0.804602 -4.08247 0
M  V30 2618 H 250.479 -0.622173 -5.45362 0
M  V30 2619 H 250.74 0.727934 -4.36066 0
M  V30 2620 N 249.799 1.42003 -0.683588 0
M  V30 2621 C 250.749 2.27997 0.0121992 0
M  V30 2622 C 251.733 1.4156 0.764822 0
M  V30 2623 O 252.925 1.64935 0.642287 0
M  V30 2624 C 250.054 3.29706 0.956482 0
M  V30 2625 C 249.14 4.23625 0.200739 0
M  V30 2626 N 249.531 4.99448 -0.799087 0
M  V30 2627 C 247.829 4.43845 0.437937 0
M  V30 2628 C 248.53 5.68102 -1.25041 0
M  V30 2629 N 247.506 5.40511 -0.578648 0
M  V30 2630 H 251.308 2.84048 -0.754564 0
M  V30 2631 H 248.822 1.54071 -0.513398 0
M  V30 2632 H 250.819 3.90124 1.47 0
M  V30 2633 H 249.479 2.75216 1.72297 0
M  V30 2634 H 250.49 5.04303 -1.17893 0
M  V30 2635 H 247.167 4.00382 1.18325 0
M  V30 2636 H 248.557 6.38913 -2.07942 0
M  V30 2637 N 251.277 0.427512 1.51691 0
M  V30 2638 C 252.225 -0.403359 2.29076 0
M  V30 2639 C 253.219 -1.02962 1.34518 0
M  V30 2640 O 254.425 -0.965715 1.51901 0
M  V30 2641 H 250.8 -0.148879 0.737115 0
M  V30 2642 H 252.771 0.270295 2.97173 0
M  V30 2643 C 251.52 -1.49763 3.13794 0
M  V30 2644 H 250.843 -1.02508 3.86435 0
M  V30 2645 H 252.283 -2.05244 3.71014 0
M  V30 2646 C 250.742 -2.47536 2.28533 0
M  V30 2647 O 251.272 -3.51848 1.93819 0
M  V30 2648 N 249.478 -2.18187 1.91945 0
M  V30 2649 H 249.025 -1.33389 2.20375 0
M  V30 2650 H 248.983 -2.83848 1.35195 0
M  V30 2651 N 252.755 -1.56801 0.158532 0
M  V30 2652 C 254.001 -1.96781 -0.490405 0
M  V30 2653 C 254.334 -1.04397 -1.63753 0
M  V30 2654 O 253.609 -0.0885805 -1.94298 0
M  V30 2655 C 253.892 -3.4635 -0.985594 0
M  V30 2656 C 253.745 -4.49512 0.160824 0
M  V30 2657 C 255.064 -3.98697 -1.86355 0
M  V30 2658 H 252.183 -0.715482 -0.176788 0
M  V30 2659 H 254.825 -1.88451 0.242088 0
M  V30 2660 H 252.975 -3.53579 -1.60978 0
M  V30 2661 H 254.647 -4.54353 0.797537 0
M  V30 2662 H 252.89 -4.26013 0.818256 0
M  V30 2663 H 253.561 -5.51531 -0.227569 0
M  V30 2664 H 256.037 -3.94019 -1.33746 0
M  V30 2665 H 254.913 -5.03792 -2.17909 0
M  V30 2666 H 255.174 -3.41744 -2.8047 0
M  V30 2667 N 254.233 0.115231 -1.57178 0
M  V30 2668 C 255.458 0.840354 -1.89612 0
M  V30 2669 C 255.883 1.72464 -0.750845 0
M  V30 2670 O 255.241 1.78826 0.298478 0
M  V30 2671 C 255.289 1.64654 -3.20814 0
M  V30 2672 O 254.393 2.7538 -3.06985 0
M  V30 2673 H 253.734 0.232158 -0.622092 0
M  V30 2674 H 256.264 0.0964977 -2.04372 0
M  V30 2675 H 256.274 2.03499 -3.53627 0
M  V30 2676 H 254.949 0.997416 -4.03763 0
M  V30 2677 H 253.526 2.3971 -2.85646 0
M  V30 2678 N 255.711 1.52812 0.385517 0
M  V30 2679 C 256.939 1.71907 1.15133 0
M  V30 2680 C 257.354 0.439004 1.83625 0
M  V30 2681 O 256.711 -0.586765 1.7281 0
M  V30 2682 C 256.762 2.87099 2.19673 0
M  V30 2683 O 256.483 4.10151 1.53973 0
M  V30 2684 C 257.984 3.17902 3.08955 0
M  V30 2685 H 255.204 0.575479 0.345057 0
M  V30 2686 H 257.748 1.99476 0.45052 0
M  V30 2687 H 255.903 2.61982 2.85384 0
M  V30 2688 H 256.317 4.74514 2.23465 0
M  V30 2689 H 257.791 4.01959 3.7833 0
M  V30 2690 H 258.268 2.3243 3.72657 0
M  V30 2691 H 258.874 3.44871 2.48885 0
M  V30 2692 N 257.189 -0.644168 1.43834 0
M  V30 2693 C 258.152 -1.73857 1.49353 0
M  V30 2694 C 259.152 -1.56315 0.377112 0
M  V30 2695 O 260.342 -1.62048 0.639226 0
M  V30 2696 C 257.474 -3.12819 1.35488 0
M  V30 2697 H 258.667 -1.70342 2.46827 0
M  V30 2698 H 256.22 -0.856652 1.30733 0
M  V30 2699 H 256.955 -3.2194 0.390569 0
M  V30 2700 H 256.74 -3.26958 2.16428 0
M  V30 2701 H 258.23 -3.92606 1.42302 0
M  V30 2702 N 258.668 -1.30515 -0.883378 0
M  V30 2703 C 260.084 -1.08881 -1.16692 0
M  V30 2704 C 260.284 0.149409 -2.00945 0
M  V30 2705 O 259.34 0.84257 -2.38027 0
M  V30 2706 C 260.653 -2.35319 -1.87204 0
M  V30 2707 C 262.201 -2.40799 -1.99962 0
M  V30 2708 C 262.676 -3.67083 -2.73887 0
M  V30 2709 N 264.167 -3.679 -2.81432 0
M  V30 2710 C 264.902 -4.62303 -3.3921 0
M  V30 2711 N 264.398 -5.67052 -3.98025 0
M  V30 2712 N 266.191 -4.49845 -3.3704 0
M  V30 2713 H 258.342 -2.09951 -0.321633 0
M  V30 2714 H 260.605 -0.92556 -0.205043 0
M  V30 2715 H 260.311 -3.25689 -1.3274 0
M  V30 2716 H 260.185 -2.44089 -2.87577 0
M  V30 2717 H 262.572 -1.50907 -2.53597 0
M  V30 2718 H 262.653 -2.36003 -0.98673 0
M  V30 2719 H 262.297 -4.57334 -2.20925 0
M  V30 2720 H 262.227 -3.69141 -3.75556 0
M  V30 2721 H 264.718 -2.92171 -2.39676 0
M  V30 2722 H 265.031 -6.35184 -4.40183 0
M  V30 2723 H 263.376 -5.70842 -3.96439 0
M  V30 2724 H 266.567 -3.67194 -2.90321 0
M  V30 2725 H 266.74 -5.23597 -3.81772 0
M  V30 2726 N 260.146 1.09593 -1.13257 0
M  V30 2727 C 261.423 1.78293 -0.804432 0
M  V30 2728 C 261.803 1.99004 0.70431 0
M  V30 2729 O 261.151 1.59007 1.641 0
M  V30 2730 C 261.361 3.10707 -1.5894 0
M  V30 2731 C 262.709 3.85443 -1.78099 0
M  V30 2732 O 263.733 3.20454 -1.55525 0
M  V30 2733 O 262.592 5.02108 -2.15753 0
M  V30 2734 H 259.686 0.773156 -0.293528 0
M  V30 2735 H 262.232 1.16164 -1.23709 0
M  V30 2736 H 261.004 2.91106 -2.61482 0
M  V30 2737 H 260.627 3.80558 -1.15157 0
M  V30 2738 N 261.624 0.925811 1.2754 0
M  V30 2739 C 262.554 0.440748 2.29303 0
M  V30 2740 C 263.535 -0.497971 1.62648 0
M  V30 2741 O 264.72 -0.403126 1.8997 0
M  V30 2742 C 261.85 -0.309048 3.45922 0
M  V30 2743 C 260.804 0.54166 4.24559 0
M  V30 2744 C 260.13 -0.337191 5.33636 0
M  V30 2745 C 261.43 1.80516 4.90114 0
M  V30 2746 H 263.124 1.29121 2.70126 0
M  V30 2747 H 260.67 0.622323 1.29858 0
M  V30 2748 H 262.623 -0.659315 4.1621 0
M  V30 2749 H 261.347 -1.19352 3.04011 0
M  V30 2750 H 260.006 0.874609 3.56014 0
M  V30 2751 H 259.654 -1.22056 4.87966 0
M  V30 2752 H 259.354 0.228497 5.87156 0
M  V30 2753 H 260.878 -0.683072 6.06767 0
M  V30 2754 H 262.292 1.52307 5.52698 0
M  V30 2755 H 260.689 2.3142 5.53683 0
M  V30 2756 H 261.759 2.52581 4.13921 0
M  V30 2757 N 263.102 -1.41638 0.69111 0
M  V30 2758 C 264.33 -2.05628 0.22909 0
M  V30 2759 C 264.745 -1.51992 -1.11999 0
M  V30 2760 O 264.102 -0.666322 -1.69901 0
M  V30 2761 C 264.153 -3.61084 0.173283 0
M  V30 2762 O 263.874 -4.12735 1.46907 0
M  V30 2763 C 265.375 -4.42213 -0.310266 0
M  V30 2764 H 262.595 -0.662327 0.107534 0
M  V30 2765 H 265.139 -1.81489 0.942438 0
M  V30 2766 H 263.294 -3.84278 -0.490858 0
M  V30 2767 H 263.708 -5.06743 1.35322 0
M  V30 2768 H 265.182 -5.51194 -0.298196 0
M  V30 2769 H 265.659 -4.1799 -1.34838 0
M  V30 2770 H 266.265 -4.24074 0.322716 0
M  V30 2771 N 264.58 -0.43555 -1.51462 0
M  V30 2772 C 265.527 0.376797 -2.27703 0
M  V30 2773 C 266.497 1.01838 -1.31219 0
M  V30 2774 O 267.682 1.03762 -1.60119 0
M  V30 2775 C 264.822 1.47301 -3.12084 0
M  V30 2776 C 263.935 0.849744 -4.2356 0
M  V30 2777 C 263.07 1.92086 -4.95254 0
M  V30 2778 C 262.109 1.27593 -5.98654 0
M  V30 2779 N 261.246 2.28833 -6.63762 0
M  V30 2780 H 266.086 -0.279734 -2.96684 0
M  V30 2781 H 263.623 -0.149795 -1.46335 0
M  V30 2782 H 265.581 2.11984 -3.59331 0
M  V30 2783 H 264.211 2.0992 -2.45221 0
M  V30 2784 H 263.263 0.0912529 -3.80291 0
M  V30 2785 H 264.575 0.338878 -4.97648 0
M  V30 2786 H 263.729 2.64435 -5.46039 0
M  V30 2787 H 262.468 2.46545 -4.20793 0
M  V30 2788 H 261.473 0.537893 -5.47162 0
M  V30 2789 H 262.698 0.738693 -6.7507 0
M  V30 2790 H 260.644 2.82375 -5.92115 0
M  V30 2791 H 260.561 1.82632 -7.33608 0
M  V30 2792 H 261.829 3.00671 -7.19178 0
M  V30 2793 N 266.058 1.56714 -0.166846 0
M  V30 2794 C 266.988 2.20754 0.760913 0
M  V30 2795 C 267.969 1.16178 1.24244 0
M  V30 2796 O 269.154 1.44592 1.29641 0
M  V30 2797 C 266.284 2.84478 1.99223 0
M  V30 2798 C 265.238 3.95053 1.64672 0
M  V30 2799 C 264.564 4.45805 2.95232 0
M  V30 2800 C 265.864 5.14865 0.878155 0
M  V30 2801 H 267.558 2.98537 0.22713 0
M  V30 2802 H 265.104 1.43596 0.107805 0
M  V30 2803 H 267.057 3.27951 2.64624 0
M  V30 2804 H 265.781 2.04056 2.55007 0
M  V30 2805 H 264.44 3.52228 1.01641 0
M  V30 2806 H 264.088 3.62181 3.49047 0
M  V30 2807 H 263.788 5.204 2.7287 0
M  V30 2808 H 265.312 4.91962 3.6167 0
M  V30 2809 H 266.726 5.55059 1.43466 0
M  V30 2810 H 265.123 5.95348 0.753738 0
M  V30 2811 H 266.193 4.84735 -0.126377 0
M  V30 2812 N 267.536 -0.106894 1.57237 0
M  V30 2813 C 268.466 -1.13148 2.04254 0
M  V30 2814 C 269.447 -1.42476 0.929224 0
M  V30 2815 O 270.632 -1.52709 1.19973 0
M  V30 2816 C 267.762 -2.4545 2.45706 0
M  V30 2817 C 266.716 -2.30558 3.60592 0
M  V30 2818 C 266.042 -3.67931 3.87983 0
M  V30 2819 C 267.342 -1.75597 4.91897 0
M  V30 2820 H 269.036 -0.740374 2.90101 0
M  V30 2821 H 266.582 -0.354696 1.39563 0
M  V30 2822 H 268.535 -3.17389 2.77205 0
M  V30 2823 H 267.259 -2.86475 1.56843 0
M  V30 2824 H 265.918 -1.61067 3.29322 0
M  V30 2825 H 265.566 -4.06462 2.96306 0
M  V30 2826 H 265.266 -3.58817 4.65322 0
M  V30 2827 H 266.79 -4.41356 4.21945 0
M  V30 2828 H 268.204 -2.37364 5.21854 0
M  V30 2829 H 266.601 -1.77272 5.73319 0
M  V30 2830 H 267.671 -0.714451 4.79608 0
M  V30 2831 N 269.014 -1.53014 -0.377408 0
M  V30 2832 C 270.263 -1.67845 -1.11853 0
M  V30 2833 C 270.576 -0.430625 -1.90801 0
M  V30 2834 O 271.782 -0.459261 -2.67587 0
M  V30 2835 C 270.238 -2.96668 -2.03756 0
M  V30 2836 C 269.846 -4.28671 -1.30175 0
M  V30 2837 C 271.59 -3.20865 -2.77932 0
M  V30 2838 C 269.497 -5.48591 -2.20911 0
M  V30 2839 H 268.427 -0.625343 -0.421263 0
M  V30 2840 H 271.078 -1.79514 -0.380409 0
M  V30 2841 H 269.46 -2.78773 -2.8125 0
M  V30 2842 H 270.634 -4.57157 -0.578259 0
M  V30 2843 H 268.949 -4.10825 -0.679108 0
M  V30 2844 H 271.546 -4.07642 -3.46024 0
M  V30 2845 H 271.889 -2.36424 -3.4265 0
M  V30 2846 H 272.422 -3.39379 -2.07525 0
M  V30 2847 H 269.161 -6.35474 -1.6079 0
M  V30 2848 H 268.681 -5.244 -2.91144 0
M  V30 2849 H 270.36 -5.8292 -2.80736 0
M  V30 2850 N 270.492 0.636531 -1.44174 0
M  V30 2851 C 271.455 1.73063 -1.50273 0
M  V30 2852 C 272.455 1.56113 -0.385397 0
M  V30 2853 O 273.645 1.61707 -0.64781 0
M  V30 2854 C 270.777 3.12096 -1.37145 0
M  V30 2855 H 271.97 1.69031 -2.47727 0
M  V30 2856 H 269.523 0.849706 -1.31186 0
M  V30 2857 H 270.258 3.21728 -0.407636 0
M  V30 2858 H 270.043 3.25805 -2.18159 0
M  V30 2859 H 271.533 3.91846 -1.44382 0
M  V30 2860 N 271.97 1.30982 0.876444 0
M  V30 2861 C 273.195 1.23373 1.66715 0
M  V30 2862 C 273.62 -0.19885 1.87046 0
M  V30 2863 O 272.978 -1.1427 1.40756 0
M  V30 2864 C 273.026 1.97644 3.01611 0
M  V30 2865 O 272.13 1.30935 3.91062 0
M  V30 2866 H 271.471 0.426279 0.509099 0
M  V30 2867 H 274.001 1.72944 1.09323 0
M  V30 2868 H 274.011 2.06992 3.51594 0
M  V30 2869 H 272.686 3.01829 2.86133 0
M  V30 2870 H 271.263 1.29996 3.49507 0
M  V30 2871 N 273.449 -1.08991 1.13837 0
M  V30 2872 C 274.396 -2.15748 0.819835 0
M  V30 2873 C 275.366 -1.64636 -0.220026 0
M  V30 2874 O 276.551 -1.90582 -0.0912757 0
M  V30 2875 C 273.691 -3.4382 0.296913 0
M  V30 2876 C 272.804 -4.0881 1.39636 0
M  V30 2877 C 271.939 -5.24655 0.831314 0
M  V30 2878 C 270.978 -5.81575 1.90886 0
M  V30 2879 N 270.115 -6.88774 1.36142 0
M  V30 2880 H 274.955 -2.42338 1.73426 0
M  V30 2881 H 272.492 -1.18935 0.865613 0
M  V30 2882 H 274.45 -4.17193 -0.0244339 0
M  V30 2883 H 273.08 -3.17535 -0.580628 0
M  V30 2884 H 272.132 -3.33258 1.83422 0
M  V30 2885 H 273.444 -4.47141 2.21058 0
M  V30 2886 H 272.598 -6.04942 0.461515 0
M  V30 2887 H 271.337 -4.87698 -0.013932 0
M  V30 2888 H 270.342 -4.99946 2.28767 0
M  V30 2889 H 271.567 -6.20592 2.75758 0
M  V30 2890 H 269.513 -6.53788 0.538254 0
M  V30 2891 H 269.43 -7.25898 2.11208 0
M  V30 2892 H 270.698 -7.72806 1.01933 0
M  V30 2893 N 274.927 -0.932562 -1.27047 0
M  V30 2894 C 275.859 -0.392734 -2.2581 0
M  V30 2895 C 276.872 0.479241 -1.55586 0
M  V30 2896 O 278.061 0.291078 -1.76111 0
M  V30 2897 C 275.161 0.455456 -3.35826 0
M  V30 2898 C 274.334 -0.398355 -4.35582 0
M  V30 2899 C 273.393 0.387985 -5.24768 0
M  V30 2900 O 272.419 -0.206003 -5.68827 0
M  V30 2901 N 273.621 1.68664 -5.55457 0
M  V30 2902 H 276.386 -1.24173 -2.72766 0
M  V30 2903 H 273.947 -0.800511 -1.40725 0
M  V30 2904 H 275.939 0.988692 -3.92437 0
M  V30 2905 H 274.509 1.20522 -2.88432 0
M  V30 2906 H 273.729 -1.11286 -3.78165 0
M  V30 2907 H 275.017 -0.981889 -4.99236 0
M  V30 2908 H 274.415 2.19147 -5.21528 0
M  V30 2909 H 272.972 2.1663 -6.14748 0
M  V30 2910 N 276.405 1.4127 -0.698611 0
M  V30 2911 C 277.635 2.05205 -0.239644 0
M  V30 2912 C 278.043 1.52684 1.11733 0
M  V30 2913 O 277.386 0.671222 1.70998 0
M  V30 2914 C 277.448 3.59289 -0.123126 0
M  V30 2915 C 277.112 4.34619 -1.41263 0
M  V30 2916 C 278.109 4.63701 -2.35111 0
M  V30 2917 C 275.794 4.73837 -1.66684 0
M  V30 2918 C 277.788 5.30966 -3.52639 0
M  V30 2919 C 275.475 5.40837 -2.84498 0
M  V30 2920 C 276.473 5.69329 -3.77298 0
M  V30 2921 O 276.161 6.34949 -4.93047 0
M  V30 2922 H 275.893 0.66723 -0.108537 0
M  V30 2923 H 278.447 1.81974 -0.952602 0
M  V30 2924 H 276.677 3.81272 0.645628 0
M  V30 2925 H 278.366 4.04797 0.299056 0
M  V30 2926 H 279.132 4.33882 -2.16729 0
M  V30 2927 H 275.011 4.51039 -0.953135 0
M  V30 2928 H 278.555 5.53121 -4.25091 0
M  V30 2929 H 274.452 5.70075 -3.02795 0
M  V30 2930 H 275.22 6.53445 -4.92902 0
M  V30 2931 N 277.883 0.443576 1.51229 0
M  V30 2932 C 279.294 -0.0180867 1.86691 0
M  V30 2933 C 279.645 -1.41384 1.36033 0
M  V30 2934 O 278.77 -2.04291 0.713722 0
M  V30 2935 C 279.365 -0.039597 3.38777 0
M  V30 2936 C 277.924 -0.445692 3.73752 0
M  V30 2937 C 277.071 0.357584 2.74985 0
M  V30 2938 H 280.022 0.659138 1.44364 0
M  V30 2939 H 280.043 -0.847761 3.70936 0
M  V30 2940 H 279.555 0.976382 3.75617 0
M  V30 2941 H 277.656 -1.46704 3.42503 0
M  V30 2942 H 277.769 -0.166155 4.78812 0
M  V30 2943 H 276.133 -0.184973 2.54027 0
M  V30 2944 H 276.916 1.37256 3.14668 0
M  V30 2945 N 279.361 -1.56624 0.175154 0
M  V30 2946 C 280.291 -2.21155 -0.749195 0
M  V30 2947 C 281.272 -1.16836 -1.23626 0
M  V30 2948 O 282.457 -1.45277 -1.28873 0
M  V30 2949 C 279.587 -2.8553 -1.97711 0
M  V30 2950 C 278.541 -3.95921 -1.62575 0
M  V30 2951 C 277.867 -4.47365 -2.92864 0
M  V30 2952 C 279.167 -5.15323 -0.850838 0
M  V30 2953 H 280.861 -2.98653 -0.211295 0
M  V30 2954 H 278.407 -1.43651 -0.100188 0
M  V30 2955 H 280.36 -3.2935 -2.62881 0
M  V30 2956 H 279.084 -2.05406 -2.53921 0
M  V30 2957 H 277.743 -3.52762 -0.997719 0
M  V30 2958 H 277.391 -3.64027 -3.47122 0
M  V30 2959 H 277.091 -5.21839 -2.70106 0
M  V30 2960 H 278.615 -4.93873 -3.59056 0
M  V30 2961 H 280.029 -5.55812 -1.40521 0
M  V30 2962 H 278.426 -5.95739 -0.722154 0
M  V30 2963 H 279.496 -4.84661 0.152082 0
M  V30 2964 N 280.839 0.0985539 -1.57292 0
M  V30 2965 C 282.088 0.801358 -1.85098 0
M  V30 2966 C 282.401 1.80066 -0.763902 0
M  V30 2967 O 283.607 2.55112 -0.928981 0
M  V30 2968 C 282.063 1.47599 -3.28242 0
M  V30 2969 C 281.671 0.516624 -4.45011 0
M  V30 2970 C 283.415 2.16272 -3.65276 0
M  V30 2971 C 281.322 1.19564 -5.79188 0
M  V30 2972 H 280.252 0.303022 -0.69043 0
M  V30 2973 H 282.903 0.0542623 -1.8342 0
M  V30 2974 H 281.285 2.27042 -3.2445 0
M  V30 2975 H 282.459 -0.246065 -4.60143 0
M  V30 2976 H 280.774 -0.064227 -4.1635 0
M  V30 2977 H 283.371 2.67802 -4.62803 0
M  V30 2978 H 283.714 2.95009 -2.93727 0
M  V30 2979 H 284.247 1.43693 -3.70941 0
M  V30 2980 H 280.986 0.449157 -6.53959 0
M  V30 2981 H 280.506 1.92984 -5.67906 0
M  V30 2982 H 282.185 1.7231 -6.23633 0
M  V30 2983 N 282.317 1.53212 0.369288 0
M  V30 2984 C 283.565 1.68881 1.11012 0
M  V30 2985 C 283.886 0.441285 1.89941 0
M  V30 2986 O 283.156 -0.544623 1.88177 0
M  V30 2987 H 281.736 0.622569 0.412816 0
M  V30 2988 H 284.398 1.90391 0.416802 0
M  V30 2989 H 283.494 2.54822 1.80201 0
M  V30 2990 N 283.795 -0.628877 1.44509 0
M  V30 2991 C 284.727 -1.754 1.47538 0
M  V30 2992 C 285.74 -1.58575 0.368506 0
M  V30 2993 O 286.929 -1.66847 0.634376 0
M  V30 2994 C 284.029 -3.1315 1.29577 0
M  V30 2995 C 283.202 -3.56413 2.53551 0
M  V30 2996 C 282.261 -4.7305 2.30457 0
M  V30 2997 O 281.287 -4.81247 3.03957 0
M  V30 2998 N 282.489 -5.64903 1.3366 0
M  V30 2999 H 285.254 -1.73272 2.44534 0
M  V30 3000 H 282.815 -0.813512 1.39977 0
M  V30 3001 H 284.807 -3.88902 1.11971 0
M  V30 3002 H 283.377 -3.09908 0.409371 0
M  V30 3003 H 282.597 -2.70847 2.86419 0
M  V30 3004 H 283.885 -3.82071 3.36005 0
M  V30 3005 H 283.283 -5.60975 0.729604 0
M  V30 3006 H 281.84 -6.40275 1.22032 0
M  V30 3007 N 285.273 -1.31445 -0.869486 0
M  V30 3008 C 286.203 -1.21727 -1.99261 0
M  V30 3009 C 287.184 -0.104359 -1.6978 0
M  V30 3010 O 288.369 -0.289038 -1.92037 0
M  V30 3011 C 285.499 -0.924317 -3.34774 0
M  V30 3012 C 284.453 -1.99685 -3.78563 0
M  V30 3013 C 283.779 -1.55658 -5.11541 0
M  V30 3014 C 285.079 -3.41003 -3.95619 0
M  V30 3015 H 286.773 -2.1569 -2.07649 0
M  V30 3016 H 284.319 -1.03839 -0.997675 0
M  V30 3017 H 286.272 -0.842934 -4.12883 0
M  V30 3018 H 284.996 0.0509793 -3.2656 0
M  V30 3019 H 283.655 -2.06813 -3.02694 0
M  V30 3020 H 283.303 -0.569132 -4.9977 0
M  V30 3021 H 283.003 -2.27409 -5.41811 0
M  V30 3022 H 284.527 -1.48928 -5.92159 0
M  V30 3023 H 285.941 -3.36547 -4.64122 0
M  V30 3024 H 284.338 -4.10975 -4.37286 0
M  V30 3025 H 285.408 -3.81754 -2.98985 0
M  V30 3026 N 286.751 1.08385 -1.14413 0
M  V30 3027 C 287.976 1.85057 -0.936413 0
M  V30 3028 C 288.401 1.81055 0.509971 0
M  V30 3029 O 287.759 1.1958 1.36273 0
M  V30 3030 C 287.807 3.30505 -1.44217 0
M  V30 3031 O 286.911 4.07491 -0.634409 0
M  V30 3032 H 286.252 0.573425 -0.334784 0
M  V30 3033 H 288.782 1.36799 -1.52142 0
M  V30 3034 H 288.792 3.81348 -1.45043 0
M  V30 3035 H 287.467 3.32734 -2.49522 0
M  V30 3036 H 286.044 3.66368 -0.694902 0
M  V30 3037 N 288.23 0.939286 1.26551 0
M  V30 3038 C 289.458 0.602536 1.97932 0
M  V30 3039 C 289.873 -0.82206 1.69964 0
M  V30 3040 O 289.23 -1.54789 0.966784 0
M  V30 3041 C 289.281 0.832946 3.51773 0
M  V30 3042 O 289.002 2.20151 3.78768 0
M  V30 3043 C 290.503 0.506483 4.40397 0
M  V30 3044 H 287.723 0.227248 0.631347 0
M  V30 3045 H 290.267 1.25948 1.61113 0
M  V30 3046 H 288.422 0.222644 3.8676 0
M  V30 3047 H 288.836 2.26013 4.73306 0
M  V30 3048 H 290.31 0.718333 5.47306 0
M  V30 3049 H 290.787 -0.558451 4.35635 0
M  V30 3050 H 291.393 1.09543 4.10951 0
M  V30 3051 N 289.708 -1.40897 0.706093 0
M  V30 3052 C 290.936 -2.05373 0.250887 0
M  V30 3053 C 291.351 -1.53172 -1.10381 0
M  V30 3054 O 290.708 -0.684305 -1.69185 0
M  V30 3055 C 290.759 -3.6088 0.211571 0
M  V30 3056 O 290.48 -4.11153 1.51276 0
M  V30 3057 C 291.981 -4.42517 -0.263346 0
M  V30 3058 H 289.201 -0.66115 0.114552 0
M  V30 3059 H 291.745 -1.80479 0.961635 0
M  V30 3060 H 289.9 -3.84777 -0.450073 0
M  V30 3061 H 290.314 -5.05279 1.40689 0
M  V30 3062 H 291.788 -5.51479 -0.239718 0
M  V30 3063 H 292.265 -4.19396 -1.30397 0
M  V30 3064 H 292.871 -4.23708 0.367677 0
M  V30 3065 N 291.186 -0.45159 -1.50991 0
M  V30 3066 C 292.602 -0.104647 -1.59257 0
M  V30 3067 C 292.802 1.38728 -1.4614 0
M  V30 3068 O 291.858 2.15866 -1.30989 0
M  V30 3069 C 293.171 -0.637468 -2.93865 0
M  V30 3070 C 294.719 -0.599166 -3.07212 0
M  V30 3071 C 295.194 -1.1092 -4.44366 0
M  V30 3072 N 296.685 -1.06778 -4.50725 0
M  V30 3073 C 297.42 -1.43314 -5.55201 0
M  V30 3074 N 296.916 -1.87204 -6.67028 0
M  V30 3075 N 298.709 -1.3504 -5.45638 0
M  V30 3076 H 290.86 -1.42214 -1.57762 0
M  V30 3077 H 293.123 -0.586921 -0.744465 0
M  V30 3078 H 292.829 -1.68187 -3.08879 0
M  V30 3079 H 292.703 -0.0702139 -3.77135 0
M  V30 3080 H 295.09 0.436277 -2.91857 0
M  V30 3081 H 295.171 -1.20299 -2.25747 0
M  V30 3082 H 294.815 -2.14318 -4.60467 0
M  V30 3083 H 294.745 -0.481773 -5.24392 0
M  V30 3084 H 297.236 -0.745643 -3.70471 0
M  V30 3085 H 297.549 -2.13282 -7.42786 0
M  V30 3086 H 295.894 -1.91142 -6.68199 0
M  V30 3087 H 299.085 -1.00607 -4.57161 0
M  V30 3088 H 299.258 -1.63841 -6.26945 0
M  V30 3089 N 292.664 1.56529 -0.183458 0
M  V30 3090 C 293.574 2.22144 0.754272 0
M  V30 3091 C 294.59 1.21684 1.24374 0
M  V30 3092 O 295.766 1.54385 1.29333 0
M  V30 3093 C 292.831 2.85884 1.96141 0
M  V30 3094 C 291.892 4.01579 1.51765 0
M  V30 3095 C 291.125 4.6227 2.66725 0
M  V30 3096 O 291.348 4.21865 3.83909 0
M  V30 3097 O 290.282 5.51936 2.40104 0
M  V30 3098 H 294.108 3.02861 0.225527 0
M  V30 3099 H 291.693 1.49331 0.0453032 0
M  V30 3100 H 293.575 3.26253 2.66715 0
M  V30 3101 H 292.25 2.08154 2.47899 0
M  V30 3102 H 291.157 3.65856 0.781049 0
M  V30 3103 H 292.49 4.80938 1.04686 0
M  V30 3104 N 294.142 -0.090211 1.57342 0
M  V30 3105 C 295.419 -0.824761 1.77361 0
M  V30 3106 C 295.799 -1.96698 0.76637 0
M  V30 3107 O 295.147 -2.27586 -0.204179 0
M  V30 3108 C 295.357 -1.31481 3.23286 0
M  V30 3109 C 296.705 -1.75563 3.86604 0
M  V30 3110 O 297.729 -1.41093 3.27065 0
M  V30 3111 O 296.588 -2.39317 4.91314 0
M  V30 3112 H 293.682 -0.393776 0.727234 0
M  V30 3113 H 296.228 -0.0717138 1.69548 0
M  V30 3114 H 295 -0.496671 3.88135 0
M  V30 3115 H 294.623 -2.12973 3.35751 0
M  V30 3116 N 295.62 -1.53406 -0.361157 0
M  V30 3117 C 296.553 -1.74946 -1.46524 0
M  V30 3118 C 297.531 -0.59795 -1.51206 0
M  V30 3119 O 298.715 -0.831062 -1.69191 0
M  V30 3120 C 295.842 -1.83224 -2.84863 0
M  V30 3121 C 294.888 -3.05233 -2.97885 0
M  V30 3122 S 295.721 -4.6466 -2.66179 0
M  V30 3123 C 296.877 -4.75793 -4.06659 0
M  V30 3124 H 297.11 -2.68319 -1.28033 0
M  V30 3125 H 294.643 -1.44051 -0.555764 0
M  V30 3126 H 296.601 -1.88679 -3.64569 0
M  V30 3127 H 295.262 -0.908948 -3.00661 0
M  V30 3128 H 294.455 -3.07648 -3.9921 0
M  V30 3129 H 294.057 -2.97913 -2.26106 0
M  V30 3130 H 296.349 -4.5612 -5.0096 0
M  V30 3131 H 297.292 -5.7786 -4.09247 0
M  V30 3132 H 297.7 -4.04389 -3.93865 0
M  V30 3133 N 297.098 0.621204 -1.44841 0
M  V30 3134 C 298.061 1.71459 -1.521 0
M  V30 3135 C 299.061 1.55696 -0.401933 0
M  V30 3136 O 300.251 1.61011 -0.664925 0
M  V30 3137 C 297.383 3.10624 -1.40447 0
M  V30 3138 H 298.576 1.66394 -2.49506 0
M  V30 3139 H 296.129 0.835745 -1.3208 0
M  V30 3140 H 296.864 3.21277 -0.441737 0
M  V30 3141 H 296.649 3.23473 -2.21602 0
M  V30 3142 H 298.139 3.90293 -1.4853 0
M  V30 3143 N 298.576 1.31904 0.862503 0
M  V30 3144 C 299.804 1.24998 1.64873 0
M  V30 3145 C 300.219 -0.183425 1.87907 0
M  V30 3146 O 299.576 -1.11794 1.44251 0
M  V30 3147 C 299.627 1.99829 3.01248 0
M  V30 3148 O 299.348 3.37575 2.79239 0
M  V30 3149 C 300.849 1.99852 3.95694 0
M  V30 3150 H 298.069 0.431599 0.513773 0
M  V30 3151 H 300.613 1.73901 1.07604 0
M  V30 3152 H 298.768 1.54668 3.55185 0
M  V30 3153 H 299.182 3.75776 3.65914 0
M  V30 3154 H 300.656 2.56709 4.88676 0
M  V30 3155 H 301.133 0.982852 4.28062 0
M  V30 3156 H 301.739 2.44926 3.47694 0
M  V30 3157 N 300.054 -1.07777 1.14986 0
M  V30 3158 C 301.301 -1.8029 0.922056 0
M  V30 3159 C 301.629 -1.86531 -0.55105 0
M  V30 3160 O 300.884 -1.34189 -1.42449 0
M  V30 3161 C 301.183 -3.25495 1.47608 0
M  V30 3162 C 300.849 -3.39361 2.96893 0
M  V30 3163 C 299.511 -3.42852 3.37647 0
M  V30 3164 C 301.863 -3.42512 3.92854 0
M  V30 3165 C 299.191 -3.47094 4.73015 0
M  V30 3166 C 301.543 -3.4829 5.28088 0
M  V30 3167 C 300.207 -3.50058 5.68345 0
M  V30 3168 H 299.477 -0.659727 0.337404 0
M  V30 3169 H 302.124 -1.26854 1.43459 0
M  V30 3170 H 300.429 -3.81683 0.88463 0
M  V30 3171 H 302.126 -3.80168 1.27568 0
M  V30 3172 H 298.716 -3.37339 2.64387 0
M  V30 3173 H 302.9 -3.3904 3.62444 0
M  V30 3174 H 298.156 -3.46758 5.03556 0
M  V30 3175 H 302.33 -3.49675 6.02246 0
M  V30 3176 H 299.957 -3.53097 6.73221 0
M  V30 3177 N 301.532 -0.945985 -1.26051 0
M  V30 3178 C 302.757 -0.612525 -1.98149 0
M  V30 3179 C 303.182 0.806623 -1.69927 0
M  V30 3180 O 302.54 1.54411 -0.950108 0
M  V30 3181 C 302.588 -0.866981 -3.50023 0
M  V30 3182 O 301.692 0.0585333 -4.12358 0
M  V30 3183 H 301.033 -0.23379 -0.621481 0
M  V30 3184 H 303.563 -1.27023 -1.60395 0
M  V30 3185 H 303.573 -0.789792 -4.00283 0
M  V30 3186 H 302.248 -1.90135 -3.69894 0
M  V30 3187 H 300.825 -0.0701241 -3.72834 0
M  V30 3188 N 303.011 1.40521 -0.713556 0
M  V30 3189 C 303.959 2.32549 -0.0485227 0
M  V30 3190 C 304.953 1.51931 0.74922 0
M  V30 3191 O 306.159 1.67745 0.652816 0
M  V30 3192 H 302.534 0.751994 0.00311138 0
M  V30 3193 H 304.505 2.86291 -0.841443 0
M  V30 3194 C 303.254 3.36879 0.860687 0
M  V30 3195 H 302.577 3.98978 0.256246 0
M  V30 3196 H 304.017 4.03772 1.294 0
M  V30 3197 C 302.476 2.72197 1.9852 0
M  V30 3198 O 303.006 2.5837 3.07584 0
M  V30 3199 N 301.212 2.30612 1.76823 0
M  V30 3200 H 300.759 2.42059 0.881217 0
M  V30 3201 H 300.717 1.87672 2.52243 0
M  V30 3202 N 304.489 0.459591 1.5075 0
M  V30 3203 C 305.9 0.00171547 1.867 0
M  V30 3204 C 306.251 -1.39934 1.37525 0
M  V30 3205 O 305.376 -2.03523 0.735349 0
M  V30 3206 C 305.971 -0.00366298 3.388 0
M  V30 3207 C 304.53 -0.406026 3.74204 0
M  V30 3208 C 303.677 0.38673 2.7459 0
M  V30 3209 H 306.628 0.674413 1.43657 0
M  V30 3210 H 306.649 -0.808371 3.71814 0
M  V30 3211 H 306.161 1.01617 3.74561 0
M  V30 3212 H 304.262 -1.43063 3.4404 0
M  V30 3213 H 304.375 -0.115362 4.78961 0
M  V30 3214 H 302.739 -0.158019 2.54209 0
M  V30 3215 H 303.522 1.40585 3.13194 0
M  V30 3216 N 305.967 -1.56429 0.191757 0
M  V30 3217 C 307.195 -2.01867 -0.453586 0
M  V30 3218 C 307.61 -1.07191 -1.5542 0
M  V30 3219 O 306.967 -0.0762108 -1.82341 0
M  V30 3220 C 307.018 -3.47017 -1.013 0
M  V30 3221 O 306.739 -4.38078 0.0437005 0
M  V30 3222 C 308.24 -4.07956 -1.73456 0
M  V30 3223 H 305.46 -0.661211 -0.114199 0
M  V30 3224 H 308.004 -2.02295 0.299483 0
M  V30 3225 H 306.159 -3.47298 -1.71647 0
M  V30 3226 H 306.573 -5.23178 -0.372212 0
M  V30 3227 H 308.047 -5.1138 -2.07833 0
M  V30 3228 H 308.524 -3.51222 -2.63704 0
M  V30 3229 H 309.13 -4.11437 -1.07702 0
M  V30 3230 N 307.445 0.0818655 -1.57387 0
M  V30 3231 C 308.675 0.794954 -1.90694 0
M  V30 3232 C 309.083 1.72147 -0.784982 0
M  V30 3233 O 308.426 1.81974 0.251196 0
M  V30 3234 C 308.488 1.65042 -3.19376 0
M  V30 3235 C 308.152 0.894337 -4.48164 0
M  V30 3236 C 309.149 0.21813 -5.19442 0
M  V30 3237 C 306.834 0.864495 -4.94805 0
M  V30 3238 C 308.828 -0.477802 -6.35607 0
M  V30 3239 C 306.515 0.164785 -6.10878 0
M  V30 3240 C 307.513 -0.505173 -6.81129 0
M  V30 3241 O 307.201 -1.19363 -7.94989 0
M  V30 3242 H 306.933 0.231779 -0.635023 0
M  V30 3243 H 309.487 0.059493 -2.05314 0
M  V30 3244 H 307.717 2.42844 -3.00938 0
M  V30 3245 H 309.406 2.24127 -3.38411 0
M  V30 3246 H 310.172 0.232558 -4.84442 0
M  V30 3247 H 306.051 1.37542 -4.40004 0
M  V30 3248 H 309.595 -1.00129 -6.90377 0
M  V30 3249 H 305.492 0.148249 -6.4533 0
M  V30 3250 H 306.26 -1.10188 -8.11049 0
M  V30 3251 N 308.923 1.53595 0.353017 0
M  V30 3252 C 310.151 1.74311 1.1146 0
M  V30 3253 C 310.566 0.477854 1.82653 0
M  V30 3254 O 309.923 -0.549977 1.74016 0
M  V30 3255 C 309.974 2.91694 2.13534 0
M  V30 3256 O 309.695 4.13325 1.45238 0
M  V30 3257 C 311.196 3.24384 3.02142 0
M  V30 3258 H 308.416 0.582669 0.332773 0
M  V30 3259 H 310.96 2.00386 0.408107 0
M  V30 3260 H 309.115 2.67977 2.79763 0
M  V30 3261 H 309.529 4.79148 2.13349 0
M  V30 3262 H 311.003 4.09893 3.69718 0
M  V30 3263 H 311.48 2.40282 3.67643 0
M  V30 3264 H 312.086 3.50073 2.41514 0
M  V30 3265 N 310.401 -0.613514 1.45168 0
M  V30 3266 C 311.331 -1.7354 1.56225 0
M  V30 3267 C 312.312 -1.64981 0.41414 0
M  V30 3268 O 313.497 -1.83472 0.636526 0
M  V30 3269 C 310.627 -3.12128 1.52295 0
M  V30 3270 C 309.581 -3.35491 2.65762 0
M  V30 3271 C 308.907 -4.74291 2.46885 0
M  V30 3272 C 310.207 -3.26325 4.0781 0
M  V30 3273 H 311.901 -1.64543 2.50132 0
M  V30 3274 H 309.447 -0.790185 1.20383 0
M  V30 3275 H 311.4 -3.90404 1.58628 0
M  V30 3276 H 310.124 -3.2195 0.549139 0
M  V30 3277 H 308.783 -2.59603 2.58847 0
M  V30 3278 H 308.431 -4.80839 1.47657 0
M  V30 3279 H 308.131 -4.9088 3.22972 0
M  V30 3280 H 309.655 -5.54775 2.55063 0
M  V30 3281 H 311.069 -3.94483 4.16 0
M  V30 3282 H 309.466 -3.54445 4.8424 0
M  V30 3283 H 310.536 -2.23855 4.30136 0
M  V30 3284 N 311.879 -1.3236 -0.855495 0
M  V30 3285 C 313.29 -1.2056 -1.42556 0
M  V30 3286 C 313.641 0.182209 -1.95352 0
M  V30 3287 O 312.766 1.08088 -1.87472 0
M  V30 3288 C 313.361 -2.1826 -2.59129 0
M  V30 3289 C 311.92 -2.10351 -3.12137 0
M  V30 3290 C 311.067 -2.06674 -1.84882 0
M  V30 3291 H 314.018 -1.442 -0.662727 0
M  V30 3292 H 314.039 -1.78064 -3.36264 0
M  V30 3293 H 313.551 -3.19257 -2.20673 0
M  V30 3294 H 311.652 -1.12599 -3.55179 0
M  V30 3295 H 311.765 -3.00135 -3.73438 0
M  V30 3296 H 310.129 -1.51901 -2.04446 0
M  V30 3297 H 310.912 -3.09451 -1.48643 0
M  V30 3298 N 313.357 1.07166 -1.15556 0
M  V30 3299 C 314.604 1.79798 -0.931604 0
M  V30 3300 C 314.932 1.8682 0.54115 0
M  V30 3301 O 314.187 1.34942 1.41736 0
M  V30 3302 C 314.486 3.24707 -1.49332 0
M  V30 3303 C 314.152 3.37781 -2.98688 0
M  V30 3304 C 312.814 3.41057 -3.39461 0
M  V30 3305 C 315.166 3.40424 -3.94665 0
M  V30 3306 C 312.494 3.4458 -4.74849 0
M  V30 3307 C 314.846 3.45485 -5.29927 0
M  V30 3308 C 313.51 3.47039 -5.70193 0
M  V30 3309 H 312.78 0.657928 -0.340898 0
M  V30 3310 H 315.427 1.26091 -1.44129 0
M  V30 3311 H 313.732 3.81208 -0.904859 0
M  V30 3312 H 315.429 3.79486 -1.29582 0
M  V30 3313 H 312.019 3.35932 -2.66172 0
M  V30 3314 H 316.203 3.37113 -3.64237 0
M  V30 3315 H 311.459 3.44083 -5.05388 0
M  V30 3316 H 315.633 3.46476 -6.04092 0
M  V30 3317 H 313.26 3.49522 -6.75084 0
M  V30 3318 N 314.835 0.952656 1.25548 0
M  V30 3319 C 316.251 0.656769 1.4546 0
M  V30 3320 C 316.451 -0.78633 1.85524 0
M  V30 3321 O 315.507 -1.56183 1.98402 0
M  V30 3322 C 316.82 1.62801 2.52817 0
M  V30 3323 C 318.368 1.63897 2.66659 0
M  V30 3324 C 318.843 2.5978 3.77198 0
M  V30 3325 N 320.334 2.58133 3.84606 0
M  V30 3326 C 321.069 3.29003 4.69621 0
M  V30 3327 N 320.565 4.09339 5.58939 0
M  V30 3328 N 322.358 3.179 4.63569 0
M  V30 3329 H 314.509 1.88526 0.978344 0
M  V30 3330 H 316.772 0.810815 0.491206 0
M  V30 3331 H 316.478 2.65869 2.30232 0
M  V30 3332 H 316.352 1.38898 3.50695 0
M  V30 3333 H 318.739 0.615481 2.8861 0
M  V30 3334 H 318.82 1.91858 1.69187 0
M  V30 3335 H 318.464 3.62254 3.55997 0
M  V30 3336 H 318.394 2.29105 4.7415 0
M  V30 3337 H 320.885 1.99809 3.20757 0
M  V30 3338 H 321.198 4.6034 6.20731 0
M  V30 3339 H 319.543 4.13438 5.58654 0
M  V30 3340 H 322.734 2.54612 3.92798 0
M  V30 3341 H 322.907 3.73398 5.29602 0
M  V30 3342 N 316.313 -1.40141 0.720998 0
M  V30 3343 C 317.261 -2.3252 0.0608547 0
M  V30 3344 C 318.255 -1.52326 -0.741152 0
M  V30 3345 O 319.461 -1.68089 -0.643911 0
M  V30 3346 H 315.836 -0.751999 0.000876664 0
M  V30 3347 H 317.807 -2.8584 0.856614 0
M  V30 3348 C 316.556 -3.37331 -0.842809 0
M  V30 3349 H 315.879 -3.99108 -0.235084 0
M  V30 3350 H 317.319 -4.04452 -1.27257 0
M  V30 3351 C 315.778 -2.73246 -1.97074 0
M  V30 3352 O 316.308 -2.59998 -3.06209 0
M  V30 3353 N 314.514 -2.31547 -1.75597 0
M  V30 3354 H 314.061 -2.42522 -0.868368 0
M  V30 3355 H 314.019 -1.89007 -2.51244 0
M  V30 3356 N 317.792 -0.46758 -1.50504 0
M  V30 3357 C 319.02 0.0864133 -2.06719 0
M  V30 3358 C 319.435 1.33819 -1.33184 0
M  V30 3359 O 318.792 1.78061 -0.400083 0
M  V30 3360 C 318.843 0.378079 -3.59517 0
M  V30 3361 O 318.564 -0.824044 -4.3028 0
M  V30 3362 C 320.065 0.979426 -4.32345 0
M  V30 3363 H 317.285 -0.00551697 -0.670977 0
M  V30 3364 H 319.829 -0.655354 -1.93715 0
M  V30 3365 H 317.984 1.06977 -3.72337 0
M  V30 3366 H 318.398 -0.566518 -5.21432 0
M  V30 3367 H 319.872 1.1333 -5.40241 0
M  V30 3368 H 320.349 1.9686 -3.9261 0
M  V30 3369 H 320.955 0.326216 -4.24047 0
M  V30 3370 N 319.27 1.56325 -0.20005 0
M  V30 3371 C 320.218 2.20666 0.735482 0
M  V30 3372 C 321.212 1.17934 1.21605 0
M  V30 3373 O 322.418 1.36068 1.17837 0
M  V30 3374 H 318.793 0.70725 0.255542 0
M  V30 3375 H 320.764 2.9792 0.169166 0
M  V30 3376 C 319.513 2.88391 1.94232 0
M  V30 3377 H 318.836 3.67185 1.58161 0
M  V30 3378 H 320.276 3.3684 2.57517 0
M  V30 3379 C 318.735 1.89692 2.78421 0
M  V30 3380 O 319.265 1.40032 3.76502 0
M  V30 3381 N 317.471 1.57813 2.44015 0
M  V30 3382 H 317.018 1.9839 1.64314 0
M  V30 3383 H 316.976 0.920325 3.00628 0
M  V30 3384 N 320.748 -0.0735177 1.57428 0
M  V30 3385 C 321.698 -1.09442 2.00016 0
M  V30 3386 C 322.682 -1.34575 0.881947 0
M  V30 3387 O 323.874 -1.34905 1.14585 0
M  V30 3388 C 321.003 -2.40865 2.4462 0
M  V30 3389 C 320.089 -2.19014 3.63172 0
M  V30 3390 N 320.48 -1.67087 4.77405 0
M  V30 3391 C 318.778 -2.49494 3.69688 0
M  V30 3392 C 319.479 -1.6001 5.5926 0
M  V30 3393 N 318.455 -2.05999 5.03056 0
M  V30 3394 H 322.257 -0.686227 2.85776 0
M  V30 3395 H 319.771 -0.280617 1.59957 0
M  V30 3396 H 321.768 -3.14763 2.73368 0
M  V30 3397 H 320.428 -2.82403 1.60246 0
M  V30 3398 H 321.439 -1.35975 4.99731 0
M  V30 3399 H 318.116 -2.94409 2.96023 0
M  V30 3400 H 319.506 -1.2073 6.60964 0
M  V30 3401 N 322.226 -1.5378 -0.344866 0
M  V30 3402 C 323.156 -1.84662 -1.42906 0
M  V30 3403 C 324.137 -0.701648 -1.54955 0
M  V30 3404 O 325.322 -0.953438 -1.69184 0
M  V30 3405 C 322.452 -2.05503 -2.79974 0
M  V30 3406 C 321.406 -3.21318 -2.82734 0
M  V30 3407 C 320.732 -3.2749 -4.22675 0
M  V30 3408 C 322.032 -4.59456 -2.48389 0
M  V30 3409 H 323.726 -2.75461 -1.17311 0
M  V30 3410 H 321.272 -1.32542 -0.562896 0
M  V30 3411 H 323.225 -2.25691 -3.55867 0
M  V30 3412 H 321.949 -1.11434 -3.07002 0
M  V30 3413 H 320.608 -3.00984 -2.09294 0
M  V30 3414 H 320.256 -2.31019 -4.4681 0
M  V30 3415 H 319.956 -4.05316 -4.25433 0
M  V30 3416 H 321.48 -3.49887 -5.00412 0
M  V30 3417 H 322.894 -4.79667 -3.13995 0
M  V30 3418 H 321.291 -5.39675 -2.62432 0
M  V30 3419 H 322.361 -4.63155 -1.4358 0
M  V30 3420 N 323.704 0.605807 -1.45491 0
M  V30 3421 C 324.95 1.36679 -1.49823 0
M  V30 3422 C 325.283 1.93693 -0.140175 0
M  V30 3423 O 324.558 1.75158 0.845581 0
M  V30 3424 C 324.841 2.51337 -2.57879 0
M  V30 3425 C 324.694 1.99508 -4.03134 0
M  V30 3426 C 326.013 3.53463 -2.62205 0
M  V30 3427 H 323.132 0.495617 -0.545466 0
M  V30 3428 H 325.774 0.682732 -1.7731 0
M  V30 3429 H 323.924 3.09691 -2.34571 0
M  V30 3430 H 325.596 1.45789 -4.37656 0
M  V30 3431 H 323.839 1.30496 -4.13707 0
M  V30 3432 H 324.51 2.82169 -4.74431 0
M  V30 3433 H 326.986 3.04953 -2.83095 0
M  V30 3434 H 325.862 4.31178 -3.39672 0
M  V30 3435 H 326.123 4.09197 -1.67363 0
M  V30 3436 N 325.182 1.32811 0.848464 0
M  V30 3437 C 326.412 1.26556 1.63301 0
M  V30 3438 C 326.82 -0.1676 1.88456 0
M  V30 3439 O 326.163 -1.11713 1.45828 0
M  V30 3440 C 326.225 1.96202 3.01239 0
M  V30 3441 C 325.889 3.45528 2.99098 0
M  V30 3442 C 326.886 4.40903 2.75501 0
M  V30 3443 C 324.571 3.87558 3.19537 0
M  V30 3444 C 326.565 5.76282 2.72356 0
M  V30 3445 C 324.252 5.23044 3.16019 0
M  V30 3446 C 325.25 6.17217 2.92458 0
M  V30 3447 O 324.938 7.50223 2.88825 0
M  V30 3448 H 324.67 0.43771 0.515156 0
M  V30 3449 H 327.224 1.7559 1.0657 0
M  V30 3450 H 325.454 1.41746 3.59785 0
M  V30 3451 H 327.143 1.83573 3.62016 0
M  V30 3452 H 327.909 4.09756 2.5947 0
M  V30 3453 H 323.788 3.14674 3.369 0
M  V30 3454 H 327.332 6.4976 2.53886 0
M  V30 3455 H 323.229 5.53818 3.31596 0
M  V30 3456 H 323.997 7.59657 3.04735 0
M  V30 3457 N 326.66 -1.06551 1.16123 0
M  V30 3458 C 328.076 -1.3142 0.905585 0
M  V30 3459 C 328.276 -1.96571 -0.442964 0
M  V30 3460 O 327.332 -2.23068 -1.18308 0
M  V30 3461 C 328.645 -2.19741 2.05267 0
M  V30 3462 C 330.193 -2.33165 2.08813 0
M  V30 3463 C 330.668 -3.24838 3.22868 0
M  V30 3464 N 332.159 -3.32421 3.22568 0
M  V30 3465 C 332.894 -4.0344 4.0746 0
M  V30 3466 N 332.39 -4.77003 5.02434 0
M  V30 3467 N 334.183 -3.99464 3.95456 0
M  V30 3468 H 326.334 -0.626548 2.02949 0
M  V30 3469 H 328.597 -0.338777 0.8854 0
M  V30 3470 H 328.303 -1.79142 3.02657 0
M  V30 3471 H 328.177 -3.20313 1.99198 0
M  V30 3472 H 330.564 -2.73013 1.12018 0
M  V30 3473 H 330.645 -1.3227 2.18948 0
M  V30 3474 H 330.289 -2.85708 4.19921 0
M  V30 3475 H 330.219 -4.25707 3.0997 0
M  V30 3476 H 332.71 -2.79994 2.53795 0
M  V30 3477 H 333.023 -5.28712 5.63634 0
M  V30 3478 H 331.368 -4.75992 5.06415 0
M  V30 3479 H 334.559 -3.4111 3.20564 0
M  V30 3480 H 334.732 -4.54544 4.61837 0
M  V30 3481 N 328.138 -0.959301 -1.25041 0
M  V30 3482 C 329.415 -0.533805 -1.88175 0
M  V30 3483 C 329.795 0.988994 -1.865 0
M  V30 3484 O 329.143 1.85677 -1.33177 0
M  V30 3485 C 329.353 -1.11575 -3.30684 0
M  V30 3486 C 330.701 -1.19548 -4.07423 0
M  V30 3487 O 331.725 -1.06765 -3.39823 0
M  V30 3488 O 330.584 -1.39656 -5.28354 0
M  V30 3489 H 327.678 -0.176772 -0.807887 0
M  V30 3490 H 330.224 -1.05303 -1.33076 0
M  V30 3491 H 328.996 -2.15884 -3.26358 0
M  V30 3492 H 328.619 -0.580059 -3.93346 0
M  V30 3493 N 329.616 1.39756 -0.72842 0
M  V30 3494 C 330.564 2.32485 -0.0731849 0
M  V30 3495 C 331.558 1.52717 0.733063 0
M  V30 3496 O 332.764 1.68428 0.634988 0
M  V30 3497 H 329.139 0.751984 -0.00486469 0
M  V30 3498 H 331.11 2.85382 -0.871761 0
M  V30 3499 C 329.859 3.37773 0.824908 0
M  V30 3500 H 329.182 3.99227 0.213915 0
M  V30 3501 H 330.622 4.05121 1.25111 0
M  V30 3502 C 329.081 2.74287 1.95622 0
M  V30 3503 O 329.611 2.61618 3.04826 0
M  V30 3504 N 327.817 2.32475 1.74367 0
M  V30 3505 H 327.364 2.4298 0.855494 0
M  V30 3506 H 327.322 1.90337 2.50238 0
M  V30 3507 N 331.094 0.475555 1.50254 0
M  V30 3508 C 332.34 -0.0701075 2.03279 0
M  V30 3509 C 332.695 -1.37007 1.35081 0
M  V30 3510 O 331.988 -1.8577 0.469052 0
M  V30 3511 C 332.182 -0.305114 3.56095 0
M  V30 3512 C 332.011 0.970515 4.39103 0
M  V30 3513 C 330.781 1.51509 4.82051 0
M  V30 3514 C 332.979 1.8671 4.79212 0
M  V30 3515 N 330.961 2.73928 5.49397 0
M  V30 3516 C 332.332 2.93715 5.46014 0
M  V30 3517 C 334.387 1.87695 4.61167 0
M  V30 3518 C 333.09 4.01699 5.96683 0
M  V30 3519 C 335.116 2.94637 5.12779 0
M  V30 3520 C 334.478 4.00361 5.79561 0
M  V30 3521 H 330.577 0.014486 0.781866 0
M  V30 3522 H 333.161 0.644755 1.83714 0
M  V30 3523 H 331.332 -0.989019 3.75597 0
M  V30 3524 H 333.064 -0.845516 3.95769 0
M  V30 3525 H 329.819 1.06367 4.61501 0
M  V30 3526 H 330.243 3.36109 5.87673 0
M  V30 3527 H 334.885 1.07273 4.08965 0
M  V30 3528 H 332.603 4.82934 6.4792 0
M  V30 3529 H 336.189 2.96388 5.00645 0
M  V30 3530 H 335.069 4.81751 6.18778 0
M  V30 3531 N 332.573 -1.56217 0.208337 0
M  V30 3532 C 333.521 -2.21053 -0.723769 0
M  V30 3533 C 334.515 -1.18578 -1.20978 0
M  V30 3534 O 335.721 -1.36691 -1.17114 0
M  V30 3535 H 332.096 -0.708595 -0.251788 0
M  V30 3536 H 334.067 -2.98006 -0.153365 0
M  V30 3537 C 332.816 -2.89417 -1.927 0
M  V30 3538 H 332.139 -3.68019 -1.56212 0
M  V30 3539 H 333.579 -3.38201 -2.55727 0
M  V30 3540 C 332.038 -1.91166 -2.77411 0
M  V30 3541 O 332.568 -1.42026 -3.75754 0
M  V30 3542 N 330.774 -1.59105 -2.43175 0
M  V30 3543 H 330.321 -1.99259 -1.63259 0
M  V30 3544 H 330.279 -0.936255 -3.00136 0
M  V30 3545 N 334.051 0.0651679 -1.57465 0
M  V30 3546 C 335.3 0.761916 -1.86756 0
M  V30 3547 C 335.613 1.78406 -0.801925 0
M  V30 3548 O 336.819 2.53084 -0.982885 0
M  V30 3549 C 335.275 1.40603 -3.31299 0
M  V30 3550 C 334.883 0.422115 -4.46007 0
M  V30 3551 C 336.627 2.08476 -3.69781 0
M  V30 3552 C 334.534 1.07252 -5.81593 0
M  V30 3553 H 333.464 0.288308 -0.696702 0
M  V30 3554 H 336.115 0.015344 -1.83494 0
M  V30 3555 H 334.497 2.20109 -3.29193 0
M  V30 3556 H 335.671 -0.343613 -4.59517 0
M  V30 3557 H 333.986 -0.152527 -4.16121 0
M  V30 3558 H 336.583 2.57925 -4.68379 0
M  V30 3559 H 336.926 2.88712 -2.99919 0
M  V30 3560 H 337.459 1.35792 -3.73905 0
M  V30 3561 H 334.198 0.310342 -6.54765 0
M  V30 3562 H 333.718 1.80895 -5.71872 0
M  V30 3563 H 335.397 1.59043 -6.27148 0
M  V30 3564 N 335.529 1.53961 0.336706 0
M  V30 3565 C 336.461 1.78751 1.4346 0
M  V30 3566 C 337.474 0.669019 1.48418 0
M  V30 3567 O 338.663 0.945884 1.51378 0
M  V30 3568 C 335.763 1.87844 2.82078 0
M  V30 3569 C 334.936 3.17854 3.00479 0
M  V30 3570 C 333.995 3.17816 4.19379 0
M  V30 3571 O 333.021 3.91511 4.13168 0
M  V30 3572 N 334.223 2.40669 5.2826 0
M  V30 3573 H 336.988 2.73493 1.22563 0
M  V30 3574 H 334.549 1.53096 0.526625 0
M  V30 3575 H 336.541 1.85261 3.59806 0
M  V30 3576 H 335.111 1.00257 2.96086 0
M  V30 3577 H 334.331 3.33504 2.10163 0
M  V30 3578 H 335.619 4.03718 3.0966 0
M  V30 3579 H 335.017 1.8036 5.36178 0
M  V30 3580 H 333.574 2.43877 6.04456 0
M  V30 3581 N 337.007 -0.598083 1.45811 0
M  V30 3582 C 337.937 -1.71873 1.58057 0
M  V30 3583 C 338.918 -1.64533 0.431615 0
M  V30 3584 O 340.103 -1.82787 0.65595 0
M  V30 3585 C 337.233 -3.10495 1.55597 0
M  V30 3586 C 336.187 -3.32654 2.69305 0
M  V30 3587 C 335.513 -4.71646 2.51902 0
M  V30 3588 C 336.813 -3.21981 4.11248 0
M  V30 3589 H 338.507 -1.61881 2.51863 0
M  V30 3590 H 336.053 -0.777372 1.21214 0
M  V30 3591 H 338.006 -3.88699 1.6276 0
M  V30 3592 H 336.73 -3.2135 0.583255 0
M  V30 3593 H 335.389 -2.56843 2.61586 0
M  V30 3594 H 335.037 -4.79246 1.52748 0
M  V30 3595 H 334.737 -4.87426 3.2816 0
M  V30 3596 H 336.261 -5.52038 2.60933 0
M  V30 3597 H 337.675 -3.90049 4.20161 0
M  V30 3598 H 336.072 -3.49289 4.87972 0
M  V30 3599 H 337.142 -2.1928 4.32486 0
M  V30 3600 N 338.485 -1.33259 -0.841409 0
M  V30 3601 C 339.713 -1.27605 -1.62864 0
M  V30 3602 C 340.128 0.153507 -1.88175 0
M  V30 3603 O 339.485 1.09485 -1.46011 0
M  V30 3604 C 339.536 -2.04596 -2.98031 0
M  V30 3605 O 339.257 -3.41975 -2.73834 0
M  V30 3606 C 340.758 -2.06122 -3.92465 0
M  V30 3607 H 337.978 -0.439718 -0.506842 0
M  V30 3608 H 340.522 -1.75591 -1.04824 0
M  V30 3609 H 338.677 -1.60299 -3.5268 0
M  V30 3610 H 339.091 -3.81549 -3.59889 0
M  V30 3611 H 340.565 -2.64451 -4.84531 0
M  V30 3612 H 341.042 -1.05083 -4.26444 0
M  V30 3613 H 341.648 -2.50427 -3.43753 0
M  V30 3614 N 339.963 1.05934 -1.16686 0
M  V30 3615 C 340.91 2.13499 -0.876748 0
M  V30 3616 C 341.88 1.65162 0.176299 0
M  V30 3617 O 343.065 1.90757 0.0407143 0
M  V30 3618 C 340.205 3.42912 -0.387967 0
M  V30 3619 C 339.318 4.04964 -1.50426 0
M  V30 3620 C 338.453 5.22266 -0.970125 0
M  V30 3621 C 337.492 5.76309 -2.06238 0
M  V30 3622 N 336.629 6.84922 -1.54356 0
M  V30 3623 H 341.469 2.37654 -1.7979 0
M  V30 3624 H 339.006 1.16598 -0.896843 0
M  V30 3625 H 340.964 4.17111 -0.086186 0
M  V30 3626 H 339.594 3.18963 0.496235 0
M  V30 3627 H 338.646 3.28277 -1.92193 0
M  V30 3628 H 339.958 4.41122 -2.32836 0
M  V30 3629 H 339.112 6.03506 -0.621743 0
M  V30 3630 H 337.851 4.87564 -0.115377 0
M  V30 3631 H 336.856 4.93704 -2.41942 0
M  V30 3632 H 338.081 6.13062 -2.92115 0
M  V30 3633 H 336.027 6.52131 -0.711406 0
M  V30 3634 H 335.944 7.20043 -2.30379 0
M  V30 3635 H 337.212 7.69832 -1.22387 0
M  V30 3636 N 341.441 0.965919 1.2453 0
M  V30 3637 C 342.669 0.644385 1.96609 0
M  V30 3638 C 343.084 -0.785823 1.71669 0
M  V30 3639 O 342.441 -1.52703 0.999399 0
M  V30 3640 C 342.492 0.907375 3.49927 0
M  V30 3641 O 342.213 2.28136 3.74013 0
M  V30 3642 C 343.714 0.599784 4.39224 0
M  V30 3643 H 340.934 0.240588 0.626385 0
M  V30 3644 H 343.478 1.29337 1.58405 0
M  V30 3645 H 341.633 0.304631 3.862 0
M  V30 3646 H 342.047 2.36002 4.68405 0
M  V30 3647 H 343.521 0.834263 5.45659 0
M  V30 3648 H 343.998 -0.465921 4.36722 0
M  V30 3649 H 344.604 1.18235 4.08535 0
M  V30 3650 N 342.919 -1.39368 0.735821 0
M  V30 3651 C 344.167 -2.00101 0.283562 0
M  V30 3652 C 344.488 -1.5868 -1.13338 0
M  V30 3653 O 343.758 -0.835423 -1.77193 0
M  V30 3654 H 342.338 -0.740024 0.101851 0
M  V30 3655 H 345 -1.70404 0.945962 0
M  V30 3656 H 344.096 -3.10323 0.332604 0
M  V30 3657 N 344.397 -0.483516 -1.5 0
M  V30 3658 C 345.644 0.0671597 -2.02389 0
M  V30 3659 C 345.972 1.38597 -1.36459 0
M  V30 3660 O 345.227 1.89634 -0.483458 0
M  V30 3661 C 345.526 0.286226 -3.56252 0
M  V30 3662 C 345.192 -0.952416 -4.40726 0
M  V30 3663 C 343.854 -1.29199 -4.63531 0
M  V30 3664 C 346.206 -1.77655 -4.89988 0
M  V30 3665 C 343.534 -2.45553 -5.32842 0
M  V30 3666 C 345.886 -2.93147 -5.60578 0
M  V30 3667 C 344.55 -3.27505 -5.81633 0
M  V30 3668 H 343.82 0.0245755 -0.740592 0
M  V30 3669 H 346.467 -0.640124 -1.80485 0
M  V30 3670 H 344.772 1.07587 -3.76739 0
M  V30 3671 H 346.469 0.726473 -3.94365 0
M  V30 3672 H 343.059 -0.677881 -4.23205 0
M  V30 3673 H 347.243 -1.52737 -4.72213 0
M  V30 3674 H 342.499 -2.72431 -5.47349 0
M  V30 3675 H 346.673 -3.57344 -5.97727 0
M  V30 3676 H 344.3 -4.1777 -6.35116 0
M  V30 3677 N 345.875 1.56104 -0.216619 0
M  V30 3678 C 347.103 2.02563 0.421413 0
M  V30 3679 C 347.518 1.0965 1.53695 0
M  V30 3680 O 346.875 0.10521 1.82196 0
M  V30 3681 C 346.926 3.48584 0.957665 0
M  V30 3682 O 346.647 4.37953 -0.113389 0
M  V30 3683 C 348.148 4.10664 1.66943 0
M  V30 3684 H 345.368 0.662944 0.103665 0
M  V30 3685 H 347.912 2.01793 -0.331629 0
M  V30 3686 H 346.067 3.49985 1.661 0
M  V30 3687 H 346.481 5.23704 0.288932 0
M  V30 3688 H 347.955 5.14622 1.99671 0
M  V30 3689 H 348.432 3.55373 2.58083 0
M  V30 3690 H 349.038 4.13098 1.01142 0
M  V30 3691 N 347.353 -0.0568162 1.57498 0
M  V30 3692 C 348.301 -1.08452 2.05769 0
M  V30 3693 C 349.295 -1.39164 0.965903 0
M  V30 3694 O 350.501 -1.38395 1.15095 0
M  V30 3695 H 346.876 -0.367148 0.656282 0
M  V30 3696 H 348.847 -0.651368 2.91204 0
M  V30 3697 C 347.596 -2.38543 2.52968 0
M  V30 3698 H 346.919 -2.15765 3.36579 0
M  V30 3699 H 348.359 -3.08863 2.90481 0
M  V30 3700 C 346.818 -3.05562 1.41893 0
M  V30 3701 O 347.348 -3.94262 0.769442 0
M  V30 3702 N 345.554 -2.6643 1.16032 0
M  V30 3703 H 345.101 -1.94387 1.6903 0
M  V30 3704 H 345.059 -3.11593 0.419219 0
M  V30 3705 N 348.832 -1.54138 -0.328536 0
M  V30 3706 C 349.795 -1.82462 -1.38709 0
M  V30 3707 C 350.795 -0.696229 -1.44946 0
M  V30 3708 O 351.985 -0.964535 -1.4506 0
M  V30 3709 C 349.117 -1.98018 -2.77492 0
M  V30 3710 H 350.31 -2.77037 -1.14851 0
M  V30 3711 H 347.863 -1.45779 -0.563751 0
M  V30 3712 H 348.598 -1.05637 -3.06613 0
M  V30 3713 H 348.383 -2.80124 -2.74359 0
M  V30 3714 H 349.873 -2.21396 -3.54081 0
M  V30 3715 N 350.31 0.590341 -1.46126 0
M  V30 3716 C 351.273 1.68194 -1.55703 0
M  V30 3717 C 352.273 1.54808 -0.434868 0
M  V30 3718 O 353.463 1.59564 -0.698928 0
M  V30 3719 C 350.595 3.07575 -1.47005 0
M  V30 3720 H 351.788 1.61064 -2.52979 0
M  V30 3721 H 349.341 0.807541 -1.33823 0
M  V30 3722 H 350.076 3.20268 -0.509785 0
M  V30 3723 H 349.861 3.187 -2.28414 0
M  V30 3724 H 351.351 3.87055 -1.56776 0
M  V30 3725 N 351.788 1.33704 0.83433 0
M  V30 3726 C 353.036 1.25169 1.58673 0
M  V30 3727 C 353.357 -0.18127 1.94156 0
M  V30 3728 O 352.627 -1.11113 1.6134 0
M  V30 3729 H 351.207 0.4603 0.58833 0
M  V30 3730 H 353.869 1.67478 0.996847 0
M  V30 3731 H 352.965 1.84856 2.51465 0
M  V30 3732 N 353.266 -1.05314 1.17247 0
M  V30 3733 C 354.216 -2.11313 0.856196 0
M  V30 3734 C 355.2 -1.60013 -0.168694 0
M  V30 3735 O 356.392 -1.76968 0.0335624 0
M  V30 3736 C 353.521 -3.41301 0.369917 0
M  V30 3737 C 352.607 -3.99401 1.42616 0
M  V30 3738 N 352.998 -4.31481 2.63928 0
M  V30 3739 C 351.296 -4.27126 1.28373 0
M  V30 3740 C 351.997 -4.77799 3.31787 0
M  V30 3741 N 350.973 -4.77843 2.59166 0
M  V30 3742 H 354.775 -2.33976 1.77856 0
M  V30 3743 H 352.289 -1.2295 1.06099 0
M  V30 3744 H 354.286 -4.16713 0.124897 0
M  V30 3745 H 352.946 -3.20072 -0.546253 0
M  V30 3746 H 353.957 -4.21519 3.00902 0
M  V30 3747 H 350.634 -4.15289 0.429111 0
M  V30 3748 H 352.024 -5.11743 4.35395 0
M  V30 3749 N 354.744 -0.972509 -1.24016 0
M  V30 3750 C 355.984 -0.644951 -1.93958 0
M  V30 3751 C 356.348 0.80559 -1.74282 0
M  V30 3752 O 357.549 1.2436 -2.38302 0
M  V30 3753 C 355.82 -1.01521 -3.42678 0
M  V30 3754 S 357.379 -0.802927 -4.31391 0
M  V30 3755 H 354.197 -0.236452 -0.670531 0
M  V30 3756 H 356.799 -1.25048 -1.50277 0
M  V30 3757 H 355.503 -2.06769 -3.54506 0
M  V30 3758 H 355.034 -0.400648 -3.91355 0
M  V30 3759 H 357.049 0.317256 -4.95185 0
M  V30 3760 N 356.222 1.38976 -0.743202 0
M  V30 3761 C 357.152 2.33171 -0.123873 0
M  V30 3762 C 358.133 1.54336 0.71516 0
M  V30 3763 O 359.318 1.82696 0.658467 0
M  V30 3764 C 356.448 3.38474 0.777978 0
M  V30 3765 C 355.402 4.27979 0.0424758 0
M  V30 3766 C 354.728 5.2405 1.06189 0
M  V30 3767 C 356.028 5.10155 -1.1198 0
M  V30 3768 H 357.722 2.85213 -0.910709 0
M  V30 3769 H 355.268 1.37133 -0.439388 0
M  V30 3770 H 357.221 4.03328 1.22084 0
M  V30 3771 H 355.945 2.84891 1.59702 0
M  V30 3772 H 354.604 3.64616 -0.380853 0
M  V30 3773 H 354.252 4.66758 1.87472 0
M  V30 3774 H 353.952 5.84785 0.574485 0
M  V30 3775 H 355.476 5.9178 1.50428 0
M  V30 3776 H 356.89 5.68307 -0.75499 0
M  V30 3777 H 355.287 5.80073 -1.53738 0
M  V30 3778 H 356.357 4.44504 -1.93764 0
M  V30 3779 N 357.7 0.491464 1.49741 0
M  V30 3780 C 358.946 -0.0565092 2.02721 0
M  V30 3781 C 359.279 -1.37522 1.37118 0
M  V30 3782 O 358.554 -1.87866 0.503645 0
M  V30 3783 C 358.837 -0.219051 3.59433 0
M  V30 3784 C 358.69 1.12211 4.35579 0
M  V30 3785 C 360.009 -0.964157 4.29409 0
M  V30 3786 H 357.128 -0.0190627 0.736753 0
M  V30 3787 H 359.77 0.641021 1.7886 0
M  V30 3788 H 357.92 -0.813165 3.79895 0
M  V30 3789 H 359.592 1.75437 4.26637 0
M  V30 3790 H 357.835 1.71377 3.98513 0
M  V30 3791 H 358.506 0.961794 5.43556 0
M  V30 3792 H 360.982 -0.460378 4.13545 0
M  V30 3793 H 359.858 -1.04671 5.38828 0
M  V30 3794 H 360.119 -2.00563 3.93988 0
M  V30 3795 N 359.178 -1.55987 0.224894 0
M  V30 3796 C 360.111 -2.16413 -0.723929 0
M  V30 3797 C 361.089 -1.10952 -1.18863 0
M  V30 3798 O 362.273 -1.39225 -1.27077 0
M  V30 3799 C 359.4 -2.74711 -1.98121 0
M  V30 3800 C 358.446 -3.9303 -1.6562 0
M  V30 3801 S 359.279 -5.29817 -0.778058 0
M  V30 3802 C 360.435 -5.91555 -2.04483 0
M  V30 3803 H 360.668 -2.96555 -0.210347 0
M  V30 3804 H 358.201 -1.54397 0.00955457 0
M  V30 3805 H 360.159 -3.08938 -2.70311 0
M  V30 3806 H 358.82 -1.94555 -2.46591 0
M  V30 3807 H 358.013 -4.32334 -2.59043 0
M  V30 3808 H 357.615 -3.59966 -1.01491 0
M  V30 3809 H 359.907 -6.07732 -2.99446 0
M  V30 3810 H 360.85 -6.87498 -1.69563 0
M  V30 3811 H 361.258 -5.20419 -2.18688 0
M  V30 3812 N 360.656 0.0484629 -1.57525 0
M  V30 3813 C 362.072 0.40375 -1.54409 0
M  V30 3814 C 362.272 1.77786 -0.948384 0
M  V30 3815 O 361.328 2.46189 -0.560983 0
M  V30 3816 C 362.641 0.323394 -2.98956 0
M  V30 3817 C 364.189 0.401892 -3.10409 0
M  V30 3818 C 364.664 0.351195 -4.56652 0
M  V30 3819 N 366.155 0.410576 -4.61377 0
M  V30 3820 C 366.89 0.393933 -5.72045 0
M  V30 3821 N 366.386 0.330724 -6.9201 0
M  V30 3822 N 368.179 0.442227 -5.60358 0
M  V30 3823 H 360.33 -0.851016 -1.94606 0
M  V30 3824 H 362.593 -0.321721 -0.89174 0
M  V30 3825 H 362.299 -0.62011 -3.4619 0
M  V30 3826 H 362.173 1.12463 -3.60044 0
M  V30 3827 H 364.56 1.33582 -2.63134 0
M  V30 3828 H 364.641 -0.428342 -2.52188 0
M  V30 3829 H 364.285 -0.578987 -5.04589 0
M  V30 3830 H 364.215 1.19928 -5.12762 0
M  V30 3831 H 366.706 0.462729 -3.75056 0
M  V30 3832 H 367.019 0.322592 -7.72126 0
M  V30 3833 H 365.364 0.29706 -6.94365 0
M  V30 3834 H 368.555 0.489464 -4.65534 0
M  V30 3835 H 368.728 0.425788 -6.466 0
M  V30 3836 N 362.134 1.5431 0.320358 0
M  V30 3837 C 363.362 1.76636 1.07738 0
M  V30 3838 C 363.777 0.51649 1.81598 0
M  V30 3839 O 363.134 -0.512942 1.75143 0
M  V30 3840 C 363.185 2.96158 2.07299 0
M  V30 3841 O 362.906 4.16313 1.36438 0
M  V30 3842 C 364.407 3.3072 2.95193 0
M  V30 3843 H 361.627 0.589597 0.320339 0
M  V30 3844 H 364.171 2.01207 0.36551 0
M  V30 3845 H 362.326 2.73851 2.74016 0
M  V30 3846 H 362.74 4.83565 2.03138 0
M  V30 3847 H 364.214 4.17643 3.60941 0
M  V30 3848 H 364.691 2.48026 3.62463 0
M  V30 3849 H 365.297 3.55117 2.34034 0
M  V30 3850 N 363.613 -0.582584 1.46437 0
M  V30 3851 C 364.859 -1.34278 1.51978 0
M  V30 3852 C 365.192 -1.93446 0.170973 0
M  V30 3853 O 364.467 -1.76481 -0.817608 0
M  V30 3854 C 364.75 -2.47203 2.61845 0
M  V30 3855 C 364.603 -1.93069 4.06257 0
M  V30 3856 C 365.922 -3.49247 2.67795 0
M  V30 3857 H 363.041 -0.486876 0.553282 0
M  V30 3858 H 365.683 -0.654437 1.78374 0
M  V30 3859 H 363.833 -3.0592 2.39469 0
M  V30 3860 H 365.505 -1.38808 4.3992 0
M  V30 3861 H 363.748 -1.23898 4.1573 0
M  V30 3862 H 364.419 -2.74586 4.7886 0
M  V30 3863 H 366.895 -3.00411 2.8791 0
M  V30 3864 H 365.771 -4.25719 3.46489 0
M  V30 3865 H 366.032 -4.06482 1.73852 0
M  V30 3866 N 365.091 -1.34144 -0.827227 0
M  V30 3867 C 366.34 -1.25602 -1.5782 0
M  V30 3868 C 366.653 0.173445 -1.94829 0
M  V30 3869 O 367.859 0.380984 -2.68814 0
M  V30 3870 C 366.315 -2.20151 -2.84713 0
M  V30 3871 C 365.923 -3.68331 -2.55021 0
M  V30 3872 C 367.667 -2.20508 -3.62735 0
M  V30 3873 C 365.574 -4.54762 -3.78082 0
M  V30 3874 H 364.504 -0.466573 -0.592306 0
M  V30 3875 H 367.155 -1.59283 -0.911116 0
M  V30 3876 H 365.537 -1.79417 -3.53023 0
M  V30 3877 H 366.711 -4.17577 -1.94849 0
M  V30 3878 H 365.026 -3.7038 -1.90283 0
M  V30 3879 H 367.623 -2.82306 -4.54101 0
M  V30 3880 H 367.966 -1.20322 -3.98533 0
M  V30 3881 H 368.499 -2.59664 -3.01362 0
M  V30 3882 H 365.238 -5.55867 -3.47407 0
M  V30 3883 H 364.758 -4.10254 -4.37552 0
M  V30 3884 H 366.437 -4.69153 -4.45538 0
M  V30 3885 N 366.569 1.04691 -1.17803 0
M  V30 3886 C 367.517 2.14665 -0.895635 0
M  V30 3887 C 368.511 1.68806 0.141679 0
M  V30 3888 O 369.717 1.79999 -0.00587914 0
M  V30 3889 H 366.092 0.701038 -0.272121 0
M  V30 3890 H 368.063 2.35685 -1.83017 0
M  V30 3891 C 366.812 3.45019 -0.430962 0
M  V30 3892 H 366.135 3.8071 -1.22064 0
M  V30 3893 H 367.575 4.23125 -0.272301 0
M  V30 3894 C 366.034 3.25943 0.852207 0
M  V30 3895 O 366.564 3.5296 1.91786 0
M  V30 3896 N 364.77 2.79304 0.802346 0
M  V30 3897 H 364.317 2.57518 -0.0650788 0
M  V30 3898 H 364.275 2.66921 1.66134 0
M  V30 3899 N 368.047 0.979072 1.23499 0
M  V30 3900 C 368.995 0.510604 2.26926 0
M  V30 3901 C 369.989 -0.431691 1.63807 0
M  V30 3902 O 371.195 -0.30573 1.77385 0
M  V30 3903 H 367.57 0.146688 0.737554 0
M  V30 3904 H 369.541 1.39466 2.63803 0
M  V30 3905 C 368.29 -0.172658 3.47271 0
M  V30 3906 H 367.613 0.543331 3.96091 0
M  V30 3907 H 369.053 -0.464101 4.21452 0
M  V30 3908 C 367.512 -1.40345 3.06276 0
M  V30 3909 O 368.042 -2.49978 3.14442 0
M  V30 3910 N 366.248 -1.27362 2.61203 0
M  V30 3911 H 365.795 -0.381584 2.54758 0
M  V30 3912 H 365.753 -2.09822 2.34141 0
M  V30 3913 N 369.525 -1.3858 0.750561 0
M  V30 3914 C 370.472 -2.30483 0.120835 0
M  V30 3915 C 371.442 -1.50022 -0.712923 0
M  V30 3916 O 372.627 -1.78662 -0.669676 0
M  V30 3917 C 369.767 -3.36431 -0.768666 0
M  V30 3918 C 368.88 -4.31927 0.0793922 0
M  V30 3919 C 368.015 -5.24944 -0.81283 0
M  V30 3920 C 367.054 -6.12088 0.0390447 0
M  V30 3921 N 366.191 -6.97412 -0.809969 0
M  V30 3922 H 371.031 -2.83761 0.91015 0
M  V30 3923 H 368.568 -1.39707 0.460463 0
M  V30 3924 H 370.526 -3.96462 -1.29898 0
M  V30 3925 H 369.156 -2.8457 -1.5238 0
M  V30 3926 H 368.208 -3.73382 0.727303 0
M  V30 3927 H 369.52 -4.93319 0.737401 0
M  V30 3928 H 368.674 -5.90078 -1.41042 0
M  V30 3929 H 367.413 -4.63911 -1.50458 0
M  V30 3930 H 366.418 -5.45952 0.649328 0
M  V30 3931 H 367.643 -6.75189 0.727809 0
M  V30 3932 H 365.589 -6.38931 -1.48672 0
M  V30 3933 H 365.506 -7.55712 -0.208789 0
M  V30 3934 H 366.774 -7.66959 -1.39263 0
M  V30 3935 N 371.003 -0.499398 -1.49478 0
M  V30 3936 C 372.414 -0.051215 -1.8663 0
M  V30 3937 C 372.765 1.36238 -1.41186 0
M  V30 3938 O 371.89 2.01502 -0.789051 0
M  V30 3939 C 372.485 -0.0861651 -3.3869 0
M  V30 3940 C 371.044 0.30667 -3.75149 0
M  V30 3941 C 370.191 -0.459397 -2.73468 0
M  V30 3942 H 373.142 -0.712264 -1.41818 0
M  V30 3943 H 373.163 0.709507 -3.73826 0
M  V30 3944 H 372.675 -1.11512 -3.71735 0
M  V30 3945 H 370.776 1.33892 -3.47712 0
M  V30 3946 H 370.889 -0.0116669 -4.79099 0
M  V30 3947 H 369.253 0.0905645 -2.54539 0
M  V30 3948 H 370.036 -1.4884 -3.09357 0
M  V30 3949 N 372.481 1.55866 -0.233164 0
M  V30 3950 C 373.727 1.98897 0.395959 0
M  V30 3951 C 374.06 1.12091 1.58585 0
M  V30 3952 O 373.335 0.181182 1.93654 0
M  V30 3953 C 373.618 3.50658 0.819224 0
M  V30 3954 C 373.471 4.48233 -0.375109 0
M  V30 3955 C 374.79 4.07135 1.67121 0
M  V30 3956 H 371.909 0.723102 0.142451 0
M  V30 3957 H 374.551 1.87082 -0.331725 0
M  V30 3958 H 372.701 3.60857 1.43925 0
M  V30 3959 H 374.373 4.50031 -1.01341 0
M  V30 3960 H 372.616 4.21624 -1.02058 0
M  V30 3961 H 373.287 5.51988 -0.0358328 0
M  V30 3962 H 375.763 3.99952 1.14795 0
M  V30 3963 H 374.639 5.13615 1.93625 0
M  V30 3964 H 374.9 3.54736 2.63846 0
M  V30 3965 N 373.959 -0.0401083 1.57549 0
M  V30 3966 C 374.922 -1.02871 2.04817 0
M  V30 3967 C 375.922 -1.29708 0.950388 0
M  V30 3968 O 377.112 -1.24897 1.21435 0
M  V30 3969 C 374.244 -2.36443 2.45576 0
M  V30 3970 H 375.437 -0.620631 2.93408 0
M  V30 3971 H 372.99 -0.286667 1.53649 0
M  V30 3972 H 373.725 -2.82021 1.60108 0
M  V30 3973 H 373.51 -2.18296 3.25713 0
M  V30 3974 H 375 -3.07441 2.82612 0
M  V30 3975 N 375.437 -1.54477 -0.31217 0
M  V30 3976 C 376.367 -1.87652 -1.38957 0
M  V30 3977 C 377.348 -0.734358 -1.53431 0
M  V30 3978 O 378.533 -0.98911 -1.67123 0
M  V30 3979 C 375.663 -2.11396 -2.75552 0
M  V30 3980 C 374.617 -3.27243 -2.75855 0
M  V30 3981 C 373.943 -3.36382 -4.15633 0
M  V30 3982 C 375.243 -4.64622 -2.38587 0
M  V30 3983 H 376.937 -2.77887 -1.11442 0
M  V30 3984 H 374.483 -1.33707 -0.534655 0
M  V30 3985 H 376.436 -2.33189 -3.51 0
M  V30 3986 H 375.16 -1.17921 -3.04569 0
M  V30 3987 H 373.819 -3.05356 -2.02863 0
M  V30 3988 H 373.467 -2.40445 -4.41809 0
M  V30 3989 H 373.167 -4.14249 -4.1674 0
M  V30 3990 H 374.691 -3.60422 -4.92877 0
M  V30 3991 H 376.105 -4.86219 -3.03749 0
M  V30 3992 H 374.502 -5.45121 -2.50925 0
M  V30 3993 H 375.572 -4.66097 -1.33723 0
M  V30 3994 N 376.915 0.57481 -1.46744 0
M  V30 3995 C 378.161 1.3347 -1.52688 0
M  V30 3996 C 378.494 1.93353 -0.181229 0
M  V30 3997 O 377.769 1.76912 0.808237 0
M  V30 3998 C 378.052 2.45811 -2.63152 0
M  V30 3999 C 377.905 1.90912 -4.07275 0
M  V30 4000 C 379.224 3.47822 -2.69644 0
M  V30 4001 H 376.343 0.483935 -0.555856 0
M  V30 4002 H 378.985 0.644968 -1.78718 0
M  V30 4003 H 377.135 3.04646 -2.41088 0
M  V30 4004 H 378.807 1.36473 -4.4065 0
M  V30 4005 H 377.05 1.21691 -4.16382 0
M  V30 4006 H 377.721 2.72042 -4.80309 0
M  V30 4007 H 380.197 2.9888 -2.895 0
M  V30 4008 H 379.073 4.23876 -3.48742 0
M  V30 4009 H 379.334 4.05555 -1.76005 0
M  V30 4010 N 378.394 1.34581 0.820102 0
M  V30 4011 C 379.64 1.27285 1.57881 0
M  V30 4012 C 379.973 -0.156137 1.93571 0
M  V30 4013 O 379.248 -1.10222 1.60254 0
M  V30 4014 C 379.531 2.16639 2.87645 0
M  V30 4015 C 379.384 3.68088 2.58517 0
M  V30 4016 C 380.703 2.05378 3.8924 0
M  V30 4017 H 377.822 0.463714 0.572833 0
M  V30 4018 H 380.464 1.64859 0.944539 0
M  V30 4019 H 378.614 1.84725 3.41773 0
M  V30 4020 H 380.286 4.10382 2.10676 0
M  V30 4021 H 378.529 3.89038 1.91917 0
M  V30 4022 H 379.2 4.2598 3.51063 0
M  V30 4023 H 381.676 2.33404 3.44473 0
M  V30 4024 H 380.552 2.7012 4.77835 0
M  V30 4025 H 380.813 1.0316 4.29896 0
M  V30 4026 N 379.872 -1.04064 1.18357 0
M  V30 4027 C 380.805 -2.11618 0.854 0
M  V30 4028 C 381.783 -1.61555 -0.184043 0
M  V30 4029 O 382.967 -1.88395 -0.0630048 0
M  V30 4030 C 380.094 -3.37574 0.27597 0
M  V30 4031 C 379.14 -4.06485 1.2912 0
M  V30 4032 S 379.973 -4.53543 2.84709 0
M  V30 4033 C 381.129 -5.82732 2.28417 0
M  V30 4034 H 381.362 -2.39247 1.76488 0
M  V30 4035 H 378.895 -1.16832 1.00944 0
M  V30 4036 H 380.853 -4.10468 -0.051026 0
M  V30 4037 H 379.514 -3.0806 -0.613028 0
M  V30 4038 H 378.707 -4.97024 0.835633 0
M  V30 4039 H 378.309 -3.39708 1.56443 0
M  V30 4040 H 380.601 -6.56677 1.66677 0
M  V30 4041 H 381.544 -6.33052 3.17256 0
M  V30 4042 H 381.952 -5.37838 1.71436 0
M  V30 4043 N 381.35 -0.985608 -1.22978 0
M  V30 4044 C 382.627 -0.573599 -1.87001 0
M  V30 4045 C 383.007 0.949213 -1.88555 0
M  V30 4046 O 382.355 1.82811 -1.37086 0
M  V30 4047 C 382.565 -1.18564 -3.28243 0
M  V30 4048 C 383.913 -1.28163 -4.04796 0
M  V30 4049 O 384.937 -1.13949 -3.37482 0
M  V30 4050 O 383.796 -1.50832 -5.25273 0
M  V30 4051 H 380.89 -0.193868 -0.803955 0
M  V30 4052 H 383.436 -1.08102 -1.30813 0
M  V30 4053 H 382.208 -2.22758 -3.21706 0
M  V30 4054 H 381.831 -0.663363 -3.92027 0
M  V30 4055 N 382.828 1.3818 -0.7579 0
M  V30 4056 C 383.791 2.28764 -0.141286 0
M  V30 4057 C 384.791 1.47388 0.642907 0
M  V30 4058 O 385.981 1.67781 0.468536 0
M  V30 4059 C 383.113 3.31184 0.808069 0
M  V30 4060 H 384.306 2.848 -0.939633 0
M  V30 4061 H 381.859 1.47212 -0.525191 0
M  V30 4062 H 382.594 2.80247 1.63193 0
M  V30 4063 H 382.379 3.91314 0.248104 0
M  V30 4064 H 383.869 3.98909 1.23536 0
M  V30 4065 N 384.306 0.507319 1.49211 0
M  V30 4066 C 385.553 -0.0349529 2.0247 0
M  V30 4067 C 385.881 -1.36409 1.38647 0
M  V30 4068 O 385.136 -1.88841 0.513566 0
M  V30 4069 C 385.435 -0.229513 3.56662 0
M  V30 4070 C 385.101 1.02241 4.39156 0
M  V30 4071 C 383.763 1.36557 4.61417 0
M  V30 4072 C 386.115 1.85428 4.871 0
M  V30 4073 C 383.443 2.53999 5.28868 0
M  V30 4074 C 385.795 3.02028 5.55843 0
M  V30 4075 C 384.459 3.36717 5.76349 0
M  V30 4076 H 383.729 -0.0127902 0.74089 0
M  V30 4077 H 386.376 0.668756 1.79443 0
M  V30 4078 H 384.681 -1.0158 3.78403 0
M  V30 4079 H 386.378 -0.663641 3.9547 0
M  V30 4080 H 382.968 0.745124 4.22073 0
M  V30 4081 H 387.152 1.6023 4.69723 0
M  V30 4082 H 382.408 2.81105 5.42946 0
M  V30 4083 H 386.582 3.66808 5.91967 0
M  V30 4084 H 384.209 4.27821 6.28389 0
M  V30 4085 N 385.784 -1.5574 0.241426 0
M  V30 4086 C 387.032 -1.98417 -0.384075 0
M  V30 4087 C 387.353 -1.13078 -1.58866 0
M  V30 4088 O 386.623 -0.212312 -1.94746 0
M  V30 4089 H 385.203 -0.732813 -0.144894 0
M  V30 4090 H 387.865 -1.9193 0.338943 0
M  V30 4091 H 386.961 -3.04219 -0.696939 0
M  V30 4092 N 387.262 0.0317525 -1.57568 0
M  V30 4093 C 388.209 1.0332 -2.06382 0
M  V30 4094 C 389.179 1.36082 -0.952414 0
M  V30 4095 O 390.364 1.46466 -1.2228 0
M  V30 4096 C 387.504 2.32989 -2.54578 0
M  V30 4097 C 386.617 2.0641 -3.79498 0
M  V30 4098 C 385.752 3.2993 -4.16317 0
M  V30 4099 C 384.791 2.98893 -5.34162 0
M  V30 4100 N 383.928 4.14857 -5.66426 0
M  V30 4101 H 388.768 0.609982 -2.9169 0
M  V30 4102 H 386.305 0.289573 -1.44222 0
M  V30 4103 H 388.263 3.0875 -2.80587 0
M  V30 4104 H 386.893 2.73039 -1.7219 0
M  V30 4105 H 385.945 1.21158 -3.6059 0
M  V30 4106 H 387.257 1.79513 -4.65378 0
M  V30 4107 H 386.411 4.1406 -4.4344 0
M  V30 4108 H 385.15 3.59938 -3.29083 0
M  V30 4109 H 384.155 2.13164 -5.06795 0
M  V30 4110 H 385.38 2.70165 -6.23047 0
M  V30 4111 H 383.326 4.44821 -4.82151 0
M  V30 4112 H 383.243 3.91374 -6.4681 0
M  V30 4113 H 384.511 4.99868 -5.98124 0
M  V30 4114 N 388.74 1.54641 0.303973 0
M  V30 4115 C 389.97 1.77511 1.05705 0
M  V30 4116 C 390.378 0.533228 1.81531 0
M  V30 4117 O 389.721 -0.506423 1.76582 0
M  V30 4118 C 389.783 2.92779 2.08617 0
M  V30 4119 C 389.447 4.30977 1.52013 0
M  V30 4120 C 390.444 5.11115 0.9517 0
M  V30 4121 C 388.129 4.77571 1.55665 0
M  V30 4122 C 390.123 6.35966 0.427327 0
M  V30 4123 C 387.81 6.02384 1.02841 0
M  V30 4124 C 388.808 6.81417 0.464713 0
M  V30 4125 O 388.496 8.03881 -0.0555283 0
M  V30 4126 H 388.228 0.59579 0.319391 0
M  V30 4127 H 390.782 2.02401 0.349712 0
M  V30 4128 H 389.012 2.63506 2.83022 0
M  V30 4129 H 390.701 3.03252 2.69802 0
M  V30 4130 H 391.467 4.76264 0.916407 0
M  V30 4131 H 387.346 4.16085 1.9848 0
M  V30 4132 H 390.89 6.97599 -0.0133062 0
M  V30 4133 H 386.787 6.36723 1.06084 0
M  V30 4134 H 387.555 8.18479 0.0580522 0
M  V30 4135 N 390.218 -0.567019 1.47046 0
M  V30 4136 C 391.446 -1.35027 1.56765 0
M  V30 4137 C 391.861 -1.8758 0.214316 0
M  V30 4138 O 391.218 -1.64471 -0.790919 0
M  V30 4139 C 391.269 -2.52698 2.58507 0
M  V30 4140 O 390.99 -2.0232 3.88585 0
M  V30 4141 C 392.491 -3.45043 2.78316 0
M  V30 4142 H 389.711 -0.41195 0.529658 0
M  V30 4143 H 392.255 -0.687832 1.92585 0
M  V30 4144 H 390.41 -3.149 2.25648 0
M  V30 4145 H 390.824 -2.79068 4.44096 0
M  V30 4146 H 392.298 -4.2405 3.53391 0
M  V30 4147 H 392.775 -3.97971 1.85784 0
M  V30 4148 H 393.381 -2.88665 3.12334 0
M  V30 4149 N 391.696 -1.35014 -0.812953 0
M  V30 4150 C 392.646 -1.23959 -1.91359 0
M  V30 4151 C 393.63 -0.136306 -1.60322 0
M  V30 4152 O 394.822 -0.366925 -1.73155 0
M  V30 4153 C 391.951 -1.00736 -3.28188 0
M  V30 4154 C 391.037 -2.15426 -3.65311 0
M  V30 4155 N 391.428 -3.40612 -3.73921 0
M  V30 4156 C 389.726 -2.06672 -3.95225 0
M  V30 4157 C 390.427 -4.15994 -4.06601 0
M  V30 4158 N 389.403 -3.44685 -4.20349 0
M  V30 4159 H 393.205 -2.18815 -1.96208 0
M  V30 4160 H 390.719 -1.27395 -1.00718 0
M  V30 4161 H 392.716 -0.909052 -4.06868 0
M  V30 4162 H 391.376 -0.067586 -3.2463 0
M  V30 4163 H 392.387 -3.75043 -3.5716 0
M  V30 4164 H 389.064 -1.20511 -3.99729 0
M  V30 4165 H 390.454 -5.24145 -4.20382 0
M  V30 4166 N 393.175 1.03435 -1.18907 0
M  V30 4167 C 394.422 1.76743 -0.988334 0
M  V30 4168 C 394.75 1.88447 0.481441 0
M  V30 4169 O 394.005 1.39383 1.37371 0
M  V30 4170 C 394.304 3.19792 -1.59586 0
M  V30 4171 C 393.97 3.28108 -3.09283 0
M  V30 4172 C 392.632 3.30084 -3.5014 0
M  V30 4173 C 394.984 3.27696 -4.05296 0
M  V30 4174 C 392.312 3.29299 -4.85571 0
M  V30 4175 C 394.664 3.28451 -5.4065 0
M  V30 4176 C 393.328 3.28723 -5.80946 0
M  V30 4177 H 392.598 0.64675 -0.361657 0
M  V30 4178 H 395.245 1.21442 -1.48068 0
M  V30 4179 H 393.55 3.78136 -1.02568 0
M  V30 4180 H 395.247 3.75171 -1.41589 0
M  V30 4181 H 391.837 3.27294 -2.76725 0
M  V30 4182 H 396.021 3.25354 -3.74778 0
M  V30 4183 H 391.277 3.2783 -5.16079 0
M  V30 4184 H 395.451 3.27082 -6.14809 0
M  V30 4185 H 393.078 3.27868 -6.85862 0
M  V30 4186 N 394.653 0.992116 1.22453 0
M  V30 4187 C 395.616 0.546883 2.2258 0
M  V30 4188 C 396.616 -0.369829 1.56489 0
M  V30 4189 O 397.806 -0.161896 1.73446 0
M  V30 4190 C 394.938 -0.204659 3.40285 0
M  V30 4191 H 396.131 1.43234 2.63484 0
M  V30 4192 H 393.684 0.779239 1.3549 0
M  V30 4193 H 394.419 -1.10614 3.04853 0
M  V30 4194 H 394.204 0.45354 3.89468 0
M  V30 4195 H 395.694 -0.504358 4.14543 0
M  V30 4196 N 396.131 -1.37776 0.765217 0
M  V30 4197 C 397.408 -1.93975 0.251596 0
M  V30 4198 C 397.788 -1.69949 -1.25222 0
M  V30 4199 O 397.136 -1.04457 -2.03226 0
M  V30 4200 C 397.346 -3.43487 0.617895 0
M  V30 4201 C 398.694 -4.20564 0.584029 0
M  V30 4202 O 399.718 -3.5182 0.556888 0
M  V30 4203 O 398.577 -5.43138 0.605291 0
M  V30 4204 H 395.671 -0.82509 0.0561806 0
M  V30 4205 H 398.217 -1.47101 0.846128 0
M  V30 4206 H 396.989 -3.5453 1.65602 0
M  V30 4207 H 396.612 -3.976 -0.00403411 0
M  V30 4208 N 397.609 -0.515225 -1.4894 0
M  V30 4209 C 398.572 0.244681 -2.2789 0
M  V30 4210 C 399.572 0.881166 -1.34507 0
M  V30 4211 O 400.762 0.743497 -1.57537 0
M  V30 4212 C 397.894 1.35247 -3.12923 0
M  V30 4213 H 399.087 -0.448289 -2.96531 0
M  V30 4214 H 396.64 -0.270656 -1.53939 0
M  V30 4215 H 397.375 2.07916 -2.48881 0
M  V30 4216 H 397.16 0.901374 -3.81599 0
M  V30 4217 H 398.65 1.88737 -3.72516 0
M  V30 4218 N 399.087 1.5561 -0.249682 0
M  V30 4219 C 400.312 2.03865 0.381305 0
M  V30 4220 C 400.737 1.12769 1.50548 0
M  V30 4221 O 400.095 0.121189 1.80895 0
M  V30 4222 C 400.143 3.50101 0.863816 0
M  V30 4223 O 399.247 3.62132 1.97318 0
M  V30 4224 H 398.588 0.658827 0.0827194 0
M  V30 4225 H 401.118 2.01105 -0.376552 0
M  V30 4226 H 401.128 3.90975 1.1663 0
M  V30 4227 H 399.803 4.1588 0.0411816 0
M  V30 4228 H 398.38 3.33155 1.67517 0
M  V30 4229 N 400.565 -0.0233959 1.57583 0
M  V30 4230 C 401.981 -0.379134 1.55031 0
M  V30 4231 C 402.181 -1.76255 0.976548 0
M  V30 4232 O 401.237 -2.45266 0.600078 0
M  V30 4233 C 402.55 -0.275792 2.99433 0
M  V30 4234 C 404.098 -0.352458 3.11009 0
M  V30 4235 C 404.573 -0.278501 4.57152 0
M  V30 4236 N 406.064 -0.337123 4.61972 0
M  V30 4237 C 406.799 -0.302876 5.726 0
M  V30 4238 N 406.295 -0.220589 6.92449 0
M  V30 4239 N 408.088 -0.353023 5.6099 0
M  V30 4240 H 400.239 0.881869 1.93227 0
M  V30 4241 H 402.502 0.335867 0.886509 0
M  V30 4242 H 402.208 0.675108 3.4516 0
M  V30 4243 H 402.082 -1.06721 3.61788 0
M  V30 4244 H 404.469 -1.29379 2.65226 0
M  V30 4245 H 404.55 0.468409 2.51475 0
M  V30 4246 H 404.194 0.659189 5.03604 0
M  V30 4247 H 404.124 -1.11755 5.14605 0
M  V30 4248 H 406.615 -0.403002 3.75745 0
M  V30 4249 H 406.928 -0.199713 7.72542 0
M  V30 4250 H 405.273 -0.186555 6.9475 0
M  V30 4251 H 408.464 -0.415339 4.66254 0
M  V30 4252 H 408.637 -0.322866 6.47195 0
M  V30 4253 N 402.043 -1.548 -0.295768 0
M  V30 4254 C 402.973 -1.89115 -1.36959 0
M  V30 4255 C 403.954 -0.75059 -1.52644 0
M  V30 4256 O 405.139 -1.00678 -1.66065 0
M  V30 4257 C 402.269 -2.14307 -2.73295 0
M  V30 4258 C 401.223 -3.30151 -2.72368 0
M  V30 4259 C 400.549 -3.40772 -4.12042 0
M  V30 4260 C 401.849 -4.67126 -2.33646 0
M  V30 4261 H 403.543 -2.79053 -1.08488 0
M  V30 4262 H 401.089 -1.34266 -0.520443 0
M  V30 4263 H 403.042 -2.36898 -3.48507 0
M  V30 4264 H 401.766 -1.21145 -3.03301 0
M  V30 4265 H 400.425 -3.0749 -1.99613 0
M  V30 4266 H 400.073 -2.45117 -4.39234 0
M  V30 4267 H 399.773 -4.18645 -4.12322 0
M  V30 4268 H 401.297 -3.6563 -4.89027 0
M  V30 4269 H 402.711 -4.89414 -2.98575 0
M  V30 4270 H 401.108 -5.47751 -2.45129 0
M  V30 4271 H 402.178 -4.67489 -1.28772 0
M  V30 4272 N 403.521 0.559213 -1.47345 0
M  V30 4273 C 404.937 0.884943 -1.32819 0
M  V30 4274 C 405.137 1.98988 -0.317173 0
M  V30 4275 O 404.193 2.51031 0.272011 0
M  V30 4276 C 405.506 1.28007 -2.72093 0
M  V30 4277 C 407.054 1.39161 -2.80363 0
M  V30 4278 C 407.529 1.82031 -4.20272 0
M  V30 4279 N 409.02 1.89185 -4.22804 0
M  V30 4280 C 409.755 2.2368 -5.27973 0
M  V30 4281 N 409.251 2.56802 -6.43447 0
M  V30 4282 N 411.044 2.24436 -5.15349 0
M  V30 4283 H 403.195 -0.170304 -2.11716 0
M  V30 4284 H 405.458 -0.0135247 -0.947904 0
M  V30 4285 H 405.164 0.542027 -3.47498 0
M  V30 4286 H 405.038 2.23665 -3.03733 0
M  V30 4287 H 407.425 2.12048 -2.05231 0
M  V30 4288 H 407.506 0.41696 -2.52379 0
M  V30 4289 H 407.15 1.09715 -4.95908 0
M  V30 4290 H 407.08 2.80495 -4.45679 0
M  V30 4291 H 409.571 1.65982 -3.39497 0
M  V30 4292 H 409.884 2.82144 -7.19454 0
M  V30 4293 H 408.229 2.54387 -6.46771 0
M  V30 4294 H 411.42 1.97998 -4.24163 0
M  V30 4295 H 411.593 2.50989 -5.97418 0
M  V30 4296 N 404.999 1.35443 0.805782 0
M  V30 4297 C 406.227 1.31878 1.59423 0
M  V30 4298 C 406.642 -0.103562 1.88516 0
M  V30 4299 O 405.999 -1.05575 1.48863 0
M  V30 4300 C 406.05 2.12426 2.92502 0
M  V30 4301 O 405.771 3.49115 2.6467 0
M  V30 4302 C 407.272 2.16455 3.86862 0
M  V30 4303 H 404.492 0.453002 0.495005 0
M  V30 4304 H 407.036 1.78309 1.00131 0
M  V30 4305 H 405.191 1.69593 3.48306 0
M  V30 4306 H 405.605 3.90957 3.49647 0
M  V30 4307 H 407.079 2.77204 4.77349 0
M  V30 4308 H 407.556 1.16352 4.23508 0
M  V30 4309 H 408.162 2.59453 3.36993 0
M  V30 4310 N 406.477 -1.02803 1.19454 0
M  V30 4311 C 407.723 -1.76598 1.0092 0
M  V30 4312 C 408.078 -1.86939 -0.455142 0
M  V30 4313 O 407.371 -1.37575 -1.33355 0
M  V30 4314 C 407.565 -3.18941 1.6128 0
M  V30 4315 C 407.394 -3.22476 3.13431 0
M  V30 4316 C 406.164 -3.30375 3.82336 0
M  V30 4317 C 408.362 -3.09451 4.10785 0
M  V30 4318 N 406.344 -3.23292 5.21877 0
M  V30 4319 C 407.715 -3.10012 5.36929 0
M  V30 4320 C 409.77 -2.93585 4.02135 0
M  V30 4321 C 408.473 -2.96334 6.55423 0
M  V30 4322 C 410.499 -2.81256 5.20239 0
M  V30 4323 C 409.861 -2.82472 6.45282 0
M  V30 4324 H 405.96 -0.657447 0.423424 0
M  V30 4325 H 408.544 -1.22369 1.5144 0
M  V30 4326 H 406.715 -3.71489 1.1336 0
M  V30 4327 H 408.447 -3.81102 1.36173 0
M  V30 4328 H 405.202 -3.3663 3.33132 0
M  V30 4329 H 405.626 -3.23156 5.94894 0
M  V30 4330 H 410.268 -2.91466 3.0628 0
M  V30 4331 H 407.986 -2.97203 7.51463 0
M  V30 4332 H 411.572 -2.70014 5.15348 0
M  V30 4333 H 410.452 -2.73036 7.35133 0
M  V30 4334 N 407.956 -0.998596 -1.21925 0
M  V30 4335 C 409.205 -0.673085 -1.90138 0
M  V30 4336 C 409.518 0.79895 -1.78539 0
M  V30 4337 O 410.724 1.23628 -2.4172 0
M  V30 4338 C 409.18 -1.15339 -3.40918 0
M  V30 4339 C 408.788 -2.65106 -3.61141 0
M  V30 4340 C 410.532 -0.902476 -4.14796 0
M  V30 4341 C 408.439 -3.0671 -5.05651 0
M  V30 4342 H 407.369 -0.248057 -0.712028 0
M  V30 4343 H 410.02 -1.20891 -1.38049 0
M  V30 4344 H 408.402 -0.545658 -3.92223 0
M  V30 4345 H 409.576 -3.31274 -3.20304 0
M  V30 4346 H 407.891 -2.88142 -3.00605 0
M  V30 4347 H 410.488 -1.18895 -5.21314 0
M  V30 4348 H 410.831 0.161349 -4.15987 0
M  V30 4349 H 411.364 -1.47269 -3.69536 0
M  V30 4350 H 408.103 -4.12292 -5.09603 0
M  V30 4351 H 407.623 -2.45249 -5.47369 0
M  V30 4352 H 409.302 -2.9833 -5.74115 0
M  V30 4353 N 409.434 1.37368 -0.772513 0
M  V30 4354 C 410.344 2.34053 -0.160081 0
M  V30 4355 C 411.36 1.60216 0.678728 0
M  V30 4356 O 412.536 1.92303 0.59847 0
M  V30 4357 C 409.601 3.3939 0.708182 0
M  V30 4358 C 408.662 4.29048 -0.147172 0
M  V30 4359 C 407.895 5.29354 0.679744 0
M  V30 4360 O 408.118 5.3723 1.91678 0
M  V30 4361 O 407.052 6.01835 0.0885444 0
M  V30 4362 H 410.878 2.88159 -0.959053 0
M  V30 4363 H 408.463 1.39543 -0.533685 0
M  V30 4364 H 410.345 4.03839 1.20384 0
M  V30 4365 H 409.02 2.8761 1.48533 0
M  V30 4366 H 407.927 3.67697 -0.689205 0
M  V30 4367 H 409.26 4.84134 -0.887423 0
M  V30 4368 N 410.912 0.523116 1.48665 0
M  V30 4369 C 412.14 -0.0096312 2.06898 0
M  V30 4370 C 412.555 -1.28784 1.38059 0
M  V30 4371 O 411.912 -1.76453 0.465893 0
M  V30 4372 C 411.963 -0.244386 3.60673 0
M  V30 4373 O 411.684 0.983172 4.26925 0
M  V30 4374 C 413.185 -0.818289 4.35682 0
M  V30 4375 H 410.405 0.0304161 0.67031 0
M  V30 4376 H 412.949 0.726799 1.91149 0
M  V30 4377 H 411.104 -0.930847 3.76051 0
M  V30 4378 H 411.518 0.759653 5.1897 0
M  V30 4379 H 412.992 -0.93201 5.44075 0
M  V30 4380 H 413.469 -1.82153 3.99646 0
M  V30 4381 H 414.075 -0.168609 4.24966 0
M  V30 4382 N 412.39 -1.55475 0.257931 0
M  V30 4383 C 413.638 -1.98813 -0.363009 0
M  V30 4384 C 413.959 -1.14757 -1.57657 0
M  V30 4385 O 413.229 -0.232956 -1.9451 0
M  V30 4386 H 411.809 -0.734308 -0.137113 0
M  V30 4387 H 414.471 -1.9156 0.359281 0
M  V30 4388 H 413.567 -3.04941 -0.664634 0
M  V30 4389 N 413.868 0.0150385 -1.57593 0
M  V30 4390 C 414.815 1.01126 -2.07466 0
M  V30 4391 C 415.785 1.35064 -0.966794 0
M  V30 4392 O 416.97 1.4516 -1.23827 0
M  V30 4393 C 414.11 2.30276 -2.57035 0
M  V30 4394 C 413.223 2.02373 -3.81666 0
M  V30 4395 C 412.358 3.25496 -4.19793 0
M  V30 4396 C 411.397 2.93211 -5.37303 0
M  V30 4397 N 410.534 4.08826 -5.70794 0
M  V30 4398 H 415.374 0.57901 -2.92321 0
M  V30 4399 H 412.911 0.27426 -1.44521 0
M  V30 4400 H 414.869 3.05757 -2.83846 0
M  V30 4401 H 413.499 2.71197 -1.75077 0
M  V30 4402 H 412.551 1.17327 -3.61854 0
M  V30 4403 H 413.863 1.74567 -4.67256 0
M  V30 4404 H 413.017 4.09333 -4.47807 0
M  V30 4405 H 411.756 3.56428 -3.32882 0
M  V30 4406 H 410.761 2.07777 -5.09027 0
M  V30 4407 H 411.986 2.63542 -6.25877 0
M  V30 4408 H 409.932 4.39682 -4.86842 0
M  V30 4409 H 409.849 3.84491 -6.50924 0
M  V30 4410 H 411.117 4.93496 -6.03392 0
M  V30 4411 N 415.346 1.54954 0.287554 0
M  V30 4412 C 416.592 1.75132 1.02257 0
M  V30 4413 C 416.925 0.542858 1.86458 0
M  V30 4414 O 416.2 -0.459856 1.88986 0
M  V30 4415 C 416.483 3.04812 1.91733 0
M  V30 4416 C 416.336 4.35985 1.10622 0
M  V30 4417 C 417.655 3.30438 2.90687 0
M  V30 4418 H 414.774 0.637194 0.370341 0
M  V30 4419 H 417.416 1.87678 0.296111 0
M  V30 4420 H 415.566 2.94247 2.53675 0
M  V30 4421 H 417.238 4.58487 0.508636 0
M  V30 4422 H 415.481 4.31865 0.409271 0
M  V30 4423 H 416.152 5.23017 1.76513 0
M  V30 4424 H 418.628 3.40701 2.38877 0
M  V30 4425 H 417.504 4.22467 3.50447 0
M  V30 4426 H 417.765 2.49377 3.65053 0
M  V30 4427 N 416.824 -0.551391 1.4764 0
M  V30 4428 C 417.757 -1.6738 1.5511 0
M  V30 4429 C 418.735 -1.5753 0.402856 0
M  V30 4430 O 419.919 -1.78307 0.611475 0
M  V30 4431 C 417.046 -3.05661 1.45908 0
M  V30 4432 C 416.092 -3.33938 2.65307 0
M  V30 4433 S 416.925 -3.22553 4.27457 0
M  V30 4434 C 418.081 -4.63317 4.20818 0
M  V30 4435 H 418.314 -1.6079 2.50068 0
M  V30 4436 H 415.847 -0.732674 1.35909 0
M  V30 4437 H 417.805 -3.8542 1.41286 0
M  V30 4438 H 416.466 -3.09711 0.523248 0
M  V30 4439 H 415.659 -4.34761 2.54948 0
M  V30 4440 H 415.261 -2.61809 2.67081 0
M  V30 4441 H 417.553 -5.54391 3.89431 0
M  V30 4442 H 418.496 -4.78732 5.21748 0
M  V30 4443 H 418.904 -4.41636 3.51593 0
M  V30 4444 N 418.302 -1.35869 -0.798587 0
M  V30 4445 C 419.713 -1.26498 -1.37314 0
M  V30 4446 C 420.064 0.0991899 -1.95949 0
M  V30 4447 O 419.189 1.0004 -1.91888 0
M  V30 4448 C 419.784 -2.29054 -2.49639 0
M  V30 4449 C 418.343 -2.234 -3.02935 0
M  V30 4450 C 417.49 -2.14329 -1.75949 0
M  V30 4451 H 420.441 -1.46881 -0.600971 0
M  V30 4452 H 420.462 -1.92166 -3.28409 0
M  V30 4453 H 419.974 -3.2833 -2.06933 0
M  V30 4454 H 418.075 -1.27562 -3.50084 0
M  V30 4455 H 418.188 -3.15703 -3.60372 0
M  V30 4456 H 416.552 -1.60435 -1.9782 0
M  V30 4457 H 417.335 -3.15477 -1.35384 0
M  V30 4458 N 419.78 1.02168 -1.19998 0
M  V30 4459 C 421.026 1.75945 -1.00852 0
M  V30 4460 C 421.359 1.88702 0.458828 0
M  V30 4461 O 420.634 1.40911 1.34069 0
M  V30 4462 C 420.917 3.18154 -1.68671 0
M  V30 4463 C 420.77 3.13224 -3.22817 0
M  V30 4464 C 422.089 4.16711 -1.41561 0
M  V30 4465 H 419.208 0.638673 -0.367785 0
M  V30 4466 H 421.85 1.19222 -1.4794 0
M  V30 4467 H 420 3.66586 -1.28636 0
M  V30 4468 H 421.672 2.72635 -3.72112 0
M  V30 4469 H 419.915 2.50751 -3.53986 0
M  V30 4470 H 420.586 4.13728 -3.65422 0
M  V30 4471 H 423.062 3.76913 -1.76284 0
M  V30 4472 H 421.938 5.14391 -1.91553 0
M  V30 4473 H 422.199 4.40774 -0.342193 0
M  V30 4474 N 421.258 1.00505 1.21394 0
M  V30 4475 C 422.669 0.721082 1.72213 0
M  V30 4476 C 423.02 -0.761263 1.80829 0
M  V30 4477 O 422.145 -1.59464 1.46288 0
M  V30 4478 C 422.74 1.30228 3.12772 0
M  V30 4479 C 421.299 1.06743 3.60947 0
M  V30 4480 C 420.446 1.41507 2.38477 0
M  V30 4481 H 423.397 1.17594 1.06571 0
M  V30 4482 H 423.418 0.686955 3.74247 0
M  V30 4483 H 422.93 2.38115 3.06468 0
M  V30 4484 H 421.031 0.00572162 3.726 0
M  V30 4485 H 421.144 1.73936 4.46411 0
M  V30 4486 H 419.508 0.833852 2.40664 0
M  V30 4487 H 420.291 2.50424 2.34824 0
M  V30 4488 N 422.737 -1.36956 0.779787 0
M  V30 4489 C 423.7 -2.2851 0.177662 0
M  V30 4490 C 424.7 -1.48393 -0.619377 0
M  V30 4491 O 425.89 -1.68505 -0.441785 0
M  V30 4492 C 423.022 -3.32428 -0.755279 0
M  V30 4493 H 424.215 -2.83269 0.984823 0
M  V30 4494 H 421.768 -1.46358 0.548544 0
M  V30 4495 H 422.503 -2.82808 -1.58714 0
M  V30 4496 H 422.288 -3.91659 -0.185817 0
M  V30 4497 H 423.778 -4.00824 -1.17174 0
M  V30 4498 N 424.215 -0.530993 -1.48385 0
M  V30 4499 C 425.178 0.220497 -2.28137 0
M  V30 4500 C 426.178 0.866851 -1.35434 0
M  V30 4501 O 427.368 0.726746 -1.58316 0
M  V30 4502 C 424.5 1.31921 -3.1434 0
M  V30 4503 H 425.693 -0.479714 -2.96038 0
M  V30 4504 H 423.246 -0.286968 -1.53643 0
M  V30 4505 H 423.981 2.05264 -2.51072 0
M  V30 4506 H 423.766 0.86085 -3.82533 0
M  V30 4507 H 425.256 1.84776 -3.74497 0
M  V30 4508 N 425.693 1.55336 -0.266172 0
M  V30 4509 C 426.656 2.20878 0.612001 0
M  V30 4510 C 427.656 1.18388 1.08816 0
M  V30 4511 O 428.846 1.4335 0.989774 0
M  V30 4512 C 425.978 2.86765 1.84332 0
M  V30 4513 H 427.171 2.99873 0.0398718 0
M  V30 4514 H 424.724 1.56291 -0.0167309 0
M  V30 4515 H 425.459 2.11759 2.45619 0
M  V30 4516 H 425.244 3.61862 1.5099 0
M  V30 4517 H 426.734 3.36867 2.46801 0
M  V30 4518 N 427.171 -0.0066808 1.57599 0
M  V30 4519 C 428.101 -0.999296 2.11036 0
M  V30 4520 C 429.082 -1.36278 1.01795 0
M  V30 4521 O 430.267 -1.4477 1.29442 0
M  V30 4522 C 427.397 -2.29328 2.60818 0
M  V30 4523 C 426.351 -2.07159 3.74525 0
M  V30 4524 C 425.677 -3.42512 4.10596 0
M  V30 4525 C 426.977 -1.43959 5.02069 0
M  V30 4526 H 428.671 -0.554382 2.94223 0
M  V30 4527 H 426.217 -0.265221 1.41536 0
M  V30 4528 H 428.17 -2.99117 2.96828 0
M  V30 4529 H 426.894 -2.7592 1.74745 0
M  V30 4530 H 425.553 -1.39797 3.38899 0
M  V30 4531 H 425.201 -3.86795 3.21556 0
M  V30 4532 H 424.901 -3.28498 4.87199 0
M  V30 4533 H 426.425 -4.13628 4.4916 0
M  V30 4534 H 427.839 -2.03696 5.35893 0
M  V30 4535 H 426.236 -1.40452 5.83432 0
M  V30 4536 H 427.306 -0.407992 4.83181 0
M  V30 4537 N 428.649 -1.55105 -0.279332 0
M  V30 4538 C 429.874 -1.7976 -1.03446 0
M  V30 4539 C 430.299 -0.565952 -1.79384 0
M  V30 4540 O 429.657 0.484259 -1.74713 0
M  V30 4541 C 429.705 -3.0179 -1.97371 0
M  V30 4542 O 428.809 -2.76432 -3.06038 0
M  V30 4543 H 428.15 -0.594334 -0.29608 0
M  V30 4544 H 430.68 -2.02235 -0.310165 0
M  V30 4545 H 430.69 -3.30351 -2.39441 0
M  V30 4546 H 429.365 -3.91085 -1.4151 0
M  V30 4547 H 427.942 -2.58949 -2.68328 0
M  V30 4548 N 430.127 0.543554 -1.4793 0
M  V30 4549 C 431.357 1.32324 -1.58663 0
M  V30 4550 C 431.765 1.8766 -0.240896 0
M  V30 4551 O 431.108 1.66411 0.778011 0
M  V30 4552 C 431.17 2.52094 -2.56299 0
M  V30 4553 C 430.834 2.17944 -4.01683 0
M  V30 4554 C 431.831 1.74422 -4.89768 0
M  V30 4555 C 429.516 2.28884 -4.47121 0
M  V30 4556 C 431.51 1.42287 -6.21316 0
M  V30 4557 C 429.197 1.96361 -5.78693 0
M  V30 4558 C 430.195 1.53132 -6.65612 0
M  V30 4559 O 429.883 1.21029 -7.94737 0
M  V30 4560 H 429.615 0.409174 -0.538101 0
M  V30 4561 H 432.169 0.663887 -1.94375 0
M  V30 4562 H 430.399 3.20965 -2.15681 0
M  V30 4563 H 432.088 3.14165 -2.57012 0
M  V30 4564 H 432.854 1.65452 -4.55907 0
M  V30 4565 H 428.733 2.61488 -3.79664 0
M  V30 4566 H 432.277 1.08472 -6.89115 0
M  V30 4567 H 428.174 2.04967 -6.12094 0
M  V30 4568 H 428.942 1.34543 -8.07366 0
M  V30 4569 N 431.605 1.3629 0.791371 0
M  V30 4570 C 432.552 1.30458 1.90393 0
M  V30 4571 C 433.522 0.173632 1.6519 0
M  V30 4572 O 434.707 0.35983 1.87376 0
M  V30 4573 C 431.847 1.09777 3.27174 0
M  V30 4574 C 430.96 2.31929 3.64462 0
M  V30 4575 C 430.095 2.04276 4.90352 0
M  V30 4576 C 429.134 3.224 5.20312 0
M  V30 4577 N 428.271 2.94424 6.37385 0
M  V30 4578 H 433.111 2.25589 1.94714 0
M  V30 4579 H 430.648 1.12122 0.952216 0
M  V30 4580 H 432.606 0.958133 4.06049 0
M  V30 4581 H 431.236 0.183014 3.22281 0
M  V30 4582 H 430.288 2.56703 2.80727 0
M  V30 4583 H 431.6 3.20085 3.82553 0
M  V30 4584 H 430.754 1.87231 5.77087 0
M  V30 4585 H 429.493 1.13428 4.74326 0
M  V30 4586 H 428.498 3.40005 4.32061 0
M  V30 4587 H 429.723 4.14071 5.38258 0
M  V30 4588 H 427.669 2.06185 6.22755 0
M  V30 4589 H 427.586 3.76118 6.55798 0
M  V30 4590 H 428.854 2.80953 7.27108 0
M  V30 4591 N 433.083 -1.0153 1.20538 0
M  V30 4592 C 434.03 -2.10098 0.955383 0
M  V30 4593 C 435 -1.65702 -0.114878 0
M  V30 4594 O 436.185 -1.90776 0.0301118 0
M  V30 4595 C 433.325 -3.41236 0.514969 0
M  V30 4596 C 432.438 -3.99102 1.65353 0
M  V30 4597 C 431.573 -5.18306 1.16329 0
M  V30 4598 C 430.612 -5.68258 2.27485 0
M  V30 4599 N 429.749 -6.78722 1.7967 0
M  V30 4600 H 434.589 -2.30818 1.88486 0
M  V30 4601 H 432.126 -1.13189 0.939499 0
M  V30 4602 H 434.084 -4.16504 0.240935 0
M  V30 4603 H 432.714 -3.20585 -0.377512 0
M  V30 4604 H 431.766 -3.20918 2.04245 0
M  V30 4605 H 433.078 -4.32177 2.49047 0
M  V30 4606 H 432.232 -6.00782 0.845302 0
M  V30 4607 H 430.971 -4.86799 0.296254 0
M  V30 4608 H 429.976 -4.84385 2.60099 0
M  V30 4609 H 431.201 -6.01798 3.14667 0
M  V30 4610 H 429.147 -6.49042 0.95295 0
M  V30 4611 H 429.064 -7.10996 2.56944 0
M  V30 4612 H 430.332 -7.64759 1.50875 0
M  V30 4613 N 434.561 -1.01147 -1.20859 0
M  V30 4614 C 435.493 -0.535546 -2.22855 0
M  V30 4615 C 436.506 0.379323 -1.58319 0
M  V30 4616 O 437.695 0.178489 -1.77605 0
M  V30 4617 C 434.795 0.240962 -3.38042 0
M  V30 4618 C 433.968 -0.674562 -4.32167 0
M  V30 4619 C 433.027 0.053467 -5.26173 0
M  V30 4620 O 432.053 -0.567339 -5.66366 0
M  V30 4621 N 433.255 1.32997 -5.65059 0
M  V30 4622 H 436.02 -1.41268 -2.64317 0
M  V30 4623 H 433.581 -0.888386 -1.35349 0
M  V30 4624 H 435.573 0.737115 -3.97931 0
M  V30 4625 H 434.143 1.01935 -2.95513 0
M  V30 4626 H 433.363 -1.35111 -3.70322 0
M  V30 4627 H 434.651 -1.2974 -4.91981 0
M  V30 4628 H 434.049 1.85536 -5.34409 0
M  V30 4629 H 432.606 1.77095 -6.2728 0
M  V30 4630 N 436.039 1.36541 -0.78704 0
M  V30 4631 C 436.986 2.30082 -0.181901 0
M  V30 4632 C 437.956 1.5186 0.672896 0
M  V30 4633 O 439.141 1.80374 0.622072 0
M  V30 4634 C 436.281 3.3835 0.679197 0
M  V30 4635 C 435.394 4.31565 -0.193882 0
M  V30 4636 C 434.529 5.26915 0.673364 0
M  V30 4637 C 433.568 6.11769 -0.201315 0
M  V30 4638 N 432.705 6.99315 0.624777 0
M  V30 4639 H 437.545 2.81248 -0.985064 0
M  V30 4640 H 435.082 1.38437 -0.497342 0
M  V30 4641 H 437.04 3.99767 1.19341 0
M  V30 4642 H 435.67 2.8851 1.44781 0
M  V30 4643 H 434.722 3.71323 -0.826044 0
M  V30 4644 H 436.034 4.91191 -0.867937 0
M  V30 4645 H 435.188 5.9361 1.25348 0
M  V30 4646 H 433.927 4.67737 1.38105 0
M  V30 4647 H 432.932 5.44039 -0.793849 0
M  V30 4648 H 434.157 6.73022 -0.906568 0
M  V30 4649 H 432.103 6.42648 1.3168 0
M  V30 4650 H 432.02 7.56 0.00835237 0
M  V30 4651 H 433.288 7.70382 1.18879 0
M  V30 4652 N 437.518 0.538854 1.48102 0
M  V30 4653 C 438.481 -0.208395 2.28251 0
M  V30 4654 C 439.481 -0.859656 1.35892 0
M  V30 4655 O 440.671 -0.71834 1.58699 0
M  V30 4656 C 437.803 -1.30252 3.15035 0
M  V30 4657 H 438.996 0.495407 2.9578 0
M  V30 4658 H 436.549 0.295112 1.53489 0
M  V30 4659 H 437.284 -2.0393 2.52157 0
M  V30 4660 H 437.069 -0.840551 3.82985 0
M  V30 4661 H 438.559 -1.82787 3.75471 0
M  V30 4662 N 438.996 -1.55193 0.274407 0
M  V30 4663 C 439.959 -2.212 -0.600279 0
M  V30 4664 C 440.959 -1.18963 -1.08187 0
M  V30 4665 O 442.149 -1.43873 -0.982158 0
M  V30 4666 C 439.281 -2.87739 -1.82809 0
M  V30 4667 H 440.474 -2.9989 -0.0239682 0
M  V30 4668 H 438.027 -1.5628 0.0250192 0
M  V30 4669 H 438.762 -2.13058 -2.44493 0
M  V30 4670 H 438.547 -3.62658 -1.49069 0
M  V30 4671 H 440.037 -3.38171 -2.45011 0
M  V30 4672 N 440.474 -0.00167713 -1.576 0
M  V30 4673 C 441.406 1.0174 -2.05382 0
M  V30 4674 C 442.419 1.30595 -0.972052 0
M  V30 4675 O 443.608 1.27542 -1.24882 0
M  V30 4676 C 440.708 2.35174 -2.44022 0
M  V30 4677 C 439.881 2.25234 -3.74951 0
M  V30 4678 C 438.94 3.4137 -4.00441 0
M  V30 4679 O 437.966 3.19483 -4.71083 0
M  V30 4680 N 439.168 4.64275 -3.48467 0
M  V30 4681 H 441.933 0.609902 -2.93428 0
M  V30 4682 H 439.494 0.185672 -1.60832 0
M  V30 4683 H 441.486 3.11643 -2.58187 0
M  V30 4684 H 440.056 2.67659 -1.61485 0
M  V30 4685 H 439.276 1.33664 -3.70847 0
M  V30 4686 H 440.564 2.15767 -4.60784 0
M  V30 4687 H 439.962 4.84955 -2.91264 0
M  V30 4688 H 438.519 5.38005 -3.67959 0
M  V30 4689 N 441.952 1.55251 0.271103 0
M  V30 4690 C 442.885 1.83191 1.36075 0
M  V30 4691 C 443.863 0.685091 1.47463 0
M  V30 4692 O 445.047 0.928292 1.64058 0
M  V30 4693 C 442.174 1.99521 2.73696 0
M  V30 4694 C 441.22 3.22081 2.79582 0
M  V30 4695 S 442.053 4.79388 2.38636 0
M  V30 4696 C 443.209 4.98693 3.78228 0
M  V30 4697 H 443.442 2.75327 1.12171 0
M  V30 4698 H 440.975 1.47046 0.470833 0
M  V30 4699 H 442.933 2.09613 3.52948 0
M  V30 4700 H 441.594 1.0827 2.9485 0
M  V30 4701 H 440.787 3.304 3.80594 0
M  V30 4702 H 440.389 3.10589 2.08352 0
M  V30 4703 H 442.681 4.84551 4.73515 0
M  V30 4704 H 443.624 6.00738 3.7486 0
M  V30 4705 H 444.032 4.26665 3.69618 0
M  V30 4706 N 443.43 -0.535701 1.48216 0
M  V30 4707 C 444.393 -1.623 1.61838 0
M  V30 4708 C 445.393 -1.53087 0.492024 0
M  V30 4709 O 446.583 -1.5686 0.757668 0
M  V30 4710 C 443.715 -3.01907 1.58319 0
M  V30 4711 H 444.908 -1.51564 2.58783 0
M  V30 4712 H 442.461 -0.757317 1.36727 0
M  V30 4713 H 443.196 -3.18155 0.628299 0
M  V30 4714 H 442.981 -3.10003 2.40085 0
M  V30 4715 H 444.471 -3.80969 1.71033 0
M  V30 4716 N 444.908 -1.36708 -0.784132 0
M  V30 4717 C 445.871 -1.31307 -1.87859 0
M  V30 4718 C 446.871 -0.219654 -1.59293 0
M  V30 4719 O 448.061 -0.47476 -1.67606 0
M  V30 4720 C 445.193 -1.03679 -3.24751 0
M  V30 4721 H 446.386 -2.28647 -1.94064 0
M  V30 4722 H 443.939 -1.21558 -0.98252 0
M  V30 4723 H 444.674 -0.0681936 -3.24228 0
M  V30 4724 H 444.459 -1.82811 -3.46876 0
M  V30 4725 H 445.949 -1.02518 -4.04821 0
M  V30 4726 N 446.386 1.0089 -1.21074 0
M  V30 4727 C 447.349 2.0775 -0.968129 0
M  V30 4728 C 448.349 1.6069 0.0593445 0
M  V30 4729 O 449.539 1.73293 -0.177525 0
M  V30 4730 C 446.671 3.37794 -0.459108 0
M  V30 4731 H 447.864 2.30707 -1.9161 0
M  V30 4732 H 445.417 1.17807 -1.02719 0
M  V30 4733 H 446.152 3.20516 0.49397 0
M  V30 4734 H 445.937 3.7328 -1.20019 0
M  V30 4735 H 447.427 4.16454 -0.309099 0
M  V30 4736 N 447.864 1.01787 1.20321 0
M  V30 4737 C 449.112 0.706538 1.89347 0
M  V30 4738 C 449.433 -0.766289 1.79313 0
M  V30 4739 O 448.703 -1.55126 1.19635 0
M  V30 4740 H 447.283 0.258348 0.700903 0
M  V30 4741 H 449.945 1.28974 1.46122 0
M  V30 4742 H 449.041 0.991066 2.95946 0
M  V30 4743 N 449.342 -1.36122 0.79427 0
M  V30 4744 C 450.274 -2.28683 0.153903 0
M  V30 4745 C 451.287 -1.49707 -0.639669 0
M  V30 4746 O 452.476 -1.7209 -0.474054 0
M  V30 4747 C 449.576 -3.29202 -0.804921 0
M  V30 4748 C 448.749 -4.37358 -0.060366 0
M  V30 4749 C 447.808 -5.17811 -0.935849 0
M  V30 4750 O 446.834 -5.67853 -0.391309 0
M  V30 4751 N 448.036 -5.34721 -2.25951 0
M  V30 4752 H 450.801 -2.84278 0.949008 0
M  V30 4753 H 448.362 -1.4834 0.648611 0
M  V30 4754 H 450.354 -3.79914 -1.39455 0
M  V30 4755 H 448.924 -2.74212 -1.50088 0
M  V30 4756 H 448.144 -3.87746 0.710382 0
M  V30 4757 H 449.432 -5.06777 0.45324 0
M  V30 4758 H 448.83 -4.95687 -2.72601 0
M  V30 4759 H 447.387 -5.88657 -2.79867 0
M  V30 4760 N 450.82 -0.546701 -1.47814 0
M  V30 4761 C 452.048 -0.0232857 -2.06887 0
M  V30 4762 C 452.463 1.26571 -1.4009 0
M  V30 4763 O 451.82 1.7569 -0.493906 0
M  V30 4764 C 451.871 0.186975 -3.61016 0
M  V30 4765 O 451.592 -1.05097 -4.25307 0
M  V30 4766 C 453.093 0.748872 -4.36929 0
M  V30 4767 H 450.313 -0.0410763 -0.669742 0
M  V30 4768 H 452.857 -0.757117 -1.89968 0
M  V30 4769 H 451.012 0.870903 -3.77484 0
M  V30 4770 H 451.426 -0.842121 -5.17695 0
M  V30 4771 H 452.9 0.845334 -5.45489 0
M  V30 4772 H 453.377 1.75772 -4.02493 0
M  V30 4773 H 453.983 0.100979 -4.2518 0
M  V30 4774 N 452.299 1.55045 -0.282633 0
M  V30 4775 C 453.262 2.21515 0.588539 0
M  V30 4776 C 454.262 1.19535 1.07554 0
M  V30 4777 O 455.452 1.44391 0.974514 0
M  V30 4778 C 452.584 2.88704 1.8128 0
M  V30 4779 H 453.777 2.99899 0.00806397 0
M  V30 4780 H 451.33 1.56265 -0.0333067 0
M  V30 4781 H 452.065 2.14352 2.43359 0
M  V30 4782 H 451.85 3.63443 1.47144 0
M  V30 4783 H 453.34 3.39465 2.43214 0
M  V30 4784 N 453.777 0.010035 1.57597 0
M  V30 4785 C 454.709 -1.00649 2.05918 0
M  V30 4786 C 455.722 -1.30077 0.978964 0
M  V30 4787 O 456.911 -1.26878 1.25556 0
M  V30 4788 C 454.011 -2.33876 2.45265 0
M  V30 4789 C 453.184 -2.23242 3.7614 0
M  V30 4790 C 452.243 -3.39242 4.02245 0
M  V30 4791 O 451.269 -3.1698 4.72771 0
M  V30 4792 N 452.471 -4.6242 3.50924 0
M  V30 4793 H 455.236 -0.594333 2.93748 0
M  V30 4794 H 452.797 -0.17714 1.60928 0
M  V30 4795 H 454.789 -3.1027 2.59836 0
M  V30 4796 H 453.359 -2.66799 1.62902 0
M  V30 4797 H 452.579 -1.31696 3.71551 0
M  V30 4798 H 453.867 -2.13321 4.61922 0
M  V30 4799 H 453.265 -4.83404 2.93832 0
M  V30 4800 H 451.822 -5.36046 3.70807 0
M  V30 4801 N 455.255 -1.55392 -0.262866 0
M  V30 4802 C 456.203 -1.8977 -1.345 0
M  V30 4803 C 457.197 -0.775063 -1.50629 0
M  V30 4804 O 458.403 -0.959519 -1.52293 0
M  V30 4805 H 454.778 -0.602467 -0.450041 0
M  V30 4806 H 456.749 -2.80147 -1.02762 0
M  V30 4807 C 455.498 -2.19501 -2.69657 0
M  V30 4808 H 454.821 -3.05378 -2.5804 0
M  V30 4809 H 456.261 -2.47469 -3.44289 0
M  V30 4810 C 454.72 -1.00597 -3.21531 0
M  V30 4811 O 455.25 -0.245768 -4.00947 0
M  V30 4812 N 453.456 -0.800911 -2.79345 0
M  V30 4813 H 453.003 -1.42079 -2.14875 0
M  V30 4814 H 452.961 -0.00697996 -3.14399 0
M  V30 4815 N 456.733 0.527833 -1.48498 0
M  V30 4816 C 458.01 1.28905 -1.47115 0
M  V30 4817 C 458.39 2.10297 -0.184007 0
M  V30 4818 O 457.738 2.12728 0.834218 0
M  V30 4819 C 457.948 2.16866 -2.73441 0
M  V30 4820 C 459.296 2.76936 -3.21857 0
M  V30 4821 O 460.32 2.27152 -2.74373 0
M  V30 4822 O 459.179 3.67496 -4.04486 0
M  V30 4823 H 456.273 0.581918 -0.587623 0
M  V30 4824 H 458.819 0.544311 -1.60734 0
M  V30 4825 H 457.591 1.56521 -3.58632 0
M  V30 4826 H 457.214 2.98583 -2.62553 0
M  V30 4827 O 458.25 1.46817 0.672841 0
M  V30 4828 H 458.941 1.41236 1.3256 0
M  V30 END ATOM
M  V30 BEGIN BOND
M  V30 END BOND
M  V30 END CTAB
M  END
$$$$
