drugbank_target|P0AFG8 Pyruvate dehydrogenase E1 component (DB01987)
 OpenBabel12092120033D

  0  0  0     0  0            999 V3000
M  V30 BEGIN CTAB
M  V30 COUNTS 13877 14033 0 0 0
M  V30 BEGIN ATOM
M  V30 1 H -0.908 1.98254 -0.117106 0
M  V30 2 N 0 1.576 0 0
M  V30 3 C 0.933 2.03868 1.02534 0
M  V30 4 C 1.911 0.928543 1.3348 0
M  V30 5 O 3.095 1.19667 1.45644 0
M  V30 6 C 0.222 2.43627 2.35294 0
M  V30 7 C -0.732 3.65373 2.2001 0
M  V30 8 S 0.101 5.13292 1.52614 0
M  V30 9 C 1.257 5.56322 2.86805 0
M  V30 10 H 1.49 2.90518 0.631377 0
M  V30 11 H -0.977 1.52953 0.210867 0
M  V30 12 H 0.981 2.67203 3.11629 0
M  V30 13 H -0.358 1.57376 2.7183 0
M  V30 14 H -1.165 3.90944 3.18086 0
M  V30 15 H -1.563 3.418 1.51819 0
M  V30 16 H 0.729 5.58782 3.83104 0
M  V30 17 H 1.672 6.56266 2.65933 0
M  V30 18 H 2.08 4.83886 2.90714 0
M  V30 19 N 1.4781 -0.272755 1.55222 0
M  V30 20 C 2.7031 -1.02683 1.80197 0
M  V30 21 C 3.1281 -1.79142 0.573551 0
M  V30 22 O 2.4861 -1.74917 -0.476849 0
M  V30 23 C 2.5341 -1.9609 3.02624 0
M  V30 24 O 1.6381 -3.04863 2.77727 0
M  V30 25 H 0.9791 -0.293557 0.595584 0
M  V30 26 H 3.5091 -0.30159 2.02365 0
M  V30 27 H 3.5191 -2.38039 3.31363 0
M  V30 28 H 2.1941 -1.39851 3.91682 0
M  V30 29 H 0.7711 -2.67228 2.60084 0
M  V30 30 N 2.9562 -1.48159 -0.537278 0
M  V30 31 C 3.8662 -1.64807 -1.6696 0
M  V30 32 C 4.8822 -0.530651 -1.65711 0
M  V30 33 O 6.0582 -0.800784 -1.84796 0
M  V30 34 C 3.1232 -1.67708 -3.03438 0
M  V30 35 C 2.1842 -2.91025 -3.156 0
M  V30 36 C 1.4172 -2.93778 -4.45567 0
M  V30 37 O 1.6402 -2.05153 -5.3223 0
M  V30 38 O 0.5742 -3.85868 -4.61941 0
M  V30 39 H 4.4002 -2.6066 -1.55853 0
M  V30 40 H 1.9852 -1.31475 -0.709549 0
M  V30 41 H 3.8672 -1.7218 -3.84619 0
M  V30 42 H 2.5422 -0.750278 -3.14885 0
M  V30 43 H 1.4492 -2.92089 -2.33741 0
M  V30 44 H 2.7822 -3.83065 -3.09066 0
M  V30 45 N 4.4343 0.785586 -1.36625 0
M  V30 46 C 5.8503 1.08419 -1.17122 0
M  V30 47 C 6.0503 2.015 0.00208491 0
M  V30 48 O 5.1063 2.43551 0.666278 0
M  V30 49 C 6.4193 1.69498 -2.48377 0
M  V30 50 C 7.9673 1.81821 -2.54775 0
M  V30 51 C 8.4423 2.46315 -3.86126 0
M  V30 52 N 9.9333 2.53779 -3.87492 0
M  V30 53 C 10.6683 3.045 -4.85868 0
M  V30 54 N 10.1643 3.55499 -5.94637 0
M  V30 55 N 11.9573 3.03247 -4.73284 0
M  V30 56 H 4.1083 0.167264 -2.1174 0
M  V30 57 H 6.3713 0.13682 -0.938075 0
M  V30 58 H 6.0773 1.08571 -3.34522 0
M  V30 59 H 5.9513 2.6896 -2.64462 0
M  V30 60 H 8.3383 2.41884 -1.69045 0
M  V30 61 H 8.4193 0.811532 -2.42586 0
M  V30 62 H 8.0633 1.86895 -4.72263 0
M  V30 63 H 7.9933 3.47561 -3.95612 0
M  V30 64 H 10.4843 2.17672 -3.08913 0
M  V30 65 H 10.7973 3.92562 -6.65669 0
M  V30 66 H 9.1423 3.5364 -5.98301 0
M  V30 67 H 12.3333 2.62696 -3.87438 0
M  V30 68 H 12.5063 3.42467 -5.50109 0
M  V30 69 N 5.9124 1.20967 1.01018 0
M  V30 70 C 7.1594 1.02374 1.74716 0
M  V30 71 C 7.4874 -0.443375 1.89379 0
M  V30 72 O 6.7424 -1.34535 1.42123 0
M  V30 73 C 7.0414 1.65997 3.16512 0
M  V30 74 C 6.7074 3.15831 3.2181 0
M  V30 75 C 5.3694 3.56719 3.22963 0
M  V30 76 C 7.7214 4.11816 3.19464 0
M  V30 77 C 5.0494 4.92107 3.19449 0
M  V30 78 C 7.4014 5.47158 3.17491 0
M  V30 79 C 6.0654 5.87451 3.16951 0
M  V30 80 H 5.3354 0.374614 0.639332 0
M  V30 81 H 7.9824 1.50485 1.18434 0
M  V30 82 H 6.2874 1.10166 3.75993 0
M  V30 83 H 7.9844 1.49119 3.72242 0
M  V30 84 H 4.5744 2.83263 3.21652 0
M  V30 85 H 8.7584 3.81257 3.17737 0
M  V30 86 H 4.0144 5.22579 3.17366 0
M  V30 87 H 8.1884 6.21274 3.14629 0
M  V30 88 H 5.8154 6.92329 3.13983 0
M  V30 89 N 7.3905 -1.2043 1.01659 0
M  V30 90 C 8.8015 -1.71517 0.737482 0
M  V30 91 C 9.1525 -1.81547 -0.743973 0
M  V30 92 O 8.2775 -1.47803 -1.58061 0
M  V30 93 C 8.8725 -3.11515 1.33206 0
M  V30 94 C 7.4315 -3.59912 1.10183 0
M  V30 95 C 6.5785 -2.37116 1.43776 0
M  V30 96 H 9.5295 -1.05444 1.18606 0
M  V30 97 H 9.5505 -3.73575 0.722636 0
M  V30 98 H 9.0625 -3.04182 2.41028 0
M  V30 99 H 7.1635 -3.72577 0.0412756 0
M  V30 100 H 7.2765 -4.44731 1.78188 0
M  V30 101 H 5.6405 -2.39857 0.856778 0
M  V30 102 H 6.4235 -2.32424 2.52654 0
M  V30 103 N 8.8686 -0.792821 -1.36206 0
M  V30 104 C 9.8166 -0.181555 -2.3189 0
M  V30 105 C 10.8106 0.661025 -1.55971 0
M  V30 106 O 12.0166 0.555728 -1.71206 0
M  V30 107 H 8.3916 -0.0399382 -0.750939 0
M  V30 108 H 10.3626 -1.00394 -2.81005 0
M  V30 109 C 9.1116 0.666444 -3.41253 0
M  V30 110 H 8.4346 0.0274489 -3.99791 0
M  V30 111 H 9.8746 1.06076 -4.10517 0
M  V30 112 C 8.3336 1.82614 -2.83114 0
M  V30 113 O 8.8636 2.9229 -2.75553 0
M  V30 114 N 7.0696 1.63333 -2.40356 0
M  V30 115 H 6.6166 0.741217 -2.46706 0
M  V30 116 H 6.5746 2.41087 -2.01803 0
M  V30 117 N 10.3467 1.47872 -0.545128 0
M  V30 118 C 11.6237 1.9554 0.0485222 0
M  V30 119 C 12.0037 1.4876 1.49779 0
M  V30 120 O 11.3517 0.720925 2.16829 0
M  V30 121 C 11.5617 3.48898 -0.084417 0
M  V30 122 C 12.9097 4.24547 0.0671239 0
M  V30 123 O 13.9337 3.56198 -0.0113649 0
M  V30 124 O 12.7927 5.45999 0.233882 0
M  V30 125 H 9.8867 0.823957 0.0708773 0
M  V30 126 H 12.4327 1.58327 -0.610798 0
M  V30 127 H 11.2047 3.75714 -1.09337 0
M  V30 128 H 10.8277 3.92845 0.613066 0
M  V30 129 N 11.8248 0.280983 1.55075 0
M  V30 130 C 13.0708 -0.33461 2.00021 0
M  V30 131 C 13.4038 -1.55063 1.16915 0
M  V30 132 O 12.6788 -1.93006 0.240646 0
M  V30 133 C 12.9618 -0.711007 3.53011 0
M  V30 134 C 12.8148 0.512766 4.46868 0
M  V30 135 C 14.1338 -1.54522 4.12081 0
M  V30 136 H 11.2528 -0.120147 0.727141 0
M  V30 137 H 13.8948 0.389097 1.85973 0
M  V30 138 H 12.0448 -1.32761 3.65112 0
M  V30 139 H 13.7168 1.15131 4.46702 0
M  V30 140 H 11.9598 1.14975 4.18286 0
M  V30 141 H 12.6308 0.205556 5.51617 0
M  V30 142 H 15.1068 -1.02442 4.03293 0
M  V30 143 H 13.9828 -1.77739 5.19327 0
M  V30 144 H 14.2438 -2.52813 3.62682 0
M  V30 145 N 13.3029 -1.57598 0.00835791 0
M  V30 146 C 14.5799 -1.82172 -0.712235 0
M  V30 147 C 14.9599 -0.887873 -1.9152 0
M  V30 148 O 14.3079 0.06146 -2.28417 0
M  V30 149 C 14.5179 -3.30875 -1.11008 0
M  V30 150 C 15.8659 -3.96826 -1.51044 0
M  V30 151 O 16.8899 -3.35248 -1.20364 0
M  V30 152 O 15.7489 -5.05318 -2.08125 0
M  V30 153 H 12.8429 -0.750435 -0.347529 0
M  V30 154 H 15.3889 -1.69665 0.0344523 0
M  V30 155 H 14.1609 -3.90481 -0.252982 0
M  V30 156 H 13.7839 -3.48412 -1.9156 0
M  V30 157 N 14.781 0.264519 -1.55364 0
M  V30 158 C 16.192 0.834936 -1.6699 0
M  V30 159 C 16.543 1.86718 -0.602552 0
M  V30 160 O 15.668 2.14899 0.254425 0
M  V30 161 C 16.263 1.5212 -3.02729 0
M  V30 162 C 14.822 2.03954 -3.16354 0
M  V30 163 C 13.969 0.884498 -2.62815 0
M  V30 164 H 16.92 0.0406869 -1.58648 0
M  V30 165 H 16.941 2.38853 -2.96191 0
M  V30 166 H 16.453 0.769668 -3.80392 0
M  V30 167 H 14.554 2.82041 -2.43482 0
M  V30 168 H 14.667 2.24902 -4.23032 0
M  V30 169 H 13.031 1.2802 -2.20188 0
M  V30 170 H 13.814 0.14634 -3.42988 0
M  V30 171 N 16.2591 1.48442 0.529413 0
M  V30 172 C 17.5081 1.55742 1.28169 0
M  V30 173 C 17.8211 0.236511 1.94165 0
M  V30 174 O 19.0271 0.187761 2.7085 0
M  V30 175 C 17.4831 2.74667 2.32564 0
M  V30 176 C 17.0911 4.13402 1.72636 0
M  V30 177 C 18.8351 2.9128 3.08798 0
M  V30 178 C 16.7421 5.23587 2.74975 0
M  V30 179 H 15.6721 0.579796 0.48203 0
M  V30 180 H 18.3231 1.74776 0.559056 0
M  V30 181 H 16.7051 2.49067 3.07866 0
M  V30 182 H 17.8791 4.49022 1.03519 0
M  V30 183 H 16.1941 4.0191 1.08892 0
M  V30 184 H 18.7911 3.70767 3.85274 0
M  V30 185 H 19.1341 2.00757 3.64695 0
M  V30 186 H 19.6671 3.16782 2.40611 0
M  V30 187 H 16.4061 6.16076 2.23897 0
M  V30 188 H 15.9261 4.92454 3.42417 0
M  V30 189 H 17.6051 5.51724 3.37949 0
M  V30 190 N 17.7372 -0.778329 1.37039 0
M  V30 191 C 18.6472 -1.92253 1.34446 0
M  V30 192 C 19.6632 -1.72267 0.244991 0
M  V30 193 O 20.8392 -1.95615 0.479258 0
M  V30 194 C 17.9042 -3.27282 1.144 0
M  V30 195 C 16.9652 -3.59969 2.33925 0
M  V30 196 C 16.1982 -4.88555 2.14825 0
M  V30 197 O 16.4212 -5.59113 1.12912 0
M  V30 198 O 15.3552 -5.20153 3.02861 0
M  V30 199 H 19.1812 -1.97392 2.30803 0
M  V30 200 H 16.7662 -0.920154 1.17701 0
M  V30 201 H 18.6482 -4.08062 1.05182 0
M  V30 202 H 17.3232 -3.23011 0.211124 0
M  V30 203 H 16.2302 -2.7945 2.48714 0
M  V30 204 H 17.5632 -3.68976 3.25757 0
M  V30 205 N 19.2153 -1.21501 -1.00376 0
M  V30 206 C 20.4433 -1.059 -1.77744 0
M  V30 207 C 20.8583 0.391125 -1.84704 0
M  V30 208 O 20.2153 1.27133 -1.30933 0
M  V30 209 C 20.2663 -1.65111 -3.21591 0
M  V30 210 O 19.9873 -3.0445 -3.15027 0
M  V30 211 C 21.4883 -1.54637 -4.15454 0
M  V30 212 H 18.7083 -0.371825 -0.558558 0
M  V30 213 H 21.2523 -1.60865 -1.26264 0
M  V30 214 H 19.4073 -1.14235 -3.70175 0
M  V30 215 H 19.8213 -3.3278 -4.0541 0
M  V30 216 H 21.2953 -2.00808 -5.14179 0
M  V30 217 H 21.7723 -0.501022 -4.36333 0
M  V30 218 H 22.3783 -2.04767 -3.72761 0
M  V30 219 N 20.6934 1.19889 -1.02296 0
M  V30 220 C 22.1094 1.41462 -0.738954 0
M  V30 221 C 22.3094 1.89721 0.678846 0
M  V30 222 O 21.3654 2.07016 1.4457 0
M  V30 223 C 22.6784 2.43083 -1.77005 0
M  V30 224 C 24.2264 2.5684 -1.78892 0
M  V30 225 C 24.7014 3.61709 -2.80945 0
M  V30 226 N 26.1924 3.69199 -2.79725 0
M  V30 227 C 26.9274 4.50019 -3.55345 0
M  V30 228 N 26.4234 5.34592 -4.40662 0
M  V30 229 N 28.2164 4.44612 -3.43914 0
M  V30 230 H 20.3674 0.868827 -1.93817 0
M  V30 231 H 22.6304 0.44399 -0.837602 0
M  V30 232 H 22.3364 2.14636 -2.78612 0
M  V30 233 H 22.2104 3.4217 -1.58744 0
M  V30 234 H 24.5974 2.84614 -0.779674 0
M  V30 235 H 24.6784 1.57927 -2.01228 0
M  V30 236 H 24.3224 3.34678 -3.82038 0
M  V30 237 H 24.2524 4.60259 -2.5587 0
M  V30 238 H 26.7434 3.08794 -2.17842 0
M  V30 239 H 27.0564 5.93363 -4.95116 0
M  V30 240 H 25.4014 5.34073 -4.44737 0
M  V30 241 H 28.5924 3.7758 -2.76679 0
M  V30 242 H 28.7654 5.0736 -4.031 0
M  V30 243 N 22.1715 0.800033 1.35784 0
M  V30 244 C 23.4485 0.30088 1.93272 0
M  V30 245 C 23.8285 -1.20857 1.73081 0
M  V30 246 O 23.1765 -2.00502 1.09596 0
M  V30 247 C 23.3865 0.70511 3.41803 0
M  V30 248 C 24.7345 0.690871 4.18942 0
M  V30 249 O 25.7585 0.646244 3.50289 0
M  V30 250 O 24.6175 0.74332 5.41421 0
M  V30 251 H 21.7115 0.0771605 0.823393 0
M  V30 252 H 24.2575 0.88329 1.449 0
M  V30 253 H 23.0295 1.74571 3.50201 0
M  V30 254 H 22.6525 0.0971541 3.97481 0
M  V30 255 N 23.6496 -1.47581 0.552962 0
M  V30 256 C 24.8956 -2.03369 0.0355807 0
M  V30 257 C 25.2506 -1.42016 -1.29805 0
M  V30 258 O 24.5436 -0.564917 -1.83083 0
M  V30 259 C 24.7376 -3.57199 -0.119728 0
M  V30 260 C 24.5666 -4.33468 1.1973 0
M  V30 261 C 23.3366 -4.7353 1.76345 0
M  V30 262 C 25.5346 -4.68866 2.11351 0
M  V30 263 N 23.5166 -5.34426 3.02097 0
M  V30 264 C 24.8876 -5.3002 3.21681 0
M  V30 265 C 26.9426 -4.50795 2.11397 0
M  V30 266 C 25.6456 -5.75011 4.32151 0
M  V30 267 C 27.6716 -4.96782 3.20876 0
M  V30 268 C 27.0336 -5.57981 4.29926 0
M  V30 269 H 23.1326 -0.780058 0.0550806 0
M  V30 270 H 25.7166 -1.80117 0.739315 0
M  V30 271 H 23.8876 -3.80227 -0.792579 0
M  V30 272 H 25.6196 -3.99627 -0.638792 0
M  V30 273 H 22.3746 -4.55352 1.30196 0
M  V30 274 H 22.7986 -5.69421 3.66182 0
M  V30 275 H 27.4406 -4.0284 1.28372 0
M  V30 276 H 25.1586 -6.21959 5.15938 0
M  V30 277 H 28.7446 -4.84573 3.21994 0
M  V30 278 H 27.6246 -5.92918 5.13243 0
M  V30 279 N 25.1277 -0.289203 -1.54924 0
M  V30 280 C 26.0577 0.58549 -2.2604 0
M  V30 281 C 27.0387 1.14753 -1.25562 0
M  V30 282 O 28.2237 1.17906 -1.54311 0
M  V30 283 C 25.3537 1.76305 -2.99222 0
M  V30 284 C 24.3077 1.33191 -4.06748 0
M  V30 285 C 23.6337 2.5937 -4.6758 0
M  V30 286 C 24.9337 0.471775 -5.20165 0
M  V30 287 H 26.6277 -0.00763532 -2.99399 0
M  V30 288 H 24.1737 -0.00511229 -1.43999 0
M  V30 289 H 26.1267 2.38097 -3.47689 0
M  V30 290 H 24.8507 2.38223 -2.23422 0
M  V30 291 H 23.5097 0.737121 -3.59113 0
M  V30 292 H 23.1577 3.19576 -3.88433 0
M  V30 293 H 22.8577 2.31228 -5.40192 0
M  V30 294 H 24.3817 3.21985 -5.18804 0
M  V30 295 H 25.7957 0.995056 -5.64599 0
M  V30 296 H 24.1927 0.284639 -5.99425 0
M  V30 297 H 25.2627 -0.506041 -4.82252 0
M  V30 298 N 26.6058 1.57591 -0.0167156 0
M  V30 299 C 27.5378 2.06343 0.997753 0
M  V30 300 C 28.5508 0.984469 1.29661 0
M  V30 301 O 29.7398 1.26093 1.26344 0
M  V30 302 C 26.8398 2.46255 2.32834 0
M  V30 303 C 26.0128 3.77083 2.21646 0
M  V30 304 C 25.0718 4.0368 3.37534 0
M  V30 305 O 24.0978 4.7411 3.14973 0
M  V30 306 N 25.2998 3.52881 4.60929 0
M  V30 307 H 28.0648 2.93997 0.581875 0
M  V30 308 H 25.6258 1.61002 0.170316 0
M  V30 309 H 27.6178 2.61149 3.09166 0
M  V30 310 H 26.1878 1.64032 2.66106 0
M  V30 311 H 25.4078 3.72106 1.30119 0
M  V30 312 H 26.6958 4.62822 2.11361 0
M  V30 313 H 26.0938 2.95878 4.82154 0
M  V30 314 H 24.6508 3.73076 5.34469 0
M  V30 315 N 28.0839 -0.256276 1.55502 0
M  V30 316 C 29.0469 -1.30047 1.88734 0
M  V30 317 C 30.0469 -1.4154 0.763086 0
M  V30 318 O 31.2369 -1.40403 1.03115 0
M  V30 319 C 28.3689 -2.67953 2.10747 0
M  V30 320 H 29.5619 -1.01802 2.82093 0
M  V30 321 H 27.1149 -0.495134 1.4825 0
M  V30 322 H 27.8499 -3.01351 1.19825 0
M  V30 323 H 27.6349 -2.60993 2.92617 0
M  V30 324 H 29.1249 -3.43368 2.37673 0
M  V30 325 N 29.562 -1.4872 -0.521534 0
M  V30 326 C 30.811 -1.56419 -1.27341 0
M  V30 327 C 31.124 -0.246805 -1.94037 0
M  V30 328 O 32.33 -0.202122 -2.70747 0
M  V30 329 C 30.786 -2.75896 -2.31105 0
M  V30 330 C 30.394 -4.14311 -1.70441 0
M  V30 331 C 32.138 -2.92913 -3.07249 0
M  V30 332 C 30.045 -5.25038 -2.72194 0
M  V30 333 H 28.975 -0.582344 -0.478949 0
M  V30 334 H 31.626 -1.75071 -0.549779 0
M  V30 335 H 30.008 -2.50697 -3.06541 0
M  V30 336 H 31.182 -4.49564 -1.01136 0
M  V30 337 H 29.497 -4.02482 -1.06759 0
M  V30 338 H 32.094 -3.72805 -3.83302 0
M  V30 339 H 32.437 -2.02689 -3.63625 0
M  V30 340 H 32.97 -3.18054 -2.38928 0
M  V30 341 H 29.709 -6.17255 -2.20627 0
M  V30 342 H 29.229 -4.94263 -3.39801 0
M  V30 343 H 30.908 -5.53508 -3.35019 0
M  V30 344 N 31.0401 0.771051 -1.3745 0
M  V30 345 C 31.9501 1.91538 -1.35464 0
M  V30 346 C 32.9661 1.72134 -0.254123 0
M  V30 347 O 34.1421 1.95358 -0.489626 0
M  V30 348 C 31.2071 3.26671 -1.16134 0
M  V30 349 C 30.2681 3.58723 -2.35831 0
M  V30 350 C 29.5011 4.87409 -2.17413 0
M  V30 351 O 29.7241 5.58506 -1.15876 0
M  V30 352 O 28.6581 5.18539 -3.05615 0
M  V30 353 H 32.4841 1.96165 -2.31847 0
M  V30 354 H 30.0691 0.9139 -1.18187 0
M  V30 355 H 31.9511 4.07499 -1.07345 0
M  V30 356 H 30.6261 3.22894 -0.228251 0
M  V30 357 H 29.5331 2.78127 -2.50192 0
M  V30 358 H 30.8661 3.67243 -3.27709 0
M  V30 359 N 32.5182 1.22032 0.997298 0
M  V30 360 C 33.7432 1.06921 1.77715 0
M  V30 361 C 34.1682 -0.376226 1.84299 0
M  V30 362 O 33.5262 -1.27165 1.29223 0
M  V30 363 C 33.5742 1.67996 3.19076 0
M  V30 364 O 32.6782 0.930653 4.01762 0
M  V30 365 H 32.0192 0.375814 0.547412 0
M  V30 366 H 34.5492 1.61737 1.25309 0
M  V30 367 H 34.5592 1.72538 3.69723 0
M  V30 368 H 33.2342 2.73182 3.13599 0
M  V30 369 H 31.8112 0.960917 3.60307 0
M  V30 370 N 33.9963 -1.19345 1.0293 0
M  V30 371 C 35.2423 -1.89318 0.727083 0
M  V30 372 C 35.5753 -1.79446 -0.742483 0
M  V30 373 O 34.8503 -1.1871 -1.54072 0
M  V30 374 C 35.1333 -3.40238 1.17942 0
M  V30 375 C 34.9863 -3.58979 2.71024 0
M  V30 376 C 36.3053 -4.33479 0.760548 0
M  V30 377 H 33.4243 -0.687475 0.265606 0
M  V30 378 H 36.0663 -1.40477 1.2793 0
M  V30 379 H 34.2163 -3.81964 0.709608 0
M  V30 380 H 35.8883 -3.26421 3.25955 0
M  V30 381 H 34.1313 -3.02018 3.11396 0
M  V30 382 H 34.8023 -4.64823 2.9773 0
M  V30 383 H 37.2783 -3.99469 1.16464 0
M  V30 384 H 36.1543 -5.37664 1.10493 0
M  V30 385 H 36.4153 -4.40813 -0.337063 0
M  V30 386 N 35.4744 -0.807222 -1.35358 0
M  V30 387 C 36.7234 -0.384376 -1.98004 0
M  V30 388 C 37.0364 1.0543 -1.64754 0
M  V30 389 O 38.2424 1.58029 -2.20769 0
M  V30 390 C 36.6984 -0.636326 -3.5423 0
M  V30 391 C 36.3064 -2.08759 -3.96388 0
M  V30 392 C 38.0504 -0.278869 -4.23583 0
M  V30 393 C 35.9574 -2.28525 -5.45463 0
M  V30 394 H 34.8874 -0.139986 -0.740891 0
M  V30 395 H 37.5384 -0.991369 -1.54415 0
M  V30 396 H 35.9204 0.0406256 -3.95979 0
M  V30 397 H 37.0944 -2.8024 -3.6579 0
M  V30 398 H 35.4094 -2.40497 -3.39926 0
M  V30 399 H 38.0064 -0.404599 -5.33167 0
M  V30 400 H 38.3494 0.775012 -4.09022 0
M  V30 401 H 38.8824 -0.909764 -3.87257 0
M  V30 402 H 35.6214 -3.32361 -5.64992 0
M  V30 403 H 35.1414 -1.61569 -5.77629 0
M  V30 404 H 36.8204 -2.10109 -6.11934 0
M  V30 405 N 36.9525 1.47285 -0.560781 0
M  V30 406 C 38.3685 1.58065 -0.22081 0
M  V30 407 C 38.5685 1.55892 1.27671 0
M  V30 408 O 37.6245 1.46422 2.0571 0
M  V30 409 C 38.9375 2.88418 -0.850625 0
M  V30 410 C 40.4855 3.02009 -0.822184 0
M  V30 411 C 40.9605 4.35066 -1.43113 0
M  V30 412 N 42.4515 4.41711 -1.39448 0
M  V30 413 C 43.1865 5.43237 -1.83525 0
M  V30 414 N 42.6825 6.51555 -2.35474 0
M  V30 415 N 44.4755 5.34304 -1.74574 0
M  V30 416 H 36.6265 1.46941 -1.53369 0
M  V30 417 H 38.8895 0.699558 -0.639783 0
M  V30 418 H 38.5955 2.95755 -1.9032 0
M  V30 419 H 38.4695 3.75612 -0.345773 0
M  V30 420 H 40.8565 2.94266 0.221714 0
M  V30 421 H 40.9375 2.16347 -1.36483 0
M  V30 422 H 40.5815 4.43565 -2.47412 0
M  V30 423 H 40.5115 5.19465 -0.863899 0
M  V30 424 H 43.0025 3.64027 -1.01452 0
M  V30 425 H 43.3155 7.25203 -2.67021 0
M  V30 426 H 41.6605 6.52435 -2.39487 0
M  V30 427 H 44.8515 4.48581 -1.33763 0
M  V30 428 H 45.0245 6.13288 -2.09242 0
M  V30 429 N 38.4306 0.297415 1.54768 0
M  V30 430 C 39.3406 -0.58983 2.27064 0
M  V30 431 C 40.3566 -1.15144 1.30453 0
M  V30 432 O 41.5326 -1.17699 1.63428 0
M  V30 433 C 38.5976 -1.74714 2.9946 0
M  V30 434 C 37.6586 -1.21997 4.11601 0
M  V30 435 C 36.8916 -2.32212 4.80535 0
M  V30 436 O 37.1146 -3.52036 4.48806 0
M  V30 437 O 36.0486 -1.99106 5.68014 0
M  V30 438 H 39.8746 -0.00348199 3.037 0
M  V30 439 H 37.4596 0.0640035 1.49263 0
M  V30 440 H 39.3416 -2.42147 3.44881 0
M  V30 441 H 38.0166 -2.32016 2.25722 0
M  V30 442 H 36.9236 -0.511458 3.70587 0
M  V30 443 H 38.2566 -0.692419 4.87305 0
M  V30 444 N 39.9087 -1.5758 0.0250728 0
M  V30 445 C 40.8187 -2.1343 -0.973905 0
M  V30 446 C 41.8347 -1.08556 -1.35984 0
M  V30 447 O 43.0107 -1.40592 -1.44207 0
M  V30 448 C 40.0757 -2.64703 -2.23904 0
M  V30 449 C 39.1367 -3.84276 -1.91391 0
M  V30 450 C 38.3697 -4.33095 -3.11873 0
M  V30 451 O 38.5927 -3.81107 -4.24398 0
M  V30 452 O 37.5267 -5.24984 -2.94406 0
M  V30 453 H 41.3527 -2.99057 -0.529036 0
M  V30 454 H 38.9377 -1.48118 -0.195288 0
M  V30 455 H 40.8197 -2.97769 -2.98181 0
M  V30 456 H 39.4947 -1.82161 -2.6758 0
M  V30 457 H 38.4017 -3.56143 -1.14511 0
M  V30 458 H 39.7347 -4.67968 -1.52534 0
M  V30 459 N 41.3868 0.248026 -1.55636 0
M  V30 460 C 42.6348 0.974295 -1.77065 0
M  V30 461 C 42.9558 1.85897 -0.588849 0
M  V30 462 O 42.2258 1.91868 0.395407 0
M  V30 463 H 40.8058 0.362733 -0.653019 0
M  V30 464 H 43.4678 0.266244 -1.93073 0
M  V30 465 H 42.5638 1.59667 -2.68166 0
M  V30 466 N 42.8649 1.48995 0.513639 0
M  V30 467 C 44.1109 1.58076 1.27042 0
M  V30 468 C 44.4439 0.261026 1.92438 0
M  V30 469 O 43.7189 -0.734393 1.80103 0
M  V30 470 C 44.0019 2.73091 2.34719 0
M  V30 471 C 43.8549 4.14821 1.73907 0
M  V30 472 C 45.1739 2.83796 3.36375 0
M  V30 473 H 42.2929 0.575391 0.460536 0
M  V30 474 H 44.9349 1.81232 0.570516 0
M  V30 475 H 43.0849 2.53479 2.94416 0
M  V30 476 H 44.7569 4.45917 1.18135 0
M  V30 477 H 42.9999 4.21058 1.0437 0
M  V30 478 H 43.6709 4.91147 2.51949 0
M  V30 479 H 46.1469 3.01611 2.86653 0
M  V30 480 H 45.0229 3.65971 4.09093 0
M  V30 481 H 45.2839 1.92624 3.9793 0
M  V30 482 N 44.343 -0.763751 1.37857 0
M  V30 483 C 45.253 -1.90817 1.36478 0
M  V30 484 C 46.269 -1.71997 0.263248 0
M  V30 485 O 47.445 -1.95095 0.499979 0
M  V30 486 C 44.51 -3.2605 1.17864 0
M  V30 487 C 43.571 -3.57467 2.3773 0
M  V30 488 C 42.804 -4.86249 2.19995 0
M  V30 489 O 43.027 -5.57884 1.18836 0
M  V30 490 O 41.961 -5.16911 3.08361 0
M  V30 491 H 45.787 -1.94933 2.32884 0
M  V30 492 H 43.372 -0.907619 1.1867 0
M  V30 493 H 45.254 -4.06924 1.09504 0
M  V30 494 H 43.929 -3.22769 0.245372 0
M  V30 495 H 42.836 -2.76796 2.51664 0
M  V30 496 H 44.169 -3.655 3.29652 0
M  V30 497 N 45.8211 -1.22559 -0.990812 0
M  V30 498 C 47.2371 -0.985996 -1.255 0
M  V30 499 C 47.4371 0.319173 -1.98956 0
M  V30 500 O 46.4931 1.04127 -2.3003 0
M  V30 501 C 47.8061 -2.18607 -2.06474 0
M  V30 502 C 49.3541 -2.22985 -2.19651 0
M  V30 503 C 49.8291 -3.4255 -3.04012 0
M  V30 504 N 51.3201 -3.42725 -3.11599 0
M  V30 505 C 52.0551 -4.31892 -3.7717 0
M  V30 506 N 51.5511 -5.31279 -4.44651 0
M  V30 507 N 53.3441 -4.19662 -3.73952 0
M  V30 508 H 45.4951 -2.06469 -0.49841 0
M  V30 509 H 47.7581 -0.904853 -0.282747 0
M  V30 510 H 47.4641 -3.13267 -1.59865 0
M  V30 511 H 47.3381 -2.18838 -3.07229 0
M  V30 512 H 49.7251 -1.28871 -2.65474 0
M  V30 513 H 49.8061 -2.26791 -1.18319 0
M  V30 514 H 49.4501 -4.36965 -2.58889 0
M  V30 515 H 49.3801 -3.35984 -4.0549 0
M  V30 516 H 51.8711 -2.70807 -2.63575 0
M  V30 517 H 52.1841 -5.95593 -4.92431 0
M  V30 518 H 50.5291 -5.3519 -4.43392 0
M  V30 519 H 53.7201 -3.41268 -3.20396 0
M  V30 520 H 53.8931 -4.89358 -4.24774 0
M  V30 521 N 47.2992 1.18797 -1.03562 0
M  V30 522 C 48.2622 2.20464 -0.626769 0
M  V30 523 C 49.2622 1.57721 0.313173 0
M  V30 524 O 50.4522 1.73917 0.0992615 0
M  V30 525 C 47.5842 3.40802 0.0818498 0
M  V30 526 H 48.7772 2.58149 -1.5264 0
M  V30 527 H 46.3302 1.32593 -0.827578 0
M  V30 528 H 47.0652 3.08642 0.995518 0
M  V30 529 H 46.8502 3.8758 -0.593652 0
M  V30 530 H 48.3402 4.16092 0.354584 0
M  V30 531 N 48.7773 0.814389 1.34928 0
M  V30 532 C 49.7093 0.187834 2.28429 0
M  V30 533 C 50.7223 -0.617374 1.5064 0
M  V30 534 O 51.9113 -0.448454 1.72775 0
M  V30 535 C 49.0113 -0.755962 3.30361 0
M  V30 536 C 48.1843 0.00456686 4.374 0
M  V30 537 C 47.2433 -0.858876 5.19143 0
M  V30 538 O 46.2693 -0.306968 5.68372 0
M  V30 539 N 47.4713 -2.17988 5.38016 0
M  V30 540 H 50.2363 0.991105 2.82838 0
M  V30 541 H 47.7973 0.670561 1.4736 0
M  V30 542 H 49.7893 -1.338 3.81942 0
M  V30 543 H 48.3593 -1.46001 2.7641 0
M  V30 544 H 47.5793 0.767865 3.86649 0
M  V30 545 H 48.8673 0.528422 5.06049 0
M  V30 546 H 48.2653 -2.65212 4.99679 0
M  V30 547 H 46.8223 -2.71098 5.92747 0
M  V30 548 N 50.2554 -1.46986 0.568584 0
M  V30 549 C 51.4854 -2.0653 0.0539173 0
M  V30 550 C 51.8934 -1.42004 -1.25026 0
M  V30 551 O 51.2364 -0.514541 -1.76347 0
M  V30 552 C 51.2984 -3.58938 -0.200854 0
M  V30 553 C 50.9624 -4.45572 1.01559 0
M  V30 554 C 51.9594 -4.82986 1.92407 0
M  V30 555 C 49.6444 -4.8692 1.23346 0
M  V30 556 C 51.6384 -5.60559 3.03402 0
M  V30 557 C 49.3254 -5.64255 2.34649 0
M  V30 558 C 50.3234 -6.00986 3.24507 0
M  V30 559 O 50.0114 -6.76761 4.33878 0
M  V30 560 H 49.7434 -0.674292 0.0480234 0
M  V30 561 H 52.2974 -1.89812 0.784896 0
M  V30 562 H 50.5274 -3.73911 -0.986279 0
M  V30 563 H 52.2164 -4.0046 -0.662294 0
M  V30 564 H 52.9824 -4.51633 1.76785 0
M  V30 565 H 48.8614 -4.57789 0.543178 0
M  V30 566 H 52.4054 -5.89147 3.73565 0
M  V30 567 H 48.3024 -5.95021 2.5024 0
M  V30 568 H 49.0704 -6.95168 4.32068 0
M  V30 569 N 51.7335 -0.305618 -1.54608 0
M  V30 570 C 52.6635 0.561482 -2.26649 0
M  V30 571 C 53.6445 1.13415 -1.26772 0
M  V30 572 O 54.8295 1.16262 -1.55553 0
M  V30 573 C 51.9595 1.73122 -3.01075 0
M  V30 574 C 50.9135 1.2887 -4.08138 0
M  V30 575 C 50.2395 2.54396 -4.70305 0
M  V30 576 C 51.5395 0.416578 -5.20636 0
M  V30 577 H 53.2335 -0.0393902 -2.99374 0
M  V30 578 H 50.7795 -0.020385 -1.43986 0
M  V30 579 H 52.7325 2.34396 -3.50195 0
M  V30 580 H 51.4565 2.3584 -2.25936 0
M  V30 581 H 50.1155 0.698991 -3.59875 0
M  V30 582 H 49.7635 3.15439 -3.918 0
M  V30 583 H 49.4635 2.25486 -5.42614 0
M  V30 584 H 50.9875 3.16464 -5.2219 0
M  V30 585 H 52.4015 0.935116 -5.65622 0
M  V30 586 H 50.7985 0.221046 -5.99693 0
M  V30 587 H 51.8685 -0.557162 -4.81688 0
M  V30 588 N 53.2116 1.57565 -0.0334293 0
M  V30 589 C 54.4606 1.91155 0.643639 0
M  V30 590 C 54.7736 0.91192 1.73042 0
M  V30 591 O 55.9796 1.13923 2.46442 0
M  V30 592 C 54.4356 3.39443 1.1961 0
M  V30 593 C 54.0436 4.47774 0.142381 0
M  V30 594 C 55.7876 3.82094 1.84944 0
M  V30 595 C 53.6946 5.87162 0.706727 0
M  V30 596 H 52.6246 0.713368 0.244176 0
M  V30 597 H 55.2756 1.8323 -0.0994323 0
M  V30 598 H 53.6576 3.42313 1.99092 0
M  V30 599 H 54.8316 4.56469 -0.630296 0
M  V30 600 H 53.1466 4.14352 -0.412446 0
M  V30 601 H 55.7436 4.83591 2.2813 0
M  V30 602 H 56.0866 3.17386 2.69392 0
M  V30 603 H 56.6196 3.81665 1.12145 0
M  V30 604 H 53.3586 6.55424 -0.0997178 0
M  V30 605 H 52.8786 5.82064 1.44779 0
M  V30 606 H 54.5576 6.35866 1.19514 0
M  V30 607 N 54.6897 -0.239769 1.55765 0
M  V30 608 C 55.9667 -0.990056 1.68693 0
M  V30 609 C 56.3467 -2.03107 0.5754 0
M  V30 610 O 55.6947 -2.24604 -0.42017 0
M  V30 611 C 55.9047 -1.61696 3.09282 0
M  V30 612 C 57.2527 -2.11613 3.6811 0
M  V30 613 O 58.2767 -1.71624 3.12127 0
M  V30 614 O 57.1357 -2.85057 4.66267 0
M  V30 615 H 54.2297 -0.461299 0.686391 0
M  V30 616 H 56.7757 -0.232991 1.68093 0
M  V30 617 H 55.5477 -0.864357 3.81634 0
M  V30 618 H 55.1707 -2.44005 3.13923 0
M  V30 619 N 56.1678 -1.49265 -0.50573 0
M  V30 620 C 57.0998 -1.617 -1.62437 0
M  V30 621 C 58.1128 -0.499924 -1.54934 0
M  V30 622 O 59.3018 -0.771785 -1.60953 0
M  V30 623 C 56.4018 -1.5533 -3.01207 0
M  V30 624 C 55.5748 -2.8249 -3.33943 0
M  V30 625 C 54.6338 -2.69238 -4.52103 0
M  V30 626 O 53.6598 -3.43167 -4.5412 0
M  V30 627 N 54.8618 -1.80468 -5.51735 0
M  V30 628 H 57.6268 -2.58177 -1.52199 0
M  V30 629 H 55.1878 -1.46294 -0.693511 0
M  V30 630 H 57.1798 -1.44125 -3.78167 0
M  V30 631 H 55.7498 -0.667297 -3.05395 0
M  V30 632 H 54.9698 -3.08081 -2.45926 0
M  V30 633 H 56.2578 -3.66802 -3.5261 0
M  V30 634 H 55.6558 -1.19653 -5.52901 0
M  V30 635 H 54.2128 -1.75188 -6.27816 0
M  V30 636 N 57.6459 0.756429 -1.3826 0
M  V30 637 C 58.5759 1.88374 -1.37976 0
M  V30 638 C 59.5569 1.68311 -0.246082 0
M  V30 639 O 60.7419 1.88944 -0.44874 0
M  V30 640 C 57.8719 3.25864 -1.20125 0
M  V30 641 C 56.8259 3.60523 -2.30666 0
M  V30 642 C 56.1519 4.9672 -1.97923 0
M  V30 643 C 57.4519 3.65692 -3.72916 0
M  V30 644 H 59.1459 1.88869 -2.32312 0
M  V30 645 H 56.6919 0.907272 -1.11824 0
M  V30 646 H 58.6449 4.0438 -1.18552 0
M  V30 647 H 57.3689 3.25841 -0.222498 0
M  V30 648 H 56.0279 2.84324 -2.3142 0
M  V30 649 H 55.6759 4.93253 -0.985393 0
M  V30 650 H 55.3759 5.20878 -2.71955 0
M  V30 651 H 56.8999 5.77618 -1.97964 0
M  V30 652 H 58.3139 4.34328 -3.74208 0
M  V30 653 H 56.7109 4.01358 -4.4613 0
M  V30 654 H 57.7809 2.65987 -4.05436 0
M  V30 655 N 59.124 1.23083 0.984299 0
M  V30 656 C 60.054 1.03292 2.09411 0
M  V30 657 C 61.035 -0.048923 1.7003 0
M  V30 658 O 62.22 0.114967 1.93859 0
M  V30 659 C 59.35 0.619155 3.41736 0
M  V30 660 C 58.304 1.64791 3.95004 0
M  V30 661 C 57.63 1.0897 5.23478 0
M  V30 662 C 58.93 3.03999 4.24714 0
M  V30 663 H 60.624 1.96119 2.26225 0
M  V30 664 H 58.17 0.944344 1.08711 0
M  V30 665 H 60.123 0.467777 4.18796 0
M  V30 666 H 58.847 -0.344786 3.24775 0
M  V30 667 H 57.506 1.78721 3.20085 0
M  V30 668 H 57.154 0.11686 5.02864 0
M  V30 669 H 56.854 1.77704 5.60085 0
M  V30 670 H 58.378 0.950093 6.03163 0
M  V30 671 H 59.792 2.93393 4.92538 0
M  V30 672 H 58.189 3.69936 4.72512 0
M  V30 673 H 59.259 3.53285 3.32142 0
M  V30 674 N 60.6021 -1.18246 1.0419 0
M  V30 675 C 61.5651 -2.20128 0.638452 0
M  V30 676 C 62.5651 -1.57885 -0.304805 0
M  V30 677 O 63.7551 -1.73967 -0.0900369 0
M  V30 678 C 60.8871 -3.4084 -0.0637751 0
M  V30 679 H 62.0801 -2.57336 1.54007 0
M  V30 680 H 59.6331 -1.32152 0.834598 0
M  V30 681 H 60.3681 -3.09166 -0.979136 0
M  V30 682 H 60.1531 -3.8726 0.614198 0
M  V30 683 H 61.6431 -4.16274 -0.332512 0
M  V30 684 N 62.0802 -0.821533 -1.34494 0
M  V30 685 C 62.9902 -0.244355 -2.33324 0
M  V30 686 C 64.0062 0.620527 -1.62559 0
M  V30 687 O 65.1822 0.528754 -1.94335 0
M  V30 688 C 62.2472 0.585368 -3.41723 0
M  V30 689 C 61.3082 -0.301752 -4.28238 0
M  V30 690 C 60.5412 0.488466 -5.3146 0
M  V30 691 O 60.7642 1.72186 -5.4379 0
M  V30 692 O 59.6982 -0.12848 -6.01763 0
M  V30 693 H 63.5242 -1.06231 -2.84515 0
M  V30 694 H 61.1092 -0.583645 -1.37528 0
M  V30 695 H 62.9912 1.05747 -4.07916 0
M  V30 696 H 61.6662 1.38068 -2.92778 0
M  V30 697 H 60.5732 -0.821315 -3.64973 0
M  V30 698 H 61.9062 -1.06138 -4.8062 0
M  V30 699 N 63.5583 1.46682 -0.576371 0
M  V30 700 C 64.5213 2.28707 0.150239 0
M  V30 701 C 65.5213 1.38035 0.824794 0
M  V30 702 O 66.7113 1.60476 0.677719 0
M  V30 703 C 63.8433 3.18248 1.22192 0
M  V30 704 H 65.0363 2.94423 -0.570521 0
M  V30 705 H 62.5893 1.52688 -0.334078 0
M  V30 706 H 63.3243 2.57265 1.97447 0
M  V30 707 H 63.1093 3.85 0.742812 0
M  V30 708 H 64.5993 3.80001 1.73172 0
M  V30 709 N 65.0364 0.313813 1.54444 0
M  V30 710 C 66.4524 -0.0391619 1.59552 0
M  V30 711 C 66.6524 -1.51322 1.33056 0
M  V30 712 O 65.7084 -2.26782 1.11022 0
M  V30 713 C 67.0214 0.370302 2.98411 0
M  V30 714 C 68.5694 0.320139 3.11358 0
M  V30 715 C 69.0444 0.704617 4.52547 0
M  V30 716 N 70.5354 0.657645 4.58508 0
M  V30 717 C 71.2704 0.927453 5.6585 0
M  V30 718 N 70.7664 1.26389 6.81174 0
M  V30 719 N 72.5594 0.853662 5.5558 0
M  V30 720 H 64.7104 1.27433 1.69925 0
M  V30 721 H 66.9734 0.517511 0.794284 0
M  V30 722 H 66.6794 1.39694 3.22767 0
M  V30 723 H 66.5534 -0.269619 3.76235 0
M  V30 724 H 68.9404 -0.697275 2.86744 0
M  V30 725 H 69.0214 0.99486 2.35661 0
M  V30 726 H 68.6654 1.7199 4.77893 0
M  V30 727 H 68.5954 0.00768843 5.26599 0
M  V30 728 H 71.0864 0.409067 3.75679 0
M  V30 729 H 71.3994 1.4554 7.58972 0
M  V30 730 H 69.7444 1.30206 6.82694 0
M  V30 731 H 72.9354 0.590383 4.64362 0
M  V30 732 H 73.1084 1.0673 6.3915 0
M  V30 733 N 66.5145 -1.57545 0.0417849 0
M  V30 734 C 67.4615 -2.10977 -0.935805 0
M  V30 735 C 68.4315 -1.01486 -1.31491 0
M  V30 736 O 69.6165 -1.2898 -1.40602 0
M  V30 737 C 66.7565 -2.65169 -2.2086 0
M  V30 738 C 65.8695 -3.88714 -1.88482 0
M  V30 739 C 65.0045 -4.31254 -3.1015 0
M  V30 740 C 64.0435 -5.47524 -2.7365 0
M  V30 741 N 63.1805 -5.85162 -3.87982 0
M  V30 742 H 68.0205 -2.94218 -0.473249 0
M  V30 743 H 65.5575 -1.45415 -0.221981 0
M  V30 744 H 67.5155 -2.94685 -2.95325 0
M  V30 745 H 66.1455 -1.8474 -2.64709 0
M  V30 746 H 65.1975 -3.65849 -1.04205 0
M  V30 747 H 66.5095 -4.73245 -1.57608 0
M  V30 748 H 65.6635 -4.62273 -3.92923 0
M  V30 749 H 64.4025 -3.45516 -3.44195 0
M  V30 750 H 63.4075 -5.16187 -1.89291 0
M  V30 751 H 64.6325 -6.34971 -2.40807 0
M  V30 752 H 62.5785 -5.02377 -4.21846 0
M  V30 753 H 62.4955 -6.64362 -3.60775 0
M  V30 754 H 63.7635 -6.20791 -4.71422 0
M  V30 755 N 67.9926 0.231505 -1.5589 0
M  V30 756 C 69.2406 0.955461 -1.78088 0
M  V30 757 C 69.5616 1.85262 -0.608533 0
M  V30 758 O 68.8316 1.92277 0.375035 0
M  V30 759 H 67.4116 0.355787 -0.656829 0
M  V30 760 H 70.0736 0.245751 -1.93344 0
M  V30 761 H 69.1696 1.56814 -2.69844 0
M  V30 762 N 69.4707 1.49531 0.497807 0
M  V30 763 C 70.7187 1.58865 1.24926 0
M  V30 764 C 71.0397 0.278721 1.92998 0
M  V30 765 O 70.3097 -0.702144 1.82885 0
M  V30 766 H 68.8897 0.585343 0.464094 0
M  V30 767 H 71.5517 1.86174 0.57666 0
M  V30 768 H 70.6477 2.38633 2.01149 0
M  V30 769 N 70.9488 -0.749086 1.3866 0
M  V30 770 C 72.1948 -1.51056 1.35314 0
M  V30 771 C 72.5278 -1.94121 -0.0553751 0
M  V30 772 O 71.8028 -1.65763 -1.01749 0
M  V30 773 C 72.0858 -2.76003 2.31288 0
M  V30 774 C 71.9388 -2.39047 3.8102 0
M  V30 775 C 73.2578 -3.78046 2.2532 0
M  V30 776 H 70.3768 -0.547972 0.492844 0
M  V30 777 H 73.0188 -0.857628 1.69543 0
M  V30 778 H 71.1688 -3.31716 2.02229 0
M  V30 779 H 72.8408 -1.89074 4.20771 0
M  V30 780 H 71.0838 -1.71449 3.98482 0
M  V30 781 H 71.7548 -3.28462 4.4364 0
M  V30 782 H 74.2308 -3.31884 2.50983 0
M  V30 783 H 73.1068 -4.63159 2.94576 0
M  V30 784 H 73.3678 -4.23957 1.25352 0
M  V30 785 N 72.4269 -1.23603 -0.977757 0
M  V30 786 C 73.3749 -1.01704 -2.09187 0
M  V30 787 C 74.3689 0.0448214 -1.69341 0
M  V30 788 O 75.5749 -0.108902 -1.7967 0
M  V30 789 H 71.9499 -0.311803 -0.684312 0
M  V30 790 H 73.9209 -1.96207 -2.24823 0
M  V30 791 C 72.6699 -0.627746 -3.41986 0
M  V30 792 H 71.9929 -1.43656 -3.73099 0
M  V30 793 H 73.4329 -0.514053 -4.20872 0
M  V30 794 C 71.8919 0.664238 -3.30287 0
M  V30 795 O 72.4219 1.71268 -3.6336 0
M  V30 796 N 70.6279 0.641156 -2.83439 0
M  V30 797 H 70.1749 -0.212376 -2.56723 0
M  V30 798 H 70.1329 1.50583 -2.75993 0
M  V30 799 N 73.905 1.17692 -1.04816 0
M  V30 800 C 75.151 1.88137 -0.75711 0
M  V30 801 C 75.484 1.80604 0.713841 0
M  V30 802 O 74.759 1.21146 1.52164 0
M  V30 803 C 75.042 3.38318 -1.2334 0
M  V30 804 C 74.895 3.54622 -2.76701 0
M  V30 805 C 76.214 4.32214 -0.829415 0
M  V30 806 H 73.333 0.683163 -0.27651 0
M  V30 807 H 75.975 1.38424 -1.30149 0
M  V30 808 H 74.125 3.80787 -0.770286 0
M  V30 809 H 75.797 3.21194 -3.31107 0
M  V30 810 H 74.04 2.97026 -3.16161 0
M  V30 811 H 74.711 4.60028 -3.05088 0
M  V30 812 H 77.187 3.97565 -1.22805 0
M  V30 813 H 76.063 5.35838 -1.19033 0
M  V30 814 H 76.324 4.41294 0.266891 0
M  V30 815 N 75.3831 0.828654 1.34056 0
M  V30 816 C 76.3461 0.259927 2.27721 0
M  V30 817 C 77.3461 -0.565478 1.50529 0
M  V30 818 O 78.5361 -0.38075 1.69988 0
M  V30 819 C 75.6681 -0.634944 3.34935 0
M  V30 820 H 76.8611 1.0863 2.79534 0
M  V30 821 H 74.4141 0.600951 1.44285 0
M  V30 822 H 75.1491 -1.48416 2.88346 0
M  V30 823 H 74.9341 -0.0444999 3.92075 0
M  V30 824 H 76.4241 -1.02648 4.04788 0
M  V30 825 N 76.8612 -1.46375 0.584142 0
M  V30 826 C 77.8242 -2.28784 -0.138108 0
M  V30 827 C 78.8242 -1.38471 -0.817462 0
M  V30 828 O 80.0142 -1.60833 -0.669199 0
M  V30 829 C 77.1462 -3.18892 -1.20503 0
M  V30 830 H 78.3392 -2.94117 0.586127 0
M  V30 831 H 75.8922 -1.52509 0.342171 0
M  V30 832 H 76.6272 -2.58309 -1.96079 0
M  V30 833 H 76.4122 -3.85388 -0.722384 0
M  V30 834 H 77.9022 -3.80914 -1.71155 0
M  V30 835 N 78.3393 -0.321999 -1.54275 0
M  V30 836 C 79.5873 0.280489 -2.00144 0
M  V30 837 C 79.9083 1.52777 -1.21178 0
M  V30 838 O 79.1783 1.9338 -0.313187 0
M  V30 839 H 77.7583 0.106632 -0.73935 0
M  V30 840 H 80.4203 -0.438184 -1.8991 0
M  V30 841 H 79.5163 0.537972 -3.07428 0
M  V30 842 N 79.8174 1.5752 -0.0501392 0
M  V30 843 C 81.0454 1.96963 0.633492 0
M  V30 844 C 81.4604 0.927631 1.6444 0
M  V30 845 O 80.8174 -0.0882665 1.82286 0
M  V30 846 C 80.8684 3.36487 1.32132 0
M  V30 847 O 80.5894 4.36693 0.350894 0
M  V30 848 C 82.0904 3.90682 2.09481 0
M  V30 849 H 79.3104 0.648244 0.173266 0
M  V30 850 H 81.8544 2.0417 -0.116134 0
M  V30 851 H 80.0094 3.30434 2.02218 0
M  V30 852 H 80.4234 5.17702 0.841735 0
M  V30 853 H 81.8974 4.90591 2.5303 0
M  V30 854 H 82.3744 3.26053 2.94255 0
M  V30 855 H 82.9804 4.00069 1.44307 0
M  V30 856 N 81.2955 -0.223234 1.56011 0
M  V30 857 C 82.5435 -0.946003 1.78592 0
M  V30 858 C 82.8645 -1.84936 0.618349 0
M  V30 859 O 82.1345 -1.92473 -0.364833 0
M  V30 860 H 80.7145 -0.352298 0.658707 0
M  V30 861 H 83.3765 -0.235494 1.93472 0
M  V30 862 H 82.4725 -1.55381 2.70672 0
M  V30 863 N 82.7736 -1.49793 -0.48987 0
M  V30 864 C 84.0226 -1.59085 -1.23995 0
M  V30 865 C 84.3356 -0.287907 -1.9347 0
M  V30 866 O 85.5416 -0.259506 -2.70257 0
M  V30 867 C 83.9976 -2.80736 -2.252 0
M  V30 868 C 83.6056 -4.17833 -1.61614 0
M  V30 869 C 85.3496 -2.99364 -3.00967 0
M  V30 870 C 83.2566 -5.30693 -2.60996 0
M  V30 871 H 82.1866 -0.592372 -0.466488 0
M  V30 872 H 84.8376 -1.76197 -0.51252 0
M  V30 873 H 83.2196 -2.57142 -3.01154 0
M  V30 874 H 84.3936 -4.51608 -0.915774 0
M  V30 875 H 82.7086 -4.04656 -0.981977 0
M  V30 876 H 85.3056 -3.80851 -3.75308 0
M  V30 877 H 85.6486 -2.10356 -3.59244 0
M  V30 878 H 86.1816 -3.2305 -2.32128 0
M  V30 879 H 82.9206 -6.21796 -2.07485 0
M  V30 880 H 82.4406 -5.01359 -3.2924 0
M  V30 881 H 84.1196 -5.6049 -3.23202 0
M  V30 882 N 84.2517 0.741722 -1.39055 0
M  V30 883 C 85.4767 1.53607 -1.39354 0
M  V30 884 C 85.9017 1.88096 0.0116905 0
M  V30 885 O 85.2597 1.5143 0.996924 0
M  V30 886 C 85.3077 2.80441 -2.26682 0
M  V30 887 O 84.4117 3.76088 -1.69208 0
M  V30 888 H 83.7527 0.464142 -0.474835 0
M  V30 889 H 86.2827 0.915665 -1.82967 0
M  V30 890 H 86.2927 3.29246 -2.40959 0
M  V30 891 H 84.9677 2.5467 -3.2881 0
M  V30 892 H 83.5447 3.34833 -1.64138 0
M  V30 893 N 85.7298 1.2412 0.971189 0
M  V30 894 C 86.6778 1.02812 2.08644 0
M  V30 895 C 87.6718 -0.0358403 1.69362 0
M  V30 896 O 88.8778 0.118429 1.7961 0
M  V30 897 H 85.2528 0.315428 0.682649 0
M  V30 898 H 87.2238 1.97397 2.23779 0
M  V30 899 C 85.9728 0.645874 3.41649 0
M  V30 900 H 85.2958 1.45632 3.72332 0
M  V30 901 H 86.7358 0.536366 4.20594 0
M  V30 902 C 85.1948 -0.646713 3.30635 0
M  V30 903 O 85.7248 -1.69338 3.64263 0
M  V30 904 N 83.9308 -0.626115 2.83775 0
M  V30 905 H 83.4778 0.225988 2.56607 0
M  V30 906 H 83.4358 -1.49117 2.76788 0
M  V30 907 N 87.2079 -1.17134 1.05439 0
M  V30 908 C 88.4379 -1.91094 0.785274 0
M  V30 909 C 88.8459 -1.77198 -0.663142 0
M  V30 910 O 88.1889 -1.10835 -1.46497 0
M  V30 911 C 88.2509 -3.42594 1.08949 0
M  V30 912 C 87.9149 -3.80274 2.53458 0
M  V30 913 C 88.9119 -3.82912 3.51673 0
M  V30 914 C 86.5969 -4.11162 2.88532 0
M  V30 915 C 88.5909 -4.15913 4.83006 0
M  V30 916 C 86.2779 -4.43831 4.20068 0
M  V30 917 C 87.2759 -4.46185 5.17115 0
M  V30 918 O 86.9639 -4.78083 6.46291 0
M  V30 919 H 86.6959 -0.613073 0.284811 0
M  V30 920 H 89.2499 -1.49461 1.40893 0
M  V30 921 H 87.4799 -3.84534 0.408741 0
M  V30 922 H 89.1689 -3.97817 0.805991 0
M  V30 923 H 89.9349 -3.5917 3.25917 0
M  V30 924 H 85.8139 -4.085 2.13656 0
M  V30 925 H 89.3579 -4.17665 5.5875 0
M  V30 926 H 85.2549 -4.67037 4.45586 0
M  V30 927 H 86.0229 -4.9593 6.51149 0
M  V30 928 N 88.686 -0.835752 -1.33615 0
M  V30 929 C 89.935 -0.426289 -1.97144 0
M  V30 930 C 90.248 1.01912 -1.66953 0
M  V30 931 O 91.454 1.53311 -2.24072 0
M  V30 932 C 89.91 -0.711321 -3.52801 0
M  V30 933 C 89.518 -2.1712 -3.91871 0
M  V30 934 C 91.262 -0.368654 -4.22896 0
M  V30 935 C 89.169 -2.40044 -5.40493 0
M  V30 936 H 88.099 -0.15567 -0.737755 0
M  V30 937 H 90.75 -1.0239 -1.52278 0
M  V30 938 H 89.132 -0.0433766 -3.95976 0
M  V30 939 H 90.306 -2.87936 -3.59763 0
M  V30 940 H 88.621 -2.47654 -3.34749 0
M  V30 941 H 91.218 -0.517601 -5.32189 0
M  V30 942 H 91.561 0.688078 -4.10574 0
M  V30 943 H 92.094 -0.991702 -3.8524 0
M  V30 944 H 88.833 -3.44271 -5.57815 0
M  V30 945 H 88.353 -1.73785 -5.74072 0
M  V30 946 H 90.032 -2.23042 -6.0734 0
M  V30 947 N 90.1641 1.46063 -0.591896 0
M  V30 948 C 91.1121 2.32124 0.148739 0
M  V30 949 C 92.1061 1.45035 0.875286 0
M  V30 950 O 93.3121 1.61609 0.792632 0
M  V30 951 H 89.6871 0.749024 0.066832 0
M  V30 952 H 91.6581 2.92392 -0.595783 0
M  V30 953 C 90.4071 3.28373 1.1431 0
M  V30 954 H 89.7301 3.95371 0.59346 0
M  V30 955 H 91.1701 3.91352 1.63155 0
M  V30 956 C 89.6291 2.54393 2.20875 0
M  V30 957 O 90.1591 2.31373 3.28374 0
M  V30 958 N 88.3651 2.14797 1.95731 0
M  V30 959 H 87.9121 2.33719 1.08319 0
M  V30 960 H 87.8701 1.65619 2.67241 0
M  V30 961 N 91.6422 0.330177 1.54103 0
M  V30 962 C 92.8702 -0.272179 2.05102 0
M  V30 963 C 93.2852 -1.45267 1.20595 0
M  V30 964 O 92.6422 -1.8094 0.238144 0
M  V30 965 C 92.6932 -0.70023 3.54653 0
M  V30 966 O 92.4142 0.433301 4.35952 0
M  V30 967 C 93.9152 -1.3647 4.21771 0
M  V30 968 H 91.1352 -0.0549159 0.668749 0
M  V30 969 H 93.6792 0.478285 1.98828 0
M  V30 970 H 91.8342 -1.40066 3.61193 0
M  V30 971 H 92.2482 0.0947539 5.24414 0
M  V30 972 H 93.7222 -1.61509 5.27843 0
M  V30 973 H 94.1992 -2.31409 3.73292 0
M  V30 974 H 94.8052 -0.706675 4.19388 0
M  V30 975 N 93.1203 -1.57491 0.0584922 0
M  V30 976 C 94.3693 -1.92155 -0.613146 0
M  V30 977 C 94.6823 -0.939334 -1.71569 0
M  V30 978 O 95.8883 -1.17829 -2.44599 0
M  V30 979 C 94.3443 -3.41303 -1.14195 0
M  V30 980 C 93.9523 -4.47944 -0.0711265 0
M  V30 981 C 95.6963 -3.84988 -1.78841 0
M  V30 982 C 93.6033 -5.88212 -0.613225 0
M  V30 983 H 92.5333 -0.717162 -0.232796 0
M  V30 984 H 95.1843 -1.83049 0.12857 0
M  V30 985 H 93.5663 -3.45437 -1.93621 0
M  V30 986 H 94.7403 -4.55408 0.702836 0
M  V30 987 H 93.0553 -4.13644 0.478313 0
M  V30 988 H 95.6523 -4.87159 -2.20408 0
M  V30 989 H 95.9953 -3.21632 -2.64308 0
M  V30 990 H 96.5283 -3.83401 -1.06059 0
M  V30 991 H 93.2673 -6.55183 0.203978 0
M  V30 992 H 92.7873 -5.84294 -1.35501 0
M  V30 993 H 94.4663 -6.37687 -1.09383 0
M  V30 994 N 94.5984 0.214957 -1.56127 0
M  V30 995 C 96.0094 0.781386 -1.69562 0
M  V30 996 C 96.3604 1.84707 -0.66165 0
M  V30 997 O 95.4854 2.156 0.185927 0
M  V30 998 C 96.0804 1.42411 -3.07416 0
M  V30 999 C 94.6394 1.93786 -3.22683 0
M  V30 1000 C 93.7864 0.800438 -2.65496 0
M  V30 1001 H 96.7374 -0.00980633 -1.58697 0
M  V30 1002 H 96.7584 2.29309 -3.0364 0
M  V30 1003 H 96.2704 0.64826 -3.82648 0
M  V30 1004 H 94.3714 2.74152 -2.52332 0
M  V30 1005 H 94.4844 2.1133 -4.29973 0
M  V30 1006 H 92.8484 1.2095 -2.2415 0
M  V30 1007 H 93.6314 0.0371471 -3.4328 0
M  V30 1008 N 96.0765 1.50051 0.48192 0
M  V30 1009 C 97.3225 1.60736 1.2366 0
M  V30 1010 C 97.6555 0.301786 1.91841 0
M  V30 1011 O 96.9305 -0.696025 1.8162 0
M  V30 1012 C 97.2135 2.78009 2.28874 0
M  V30 1013 C 97.0665 4.18416 1.65069 0
M  V30 1014 C 98.3855 2.90867 3.30279 0
M  V30 1015 H 95.5045 0.585031 0.448228 0
M  V30 1016 H 98.1465 1.82402 0.531946 0
M  V30 1017 H 96.2965 2.59667 2.88973 0
M  V30 1018 H 97.9685 4.48322 1.0865 0
M  V30 1019 H 96.2115 4.23177 0.954148 0
M  V30 1020 H 96.8825 4.96381 2.41474 0
M  V30 1021 H 99.3585 3.07623 2.80191 0
M  V30 1022 H 98.2345 3.74566 4.01238 0
M  V30 1023 H 98.4955 2.01021 3.93755 0
M  V30 1024 N 97.5546 -0.734337 1.39446 0
M  V30 1025 C 98.4646 -1.87879 1.40495 0
M  V30 1026 C 99.4806 -1.714 0.299672 0
M  V30 1027 O 100.657 -1.93991 0.541249 0
M  V30 1028 C 97.7216 -3.23477 1.24754 0
M  V30 1029 C 96.7826 -3.52344 2.45259 0
M  V30 1030 C 96.0156 -4.81473 2.30259 0
M  V30 1031 O 96.2386 -5.55237 1.30643 0
M  V30 1032 O 95.1726 -5.10254 3.19256 0
M  V30 1033 H 98.9986 -1.89949 2.36966 0
M  V30 1034 H 96.5836 -0.882243 1.20569 0
M  V30 1035 H 98.4656 -4.04509 1.18111 0
M  V30 1036 H 97.1406 -3.22176 0.313781 0
M  V30 1037 H 96.0476 -2.71396 2.57478 0
M  V30 1038 H 97.3806 -3.58426 3.37331 0
M  V30 1039 N 99.0327 -1.24633 -0.964593 0
M  V30 1040 C 99.9427 -1.05859 -2.09359 0
M  V30 1041 C 100.959 0.00148855 -1.74 0
M  V30 1042 O 102.135 -0.197346 -2.00431 0
M  V30 1043 C 99.1997 -0.668879 -3.40187 0
M  V30 1044 C 98.2607 -1.80578 -3.89474 0
M  V30 1045 C 97.4937 -1.43457 -5.14058 0
M  V30 1046 O 97.7167 -0.325775 -5.69469 0
M  V30 1047 O 96.6507 -2.2613 -5.57807 0
M  V30 1048 H 100.477 -2.00516 -2.28094 0
M  V30 1049 H 98.0617 -1.03481 -1.0776 0
M  V30 1050 H 99.9437 -0.463211 -4.18846 0
M  V30 1051 H 98.6187 0.248536 -3.22744 0
M  V30 1052 H 97.5257 -2.06623 -3.11862 0
M  V30 1053 H 98.8587 -2.70208 -4.11398 0
M  V30 1054 N 100.511 1.16574 -1.06058 0
M  V30 1055 C 101.443 2.2045 -0.627239 0
M  V30 1056 C 102.456 1.59752 0.313534 0
M  V30 1057 O 103.645 1.78192 0.104896 0
M  V30 1058 C 100.745 3.3875 0.100974 0
M  V30 1059 C 99.9178 4.29008 -0.852687 0
M  V30 1060 C 98.9768 5.25944 -0.164152 0
M  V30 1061 O 98.0028 5.63535 -0.801047 0
M  V30 1062 N 99.2048 5.70075 1.09518 0
M  V30 1063 H 101.97 2.58249 -1.52077 0
M  V30 1064 H 99.5308 1.3156 -0.943594 0
M  V30 1065 H 101.523 4.00638 0.57194 0
M  V30 1066 H 100.093 2.99476 0.89628 0
M  V30 1067 H 99.3128 3.64419 -1.50308 0
M  V30 1068 H 100.601 4.86195 -1.49972 0
M  V30 1069 H 99.9988 5.41624 1.6328 0
M  V30 1070 H 98.5558 6.34067 1.51006 0
M  V30 1071 N 101.989 0.842826 1.3317 0
M  V30 1072 C 103.4 0.496651 1.79973 0
M  V30 1073 C 103.751 -0.984641 1.69703 0
M  V30 1074 O 102.876 -1.76743 1.24863 0
M  V30 1075 C 103.471 0.894727 3.26772 0
M  V30 1076 C 102.03 0.600629 3.71577 0
M  V30 1077 C 101.177 1.10091 2.5451 0
M  V30 1078 H 104.128 1.03116 1.20635 0
M  V30 1079 H 104.149 0.206347 3.7994 0
M  V30 1080 H 103.661 1.97287 3.34215 0
M  V30 1081 H 101.762 -0.467284 3.69658 0
M  V30 1082 H 101.875 1.15863 4.64879 0
M  V30 1083 H 100.239 0.52162 2.49301 0
M  V30 1084 H 101.022 2.18591 2.64713 0
M  V30 1085 N 103.467 -1.45747 0.599634 0
M  V30 1086 C 104.377 -2.34262 -0.125888 0
M  V30 1087 C 105.393 -1.50768 -0.868625 0
M  V30 1088 O 106.569 -1.83592 -0.828003 0
M  V30 1089 C 103.634 -3.28252 -1.11587 0
M  V30 1090 C 102.695 -4.27651 -0.375956 0
M  V30 1091 C 101.928 -5.1715 -1.31877 0
M  V30 1092 O 102.151 -5.09916 -2.55621 0
M  V30 1093 O 101.085 -5.96286 -0.820157 0
M  V30 1094 H 104.911 -2.97688 0.601315 0
M  V30 1095 H 102.496 -1.44999 0.359934 0
M  V30 1096 H 104.378 -3.86191 -1.68626 0
M  V30 1097 H 103.053 -2.67401 -1.82424 0
M  V30 1098 H 101.96 -3.7335 0.236698 0
M  V30 1099 H 103.293 -4.91334 0.29177 0
M  V30 1100 N 104.945 -0.338344 -1.53925 0
M  V30 1101 C 106.175 0.260919 -2.04946 0
M  V30 1102 C 106.583 1.45174 -1.2133 0
M  V30 1103 O 105.926 1.82122 -0.240262 0
M  V30 1104 C 105.988 0.744596 -3.51704 0
M  V30 1105 C 105.652 -0.325883 -4.55837 0
M  V30 1106 C 106.649 -1.16687 -5.06636 0
M  V30 1107 C 104.334 -0.478317 -5.00017 0
M  V30 1108 C 106.328 -2.14588 -6.00192 0
M  V30 1109 C 104.015 -1.46073 -5.93385 0
M  V30 1110 C 105.013 -2.29297 -6.4336 0
M  V30 1111 O 104.701 -3.25867 -7.34892 0
M  V30 1112 H 104.433 0.0551207 -0.673749 0
M  V30 1113 H 106.987 -0.486984 -1.99544 0
M  V30 1114 H 105.217 1.54366 -3.54553 0
M  V30 1115 H 106.906 1.26383 -3.85723 0
M  V30 1116 H 107.672 -1.06016 -4.73271 0
M  V30 1117 H 103.551 0.159613 -4.60724 0
M  V30 1118 H 107.095 -2.79585 -6.39123 0
M  V30 1119 H 102.992 -1.56802 -6.26166 0
M  V30 1120 H 103.76 -3.21278 -7.5281 0
M  V30 1121 N 106.423 1.57458 -0.0668435 0
M  V30 1122 C 107.834 1.80776 0.466558 0
M  V30 1123 C 108.185 0.980361 1.69951 0
M  V30 1124 O 107.31 0.201441 2.1546 0
M  V30 1125 C 107.905 3.27881 0.85321 0
M  V30 1126 C 106.464 3.52062 1.3315 0
M  V30 1127 C 105.611 2.75513 0.314264 0
M  V30 1128 H 108.562 1.5598 -0.292588 0
M  V30 1129 H 108.583 3.39659 1.715 0
M  V30 1130 H 108.095 3.88075 -0.0443439 0
M  V30 1131 H 106.196 2.97167 2.24772 0
M  V30 1132 H 106.309 4.60762 1.31285 0
M  V30 1133 H 104.673 2.42123 0.790492 0
M  V30 1134 H 105.456 3.38442 -0.575477 0
M  V30 1135 N 107.901 -0.206675 1.56239 0
M  V30 1136 C 109.149 -0.927007 1.79586 0
M  V30 1137 C 109.47 -1.8427 0.637929 0
M  V30 1138 O 108.74 -1.92849 -0.344398 0
M  V30 1139 H 107.32 -0.345292 0.662407 0
M  V30 1140 H 109.982 -0.21496 1.93711 0
M  V30 1141 H 109.078 -1.52501 2.72305 0
M  V30 1142 N 109.379 -1.50304 -0.473955 0
M  V30 1143 C 110.327 -1.69482 -1.59307 0
M  V30 1144 C 111.321 -0.560669 -1.59853 0
M  V30 1145 O 112.527 -0.741087 -1.64036 0
M  V30 1146 H 108.902 -0.534892 -0.528578 0
M  V30 1147 H 110.873 -2.63364 -1.40293 0
M  V30 1148 C 109.622 -1.80354 -2.97267 0
M  V30 1149 H 108.945 -2.67012 -2.97564 0
M  V30 1150 H 110.385 -1.97798 -3.75036 0
M  V30 1151 C 108.844 -0.55448 -3.32306 0
M  V30 1152 O 109.374 0.307661 -4.0052 0
M  V30 1153 N 107.58 -0.409354 -2.87702 0
M  V30 1154 H 107.127 -1.11196 -2.32364 0
M  V30 1155 H 107.085 0.425223 -3.11511 0
M  V30 1156 N 110.857 0.726932 -1.39834 0
M  V30 1157 C 111.787 1.85405 -1.41941 0
M  V30 1158 C 112.768 1.67751 -0.281728 0
M  V30 1159 O 113.953 1.8795 -0.488717 0
M  V30 1160 C 111.083 3.23243 -1.2701 0
M  V30 1161 C 110.037 3.55549 -2.38262 0
M  V30 1162 C 109.363 4.9241 -2.08415 0
M  V30 1163 C 110.663 3.577 -3.80589 0
M  V30 1164 H 112.357 1.83899 -2.36266 0
M  V30 1165 H 109.903 0.883349 -1.13723 0
M  V30 1166 H 111.856 4.01775 -1.27103 0
M  V30 1167 H 110.58 3.25296 -0.291564 0
M  V30 1168 H 109.239 2.79351 -2.37399 0
M  V30 1169 H 108.887 4.91052 -1.0898 0
M  V30 1170 H 108.587 5.14992 -2.82943 0
M  V30 1171 H 110.111 5.73289 -2.10171 0
M  V30 1172 H 111.525 4.26293 -3.83337 0
M  V30 1173 H 109.922 3.91804 -4.54543 0
M  V30 1174 H 110.992 2.57328 -4.10987 0
M  V30 1175 N 112.336 1.25143 0.95797 0
M  V30 1176 C 113.246 1.06968 2.08794 0
M  V30 1177 C 114.262 0.00773911 1.73998 0
M  V30 1178 O 115.438 0.207972 2.00323 0
M  V30 1179 C 112.503 0.68691 3.39827 0
M  V30 1180 C 111.564 1.82641 3.88511 0
M  V30 1181 C 110.797 1.46181 5.1329 0
M  V30 1182 O 111.02 0.355971 5.69288 0
M  V30 1183 O 109.954 2.29085 5.566 0
M  V30 1184 H 113.78 2.01723 2.27027 0
M  V30 1185 H 111.365 1.04051 1.07209 0
M  V30 1186 H 113.247 0.485417 4.18595 0
M  V30 1187 H 111.922 -0.231417 3.22872 0
M  V30 1188 H 110.829 2.08274 3.10762 0
M  V30 1189 H 112.162 2.72386 4.09959 0
M  V30 1190 N 113.814 -1.1601 1.06675 0
M  V30 1191 C 114.744 -2.22688 0.702307 0
M  V30 1192 C 115.725 -1.67306 -0.307032 0
M  V30 1193 O 116.91 -1.93352 -0.181305 0
M  V30 1194 C 114.04 -3.47178 0.092038 0
M  V30 1195 C 112.994 -4.15477 1.02777 0
M  V30 1196 C 112.32 -5.33963 0.28061 0
M  V30 1197 C 113.62 -4.66019 2.35846 0
M  V30 1198 H 115.314 -2.53429 1.59419 0
M  V30 1199 H 112.86 -1.21813 0.767961 0
M  V30 1200 H 114.813 -4.21037 -0.174814 0
M  V30 1201 H 113.537 -3.15749 -0.834877 0
M  V30 1202 H 112.196 -3.43549 1.27944 0
M  V30 1203 H 111.844 -4.98788 -0.649545 0
M  V30 1204 H 111.544 -5.806 0.904258 0
M  V30 1205 H 113.068 -6.10596 0.021396 0
M  V30 1206 H 114.482 -5.3144 2.15045 0
M  V30 1207 H 112.879 -5.23293 2.93743 0
M  V30 1208 H 113.949 -3.82023 2.98641 0
M  V30 1209 N 115.292 -0.849877 -1.32721 0
M  V30 1210 C 116.202 -0.293791 -2.32753 0
M  V30 1211 C 117.218 0.585906 -1.63839 0
M  V30 1212 O 118.394 0.487413 -1.95413 0
M  V30 1213 C 115.459 0.512752 -3.42887 0
M  V30 1214 C 114.52 -0.39252 -4.27502 0
M  V30 1215 C 113.753 0.375625 -5.32377 0
M  V30 1216 O 113.976 1.60613 -5.4732 0
M  V30 1217 O 112.91 -0.256094 -6.01355 0
M  V30 1218 H 116.736 -1.12242 -2.82197 0
M  V30 1219 H 114.321 -0.612685 -1.36259 0
M  V30 1220 H 116.203 0.970704 -4.10067 0
M  V30 1221 H 114.878 1.31826 -2.95641 0
M  V30 1222 H 113.785 -0.898547 -3.63149 0
M  V30 1223 H 115.118 -1.16309 -4.7826 0
M  V30 1224 N 116.77 1.45427 -0.607355 0
M  V30 1225 C 118.186 1.57283 -0.270985 0
M  V30 1226 C 118.386 1.59875 1.22647 0
M  V30 1227 O 117.442 1.52893 2.00948 0
M  V30 1228 C 118.755 2.85566 -0.941952 0
M  V30 1229 C 120.303 2.9924 -0.917849 0
M  V30 1230 C 120.778 4.30293 -1.56882 0
M  V30 1231 N 122.269 4.37051 -1.5343 0
M  V30 1232 C 123.004 5.37123 -2.00715 0
M  V30 1233 N 122.5 6.43734 -2.56084 0
M  V30 1234 N 124.293 5.28479 -1.91484 0
M  V30 1235 H 116.444 1.41988 -1.57966 0
M  V30 1236 H 118.707 0.67885 -0.661715 0
M  V30 1237 H 118.413 2.8955 -1.99633 0
M  V30 1238 H 118.287 3.74322 -0.465096 0
M  V30 1239 H 120.674 2.94822 0.127984 0
M  V30 1240 H 120.755 2.11895 -1.43297 0
M  V30 1241 H 120.399 4.35469 -2.61398 0
M  V30 1242 H 120.329 5.16454 -1.02873 0
M  V30 1243 H 122.82 3.60615 -1.12982 0
M  V30 1244 H 123.133 7.16341 -2.89958 0
M  V30 1245 H 121.478 6.44485 -2.60122 0
M  V30 1246 H 124.669 4.44098 -1.47967 0
M  V30 1247 H 124.842 6.0632 -2.28648 0
M  V30 1248 N 118.248 0.346503 1.53744 0
M  V30 1249 C 119.664 -0.00530975 1.59599 0
M  V30 1250 C 119.864 -1.48465 1.36236 0
M  V30 1251 O 118.92 -2.24376 1.15808 0
M  V30 1252 C 120.233 0.433516 2.97559 0
M  V30 1253 C 121.781 0.386111 3.10609 0
M  V30 1254 C 122.256 0.800451 4.50951 0
M  V30 1255 N 123.747 0.754753 4.5701 0
M  V30 1256 C 124.482 1.04727 5.63755 0
M  V30 1257 N 123.978 1.4081 6.7834 0
M  V30 1258 N 125.771 0.971316 5.53644 0
M  V30 1259 H 117.922 1.31009 1.67184 0
M  V30 1260 H 120.185 0.534242 0.783128 0
M  V30 1261 H 119.891 1.46509 3.19731 0
M  V30 1262 H 119.765 -0.189753 3.76722 0
M  V30 1263 H 122.152 -0.636295 2.88158 0
M  V30 1264 H 122.233 1.04462 2.33498 0
M  V30 1265 H 121.877 1.82088 4.74137 0
M  V30 1266 H 121.807 0.119386 5.26465 0
M  V30 1267 H 124.298 0.488662 3.74727 0
M  V30 1268 H 124.611 1.61607 7.55714 0
M  V30 1269 H 122.956 1.44657 6.79779 0
M  V30 1270 H 126.147 0.688748 4.63005 0
M  V30 1271 H 126.32 1.20263 6.36742 0
M  V30 1272 N 119.726 -1.57421 0.075193 0
M  V30 1273 C 120.975 -1.92794 -0.592731 0
M  V30 1274 C 121.288 -0.957478 -1.70563 0
M  V30 1275 O 122.494 -1.20417 -2.43335 0
M  V30 1276 C 120.95 -3.42495 -1.10569 0
M  V30 1277 C 120.558 -4.47994 -0.0236121 0
M  V30 1278 C 122.302 -3.86864 -1.74748 0
M  V30 1279 C 120.209 -5.88829 -0.550803 0
M  V30 1280 H 119.139 -0.719591 -0.225177 0
M  V30 1281 H 121.79 -1.82902 0.147978 0
M  V30 1282 H 120.172 -3.47471 -1.89947 0
M  V30 1283 H 121.346 -4.54637 0.751099 0
M  V30 1284 H 119.661 -4.13113 0.522159 0
M  V30 1285 H 122.258 -4.8947 -2.15229 0
M  V30 1286 H 122.601 -3.24417 -2.60882 0
M  V30 1287 H 123.134 -3.84504 -1.01986 0
M  V30 1288 H 119.873 -6.54929 0.273457 0
M  V30 1289 H 119.393 -5.85698 -1.29296 0
M  V30 1290 H 121.072 -6.38811 -1.02613 0
M  V30 1291 N 121.204 0.198386 -1.56346 0
M  V30 1292 C 122.62 0.549085 -1.49857 0
M  V30 1293 C 122.82 1.86016 -0.774611 0
M  V30 1294 O 121.876 2.50416 -0.323776 0
M  V30 1295 C 123.189 0.606868 -2.94512 0
M  V30 1296 C 124.737 0.695925 -3.05165 0
M  V30 1297 C 125.212 0.784848 -4.51225 0
M  V30 1298 N 126.703 0.848463 -4.55363 0
M  V30 1299 C 127.438 0.937378 -5.65686 0
M  V30 1300 N 126.934 0.9888 -6.85707 0
M  V30 1301 N 128.727 0.974312 -5.53592 0
M  V30 1302 H 120.878 -0.661655 -2.01831 0
M  V30 1303 H 123.141 -0.235261 -0.918344 0
M  V30 1304 H 122.847 -0.28732 -3.50524 0
M  V30 1305 H 122.721 1.46268 -3.47686 0
M  V30 1306 H 125.108 1.58055 -2.49204 0
M  V30 1307 H 125.189 -0.186022 -2.55123 0
M  V30 1308 H 124.833 -0.0954072 -5.0781 0
M  V30 1309 H 124.763 1.68255 -4.98997 0
M  V30 1310 H 127.254 0.818103 -3.68938 0
M  V30 1311 H 127.567 1.05707 -7.65536 0
M  V30 1312 H 125.912 0.957534 -6.88372 0
M  V30 1313 H 129.103 0.930954 -4.58749 0
M  V30 1314 H 129.276 1.04015 -6.39597 0
M  V30 1315 N 122.682 1.50554 0.465978 0
M  V30 1316 C 123.907 1.65838 1.24549 0
M  V30 1317 C 124.332 0.343486 1.84937 0
M  V30 1318 O 123.69 -0.69324 1.67523 0
M  V30 1319 C 123.738 2.75533 2.32624 0
M  V30 1320 O 122.842 2.37142 3.37398 0
M  V30 1321 H 122.183 0.553893 0.366194 0
M  V30 1322 H 124.713 1.96959 0.553927 0
M  V30 1323 H 124.723 2.98763 2.77857 0
M  V30 1324 H 123.398 3.70962 1.88043 0
M  V30 1325 H 121.975 2.24377 2.97841 0
M  V30 1326 N 124.16 -0.719506 1.40217 0
M  V30 1327 C 125.123 -1.8153 1.39927 0
M  V30 1328 C 126.123 -1.58095 0.293723 0
M  V30 1329 O 127.313 -1.65209 0.552429 0
M  V30 1330 C 124.445 -3.19561 1.18716 0
M  V30 1331 H 125.638 -1.83186 2.37451 0
M  V30 1332 H 123.191 -0.924746 1.26008 0
M  V30 1333 H 123.926 -3.23557 0.219366 0
M  V30 1334 H 123.711 -3.3797 1.98793 0
M  V30 1335 H 125.201 -3.99598 1.21291 0
M  V30 1336 N 125.638 -1.25649 -0.95132 0
M  V30 1337 C 126.887 -1.09988 -1.69073 0
M  V30 1338 C 127.2 0.358355 -1.92289 0
M  V30 1339 O 128.406 0.635466 -2.63958 0
M  V30 1340 C 126.862 -1.92012 -3.044 0
M  V30 1341 C 126.47 -3.42347 -2.88968 0
M  V30 1342 C 128.214 -1.8493 -3.82101 0
M  V30 1343 C 126.121 -4.16655 -4.19705 0
M  V30 1344 H 125.051 -0.407993 -0.63408 0
M  V30 1345 H 127.702 -1.49873 -1.05879 0
M  V30 1346 H 126.084 -1.44952 -3.68517 0
M  V30 1347 H 127.258 -3.97104 -2.33762 0
M  V30 1348 H 125.573 -3.50557 -2.24719 0
M  V30 1349 H 128.17 -2.37739 -4.78941 0
M  V30 1350 H 128.513 -0.817883 -4.08187 0
M  V30 1351 H 129.046 -2.29758 -3.2474 0
M  V30 1352 H 125.785 -5.20224 -3.98807 0
M  V30 1353 H 125.305 -3.66681 -4.74663 0
M  V30 1354 H 126.984 -4.24551 -4.88227 0
M  V30 1355 N 127.117 1.15442 -1.07289 0
M  V30 1356 C 128.533 1.38201 -0.798288 0
M  V30 1357 C 128.733 1.92429 0.597769 0
M  V30 1358 O 127.789 2.12962 1.3566 0
M  V30 1359 C 129.102 2.35357 -1.87156 0
M  V30 1360 C 130.65 2.49021 -1.89624 0
M  V30 1361 C 131.125 3.49468 -2.96034 0
M  V30 1362 N 132.616 3.57003 -2.95132 0
M  V30 1363 C 133.351 4.34543 -3.74112 0
M  V30 1364 N 132.847 5.15421 -4.6294 0
M  V30 1365 N 134.64 4.29625 -3.62462 0
M  V30 1366 H 126.791 0.78584 -1.97328 0
M  V30 1367 H 129.054 0.408065 -0.855679 0
M  V30 1368 H 128.76 2.02626 -2.87464 0
M  V30 1369 H 128.634 3.35129 -1.73114 0
M  V30 1370 H 131.021 2.81051 -0.899687 0
M  V30 1371 H 131.102 1.4925 -2.07745 0
M  V30 1372 H 130.746 3.18173 -3.95889 0
M  V30 1373 H 130.676 4.48992 -2.75161 0
M  V30 1374 H 133.167 2.99276 -2.30743 0
M  V30 1375 H 133.48 5.7183 -5.19837 0
M  V30 1376 H 131.825 5.14729 -4.66989 0
M  V30 1377 H 135.016 3.65505 -2.92444 0
M  V30 1378 H 135.189 4.89807 -4.24256 0
M  V30 1379 N 128.595 0.856903 1.32268 0
M  V30 1380 C 129.841 0.471355 1.97863 0
M  V30 1381 C 130.196 -0.962896 1.66572 0
M  V30 1382 O 129.489 -1.66686 0.944797 0
M  V30 1383 C 129.683 0.649919 3.51441 0
M  V30 1384 C 129.512 2.09997 3.97657 0
M  V30 1385 C 128.282 2.73893 4.2463 0
M  V30 1386 C 130.48 3.07081 4.1256 0
M  V30 1387 N 128.462 4.09786 4.57109 0
M  V30 1388 C 129.833 4.27968 4.48602 0
M  V30 1389 C 131.888 3.03247 3.949 0
M  V30 1390 C 130.591 5.45521 4.68827 0
M  V30 1391 C 132.617 4.20046 4.16311 0
M  V30 1392 C 131.979 5.39692 4.52672 0
M  V30 1393 H 128.078 0.221263 0.750044 0
M  V30 1394 H 130.662 1.10876 1.60045 0
M  V30 1395 H 128.833 0.0421938 3.88377 0
M  V30 1396 H 130.565 0.234044 4.04023 0
M  V30 1397 H 127.32 2.24918 4.16784 0
M  V30 1398 H 127.744 4.7989 4.7753 0
M  V30 1399 H 132.386 2.11863 3.65888 0
M  V30 1400 H 130.104 6.37434 4.96693 0
M  V30 1401 H 133.69 4.18517 4.04147 0
M  V30 1402 H 132.57 6.28566 4.68907 0
M  V30 1403 N 130.073 -1.45103 0.615059 0
M  V30 1404 C 131.021 -2.32331 -0.111791 0
M  V30 1405 C 132.015 -1.46409 -0.852102 0
M  V30 1406 O 133.221 -1.62849 -0.766821 0
M  V30 1407 H 129.596 -0.749993 -0.0549072 0
M  V30 1408 H 131.567 -2.91407 0.642225 0
M  V30 1409 C 130.316 -3.3015 -1.09071 0
M  V30 1410 H 129.639 -3.96265 -0.530485 0
M  V30 1411 H 131.079 -3.93898 -1.56908 0
M  V30 1412 C 129.538 -2.57875 -2.168 0
M  V30 1413 O 130.068 -2.36567 -3.24652 0
M  V30 1414 N 128.274 -2.17884 -1.92289 0
M  V30 1415 H 127.821 -2.35413 -1.04587 0
M  V30 1416 H 127.779 -1.6985 -2.64572 0
M  V30 1417 N 131.551 -0.354651 -1.53558 0
M  V30 1418 C 132.514 0.484566 -2.24019 0
M  V30 1419 C 133.514 1.01861 -1.24422 0
M  V30 1420 O 134.704 0.906097 -1.4878 0
M  V30 1421 C 131.836 1.67615 -2.96847 0
M  V30 1422 H 133.029 -0.131843 -2.9961 0
M  V30 1423 H 130.582 -0.106165 -1.55939 0
M  V30 1424 H 131.317 2.33095 -2.25471 0
M  V30 1425 H 131.102 1.30029 -3.69912 0
M  V30 1426 H 132.592 2.27114 -3.50441 0
M  V30 1427 N 133.029 1.57378 -0.0835403 0
M  V30 1428 C 134.278 1.93106 0.582498 0
M  V30 1429 C 134.591 0.96651 1.70053 0
M  V30 1430 O 135.797 1.21705 2.42693 0
M  V30 1431 C 134.253 3.43076 1.08751 0
M  V30 1432 C 133.861 4.48 -0.000146404 0
M  V30 1433 C 135.605 3.87785 1.72694 0
M  V30 1434 C 133.512 5.89113 0.519568 0
M  V30 1435 H 132.442 0.720775 0.221358 0
M  V30 1436 H 135.093 1.82821 -0.157675 0
M  V30 1437 H 133.475 3.48474 1.88101 0
M  V30 1438 H 134.649 4.54233 -0.775199 0
M  V30 1439 H 132.964 4.1283 -0.54406 0
M  V30 1440 H 135.561 4.90604 2.1263 0
M  V30 1441 H 135.904 3.25796 2.59158 0
M  V30 1442 H 136.437 3.8504 0.999457 0
M  V30 1443 H 133.176 6.54775 -0.308186 0
M  V30 1444 H 132.696 5.86376 1.26188 0
M  V30 1445 H 134.375 6.39346 0.992237 0
M  V30 1446 N 134.507 -0.190092 1.56449 0
M  V30 1447 C 135.44 -1.26375 1.90012 0
M  V30 1448 C 136.418 -1.43705 0.760765 0
M  V30 1449 O 137.602 -1.59014 1.01226 0
M  V30 1450 C 134.729 -2.62962 2.13468 0
M  V30 1451 C 133.775 -2.62474 3.36169 0
M  V30 1452 S 134.608 -2.13412 4.91137 0
M  V30 1453 C 135.764 -3.51812 5.17667 0
M  V30 1454 H 135.997 -0.977181 2.80782 0
M  V30 1455 H 133.53 -0.393814 1.49293 0
M  V30 1456 H 135.488 -3.41583 2.27664 0
M  V30 1457 H 134.149 -2.88828 1.23439 0
M  V30 1458 H 133.342 -3.62918 3.49723 0
M  V30 1459 H 132.944 -1.91937 3.20992 0
M  V30 1460 H 135.236 -4.47706 5.08494 0
M  V30 1461 H 136.179 -3.43148 6.19399 0
M  V30 1462 H 136.587 -3.46956 4.45288 0
M  V30 1463 N 135.985 -1.50799 -0.457987 0
M  V30 1464 C 137.213 -1.66218 -1.23203 0
M  V30 1465 C 137.628 -0.350894 -1.85511 0
M  V30 1466 O 136.985 0.668546 -1.69814 0
M  V30 1467 C 137.036 -2.76291 -2.33121 0
M  V30 1468 O 136.757 -4.02338 -1.73366 0
M  V30 1469 C 138.258 -3.028 -3.2377 0
M  V30 1470 H 135.478 -0.558361 -0.372121 0
M  V30 1471 H 138.022 -1.97099 -0.545179 0
M  V30 1472 H 136.177 -2.48068 -2.97558 0
M  V30 1473 H 136.591 -4.63312 -2.4585 0
M  V30 1474 H 138.065 -3.8345 -3.97077 0
M  V30 1475 H 138.542 -2.14385 -3.83322 0
M  V30 1476 H 139.148 -3.32604 -2.65056 0
M  V30 1477 N 137.463 0.71206 -1.40597 0
M  V30 1478 C 138.709 1.47416 -1.39271 0
M  V30 1479 C 139.042 1.942 0.00388791 0
M  V30 1480 O 138.317 1.68403 0.973179 0
M  V30 1481 C 138.6 2.69774 -2.38525 0
M  V30 1482 C 138.453 2.28861 -3.87224 0
M  V30 1483 C 139.772 3.71939 -2.35264 0
M  V30 1484 H 136.891 0.534713 -0.5072 0
M  V30 1485 H 139.533 0.812375 -1.71757 0
M  V30 1486 H 137.683 3.26238 -2.10953 0
M  V30 1487 H 139.355 1.77852 -4.25636 0
M  V30 1488 H 137.598 1.60824 -4.02887 0
M  V30 1489 H 138.269 3.16584 -4.52193 0
M  V30 1490 H 140.745 3.25113 -2.59694 0
M  V30 1491 H 139.621 4.55186 -3.06753 0
M  V30 1492 H 139.882 4.20484 -1.36549 0
M  V30 1493 N 138.941 1.26152 0.944643 0
M  V30 1494 C 139.871 1.09902 2.06019 0
M  V30 1495 C 140.852 0.00519538 1.70099 0
M  V30 1496 O 142.037 0.176583 1.93396 0
M  V30 1497 C 139.167 0.727562 3.39594 0
M  V30 1498 C 138.121 1.77274 3.89561 0
M  V30 1499 C 137.447 1.25569 5.19747 0
M  V30 1500 C 138.747 3.17357 4.14827 0
M  V30 1501 H 140.441 2.03217 2.19871 0
M  V30 1502 H 137.987 0.978452 1.05652 0
M  V30 1503 H 139.94 0.600777 4.17095 0
M  V30 1504 H 138.664 -0.241287 3.25707 0
M  V30 1505 H 137.323 1.88814 3.14237 0
M  V30 1506 H 136.971 0.276783 5.02238 0
M  V30 1507 H 136.671 1.95433 5.54148 0
M  V30 1508 H 138.195 1.1415 5.99835 0
M  V30 1509 H 139.609 3.08914 4.82954 0
M  V30 1510 H 138.006 3.84781 4.60504 0
M  V30 1511 H 139.076 3.63673 3.20734 0
M  V30 1512 N 140.419 -1.14872 1.07899 0
M  V30 1513 C 141.835 -1.37776 0.805606 0
M  V30 1514 C 142.035 -1.92743 -0.587555 0
M  V30 1515 O 141.091 -2.13678 -1.34528 0
M  V30 1516 C 142.404 -2.34361 1.88402 0
M  V30 1517 C 143.952 -2.48012 1.90942 0
M  V30 1518 C 144.427 -3.47893 2.97883 0
M  V30 1519 N 145.918 -3.55433 2.97021 0
M  V30 1520 C 146.653 -4.32553 3.76412 0
M  V30 1521 N 146.149 -5.12959 4.65666 0
M  V30 1522 N 147.942 -4.27697 3.64735 0
M  V30 1523 H 140.093 -0.775365 1.97742 0
M  V30 1524 H 142.356 -0.403521 0.857831 0
M  V30 1525 H 142.062 -2.01098 2.88535 0
M  V30 1526 H 141.936 -3.34206 1.74889 0
M  V30 1527 H 144.323 -2.8057 0.914579 0
M  V30 1528 H 144.404 -1.48147 2.08534 0
M  V30 1529 H 144.048 -3.16069 3.97571 0
M  V30 1530 H 143.978 -4.47527 2.77538 0
M  V30 1531 H 146.469 -2.98048 2.32326 0
M  V30 1532 H 146.782 -5.69065 5.22862 0
M  V30 1533 H 145.127 -5.12245 4.69712 0
M  V30 1534 H 148.318 -3.63949 2.94378 0
M  V30 1535 H 148.491 -4.8755 4.26848 0
M  V30 1536 N 141.898 -0.863906 -1.31812 0
M  V30 1537 C 142.861 -0.320212 -2.26952 0
M  V30 1538 C 143.861 0.525369 -1.51975 0
M  V30 1539 O 145.051 0.335547 -1.70938 0
M  V30 1540 C 142.183 0.545919 -3.365 0
M  V30 1541 H 143.376 -1.16004 -2.76556 0
M  V30 1542 H 140.929 -0.638995 -1.42641 0
M  V30 1543 H 141.664 1.40718 -2.92179 0
M  V30 1544 H 141.449 -0.0594674 -3.92055 0
M  V30 1545 H 142.939 0.918796 -4.07367 0
M  V30 1546 N 143.376 1.44774 -0.622745 0
M  V30 1547 C 144.601 2.06999 -0.128968 0
M  V30 1548 C 145.026 1.4617 1.1839 0
M  V30 1549 O 144.384 0.560007 1.72434 0
M  V30 1550 C 144.432 3.60595 -0.0188351 0
M  V30 1551 O 143.536 3.99398 1.02739 0
M  V30 1552 H 142.877 0.659047 -0.0809544 0
M  V30 1553 H 145.407 1.85784 -0.85705 0
M  V30 1554 H 145.417 4.07627 0.174476 0
M  V30 1555 H 144.092 4.04252 -0.977384 0
M  V30 1556 H 142.669 3.64011 0.809326 0
M  V30 1557 N 144.854 0.36279 1.53368 0
M  V30 1558 C 145.801 -0.485008 2.25646 0
M  V30 1559 C 146.771 -1.07982 1.2621 0
M  V30 1560 O 147.956 -1.11284 1.54986 0
M  V30 1561 C 145.096 -1.62023 3.04701 0
M  V30 1562 C 144.209 -1.05086 4.19024 0
M  V30 1563 C 143.344 -2.15496 4.85525 0
M  V30 1564 C 142.383 -1.5601 5.91884 0
M  V30 1565 N 141.52 -2.60241 6.52088 0
M  V30 1566 H 146.36 0.137864 2.97681 0
M  V30 1567 H 143.897 0.0798061 1.46883 0
M  V30 1568 H 145.855 -2.28887 3.48807 0
M  V30 1569 H 144.485 -2.2138 2.34927 0
M  V30 1570 H 143.537 -0.27259 3.79422 0
M  V30 1571 H 144.849 -0.575926 4.95464 0
M  V30 1572 H 144.003 -2.90186 5.32801 0
M  V30 1573 H 142.742 -2.66341 4.08551 0
M  V30 1574 H 141.747 -0.798338 5.43973 0
M  V30 1575 H 142.972 -1.05994 6.70777 0
M  V30 1576 H 140.918 -3.10304 5.77968 0
M  V30 1577 H 140.835 -2.17426 7.24059 0
M  V30 1578 H 142.103 -3.34641 7.04014 0
M  V30 1579 N 146.332 -1.57332 0.0918853 0
M  V30 1580 C 147.279 -2.13847 -0.868211 0
M  V30 1581 C 148.249 -1.05618 -1.28196 0
M  V30 1582 O 149.434 -1.33387 -1.36427 0
M  V30 1583 C 146.574 -2.72062 -2.12312 0
M  V30 1584 C 145.687 -3.94514 -1.7602 0
M  V30 1585 C 144.822 -4.40903 -2.96273 0
M  V30 1586 C 143.861 -5.55953 -2.56092 0
M  V30 1587 N 142.998 -5.97209 -3.69169 0
M  V30 1588 H 147.838 -2.95575 -0.379406 0
M  V30 1589 H 145.375 -1.46048 -0.175606 0
M  V30 1590 H 147.333 -3.03931 -2.858 0
M  V30 1591 H 145.963 -1.93068 -2.58698 0
M  V30 1592 H 145.015 -3.68979 -0.925135 0
M  V30 1593 H 146.327 -4.7802 -1.42472 0
M  V30 1594 H 145.481 -4.74539 -3.78018 0
M  V30 1595 H 144.22 -3.56291 -3.33029 0
M  V30 1596 H 143.225 -5.21948 -1.72773 0
M  V30 1597 H 144.45 -6.42311 -2.20484 0
M  V30 1598 H 142.396 -5.15543 -4.05649 0
M  V30 1599 H 142.313 -6.75504 -3.39456 0
M  V30 1600 H 143.581 -6.35475 -4.51434 0
M  V30 1601 N 147.81 0.181792 -1.56548 0
M  V30 1602 C 149.087 0.926765 -1.72251 0
M  V30 1603 C 149.467 2.00831 -0.650386 0
M  V30 1604 O 148.815 2.26008 0.336521 0
M  V30 1605 C 149.025 1.50106 -3.1507 0
M  V30 1606 C 150.373 1.97805 -3.75711 0
M  V30 1607 O 151.397 1.59922 -3.18282 0
M  V30 1608 O 150.256 2.67555 -4.76525 0
M  V30 1609 H 147.35 0.435506 -0.703039 0
M  V30 1610 H 149.896 0.170443 -1.68842 0
M  V30 1611 H 148.668 0.72212 -3.84579 0
M  V30 1612 H 148.291 2.32186 -3.22763 0
M  V30 1613 N 149.288 1.51039 0.449983 0
M  V30 1614 C 150.218 1.74379 1.55288 0
M  V30 1615 C 151.199 0.593236 1.5942 0
M  V30 1616 O 152.384 0.834625 1.7535 0
M  V30 1617 C 149.514 1.85728 2.93466 0
M  V30 1618 C 148.468 3.01078 3.04197 0
M  V30 1619 C 147.794 2.97595 4.44231 0
M  V30 1620 C 149.094 4.41254 2.7945 0
M  V30 1621 H 150.788 2.66725 1.36008 0
M  V30 1622 H 148.334 1.2835 0.652864 0
M  V30 1623 H 150.287 2.0064 3.70569 0
M  V30 1624 H 149.011 0.900207 3.13949 0
M  V30 1625 H 147.67 2.85851 2.29531 0
M  V30 1626 H 147.318 1.99691 4.61663 0
M  V30 1627 H 147.018 3.75046 4.52343 0
M  V30 1628 H 148.542 3.14583 5.23326 0
M  V30 1629 H 149.956 4.56897 3.46292 0
M  V30 1630 H 148.353 5.20315 2.98985 0
M  V30 1631 H 149.423 4.52164 1.75144 0
M  V30 1632 N 150.766 -0.704594 1.40972 0
M  V30 1633 C 151.676 -1.84856 1.44448 0
M  V30 1634 C 152.692 -1.70726 0.335961 0
M  V30 1635 O 153.868 -1.92799 0.582276 0
M  V30 1636 C 150.933 -3.20758 1.31587 0
M  V30 1637 C 149.994 -3.47063 2.52677 0
M  V30 1638 C 149.227 -4.76481 2.4042 0
M  V30 1639 O 149.45 -5.52341 1.42391 0
M  V30 1640 O 148.384 -5.03367 3.30007 0
M  V30 1641 H 152.21 -1.8488 2.40942 0
M  V30 1642 H 149.795 -0.85647 1.22413 0
M  V30 1643 H 151.677 -4.01913 1.26665 0
M  V30 1644 H 150.352 -3.21438 0.382049 0
M  V30 1645 H 149.259 -2.65873 2.63177 0
M  V30 1646 H 150.592 -3.5119 3.44858 0
M  V30 1647 N 152.244 -1.26651 -0.937939 0
M  V30 1648 C 153.174 -1.10993 -2.05433 0
M  V30 1649 C 154.155 -0.0142161 -1.70094 0
M  V30 1650 O 155.34 -0.186837 -1.93299 0
M  V30 1651 C 152.47 -0.745561 -3.39203 0
M  V30 1652 C 151.424 -1.79337 -3.88616 0
M  V30 1653 C 150.75 -1.28324 -5.19073 0
M  V30 1654 C 152.05 -3.19553 -4.13138 0
M  V30 1655 H 153.744 -2.0438 -2.1879 0
M  V30 1656 H 151.29 -0.984041 -1.05131 0
M  V30 1657 H 153.243 -0.622888 -4.16771 0
M  V30 1658 H 151.967 0.22401 -3.25831 0
M  V30 1659 H 150.626 -1.90477 -3.13231 0
M  V30 1660 H 150.274 -0.303414 -5.02084 0
M  V30 1661 H 149.974 -1.98369 -5.53103 0
M  V30 1662 H 151.498 -1.1733 -5.99221 0
M  V30 1663 H 152.912 -3.11471 -4.81309 0
M  V30 1664 H 151.309 -3.87218 -4.58457 0
M  V30 1665 H 152.379 -3.65368 -3.18801 0
M  V30 1666 N 153.722 1.14298 -1.08507 0
M  V30 1667 C 154.97 1.84993 -0.813763 0
M  V30 1668 C 155.291 1.83405 0.662393 0
M  V30 1669 O 154.561 1.28319 1.48024 0
M  V30 1670 H 153.141 0.684966 -0.298045 0
M  V30 1671 H 155.803 1.385 -1.37126 0
M  V30 1672 H 154.899 2.89788 -1.15884 0
M  V30 1673 N 155.201 0.870884 1.31352 0
M  V30 1674 C 156.449 0.48132 1.96285 0
M  V30 1675 C 156.77 -0.969813 1.69173 0
M  V30 1676 O 156.04 -1.67998 1.00764 0
M  V30 1677 H 154.62 0.175002 0.726212 0
M  V30 1678 H 157.282 1.11087 1.60143 0
M  V30 1679 H 156.378 0.639825 3.05471 0
M  V30 1680 N 156.679 -1.44442 0.630414 0
M  V30 1681 C 157.629 -2.27794 -0.0968103 0
M  V30 1682 C 158.613 -1.38624 -0.816834 0
M  V30 1683 O 159.805 -1.62438 -0.70306 0
M  V30 1684 C 156.934 -3.25929 -1.07819 0
M  V30 1685 C 156.02 -4.22588 -0.357826 0
M  V30 1686 N 156.411 -5.0207 0.613169 0
M  V30 1687 C 154.709 -4.41914 -0.602365 0
M  V30 1688 C 155.41 -5.72351 1.03871 0
M  V30 1689 N 154.386 -5.42287 0.377642 0
M  V30 1690 H 158.188 -2.86653 0.648621 0
M  V30 1691 H 155.702 -1.55871 0.455862 0
M  V30 1692 H 157.699 -3.84399 -1.61378 0
M  V30 1693 H 156.359 -2.68631 -1.82393 0
M  V30 1694 H 157.37 -5.08331 0.990947 0
M  V30 1695 H 154.047 -3.95714 -1.33103 0
M  V30 1696 H 155.437 -6.4619 1.84086 0
M  V30 1697 N 158.157 -0.370918 -1.53173 0
M  V30 1698 C 159.09 0.516727 -2.22273 0
M  V30 1699 C 160.068 1.07877 -1.21661 0
M  V30 1700 O 161.252 1.13389 -1.50583 0
M  V30 1701 C 158.379 1.71346 -2.92161 0
M  V30 1702 C 157.425 1.27838 -4.0689 0
M  V30 1703 S 158.258 0.275217 -5.34792 0
M  V30 1704 C 159.414 1.47816 -6.08195 0
M  V30 1705 H 159.647 -0.0701054 -2.97217 0
M  V30 1706 H 157.18 -0.155038 -1.5362 0
M  V30 1707 H 159.138 2.39988 -3.3304 0
M  V30 1708 H 157.799 2.27156 -2.16931 0
M  V30 1709 H 156.992 2.17141 -4.54825 0
M  V30 1710 H 156.594 0.671105 -3.6793 0
M  V30 1711 H 158.886 2.40831 -6.33251 0
M  V30 1712 H 159.829 1.04008 -7.0042 0
M  V30 1713 H 160.237 1.68663 -5.38714 0
M  V30 1714 N 159.635 1.57281 -0.100228 0
M  V30 1715 C 160.598 2.13158 0.842398 0
M  V30 1716 C 161.598 1.06202 1.20738 0
M  V30 1717 O 162.788 1.32066 1.13597 0
M  V30 1718 C 159.92 2.65639 2.13655 0
M  V30 1719 H 161.113 2.97766 0.357114 0
M  V30 1720 H 158.666 1.5559 0.148823 0
M  V30 1721 H 159.401 1.84566 2.66657 0
M  V30 1722 H 159.186 3.43844 1.88451 0
M  V30 1723 H 160.676 3.08846 2.81077 0
M  V30 1724 N 161.113 -0.173488 1.56642 0
M  V30 1725 C 162.338 -0.910149 1.86363 0
M  V30 1726 C 162.763 -1.75132 0.686318 0
M  V30 1727 O 162.121 -1.77595 -0.364643 0
M  V30 1728 C 162.169 -1.76447 3.14482 0
M  V30 1729 O 161.273 -2.86584 2.96553 0
M  V30 1730 H 160.614 -0.255086 0.613047 0
M  V30 1731 H 163.144 -0.172283 2.03873 0
M  V30 1732 H 163.154 -2.16483 3.45831 0
M  V30 1733 H 161.829 -1.14658 3.99783 0
M  V30 1734 H 160.406 -2.50146 2.76553 0
M  V30 1735 N 162.591 -1.51276 -0.441967 0
M  V30 1736 C 163.838 -1.63715 -1.19179 0
M  V30 1737 C 164.166 -0.351175 -1.91303 0
M  V30 1738 O 163.421 0.664524 -1.84072 0
M  V30 1739 C 163.72 -2.78746 -2.23686 0
M  V30 1740 C 163.386 -4.18189 -1.68607 0
M  V30 1741 C 162.048 -4.56125 -1.53308 0
M  V30 1742 C 164.4 -5.05222 -1.28062 0
M  V30 1743 C 161.728 -5.78804 -0.959317 0
M  V30 1744 C 164.08 -6.28476 -0.721162 0
M  V30 1745 C 162.744 -6.65188 -0.55504 0
M  V30 1746 H 162.014 -0.599076 -0.436106 0
M  V30 1747 H 164.661 -1.85296 -0.48351 0
M  V30 1748 H 162.966 -2.51369 -3.00535 0
M  V30 1749 H 164.663 -2.8557 -2.81515 0
M  V30 1750 H 161.253 -3.88277 -1.8149 0
M  V30 1751 H 165.437 -4.76524 -1.38704 0
M  V30 1752 H 160.693 -6.05899 -0.81833 0
M  V30 1753 H 164.867 -6.95259 -0.398458 0
M  V30 1754 H 162.494 -7.60123 -0.108311 0
M  V30 1755 N 164.069 0.697108 -1.41344 0
M  V30 1756 C 165.001 1.8224 -1.39001 0
M  V30 1757 C 166.014 1.60152 -0.292428 0
M  V30 1758 O 167.203 1.69684 -0.554048 0
M  V30 1759 C 164.303 3.18976 -1.14489 0
M  V30 1760 C 163.476 3.68105 -2.36258 0
M  V30 1761 C 162.535 4.83506 -2.07625 0
M  V30 1762 O 161.561 4.95201 -2.8065 0
M  V30 1763 N 162.763 5.70637 -1.06555 0
M  V30 1764 H 165.528 1.84742 -2.35988 0
M  V30 1765 H 163.089 0.87937 -1.35936 0
M  V30 1766 H 165.081 3.93801 -0.932885 0
M  V30 1767 H 163.651 3.11508 -0.261043 0
M  V30 1768 H 162.871 2.84204 -2.7317 0
M  V30 1769 H 164.159 3.97667 -3.17393 0
M  V30 1770 H 163.557 5.63817 -0.461125 0
M  V30 1771 H 162.114 6.45368 -0.913444 0
M  V30 1772 N 165.547 1.27147 0.931209 0
M  V30 1773 C 166.772 1.16191 1.71797 0
M  V30 1774 C 167.197 -0.278004 1.86034 0
M  V30 1775 O 166.555 -1.20137 1.35782 0
M  V30 1776 C 166.603 1.84673 3.09723 0
M  V30 1777 O 165.707 1.14231 3.96264 0
M  V30 1778 H 165.048 0.404303 0.526721 0
M  V30 1779 H 167.578 1.68152 1.1656 0
M  V30 1780 H 167.588 1.91893 3.60057 0
M  V30 1781 H 166.263 2.89421 2.98677 0
M  V30 1782 H 164.84 1.15056 3.54706 0
M  V30 1783 N 167.025 -1.13721 1.09112 0
M  V30 1784 C 168.25 -1.89314 0.847053 0
M  V30 1785 C 168.675 -1.78416 -0.595774 0
M  V30 1786 O 168.033 -1.12942 -1.41823 0
M  V30 1787 C 168.081 -3.3701 1.28284 0
M  V30 1788 O 167.185 -4.10054 0.439267 0
M  V30 1789 H 166.526 -0.588745 0.307044 0
M  V30 1790 H 169.056 -1.43902 1.45442 0
M  V30 1791 H 169.066 -3.87834 1.26683 0
M  V30 1792 H 167.741 -3.4426 2.33363 0
M  V30 1793 H 166.318 -3.69266 0.519312 0
M  V30 1794 N 168.503 -0.877838 -1.30888 0
M  V30 1795 C 169.466 -0.344265 -2.266 0
M  V30 1796 C 170.466 0.50922 -1.52524 0
M  V30 1797 O 171.656 0.317398 -1.71284 0
M  V30 1798 C 168.788 0.510198 -3.37061 0
M  V30 1799 H 169.981 -1.1893 -2.7531 0
M  V30 1800 H 167.534 -0.654088 -1.41956 0
M  V30 1801 H 168.269 1.37612 -2.93655 0
M  V30 1802 H 168.054 -0.101047 -3.9197 0
M  V30 1803 H 169.544 0.875537 -4.08319 0
M  V30 1804 N 169.982 1.44106 -0.638065 0
M  V30 1805 C 171.21 2.06336 -0.152615 0
M  V30 1806 C 171.625 1.47731 1.17563 0
M  V30 1807 O 170.982 0.602806 1.72257 0
M  V30 1808 C 171.033 3.61479 -0.0391491 0
M  V30 1809 O 170.754 4.17903 -1.31487 0
M  V30 1810 C 172.255 4.40757 0.474176 0
M  V30 1811 H 169.475 0.665862 -0.0828776 0
M  V30 1812 H 172.019 1.84862 -0.87443 0
M  V30 1813 H 170.174 3.82191 0.633142 0
M  V30 1814 H 170.588 5.11416 -1.16421 0
M  V30 1815 H 172.062 5.49707 0.502562 0
M  V30 1816 H 172.539 4.12697 1.50258 0
M  V30 1817 H 173.145 4.24979 -0.165102 0
M  V30 1818 N 171.46 0.379036 1.52974 0
M  V30 1819 C 172.709 -0.207612 2.00629 0
M  V30 1820 C 173.022 -1.48758 1.27006 0
M  V30 1821 O 174.228 -2.15365 1.65318 0
M  V30 1822 C 172.684 -0.42053 3.57435 0
M  V30 1823 C 172.292 0.845587 4.39948 0
M  V30 1824 C 174.036 -0.964102 4.13407 0
M  V30 1825 C 171.943 0.601513 5.88333 0
M  V30 1826 H 170.873 -0.0813591 0.749598 0
M  V30 1827 H 173.524 0.499853 1.76561 0
M  V30 1828 H 171.906 -1.18959 3.7771 0
M  V30 1829 H 173.08 1.61848 4.31442 0
M  V30 1830 H 171.395 1.31336 3.95145 0
M  V30 1831 H 173.992 -1.16225 5.21916 0
M  V30 1832 H 174.335 -1.93019 3.68849 0
M  V30 1833 H 174.868 -0.25487 3.96983 0
M  V30 1834 H 171.607 1.53831 6.37194 0
M  V30 1835 H 171.127 -0.132628 5.99653 0
M  V30 1836 H 172.806 0.232134 6.46583 0
M  V30 1837 N 172.938 -1.57226 0.108567 0
M  V30 1838 C 174.168 -1.9889 -0.559142 0
M  V30 1839 C 174.576 -0.986889 -1.61422 0
M  V30 1840 O 173.919 0.0298705 -1.83676 0
M  V30 1841 C 173.981 -3.36952 -1.25315 0
M  V30 1842 C 173.645 -4.55679 -0.347248 0
M  V30 1843 C 174.642 -5.18281 0.409996 0
M  V30 1844 C 172.327 -5.0162 -0.261367 0
M  V30 1845 C 174.321 -6.25203 1.24096 0
M  V30 1846 C 172.008 -6.08405 0.573238 0
M  V30 1847 C 173.006 -6.70063 1.32304 0
M  V30 1848 O 172.694 -7.74788 2.14381 0
M  V30 1849 H 172.426 -0.658343 -0.153492 0
M  V30 1850 H 174.98 -2.04532 0.188584 0
M  V30 1851 H 173.21 -3.28032 -2.04773 0
M  V30 1852 H 174.899 -3.62974 -1.81673 0
M  V30 1853 H 175.665 -4.8371 0.353457 0
M  V30 1854 H 171.544 -4.53381 -0.834656 0
M  V30 1855 H 175.088 -6.73259 1.82669 0
M  V30 1856 H 170.985 -6.42406 0.631208 0
M  V30 1857 H 171.753 -7.91837 2.07209 0
M  V30 1858 N 174.416 0.165178 -1.56732 0
M  V30 1859 C 175.693 0.908443 -1.73224 0
M  V30 1860 C 176.073 2.0013 -0.67165 0
M  V30 1861 O 175.421 2.26353 0.31253 0
M  V30 1862 C 175.631 1.46756 -3.16644 0
M  V30 1863 C 176.979 1.93809 -3.77787 0
M  V30 1864 O 178.003 1.56537 -3.1996 0
M  V30 1865 O 176.862 2.62486 -4.79336 0
M  V30 1866 H 173.956 0.428025 -0.707618 0
M  V30 1867 H 176.502 0.152526 -1.69013 0
M  V30 1868 H 175.274 0.68129 -3.85323 0
M  V30 1869 H 174.897 2.28749 -3.25207 0
M  V30 1870 N 175.894 1.51508 0.433938 0
M  V30 1871 C 177.14 1.64588 1.18484 0
M  V30 1872 C 177.473 0.362666 1.90784 0
M  V30 1873 O 176.748 -0.637892 1.83742 0
M  V30 1874 C 177.031 2.85149 2.19913 0
M  V30 1875 C 176.884 4.23456 1.51674 0
M  V30 1876 C 178.203 3.01227 3.20858 0
M  V30 1877 H 175.322 0.598994 0.429389 0
M  V30 1878 H 177.964 1.84002 0.473647 0
M  V30 1879 H 176.114 2.68729 2.80566 0
M  V30 1880 H 177.786 4.51552 0.943322 0
M  V30 1881 H 176.029 4.25998 0.819035 0
M  V30 1882 H 176.7 5.03812 2.2556 0
M  V30 1883 H 179.176 3.16382 2.70263 0
M  V30 1884 H 178.052 3.87141 3.89118 0
M  V30 1885 H 178.313 2.13447 3.8716 0
M  V30 1886 N 177.372 -0.689602 1.41712 0
M  V30 1887 C 178.612 -1.46184 1.42862 0
M  V30 1888 C 178.976 -1.91962 0.0382204 0
M  V30 1889 O 180.177 -2.68694 -0.0755019 0
M  V30 1890 C 178.448 -2.6371 2.4123 0
M  V30 1891 S 180.007 -3.52768 2.6096 0
M  V30 1892 H 176.825 -0.49947 0.506015 0
M  V30 1893 H 179.427 -0.804107 1.78198 0
M  V30 1894 H 178.131 -2.28293 3.41044 0
M  V30 1895 H 177.662 -3.3437 2.07269 0
M  V30 1896 H 179.677 -4.59146 1.88148 0
M  V30 1897 N 178.85 -1.27639 -0.924453 0
M  V30 1898 C 180.097 -1.14167 -1.67249 0
M  V30 1899 C 180.425 0.311863 -1.91984 0
M  V30 1900 O 179.68 1.24425 -1.51053 0
M  V30 1901 C 179.979 -1.87407 -3.04325 0
M  V30 1902 C 179.645 -3.37249 -2.99289 0
M  V30 1903 C 178.307 -3.7812 -2.97622 0
M  V30 1904 C 180.659 -4.32845 -2.90336 0
M  V30 1905 C 177.987 -5.12944 -2.8479 0
M  V30 1906 C 180.339 -5.6773 -2.79045 0
M  V30 1907 C 179.003 -6.07889 -2.7573 0
M  V30 1908 H 178.273 -0.417766 -0.612007 0
M  V30 1909 H 180.92 -1.58286 -1.07786 0
M  V30 1910 H 179.225 -1.35805 -3.67511 0
M  V30 1911 H 180.922 -1.74408 -3.61086 0
M  V30 1912 H 177.512 -3.04748 -3.01374 0
M  V30 1913 H 181.696 -4.02239 -2.90719 0
M  V30 1914 H 176.952 -5.432 -2.80612 0
M  V30 1915 H 181.126 -6.41472 -2.71083 0
M  V30 1916 H 178.753 -7.12314 -2.65544 0
M  V30 1917 N 180.328 1.1314 -1.09713 0
M  V30 1918 C 181.276 2.20717 -0.733934 0
M  V30 1919 C 182.27 1.6729 0.266506 0
M  V30 1920 O 183.476 1.79547 0.127656 0
M  V30 1921 H 179.851 0.719292 -0.21937 0
M  V30 1922 H 181.822 2.48611 -1.6503 0
M  V30 1923 C 180.571 3.47265 -0.173849 0
M  V30 1924 H 179.894 3.88716 -0.934873 0
M  V30 1925 H 181.334 4.23979 0.0423126 0
M  V30 1926 C 179.793 3.18724 1.09164 0
M  V30 1927 O 180.323 3.37762 2.17439 0
M  V30 1928 N 178.529 2.72583 1.00732 0
M  V30 1929 H 178.076 2.57291 0.126121 0
M  V30 1930 H 178.034 2.53862 1.85476 0
M  V30 1931 N 181.806 0.884767 1.30421 0
M  V30 1932 C 182.756 0.322846 2.25703 0
M  V30 1933 C 183.74 -0.548582 1.51259 0
M  V30 1934 O 184.932 -0.39304 1.72581 0
M  V30 1935 C 182.061 -0.461787 3.4018 0
M  V30 1936 C 181.147 0.423717 4.21978 0
M  V30 1937 N 181.538 1.52408 4.82292 0
M  V30 1938 C 179.836 0.218795 4.45463 0
M  V30 1939 C 180.537 2.07136 5.43571 0
M  V30 1940 N 179.513 1.36635 5.26148 0
M  V30 1941 H 183.315 1.16363 2.69883 0
M  V30 1942 H 180.829 0.73415 1.44859 0
M  V30 1943 H 182.826 -0.880985 4.07485 0
M  V30 1944 H 181.486 -1.30001 2.9754 0
M  V30 1945 H 182.497 1.90693 4.81515 0
M  V30 1946 H 179.174 -0.582275 4.1342 0
M  V30 1947 H 180.564 2.99538 6.01437 0
M  V30 1948 N 183.284 -1.43765 0.645699 0
M  V30 1949 C 184.531 -2.01898 0.15604 0
M  V30 1950 C 184.859 -1.50887 -1.22733 0
M  V30 1951 O 184.114 -0.689271 -1.8316 0
M  V30 1952 C 184.413 -3.57238 0.107679 0
M  V30 1953 C 184.079 -4.27564 1.43178 0
M  V30 1954 C 182.741 -4.46492 1.7944 0
M  V30 1955 C 185.093 -4.67454 2.30513 0
M  V30 1956 C 182.421 -5.02573 3.02716 0
M  V30 1957 C 184.773 -5.24901 3.53074 0
M  V30 1958 C 183.437 -5.42046 3.89541 0
M  V30 1959 H 182.707 -0.738797 0.057099 0
M  V30 1960 H 185.354 -1.72341 0.834912 0
M  V30 1961 H 183.659 -3.86293 -0.654618 0
M  V30 1962 H 185.356 -3.99965 -0.287938 0
M  V30 1963 H 181.946 -4.13171 1.13963 0
M  V30 1964 H 186.13 -4.5253 2.0379 0
M  V30 1965 H 181.386 -5.14033 3.31028 0
M  V30 1966 H 185.56 -5.54758 4.20971 0
M  V30 1967 H 183.187 -5.85268 4.85145 0
M  V30 1968 N 184.763 -0.387143 -1.52771 0
M  V30 1969 C 186.01 0.195735 -2.01552 0
M  V30 1970 C 186.338 1.46995 -1.27369 0
M  V30 1971 O 185.593 1.92325 -0.361879 0
M  V30 1972 C 185.892 0.512209 -3.53711 0
M  V30 1973 C 185.558 -0.670202 -4.45891 0
M  V30 1974 C 184.22 -0.994586 -4.70809 0
M  V30 1975 C 186.572 -1.46134 -5.00294 0
M  V30 1976 C 183.9 -2.11169 -5.4738 0
M  V30 1977 C 186.252 -2.56903 -5.78086 0
M  V30 1978 C 184.916 -2.89852 -6.01284 0
M  V30 1979 H 184.186 0.0716246 -0.73753 0
M  V30 1980 H 186.833 -0.524046 -1.8419 0
M  V30 1981 H 185.138 1.31329 -3.69134 0
M  V30 1982 H 186.835 0.975804 -3.88946 0
M  V30 1983 H 183.425 -0.407366 -4.2666 0
M  V30 1984 H 187.609 -1.22397 -4.80971 0
M  V30 1985 H 182.865 -2.3707 -5.63567 0
M  V30 1986 H 187.039 -3.18608 -6.19243 0
M  V30 1987 H 184.666 -3.76533 -6.60399 0
M  V30 1988 N 186.241 1.57166 -0.116904 0
M  V30 1989 C 187.657 1.5779 0.239693 0
M  V30 1990 C 187.857 1.1295 1.66867 0
M  V30 1991 O 186.913 0.81592 2.38954 0
M  V30 1992 C 188.226 3.00699 0.00828202 0
M  V30 1993 C 189.774 3.12912 0.0743438 0
M  V30 1994 C 190.249 4.57817 -0.129348 0
M  V30 1995 N 191.74 4.63139 -0.075247 0
M  V30 1996 C 192.475 5.73023 -0.207788 0
M  V30 1997 N 191.971 6.91665 -0.396382 0
M  V30 1998 N 193.764 5.61906 -0.14751 0
M  V30 1999 H 185.915 1.84615 -1.05029 0
M  V30 2000 H 188.178 0.85311 -0.41341 0
M  V30 2001 H 187.884 3.37784 -0.979531 0
M  V30 2002 H 187.758 3.69848 0.741077 0
M  V30 2003 H 190.145 2.75686 1.05268 0
M  V30 2004 H 190.226 2.4631 -0.690297 0
M  V30 2005 H 189.87 4.95742 -1.10465 0
M  V30 2006 H 189.8 5.22507 0.655253 0
M  V30 2007 H 192.291 3.7784 0.0670898 0
M  V30 2008 H 192.604 7.71255 -0.488437 0
M  V30 2009 H 190.949 6.93654 -0.432329 0
M  V30 2010 H 194.14 4.681 -0.00115036 0
M  V30 2011 H 194.313 6.47501 -0.254247 0
M  V30 2012 N 187.719 -0.156864 1.56817 0
M  V30 2013 C 188.682 -1.17781 1.96622 0
M  V30 2014 C 189.682 -1.36401 0.851555 0
M  V30 2015 O 190.872 -1.33561 1.11836 0
M  V30 2016 C 188.004 -2.54008 2.27361 0
M  V30 2017 H 189.197 -0.836564 2.87996 0
M  V30 2018 H 186.75 -0.39985 1.51099 0
M  V30 2019 H 187.485 -2.9312 1.38748 0
M  V30 2020 H 187.27 -2.41856 3.08623 0
M  V30 2021 H 188.76 -3.27558 2.59029 0
M  V30 2022 N 189.197 -1.51736 -0.425897 0
M  V30 2023 C 190.613 -1.40166 -0.76326 0
M  V30 2024 C 190.813 -0.492962 -1.95377 0
M  V30 2025 O 189.869 0.0475815 -2.52455 0
M  V30 2026 C 191.182 -2.82403 -1.03291 0
M  V30 2027 C 192.73 -2.91632 -1.13665 0
M  V30 2028 C 193.205 -4.34801 -1.43916 0
M  V30 2029 N 194.696 -4.3796 -1.50816 0
M  V30 2030 C 195.431 -5.4578 -1.75817 0
M  V30 2031 N 194.927 -6.63744 -1.98534 0
M  V30 2032 N 196.72 -5.33274 -1.77694 0
M  V30 2033 H 188.871 -2.09361 0.358 0
M  V30 2034 H 191.134 -0.942941 0.0978094 0
M  V30 2035 H 190.84 -3.50943 -0.230696 0
M  V30 2036 H 190.714 -3.22428 -1.95754 0
M  V30 2037 H 193.101 -2.23284 -1.92947 0
M  V30 2038 H 193.182 -2.55088 -0.190756 0
M  V30 2039 H 192.826 -5.03703 -0.65157 0
M  V30 2040 H 192.756 -4.68868 -2.39729 0
M  V30 2041 H 195.247 -3.52919 -1.35118 0
M  V30 2042 H 195.56 -7.41704 -2.17013 0
M  V30 2043 H 193.905 -6.66839 -1.95832 0
M  V30 2044 H 197.096 -4.40098 -1.59473 0
M  V30 2045 H 197.269 -6.1738 -1.9684 0
M  V30 2046 N 190.675 0.682077 -1.42076 0
M  V30 2047 C 191.623 1.81707 -1.45208 0
M  V30 2048 C 192.617 1.66183 -0.328591 0
M  V30 2049 O 193.823 1.7288 -0.501264 0
M  V30 2050 H 190.198 0.599014 -0.454628 0
M  V30 2051 H 192.169 1.76183 -2.40836 0
M  V30 2052 C 190.918 3.19816 -1.36428 0
M  V30 2053 H 190.241 3.32385 -2.22171 0
M  V30 2054 H 191.681 3.99272 -1.42681 0
M  V30 2055 C 190.14 3.36809 -0.078191 0
M  V30 2056 O 190.67 3.92124 0.87188 0
M  V30 2057 N 188.876 2.906 0.00229266 0
M  V30 2058 H 188.423 2.45772 -0.771616 0
M  V30 2059 H 188.381 3.02347 0.862179 0
M  V30 2060 N 192.153 1.28127 0.917671 0
M  V30 2061 C 193.063 1.13556 2.05286 0
M  V30 2062 C 194.079 0.0630914 1.73886 0
M  V30 2063 O 195.255 0.271598 1.9956 0
M  V30 2064 C 192.32 0.794676 3.3747 0
M  V30 2065 C 191.381 1.94909 3.82504 0
M  V30 2066 C 190.614 1.62437 5.0838 0
M  V30 2067 O 190.837 0.536905 5.67867 0
M  V30 2068 O 189.771 2.46677 5.4903 0
M  V30 2069 H 193.597 2.08844 2.20495 0
M  V30 2070 H 191.182 1.07409 1.03845 0
M  V30 2071 H 193.064 0.618344 4.16839 0
M  V30 2072 H 191.739 -0.128581 3.23445 0
M  V30 2073 H 190.646 2.18055 3.03978 0
M  V30 2074 H 191.979 2.85291 4.01086 0
M  V30 2075 N 193.631 -1.12557 1.10312 0
M  V30 2076 C 194.563 -2.17971 0.708625 0
M  V30 2077 C 195.576 -1.60806 -0.254027 0
M  V30 2078 O 196.765 -1.78458 -0.0386891 0
M  V30 2079 C 193.865 -3.38891 0.0248198 0
M  V30 2080 C 193.038 -4.25548 1.01132 0
M  V30 2081 C 192.097 -5.24972 0.35924 0
M  V30 2082 O 191.123 -5.60174 1.00965 0
M  V30 2083 N 192.325 -5.73747 -0.882847 0
M  V30 2084 H 195.09 -2.52427 1.61557 0
M  V30 2085 H 192.651 -1.27967 0.991771 0
M  V30 2086 H 194.643 -4.02485 -0.422852 0
M  V30 2087 H 193.213 -3.02596 -0.784514 0
M  V30 2088 H 192.433 -3.58589 1.6373 0
M  V30 2089 H 193.721 -4.80294 1.67914 0
M  V30 2090 H 193.119 -5.4731 -1.43065 0
M  V30 2091 H 191.676 -6.39234 -1.27369 0
M  V30 2092 N 195.109 -0.891671 -1.2995 0
M  V30 2093 C 196.386 -0.433307 -1.9074 0
M  V30 2094 C 196.766 1.08646 -1.80995 0
M  V30 2095 O 196.114 1.92476 -1.23147 0
M  V30 2096 C 196.324 -0.938895 -3.36134 0
M  V30 2097 C 197.672 -0.977829 -4.13187 0
M  V30 2098 O 198.696 -0.886015 -3.45005 0
M  V30 2099 O 197.555 -1.11453 -5.35015 0
M  V30 2100 H 194.649 -0.133699 -0.816121 0
M  V30 2101 H 197.195 -0.981011 -1.38471 0
M  V30 2102 H 195.967 -1.98281 -3.37343 0
M  V30 2103 H 195.59 -0.37074 -3.95868 0
M  V30 2104 N 196.587 1.43421 -0.653314 0
M  V30 2105 C 197.835 2.01414 -0.166415 0
M  V30 2106 C 198.156 1.51803 1.22397 0
M  V30 2107 O 197.426 0.730693 1.81763 0
M  V30 2108 H 196.006 0.744703 -0.0585319 0
M  V30 2109 H 198.668 1.75629 -0.845003 0
M  V30 2110 H 197.764 3.11734 -0.151111 0
M  V30 2111 N 198.065 0.39524 1.52563 0
M  V30 2112 C 199.313 -0.184678 2.01254 0
M  V30 2113 C 199.634 -1.46822 1.28329 0
M  V30 2114 O 198.904 -1.91666 0.405094 0
M  V30 2115 H 197.484 -0.0712355 0.743596 0
M  V30 2116 H 200.146 0.528293 1.87603 0
M  V30 2117 H 199.242 -0.390681 3.09645 0
M  V30 2118 N 199.544 -1.57102 0.125237 0
M  V30 2119 C 200.821 -1.86953 -0.575142 0
M  V30 2120 C 201.201 -1.02749 -1.84407 0
M  V30 2121 O 200.549 -0.108144 -2.28244 0
M  V30 2122 C 200.759 -3.38198 -0.861583 0
M  V30 2123 C 202.107 -4.06937 -1.21192 0
M  V30 2124 O 203.131 -3.43252 -0.951645 0
M  V30 2125 O 201.99 -5.19364 -1.70068 0
M  V30 2126 H 199.084 -0.774147 -0.290906 0
M  V30 2127 H 201.63 -1.68942 0.160211 0
M  V30 2128 H 200.402 -3.91282 0.0373647 0
M  V30 2129 H 200.025 -3.61661 -1.65188 0
M  V30 2130 N 201.022 0.148545 -1.56898 0
M  V30 2131 C 201.952 1.18524 -2.01182 0
M  V30 2132 C 202.933 1.4489 -0.891123 0
M  V30 2133 O 204.118 1.55836 -1.15882 0
M  V30 2134 C 201.248 2.51879 -2.39112 0
M  V30 2135 C 200.202 2.40038 -3.54353 0
M  V30 2136 C 199.528 3.78089 -3.78091 0
M  V30 2137 C 200.828 1.88577 -4.87069 0
M  V30 2138 H 202.522 0.817029 -2.88036 0
M  V30 2139 H 200.068 0.391575 -1.38574 0
M  V30 2140 H 202.021 3.24627 -2.68692 0
M  V30 2141 H 200.745 2.90532 -1.49193 0
M  V30 2142 H 199.404 1.69742 -3.24936 0
M  V30 2143 H 199.052 4.14175 -2.85426 0
M  V30 2144 H 198.752 3.71028 -4.55645 0
M  V30 2145 H 200.276 4.52387 -4.10095 0
M  V30 2146 H 201.69 2.51117 -5.15377 0
M  V30 2147 H 200.087 1.9241 -5.68417 0
M  V30 2148 H 201.157 0.84136 -4.77545 0
M  V30 2149 N 202.5 1.5196 0.417844 0
M  V30 2150 C 203.746 1.65836 1.16732 0
M  V30 2151 C 204.079 0.382881 1.90388 0
M  V30 2152 O 203.354 -0.618368 1.84408 0
M  V30 2153 C 203.637 2.87466 2.16876 0
M  V30 2154 C 203.49 4.25041 1.47174 0
M  V30 2155 C 204.809 3.04613 3.17646 0
M  V30 2156 H 201.928 0.603515 0.423011 0
M  V30 2157 H 204.57 1.84494 0.454105 0
M  V30 2158 H 202.72 2.71689 2.777 0
M  V30 2159 H 204.392 4.52527 0.895376 0
M  V30 2160 H 202.635 4.26843 0.773806 0
M  V30 2161 H 203.306 5.06176 2.20204 0
M  V30 2162 H 205.782 3.1923 2.66892 0
M  V30 2163 H 204.658 3.91247 3.8499 0
M  V30 2164 H 204.919 2.17541 3.84874 0
M  V30 2165 N 203.978 -0.674533 1.42435 0
M  V30 2166 C 205.208 -1.46071 1.46105 0
M  V30 2167 C 205.616 -1.89067 0.0709605 0
M  V30 2168 O 204.959 -1.58731 -0.924677 0
M  V30 2169 C 205.021 -2.74145 2.32561 0
M  V30 2170 C 204.685 -2.53224 3.8043 0
M  V30 2171 C 205.682 -2.17809 4.72075 0
M  V30 2172 C 203.367 -2.6821 4.24698 0
M  V30 2173 C 205.361 -1.97648 6.05982 0
M  V30 2174 C 203.048 -2.47665 5.58664 0
M  V30 2175 C 204.046 -2.12437 6.49122 0
M  V30 2176 O 203.734 -1.9209 7.80613 0
M  V30 2177 H 203.466 -0.455959 0.499076 0
M  V30 2178 H 206.02 -0.836193 1.87609 0
M  V30 2179 H 204.25 -3.3908 1.85908 0
M  V30 2180 H 205.939 -3.36028 2.27683 0
M  V30 2181 H 206.705 -2.05826 4.39159 0
M  V30 2182 H 202.584 -2.94609 3.54579 0
M  V30 2183 H 206.128 -1.70075 6.7655 0
M  V30 2184 H 202.025 -2.59244 5.91154 0
M  V30 2185 H 202.793 -2.06686 7.91974 0
M  V30 2186 N 205.456 -1.28612 -0.910864 0
M  V30 2187 C 206.703 -1.15934 -1.66029 0
M  V30 2188 C 207.031 0.291483 -1.92303 0
M  V30 2189 O 206.286 1.22816 -1.52364 0
M  V30 2190 C 206.585 -1.90624 -3.0232 0
M  V30 2191 C 206.251 -3.40405 -2.95695 0
M  V30 2192 C 204.913 -3.81255 -2.93595 0
M  V30 2193 C 207.265 -4.359 -2.85728 0
M  V30 2194 C 204.593 -5.15936 -2.79334 0
M  V30 2195 C 206.945 -5.70657 -2.73007 0
M  V30 2196 C 205.609 -6.10779 -2.69267 0
M  V30 2197 H 204.879 -0.424234 -0.607541 0
M  V30 2198 H 207.526 -1.5942 -1.06101 0
M  V30 2199 H 205.831 -1.39696 -3.6605 0
M  V30 2200 H 207.528 -1.78228 -3.59215 0
M  V30 2201 H 204.118 -3.07927 -2.98125 0
M  V30 2202 H 208.302 -4.053 -2.86436 0
M  V30 2203 H 203.558 -5.46146 -2.74835 0
M  V30 2204 H 207.732 -6.44311 -2.64264 0
M  V30 2205 H 205.359 -7.1509 -2.57974 0
M  V30 2206 N 206.934 1.1197 -1.10907 0
M  V30 2207 C 207.866 2.17592 -0.720175 0
M  V30 2208 C 208.879 1.60938 0.245495 0
M  V30 2209 O 210.068 1.78476 0.0292245 0
M  V30 2210 C 207.168 3.38873 -0.0427917 0
M  V30 2211 C 206.341 4.25006 -1.03388 0
M  V30 2212 C 205.4 5.24774 -0.387075 0
M  V30 2213 O 204.426 5.59631 -1.03934 0
M  V30 2214 N 205.628 5.74208 0.852407 0
M  V30 2215 H 208.393 2.51567 -1.62893 0
M  V30 2216 H 205.954 1.27439 -0.998543 0
M  V30 2217 H 207.946 4.02703 0.401501 0
M  V30 2218 H 206.516 3.03007 0.768456 0
M  V30 2219 H 205.736 3.57716 -1.65629 0
M  V30 2220 H 207.024 4.79397 -1.70458 0
M  V30 2221 H 206.422 5.48062 1.40161 0
M  V30 2222 H 204.979 6.39901 1.23977 0
M  V30 2223 N 208.412 0.89855 1.29475 0
M  V30 2224 C 209.66 0.522847 1.9522 0
M  V30 2225 C 209.981 -0.93371 1.71192 0
M  V30 2226 O 209.251 -1.65823 1.04305 0
M  V30 2227 H 207.831 0.190366 0.722336 0
M  V30 2228 H 210.493 1.14459 1.5775 0
M  V30 2229 H 209.589 0.704476 3.04045 0
M  V30 2230 N 209.89 -1.43072 0.660911 0
M  V30 2231 C 210.84 -2.27948 -0.04847 0
M  V30 2232 C 211.824 -1.40325 -0.787246 0
M  V30 2233 O 213.016 -1.63893 -0.668446 0
M  V30 2234 C 210.145 -3.28143 -1.00881 0
M  V30 2235 C 209.231 -4.23252 -0.268108 0
M  V30 2236 N 209.622 -5.00656 0.719528 0
M  V30 2237 C 207.92 -4.43092 -0.508493 0
M  V30 2238 C 208.621 -5.70019 1.15988 0
M  V30 2239 N 207.597 -5.41364 0.492584 0
M  V30 2240 H 211.399 -2.85213 0.709279 0
M  V30 2241 H 208.913 -1.54869 0.488822 0
M  V30 2242 H 210.91 -3.87736 -1.53188 0
M  V30 2243 H 209.57 -2.7244 -1.76654 0
M  V30 2244 H 210.581 -5.06115 1.09855 0
M  V30 2245 H 207.258 -3.98449 -1.24679 0
M  V30 2246 H 208.648 -6.4214 1.97751 0
M  V30 2247 N 211.368 -0.403325 -1.52352 0
M  V30 2248 C 212.617 0.175668 -2.00934 0
M  V30 2249 C 212.93 1.46718 -1.29356 0
M  V30 2250 O 214.136 2.12708 -1.68724 0
M  V30 2251 C 212.592 0.363612 -3.58058 0
M  V30 2252 C 212.2 -0.915472 -4.38547 0
M  V30 2253 C 213.944 0.89821 -4.14888 0
M  V30 2254 C 211.851 -0.695035 -5.87302 0
M  V30 2255 H 210.781 0.0694234 -0.750797 0
M  V30 2256 H 213.432 -0.527879 -1.75743 0
M  V30 2257 H 211.814 1.12935 -3.79555 0
M  V30 2258 H 212.988 -1.68691 -4.28812 0
M  V30 2259 H 211.303 -1.37606 -3.93006 0
M  V30 2260 H 213.9 1.07907 -5.23699 0
M  V30 2261 H 214.243 1.87126 -3.71873 0
M  V30 2262 H 214.776 0.191681 -3.97338 0
M  V30 2263 H 211.515 -1.63948 -6.34666 0
M  V30 2264 H 211.035 0.0372116 -5.99788 0
M  V30 2265 H 212.714 -0.33497 -6.46132 0
M  V30 2266 N 212.846 1.57033 -0.133567 0
M  V30 2267 C 214.071 2.00475 0.531477 0
M  V30 2268 C 214.496 1.01291 1.58499 0
M  V30 2269 O 213.854 -0.0133279 1.81295 0
M  V30 2270 C 213.902 3.42729 1.12113 0
M  V30 2271 O 213.006 3.46498 2.23636 0
M  V30 2272 H 212.347 0.650876 0.131362 0
M  V30 2273 H 214.877 2.03344 -0.22634 0
M  V30 2274 H 214.887 3.81246 1.4531 0
M  V30 2275 H 213.562 4.14428 0.349557 0
M  V30 2276 H 212.139 3.19811 1.91769 0
M  V30 2277 N 214.325 -0.140222 1.56975 0
M  V30 2278 C 215.736 -0.699596 1.73097 0
M  V30 2279 C 216.087 -1.8134 0.749022 0
M  V30 2280 O 215.212 -2.16241 -0.0828503 0
M  V30 2281 C 215.807 -1.27582 3.1386 0
M  V30 2282 C 214.366 -1.78169 3.31561 0
M  V30 2283 C 213.513 -0.672855 2.69013 0
M  V30 2284 H 216.464 0.0855115 1.58469 0
M  V30 2285 H 216.485 -2.14561 3.14235 0
M  V30 2286 H 215.997 -0.464955 3.85305 0
M  V30 2287 H 214.098 -2.61801 2.65124 0
M  V30 2288 H 214.211 -1.90574 4.39566 0
M  V30 2289 H 212.575 -1.10118 2.29665 0
M  V30 2290 H 213.358 0.126679 3.43066 0
M  V30 2291 N 215.803 -1.52179 -0.40978 0
M  V30 2292 C 217.051 -1.65878 -1.15451 0
M  V30 2293 C 217.372 -0.390771 -1.91044 0
M  V30 2294 O 216.642 0.594323 -1.86667 0
M  V30 2295 H 215.222 -0.611405 -0.429177 0
M  V30 2296 H 217.884 -1.89219 -0.467134 0
M  V30 2297 H 216.98 -2.49954 -1.86894 0
M  V30 2298 N 217.281 0.66697 -1.42791 0
M  V30 2299 C 218.527 1.4291 -1.43891 0
M  V30 2300 C 218.86 1.94114 -0.0578972 0
M  V30 2301 O 218.135 1.71414 0.91911 0
M  V30 2302 C 218.418 2.62049 -2.46987 0
M  V30 2303 C 218.271 2.16426 -3.94309 0
M  V30 2304 C 219.59 3.64266 -2.46978 0
M  V30 2305 H 216.709 0.518306 -0.523954 0
M  V30 2306 H 219.351 0.757321 -1.74255 0
M  V30 2307 H 217.501 3.19361 -2.21225 0
M  V30 2308 H 219.173 1.64221 -4.31079 0
M  V30 2309 H 217.416 1.47925 -4.078 0
M  V30 2310 H 218.087 3.02038 -4.62036 0
M  V30 2311 H 220.563 3.16686 -2.69906 0
M  V30 2312 H 219.439 4.45196 -3.21079 0
M  V30 2313 H 219.7 4.15927 -1.49857 0
M  V30 2314 N 218.759 1.29093 0.90403 0
M  V30 2315 C 219.989 1.19516 1.68522 0
M  V30 2316 C 220.397 -0.24738 1.87576 0
M  V30 2317 O 219.74 -1.17798 1.40959 0
M  V30 2318 C 219.802 1.83249 3.0929 0
M  V30 2319 C 219.466 3.32531 3.13484 0
M  V30 2320 C 220.463 4.28821 2.93953 0
M  V30 2321 C 218.148 3.73656 3.35688 0
M  V30 2322 C 220.142 5.64212 2.96553 0
M  V30 2323 C 217.829 5.0917 3.37919 0
M  V30 2324 C 218.827 6.04258 3.18373 0
M  V30 2325 O 218.515 7.37298 3.20385 0
M  V30 2326 H 218.247 0.415467 0.533257 0
M  V30 2327 H 220.801 1.70912 1.13922 0
M  V30 2328 H 219.031 1.26358 3.65473 0
M  V30 2329 H 220.72 1.68054 3.69476 0
M  V30 2330 H 221.486 3.98382 2.76616 0
M  V30 2331 H 217.365 3.00101 3.49943 0
M  V30 2332 H 220.909 6.38407 2.81216 0
M  V30 2333 H 216.806 5.39256 3.54787 0
M  V30 2334 H 217.574 7.46048 3.36681 0
M  V30 2335 N 220.237 -1.11381 1.11499 0
M  V30 2336 C 221.2 -2.15622 0.777153 0
M  V30 2337 C 222.2 -1.59504 -0.203779 0
M  V30 2338 O 223.39 -1.74188 0.020782 0
M  V30 2339 C 220.522 -3.40556 0.153116 0
M  V30 2340 H 221.715 -2.47021 1.70061 0
M  V30 2341 H 219.268 -1.26577 0.916952 0
M  V30 2342 H 220.003 -3.14767 -0.780536 0
M  V30 2343 H 219.788 -3.8257 0.859238 0
M  V30 2344 H 221.278 -4.17546 -0.0671044 0
M  V30 2345 N 221.715 -0.905404 -1.28997 0
M  V30 2346 C 223.131 -0.60233 -1.47798 0
M  V30 2347 C 223.331 0.854645 -1.82478 0
M  V30 2348 O 222.387 1.63439 -1.92468 0
M  V30 2349 C 223.7 -1.53306 -2.58685 0
M  V30 2350 C 225.248 -1.53887 -2.72558 0
M  V30 2351 C 225.723 -2.45602 -3.86579 0
M  V30 2352 N 227.214 -2.43681 -3.93921 0
M  V30 2353 C 227.949 -3.11347 -4.81509 0
M  V30 2354 N 227.445 -3.88313 -5.73746 0
M  V30 2355 N 229.238 -3.00476 -4.75048 0
M  V30 2356 H 221.389 -1.84765 -1.04764 0
M  V30 2357 H 223.652 -0.792025 -0.520961 0
M  V30 2358 H 223.358 -2.57141 -2.39941 0
M  V30 2359 H 223.232 -1.25787 -3.55609 0
M  V30 2360 H 225.619 -0.507941 -2.90696 0
M  V30 2361 H 225.7 -1.85447 -1.76191 0
M  V30 2362 H 225.344 -3.48792 -3.69197 0
M  V30 2363 H 225.274 -2.11349 -4.82327 0
M  V30 2364 H 227.765 -1.87767 -3.27951 0
M  V30 2365 H 228.078 -4.36985 -6.37389 0
M  V30 2366 H 226.423 -3.92419 -5.73614 0
M  V30 2367 H 229.614 -2.39858 -4.01977 0
M  V30 2368 H 229.787 -3.53485 -5.43095 0
M  V30 2369 N 223.193 1.4272 -0.668489 0
M  V30 2370 C 224.156 2.292 0.00448567 0
M  V30 2371 C 225.156 1.43001 0.735339 0
M  V30 2372 O 226.346 1.64461 0.57429 0
M  V30 2373 C 223.478 3.25375 1.01705 0
M  V30 2374 H 224.671 2.90199 -0.756608 0
M  V30 2375 H 222.224 1.50254 -0.430506 0
M  V30 2376 H 222.959 2.69301 1.80686 0
M  V30 2377 H 222.744 3.88944 0.496463 0
M  V30 2378 H 224.234 3.90245 1.48655 0
M  V30 2379 N 224.671 0.411399 1.52136 0
M  V30 2380 C 225.918 -0.163645 2.01838 0
M  V30 2381 C 226.246 -1.4495 1.29691 0
M  V30 2382 O 225.501 -1.91725 0.392431 0
M  V30 2383 C 225.8 -0.455872 3.54481 0
M  V30 2384 C 225.466 0.741055 4.44769 0
M  V30 2385 C 224.128 1.06936 4.69167 0
M  V30 2386 C 226.48 1.54075 4.97906 0
M  V30 2387 C 223.808 2.19851 5.43951 0
M  V30 2388 C 226.16 2.66067 5.73926 0
M  V30 2389 C 224.824 2.99381 5.96596 0
M  V30 2390 H 224.094 -0.0598821 0.738576 0
M  V30 2391 H 226.741 0.553283 1.83333 0
M  V30 2392 H 225.046 -1.2544 3.71177 0
M  V30 2393 H 226.743 -0.913802 3.90449 0
M  V30 2394 H 223.333 0.475192 4.25958 0
M  V30 2395 H 227.517 1.30033 4.78963 0
M  V30 2396 H 222.773 2.46006 5.59724 0
M  V30 2397 H 226.947 3.28419 6.14096 0
M  V30 2398 H 224.574 3.86992 6.54325 0
M  V30 2399 N 226.149 -1.5696 0.141893 0
M  V30 2400 C 227.079 -2.19516 -0.795936 0
M  V30 2401 C 228.06 -1.14187 -1.26077 0
M  V30 2402 O 229.245 -1.42511 -1.31925 0
M  V30 2403 C 226.375 -2.81272 -2.03723 0
M  V30 2404 C 225.329 -3.92384 -1.70936 0
M  V30 2405 C 224.655 -4.41052 -3.02287 0
M  V30 2406 C 225.955 -5.13403 -0.959954 0
M  V30 2407 H 227.649 -2.98138 -0.274596 0
M  V30 2408 H 225.195 -1.43406 -0.130636 0
M  V30 2409 H 227.148 -3.237 -2.69808 0
M  V30 2410 H 225.872 -1.99973 -2.58221 0
M  V30 2411 H 224.531 -3.50566 -1.07232 0
M  V30 2412 H 224.179 -3.56582 -3.54765 0
M  V30 2413 H 223.879 -5.15993 -2.81114 0
M  V30 2414 H 225.403 -4.86146 -3.69451 0
M  V30 2415 H 226.817 -5.52706 -1.52279 0
M  V30 2416 H 225.214 -5.94073 -0.848357 0
M  V30 2417 H 226.284 -4.84875 0.0492434 0
M  V30 2418 N 227.627 0.131896 -1.57047 0
M  V30 2419 C 228.537 1.1815 -2.02676 0
M  V30 2420 C 229.553 1.46113 -0.944824 0
M  V30 2421 O 230.729 1.57485 -1.25541 0
M  V30 2422 C 227.794 2.49139 -2.41103 0
M  V30 2423 C 226.855 2.28688 -3.63318 0
M  V30 2424 C 226.088 3.53431 -3.99903 0
M  V30 2425 O 226.311 4.60223 -3.36973 0
M  V30 2426 O 225.245 3.45198 -4.93074 0
M  V30 2427 H 229.071 0.824069 -2.92306 0
M  V30 2428 H 226.656 0.341745 -1.45439 0
M  V30 2429 H 228.538 3.26338 -2.66611 0
M  V30 2430 H 227.213 2.84382 -1.54624 0
M  V30 2431 H 226.12 1.4939 -3.42977 0
M  V30 2432 H 227.453 1.98355 -4.50462 0
M  V30 2433 N 229.106 1.52395 0.401703 0
M  V30 2434 C 230.354 1.66488 1.14569 0
M  V30 2435 C 230.675 0.400897 1.90835 0
M  V30 2436 O 229.945 -0.584415 1.8698 0
M  V30 2437 H 228.525 0.613672 0.425929 0
M  V30 2438 H 231.187 1.89464 0.457093 0
M  V30 2439 H 230.283 2.50942 1.85566 0
M  V30 2440 N 230.584 -0.659388 1.43143 0
M  V30 2441 C 232 -0.974337 1.26407 0
M  V30 2442 C 232.2 -2.007 0.179341 0
M  V30 2443 O 231.256 -2.4856 -0.444295 0
M  V30 2444 C 232.569 -1.46447 2.62628 0
M  V30 2445 C 234.117 -1.58144 2.7011 0
M  V30 2446 C 234.592 -2.1055 4.06734 0
M  V30 2447 N 236.083 -2.17861 4.08767 0
M  V30 2448 C 236.818 -2.59519 5.1131 0
M  V30 2449 N 236.314 -3.00518 6.24228 0
M  V30 2450 N 238.107 -2.59404 4.98664 0
M  V30 2451 H 230.258 0.0240528 2.12386 0
M  V30 2452 H 232.521 -0.0518065 0.946583 0
M  V30 2453 H 232.227 -0.780123 3.42939 0
M  V30 2454 H 232.101 -2.44058 2.87603 0
M  V30 2455 H 234.488 -2.25682 1.90136 0
M  V30 2456 H 234.569 -0.589828 2.48907 0
M  V30 2457 H 234.213 -1.43616 4.87172 0
M  V30 2458 H 234.143 -3.10531 4.25298 0
M  V30 2459 H 236.634 -1.88975 3.27257 0
M  V30 2460 H 236.947 -3.31036 6.98309 0
M  V30 2461 H 235.292 -2.98337 6.2771 0
M  V30 2462 H 238.483 -2.26747 4.09516 0
M  V30 2463 H 238.656 -2.91548 5.78709 0
M  V30 2464 N 232.062 -1.29571 -0.897171 0
M  V30 2465 C 232.992 -1.17473 -2.01798 0
M  V30 2466 C 233.973 -0.068323 -1.69963 0
M  V30 2467 O 235.158 -0.248239 -1.92607 0
M  V30 2468 C 232.288 -0.853099 -3.36659 0
M  V30 2469 C 231.242 -1.9161 -3.82713 0
M  V30 2470 C 230.568 -1.44773 -5.14728 0
M  V30 2471 C 231.868 -3.32535 -4.02763 0
M  V30 2472 H 233.562 -2.11237 -2.12177 0
M  V30 2473 H 231.108 -1.01699 -1.01948 0
M  V30 2474 H 233.061 -0.755165 -4.14578 0
M  V30 2475 H 231.785 0.120236 -3.26379 0
M  V30 2476 H 230.444 -2.00346 -3.07013 0
M  V30 2477 H 230.092 -0.462995 -5.00865 0
M  V30 2478 H 229.792 -2.15865 -5.46513 0
M  V30 2479 H 231.316 -1.36334 -5.95185 0
M  V30 2480 H 232.73 -3.26626 -4.71156 0
M  V30 2481 H 231.127 -4.01607 -4.45905 0
M  V30 2482 H 232.197 -3.75326 -3.07016 0
M  V30 2483 N 233.54 1.10788 -1.12088 0
M  V30 2484 C 234.768 1.86461 -0.896651 0
M  V30 2485 C 235.183 1.80492 0.553912 0
M  V30 2486 O 234.54 1.19102 1.38278 0
M  V30 2487 C 234.591 3.35006 -1.35843 0
M  V30 2488 O 234.312 3.40866 -2.75213 0
M  V30 2489 C 235.813 4.27565 -1.1706 0
M  V30 2490 H 233.033 0.589425 -0.320654 0
M  V30 2491 H 235.577 1.40076 -1.48993 0
M  V30 2492 H 233.732 3.7887 -0.808458 0
M  V30 2493 H 234.146 4.33411 -2.9539 0
M  V30 2494 H 235.62 5.30007 -1.54263 0
M  V30 2495 H 236.097 4.3906 -0.110814 0
M  V30 2496 H 236.703 3.89501 -1.70789 0
M  V30 2497 N 235.018 0.912232 1.28515 0
M  V30 2498 C 235.95 0.35676 2.26406 0
M  V30 2499 C 236.963 -0.503933 1.54804 0
M  V30 2500 O 238.152 -0.319059 1.75625 0
M  V30 2501 C 235.252 -0.508825 3.35058 0
M  V30 2502 C 234.425 0.329007 4.36161 0
M  V30 2503 C 233.484 -0.471422 5.24084 0
M  V30 2504 O 232.51 0.115482 5.69083 0
M  V30 2505 N 233.712 -1.77479 5.52704 0
M  V30 2506 H 236.477 1.19818 2.74707 0
M  V30 2507 H 234.038 0.778022 1.4198 0
M  V30 2508 H 236.03 -1.051 3.90815 0
M  V30 2509 H 234.6 -1.25095 2.86478 0
M  V30 2510 H 233.82 1.05256 3.79888 0
M  V30 2511 H 235.108 0.90234 5.00735 0
M  V30 2512 H 234.506 -2.27417 5.17975 0
M  V30 2513 H 233.063 -2.26382 6.11224 0
M  V30 2514 N 236.496 -1.42363 0.676048 0
M  V30 2515 C 237.406 -2.346 -0.00153389 0
M  V30 2516 C 238.422 -1.5516 -0.787485 0
M  V30 2517 O 239.598 -1.87723 -0.729521 0
M  V30 2518 C 236.663 -3.33705 -0.940298 0
M  V30 2519 C 235.724 -4.29042 -0.148739 0
M  V30 2520 C 234.957 -5.23413 -1.04279 0
M  V30 2521 O 235.18 -5.22749 -2.28232 0
M  V30 2522 O 234.114 -5.99795 -0.502925 0
M  V30 2523 H 237.94 -2.94082 0.758268 0
M  V30 2524 H 235.525 -1.42888 0.436289 0
M  V30 2525 H 237.407 -3.94586 -1.47917 0
M  V30 2526 H 236.082 -2.76695 -1.67993 0
M  V30 2527 H 234.989 -3.71571 0.43427 0
M  V30 2528 H 236.322 -4.89097 0.551805 0
M  V30 2529 N 237.974 -0.419461 -1.51915 0
M  V30 2530 C 238.906 0.43646 -2.25006 0
M  V30 2531 C 239.919 1.00149 -1.28351 0
M  V30 2532 O 241.108 0.898674 -1.54227 0
M  V30 2533 C 238.208 1.6206 -2.9764 0
M  V30 2534 C 237.381 1.17763 -4.21249 0
M  V30 2535 C 236.44 2.22985 -4.76617 0
M  V30 2536 O 235.466 1.83151 -5.38929 0
M  V30 2537 N 236.668 3.55271 -4.59089 0
M  V30 2538 H 239.433 -0.18989 -2.99098 0
M  V30 2539 H 236.994 -0.247386 -1.59999 0
M  V30 2540 H 238.986 2.32038 -3.31573 0
M  V30 2541 H 237.556 2.15266 -2.2667 0
M  V30 2542 H 236.776 0.305582 -3.93014 0
M  V30 2543 H 238.064 0.858781 -5.015 0
M  V30 2544 H 237.462 3.90377 -4.09417 0
M  V30 2545 H 236.019 4.21195 -4.97432 0
M  V30 2546 N 239.452 1.56882 -0.150215 0
M  V30 2547 C 240.382 2.19935 0.784284 0
M  V30 2548 C 241.363 1.14854 1.25469 0
M  V30 2549 O 242.548 1.43209 1.31168 0
M  V30 2550 C 239.678 2.82349 2.02229 0
M  V30 2551 C 238.632 3.93285 1.68853 0
M  V30 2552 C 237.958 4.42649 2.99944 0
M  V30 2553 C 239.258 5.13904 0.932714 0
M  V30 2554 H 240.952 2.9828 0.258781 0
M  V30 2555 H 238.498 1.43473 0.123029 0
M  V30 2556 H 240.451 3.25126 2.68088 0
M  V30 2557 H 239.175 2.0134 2.57157 0
M  V30 2558 H 237.834 3.5113 1.05371 0
M  V30 2559 H 237.482 3.58458 3.52869 0
M  V30 2560 H 237.182 5.17476 2.78374 0
M  V30 2561 H 238.706 4.88099 3.66868 0
M  V30 2562 H 240.12 5.53506 1.49345 0
M  V30 2563 H 238.517 5.94515 0.81684 0
M  V30 2564 H 239.587 4.84842 -0.0749568 0
M  V30 2565 N 240.93 -0.123565 1.57115 0
M  V30 2566 C 242.207 -0.862196 1.75572 0
M  V30 2567 C 242.587 -1.98279 0.724475 0
M  V30 2568 O 241.935 -2.27102 -0.252407 0
M  V30 2569 C 242.145 -1.38309 3.20424 0
M  V30 2570 C 243.493 -1.83724 3.82793 0
M  V30 2571 O 244.517 -1.47999 3.23998 0
M  V30 2572 O 243.376 -2.49685 4.86127 0
M  V30 2573 H 240.47 -0.409113 0.718718 0
M  V30 2574 H 243.016 -0.107661 1.69358 0
M  V30 2575 H 241.788 -0.578889 3.86994 0
M  V30 2576 H 241.411 -2.20046 3.31158 0
M  V30 2577 N 242.408 -1.52605 -0.393616 0
M  V30 2578 C 243.356 -1.77688 -1.50099 0
M  V30 2579 C 244.35 -0.644615 -1.56656 0
M  V30 2580 O 245.556 -0.826997 -1.59877 0
M  V30 2581 H 241.931 -0.562159 -0.499481 0
M  V30 2582 H 243.902 -2.7043 -1.26135 0
M  V30 2583 C 242.651 -1.95858 -2.87289 0
M  V30 2584 H 241.974 -2.8241 -2.82992 0
M  V30 2585 H 243.414 -2.174 -3.64024 0
M  V30 2586 C 241.873 -0.729848 -3.28899 0
M  V30 2587 O 242.403 0.0949217 -4.01588 0
M  V30 2588 N 240.609 -0.561283 -2.85128 0
M  V30 2589 H 240.156 -1.23357 -2.26143 0
M  V30 2590 H 240.114 0.2595 -3.13327 0
M  V30 2591 N 243.887 0.651787 -1.4349 0
M  V30 2592 C 245.134 1.41167 -1.45183 0
M  V30 2593 C 245.462 1.94349 -0.0766601 0
M  V30 2594 O 244.717 1.72804 0.918555 0
M  V30 2595 C 245.016 2.60914 -2.44251 0
M  V30 2596 C 244.682 2.26142 -3.9009 0
M  V30 2597 C 243.344 2.16371 -4.2981 0
M  V30 2598 C 245.696 1.98334 -4.81989 0
M  V30 2599 C 243.024 1.7695 -5.5938 0
M  V30 2600 C 245.376 1.6041 -6.11924 0
M  V30 2601 C 244.04 1.49166 -6.5062 0
M  V30 2602 H 243.31 0.516566 -0.531263 0
M  V30 2603 H 245.957 0.741099 -1.76579 0
M  V30 2604 H 244.262 3.3311 -2.06265 0
M  V30 2605 H 245.959 3.19127 -2.42815 0
M  V30 2606 H 242.549 2.34658 -3.58655 0
M  V30 2607 H 246.733 2.04803 -4.52072 0
M  V30 2608 H 241.989 1.66831 -5.88198 0
M  V30 2609 H 246.163 1.37925 -6.82605 0
M  V30 2610 H 243.79 1.1839 -7.50925 0
M  V30 2611 N 245.365 1.30045 0.890287 0
M  V30 2612 C 246.781 1.08261 1.17268 0
M  V30 2613 C 246.981 -0.160063 2.00863 0
M  V30 2614 O 246.037 -0.855181 2.37577 0
M  V30 2615 C 247.35 2.34323 1.8845 0
M  V30 2616 C 248.898 2.39735 2.01237 0
M  V30 2617 C 249.373 3.65625 2.7583 0
M  V30 2618 N 250.864 3.66402 2.83379 0
M  V30 2619 C 251.599 4.60498 3.41657 0
M  V30 2620 N 251.095 5.64933 4.01026 0
M  V30 2621 N 252.888 4.48051 3.39421 0
M  V30 2622 H 245.039 2.09777 0.332762 0
M  V30 2623 H 247.302 0.92446 0.209948 0
M  V30 2624 H 247.008 3.2498 1.34465 0
M  V30 2625 H 246.882 2.4256 2.88867 0
M  V30 2626 H 249.269 1.4956 2.54393 0
M  V30 2627 H 249.35 2.35476 0.999232 0
M  V30 2628 H 248.994 4.56156 2.23347 0
M  V30 2629 H 248.924 3.67144 3.77509 0
M  V30 2630 H 251.415 2.90896 2.41222 0
M  V30 2631 H 251.728 6.32841 4.43545 0
M  V30 2632 H 250.073 5.68732 3.99461 0
M  V30 2633 H 253.264 3.65649 2.92264 0
M  V30 2634 H 253.437 5.21565 3.84544 0
M  V30 2635 N 246.843 -1.10192 1.12674 0
M  V30 2636 C 247.775 -2.16418 0.754701 0
M  V30 2637 C 248.788 -1.61309 -0.21986 0
M  V30 2638 O 249.977 -1.785 -0.000826841 0
M  V30 2639 C 247.077 -3.38762 0.096698 0
M  V30 2640 C 246.25 -4.23307 1.10136 0
M  V30 2641 C 245.309 -5.24092 0.470513 0
M  V30 2642 O 244.335 -5.57906 1.12824 0
M  V30 2643 N 245.537 -5.75491 -0.760948 0
M  V30 2644 H 248.302 -2.48943 1.66875 0
M  V30 2645 H 245.863 -1.25834 1.01869 0
M  V30 2646 H 247.855 -4.03291 -0.337384 0
M  V30 2647 H 246.425 -3.04192 -0.720153 0
M  V30 2648 H 245.645 -3.55036 1.71299 0
M  V30 2649 H 246.933 -4.76624 1.78064 0
M  V30 2650 H 246.331 -5.50222 -1.31424 0
M  V30 2651 H 244.888 -6.41792 -1.13781 0
M  V30 2652 N 248.321 -0.919034 -1.28029 0
M  V30 2653 C 249.231 -0.416756 -2.30869 0
M  V30 2654 C 250.247 0.498235 -1.66714 0
M  V30 2655 O 251.423 0.383144 -1.97722 0
M  V30 2656 C 248.488 0.330274 -3.45123 0
M  V30 2657 C 247.549 -0.618578 -4.2482 0
M  V30 2658 C 246.782 0.0928959 -5.33619 0
M  V30 2659 O 247.005 1.31375 -5.55065 0
M  V30 2660 O 245.939 -0.574499 -5.99152 0
M  V30 2661 H 249.765 -1.27043 -2.75851 0
M  V30 2662 H 247.35 -0.684052 -1.3282 0
M  V30 2663 H 249.232 0.751972 -4.14636 0
M  V30 2664 H 247.907 1.1597 -3.02213 0
M  V30 2665 H 246.814 -1.08978 -3.57875 0
M  V30 2666 H 248.147 -1.41497 -4.71423 0
M  V30 2667 N 249.799 1.42003 -0.683588 0
M  V30 2668 C 251.045 2.01712 -0.209825 0
M  V30 2669 C 251.378 1.53968 1.18353 0
M  V30 2670 O 250.653 0.745661 1.79639 0
M  V30 2671 C 250.936 3.59202 -0.254197 0
M  V30 2672 C 250.789 4.17102 -1.68363 0
M  V30 2673 C 252.108 4.38344 0.392709 0
M  V30 2674 H 249.227 0.732891 -0.0777189 0
M  V30 2675 H 251.869 1.68909 -0.87004 0
M  V30 2676 H 250.019 3.87278 0.307954 0
M  V30 2677 H 251.691 3.99946 -2.29871 0
M  V30 2678 H 249.934 3.72597 -2.22157 0
M  V30 2679 H 250.605 5.26249 -1.6663 0
M  V30 2680 H 253.081 4.16011 -0.0859162 0
M  V30 2681 H 251.957 5.47901 0.331063 0
M  V30 2682 H 252.218 4.16887 1.47164 0
M  V30 2683 N 251.277 0.427512 1.51691 0
M  V30 2684 C 252.227 -0.406604 2.24345 0
M  V30 2685 C 253.211 -0.998276 1.26187 0
M  V30 2686 O 254.403 -0.918045 1.51331 0
M  V30 2687 C 251.532 -1.51266 3.08177 0
M  V30 2688 C 250.618 -0.930868 4.13758 0
M  V30 2689 N 251.009 -0.0773552 5.05741 0
M  V30 2690 C 249.307 -1.19948 4.29568 0
M  V30 2691 C 250.008 0.248344 5.8117 0
M  V30 2692 N 248.984 -0.365535 5.4237 0
M  V30 2693 H 252.786 0.251581 2.92821 0
M  V30 2694 H 250.3 0.239003 1.60632 0
M  V30 2695 H 252.297 -2.123 3.58796 0
M  V30 2696 H 250.957 -2.17328 2.41244 0
M  V30 2697 H 251.968 0.288351 5.17097 0
M  V30 2698 H 248.645 -1.85832 3.73862 0
M  V30 2699 H 250.035 0.942286 6.6526 0
M  V30 2700 N 252.755 -1.56801 0.158532 0
M  V30 2701 C 254.003 -1.96102 -0.488712 0
M  V30 2702 C 254.324 -1.04498 -1.64636 0
M  V30 2703 O 253.594 -0.108783 -1.95598 0
M  V30 2704 H 252.174 -0.724102 -0.183535 0
M  V30 2705 H 254.836 -1.93457 0.236728 0
M  V30 2706 H 253.932 -3.00097 -0.857219 0
M  V30 2707 N 254.233 0.115231 -1.57178 0
M  V30 2708 C 255.181 1.16014 -2.01602 0
M  V30 2709 C 256.175 1.42653 -0.913587 0
M  V30 2710 O 257.381 1.42571 -1.09879 0
M  V30 2711 H 253.756 0.391252 -0.642204 0
M  V30 2712 H 255.727 0.758998 -2.88586 0
M  V30 2713 C 254.476 2.47767 -2.4394 0
M  V30 2714 H 253.799 2.28108 -3.28339 0
M  V30 2715 H 255.239 3.19432 -2.78818 0
M  V30 2716 C 253.698 3.10617 -1.30455 0
M  V30 2717 O 254.228 3.96846 -0.622585 0
M  V30 2718 N 252.434 2.70553 -1.06064 0
M  V30 2719 H 251.981 2.00527 -1.61699 0
M  V30 2720 H 251.939 3.12934 -0.303284 0
M  V30 2721 N 255.711 1.52812 0.385517 0
M  V30 2722 C 256.959 1.67694 1.12797 0
M  V30 2723 C 257.28 0.421115 1.90399 0
M  V30 2724 O 256.55 -0.564551 1.87589 0
M  V30 2725 H 255.13 0.618155 0.419396 0
M  V30 2726 H 257.792 1.89938 0.436972 0
M  V30 2727 H 256.888 2.52896 1.82894 0
M  V30 2728 N 257.189 -0.644168 1.43834 0
M  V30 2729 C 258.119 -1.76814 1.52509 0
M  V30 2730 C 259.1 -1.65823 0.379052 0
M  V30 2731 O 260.285 -1.84781 0.597466 0
M  V30 2732 C 257.415 -3.15288 1.4564 0
M  V30 2733 C 256.369 -3.41053 2.58586 0
M  V30 2734 C 255.695 -4.79421 2.36769 0
M  V30 2735 C 256.995 -3.34902 4.00797 0
M  V30 2736 H 258.689 -1.69812 2.46586 0
M  V30 2737 H 256.235 -0.815542 1.1868 0
M  V30 2738 H 258.188 -3.93681 1.50311 0
M  V30 2739 H 256.912 -3.23043 0.480725 0
M  V30 2740 H 255.571 -2.65035 2.53282 0
M  V30 2741 H 255.219 -4.83863 1.37424 0
M  V30 2742 H 254.919 -4.9762 3.12487 0
M  V30 2743 H 256.443 -5.6006 2.43238 0
M  V30 2744 H 257.857 -4.03218 4.07539 0
M  V30 2745 H 256.254 -3.64637 4.76613 0
M  V30 2746 H 257.324 -2.32928 4.25291 0
M  V30 2747 N 258.668 -1.30515 -0.883378 0
M  V30 2748 C 259.893 -1.22487 -1.67367 0
M  V30 2749 C 260.318 0.208767 -1.86938 0
M  V30 2750 O 259.676 1.15015 -1.40148 0
M  V30 2751 C 259.724 -1.96041 -3.02655 0
M  V30 2752 O 258.828 -1.28859 -3.91751 0
M  V30 2753 H 258.169 -0.423573 -0.511353 0
M  V30 2754 H 260.699 -1.72362 -1.10239 0
M  V30 2755 H 260.709 -2.05124 -3.52687 0
M  V30 2756 H 259.384 -3.00307 -2.8773 0
M  V30 2757 H 257.961 -1.28141 -3.50192 0
M  V30 2758 N 260.146 1.09593 -1.13257 0
M  V30 2759 C 261.371 1.8604 -0.916732 0
M  V30 2760 C 261.796 1.80504 0.529146 0
M  V30 2761 O 261.154 1.18127 1.37534 0
M  V30 2762 C 261.202 3.32017 -1.40703 0
M  V30 2763 O 260.306 4.08141 -0.591153 0
M  V30 2764 H 259.647 0.576943 -0.328683 0
M  V30 2765 H 262.177 1.38405 -1.50682 0
M  V30 2766 H 262.187 3.82865 -1.4099 0
M  V30 2767 H 260.862 3.35361 -2.45979 0
M  V30 2768 H 259.439 3.67084 -0.656005 0
M  V30 2769 N 261.624 0.925811 1.2754 0
M  V30 2770 C 262.854 0.580666 1.98272 0
M  V30 2771 C 263.262 -0.845207 1.69272 0
M  V30 2772 O 262.605 -1.57306 0.948707 0
M  V30 2773 C 262.667 0.724418 3.52126 0
M  V30 2774 C 262.331 2.12206 4.04744 0
M  V30 2775 C 263.328 3.09604 4.17662 0
M  V30 2776 C 261.013 2.4385 4.39138 0
M  V30 2777 C 263.007 4.36755 4.64246 0
M  V30 2778 C 260.694 3.71237 4.85414 0
M  V30 2779 C 261.692 4.67503 4.97926 0
M  V30 2780 O 261.38 5.92624 5.43187 0
M  V30 2781 H 261.112 0.218987 0.639547 0
M  V30 2782 H 263.666 1.24452 1.63404 0
M  V30 2783 H 261.896 0.0034663 3.867 0
M  V30 2784 H 263.585 0.384607 4.04074 0
M  V30 2785 H 264.351 2.86478 3.91351 0
M  V30 2786 H 260.23 1.69665 4.28643 0
M  V30 2787 H 263.774 5.11898 4.73927 0
M  V30 2788 H 259.671 3.94182 5.11166 0
M  V30 2789 H 260.439 5.95585 5.61445 0
M  V30 2790 N 263.102 -1.41638 0.69111 0
M  V30 2791 C 264.513 -1.84346 0.295517 0
M  V30 2792 C 264.864 -1.57833 -1.16547 0
M  V30 2793 O 263.989 -1.04648 -1.89414 0
M  V30 2794 C 264.584 -3.34636 0.529575 0
M  V30 2795 C 263.143 -3.7593 0.187944 0
M  V30 2796 C 262.29 -2.65082 0.814052 0
M  V30 2797 H 265.241 -1.31253 0.892092 0
M  V30 2798 H 265.262 -3.79903 -0.213148 0
M  V30 2799 H 264.774 -3.53901 1.59297 0
M  V30 2800 H 262.875 -3.62268 -0.871367 0
M  V30 2801 H 262.988 -4.74808 0.63985 0
M  V30 2802 H 261.352 -2.53528 0.244017 0
M  V30 2803 H 262.135 -2.87167 1.88123 0
M  V30 2804 N 264.58 -0.43555 -1.51462 0
M  V30 2805 C 265.53 0.394701 -2.24558 0
M  V30 2806 C 266.514 0.99157 -1.26715 0
M  V30 2807 O 267.706 0.910007 -1.51815 0
M  V30 2808 C 264.835 1.4963 -3.08975 0
M  V30 2809 C 263.921 0.908912 -4.14246 0
M  V30 2810 N 264.312 0.0505335 -5.05775 0
M  V30 2811 C 262.61 1.17668 -4.30198 0
M  V30 2812 C 263.311 -0.279161 -5.8103 0
M  V30 2813 N 262.287 0.336767 -5.42556 0
M  V30 2814 H 266.089 -0.267106 -2.92684 0
M  V30 2815 H 263.603 -0.247518 -1.60503 0
M  V30 2816 H 265.6 2.10394 -3.59917 0
M  V30 2817 H 264.26 2.16046 -2.42393 0
M  V30 2818 H 265.271 -0.31577 -5.16936 0
M  V30 2819 H 261.948 1.83847 -3.74842 0
M  V30 2820 H 263.338 -0.977553 -6.64751 0
M  V30 2821 N 266.058 1.56714 -0.166846 0
M  V30 2822 C 267.469 1.83378 0.350646 0
M  V30 2823 C 267.82 1.08646 1.63372 0
M  V30 2824 O 266.945 0.338058 2.13743 0
M  V30 2825 C 267.54 3.32643 0.642963 0
M  V30 2826 C 266.099 3.59818 1.10491 0
M  V30 2827 C 265.246 2.76954 0.138411 0
M  V30 2828 H 268.197 1.53803 -0.391193 0
M  V30 2829 H 268.218 3.49878 1.49551 0
M  V30 2830 H 267.73 3.87007 -0.291055 0
M  V30 2831 H 265.831 3.1086 2.05418 0
M  V30 2832 H 265.944 4.68178 1.01716 0
M  V30 2833 H 264.308 2.4666 0.634911 0
M  V30 2834 H 265.091 3.34097 -0.789549 0
M  V30 2835 N 267.536 -0.106894 1.57237 0
M  V30 2836 C 268.483 -1.13049 2.01217 0
M  V30 2837 C 269.453 -1.40471 0.886403 0
M  V30 2838 O 270.638 -1.52133 1.15153 0
M  V30 2839 C 267.778 -2.4487 2.43172 0
M  V30 2840 C 266.891 -2.24281 3.69218 0
M  V30 2841 C 266.026 -3.49417 4.00101 0
M  V30 2842 C 265.065 -3.24038 5.19294 0
M  V30 2843 N 264.202 -4.41409 5.45988 0
M  V30 2844 H 269.042 -0.748456 2.88448 0
M  V30 2845 H 266.579 -0.358054 1.42676 0
M  V30 2846 H 268.537 -3.21786 2.65537 0
M  V30 2847 H 267.167 -2.80944 1.58967 0
M  V30 2848 H 266.219 -1.38224 3.54398 0
M  V30 2849 H 267.531 -2.01512 4.56283 0
M  V30 2850 H 266.685 -4.34746 4.2318 0
M  V30 2851 H 265.424 -3.75229 3.11535 0
M  V30 2852 H 264.429 -2.37102 4.96047 0
M  V30 2853 H 265.654 -2.99584 6.09447 0
M  V30 2854 H 263.6 -4.67319 4.60379 0
M  V30 2855 H 263.517 -4.21788 6.274 0
M  V30 2856 H 264.785 -5.27836 5.73593 0
M  V30 2857 N 269.014 -1.53014 -0.377408 0
M  V30 2858 C 269.944 -1.81589 -1.46791 0
M  V30 2859 C 270.925 -0.668622 -1.56408 0
M  V30 2860 O 272.11 -0.917337 -1.71168 0
M  V30 2861 C 269.24 -1.99519 -2.8427 0
M  V30 2862 C 268.194 -3.15249 -2.89486 0
M  V30 2863 C 267.52 -3.18451 -4.29527 0
M  V30 2864 C 268.82 -4.54084 -2.58079 0
M  V30 2865 H 270.514 -2.7291 -1.23127 0
M  V30 2866 H 268.06 -1.31319 -0.590883 0
M  V30 2867 H 270.013 -2.18092 -3.60575 0
M  V30 2868 H 268.737 -1.04897 -3.09296 0
M  V30 2869 H 267.396 -2.96477 -2.15631 0
M  V30 2870 H 267.044 -2.2149 -4.5161 0
M  V30 2871 H 266.744 -3.962 -4.33934 0
M  V30 2872 H 268.268 -3.39193 -5.07721 0
M  V30 2873 H 269.682 -4.72899 -3.24098 0
M  V30 2874 H 268.079 -5.33987 -2.7382 0
M  V30 2875 H 269.149 -4.60006 -1.53372 0
M  V30 2876 N 270.492 0.636531 -1.44174 0
M  V30 2877 C 271.425 1.76139 -1.45087 0
M  V30 2878 C 272.403 1.59611 -0.310326 0
M  V30 2879 O 273.587 1.81568 -0.506477 0
M  V30 2880 C 270.714 3.13648 -1.27839 0
M  V30 2881 C 269.76 3.48838 -2.45386 0
M  V30 2882 S 270.593 3.46927 -4.07924 0
M  V30 2883 C 271.749 4.87064 -3.9309 0
M  V30 2884 H 271.982 1.75096 -2.40268 0
M  V30 2885 H 269.515 0.810666 -1.31406 0
M  V30 2886 H 271.473 3.93002 -1.18575 0
M  V30 2887 H 270.134 3.12235 -0.341787 0
M  V30 2888 H 269.327 4.48886 -2.29167 0
M  V30 2889 H 268.929 2.76935 -2.51362 0
M  V30 2890 H 271.221 5.76153 -3.56446 0
M  V30 2891 H 272.164 5.08337 -4.92949 0
M  V30 2892 H 272.572 4.61384 -3.25246 0
M  V30 2893 N 271.97 1.30982 0.876444 0
M  V30 2894 C 273.381 1.18277 1.44456 0
M  V30 2895 C 273.732 -0.213265 1.95037 0
M  V30 2896 O 272.857 -1.11057 1.85729 0
M  V30 2897 C 273.452 2.1411 2.62569 0
M  V30 2898 C 272.011 2.05358 3.15444 0
M  V30 2899 C 271.158 2.03706 1.88146 0
M  V30 2900 H 274.109 1.43127 0.685584 0
M  V30 2901 H 274.13 1.72692 3.39054 0
M  V30 2902 H 273.642 3.15706 2.25724 0
M  V30 2903 H 271.743 1.06934 3.56926 0
M  V30 2904 H 271.856 2.94156 3.78166 0
M  V30 2905 H 270.22 1.48629 2.06837 0
M  V30 2906 H 271.003 3.07047 1.53547 0
M  V30 2907 N 273.449 -1.08991 1.13837 0
M  V30 2908 C 274.359 -2.19301 0.833333 0
M  V30 2909 C 275.375 -1.73026 -0.183847 0
M  V30 2910 O 276.551 -2.01395 -0.0138092 0
M  V30 2911 C 273.616 -3.45323 0.308651 0
M  V30 2912 C 272.677 -4.06255 1.38764 0
M  V30 2913 C 271.91 -5.26262 0.887896 0
M  V30 2914 O 272.133 -5.69747 -0.27287 0
M  V30 2915 O 271.067 -5.78435 1.66421 0
M  V30 2916 H 274.893 -2.47854 1.75506 0
M  V30 2917 H 272.478 -1.18012 0.916166 0
M  V30 2918 H 274.36 -4.21394 0.0216739 0
M  V30 2919 H 273.035 -3.18362 -0.585431 0
M  V30 2920 H 271.942 -3.318 1.72799 0
M  V30 2921 H 273.275 -4.37452 2.25602 0
M  V30 2922 N 274.927 -0.932562 -1.27047 0
M  V30 2923 C 276.174 -0.575559 -1.94148 0
M  V30 2924 C 276.502 0.883984 -1.73251 0
M  V30 2925 O 275.757 1.64655 -1.0577 0
M  V30 2926 C 276.056 -0.853713 -3.47054 0
M  V30 2927 C 275.722 -2.29577 -3.88079 0
M  V30 2928 C 274.384 -2.68999 -3.9899 0
M  V30 2929 C 276.736 -3.23331 -4.08787 0
M  V30 2930 C 274.064 -4.01289 -4.28 0
M  V30 2931 C 276.416 -4.55207 -4.39282 0
M  V30 2932 C 275.08 -4.94457 -4.48407 0
M  V30 2933 H 274.35 -0.210612 -0.710439 0
M  V30 2934 H 276.997 -1.17744 -1.51025 0
M  V30 2935 H 275.302 -0.169204 -3.91434 0
M  V30 2936 H 276.999 -0.55639 -3.97121 0
M  V30 2937 H 273.589 -1.97994 -3.80127 0
M  V30 2938 H 277.773 -2.94074 -3.99793 0
M  V30 2939 H 273.029 -4.31374 -4.33275 0
M  V30 2940 H 277.203 -5.27852 -4.54252 0
M  V30 2941 H 274.83 -5.96994 -4.7064 0
M  V30 2942 N 276.405 1.4127 -0.698611 0
M  V30 2943 C 277.651 2.01979 -0.239972 0
M  V30 2944 C 278.006 1.54353 1.14861 0
M  V30 2945 O 277.299 0.746218 1.76471 0
M  V30 2946 C 277.493 3.56592 -0.240192 0
M  V30 2947 C 277.322 4.19226 -1.62726 0
M  V30 2948 C 276.092 4.53389 -2.23084 0
M  V30 2949 C 278.29 4.45228 -2.57443 0
M  V30 2950 N 276.272 5.01327 -3.54323 0
M  V30 2951 C 277.643 4.94973 -3.73365 0
M  V30 2952 C 279.698 4.27243 -2.55671 0
M  V30 2953 C 278.401 5.28624 -4.878 0
M  V30 2954 C 280.427 4.61985 -3.69221 0
M  V30 2955 C 279.789 5.11904 -4.83873 0
M  V30 2956 H 275.888 0.770561 -0.133269 0
M  V30 2957 H 278.472 1.71767 -0.916748 0
M  V30 2958 H 276.643 3.86271 0.406082 0
M  V30 2959 H 278.375 4.04025 0.23356 0
M  V30 2960 H 275.13 4.39946 -1.75341 0
M  V30 2961 H 275.554 5.29697 -4.21604 0
M  V30 2962 H 280.196 3.87884 -1.68243 0
M  V30 2963 H 277.914 5.66905 -5.75885 0
M  V30 2964 H 281.5 4.49725 -3.69105 0
M  V30 2965 H 280.38 5.38282 -5.70282 0
M  V30 2966 N 277.883 0.443576 1.51229 0
M  V30 2967 C 278.815 -0.400608 2.25672 0
M  V30 2968 C 279.828 -0.980945 1.29928 0
M  V30 2969 O 281.017 -0.874024 1.55638 0
M  V30 2970 C 278.117 -1.57304 3.00181 0
M  V30 2971 C 277.29 -1.11046 4.23069 0
M  V30 2972 C 276.349 -2.15374 4.80105 0
M  V30 2973 O 275.375 -1.74554 5.41774 0
M  V30 2974 N 276.577 -3.47922 4.64683 0
M  V30 2975 H 279.342 0.23745 2.98758 0
M  V30 2976 H 276.903 0.272809 1.59585 0
M  V30 2977 H 278.895 -2.26733 3.35223 0
M  V30 2978 H 277.465 -2.11632 2.30066 0
M  V30 2979 H 276.685 -0.243019 3.9345 0
M  V30 2980 H 277.973 -0.778888 5.02803 0
M  V30 2981 H 277.371 -3.83815 4.15575 0
M  V30 2982 H 275.928 -4.13228 5.0407 0
M  V30 2983 N 279.361 -1.56624 0.175154 0
M  V30 2984 C 280.608 -1.96999 -0.468811 0
M  V30 2985 C 280.936 -1.06129 -1.62994 0
M  V30 2986 O 280.191 -0.0961771 -1.95464 0
M  V30 2987 C 280.49 -3.43419 -0.989864 0
M  V30 2988 C 280.156 -4.50866 0.0557687 0
M  V30 2989 C 278.818 -4.79975 0.343134 0
M  V30 2990 C 281.17 -5.15551 0.765308 0
M  V30 2991 C 278.498 -5.71066 1.34536 0
M  V30 2992 C 280.85 -6.07724 1.75654 0
M  V30 2993 C 279.514 -6.35199 2.05132 0
M  V30 2994 H 278.784 -0.720869 -0.17155 0
M  V30 2995 H 281.431 -1.89616 0.267924 0
M  V30 2996 H 279.736 -3.47772 -1.80449 0
M  V30 2997 H 281.433 -3.72002 -1.49719 0
M  V30 2998 H 278.023 -4.28229 -0.178381 0
M  V30 2999 H 282.207 -4.9317 0.556513 0
M  V30 3000 H 277.463 -5.90635 1.57988 0
M  V30 3001 H 281.637 -6.56912 2.31169 0
M  V30 3002 H 279.264 -7.05584 2.8294 0
M  V30 3003 N 280.839 0.0985539 -1.57292 0
M  V30 3004 C 282.25 0.653457 -1.74891 0
M  V30 3005 C 282.601 1.7929 -0.796838 0
M  V30 3006 O 281.726 2.16385 0.0254886 0
M  V30 3007 C 282.321 1.19216 -3.17133 0
M  V30 3008 C 280.88 1.69316 -3.36168 0
M  V30 3009 C 280.027 0.601294 -2.70702 0
M  V30 3010 H 282.978 -0.127497 -1.58187 0
M  V30 3011 H 282.999 2.06154 -3.19814 0
M  V30 3012 H 282.511 0.362635 -3.86402 0
M  V30 3013 H 280.612 2.5468 -2.71972 0
M  V30 3014 H 280.725 1.78853 -4.44464 0
M  V30 3015 H 279.089 1.0399 -2.32504 0
M  V30 3016 H 279.872 -0.217592 -3.4261 0
M  V30 3017 N 282.317 1.53212 0.369288 0
M  V30 3018 C 283.545 1.73119 1.13303 0
M  V30 3019 C 283.96 0.458455 1.83149 0
M  V30 3020 O 283.317 -0.568403 1.73423 0
M  V30 3021 C 283.368 2.89413 2.16616 0
M  V30 3022 O 283.089 4.11761 1.49614 0
M  V30 3023 C 284.59 3.21161 3.05566 0
M  V30 3024 H 281.81 0.579107 0.338934 0
M  V30 3025 H 284.354 1.99942 0.429338 0
M  V30 3026 H 282.509 2.64994 2.82589 0
M  V30 3027 H 282.923 4.76858 2.18419 0
M  V30 3028 H 284.397 4.05949 3.74045 0
M  V30 3029 H 284.874 2.36369 3.70171 0
M  V30 3030 H 285.48 3.47492 2.45213 0
M  V30 3031 N 283.795 -0.628877 1.44509 0
M  V30 3032 C 285.041 -1.39045 1.47629 0
M  V30 3033 C 285.374 -1.93892 0.109343 0
M  V30 3034 O 284.649 -1.7379 -0.87334 0
M  V30 3035 C 284.932 -2.55408 2.53848 0
M  V30 3036 C 284.785 -2.05896 3.99909 0
M  V30 3037 C 286.104 -3.5759 2.56549 0
M  V30 3038 H 283.223 -0.504232 0.537512 0
M  V30 3039 H 285.865 -0.710854 1.76201 0
M  V30 3040 H 284.015 -3.13384 2.29615 0
M  V30 3041 H 285.687 -1.52734 4.35282 0
M  V30 3042 H 283.93 -1.37061 4.11578 0
M  V30 3043 H 284.601 -2.89681 4.69882 0
M  V30 3044 H 287.077 -3.09419 2.78207 0
M  V30 3045 H 285.953 -4.36527 3.32769 0
M  V30 3046 H 286.214 -4.11808 1.60832 0
M  V30 3047 N 285.273 -1.31445 -0.869486 0
M  V30 3048 C 286.498 -1.24256 -1.66058 0
M  V30 3049 C 286.923 0.188928 -1.87149 0
M  V30 3050 O 286.281 1.13522 -1.4136 0
M  V30 3051 C 286.329 -1.9924 -3.00559 0
M  V30 3052 O 285.433 -1.33007 -3.90362 0
M  V30 3053 H 284.774 -0.428973 -0.506831 0
M  V30 3054 H 287.304 -1.73521 -1.08404 0
M  V30 3055 H 287.314 -2.08854 -3.50491 0
M  V30 3056 H 285.989 -3.03342 -2.84528 0
M  V30 3057 H 284.566 -1.31848 -3.48813 0
M  V30 3058 N 286.751 1.08385 -1.14413 0
M  V30 3059 C 287.684 2.14642 -0.774871 0
M  V30 3060 C 288.662 1.60761 0.243876 0
M  V30 3061 O 289.846 1.88031 0.132883 0
M  V30 3062 C 286.973 3.38366 -0.150491 0
M  V30 3063 C 286.019 4.10997 -1.13945 0
M  V30 3064 S 286.852 4.63797 -2.67679 0
M  V30 3065 C 288.008 5.90808 -2.06631 0
M  V30 3066 H 288.241 2.45633 -1.67487 0
M  V30 3067 H 285.774 1.20498 -0.96538 0
M  V30 3068 H 287.732 4.09996 0.203334 0
M  V30 3069 H 286.393 3.05572 0.72694 0
M  V30 3070 H 285.586 4.99783 -0.65059 0
M  V30 3071 H 285.188 3.4528 -1.43727 0
M  V30 3072 H 287.48 6.62411 -1.4219 0
M  V30 3073 H 288.423 6.4439 -2.93542 0
M  V30 3074 H 288.831 5.4383 -1.51357 0
M  V30 3075 N 288.23 0.939286 1.26551 0
M  V30 3076 C 289.478 0.58469 1.93457 0
M  V30 3077 C 289.799 -0.878774 1.74076 0
M  V30 3078 O 289.069 -1.62421 1.09528 0
M  V30 3079 H 287.649 0.21325 0.715914 0
M  V30 3080 H 290.311 1.1942 1.54029 0
M  V30 3081 H 289.407 0.800849 3.0165 0
M  V30 3082 N 289.708 -1.40897 0.706093 0
M  V30 3083 C 290.638 -2.33418 0.0620085 0
M  V30 3084 C 291.619 -1.52385 -0.755827 0
M  V30 3085 O 292.804 -1.80886 -0.706674 0
M  V30 3086 C 289.934 -3.36293 -0.867445 0
M  V30 3087 C 288.888 -4.27716 -0.155932 0
M  V30 3088 C 288.214 -5.2105 -1.20046 0
M  V30 3089 C 289.514 -5.12944 0.984149 0
M  V30 3090 H 291.208 -2.87527 0.83477 0
M  V30 3091 H 288.754 -1.38249 0.402875 0
M  V30 3092 H 290.707 -3.99949 -1.32735 0
M  V30 3093 H 289.431 -2.80556 -1.67199 0
M  V30 3094 H 288.09 -3.65498 0.284047 0
M  V30 3095 H 287.738 -4.61624 -1.99781 0
M  V30 3096 H 287.438 -5.83056 -0.729328 0
M  V30 3097 H 288.962 -5.87584 -1.66066 0
M  V30 3098 H 290.376 -5.70109 0.604048 0
M  V30 3099 H 288.773 -5.83945 1.38304 0
M  V30 3100 H 289.843 -4.49485 1.81911 0
M  V30 3101 N 291.186 -0.45159 -1.50991 0
M  V30 3102 C 292.434 0.109857 -2.01801 0
M  V30 3103 C 292.755 1.41958 -1.3369 0
M  V30 3104 O 292.025 1.9003 -0.475951 0
M  V30 3105 H 290.605 0.0435884 -0.745727 0
M  V30 3106 H 293.267 -0.597557 -1.85514 0
M  V30 3107 H 292.363 0.275489 -3.10882 0
M  V30 3108 N 292.664 1.56529 -0.183458 0
M  V30 3109 C 294.075 1.83739 0.331177 0
M  V30 3110 C 294.426 1.10373 1.62211 0
M  V30 3111 O 293.551 0.36071 2.13373 0
M  V30 3112 C 294.146 3.33306 0.607646 0
M  V30 3113 C 292.705 3.60969 1.06668 0
M  V30 3114 C 291.852 2.77086 0.109029 0
M  V30 3115 H 294.803 1.53379 -0.407484 0
M  V30 3116 H 294.824 3.51444 1.45832 0
M  V30 3117 H 294.336 3.86677 -0.332086 0
M  V30 3118 H 292.437 3.13021 2.0211 0
M  V30 3119 H 292.55 4.69231 0.967447 0
M  V30 3120 H 290.914 2.47319 0.608714 0
M  V30 3121 H 291.697 3.33241 -0.82494 0
M  V30 3122 N 294.142 -0.090211 1.57342 0
M  V30 3123 C 295.391 -0.791531 1.8552 0
M  V30 3124 C 295.704 -1.79659 0.773441 0
M  V30 3125 O 296.91 -2.54616 0.942497 0
M  V30 3126 C 295.366 -1.45856 3.2902 0
M  V30 3127 C 294.974 -0.493017 4.45279 0
M  V30 3128 C 296.718 -2.14332 3.66418 0
M  V30 3129 C 294.625 -1.16491 5.79814 0
M  V30 3130 H 293.555 -0.299356 0.692027 0
M  V30 3131 H 296.206 -0.0445343 1.83446 0
M  V30 3132 H 294.588 -2.25318 3.2565 0
M  V30 3133 H 295.762 0.270464 4.60006 0
M  V30 3134 H 294.077 0.0863061 4.16311 0
M  V30 3135 H 296.674 -2.65344 4.64216 0
M  V30 3136 H 297.017 -2.93447 2.95287 0
M  V30 3137 H 297.55 -1.41724 3.71698 0
M  V30 3138 H 294.289 -0.41447 6.54188 0
M  V30 3139 H 293.809 -1.8997 5.68921 0
M  V30 3140 H 295.488 -1.69001 6.24538 0
M  V30 3141 N 295.62 -1.53406 -0.361157 0
M  V30 3142 C 296.868 -1.69467 -1.10115 0
M  V30 3143 C 297.189 -0.451352 -1.89705 0
M  V30 3144 O 296.459 0.534636 -1.88463 0
M  V30 3145 H 295.039 -0.624749 -0.409508 0
M  V30 3146 H 297.701 -1.90609 -0.406699 0
M  V30 3147 H 296.797 -2.55774 -1.78847 0
M  V30 3148 N 297.098 0.621204 -1.44841 0
M  V30 3149 C 298.061 1.71459 -1.521 0
M  V30 3150 C 299.061 1.55696 -0.401933 0
M  V30 3151 O 300.251 1.61011 -0.664925 0
M  V30 3152 C 297.383 3.10624 -1.40447 0
M  V30 3153 H 298.576 1.66394 -2.49506 0
M  V30 3154 H 296.129 0.835745 -1.3208 0
M  V30 3155 H 296.864 3.21277 -0.441737 0
M  V30 3156 H 296.649 3.23473 -2.21602 0
M  V30 3157 H 298.139 3.90293 -1.4853 0
M  V30 3158 N 298.576 1.31904 0.862503 0
M  V30 3159 C 299.825 1.21373 1.61094 0
M  V30 3160 C 300.138 -0.22504 1.94301 0
M  V30 3161 O 301.344 -0.452121 2.67709 0
M  V30 3162 C 299.8 2.12525 2.9045 0
M  V30 3163 C 299.408 3.61441 2.64697 0
M  V30 3164 C 301.152 2.10813 3.68454 0
M  V30 3165 C 299.059 4.44578 3.90006 0
M  V30 3166 H 297.989 0.450705 0.604468 0
M  V30 3167 H 300.64 1.56811 0.953027 0
M  V30 3168 H 299.022 1.69994 3.57656 0
M  V30 3169 H 300.196 4.12264 2.05851 0
M  V30 3170 H 298.511 3.65205 2.00036 0
M  V30 3171 H 301.108 2.70167 4.61426 0
M  V30 3172 H 301.451 1.09713 4.01583 0
M  V30 3173 H 301.984 2.51583 3.08141 0
M  V30 3174 H 298.723 5.46461 3.62023 0
M  V30 3175 H 298.243 3.98508 4.48276 0
M  V30 3176 H 299.922 4.57176 4.5782 0
M  V30 3177 N 300.054 -1.07777 1.14986 0
M  V30 3178 C 301.284 -1.83752 0.944402 0
M  V30 3179 C 301.692 -1.8218 -0.51058 0
M  V30 3180 O 301.035 -1.22852 -1.36576 0
M  V30 3181 C 301.097 -3.32128 1.37592 0
M  V30 3182 C 300.761 -3.57425 2.84775 0
M  V30 3183 C 301.758 -3.5173 3.8286 0
M  V30 3184 C 299.443 -3.8523 3.2234 0
M  V30 3185 C 301.437 -3.73482 5.16517 0
M  V30 3186 C 299.124 -4.06634 4.56171 0
M  V30 3187 C 300.122 -4.00754 5.53069 0
M  V30 3188 O 299.81 -4.2159 6.84483 0
M  V30 3189 H 299.542 -0.58673 0.335744 0
M  V30 3190 H 302.096 -1.36982 1.53052 0
M  V30 3191 H 300.326 -3.79686 0.733165 0
M  V30 3192 H 302.015 -3.89555 1.14024 0
M  V30 3193 H 302.781 -3.30256 3.55184 0
M  V30 3194 H 298.66 -3.88923 2.47508 0
M  V30 3195 H 302.204 -3.68808 5.92137 0
M  V30 3196 H 298.101 -4.27593 4.83564 0
M  V30 3197 H 298.869 -4.38961 6.90837 0
M  V30 3198 N 301.532 -0.945985 -1.26051 0
M  V30 3199 C 302.464 -0.416662 -2.25381 0
M  V30 3200 C 303.477 0.462712 -1.56086 0
M  V30 3201 O 304.666 0.272383 -1.7641 0
M  V30 3202 C 301.766 0.419812 -3.3629 0
M  V30 3203 C 300.939 -0.444531 -4.35135 0
M  V30 3204 C 299.998 0.332305 -5.2515 0
M  V30 3205 O 299.024 -0.266324 -5.68577 0
M  V30 3206 N 300.226 1.62763 -5.57215 0
M  V30 3207 H 302.991 -1.27059 -2.71433 0
M  V30 3208 H 300.552 -0.815392 -1.39868 0
M  V30 3209 H 302.544 0.947013 -3.93464 0
M  V30 3210 H 301.114 1.17456 -2.89694 0
M  V30 3211 H 300.334 -1.15291 -3.76964 0
M  V30 3212 H 301.622 -1.03478 -4.98166 0
M  V30 3213 H 301.02 2.13603 -5.23823 0
M  V30 3214 H 299.577 2.10097 -6.17011 0
M  V30 3215 N 303.011 1.40521 -0.713556 0
M  V30 3216 C 303.974 2.29098 -0.0684347 0
M  V30 3217 C 304.974 1.45268 0.689472 0
M  V30 3218 O 306.164 1.66205 0.521677 0
M  V30 3219 C 303.296 3.28446 0.913024 0
M  V30 3220 H 304.489 2.87645 -0.84855 0
M  V30 3221 H 302.042 1.48809 -0.47809 0
M  V30 3222 H 302.777 2.74913 1.72027 0
M  V30 3223 H 302.562 3.90327 0.372472 0
M  V30 3224 H 304.052 3.94777 1.36165 0
M  V30 3225 N 304.489 0.459591 1.5075 0
M  V30 3226 C 305.436 -0.340524 2.28274 0
M  V30 3227 C 306.406 -0.997371 1.32822 0
M  V30 3228 O 307.591 -1.01202 1.61749 0
M  V30 3229 C 304.731 -1.42317 3.14388 0
M  V30 3230 C 303.844 -0.782251 4.24859 0
M  V30 3231 C 302.979 -1.84182 4.98247 0
M  V30 3232 C 302.018 -1.18053 6.00608 0
M  V30 3233 N 301.155 -2.18244 6.67319 0
M  V30 3234 H 305.995 0.326899 2.96202 0
M  V30 3235 H 303.532 0.173057 1.46078 0
M  V30 3236 H 305.49 -2.06241 3.62658 0
M  V30 3237 H 304.12 -2.05992 2.4853 0
M  V30 3238 H 303.172 -0.0307404 3.80388 0
M  V30 3239 H 304.484 -0.259663 4.98124 0
M  V30 3240 H 303.638 -2.55714 5.50177 0
M  V30 3241 H 302.377 -2.39819 4.24662 0
M  V30 3242 H 301.382 -0.450776 5.47949 0
M  V30 3243 H 302.607 -0.631202 6.7616 0
M  V30 3244 H 300.553 -2.72919 5.96533 0
M  V30 3245 H 300.47 -1.70938 7.36421 0
M  V30 3246 H 301.738 -2.89191 7.23871 0
M  V30 3247 N 305.967 -1.56429 0.191757 0
M  V30 3248 C 307.214 -1.97485 -0.447891 0
M  V30 3249 C 307.542 -1.07852 -1.61859 0
M  V30 3250 O 306.797 -0.116903 -1.95351 0
M  V30 3251 C 307.096 -3.44449 -0.953384 0
M  V30 3252 C 306.762 -4.50781 0.103586 0
M  V30 3253 C 305.424 -4.79584 0.394023 0
M  V30 3254 C 307.776 -5.1471 0.819946 0
M  V30 3255 C 305.104 -5.69607 1.40585 0
M  V30 3256 C 307.456 -6.05827 1.8209 0
M  V30 3257 C 306.12 -6.32987 2.11857 0
M  V30 3258 H 305.39 -0.722648 -0.163895 0
M  V30 3259 H 308.037 -1.89322 0.28802 0
M  V30 3260 H 306.342 -3.49666 -1.76751 0
M  V30 3261 H 308.039 -3.73569 -1.45765 0
M  V30 3262 H 304.629 -4.28394 -0.132951 0
M  V30 3263 H 308.813 -4.92552 0.608789 0
M  V30 3264 H 304.069 -5.88926 1.64243 0
M  V30 3265 H 308.243 -6.54424 2.38123 0
M  V30 3266 H 305.87 -7.02544 2.90407 0
M  V30 3267 N 307.445 0.0818655 -1.57387 0
M  V30 3268 C 308.375 1.09885 -2.06028 0
M  V30 3269 C 309.356 1.4098 -0.951774 0
M  V30 3270 O 310.541 1.50781 -1.22387 0
M  V30 3271 C 307.671 2.4151 -2.4958 0
M  V30 3272 C 306.625 2.24792 -3.64215 0
M  V30 3273 C 305.951 3.61712 -3.93787 0
M  V30 3274 C 307.251 1.67749 -4.94629 0
M  V30 3275 H 308.945 0.694128 -2.91243 0
M  V30 3276 H 306.491 0.332448 -1.4011 0
M  V30 3277 H 308.444 3.12939 -2.82219 0
M  V30 3278 H 307.168 2.83943 -1.61381 0
M  V30 3279 H 305.827 1.55807 -3.31843 0
M  V30 3280 H 305.475 4.01697 -3.02735 0
M  V30 3281 H 305.175 3.51368 -4.70971 0
M  V30 3282 H 306.699 4.34587 -4.28913 0
M  V30 3283 H 308.113 2.29032 -5.25564 0
M  V30 3284 H 306.51 1.68128 -5.76067 0
M  V30 3285 H 307.58 0.638059 -4.80684 0
M  V30 3286 N 308.923 1.53595 0.353017 0
M  V30 3287 C 309.87 1.80919 1.43308 0
M  V30 3288 C 310.84 0.654288 1.5267 0
M  V30 3289 O 312.025 0.897759 1.6836 0
M  V30 3290 C 309.165 2.01605 2.80089 0
M  V30 3291 C 308.278 3.29321 2.79593 0
M  V30 3292 C 307.413 3.40125 4.0803 0
M  V30 3293 C 306.452 4.61826 4.01725 0
M  V30 3294 N 305.589 4.69716 5.21834 0
M  V30 3295 H 310.429 2.73074 1.19308 0
M  V30 3296 H 307.966 1.35263 0.578131 0
M  V30 3297 H 309.924 2.11586 3.59565 0
M  V30 3298 H 308.554 1.12772 3.0246 0
M  V30 3299 H 307.606 3.28229 1.92276 0
M  V30 3300 H 308.918 4.18884 2.70809 0
M  V30 3301 H 308.072 3.49488 4.95927 0
M  V30 3302 H 306.811 2.48601 4.19582 0
M  V30 3303 H 305.816 4.52552 3.12213 0
M  V30 3304 H 307.041 5.54705 3.91764 0
M  V30 3305 H 304.987 3.81097 5.33948 0
M  V30 3306 H 304.904 5.53202 5.1527 0
M  V30 3307 H 306.172 4.83376 6.11529 0
M  V30 3308 N 310.401 -0.613514 1.45168 0
M  V30 3309 C 311.631 -1.39743 1.52169 0
M  V30 3310 C 312.039 -1.88596 0.151086 0
M  V30 3311 O 311.382 -1.6251 -0.856521 0
M  V30 3312 C 311.444 -2.64035 2.43979 0
M  V30 3313 C 311.108 -2.36861 3.90827 0
M  V30 3314 C 312.105 -1.97591 4.80889 0
M  V30 3315 C 309.79 -2.49956 4.35692 0
M  V30 3316 C 311.784 -1.71768 6.1382 0
M  V30 3317 C 309.471 -2.23747 5.68665 0
M  V30 3318 C 310.469 -1.84714 6.57548 0
M  V30 3319 O 310.157 -1.58809 7.88058 0
M  V30 3320 H 309.889 -0.434382 0.517966 0
M  V30 3321 H 312.443 -0.75587 1.90986 0
M  V30 3322 H 310.673 -3.3089 2.00122 0
M  V30 3323 H 312.362 -3.26069 2.41731 0
M  V30 3324 H 313.128 -1.87015 4.47493 0
M  V30 3325 H 309.007 -2.79305 3.66756 0
M  V30 3326 H 312.551 -1.41227 6.83155 0
M  V30 3327 H 308.448 -2.33938 6.01617 0
M  V30 3328 H 309.216 -1.7291 8.00028 0
M  V30 3329 N 311.879 -1.3236 -0.855495 0
M  V30 3330 C 312.809 -1.23833 -1.97958 0
M  V30 3331 C 313.79 -0.122361 -1.69659 0
M  V30 3332 O 314.975 -0.30939 -1.9172 0
M  V30 3333 C 312.105 -0.959772 -3.33775 0
M  V30 3334 C 311.059 -2.03689 -3.76424 0
M  V30 3335 C 310.385 -1.61075 -5.09862 0
M  V30 3336 C 311.685 -3.4518 -3.9198 0
M  V30 3337 H 313.379 -2.1788 -2.0535 0
M  V30 3338 H 310.925 -1.04891 -0.986605 0
M  V30 3339 H 312.878 -0.886678 -4.11966 0
M  V30 3340 H 311.602 0.0163404 -3.26596 0
M  V30 3341 H 310.261 -2.10012 -3.00484 0
M  V30 3342 H 309.909 -0.622107 -4.99138 0
M  V30 3343 H 309.609 -2.33143 -5.39368 0
M  V30 3344 H 311.133 -1.55201 -5.90546 0
M  V30 3345 H 312.547 -3.4145 -4.60526 0
M  V30 3346 H 310.944 -4.1559 -4.32903 0
M  V30 3347 H 312.014 -3.84903 -2.94919 0
M  V30 3348 N 313.357 1.07166 -1.15556 0
M  V30 3349 C 314.267 2.17947 -0.868116 0
M  V30 3350 C 315.283 1.73297 0.156297 0
M  V30 3351 O 316.459 2.01392 -0.0182327 0
M  V30 3352 C 313.524 3.44789 -0.36355 0
M  V30 3353 C 312.585 4.03996 -1.45209 0
M  V30 3354 C 311.818 5.24783 -0.971508 0
M  V30 3355 O 312.041 5.70109 0.182194 0
M  V30 3356 O 310.975 5.75715 -1.75603 0
M  V30 3357 H 314.801 2.4503 -1.79427 0
M  V30 3358 H 312.386 1.16539 -0.934824 0
M  V30 3359 H 314.268 4.21307 -0.0887113 0
M  V30 3360 H 312.943 3.19253 0.534708 0
M  V30 3361 H 311.85 3.29009 -1.78056 0
M  V30 3362 H 313.183 4.33808 -2.32533 0
M  V30 3363 N 314.835 0.952656 1.25548 0
M  V30 3364 C 315.785 0.442033 2.23674 0
M  V30 3365 C 316.769 -0.467632 1.53955 0
M  V30 3366 O 317.961 -0.301006 1.74422 0
M  V30 3367 C 315.09 -0.280816 3.4215 0
M  V30 3368 C 314.176 0.646803 4.19139 0
M  V30 3369 N 314.567 1.77759 4.73535 0
M  V30 3370 C 312.865 0.454617 4.43677 0
M  V30 3371 C 313.566 2.35658 5.31827 0
M  V30 3372 N 312.542 1.64333 5.18166 0
M  V30 3373 H 316.344 1.30505 2.63336 0
M  V30 3374 H 313.858 0.809904 1.40763 0
M  V30 3375 H 315.855 -0.663747 4.11582 0
M  V30 3376 H 314.515 -1.14046 3.04012 0
M  V30 3377 H 315.526 2.15949 4.7073 0
M  V30 3378 H 312.203 -0.362312 4.15925 0
M  V30 3379 H 313.593 3.30998 5.84713 0
M  V30 3380 N 316.313 -1.40141 0.720998 0
M  V30 3381 C 317.729 -1.54632 0.395113 0
M  V30 3382 C 317.929 -1.69115 -1.09555 0
M  V30 3383 O 316.985 -1.68377 -1.88163 0
M  V30 3384 C 318.298 -2.77177 1.1659 0
M  V30 3385 C 319.846 -2.91 1.15274 0
M  V30 3386 C 320.321 -4.16465 1.90579 0
M  V30 3387 N 321.812 -4.23476 1.87675 0
M  V30 3388 C 322.547 -5.19475 2.42762 0
M  V30 3389 N 322.043 -6.21348 3.06428 0
M  V30 3390 N 323.836 -5.11592 2.32874 0
M  V30 3391 H 315.987 -1.28986 1.68749 0
M  V30 3392 H 318.25 -0.62412 0.713567 0
M  V30 3393 H 317.956 -2.72771 2.22011 0
M  V30 3394 H 317.83 -3.69442 0.76108 0
M  V30 3395 H 320.217 -2.94907 0.106702 0
M  V30 3396 H 320.298 -1.99838 1.59682 0
M  V30 3397 H 319.942 -4.1332 2.95176 0
M  V30 3398 H 319.872 -5.06646 1.43587 0
M  V30 3399 H 322.363 -3.50497 1.41281 0
M  V30 3400 H 322.676 -6.91034 3.45965 0
M  V30 3401 H 321.021 -6.21777 3.10514 0
M  V30 3402 H 324.212 -4.30936 1.82789 0
M  V30 3403 H 324.385 -5.86233 2.76106 0
M  V30 3404 N 317.792 -0.46758 -1.50504 0
M  V30 3405 C 319.04 0.0884469 -2.01906 0
M  V30 3406 C 319.361 1.40532 -1.35188 0
M  V30 3407 O 318.631 1.89515 -0.496079 0
M  V30 3408 H 317.211 0.0356765 -0.746148 0
M  V30 3409 H 319.873 -0.6172 -1.84869 0
M  V30 3410 H 318.969 0.2425 -3.11156 0
M  V30 3411 N 319.27 1.56325 -0.20005 0
M  V30 3412 C 320.2 2.22318 0.713916 0
M  V30 3413 C 321.181 1.18788 1.21752 0
M  V30 3414 O 322.366 1.47309 1.26545 0
M  V30 3415 C 319.496 2.88639 1.93144 0
M  V30 3416 C 318.45 3.98457 1.56255 0
M  V30 3417 C 317.776 4.51967 2.85709 0
M  V30 3418 C 319.076 5.16612 0.768747 0
M  V30 3419 H 320.77 2.98952 0.163755 0
M  V30 3420 H 318.316 1.43792 0.0773219 0
M  V30 3421 H 320.269 3.33491 2.57608 0
M  V30 3422 H 318.993 2.09419 2.50621 0
M  V30 3423 H 317.652 3.54305 0.941471 0
M  V30 3424 H 317.3 3.69503 3.41287 0
M  V30 3425 H 317 5.26071 2.6177 0
M  V30 3426 H 318.524 4.99523 3.51154 0
M  V30 3427 H 319.938 5.57977 1.3166 0
M  V30 3428 H 318.335 5.96812 0.627286 0
M  V30 3429 H 319.405 4.84358 -0.229168 0
M  V30 3430 N 320.748 -0.0735177 1.57428 0
M  V30 3431 C 321.695 -1.08756 2.0357 0
M  V30 3432 C 322.665 -1.38559 0.916 0
M  V30 3433 O 323.85 -1.49656 1.18354 0
M  V30 3434 C 320.99 -2.39657 2.48311 0
M  V30 3435 C 320.103 -2.16399 3.73892 0
M  V30 3436 C 319.238 -3.40852 4.07423 0
M  V30 3437 C 318.277 -3.1295 5.2605 0
M  V30 3438 N 317.414 -4.29729 5.55228 0
M  V30 3439 H 322.254 -0.687104 2.8997 0
M  V30 3440 H 319.791 -0.327709 1.43403 0
M  V30 3441 H 321.749 -3.16081 2.72303 0
M  V30 3442 H 320.379 -2.77508 1.64891 0
M  V30 3443 H 319.431 -1.30676 3.57251 0
M  V30 3444 H 320.743 -1.91788 4.60455 0
M  V30 3445 H 319.897 -4.25671 4.32306 0
M  V30 3446 H 318.636 -3.68537 3.19425 0
M  V30 3447 H 317.641 -2.26526 5.00965 0
M  V30 3448 H 318.866 -2.86589 6.15665 0
M  V30 3449 H 316.812 -4.57448 4.70188 0
M  V30 3450 H 316.729 -4.08385 6.36206 0
M  V30 3451 H 317.997 -5.1555 5.84661 0
M  V30 3452 N 322.226 -1.5378 -0.344866 0
M  V30 3453 C 323.503 -1.61589 -1.10219 0
M  V30 3454 C 323.883 -0.436316 -2.06542 0
M  V30 3455 O 323.231 0.571543 -2.21237 0
M  V30 3456 C 323.441 -2.97602 -1.82301 0
M  V30 3457 C 324.789 -3.5291 -2.36093 0
M  V30 3458 O 325.813 -2.99768 -1.924 0
M  V30 3459 O 324.672 -4.45859 -3.16026 0
M  V30 3460 H 321.766 -0.653522 -0.506792 0
M  V30 3461 H 324.312 -1.66126 -0.346465 0
M  V30 3462 H 323.084 -3.74893 -1.12121 0
M  V30 3463 H 322.707 -2.9665 -2.64735 0
M  V30 3464 N 323.704 0.605807 -1.45491 0
M  V30 3465 C 324.932 1.39136 -1.5313 0
M  V30 3466 C 325.347 1.88082 -0.164507 0
M  V30 3467 O 324.704 1.62316 0.834247 0
M  V30 3468 C 324.755 2.59463 -2.51716 0
M  V30 3469 O 324.476 2.12551 -3.83084 0
M  V30 3470 C 325.977 3.52301 -2.6907 0
M  V30 3471 H 323.197 0.425849 -0.51855 0
M  V30 3472 H 325.741 0.73865 -1.90694 0
M  V30 3473 H 323.896 3.20772 -2.17219 0
M  V30 3474 H 324.31 2.90744 -4.36541 0
M  V30 3475 H 325.784 4.33271 -3.42024 0
M  V30 3476 H 326.261 4.02757 -1.75167 0
M  V30 3477 H 326.867 2.96845 -3.04571 0
M  V30 3478 N 325.182 1.32811 0.848464 0
M  V30 3479 C 326.407 1.26882 1.6406 0
M  V30 3480 C 326.832 -0.15913 1.87426 0
M  V30 3481 O 326.19 -1.11258 1.43148 0
M  V30 3482 C 326.238 2.03997 2.97351 0
M  V30 3483 O 325.342 1.39201 3.88197 0
M  V30 3484 H 324.683 0.436982 0.499943 0
M  V30 3485 H 327.213 1.75224 1.0563 0
M  V30 3486 H 327.223 2.14403 3.47124 0
M  V30 3487 H 325.898 3.0783 2.79666 0
M  V30 3488 H 324.475 1.37381 3.46671 0
M  V30 3489 N 326.66 -1.06551 1.16123 0
M  V30 3490 C 327.607 -2.13961 0.865414 0
M  V30 3491 C 328.577 -1.65066 -0.185055 0
M  V30 3492 O 329.762 -1.90732 -0.05083 0
M  V30 3493 C 326.902 -3.43113 0.369776 0
M  V30 3494 C 326.015 -4.05756 1.48276 0
M  V30 3495 C 325.15 -5.22773 0.942414 0
M  V30 3496 C 324.189 -5.77395 2.03179 0
M  V30 3497 N 323.326 -6.85731 1.50721 0
M  V30 3498 H 328.166 -2.38605 1.78527 0
M  V30 3499 H 325.703 -1.17072 0.890646 0
M  V30 3500 H 327.661 -4.17151 0.0640643 0
M  V30 3501 H 326.291 -3.18695 -0.513143 0
M  V30 3502 H 325.343 -3.29292 1.9045 0
M  V30 3503 H 326.655 -4.42351 2.30493 0
M  V30 3504 H 325.809 -6.03827 0.589729 0
M  V30 3505 H 324.548 -4.87618 0.0895191 0
M  V30 3506 H 323.553 -4.94981 2.3932 0
M  V30 3507 H 324.778 -6.14603 2.8886 0
M  V30 3508 H 322.724 -6.52499 0.676811 0
M  V30 3509 H 322.641 -7.21254 2.26557 0
M  V30 3510 H 323.909 -7.7047 1.18303 0
M  V30 3511 N 328.138 -0.959301 -1.25041 0
M  V30 3512 C 329.07 -0.440543 -2.24926 0
M  V30 3513 C 330.083 0.446131 -1.56568 0
M  V30 3514 O 331.272 0.253657 -1.76689 0
M  V30 3515 C 328.372 0.38412 -3.36716 0
M  V30 3516 C 327.545 -0.490658 -4.34639 0
M  V30 3517 C 326.604 0.276587 -5.25473 0
M  V30 3518 O 325.63 -0.326614 -5.68262 0
M  V30 3519 N 326.832 1.56844 -5.5891 0
M  V30 3520 H 329.597 -1.29931 -2.70071 0
M  V30 3521 H 327.158 -0.830181 -1.38995 0
M  V30 3522 H 329.15 0.905228 -3.94446 0
M  V30 3523 H 327.72 1.14377 -2.90924 0
M  V30 3524 H 326.94 -1.19282 -3.7572 0
M  V30 3525 H 328.228 -1.08756 -4.97041 0
M  V30 3526 H 327.626 2.08036 -5.26059 0
M  V30 3527 H 326.183 2.03541 -6.19205 0
M  V30 3528 N 329.616 1.39756 -0.72842 0
M  V30 3529 C 330.844 2.04948 -0.283528 0
M  V30 3530 C 331.259 1.54908 1.0793 0
M  V30 3531 O 330.616 0.711135 1.68075 0
M  V30 3532 C 330.667 3.60498 -0.268957 0
M  V30 3533 O 330.388 4.08695 -1.57798 0
M  V30 3534 C 331.889 4.4288 0.192912 0
M  V30 3535 H 329.109 0.659243 -0.125056 0
M  V30 3536 H 331.653 1.78927 -0.990226 0
M  V30 3537 H 329.808 3.85444 0.388801 0
M  V30 3538 H 330.222 5.02977 -1.48709 0
M  V30 3539 H 331.696 5.51791 0.151952 0
M  V30 3540 H 332.173 4.21418 1.23708 0
M  V30 3541 H 332.779 4.23069 -0.435039 0
M  V30 3542 N 331.094 0.475555 1.50254 0
M  V30 3543 C 332.34 -0.0780073 2.0265 0
M  V30 3544 C 332.673 -1.38968 1.35652 0
M  V30 3545 O 331.948 -1.8839 0.483691 0
M  V30 3546 C 332.231 -0.257161 3.59181 0
M  V30 3547 C 332.084 1.07585 4.36744 0
M  V30 3548 C 333.403 -1.00965 4.28362 0
M  V30 3549 H 330.522 -0.0268758 0.73651 0
M  V30 3550 H 333.164 0.622015 1.7953 0
M  V30 3551 H 331.314 -0.853412 3.79011 0
M  V30 3552 H 332.986 1.70902 4.28474 0
M  V30 3553 H 331.229 1.6714 4.00308 0
M  V30 3554 H 331.9 0.904088 5.44546 0
M  V30 3555 H 334.376 -0.504214 4.13034 0
M  V30 3556 H 333.252 -1.10381 5.37687 0
M  V30 3557 H 333.513 -2.04731 3.91839 0
M  V30 3558 N 332.573 -1.56217 0.208337 0
M  V30 3559 C 333.803 -2.02043 -0.431523 0
M  V30 3560 C 334.211 -1.08755 -1.54819 0
M  V30 3561 O 333.554 -0.0870009 -1.83494 0
M  V30 3562 C 333.616 -3.44239 -1.03633 0
M  V30 3563 C 333.28 -4.56965 -0.0567502 0
M  V30 3564 C 334.277 -5.14624 0.738773 0
M  V30 3565 C 331.962 -5.02266 0.0581736 0
M  V30 3566 C 333.956 -6.16045 1.63605 0
M  V30 3567 C 331.643 -6.03528 0.959001 0
M  V30 3568 C 332.641 -6.60293 1.7465 0
M  V30 3569 O 332.329 -7.59586 2.6322 0
M  V30 3570 H 332.061 -0.666772 -0.111313 0
M  V30 3571 H 334.615 -2.02919 0.318277 0
M  V30 3572 H 332.845 -3.40391 -1.83497 0
M  V30 3573 H 334.534 -3.73793 -1.58221 0
M  V30 3574 H 335.3 -4.80483 0.660364 0
M  V30 3575 H 331.179 -4.57771 -0.544633 0
M  V30 3576 H 334.723 -6.60279 2.25116 0
M  V30 3577 H 330.62 -6.37092 1.03848 0
M  V30 3578 H 331.388 -7.77057 2.57148 0
M  V30 3579 N 334.051 0.0651679 -1.57465 0
M  V30 3580 C 335.014 1.06117 -2.03155 0
M  V30 3581 C 336.014 1.31204 -0.929632 0
M  V30 3582 O 337.204 1.26813 -1.19432 0
M  V30 3583 C 334.336 2.4032 -2.41783 0
M  V30 3584 H 335.529 0.667231 -2.92383 0
M  V30 3585 H 333.082 0.311075 -1.53173 0
M  V30 3586 H 333.817 2.84532 -1.55601 0
M  V30 3587 H 333.602 2.23451 -3.22199 0
M  V30 3588 H 335.092 3.11898 -2.77685 0
M  V30 3589 N 335.529 1.53961 0.336706 0
M  V30 3590 C 336.776 1.71536 1.07618 0
M  V30 3591 C 337.104 0.482125 1.8843 0
M  V30 3592 O 336.359 -0.536142 1.88213 0
M  V30 3593 C 336.658 2.93493 2.03953 0
M  V30 3594 C 336.324 4.28811 1.39399 0
M  V30 3595 C 334.986 4.65602 1.21523 0
M  V30 3596 C 337.338 5.12844 0.929541 0
M  V30 3597 C 334.666 5.84037 0.558312 0
M  V30 3598 C 337.018 6.31951 0.286505 0
M  V30 3599 C 335.682 6.67432 0.0954869 0
M  V30 3600 H 334.952 0.627696 0.393801 0
M  V30 3601 H 337.599 1.88186 0.354715 0
M  V30 3602 H 335.904 2.71475 2.82504 0
M  V30 3603 H 337.601 3.04285 2.61174 0
M  V30 3604 H 334.191 3.99858 1.54311 0
M  V30 3605 H 338.375 4.84947 1.05548 0
M  V30 3606 H 333.631 6.10097 0.398995 0
M  V30 3607 H 337.805 6.96352 -0.0814376 0
M  V30 3608 H 335.432 7.59063 -0.415579 0
M  V30 3609 N 337.007 -0.598083 1.45811 0
M  V30 3610 C 337.937 -1.71873 1.58057 0
M  V30 3611 C 338.918 -1.64533 0.431615 0
M  V30 3612 O 340.103 -1.82787 0.65595 0
M  V30 3613 C 337.233 -3.10495 1.55597 0
M  V30 3614 C 336.187 -3.32654 2.69305 0
M  V30 3615 C 335.513 -4.71646 2.51902 0
M  V30 3616 C 336.813 -3.21981 4.11248 0
M  V30 3617 H 338.507 -1.61881 2.51863 0
M  V30 3618 H 336.053 -0.777372 1.21214 0
M  V30 3619 H 338.006 -3.88699 1.6276 0
M  V30 3620 H 336.73 -3.2135 0.583255 0
M  V30 3621 H 335.389 -2.56843 2.61586 0
M  V30 3622 H 335.037 -4.79246 1.52748 0
M  V30 3623 H 334.737 -4.87426 3.2816 0
M  V30 3624 H 336.261 -5.52038 2.60933 0
M  V30 3625 H 337.675 -3.90049 4.20161 0
M  V30 3626 H 336.072 -3.49289 4.87972 0
M  V30 3627 H 337.142 -2.1928 4.32486 0
M  V30 3628 N 338.485 -1.33259 -0.841409 0
M  V30 3629 C 339.733 -1.24326 -1.59334 0
M  V30 3630 C 340.054 0.191564 -1.94057 0
M  V30 3631 O 339.324 1.11967 -1.60749 0
M  V30 3632 H 337.904 -0.457174 -0.590763 0
M  V30 3633 H 340.566 -1.66947 -1.00571 0
M  V30 3634 H 339.662 -1.8352 -2.52442 0
M  V30 3635 N 339.963 1.05934 -1.16686 0
M  V30 3636 C 341.24 1.75643 -0.860747 0
M  V30 3637 C 341.62 2.01144 0.640641 0
M  V30 3638 O 340.968 1.64147 1.58959 0
M  V30 3639 C 341.178 3.05493 -1.68745 0
M  V30 3640 C 342.526 3.79581 -1.90271 0
M  V30 3641 O 343.55 3.15344 -1.65641 0
M  V30 3642 O 342.409 4.9499 -2.31618 0
M  V30 3643 H 339.503 0.763426 -0.317977 0
M  V30 3644 H 342.049 1.1217 -1.27342 0
M  V30 3645 H 340.821 2.8264 -2.70611 0
M  V30 3646 H 340.444 3.76702 -1.27206 0
M  V30 3647 N 341.441 0.965919 1.2453 0
M  V30 3648 C 342.689 0.625593 1.92174 0
M  V30 3649 C 343.01 -0.841652 1.75901 0
M  V30 3650 O 342.28 -1.60061 1.12948 0
M  V30 3651 H 340.86 0.228388 0.71123 0
M  V30 3652 H 343.522 1.2266 1.51461 0
M  V30 3653 H 342.618 0.864653 2.99884 0
M  V30 3654 N 342.919 -1.39368 0.735821 0
M  V30 3655 C 343.829 -2.34395 0.0979693 0
M  V30 3656 C 344.845 -1.58361 -0.720968 0
M  V30 3657 O 346.021 -1.90648 -0.649245 0
M  V30 3658 C 343.086 -3.37393 -0.797916 0
M  V30 3659 C 342.147 -4.29287 0.0333662 0
M  V30 3660 C 341.38 -5.27365 -0.819854 0
M  V30 3661 O 341.603 -5.31959 -2.05855 0
M  V30 3662 O 340.537 -6.01389 -0.248079 0
M  V30 3663 H 344.363 -2.90601 0.882315 0
M  V30 3664 H 341.948 -1.40909 0.4965 0
M  V30 3665 H 343.83 -4.00505 -1.31048 0
M  V30 3666 H 342.505 -2.83571 -1.56106 0
M  V30 3667 H 341.412 -3.69395 0.591475 0
M  V30 3668 H 342.745 -4.86317 0.758752 0
M  V30 3669 N 344.397 -0.483516 -1.5 0
M  V30 3670 C 345.33 0.350427 -2.25493 0
M  V30 3671 C 346.308 0.985549 -1.29328 0
M  V30 3672 O 347.492 1.01906 -1.58579 0
M  V30 3673 C 344.619 1.49202 -3.04066 0
M  V30 3674 C 343.665 0.973036 -4.15252 0
M  V30 3675 S 344.498 -0.122237 -5.3536 0
M  V30 3676 C 345.654 1.02294 -6.17484 0
M  V30 3677 H 345.887 -0.290381 -2.95878 0
M  V30 3678 H 343.42 -0.268562 -1.52046 0
M  V30 3679 H 345.378 2.14623 -3.49925 0
M  V30 3680 H 344.039 2.10438 -2.33183 0
M  V30 3681 H 343.232 1.82804 -4.69679 0
M  V30 3682 H 342.834 0.396335 -3.71894 0
M  V30 3683 H 345.126 1.93195 -6.49371 0
M  V30 3684 H 346.069 0.517664 -7.06205 0
M  V30 3685 H 346.477 1.28238 -5.49741 0
M  V30 3686 N 345.875 1.56104 -0.216619 0
M  V30 3687 C 347.152 1.89988 0.465165 0
M  V30 3688 C 347.532 1.13326 1.78102 0
M  V30 3689 O 346.88 0.241033 2.27225 0
M  V30 3690 C 347.09 3.42646 0.662939 0
M  V30 3691 C 348.438 4.13311 0.972602 0
M  V30 3692 O 349.462 3.48217 0.749901 0
M  V30 3693 O 348.321 5.28396 1.39499 0
M  V30 3694 H 345.415 0.78979 0.245276 0
M  V30 3695 H 347.961 1.67721 -0.258436 0
M  V30 3696 H 346.733 3.90399 -0.26543 0
M  V30 3697 H 346.356 3.70677 1.43821 0
M  V30 3698 N 347.353 -0.0568162 1.57498 0
M  V30 3699 C 348.263 -1.08346 2.08083 0
M  V30 3700 C 349.279 -1.41439 1.01346 0
M  V30 3701 O 350.455 -1.51316 1.32912 0
M  V30 3702 C 347.52 -2.37352 2.52715 0
M  V30 3703 C 346.581 -2.11093 3.73816 0
M  V30 3704 C 345.814 -3.33949 4.1631 0
M  V30 3705 O 346.037 -4.43622 3.58547 0
M  V30 3706 O 344.971 -3.21279 5.08983 0
M  V30 3707 H 348.797 -0.683667 2.95905 0
M  V30 3708 H 346.382 -0.271965 1.46904 0
M  V30 3709 H 348.264 -3.13246 2.81877 0
M  V30 3710 H 346.939 -2.76681 1.68016 0
M  V30 3711 H 345.846 -1.32856 3.49714 0
M  V30 3712 H 347.179 -1.76637 4.59413 0
M  V30 3713 N 348.832 -1.54138 -0.328536 0
M  V30 3714 C 350.243 -1.63395 -0.903272 0
M  V30 3715 C 350.594 -0.524828 -1.8905 0
M  V30 3716 O 349.719 0.343068 -2.13663 0
M  V30 3717 C 350.314 -2.9618 -1.64507 0
M  V30 3718 C 348.873 -3.0765 -2.1686 0
M  V30 3719 C 348.02 -2.58933 -0.992416 0
M  V30 3720 H 350.971 -1.58344 -0.106253 0
M  V30 3721 H 350.992 -2.86061 -2.50897 0
M  V30 3722 H 350.504 -3.76884 -0.926302 0
M  V30 3723 H 348.605 -2.31611 -2.91868 0
M  V30 3724 H 348.718 -4.1337 -2.42202 0
M  V30 3725 H 347.082 -2.14706 -1.37016 0
M  V30 3726 H 347.865 -3.42089 -0.288041 0
M  V30 3727 N 350.31 0.590341 -1.46126 0
M  V30 3728 C 351.22 1.72793 -1.58681 0
M  V30 3729 C 352.236 1.67516 -0.470566 0
M  V30 3730 O 353.412 1.87562 -0.733642 0
M  V30 3731 C 350.477 3.09287 -1.5666 0
M  V30 3732 C 349.538 3.25886 -2.79458 0
M  V30 3733 C 348.771 4.55869 -2.77524 0
M  V30 3734 O 348.994 5.3928 -1.85832 0
M  V30 3735 O 347.928 4.75552 -3.68964 0
M  V30 3736 H 351.754 1.65149 -2.54872 0
M  V30 3737 H 349.339 0.756486 -1.28832 0
M  V30 3738 H 351.221 3.90577 -1.58202 0
M  V30 3739 H 349.896 3.17385 -0.636271 0
M  V30 3740 H 348.803 2.44119 -2.83472 0
M  V30 3741 H 350.136 3.22675 -3.71674 0
M  V30 3742 N 351.788 1.33704 0.83433 0
M  V30 3743 C 353.013 1.28615 1.62705 0
M  V30 3744 C 353.438 -0.139242 1.87584 0
M  V30 3745 O 352.796 -1.09734 1.4432 0
M  V30 3746 C 352.844 2.07139 2.95171 0
M  V30 3747 O 351.948 1.4331 3.86699 0
M  V30 3748 H 351.289 0.44226 0.49528 0
M  V30 3749 H 353.819 1.76335 1.03766 0
M  V30 3750 H 353.829 2.18073 3.44831 0
M  V30 3751 H 352.504 3.10779 2.76386 0
M  V30 3752 H 351.081 1.4105 3.45195 0
M  V30 3753 N 353.266 -1.05314 1.17247 0
M  V30 3754 C 354.213 -2.13031 0.888058 0
M  V30 3755 C 355.183 -1.65253 -0.167537 0
M  V30 3756 O 356.368 -1.90775 -0.0305974 0
M  V30 3757 C 353.508 -3.42702 0.406147 0
M  V30 3758 C 352.621 -4.04161 1.52572 0
M  V30 3759 C 351.756 -5.21744 0.997808 0
M  V30 3760 C 350.795 -5.75207 2.09291 0
M  V30 3761 N 349.932 -6.84094 1.57986 0
M  V30 3762 H 354.772 -2.36698 1.81048 0
M  V30 3763 H 352.309 -1.16121 0.903013 0
M  V30 3764 H 354.267 -4.17059 0.108305 0
M  V30 3765 H 352.897 -3.19222 -0.479313 0
M  V30 3766 H 351.949 -3.27253 1.93931 0
M  V30 3767 H 353.261 -4.39881 2.35172 0
M  V30 3768 H 352.415 -6.03168 0.653739 0
M  V30 3769 H 351.154 -4.87495 0.141232 0
M  V30 3770 H 350.159 -4.92414 2.44557 0
M  V30 3771 H 351.384 -6.11505 2.95362 0
M  V30 3772 H 349.33 -6.51745 0.74598 0
M  V30 3773 H 349.247 -7.18811 2.34195 0
M  V30 3774 H 350.515 -7.69172 1.26468 0
M  V30 3775 N 354.744 -0.972509 -1.24016 0
M  V30 3776 C 355.992 -0.635776 -1.91839 0
M  V30 3777 C 356.313 0.832312 -1.76345 0
M  V30 3778 O 355.583 1.5946 -1.13795 0
M  V30 3779 H 354.163 -0.232157 -0.710009 0
M  V30 3780 H 356.825 -1.23462 -1.50809 0
M  V30 3781 H 355.921 -0.880545 -2.99421 0
M  V30 3782 N 356.222 1.38976 -0.743202 0
M  V30 3783 C 357.185 2.28901 -0.117014 0
M  V30 3784 C 358.185 1.46698 0.658503 0
M  V30 3785 O 359.375 1.67274 0.486305 0
M  V30 3786 C 356.507 3.30309 0.84315 0
M  V30 3787 H 357.7 2.8578 -0.909373 0
M  V30 3788 H 355.253 1.47761 -0.509547 0
M  V30 3789 H 355.988 2.785 1.66157 0
M  V30 3790 H 355.773 3.91029 0.289594 0
M  V30 3791 H 357.263 3.97577 1.2776 0
M  V30 3792 N 357.7 0.491464 1.49741 0
M  V30 3793 C 358.949 -0.0582189 2.01616 0
M  V30 3794 C 359.262 -1.38927 1.3769 0
M  V30 3795 O 360.468 -2.02509 1.80838 0
M  V30 3796 C 358.924 -0.154235 3.59569 0
M  V30 3797 C 358.532 1.1696 4.32463 0
M  V30 3798 C 360.276 -0.65479 4.1942 0
M  V30 3799 C 358.183 1.03627 5.8225 0
M  V30 3800 H 357.113 -0.0255317 0.753568 0
M  V30 3801 H 359.764 0.629445 1.72367 0
M  V30 3802 H 358.146 -0.906138 3.85493 0
M  V30 3803 H 359.32 1.93405 4.18248 0
M  V30 3804 H 357.635 1.60285 3.84315 0
M  V30 3805 H 360.232 -0.771903 5.29099 0
M  V30 3806 H 360.575 -1.65127 3.8215 0
M  V30 3807 H 361.108 0.040304 3.9778 0
M  V30 3808 H 357.847 2.00672 6.24028 0
M  V30 3809 H 357.367 0.312546 5.98985 0
M  V30 3810 H 359.046 0.711114 6.4308 0
M  V30 3811 N 359.178 -1.55987 0.224894 0
M  V30 3812 C 360.406 -2.02784 -0.410665 0
M  V30 3813 C 360.821 -1.10464 -1.53112 0
M  V30 3814 O 360.178 -0.114871 -1.82138 0
M  V30 3815 C 360.229 -3.49087 -0.939165 0
M  V30 3816 O 359.95 -4.37887 0.136614 0
M  V30 3817 C 361.451 -4.11543 -1.64763 0
M  V30 3818 H 358.671 -0.663484 -0.100148 0
M  V30 3819 H 361.215 -2.01614 0.342326 0
M  V30 3820 H 359.37 -3.50861 -1.64242 0
M  V30 3821 H 359.784 -5.23849 -0.261155 0
M  V30 3822 H 361.258 -5.15673 -1.96939 0
M  V30 3823 H 361.735 -3.56736 -2.56195 0
M  V30 3824 H 362.341 -4.13629 -0.989503 0
M  V30 3825 N 360.656 0.0484629 -1.57525 0
M  V30 3826 C 361.905 0.742065 -1.87553 0
M  V30 3827 C 362.218 1.77545 -0.820802 0
M  V30 3828 O 363.424 2.52027 -1.00967 0
M  V30 3829 C 361.88 1.37081 -3.32771 0
M  V30 3830 C 361.488 0.374786 -4.4643 0
M  V30 3831 C 363.232 2.04542 -3.71972 0
M  V30 3832 C 361.139 1.01077 -5.82698 0
M  V30 3833 H 360.069 0.280903 -0.699721 0
M  V30 3834 H 362.72 -0.00411877 -1.835 0
M  V30 3835 H 361.102 2.16605 -3.31509 0
M  V30 3836 H 362.276 -0.392331 -4.59127 0
M  V30 3837 H 360.591 -0.196653 -4.15935 0
M  V30 3838 H 363.188 2.52943 -4.71088 0
M  V30 3839 H 363.531 2.85515 -3.02964 0
M  V30 3840 H 364.064 1.31819 -3.75325 0
M  V30 3841 H 360.803 0.240878 -6.55057 0
M  V30 3842 H 360.323 1.74819 -5.73758 0
M  V30 3843 H 362.002 1.52383 -6.28799 0
M  V30 3844 N 362.134 1.5431 0.320358 0
M  V30 3845 C 363.097 1.83195 1.3774 0
M  V30 3846 C 364.097 0.703906 1.44575 0
M  V30 3847 O 365.287 0.972214 1.44546 0
M  V30 3848 C 362.419 1.99487 2.76438 0
M  V30 3849 H 363.612 2.77642 1.1338 0
M  V30 3850 H 361.165 1.46076 0.556012 0
M  V30 3851 H 361.9 1.07262 3.06048 0
M  V30 3852 H 361.685 2.81575 2.7287 0
M  V30 3853 H 363.175 2.23271 3.52902 0
M  V30 3854 N 363.613 -0.582584 1.46437 0
M  V30 3855 C 364.841 -1.36682 1.55324 0
M  V30 3856 C 365.256 -1.87796 0.194409 0
M  V30 3857 O 364.613 -1.63623 -0.808318 0
M  V30 3858 C 364.664 -2.55426 2.55812 0
M  V30 3859 O 364.385 -2.0643 3.86417 0
M  V30 3860 C 365.886 -3.47976 2.74641 0
M  V30 3861 H 363.106 -0.417545 0.525259 0
M  V30 3862 H 365.65 -0.708219 1.91845 0
M  V30 3863 H 363.805 -3.17275 2.22295 0
M  V30 3864 H 364.219 -2.83762 4.41111 0
M  V30 3865 H 365.693 -4.27775 3.48874 0
M  V30 3866 H 366.17 -3.99919 1.81553 0
M  V30 3867 H 366.776 -2.91962 3.09255 0
M  V30 3868 N 365.091 -1.34144 -0.827227 0
M  V30 3869 C 366.507 -1.13732 -1.11969 0
M  V30 3870 C 366.707 0.0640463 -2.01398 0
M  V30 3871 O 365.763 0.740856 -2.41387 0
M  V30 3872 C 367.076 -2.43047 -1.77055 0
M  V30 3873 C 368.624 -2.49063 -1.89569 0
M  V30 3874 C 369.099 -3.78369 -2.58072 0
M  V30 3875 N 370.59 -3.79505 -2.65575 0
M  V30 3876 C 371.325 -4.76274 -3.19297 0
M  V30 3877 N 370.821 -5.83424 -3.73616 0
M  V30 3878 N 372.614 -4.63735 -3.17658 0
M  V30 3879 H 364.765 -2.11126 -0.232296 0
M  V30 3880 H 367.028 -0.933424 -0.165602 0
M  V30 3881 H 366.734 -3.31025 -1.18807 0
M  V30 3882 H 366.608 -2.56066 -2.76966 0
M  V30 3883 H 368.995 -1.61527 -2.46968 0
M  V30 3884 H 369.076 -2.39975 -0.885745 0
M  V30 3885 H 368.72 -4.66293 -2.01329 0
M  V30 3886 H 368.65 -3.84737 -3.59562 0
M  V30 3887 H 371.141 -3.02074 -2.27068 0
M  V30 3888 H 371.454 -6.53282 -4.12846 0
M  V30 3889 H 369.799 -5.87143 -3.71871 0
M  V30 3890 H 372.99 -3.79177 -2.74486 0
M  V30 3891 H 373.163 -5.39318 -3.59221 0
M  V30 3892 N 366.569 1.04691 -1.17803 0
M  V30 3893 C 367.479 2.16057 -0.914151 0
M  V30 3894 C 368.495 1.73589 0.119503 0
M  V30 3895 O 369.671 2.01308 -0.0609468 0
M  V30 3896 C 366.736 3.4394 -0.436603 0
M  V30 3897 C 365.797 4.00825 -1.53746 0
M  V30 3898 C 365.03 5.22604 -1.0826 0
M  V30 3899 O 365.253 5.70367 0.0612244 0
M  V30 3900 O 364.187 5.7186 -1.87775 0
M  V30 3901 H 368.013 2.41169 -1.84584 0
M  V30 3902 H 365.598 1.1453 -0.959334 0
M  V30 3903 H 367.48 4.21024 -0.178057 0
M  V30 3904 H 366.155 3.20316 0.466869 0
M  V30 3905 H 365.062 3.25158 -1.84995 0
M  V30 3906 H 366.395 4.28778 -2.41683 0
M  V30 3907 N 368.047 0.979072 1.23499 0
M  V30 3908 C 368.994 0.517904 2.24914 0
M  V30 3909 C 369.964 -0.442525 1.60097 0
M  V30 3910 O 371.149 -0.350365 1.87556 0
M  V30 3911 C 368.289 -0.174813 3.44657 0
M  V30 3912 C 367.402 0.825721 4.24035 0
M  V30 3913 C 366.537 0.107946 5.3109 0
M  V30 3914 C 365.576 1.09778 6.02175 0
M  V30 3915 N 364.713 0.40925 7.00906 0
M  V30 3916 H 369.553 1.38751 2.63727 0
M  V30 3917 H 367.09 0.695303 1.2963 0
M  V30 3918 H 369.048 -0.593233 4.12961 0
M  V30 3919 H 367.678 -1.0083 3.06648 0
M  V30 3920 H 366.73 1.36253 3.55161 0
M  V30 3921 H 368.042 1.58005 4.73113 0
M  V30 3922 H 367.196 -0.367904 6.05583 0
M  V30 3923 H 365.935 -0.678994 4.8295 0
M  V30 3924 H 364.94 1.5844 5.26476 0
M  V30 3925 H 366.165 1.88536 6.52404 0
M  V30 3926 H 364.111 -0.358506 6.5502 0
M  V30 3927 H 364.028 1.10226 7.47921 0
M  V30 3928 H 365.296 -0.0442557 7.79487 0
M  V30 3929 N 369.525 -1.3858 0.750561 0
M  V30 3930 C 370.455 -2.33102 0.136237 0
M  V30 3931 C 371.436 -1.54713 -0.706965 0
M  V30 3932 O 372.621 -1.83043 -0.648769 0
M  V30 3933 C 369.751 -3.38882 -0.760017 0
M  V30 3934 C 368.705 -4.27995 -0.0197785 0
M  V30 3935 C 368.031 -5.24605 -1.03408 0
M  V30 3936 C 369.331 -5.09554 1.14684 0
M  V30 3937 H 371.025 -2.84726 0.925822 0
M  V30 3938 H 368.571 -1.36898 0.446654 0
M  V30 3939 H 370.524 -4.0397 -1.19943 0
M  V30 3940 H 369.248 -2.85734 -1.58189 0
M  V30 3941 H 367.907 -3.64409 0.400184 0
M  V30 3942 H 367.555 -4.67746 -1.84994 0
M  V30 3943 H 367.255 -5.85081 -0.543464 0
M  V30 3944 H 368.779 -5.9257 -1.47288 0
M  V30 3945 H 370.193 -5.67899 0.785118 0
M  V30 3946 H 368.59 -5.7925 1.56812 0
M  V30 3947 H 369.66 -4.4347 1.96118 0
M  V30 3948 N 371.003 -0.499398 -1.49478 0
M  V30 3949 C 372.28 0.108629 -1.95298 0
M  V30 3950 C 372.66 1.54282 -1.44084 0
M  V30 3951 O 372.008 2.18944 -0.653908 0
M  V30 3952 C 372.218 0.0229111 -3.48992 0
M  V30 3953 C 373.566 0.197643 -4.2414 0
M  V30 3954 O 374.59 0.0981735 -3.56065 0
M  V30 3955 O 373.449 0.401669 -5.45022 0
M  V30 3956 H 370.543 0.096181 -0.821388 0
M  V30 3957 H 373.089 -0.561822 -1.6013 0
M  V30 3958 H 371.861 -0.977321 -3.78899 0
M  V30 3959 H 371.484 0.733579 -3.90774 0
M  V30 3960 N 372.481 1.55866 -0.233164 0
M  V30 3961 C 373.429 2.22176 0.68851 0
M  V30 3962 C 374.423 1.20487 1.19076 0
M  V30 3963 O 375.629 1.38536 1.14925 0
M  V30 3964 H 372.004 0.712511 0.240483 0
M  V30 3965 H 373.975 2.98212 0.105935 0
M  V30 3966 C 372.724 2.92446 1.88071 0
M  V30 3967 H 372.047 3.70458 1.50337 0
M  V30 3968 H 373.487 3.42226 2.50314 0
M  V30 3969 C 371.946 1.95555 2.74335 0
M  V30 3970 O 372.476 1.47986 3.73447 0
M  V30 3971 N 370.682 1.62953 2.40613 0
M  V30 3972 H 370.229 2.01831 1.60069 0
M  V30 3973 H 370.187 0.983886 2.98609 0
M  V30 3974 N 373.959 -0.0401083 1.57549 0
M  V30 3975 C 374.889 -1.04384 2.08869 0
M  V30 3976 C 375.87 -1.38407 0.988817 0
M  V30 3977 O 377.055 -1.47483 1.26342 0
M  V30 3978 C 374.185 -2.34808 2.55895 0
M  V30 3979 C 373.139 -2.15057 3.70047 0
M  V30 3980 C 372.465 -3.51145 4.03239 0
M  V30 3981 C 373.765 -1.54576 4.98902 0
M  V30 3982 H 375.459 -0.616666 2.92981 0
M  V30 3983 H 373.005 -0.295184 1.40942 0
M  V30 3984 H 374.958 -3.05346 2.90417 0
M  V30 3985 H 373.682 -2.79565 1.68853 0
M  V30 3986 H 372.341 -1.46954 3.35857 0
M  V30 3987 H 371.989 -3.93529 3.13279 0
M  V30 3988 H 371.689 -3.38758 4.80122 0
M  V30 3989 H 373.213 -4.23062 4.40285 0
M  V30 3990 H 374.627 -2.15017 5.31451 0
M  V30 3991 H 373.024 -1.52796 5.80322 0
M  V30 3992 H 374.094 -0.51039 4.82206 0
M  V30 3993 N 375.437 -1.54477 -0.31217 0
M  V30 3994 C 376.683 -1.73483 -1.0503 0
M  V30 3995 C 377.016 -0.513125 -1.87298 0
M  V30 3996 O 376.291 0.489864 -1.8823 0
M  V30 3997 C 376.574 -3.01723 -1.96558 0
M  V30 3998 C 376.427 -4.3417 -1.17545 0
M  V30 3999 C 377.746 -3.25772 -2.95907 0
M  V30 4000 H 374.865 -0.631222 -0.380432 0
M  V30 4001 H 377.507 -1.87184 -0.325932 0
M  V30 4002 H 375.657 -2.90174 -2.58324 0
M  V30 4003 H 377.329 -4.5762 -0.581513 0
M  V30 4004 H 375.572 -4.31159 -0.477925 0
M  V30 4005 H 376.243 -5.20143 -1.84811 0
M  V30 4006 H 378.719 -3.36857 -2.44267 0
M  V30 4007 H 377.595 -4.16838 -3.57123 0
M  V30 4008 H 377.856 -2.43537 -3.68974 0
M  V30 4009 N 376.915 0.57481 -1.46744 0
M  V30 4010 C 378.162 1.33272 -1.52462 0
M  V30 4011 C 378.49 1.93669 -0.179572 0
M  V30 4012 O 377.745 1.7743 0.825664 0
M  V30 4013 C 378.044 2.476 -2.57738 0
M  V30 4014 C 377.71 2.05146 -4.01529 0
M  V30 4015 C 376.372 1.93284 -4.40676 0
M  V30 4016 C 378.724 1.72506 -4.91824 0
M  V30 4017 C 376.052 1.47049 -5.67973 0
M  V30 4018 C 378.404 1.27748 -6.19567 0
M  V30 4019 C 377.068 1.14468 -6.57612 0
M  V30 4020 H 376.338 0.487678 -0.557899 0
M  V30 4021 H 378.985 0.646456 -1.80259 0
M  V30 4022 H 377.29 3.21708 -2.23632 0
M  V30 4023 H 378.987 3.05807 -2.5939 0
M  V30 4024 H 375.577 2.15316 -3.7059 0
M  V30 4025 H 379.761 1.80552 -4.62293 0
M  V30 4026 H 375.017 1.35417 -5.96215 0
M  V30 4027 H 379.191 1.01547 -6.88957 0
M  V30 4028 H 376.818 0.78419 -7.56145 0
M  V30 4029 N 378.394 1.34581 0.820102 0
M  V30 4030 C 379.64 1.27285 1.57881 0
M  V30 4031 C 379.973 -0.156137 1.93571 0
M  V30 4032 O 379.248 -1.10222 1.60254 0
M  V30 4033 C 379.531 2.16639 2.87645 0
M  V30 4034 C 379.384 3.68088 2.58517 0
M  V30 4035 C 380.703 2.05378 3.8924 0
M  V30 4036 H 377.822 0.463714 0.572833 0
M  V30 4037 H 380.464 1.64859 0.944539 0
M  V30 4038 H 378.614 1.84725 3.41773 0
M  V30 4039 H 380.286 4.10382 2.10676 0
M  V30 4040 H 378.529 3.89038 1.91917 0
M  V30 4041 H 379.2 4.2598 3.51063 0
M  V30 4042 H 381.676 2.33404 3.44473 0
M  V30 4043 H 380.552 2.7012 4.77835 0
M  V30 4044 H 380.813 1.0316 4.29896 0
M  V30 4045 N 379.872 -1.04064 1.18357 0
M  V30 4046 C 381.121 -1.76662 0.973313 0
M  V30 4047 C 381.434 -1.89154 -0.497991 0
M  V30 4048 O 382.64 -2.58606 -0.826762 0
M  V30 4049 C 381.096 -3.17624 1.69242 0
M  V30 4050 C 380.704 -3.13225 3.20303 0
M  V30 4051 C 382.448 -3.946 1.56497 0
M  V30 4052 C 380.355 -4.49046 3.84853 0
M  V30 4053 H 379.285 -0.662214 0.36054 0
M  V30 4054 H 381.936 -1.16553 1.41731 0
M  V30 4055 H 380.318 -3.78129 1.1762 0
M  V30 4056 H 381.492 -2.62172 3.78949 0
M  V30 4057 H 379.807 -2.49749 3.33189 0
M  V30 4058 H 382.404 -4.95042 2.02084 0
M  V30 4059 H 382.747 -4.13074 0.517243 0
M  V30 4060 H 383.28 -3.4067 2.05399 0
M  V30 4061 H 380.019 -4.35777 4.89672 0
M  V30 4062 H 379.539 -5.00203 3.30994 0
M  V30 4063 H 381.218 -5.17961 3.87718 0
M  V30 4064 N 381.35 -0.985608 -1.22978 0
M  V30 4065 C 382.298 -0.522631 -2.26652 0
M  V30 4066 C 383.292 0.422998 -1.64034 0
M  V30 4067 O 384.498 0.296319 -1.77544 0
M  V30 4068 H 380.873 -0.150597 -0.736766 0
M  V30 4069 H 382.844 -1.40863 -2.63059 0
M  V30 4070 C 381.593 0.154238 -3.47358 0
M  V30 4071 H 380.916 -0.564329 -3.95797 0
M  V30 4072 H 382.356 0.441744 -4.21693 0
M  V30 4073 C 380.815 1.38719 -3.07016 0
M  V30 4074 O 381.345 2.48307 -3.15764 0
M  V30 4075 N 379.551 1.25975 -2.61875 0
M  V30 4076 H 379.098 0.368068 -2.54957 0
M  V30 4077 H 379.056 2.08578 -2.3525 0
M  V30 4078 N 382.828 1.3818 -0.7579 0
M  V30 4079 C 384.068 2.01864 -0.320968 0
M  V30 4080 C 384.432 1.58863 1.07827 0
M  V30 4081 O 385.633 2.14908 1.61456 0
M  V30 4082 C 383.904 3.54626 -0.44446 0
M  V30 4083 S 385.463 4.38706 -0.0907467 0
M  V30 4084 H 382.281 0.700056 -0.124268 0
M  V30 4085 H 384.883 1.68611 -0.989468 0
M  V30 4086 H 383.587 3.83411 -1.4637 0
M  V30 4087 H 383.118 3.92661 0.241073 0
M  V30 4088 H 385.133 4.83435 1.11826 0
M  V30 4089 N 384.306 0.507319 1.49211 0
M  V30 4090 C 385.254 -0.281364 2.30892 0
M  V30 4091 C 386.248 -0.95687 1.39787 0
M  V30 4092 O 387.454 -0.883838 1.56807 0
M  V30 4093 H 383.829 -0.109597 0.743971 0
M  V30 4094 H 385.8 0.42744 2.95323 0
M  V30 4095 C 384.549 -1.32918 3.21291 0
M  V30 4096 H 383.872 -0.818799 3.91326 0
M  V30 4097 H 385.312 -1.85288 3.81372 0
M  V30 4098 C 383.771 -2.35074 2.41333 0
M  V30 4099 O 384.301 -3.4108 2.12197 0
M  V30 4100 N 382.507 -2.07705 2.03241 0
M  V30 4101 H 382.054 -1.2152 2.27136 0
M  V30 4102 H 382.012 -2.76283 1.50051 0
M  V30 4103 N 385.784 -1.5574 0.241426 0
M  V30 4104 C 386.714 -2.24133 -0.654722 0
M  V30 4105 C 387.695 -1.21974 -1.1856 0
M  V30 4106 O 388.88 -1.50612 -1.22595 0
M  V30 4107 C 386.01 -2.93659 -1.85423 0
M  V30 4108 C 384.964 -4.0246 -1.45636 0
M  V30 4109 C 384.29 -4.59383 -2.73626 0
M  V30 4110 C 385.59 -5.18468 -0.631506 0
M  V30 4111 H 387.284 -2.99281 -0.0844353 0
M  V30 4112 H 384.83 -1.43947 -0.0391707 0
M  V30 4113 H 386.783 -3.40203 -2.48676 0
M  V30 4114 H 385.507 -2.15991 -2.44981 0
M  V30 4115 H 384.166 -3.56676 -0.847202 0
M  V30 4116 H 383.814 -3.78422 -3.3137 0
M  V30 4117 H 383.514 -5.32826 -2.4773 0
M  V30 4118 H 385.038 -5.08658 -3.37786 0
M  V30 4119 H 386.452 -5.61272 -1.1682 0
M  V30 4120 H 384.849 -5.98266 -0.468831 0
M  V30 4121 H 385.919 -4.8358 0.357506 0
M  V30 4122 N 387.262 0.0317525 -1.57568 0
M  V30 4123 C 388.194 1.06073 -2.03178 0
M  V30 4124 C 389.207 1.32627 -0.944132 0
M  V30 4125 O 390.396 1.30162 -1.22148 0
M  V30 4126 C 387.496 2.40297 -2.38978 0
M  V30 4127 C 386.669 2.33137 -3.70089 0
M  V30 4128 C 385.728 3.49787 -3.9311 0
M  V30 4129 O 384.754 3.29403 -4.64201 0
M  V30 4130 N 385.956 4.71562 -3.38541 0
M  V30 4131 H 388.721 0.672006 -2.92069 0
M  V30 4132 H 386.282 0.219745 -1.60402 0
M  V30 4133 H 388.274 3.1705 -2.51518 0
M  V30 4134 H 386.844 2.71024 -1.55771 0
M  V30 4135 H 386.064 1.415 -3.67928 0
M  V30 4136 H 387.352 2.25493 -4.56104 0
M  V30 4137 H 386.75 4.91024 -2.80912 0
M  V30 4138 H 385.307 5.45689 -3.56464 0
M  V30 4139 N 388.74 1.54641 0.303973 0
M  V30 4140 C 390.156 1.45788 0.649463 0
M  V30 4141 C 390.356 0.64666 1.90842 0
M  V30 4142 O 389.412 0.153183 2.52035 0
M  V30 4143 C 390.725 2.89718 0.805227 0
M  V30 4144 C 392.273 2.99742 0.901305 0
M  V30 4145 C 392.748 4.44863 1.08909 0
M  V30 4146 N 394.239 4.48559 1.15536 0
M  V30 4147 C 394.974 5.58026 1.3189 0
M  V30 4148 N 394.47 6.77422 1.45161 0
M  V30 4149 N 396.263 5.45708 1.34755 0
M  V30 4150 H 388.414 2.05854 -0.523237 0
M  V30 4151 H 390.677 0.932186 -0.172431 0
M  V30 4152 H 390.383 3.51666 -0.0489108 0
M  V30 4153 H 390.257 3.36964 1.69513 0
M  V30 4154 H 392.644 2.3791 1.74593 0
M  V30 4155 H 392.725 2.55797 -0.0125531 0
M  V30 4156 H 392.369 5.07288 0.249241 0
M  V30 4157 H 392.299 4.86436 2.01713 0
M  V30 4158 H 394.79 3.6254 1.06646 0
M  V30 4159 H 395.103 7.56604 1.57387 0
M  V30 4160 H 393.448 6.80292 1.42223 0
M  V30 4161 H 396.639 4.51378 1.23996 0
M  V30 4162 H 396.812 6.3107 1.47157 0
M  V30 4163 N 390.218 -0.567019 1.47046 0
M  V30 4164 C 391.148 -1.68482 1.61667 0
M  V30 4165 C 392.129 -1.6358 0.466418 0
M  V30 4166 O 393.314 -1.81354 0.694574 0
M  V30 4167 C 390.444 -3.07124 1.62148 0
M  V30 4168 C 389.398 -3.26867 2.76301 0
M  V30 4169 C 388.724 -4.66196 2.61849 0
M  V30 4170 C 390.024 -3.13186 4.17986 0
M  V30 4171 H 391.718 -1.56502 2.5524 0
M  V30 4172 H 389.264 -0.751486 1.22836 0
M  V30 4173 H 391.217 -3.8516 1.70968 0
M  V30 4174 H 389.941 -3.2004 0.651287 0
M  V30 4175 H 388.6 -2.51237 2.66975 0
M  V30 4176 H 388.248 -4.75898 1.62879 0
M  V30 4177 H 387.948 -4.80356 3.38425 0
M  V30 4178 H 389.472 -5.46379 2.72584 0
M  V30 4179 H 390.886 -3.81049 4.2834 0
M  V30 4180 H 389.283 -3.3886 4.95272 0
M  V30 4181 H 390.353 -2.10057 4.3704 0
M  V30 4182 N 391.696 -1.35014 -0.812953 0
M  V30 4183 C 392.973 -1.18502 -1.55617 0
M  V30 4184 C 393.353 0.238421 -2.09749 0
M  V30 4185 O 392.701 1.2411 -1.91857 0
M  V30 4186 C 392.911 -2.24783 -2.66971 0
M  V30 4187 C 394.259 -2.60268 -3.35478 0
M  V30 4188 O 395.283 -2.23648 -2.77236 0
M  V30 4189 O 394.142 -3.2321 -4.40678 0
M  V30 4190 H 391.236 -0.459984 -0.687272 0
M  V30 4191 H 393.782 -1.46677 -0.853464 0
M  V30 4192 H 392.554 -3.20284 -2.24798 0
M  V30 4193 H 392.177 -1.97841 -3.44884 0
M  V30 4194 N 393.175 1.03435 -1.18907 0
M  V30 4195 C 394.423 1.76394 -0.986382 0
M  V30 4196 C 394.744 1.88883 0.484567 0
M  V30 4197 O 394.014 1.41843 1.3512 0
M  V30 4198 H 392.594 0.65344 -0.361975 0
M  V30 4199 H 395.256 1.248 -1.49703 0
M  V30 4200 H 394.352 2.77424 -1.42978 0
M  V30 4201 N 394.653 0.992116 1.22453 0
M  V30 4202 C 396.064 0.702776 1.72968 0
M  V30 4203 C 396.415 -0.780399 1.80012 0
M  V30 4204 O 395.54 -1.61007 1.44589 0
M  V30 4205 C 396.135 1.26903 3.14135 0
M  V30 4206 C 394.694 1.02909 3.62059 0
M  V30 4207 C 393.841 1.38969 2.39964 0
M  V30 4208 H 396.792 1.16457 1.07812 0
M  V30 4209 H 396.813 0.647223 3.74955 0
M  V30 4210 H 396.325 2.34851 3.08977 0
M  V30 4211 H 394.426 -0.0337979 3.72585 0
M  V30 4212 H 394.539 1.69191 4.48231 0
M  V30 4213 H 392.903 0.808279 2.41535 0
M  V30 4214 H 393.686 2.4792 2.37467 0
M  V30 4215 N 396.131 -1.37776 0.765217 0
M  V30 4216 C 397.377 -2.00145 0.327072 0
M  V30 4217 C 397.71 -1.60607 -1.09175 0
M  V30 4218 O 396.985 -0.849127 -1.74986 0
M  V30 4219 C 397.268 -3.57109 0.46319 0
M  V30 4220 C 397.121 -4.06576 1.92395 0
M  V30 4221 C 398.44 -4.39888 -0.136473 0
M  V30 4222 H 395.559 -0.727113 0.120316 0
M  V30 4223 H 398.201 -1.63549 0.967039 0
M  V30 4224 H 396.351 -3.88414 -0.0816358 0
M  V30 4225 H 398.023 -3.85864 2.52798 0
M  V30 4226 H 396.266 -3.59011 2.43503 0
M  V30 4227 H 396.937 -5.15639 1.97028 0
M  V30 4228 H 399.413 -4.14803 0.328317 0
M  V30 4229 H 398.289 -5.48899 -0.0110582 0
M  V30 4230 H 398.55 -4.24758 -1.22608 0
M  V30 4231 N 397.609 -0.515225 -1.4894 0
M  V30 4232 C 398.837 0.0206034 -2.0689 0
M  V30 4233 C 399.252 1.29514 -1.37374 0
M  V30 4234 O 398.609 1.76698 -0.456529 0
M  V30 4235 C 398.66 0.26351 -3.60538 0
M  V30 4236 O 398.381 -0.960517 -4.27441 0
M  V30 4237 C 399.882 0.841383 -4.35242 0
M  V30 4238 H 397.102 -0.0268608 -0.670462 0
M  V30 4239 H 399.646 -0.716651 -1.91532 0
M  V30 4240 H 397.801 0.950777 -3.75552 0
M  V30 4241 H 398.215 -0.73212 -5.19365 0
M  V30 4242 H 399.689 0.96085 -5.43573 0
M  V30 4243 H 400.166 1.8427 -3.98674 0
M  V30 4244 H 400.772 0.191143 -4.2487 0
M  V30 4245 N 399.087 1.5561 -0.249682 0
M  V30 4246 C 400.335 1.98618 0.373548 0
M  V30 4247 C 400.656 1.13919 1.58264 0
M  V30 4248 O 399.926 0.222637 1.94631 0
M  V30 4249 H 398.506 0.733571 0.141006 0
M  V30 4250 H 401.168 1.91748 -0.349117 0
M  V30 4251 H 400.264 3.04584 0.680796 0
M  V30 4252 N 400.565 -0.0233959 1.57583 0
M  V30 4253 C 401.513 -1.04063 2.08023 0
M  V30 4254 C 402.507 -1.37084 0.995204 0
M  V30 4255 O 403.713 -1.35923 1.18004 0
M  V30 4256 H 400.088 -0.353144 0.663922 0
M  V30 4257 H 402.059 -0.589453 2.9252 0
M  V30 4258 C 400.808 -2.33123 2.57971 0
M  V30 4259 H 400.131 -2.08577 3.4108 0
M  V30 4260 H 401.571 -3.02632 2.96967 0
M  V30 4261 C 400.03 -3.02483 1.48342 0
M  V30 4262 O 400.56 -3.92541 0.852898 0
M  V30 4263 N 398.766 -2.63909 1.21658 0
M  V30 4264 H 398.313 -1.90758 1.73116 0
M  V30 4265 H 398.271 -3.10633 0.485218 0
M  V30 4266 N 402.043 -1.548 -0.295768 0
M  V30 4267 C 403.291 -1.73985 -1.02828 0
M  V30 4268 C 403.612 -0.531406 -1.87619 0
M  V30 4269 O 402.882 0.454221 -1.90561 0
M  V30 4270 H 401.462 -0.641556 -0.382642 0
M  V30 4271 H 404.124 -1.92163 -0.325489 0
M  V30 4272 H 403.22 -2.63129 -1.67838 0
M  V30 4273 N 403.521 0.559213 -1.47345 0
M  V30 4274 C 404.468 1.66645 -1.59682 0
M  V30 4275 C 405.438 1.60168 -0.43994 0
M  V30 4276 O 406.623 1.79031 -0.659736 0
M  V30 4277 C 403.763 3.04969 -1.61518 0
M  V30 4278 C 402.876 3.21897 -2.88108 0
M  V30 4279 C 402.011 4.50608 -2.81294 0
M  V30 4280 C 401.05 4.60961 -4.02717 0
M  V30 4281 N 400.187 5.81024 -3.94151 0
M  V30 4282 H 405.027 1.55439 -2.54249 0
M  V30 4283 H 402.564 0.757219 -1.26113 0
M  V30 4284 H 404.522 3.85064 -1.60566 0
M  V30 4285 H 403.152 3.15015 -0.704645 0
M  V30 4286 H 402.204 2.35248 -2.98936 0
M  V30 4287 H 403.516 3.25412 -3.78032 0
M  V30 4288 H 402.67 5.3896 -2.7858 0
M  V30 4289 H 401.409 4.49568 -1.89049 0
M  V30 4290 H 400.414 3.71021 -4.05738 0
M  V30 4291 H 401.639 4.63761 -4.96087 0
M  V30 4292 H 399.585 5.80938 -3.04708 0
M  V30 4293 H 399.502 5.85909 -4.77752 0
M  V30 4294 H 400.77 6.71744 -3.9545 0
M  V30 4295 N 404.999 1.35443 0.805782 0
M  V30 4296 C 406.248 1.28097 1.55801 0
M  V30 4297 C 406.561 -0.142428 1.95081 0
M  V30 4298 O 407.767 -0.33817 2.69386 0
M  V30 4299 C 406.223 2.24653 2.81174 0
M  V30 4300 C 405.831 3.72342 2.49129 0
M  V30 4301 C 407.575 2.2625 3.59181 0
M  V30 4302 C 405.482 4.60719 3.70799 0
M  V30 4303 H 404.412 0.475937 0.584808 0
M  V30 4304 H 407.063 1.60712 0.885661 0
M  V30 4305 H 405.445 1.85011 3.50124 0
M  V30 4306 H 406.619 4.20624 1.88181 0
M  V30 4307 H 404.934 3.73361 1.84366 0
M  V30 4308 H 407.531 2.89495 4.49552 0
M  V30 4309 H 407.874 1.26647 3.96568 0
M  V30 4310 H 408.407 2.64426 2.97193 0
M  V30 4311 H 405.146 5.61324 3.3852 0
M  V30 4312 H 404.666 4.17163 4.3097 0
M  V30 4313 H 406.345 4.76182 4.38018 0
M  V30 4314 N 406.477 -1.02803 1.19454 0
M  V30 4315 C 407.726 -1.7562 0.991996 0
M  V30 4316 C 408.039 -1.89672 -0.477901 0
M  V30 4317 O 409.245 -2.59468 -0.799287 0
M  V30 4318 C 407.701 -3.15812 1.72601 0
M  V30 4319 C 407.309 -3.0981 3.23607 0
M  V30 4320 C 409.053 -3.92918 1.60674 0
M  V30 4321 C 406.96 -4.44939 3.89594 0
M  V30 4322 H 405.89 -0.658352 0.367543 0
M  V30 4323 H 408.541 -1.15044 1.42959 0
M  V30 4324 H 406.923 -3.7686 1.21624 0
M  V30 4325 H 408.097 -2.58138 3.81709 0
M  V30 4326 H 406.412 -2.46201 3.35819 0
M  V30 4327 H 409.009 -4.9287 2.07323 0
M  V30 4328 H 409.352 -4.12502 0.561025 0
M  V30 4329 H 409.885 -3.38472 2.09001 0
M  V30 4330 H 406.624 -4.30559 4.94267 0
M  V30 4331 H 406.144 -4.96664 3.36281 0
M  V30 4332 H 407.823 -5.1382 3.93189 0
M  V30 4333 N 407.956 -0.998596 -1.21925 0
M  V30 4334 C 408.904 -0.546641 -2.26085 0
M  V30 4335 C 409.898 0.405576 -1.64473 0
M  V30 4336 O 411.104 0.277471 -1.77849 0
M  V30 4337 H 407.479 -0.158403 -0.735127 0
M  V30 4338 H 409.45 -1.43645 -2.61551 0
M  V30 4339 C 408.199 0.117388 -3.47502 0
M  V30 4340 H 407.522 -0.606277 -3.95176 0
M  V30 4341 H 408.962 0.396993 -4.22137 0
M  V30 4342 C 407.421 1.35455 -3.0847 0
M  V30 4343 O 407.951 2.44944 -3.18379 0
M  V30 4344 N 406.157 1.23191 -2.63196 0
M  V30 4345 H 405.704 0.341006 -2.55333 0
M  V30 4346 H 405.662 2.06071 -2.37449 0
M  V30 4347 N 409.434 1.37368 -0.772513 0
M  V30 4348 C 410.344 2.34053 -0.160081 0
M  V30 4349 C 411.36 1.60216 0.678728 0
M  V30 4350 O 412.536 1.92303 0.59847 0
M  V30 4351 C 409.601 3.3939 0.708182 0
M  V30 4352 C 408.662 4.29048 -0.147172 0
M  V30 4353 C 407.895 5.29354 0.679744 0
M  V30 4354 O 408.118 5.3723 1.91678 0
M  V30 4355 O 407.052 6.01835 0.0885444 0
M  V30 4356 H 410.878 2.88159 -0.959053 0
M  V30 4357 H 408.463 1.39543 -0.533685 0
M  V30 4358 H 410.345 4.03839 1.20384 0
M  V30 4359 H 409.02 2.8761 1.48533 0
M  V30 4360 H 407.927 3.67697 -0.689205 0
M  V30 4361 H 409.26 4.84134 -0.887423 0
M  V30 4362 N 410.912 0.523116 1.48665 0
M  V30 4363 C 411.842 -0.23231 2.32342 0
M  V30 4364 C 412.823 -0.941637 1.41659 0
M  V30 4365 O 414.008 -0.928751 1.70552 0
M  V30 4366 C 411.138 -1.28387 3.22698 0
M  V30 4367 C 410.092 -0.693098 4.22351 0
M  V30 4368 C 409.418 -1.8468 5.01794 0
M  V30 4369 C 410.718 0.33063 5.21252 0
M  V30 4370 H 412.412 0.466192 2.95748 0
M  V30 4371 H 409.958 0.225643 1.42221 0
M  V30 4372 H 411.911 -1.82024 3.80059 0
M  V30 4373 H 410.635 -2.01186 2.57278 0
M  V30 4374 H 409.294 -0.178299 3.66166 0
M  V30 4375 H 408.942 -2.56301 4.32804 0
M  V30 4376 H 408.642 -1.45747 5.69238 0
M  V30 4377 H 410.166 -2.38709 5.62006 0
M  V30 4378 H 411.58 -0.118407 5.73178 0
M  V30 4379 H 409.977 0.636974 5.9671 0
M  V30 4380 H 411.047 1.23883 4.68808 0
M  V30 4381 N 412.39 -1.55475 0.257931 0
M  V30 4382 C 413.3 -2.2549 -0.647425 0
M  V30 4383 C 414.316 -1.2748 -1.18427 0
M  V30 4384 O 415.492 -1.6038 -1.2182 0
M  V30 4385 C 412.557 -2.94916 -1.82278 0
M  V30 4386 C 411.618 -4.08363 -1.32432 0
M  V30 4387 C 410.851 -4.74469 -2.44366 0
M  V30 4388 O 411.074 -4.39701 -3.63344 0
M  V30 4389 O 410.008 -5.62763 -2.13497 0
M  V30 4390 H 413.834 -3.03593 -0.0807707 0
M  V30 4391 H 411.419 -1.49377 0.0259962 0
M  V30 4392 H 413.301 -3.38606 -2.50846 0
M  V30 4393 H 411.976 -2.19744 -2.37685 0
M  V30 4394 H 410.883 -3.69166 -0.605605 0
M  V30 4395 H 412.216 -4.85385 -0.816211 0
M  V30 4396 N 413.868 0.0150385 -1.57593 0
M  V30 4397 C 415.116 0.701613 -1.8953 0
M  V30 4398 C 415.437 1.75139 -0.857396 0
M  V30 4399 O 414.707 1.95607 0.107194 0
M  V30 4400 H 413.287 0.26213 -0.699498 0
M  V30 4401 H 415.949 -0.0223304 -1.94887 0
M  V30 4402 H 415.045 1.18236 -2.88837 0
M  V30 4403 N 415.346 1.54954 0.287554 0
M  V30 4404 C 416.595 1.74081 1.01877 0
M  V30 4405 C 416.908 0.541135 1.87966 0
M  V30 4406 O 418.114 0.614491 2.64455 0
M  V30 4407 C 416.57 3.08042 1.86113 0
M  V30 4408 C 416.178 4.35531 1.04961 0
M  V30 4409 C 417.922 3.36523 2.58752 0
M  V30 4410 C 415.829 5.60538 1.88551 0
M  V30 4411 H 414.759 0.64884 0.384087 0
M  V30 4412 H 417.41 1.81426 0.275101 0
M  V30 4413 H 415.792 2.94696 2.64519 0
M  V30 4414 H 416.966 4.59751 0.31074 0
M  V30 4415 H 415.281 4.14085 0.43843 0
M  V30 4416 H 417.878 4.27122 3.21668 0
M  V30 4417 H 418.221 2.56 3.28283 0
M  V30 4418 H 418.754 3.50901 1.87386 0
M  V30 4419 H 415.493 6.43767 1.23466 0
M  V30 4420 H 415.013 5.40483 2.60074 0
M  V30 4421 H 416.692 5.98297 2.46273 0
M  V30 4422 N 416.824 -0.551391 1.4764 0
M  V30 4423 C 418.071 -1.3083 1.54563 0
M  V30 4424 C 418.399 -1.93359 0.210361 0
M  V30 4425 O 417.654 -1.78721 -0.797332 0
M  V30 4426 C 417.953 -2.43469 2.61644 0
M  V30 4427 C 417.619 -1.98732 4.04742 0
M  V30 4428 C 416.281 -1.86248 4.43695 0
M  V30 4429 C 418.633 -1.64659 4.94507 0
M  V30 4430 C 415.961 -1.37995 5.70241 0
M  V30 4431 C 418.313 -1.17875 6.21521 0
M  V30 4432 C 416.977 -1.03992 6.5935 0
M  V30 4433 H 416.247 -0.478741 0.565587 0
M  V30 4434 H 418.894 -0.617697 1.81264 0
M  V30 4435 H 417.199 -3.18109 2.28722 0
M  V30 4436 H 418.896 -3.01642 2.64222 0
M  V30 4437 H 415.486 -2.09393 3.73968 0
M  V30 4438 H 419.67 -1.73174 4.65107 0
M  V30 4439 H 414.926 -1.25915 5.98294 0
M  V30 4440 H 419.1 -0.905739 6.90485 0
M  V30 4441 H 416.727 -0.663794 7.57296 0
M  V30 4442 N 418.302 -1.35869 -0.798587 0
M  V30 4443 C 419.212 -1.31578 -1.94228 0
M  V30 4444 C 420.228 -0.21939 -1.72611 0
M  V30 4445 O 421.404 -0.450167 -1.96305 0
M  V30 4446 C 418.469 -1.09528 -3.28944 0
M  V30 4447 C 417.53 -2.28556 -3.63402 0
M  V30 4448 C 416.763 -2.07549 -4.9169 0
M  V30 4449 O 416.986 -1.046 -5.60727 0
M  V30 4450 O 415.92 -2.95106 -5.24591 0
M  V30 4451 H 419.746 -2.27847 -2.00796 0
M  V30 4452 H 417.331 -1.16322 -0.937526 0
M  V30 4453 H 419.213 -0.991127 -4.09579 0
M  V30 4454 H 417.888 -0.16315 -3.23289 0
M  V30 4455 H 416.795 -2.44538 -2.83112 0
M  V30 4456 H 418.128 -3.20244 -3.73771 0
M  V30 4457 N 419.78 1.02168 -1.19998 0
M  V30 4458 C 421.028 1.75338 -1.00504 0
M  V30 4459 C 421.349 1.89387 0.464506 0
M  V30 4460 O 420.619 1.43268 1.33608 0
M  V30 4461 H 419.199 0.649564 -0.368885 0
M  V30 4462 H 421.861 1.23205 -1.51018 0
M  V30 4463 H 420.957 2.75892 -1.45912 0
M  V30 4464 N 421.258 1.00505 1.21394 0
M  V30 4465 C 422.221 0.570459 2.21987 0
M  V30 4466 C 423.221 -0.353211 1.56873 0
M  V30 4467 O 424.411 -0.14349 1.73608 0
M  V30 4468 C 421.543 -0.168555 3.40483 0
M  V30 4469 H 422.736 1.46021 2.6195 0
M  V30 4470 H 420.289 0.793565 1.34656 0
M  V30 4471 H 421.024 -1.07374 3.06009 0
M  V30 4472 H 420.809 0.494823 3.88965 0
M  V30 4473 H 422.299 -0.460362 4.15055 0
M  V30 4474 N 422.737 -1.36956 0.779787 0
M  V30 4475 C 423.985 -1.99097 0.347079 0
M  V30 4476 C 424.306 -1.62206 -1.08232 0
M  V30 4477 O 423.576 -0.891373 -1.74446 0
M  V30 4478 H 422.156 -0.736409 0.125342 0
M  V30 4479 H 424.818 -1.67308 0.999696 0
M  V30 4480 H 423.914 -3.09107 0.431162 0
M  V30 4481 N 424.215 -0.530993 -1.48385 0
M  V30 4482 C 425.461 -0.00538653 -2.03399 0
M  V30 4483 C 425.816 1.31899 -1.40073 0
M  V30 4484 O 425.109 1.83901 -0.537676 0
M  V30 4485 C 425.303 0.172742 -3.56982 0
M  V30 4486 C 425.132 -1.13282 -4.35198 0
M  V30 4487 C 423.902 -1.69296 -4.76096 0
M  V30 4488 C 426.1 -2.04367 -4.71952 0
M  V30 4489 N 424.082 -2.9413 -5.38851 0
M  V30 4490 C 425.453 -3.13777 -5.34737 0
M  V30 4491 C 427.508 -2.04681 -4.53883 0
M  V30 4492 C 426.211 -4.23567 -5.81363 0
M  V30 4493 C 428.237 -3.13466 -5.01491 0
M  V30 4494 C 427.599 -4.21595 -5.64302 0
M  V30 4495 H 423.698 -0.0434945 -0.780789 0
M  V30 4496 H 426.282 -0.712495 -1.81195 0
M  V30 4497 H 424.453 0.848937 -3.79009 0
M  V30 4498 H 426.185 0.698046 -3.98634 0
M  V30 4499 H 422.94 -1.23422 -4.57235 0
M  V30 4500 H 423.364 -3.57689 -5.74794 0
M  V30 4501 H 428.006 -1.22378 -4.04702 0
M  V30 4502 H 425.724 -5.06648 -6.2955 0
M  V30 4503 H 429.31 -3.14765 -4.893 0
M  V30 4504 H 428.19 -5.04384 -6.00472 0
M  V30 4505 N 425.693 1.55336 -0.266172 0
M  V30 4506 C 426.641 2.23587 0.641228 0
M  V30 4507 C 427.635 1.22986 1.16494 0
M  V30 4508 O 428.841 1.40943 1.1196 0
M  V30 4509 H 425.216 0.717452 0.225315 0
M  V30 4510 H 427.187 2.9837 0.0426561 0
M  V30 4511 C 425.936 2.96369 1.81826 0
M  V30 4512 H 425.259 3.73563 1.42445 0
M  V30 4513 H 426.699 3.47459 2.42998 0
M  V30 4514 C 425.158 2.0133 2.70125 0
M  V30 4515 O 425.688 1.55875 3.70224 0
M  V30 4516 N 423.894 1.6802 2.37102 0
M  V30 4517 H 423.441 2.05181 1.55751 0
M  V30 4518 H 423.399 1.047 2.96454 0
M  V30 4519 N 427.171 -0.0066808 1.57599 0
M  V30 4520 C 428.417 -0.693947 1.90558 0
M  V30 4521 C 428.75 -1.73792 0.866594 0
M  V30 4522 O 428.025 -1.94156 -0.115548 0
M  V30 4523 C 428.308 -1.34317 3.34112 0
M  V30 4524 C 428.161 -0.311189 4.48722 0
M  V30 4525 C 429.48 -2.27116 3.7697 0
M  V30 4526 H 426.599 -0.250803 0.693013 0
M  V30 4527 H 429.241 0.043242 1.89951 0
M  V30 4528 H 427.391 -1.9715 3.3476 0
M  V30 4529 H 429.063 0.316944 4.6021 0
M  V30 4530 H 427.306 0.367253 4.32243 0
M  V30 4531 H 427.977 -0.804366 5.46108 0
M  V30 4532 H 430.453 -1.74306 3.77831 0
M  V30 4533 H 429.329 -2.69511 4.78179 0
M  V30 4534 H 429.59 -3.14743 3.10466 0
M  V30 4535 N 428.649 -1.55105 -0.279332 0
M  V30 4536 C 429.898 -1.74618 -1.00952 0
M  V30 4537 C 430.211 -0.551096 -1.87676 0
M  V30 4538 O 431.417 -0.628507 -2.64125 0
M  V30 4539 C 429.873 -3.09025 -1.84476 0
M  V30 4540 C 429.481 -4.36081 -1.0265 0
M  V30 4541 C 431.225 -3.37891 -2.56963 0
M  V30 4542 C 429.132 -5.6153 -1.85576 0
M  V30 4543 H 428.062 -0.650868 -0.38064 0
M  V30 4544 H 430.713 -1.81569 -0.265475 0
M  V30 4545 H 429.095 -2.96095 -2.62952 0
M  V30 4546 H 430.269 -4.59909 -0.286354 0
M  V30 4547 H 428.584 -4.14312 -0.416464 0
M  V30 4548 H 431.181 -4.28822 -3.19399 0
M  V30 4549 H 431.524 -2.57737 -3.26921 0
M  V30 4550 H 432.057 -3.5189 -1.85522 0
M  V30 4551 H 428.796 -6.44413 -1.2005 0
M  V30 4552 H 428.316 -5.41854 -2.57204 0
M  V30 4553 H 429.995 -5.99594 -2.43096 0
M  V30 4554 N 430.127 0.543554 -1.4793 0
M  V30 4555 C 431.074 1.64942 -1.6144 0
M  V30 4556 C 432.044 1.59692 -0.456903 0
M  V30 4557 O 433.229 1.78321 -0.678688 0
M  V30 4558 C 430.369 3.03238 -1.64744 0
M  V30 4559 C 429.482 3.18823 -2.91506 0
M  V30 4560 C 428.617 4.47599 -2.86057 0
M  V30 4561 C 427.656 4.56664 -4.07584 0
M  V30 4562 N 426.793 5.76811 -4.00292 0
M  V30 4563 H 431.633 1.52733 -2.55884 0
M  V30 4564 H 429.17 0.7438 -1.2691 0
M  V30 4565 H 431.128 3.83339 -1.64641 0
M  V30 4566 H 429.758 3.1425 -0.738017 0
M  V30 4567 H 428.81 2.32064 -3.01414 0
M  V30 4568 H 430.122 3.21384 -3.81463 0
M  V30 4569 H 429.276 5.35975 -2.84281 0
M  V30 4570 H 428.015 4.47538 -1.93807 0
M  V30 4571 H 427.02 3.66697 -4.09651 0
M  V30 4572 H 428.245 4.58474 -5.00978 0
M  V30 4573 H 426.191 5.77673 -3.10853 0
M  V30 4574 H 426.108 5.80808 -4.8394 0
M  V30 4575 H 427.376 6.67512 -4.02553 0
M  V30 4576 N 431.605 1.3629 0.791371 0
M  V30 4577 C 432.851 1.30605 1.55146 0
M  V30 4578 C 433.184 -0.115042 1.93859 0
M  V30 4579 O 432.459 -1.06798 1.62556 0
M  V30 4580 C 432.742 2.22692 2.82985 0
M  V30 4581 C 432.595 3.73489 2.50651 0
M  V30 4582 C 433.914 2.13588 3.84796 0
M  V30 4583 H 431.033 0.475761 0.562868 0
M  V30 4584 H 433.675 1.66825 0.909358 0
M  V30 4585 H 431.825 1.91933 3.37778 0
M  V30 4586 H 433.497 4.14758 2.01924 0
M  V30 4587 H 431.74 3.93021 1.83622 0
M  V30 4588 H 432.411 4.3333 3.41949 0
M  V30 4589 H 434.887 2.40659 3.39445 0
M  V30 4590 H 433.763 2.80195 4.71998 0
M  V30 4591 H 434.024 1.12256 4.27611 0
M  V30 4592 N 433.083 -1.0153 1.20538 0
M  V30 4593 C 434.016 -2.09759 0.898695 0
M  V30 4594 C 434.994 -1.61909 -0.149733 0
M  V30 4595 O 436.178 -1.88486 -0.0230293 0
M  V30 4596 C 433.305 -3.36913 0.347512 0
M  V30 4597 C 432.351 -4.03655 1.37713 0
M  V30 4598 S 433.184 -4.47402 2.94265 0
M  V30 4599 C 434.34 -5.77756 2.40726 0
M  V30 4600 H 434.573 -2.3545 1.81523 0
M  V30 4601 H 432.106 -1.14665 1.03399 0
M  V30 4602 H 434.064 -4.10484 0.0360518 0
M  V30 4603 H 432.725 -3.09291 -0.547546 0
M  V30 4604 H 431.918 -4.9514 0.940872 0
M  V30 4605 H 431.52 -3.36313 1.63614 0
M  V30 4606 H 433.812 -6.52994 1.80569 0
M  V30 4607 H 434.755 -6.2618 3.30612 0
M  V30 4608 H 435.163 -5.34081 1.82806 0
M  V30 4609 N 434.561 -1.01147 -1.20859 0
M  V30 4610 C 435.807 -0.708598 -1.90658 0
M  V30 4611 C 436.162 0.753069 -1.7705 0
M  V30 4612 O 435.455 1.53952 -1.14059 0
M  V30 4613 C 435.649 -1.0727 -3.40922 0
M  V30 4614 C 435.478 -2.56821 -3.69152 0
M  V30 4615 C 434.248 -3.23524 -3.8815 0
M  V30 4616 C 436.446 -3.54997 -3.72131 0
M  V30 4617 N 434.428 -4.62359 -4.03853 0
M  V30 4618 C 435.799 -4.79371 -3.93196 0
M  V30 4619 C 437.854 -3.49042 -3.55069 0
M  V30 4620 C 436.557 -5.98512 -3.98969 0
M  V30 4621 C 438.583 -4.67579 -3.6211 0
M  V30 4622 C 437.945 -5.9076 -3.83643 0
M  V30 4623 H 434.044 -0.31088 -0.71755 0
M  V30 4624 H 436.628 -1.29526 -1.45366 0
M  V30 4625 H 434.799 -0.51443 -3.84978 0
M  V30 4626 H 436.531 -0.723891 -3.98173 0
M  V30 4627 H 433.286 -2.73958 -3.86321 0
M  V30 4628 H 433.71 -5.34427 -4.15592 0
M  V30 4629 H 438.352 -2.54808 -3.37391 0
M  V30 4630 H 436.07 -6.93132 -4.15444 0
M  V30 4631 H 439.656 -4.64581 -3.50222 0
M  V30 4632 H 438.536 -6.8095 -3.88944 0
M  V30 4633 N 436.039 1.36541 -0.78704 0
M  V30 4634 C 437.287 1.98911 -0.357633 0
M  V30 4635 C 437.608 1.62778 1.07371 0
M  V30 4636 O 436.878 0.900612 1.73971 0
M  V30 4637 H 435.458 0.735734 -0.129246 0
M  V30 4638 H 438.12 1.66776 -1.00855 0
M  V30 4639 H 437.216 3.08874 -0.447549 0
M  V30 4640 N 437.518 0.538854 1.48102 0
M  V30 4641 C 438.743 0.0102694 2.07397 0
M  V30 4642 C 439.168 -1.26562 1.39153 0
M  V30 4643 O 438.526 -1.75357 0.460387 0
M  V30 4644 C 438.574 -0.187602 3.60112 0
M  V30 4645 O 437.678 -1.25432 3.92862 0
M  V30 4646 H 437.019 0.0430975 0.6626 0
M  V30 4647 H 439.549 0.749301 1.90385 0
M  V30 4648 H 439.559 -0.407517 4.0596 0
M  V30 4649 H 438.234 0.744386 4.09184 0
M  V30 4650 H 436.811 -1.01636 3.58782 0
M  V30 4651 N 438.996 -1.55193 0.274407 0
M  V30 4652 C 440.412 -1.59401 -0.0797543 0
M  V30 4653 C 440.612 -1.29162 -1.54659 0
M  V30 4654 O 439.668 -1.05215 -2.29534 0
M  V30 4655 C 440.981 -2.99257 0.294238 0
M  V30 4656 C 442.529 -3.12072 0.240796 0
M  V30 4657 C 443.004 -4.54194 0.589218 0
M  V30 4658 N 444.495 -4.60033 0.540744 0
M  V30 4659 C 445.23 -5.68027 0.783147 0
M  V30 4660 N 444.726 -6.8417 1.09013 0
M  V30 4661 N 446.519 -5.57572 0.711993 0
M  V30 4662 H 438.67 -1.73113 1.23067 0
M  V30 4663 H 440.933 -0.807197 0.497129 0
M  V30 4664 H 440.639 -3.26217 1.31435 0
M  V30 4665 H 440.513 -3.75427 -0.365281 0
M  V30 4666 H 442.9 -2.84877 -0.770024 0
M  V30 4667 H 442.981 -2.38117 0.934563 0
M  V30 4668 H 442.625 -4.82115 1.59772 0
M  V30 4669 H 442.555 -5.26448 -0.126331 0
M  V30 4670 H 445.046 -3.76599 0.313327 0
M  V30 4671 H 445.359 -7.6243 1.26178 0
M  V30 4672 H 443.704 -6.85787 1.12789 0
M  V30 4673 H 446.895 -4.65714 0.472014 0
M  V30 4674 H 447.068 -6.41659 0.90429 0
M  V30 4675 N 440.474 -0.00167713 -1.576 0
M  V30 4676 C 441.72 0.67819 -1.91761 0
M  V30 4677 C 442.075 1.71288 -0.876256 0
M  V30 4678 O 441.368 1.91276 0.111333 0
M  V30 4679 C 441.562 1.36189 -3.30435 0
M  V30 4680 C 441.391 0.394938 -4.47962 0
M  V30 4681 C 440.161 0.00472875 -5.053 0
M  V30 4682 C 442.359 -0.339521 -5.13178 0
M  V30 4683 N 440.341 -0.960257 -6.06343 0
M  V30 4684 C 441.712 -1.15914 -6.09068 0
M  V30 4685 C 443.767 -0.403177 -4.96265 0
M  V30 4686 C 442.47 -2.03661 -6.89866 0
M  V30 4687 C 444.496 -1.26788 -5.77649 0
M  V30 4688 C 443.858 -2.07535 -6.73134 0
M  V30 4689 H 439.957 0.221317 -0.750028 0
M  V30 4690 H 442.541 -0.0624182 -1.946 0
M  V30 4691 H 440.712 2.07278 -3.28467 0
M  V30 4692 H 442.444 1.99658 -3.52021 0
M  V30 4693 H 439.199 0.373452 -4.72125 0
M  V30 4694 H 439.623 -1.43817 -6.61548 0
M  V30 4695 H 444.265 0.206818 -4.22294 0
M  V30 4696 H 441.983 -2.65727 -7.63161 0
M  V30 4697 H 445.569 -1.32107 -5.66603 0
M  V30 4698 H 444.449 -2.73363 -7.35012 0
M  V30 4699 N 441.952 1.55251 0.271103 0
M  V30 4700 C 443.229 1.66664 1.02384 0
M  V30 4701 C 443.609 0.534363 2.04225 0
M  V30 4702 O 442.957 -0.465337 2.23712 0
M  V30 4703 C 443.167 3.05961 1.67895 0
M  V30 4704 C 444.515 3.63772 2.18986 0
M  V30 4705 O 445.539 3.08606 1.77878 0
M  V30 4706 O 444.398 4.60429 2.94393 0
M  V30 4707 H 441.492 0.676957 0.475035 0
M  V30 4708 H 444.038 1.67589 0.26681 0
M  V30 4709 H 442.81 3.79815 0.941071 0
M  V30 4710 H 442.433 3.08943 2.5028 0
M  V30 4711 N 443.43 -0.535701 1.48216 0
M  V30 4712 C 444.34 -1.66785 1.64985 0
M  V30 4713 C 445.356 -1.65654 0.532414 0
M  V30 4714 O 446.532 -1.8471 0.80275 0
M  V30 4715 C 443.597 -3.0326 1.68031 0
M  V30 4716 C 442.658 -3.1529 2.9136 0
M  V30 4717 C 441.891 -4.45255 2.94252 0
M  V30 4718 O 442.114 -5.32011 2.05719 0
M  V30 4719 O 441.048 -4.6153 3.86359 0
M  V30 4720 H 444.874 -1.55576 2.60825 0
M  V30 4721 H 442.459 -0.70815 1.31551 0
M  V30 4722 H 444.341 -3.84436 1.72589 0
M  V30 4723 H 443.016 -3.14805 0.753628 0
M  V30 4724 H 441.923 -2.3343 2.92337 0
M  V30 4725 H 443.256 -3.08658 3.83394 0
M  V30 4726 N 444.908 -1.36708 -0.784132 0
M  V30 4727 C 445.838 -1.34153 -1.91116 0
M  V30 4728 C 446.819 -0.212121 -1.68772 0
M  V30 4729 O 448.004 -0.410581 -1.8981 0
M  V30 4730 C 445.134 -1.13535 -3.28218 0
M  V30 4731 C 444.088 -2.23356 -3.65097 0
M  V30 4732 C 443.414 -1.87875 -5.00607 0
M  V30 4733 C 444.714 -3.65473 -3.73131 0
M  V30 4734 H 446.408 -2.28459 -1.93512 0
M  V30 4735 H 443.954 -1.09973 -0.929618 0
M  V30 4736 H 445.907 -1.10381 -4.06687 0
M  V30 4737 H 444.631 -0.156804 -3.26223 0
M  V30 4738 H 443.29 -2.25645 -2.88929 0
M  V30 4739 H 442.938 -0.885814 -4.95139 0
M  V30 4740 H 442.638 -2.61406 -5.26252 0
M  V30 4741 H 444.162 -1.86286 -5.81489 0
M  V30 4742 H 445.576 -3.65382 -4.41779 0
M  V30 4743 H 443.973 -4.37953 -4.10265 0
M  V30 4744 H 445.043 -3.99995 -2.74102 0
M  V30 4745 N 446.386 1.0089 -1.21074 0
M  V30 4746 C 447.316 2.1145 -0.990523 0
M  V30 4747 C 448.297 1.69897 0.0831699 0
M  V30 4748 O 449.482 1.94052 -0.0758853 0
M  V30 4749 C 446.612 3.42914 -0.550177 0
M  V30 4750 C 445.566 3.98244 -1.56799 0
M  V30 4751 C 444.892 5.25568 -0.984013 0
M  V30 4752 C 446.192 4.30752 -2.95381 0
M  V30 4753 H 447.886 2.3013 -1.91521 0
M  V30 4754 H 445.432 1.10592 -0.92225 0
M  V30 4755 H 447.385 4.19653 -0.383305 0
M  V30 4756 H 446.109 3.24014 0.41015 0
M  V30 4757 H 444.768 3.23621 -1.72236 0
M  V30 4758 H 444.416 5.02998 -0.0155216 0
M  V30 4759 H 444.116 5.63551 -1.66384 0
M  V30 4760 H 445.64 6.04955 -0.828378 0
M  V30 4761 H 447.054 4.98349 -2.8341 0
M  V30 4762 H 445.451 4.79869 -3.60341 0
M  V30 4763 H 446.521 3.39192 -3.46521 0
M  V30 4764 N 447.864 1.01787 1.20321 0
M  V30 4765 C 449.28 0.732951 1.41774 0
M  V30 4766 C 449.48 -0.686883 1.89431 0
M  V30 4767 O 448.536 -1.45446 2.06402 0
M  V30 4768 C 449.849 1.75973 2.43832 0
M  V30 4769 C 451.397 1.77802 2.57596 0
M  V30 4770 C 451.872 2.7941 3.62897 0
M  V30 4771 N 453.363 2.78157 3.70382 0
M  V30 4772 C 454.098 3.53434 4.51521 0
M  V30 4773 N 453.594 4.38392 5.36455 0
M  V30 4774 N 455.387 3.42026 4.46066 0
M  V30 4775 H 447.538 1.93447 0.877035 0
M  V30 4776 H 449.801 0.835712 0.447536 0
M  V30 4777 H 449.507 2.77699 2.15815 0
M  V30 4778 H 449.381 1.57292 3.4284 0
M  V30 4779 H 451.768 0.767602 2.84942 0
M  V30 4780 H 451.849 2.00557 1.58779 0
M  V30 4781 H 451.493 3.80616 3.36295 0
M  V30 4782 H 451.423 2.53916 4.61339 0
M  V30 4783 H 453.914 2.16531 3.09714 0
M  V30 4784 H 454.227 4.92596 5.95457 0
M  V30 4785 H 452.572 4.4247 5.35953 0
M  V30 4786 H 455.763 2.75075 3.78749 0
M  V30 4787 H 455.936 4.00946 5.09064 0
M  V30 4788 N 449.342 -1.36122 0.79427 0
M  V30 4789 C 450.289 -2.29982 0.194101 0
M  V30 4790 C 451.259 -1.52214 -0.664833 0
M  V30 4791 O 452.444 -1.80702 -0.612498 0
M  V30 4792 C 449.584 -3.38706 -0.661244 0
M  V30 4793 C 448.697 -4.31456 0.216766 0
M  V30 4794 C 447.832 -5.27265 -0.645411 0
M  V30 4795 C 446.871 -6.11653 0.233756 0
M  V30 4796 N 446.008 -6.99636 -0.587682 0
M  V30 4797 H 450.848 -2.80722 0.999965 0
M  V30 4798 H 448.385 -1.38172 0.504677 0
M  V30 4799 H 450.343 -4.00394 -1.17219 0
M  V30 4800 H 448.973 -2.89274 -1.43249 0
M  V30 4801 H 448.025 -3.7088 0.845724 0
M  V30 4802 H 449.337 -4.90724 0.893973 0
M  V30 4803 H 448.491 -5.94266 -1.22198 0
M  V30 4804 H 447.23 -4.68463 -1.35623 0
M  V30 4805 H 446.235 -5.4361 0.82269 0
M  V30 4806 H 447.46 -6.72531 0.942247 0
M  V30 4807 H 445.406 -6.43337 -1.2827 0
M  V30 4808 H 445.323 -7.55993 0.0317402 0
M  V30 4809 H 446.591 -7.71001 -1.14792 0
M  V30 4810 N 450.82 -0.546701 -1.47814 0
M  V30 4811 C 452.097 0.0464413 -1.95545 0
M  V30 4812 C 452.477 1.4962 -1.48919 0
M  V30 4813 O 451.825 2.16752 -0.723232 0
M  V30 4814 C 452.035 -0.0881298 -3.48889 0
M  V30 4815 C 453.383 0.0626059 -4.24554 0
M  V30 4816 O 454.407 -0.0151555 -3.56197 0
M  V30 4817 O 453.266 0.228071 -5.46024 0
M  V30 4818 H 450.36 0.0700004 -0.824032 0
M  V30 4819 H 452.906 -0.612482 -1.58262 0
M  V30 4820 H 451.678 -1.09737 -3.75597 0
M  V30 4821 H 451.301 0.608886 -3.9291 0
M  V30 4822 N 452.299 1.55045 -0.282633 0
M  V30 4823 C 453.527 2.04168 0.33512 0
M  V30 4824 C 453.942 1.16071 1.48906 0
M  V30 4825 O 453.299 0.182391 1.81586 0
M  V30 4826 C 453.35 3.52332 0.808957 0
M  V30 4827 O 453.071 4.37078 -0.299038 0
M  V30 4828 C 454.572 4.17375 1.49375 0
M  V30 4829 H 451.792 0.666744 0.0754543 0
M  V30 4830 H 454.336 2.00205 -0.416918 0
M  V30 4831 H 452.491 3.56715 1.51106 0
M  V30 4832 H 452.905 5.24458 0.0665514 0
M  V30 4833 H 454.379 5.22627 1.77664 0
M  V30 4834 H 454.856 3.65999 2.42778 0
M  V30 4835 H 455.462 4.17016 0.835305 0
M  V30 4836 N 453.777 0.010035 1.57597 0
M  V30 4837 C 455.002 -0.687021 1.95691 0
M  V30 4838 C 455.427 -1.65952 0.885519 0
M  V30 4839 O 454.785 -1.80633 -0.15543 0
M  V30 4840 C 454.833 -1.3864 3.32884 0
M  V30 4841 O 453.937 -2.50115 3.27897 0
M  V30 4842 H 453.278 -0.181989 0.638573 0
M  V30 4843 H 455.808 0.0662122 2.04493 0
M  V30 4844 H 455.818 -1.74754 3.6868 0
M  V30 4845 H 454.493 -0.673411 4.10412 0
M  V30 4846 H 453.07 -2.16253 3.03791 0
M  V30 4847 N 455.255 -1.55392 -0.262866 0
M  V30 4848 C 456.503 -1.76127 -0.991147 0
M  V30 4849 C 456.824 -0.571083 -1.8645 0
M  V30 4850 O 456.094 0.413698 -1.91482 0
M  V30 4851 H 454.674 -0.649528 -0.368948 0
M  V30 4852 H 457.336 -1.9281 -0.284655 0
M  V30 4853 H 456.432 -2.6663 -1.62219 0
M  V30 4854 N 456.733 0.527833 -1.48498 0
M  V30 4855 C 457.68 1.6322 -1.6318 0
M  V30 4856 C 458.65 1.59199 -0.473815 0
M  V30 4857 O 459.835 1.77591 -0.697563 0
M  V30 4858 C 456.975 3.01474 -1.67951 0
M  V30 4859 C 456.088 3.15713 -2.94871 0
M  V30 4860 C 455.223 4.44539 -2.90789 0
M  V30 4861 C 454.262 4.52315 -4.12404 0
M  V30 4862 N 453.399 5.72533 -4.06387 0
M  V30 4863 H 458.239 1.50011 -2.57489 0
M  V30 4864 H 455.776 0.730298 -1.27691 0
M  V30 4865 H 457.734 3.81572 -1.68698 0
M  V30 4866 H 456.364 3.1345 -0.771306 0
M  V30 4867 H 455.416 2.28854 -3.03859 0
M  V30 4868 H 456.728 3.1732 -3.8485 0
M  V30 4869 H 455.882 5.3293 -2.89949 0
M  V30 4870 H 454.621 4.45457 -1.98542 0
M  V30 4871 H 453.626 3.62331 -4.13517 0
M  V30 4872 H 454.851 4.53134 -5.05812 0
M  V30 4873 H 452.797 5.74344 -3.16962 0
M  V30 4874 H 452.714 5.75643 -4.90073 0
M  V30 4875 H 453.982 6.63204 -4.0961 0
M  V30 4876 N 458.211 1.37122 0.776871 0
M  V30 4877 C 459.141 1.35164 1.90402 0
M  V30 4878 C 460.122 0.221069 1.68657 0
M  V30 4879 O 461.307 0.420642 1.8959 0
M  V30 4880 C 458.437 1.15274 3.27611 0
M  V30 4881 C 457.391 2.25289 3.63908 0
M  V30 4882 C 456.717 1.90527 4.99603 0
M  V30 4883 C 458.017 3.67446 3.71188 0
M  V30 4884 H 459.711 2.29482 1.92297 0
M  V30 4885 H 457.257 1.10465 0.923773 0
M  V30 4886 H 459.21 1.12536 4.06096 0
M  V30 4887 H 457.934 0.174102 3.26136 0
M  V30 4888 H 456.593 2.27174 2.87728 0
M  V30 4889 H 456.241 0.91206 4.94662 0
M  V30 4890 H 455.941 2.64193 5.24858 0
M  V30 4891 H 457.465 1.89367 5.80493 0
M  V30 4892 H 458.879 3.67719 4.39836 0
M  V30 4893 H 457.276 4.40123 4.07936 0
M  V30 4894 H 458.346 4.01443 2.71977 0
M  V30 4895 N 459.689 -1.00246 1.21608 0
M  V30 4896 C 460.938 -1.73476 1.02902 0
M  V30 4897 C 461.251 -1.90643 -0.437561 0
M  V30 4898 O 462.457 -2.61105 -0.74407 0
M  V30 4899 C 460.913 -3.12079 1.79261 0
M  V30 4900 C 460.521 -3.02877 3.30106 0
M  V30 4901 C 462.265 -3.89421 1.68972 0
M  V30 4902 C 460.172 -4.36575 3.98944 0
M  V30 4903 H 459.102 -0.650408 0.381425 0
M  V30 4904 H 461.753 -1.11985 1.45367 0
M  V30 4905 H 460.135 -3.74196 1.2959 0
M  V30 4906 H 461.309 -2.49983 3.87098 0
M  V30 4907 H 459.624 -2.39022 3.40965 0
M  V30 4908 H 462.221 -4.88362 2.17731 0
M  V30 4909 H 462.564 -4.1122 0.648397 0
M  V30 4910 H 463.097 -3.33963 2.16133 0
M  V30 4911 H 459.836 -4.19978 5.03288 0
M  V30 4912 H 459.356 -4.8942 3.4674 0
M  V30 4913 H 461.035 -5.05364 4.04 0
M  V30 4914 N 461.167 -1.02423 -1.1978 0
M  V30 4915 C 462.099 -0.559152 -2.22275 0
M  V30 4916 C 463.112 0.36251 -1.58713 0
M  V30 4917 O 464.301 0.159641 -1.77785 0
M  V30 4918 C 461.401 0.205094 -3.38279 0
M  V30 4919 C 460.574 -0.720361 -4.31427 0
M  V30 4920 C 459.633 -0.00234368 -5.262 0
M  V30 4921 O 458.659 -0.627378 -5.65732 0
M  V30 4922 N 459.861 1.26996 -5.66438 0
M  V30 4923 H 462.626 -1.44064 -2.62804 0
M  V30 4924 H 460.187 -0.902692 -1.34399 0
M  V30 4925 H 462.179 0.694868 -3.9869 0
M  V30 4926 H 460.749 0.987947 -2.96578 0
M  V30 4927 H 459.969 -1.39031 -3.68869 0
M  V30 4928 H 461.257 -1.3495 -4.90577 0
M  V30 4929 H 460.655 1.79858 -5.36347 0
M  V30 4930 H 459.212 1.70432 -6.29123 0
M  V30 4931 N 462.645 1.35699 -0.801477 0
M  V30 4932 C 463.575 2.32436 -0.222658 0
M  V30 4933 C 464.556 1.5723 0.649057 0
M  V30 4934 O 465.741 1.85324 0.580387 0
M  V30 4935 C 462.871 3.41469 0.633719 0
M  V30 4936 C 461.825 4.27774 -0.139083 0
M  V30 4937 C 461.151 5.28082 0.838666 0
M  V30 4938 C 462.451 5.04946 -1.33517 0
M  V30 4939 H 464.145 2.81094 -1.03086 0
M  V30 4940 H 461.691 1.35146 -0.497155 0
M  V30 4941 H 463.644 4.08143 1.04868 0
M  V30 4942 H 462.368 2.91408 1.47475 0
M  V30 4943 H 461.027 3.62673 -0.535156 0
M  V30 4944 H 460.675 4.7429 1.67506 0
M  V30 4945 H 460.375 5.86695 0.32594 0
M  V30 4946 H 461.899 5.97628 1.25194 0
M  V30 4947 H 463.313 5.64593 -0.995349 0
M  V30 4948 H 461.71 5.7303 -1.78202 0
M  V30 4949 H 462.78 4.35886 -2.12442 0
M  V30 4950 N 464.123 0.554532 1.47522 0
M  V30 4951 C 465.056 -0.242442 2.26908 0
M  V30 4952 C 466.034 -0.922722 1.33883 0
M  V30 4953 O 467.218 -0.942244 1.63261 0
M  V30 4954 C 464.345 -1.34525 3.10839 0
M  V30 4955 C 463.391 -0.773805 4.19422 0
M  V30 4956 S 464.224 0.377525 5.34168 0
M  V30 4957 C 465.38 -0.727164 6.21662 0
M  V30 4958 H 465.613 0.431218 2.94156 0
M  V30 4959 H 463.146 0.3408 1.50592 0
M  V30 4960 H 465.104 -1.97683 3.59766 0
M  V30 4961 H 463.765 -1.99073 2.42958 0
M  V30 4962 H 462.958 -1.60187 4.77866 0
M  V30 4963 H 462.56 -0.218448 3.73361 0
M  V30 4964 H 464.852 -1.61992 6.57849 0
M  V30 4965 H 465.795 -0.180135 7.07871 0
M  V30 4966 H 466.203 -1.01863 5.55233 0
M  V30 4967 N 465.601 -1.54893 0.290851 0
M  V30 4968 C 466.549 -2.24579 -0.605576 0
M  V30 4969 C 467.543 -1.24824 -1.14522 0
M  V30 4970 O 468.749 -1.42706 -1.09704 0
M  V30 4971 H 465.124 -0.720946 -0.213872 0
M  V30 4972 H 467.095 -2.984 0.0048173 0
M  V30 4973 C 465.844 -2.99224 -1.77088 0
M  V30 4974 H 465.167 -3.75782 -1.36484 0
M  V30 4975 H 466.607 -3.51281 -2.3744 0
M  V30 4976 C 465.066 -2.05602 -2.66888 0
M  V30 4977 O 465.596 -1.61745 -3.67698 0
M  V30 4978 N 463.802 -1.71771 -2.34399 0
M  V30 4979 H 463.349 -2.07633 -1.52468 0
M  V30 4980 H 463.307 -1.09403 -2.94751 0
M  V30 4981 N 467.08 -0.0183926 -1.57589 0
M  V30 4982 C 467.99 0.982943 -2.13015 0
M  V30 4983 C 469.006 1.36443 -1.07979 0
M  V30 4984 O 470.182 1.44802 -1.3998 0
M  V30 4985 C 467.247 2.25024 -2.63752 0
M  V30 4986 C 466.308 1.93018 -3.83461 0
M  V30 4987 C 465.541 3.13706 -4.31769 0
M  V30 4988 O 465.764 4.2601 -3.79305 0
M  V30 4989 O 464.698 2.96629 -5.23732 0
M  V30 4990 H 468.524 0.541709 -2.9883 0
M  V30 4991 H 466.109 0.201565 -1.48034 0
M  V30 4992 H 467.991 2.99441 -2.96502 0
M  V30 4993 H 466.666 2.68349 -1.81026 0
M  V30 4994 H 465.573 1.16019 -3.55655 0
M  V30 4995 H 466.906 1.54516 -4.67317 0
M  V30 4996 N 468.558 1.5553 0.254621 0
M  V30 4997 C 469.786 1.81046 1.00149 0
M  V30 4998 C 470.201 0.593047 1.79244 0
M  V30 4999 O 469.558 -0.438196 1.77161 0
M  V30 5000 C 469.609 3.04684 1.94551 0
M  V30 5001 O 469.33 4.21725 1.18658 0
M  V30 5002 C 470.831 3.42943 2.80901 0
M  V30 5003 H 468.051 0.602653 0.295044 0
M  V30 5004 H 470.595 2.02576 0.279842 0
M  V30 5005 H 468.75 2.85226 2.62154 0
M  V30 5006 H 469.164 4.91746 1.82445 0
M  V30 5007 H 470.638 4.32576 3.42902 0
M  V30 5008 H 471.115 2.63176 3.51617 0
M  V30 5009 H 471.721 3.64724 2.18762 0
M  V30 5010 N 470.036 -0.519951 1.48776 0
M  V30 5011 C 471.282 -1.27711 1.57536 0
M  V30 5012 C 471.615 -1.92547 0.252866 0
M  V30 5013 O 470.89 -1.7979 -0.742021 0
M  V30 5014 C 471.173 -2.35875 2.72094 0
M  V30 5015 C 471.026 -1.75664 4.1408 0
M  V30 5016 C 472.345 -3.37575 2.82367 0
M  V30 5017 H 469.464 -0.462971 0.573434 0
M  V30 5018 H 472.106 -0.578194 1.80989 0
M  V30 5019 H 470.256 -2.95488 2.52228 0
M  V30 5020 H 471.928 -1.20025 4.45412 0
M  V30 5021 H 470.171 -1.06154 4.20611 0
M  V30 5022 H 470.842 -2.54029 4.90075 0
M  V30 5023 H 473.318 -2.87929 3.00393 0
M  V30 5024 H 472.194 -4.1064 3.64233 0
M  V30 5025 H 472.455 -3.98743 1.90936 0
M  V30 5026 N 471.514 -1.37532 -0.769588 0
M  V30 5027 C 472.791 -1.23392 -1.51768 0
M  V30 5028 C 473.171 0.17157 -2.10402 0
M  V30 5029 O 472.519 1.17943 -1.95708 0
M  V30 5030 C 472.729 -2.33163 -2.59685 0
M  V30 5031 C 474.077 -2.70809 -3.27028 0
M  V30 5032 O 475.101 -2.32355 -2.69981 0
M  V30 5033 O 473.96 -3.37066 -4.30173 0
M  V30 5034 H 471.054 -0.481617 -0.67229 0
M  V30 5035 H 473.6 -1.49318 -0.806368 0
M  V30 5036 H 472.372 -3.27273 -2.14494 0
M  V30 5037 H 471.995 -2.08713 -3.38415 0
M  V30 5038 N 472.992 0.995999 -1.22138 0
M  V30 5039 C 474.24 1.73167 -1.042 0
M  V30 5040 C 474.561 1.90329 0.42423 0
M  V30 5041 O 473.831 1.4607 1.30539 0
M  V30 5042 H 472.411 0.641593 -0.38258 0
M  V30 5043 H 475.073 1.19974 -1.53598 0
M  V30 5044 H 474.169 2.72734 -1.51731 0
M  V30 5045 N 474.47 1.03057 1.19235 0
M  V30 5046 C 475.747 0.642608 1.84743 0
M  V30 5047 C 476.127 -0.878577 1.91948 0
M  V30 5048 O 475.475 -1.77597 1.43776 0
M  V30 5049 C 475.685 1.30665 3.23616 0
M  V30 5050 C 477.033 1.43098 3.9976 0
M  V30 5051 O 478.057 1.26396 3.3302 0
M  V30 5052 O 476.916 1.70223 5.19313 0
M  V30 5053 H 474.01 0.223573 0.796206 0
M  V30 5054 H 476.556 1.12883 1.26711 0
M  V30 5055 H 475.328 2.34544 3.13217 0
M  V30 5056 H 474.951 0.808405 3.89295 0
M  V30 5057 N 475.948 -1.35272 0.808662 0
M  V30 5058 C 477.178 -2.02652 0.401953 0
M  V30 5059 C 477.586 -1.6108 -0.992462 0
M  V30 5060 O 476.929 -0.804984 -1.65123 0
M  V30 5061 C 476.991 -3.57174 0.408246 0
M  V30 5062 C 476.655 -4.22019 1.75353 0
M  V30 5063 C 477.652 -4.43552 2.71215 0
M  V30 5064 C 475.337 -4.59093 2.03811 0
M  V30 5065 C 477.331 -5.01264 3.93717 0
M  V30 5066 C 475.018 -5.16519 3.26576 0
M  V30 5067 C 476.016 -5.37546 4.21347 0
M  V30 5068 O 475.704 -5.93761 5.41944 0
M  V30 5069 H 475.436 -0.656495 0.161216 0
M  V30 5070 H 477.99 -1.73829 1.0942 0
M  V30 5071 H 476.22 -3.85197 -0.340608 0
M  V30 5072 H 477.909 -4.05893 0.0235623 0
M  V30 5073 H 478.675 -4.15288 2.50522 0
M  V30 5074 H 474.554 -4.42039 1.30854 0
M  V30 5075 H 478.098 -5.17592 4.67701 0
M  V30 5076 H 473.995 -5.4421 3.47139 0
M  V30 5077 H 474.763 -6.1221 5.43269 0
M  V30 5078 N 477.426 -0.562348 -1.47226 0
M  V30 5079 C 478.358 0.220011 -2.28142 0
M  V30 5080 C 479.371 0.874596 -1.37312 0
M  V30 5081 O 480.56 0.747583 -1.62091 0
M  V30 5082 C 477.66 1.32953 -3.11732 0
M  V30 5083 C 476.833 0.770759 -4.30556 0
M  V30 5084 C 475.892 1.76541 -4.95701 0
M  V30 5085 O 474.918 1.3095 -5.53932 0
M  V30 5086 N 476.12 3.09896 -4.90861 0
M  V30 5087 H 478.885 -0.474107 -2.95926 0
M  V30 5088 H 476.446 -0.398761 -1.56912 0
M  V30 5089 H 478.438 1.99378 -3.5218 0
M  V30 5090 H 477.008 1.92681 -2.46156 0
M  V30 5091 H 476.228 -0.0704056 -3.94137 0
M  V30 5092 H 477.516 0.376872 -5.07402 0
M  V30 5093 H 476.914 3.49577 -4.44761 0
M  V30 5094 H 475.471 3.71865 -5.35313 0
M  V30 5095 N 478.904 1.54736 -0.299062 0
M  V30 5096 C 480.132 2.04512 0.313447 0
M  V30 5097 C 480.547 1.17643 1.47667 0
M  V30 5098 O 479.904 0.20164 1.81383 0
M  V30 5099 C 479.955 3.53171 0.771542 0
M  V30 5100 O 479.676 4.36736 -0.345379 0
M  V30 5101 C 481.177 4.18936 1.4494 0
M  V30 5102 H 478.397 0.667507 0.0683784 0
M  V30 5103 H 480.941 1.99752 -0.438129 0
M  V30 5104 H 479.096 3.58298 1.47314 0
M  V30 5105 H 479.51 5.24499 0.0109219 0
M  V30 5106 H 480.984 5.24482 1.72111 0
M  V30 5107 H 481.461 3.68554 2.38883 0
M  V30 5108 H 482.067 4.17879 0.791028 0
M  V30 5109 N 480.382 0.0267497 1.57577 0
M  V30 5110 C 481.629 -0.652404 1.91703 0
M  V30 5111 C 481.957 -1.72271 0.902936 0
M  V30 5112 O 481.212 -1.955 -0.0884843 0
M  V30 5113 C 481.511 -1.30914 3.3256 0
M  V30 5114 C 481.177 -0.369441 4.49384 0
M  V30 5115 C 479.839 -0.110791 4.81072 0
M  V30 5116 C 482.191 0.275971 5.20469 0
M  V30 5117 C 479.519 0.801116 5.81205 0
M  V30 5118 C 481.871 1.17592 6.21575 0
M  V30 5119 C 480.535 1.44348 6.51705 0
M  V30 5120 H 479.805 -0.238732 0.70149 0
M  V30 5121 H 482.452 0.0880091 1.91298 0
M  V30 5122 H 480.757 -2.12425 3.29216 0
M  V30 5123 H 482.454 -1.84115 3.56234 0
M  V30 5124 H 479.044 -0.581211 4.24641 0
M  V30 5125 H 483.228 0.0892 4.9622 0
M  V30 5126 H 478.484 1.01614 6.02897 0
M  V30 5127 H 482.658 1.68223 6.75777 0
M  V30 5128 H 480.285 2.15176 7.29111 0
M  V30 5129 N 481.861 -1.55662 -0.24637 0
M  V30 5130 C 482.808 -1.90361 -1.30504 0
M  V30 5131 C 483.778 -0.757905 -1.47801 0
M  V30 5132 O 484.963 -1.01161 -1.61775 0
M  V30 5133 C 482.103 -2.2042 -2.65535 0
M  V30 5134 C 481.216 -3.47799 -2.56242 0
M  V30 5135 C 480.351 -3.67426 -3.8363 0
M  V30 5136 C 479.39 -4.88403 -3.68956 0
M  V30 5137 N 478.527 -5.04548 -4.88237 0
M  V30 5138 H 483.367 -2.80645 -1.00213 0
M  V30 5139 H 480.904 -1.38924 -0.483577 0
M  V30 5140 H 482.862 -2.35853 -3.44135 0
M  V30 5141 H 481.492 -1.3334 -2.93973 0
M  V30 5142 H 480.544 -3.40694 -1.69208 0
M  V30 5143 H 481.856 -4.36544 -2.4131 0
M  V30 5144 H 481.01 -3.82821 -4.70673 0
M  V30 5145 H 479.749 -2.76914 -4.01459 0
M  V30 5146 H 478.754 -4.72984 -2.80296 0
M  V30 5147 H 479.979 -5.80375 -3.52621 0
M  V30 5148 H 477.925 -4.16974 -5.06427 0
M  V30 5149 H 477.842 -5.87384 -4.75937 0
M  V30 5150 H 479.11 -5.24355 -5.76777 0
M  V30 5151 N 483.339 0.512053 -1.4905 0
M  V30 5152 C 484.564 1.2959 -1.6193 0
M  V30 5153 C 484.989 1.85906 -0.286454 0
M  V30 5154 O 484.347 1.65312 0.744426 0
M  V30 5155 C 484.395 2.40987 -2.68249 0
M  V30 5156 O 483.499 3.44531 -2.26654 0
M  V30 5157 H 482.84 0.383053 -0.542371 0
M  V30 5158 H 485.37 0.614231 -1.95162 0
M  V30 5159 H 485.38 2.86913 -2.90078 0
M  V30 5160 H 484.055 1.99361 -3.65004 0
M  V30 5161 H 482.632 3.046 -2.15112 0
M  V30 5162 N 484.817 1.37938 0.762283 0
M  V30 5163 C 485.764 1.34467 1.87583 0
M  V30 5164 C 486.734 0.208633 1.64785 0
M  V30 5165 O 487.919 0.399494 1.86571 0
M  V30 5166 C 485.059 1.16692 3.24772 0
M  V30 5167 C 484.172 2.39608 3.59461 0
M  V30 5168 C 483.307 2.14631 4.85908 0
M  V30 5169 C 482.346 3.33364 5.13357 0
M  V30 5170 N 481.483 3.07877 6.30996 0
M  V30 5171 H 486.323 2.29669 1.89885 0
M  V30 5172 H 483.86 1.14116 0.928219 0
M  V30 5173 H 485.818 1.04405 4.03925 0
M  V30 5174 H 484.448 0.251333 3.2182 0
M  V30 5175 H 483.5 2.626 2.75219 0
M  V30 5176 H 484.812 3.28128 3.75678 0
M  V30 5177 H 483.966 1.99429 5.72986 0
M  V30 5178 H 482.705 1.23463 4.71814 0
M  V30 5179 H 481.71 3.49094 4.24751 0
M  V30 5180 H 482.935 4.25395 5.29354 0
M  V30 5181 H 480.881 2.19348 6.18241 0
M  V30 5182 H 480.798 3.89944 6.47673 0
M  V30 5183 H 482.066 2.96313 7.20985 0
M  V30 5184 N 486.295 -0.989507 1.22664 0
M  V30 5185 C 487.572 -1.70326 0.961688 0
M  V30 5186 C 487.952 -2.04537 -0.522279 0
M  V30 5187 O 487.3 -1.73136 -1.49118 0
M  V30 5188 C 487.51 -2.95135 1.86269 0
M  V30 5189 C 488.858 -3.67842 2.12078 0
M  V30 5190 O 489.882 -3.0515 1.83745 0
M  V30 5191 O 488.741 -4.80644 2.60083 0
M  V30 5192 H 485.835 -0.743589 0.361946 0
M  V30 5193 H 488.381 -1.04555 1.33665 0
M  V30 5194 H 487.153 -2.66382 2.8663 0
M  V30 5195 H 486.776 -3.68645 1.48952 0
M  V30 5196 N 487.773 -1.03688 -1.18687 0
M  V30 5197 C 489.021 -0.736572 -1.88199 0
M  V30 5198 C 489.342 0.737665 -1.80509 0
M  V30 5199 O 488.612 1.53204 -1.22088 0
M  V30 5200 H 487.192 -0.269466 -0.696704 0
M  V30 5201 H 489.854 -1.31282 -1.44052 0
M  V30 5202 H 488.95 -1.03802 -2.94332 0
M  V30 5203 N 489.251 1.34841 -0.815825 0
M  V30 5204 C 490.214 2.27959 -0.238185 0
M  V30 5205 C 491.214 1.49983 0.579816 0
M  V30 5206 O 492.404 1.69617 0.396953 0
M  V30 5207 C 489.536 3.34314 0.666876 0
M  V30 5208 H 490.729 2.80558 -1.05958 0
M  V30 5209 H 488.282 1.44852 -0.587156 0
M  V30 5210 H 489.017 2.86916 1.5116 0
M  V30 5211 H 488.802 3.92014 0.0819106 0
M  V30 5212 H 490.292 4.0379 1.06506 0
M  V30 5213 N 490.729 0.570148 1.46925 0
M  V30 5214 C 491.959 0.0561151 2.06524 0
M  V30 5215 C 492.367 -1.24874 1.42137 0
M  V30 5216 O 491.71 -1.76292 0.516417 0
M  V30 5217 C 491.772 -0.197035 3.5896 0
M  V30 5218 C 491.436 1.02033 4.45464 0
M  V30 5219 C 492.433 1.92921 4.82781 0
M  V30 5220 C 490.118 1.23864 4.86788 0
M  V30 5221 C 492.112 3.03999 5.60235 0
M  V30 5222 C 489.799 2.35249 5.64004 0
M  V30 5223 C 490.797 3.25146 6.0064 0
M  V30 5224 O 490.485 4.34598 6.76299 0
M  V30 5225 H 490.217 0.0487409 0.674241 0
M  V30 5226 H 492.771 0.786915 1.89728 0
M  V30 5227 H 491.001 -0.982299 3.74016 0
M  V30 5228 H 492.69 -0.658032 4.00531 0
M  V30 5229 H 493.456 1.77265 4.51444 0
M  V30 5230 H 489.335 0.54805 4.57731 0
M  V30 5231 H 492.879 3.74192 5.8875 0
M  V30 5232 H 488.776 2.50873 5.94755 0
M  V30 5233 H 489.544 4.32808 6.94708 0
M  V30 5234 N 492.207 -1.54576 0.307264 0
M  V30 5235 C 493.453 -2.0056 -0.300612 0
M  V30 5236 C 493.786 -1.1953 -1.53057 0
M  V30 5237 O 493.061 -0.27337 -1.92569 0
M  V30 5238 C 493.344 -3.54167 -0.650987 0
M  V30 5239 C 493.197 -4.45933 0.588539 0
M  V30 5240 C 494.516 -4.14645 -1.47506 0
M  V30 5241 H 491.635 -0.729075 -0.107788 0
M  V30 5242 H 494.277 -1.85286 0.420606 0
M  V30 5243 H 492.427 -3.67313 -1.26544 0
M  V30 5244 H 494.099 -4.44683 1.22697 0
M  V30 5245 H 492.342 -4.16274 1.22058 0
M  V30 5246 H 493.013 -5.51189 0.299153 0
M  V30 5247 H 495.489 -4.04973 -0.955821 0
M  V30 5248 H 494.365 -5.22269 -1.68899 0
M  V30 5249 H 494.626 -3.66921 -2.4662 0
M  V30 5250 N 493.685 -0.035106 -1.57561 0
M  V30 5251 C 495.101 0.321334 -1.56332 0
M  V30 5252 C 495.301 1.72509 -1.04129 0
M  V30 5253 O 494.357 2.4287 -0.690694 0
M  V30 5254 C 495.67 0.164469 -3.0025 0
M  V30 5255 C 497.218 0.236786 -3.12103 0
M  V30 5256 C 497.693 0.10864 -4.57871 0
M  V30 5257 N 499.184 0.165433 -4.62904 0
M  V30 5258 C 499.919 0.0901506 -5.73329 0
M  V30 5259 N 499.415 -0.0365606 -6.9279 0
M  V30 5260 N 501.208 0.144572 -5.61914 0
M  V30 5261 H 493.359 -0.952976 -1.89821 0
M  V30 5262 H 495.622 -0.368537 -0.873432 0
M  V30 5263 H 495.328 -0.802746 -3.42416 0
M  V30 5264 H 495.202 0.932194 -3.655 0
M  V30 5265 H 497.589 1.19446 -2.69845 0
M  V30 5266 H 497.67 -0.561419 -2.49563 0
M  V30 5267 H 497.314 -0.845644 -5.00811 0
M  V30 5268 H 497.244 0.925786 -5.18398 0
M  V30 5269 H 499.735 0.263269 -3.76982 0
M  V30 5270 H 500.048 -0.0871487 -7.72751 0
M  V30 5271 H 498.393 -0.0714256 -6.94963 0
M  V30 5272 H 501.584 0.242006 -4.67474 0
M  V30 5273 H 501.757 0.0824413 -6.47948 0
M  V30 5274 N 495.163 1.55791 0.238111 0
M  V30 5275 C 496.073 1.94196 1.31625 0
M  V30 5276 C 497.089 0.843545 1.52185 0
M  V30 5277 O 498.265 1.1457 1.65637 0
M  V30 5278 C 495.33 2.2365 2.64918 0
M  V30 5279 C 494.391 3.46971 2.52804 0
M  V30 5280 C 493.624 3.7501 3.79741 0
M  V30 5281 O 493.847 3.04982 4.82019 0
M  V30 5282 O 492.781 4.68525 3.77846 0
M  V30 5283 H 496.607 2.86044 1.02043 0
M  V30 5284 H 494.192 1.42786 0.439603 0
M  V30 5285 H 496.074 2.43863 3.4367 0
M  V30 5286 H 494.749 1.34979 2.94215 0
M  V30 5287 H 493.656 3.32055 1.72309 0
M  V30 5288 H 494.989 4.35971 2.28451 0
M  V30 5289 N 496.642 -0.504142 1.49319 0
M  V30 5290 C 497.592 -1.60284 1.62151 0
M  V30 5291 C 498.576 -1.53657 0.477315 0
M  V30 5292 O 499.768 -1.6124 0.730108 0
M  V30 5293 C 496.897 -2.98909 1.68844 0
M  V30 5294 C 495.983 -3.10544 2.8883 0
M  V30 5295 N 496.374 -2.92078 4.12946 0
M  V30 5296 C 494.672 -3.4164 2.86702 0
M  V30 5297 C 495.373 -3.07812 4.93585 0
M  V30 5298 N 494.349 -3.36549 4.26891 0
M  V30 5299 H 498.151 -1.44656 2.55835 0
M  V30 5300 H 495.665 -0.710198 1.46048 0
M  V30 5301 H 497.662 -3.77865 1.76134 0
M  V30 5302 H 496.322 -3.15609 0.762943 0
M  V30 5303 H 497.333 -2.68316 4.42975 0
M  V30 5304 H 494.01 -3.64537 2.03517 0
M  V30 5305 H 495.4 -2.98054 6.02174 0
M  V30 5306 N 498.12 -1.38341 -0.754957 0
M  V30 5307 C 499.367 -1.34473 -1.51404 0
M  V30 5308 C 499.695 0.0656458 -1.94389 0
M  V30 5309 O 498.95 1.04244 -1.65625 0
M  V30 5310 C 499.249 -2.2452 -2.78075 0
M  V30 5311 C 498.915 -3.72512 -2.54059 0
M  V30 5312 C 497.577 -4.1284 -2.47218 0
M  V30 5313 C 499.929 -4.66197 -2.33044 0
M  V30 5314 C 497.257 -5.44945 -2.17376 0
M  V30 5315 C 499.609 -5.98558 -2.04723 0
M  V30 5316 C 498.273 -6.37972 -1.96337 0
M  V30 5317 H 497.543 -0.492072 -0.554027 0
M  V30 5318 H 500.19 -1.70687 -0.868223 0
M  V30 5319 H 498.495 -1.81357 -3.473 0
M  V30 5320 H 500.192 -2.18832 -3.36026 0
M  V30 5321 H 496.782 -3.40538 -2.60253 0
M  V30 5322 H 500.966 -4.35888 -2.37309 0
M  V30 5323 H 496.222 -5.74426 -2.09391 0
M  V30 5324 H 500.396 -6.70693 -1.87465 0
M  V30 5325 H 498.023 -7.40258 -1.72978 0
M  V30 5326 N 499.598 0.982988 -1.23187 0
M  V30 5327 C 500.845 1.72392 -1.06241 0
M  V30 5328 C 501.173 1.9032 0.40108 0
M  V30 5329 O 500.428 1.45084 1.31336 0
M  V30 5330 C 500.727 3.12736 -1.73006 0
M  V30 5331 C 500.393 3.14695 -3.22921 0
M  V30 5332 C 499.055 3.14937 -3.63824 0
M  V30 5333 C 501.407 3.10211 -4.1883 0
M  V30 5334 C 498.735 3.08408 -4.99101 0
M  V30 5335 C 501.087 3.05224 -5.54095 0
M  V30 5336 C 499.751 3.03787 -5.94365 0
M  V30 5337 H 499.021 0.630829 -0.388762 0
M  V30 5338 H 501.668 1.15053 -1.53085 0
M  V30 5339 H 499.973 3.73446 -1.18514 0
M  V30 5340 H 501.67 3.68828 -1.57374 0
M  V30 5341 H 498.26 3.15262 -2.90358 0
M  V30 5342 H 502.444 3.09166 -3.8824 0
M  V30 5343 H 497.7 3.05646 -5.29519 0
M  V30 5344 H 501.874 3.00712 -6.28128 0
M  V30 5345 H 499.501 2.98483 -6.99151 0
M  V30 5346 N 501.076 1.04316 1.18135 0
M  V30 5347 C 502.324 0.746542 1.87806 0
M  V30 5348 C 502.645 -0.728082 1.80898 0
M  V30 5349 O 501.915 -1.52554 1.22899 0
M  V30 5350 H 500.495 0.273157 0.695265 0
M  V30 5351 H 503.157 1.32044 1.43354 0
M  V30 5352 H 502.253 1.05362 2.93778 0
M  V30 5353 N 502.554 -1.34406 0.822964 0
M  V30 5354 C 503.501 -2.29519 0.24284 0
M  V30 5355 C 504.471 -1.5359 -0.632397 0
M  V30 5356 O 505.656 -1.8196 -0.57403 0
M  V30 5357 C 502.796 -3.40032 -0.58925 0
M  V30 5358 C 501.909 -4.30899 0.308236 0
M  V30 5359 C 501.044 -5.28515 -0.533425 0
M  V30 5360 C 500.083 -6.1102 0.363444 0
M  V30 5361 N 499.22 -7.00725 -0.439147 0
M  V30 5362 H 504.06 -2.78537 1.05929 0
M  V30 5363 H 501.597 -1.3707 0.533872 0
M  V30 5364 H 503.555 -4.0279 -1.087 0
M  V30 5365 H 502.185 -2.92248 -1.37081 0
M  V30 5366 H 501.237 -3.69002 0.924203 0
M  V30 5367 H 502.549 -4.88717 0.997862 0
M  V30 5368 H 501.703 -5.96725 -1.09565 0
M  V30 5369 H 500.442 -4.71235 -1.25656 0
M  V30 5370 H 499.447 -5.41743 0.937812 0
M  V30 5371 H 500.672 -6.70381 1.08469 0
M  V30 5372 H 498.618 -6.45913 -1.14595 0
M  V30 5373 H 498.535 -7.55756 0.19209 0
M  V30 5374 H 499.803 -7.73263 -0.984124 0
M  V30 5375 N 504.032 -0.577932 -1.46621 0
M  V30 5376 C 505.262 -0.0670668 -2.06491 0
M  V30 5377 C 505.67 1.24119 -1.42798 0
M  V30 5378 O 505.013 1.76016 -0.525759 0
M  V30 5379 C 505.075 0.177995 -3.59059 0
M  V30 5380 C 504.739 -1.04394 -4.44917 0
M  V30 5381 C 505.736 -1.95479 -4.81751 0
M  V30 5382 C 503.421 -1.26444 -4.86125 0
M  V30 5383 C 505.415 -3.06965 -5.58615 0
M  V30 5384 C 503.102 -2.38237 -5.62749 0
M  V30 5385 C 504.1 -3.28327 -5.98908 0
M  V30 5386 O 503.788 -4.38179 -6.73984 0
M  V30 5387 H 503.52 -0.0523159 -0.673973 0
M  V30 5388 H 506.074 -0.796966 -1.89308 0
M  V30 5389 H 504.304 0.962451 -3.74531 0
M  V30 5390 H 505.993 0.636782 -4.00874 0
M  V30 5391 H 506.759 -1.79657 -4.50498 0
M  V30 5392 H 502.638 -0.572316 -4.57434 0
M  V30 5393 H 506.182 -3.77309 -5.86757 0
M  V30 5394 H 502.079 -2.54023 -5.93416 0
M  V30 5395 H 502.847 -4.36486 -6.92403 0
M  V30 5396 N 505.51 1.54411 -0.315457 0
M  V30 5397 C 506.921 1.85885 0.174265 0
M  V30 5398 C 507.272 1.23723 1.52273 0
M  V30 5399 O 506.397 0.540246 2.09548 0
M  V30 5400 C 506.992 3.37257 0.322981 0
M  V30 5401 C 505.551 3.68711 0.756922 0
M  V30 5402 C 504.698 2.77013 -0.126195 0
M  V30 5403 H 507.649 1.49374 -0.536007 0
M  V30 5404 H 507.67 3.62539 1.15522 0
M  V30 5405 H 507.182 3.82471 -0.658602 0
M  V30 5406 H 505.283 3.29024 1.74854 0
M  V30 5407 H 505.396 4.75741 0.566291 0
M  V30 5408 H 503.76 2.51588 0.39692 0
M  V30 5409 H 504.543 3.25051 -1.1044 0
M  V30 5410 N 506.988 0.0434614 1.5754 0
M  V30 5411 C 507.898 -0.94893 2.14552 0
M  V30 5412 C 508.914 -1.34707 1.10136 0
M  V30 5413 O 510.09 -1.42557 1.42266 0
M  V30 5414 C 507.155 -2.208 2.67298 0
M  V30 5415 C 506.216 -1.86893 3.86484 0
M  V30 5416 C 505.449 -3.06797 4.36705 0
M  V30 5417 O 505.672 -4.19921 3.86034 0
M  V30 5418 O 504.606 -2.8826 5.28384 0
M  V30 5419 H 508.432 -0.494099 2.99654 0
M  V30 5420 H 506.017 -0.177989 1.48336 0
M  V30 5421 H 507.899 -2.94686 3.01228 0
M  V30 5422 H 506.574 -2.65436 1.85272 0
M  V30 5423 H 505.481 -1.10347 3.57455 0
M  V30 5424 H 506.814 -1.47062 4.69716 0
M  V30 5425 N 508.466 -1.55915 -0.229846 0
M  V30 5426 C 509.694 -1.82617 -0.972562 0
M  V30 5427 C 510.109 -0.621488 -1.78278 0
M  V30 5428 O 509.466 0.409956 -1.77836 0
M  V30 5429 C 509.517 -3.0774 -1.89679 0
M  V30 5430 O 509.238 -4.23559 -1.11934 0
M  V30 5431 C 510.739 -3.47368 -2.75409 0
M  V30 5432 H 507.959 -0.60727 -0.285419 0
M  V30 5433 H 510.503 -2.02996 -0.247579 0
M  V30 5434 H 508.658 -2.89361 -2.57583 0
M  V30 5435 H 509.072 -4.94586 -1.74599 0
M  V30 5436 H 510.546 -4.37977 -3.35977 0
M  V30 5437 H 511.023 -2.68737 -3.47386 0
M  V30 5438 H 511.629 -3.68158 -2.12931 0
M  V30 5439 N 509.944 0.496216 -1.49584 0
M  V30 5440 C 510.907 1.57952 -1.66084 0
M  V30 5441 C 511.907 1.51729 -0.53244 0
M  V30 5442 O 513.097 1.54796 -0.79899 0
M  V30 5443 C 510.229 2.97604 -1.66268 0
M  V30 5444 H 511.422 1.44649 -2.6271 0
M  V30 5445 H 508.975 0.7208 -1.38687 0
M  V30 5446 H 509.71 3.16378 -0.712432 0
M  V30 5447 H 509.495 3.03528 -2.4822 0
M  V30 5448 H 510.985 3.76301 -1.81073 0
M  V30 5449 N 511.423 1.38739 0.74761 0
M  V30 5450 C 512.386 1.36241 1.84312 0
M  V30 5451 C 513.386 0.261811 1.58654 0
M  V30 5452 O 514.576 0.519031 1.66288 0
M  V30 5453 C 511.708 1.12253 3.21888 0
M  V30 5454 H 512.901 2.33712 1.87933 0
M  V30 5455 H 510.454 1.2412 0.949946 0
M  V30 5456 H 511.189 0.154133 3.23934 0
M  V30 5457 H 510.974 1.91943 3.41907 0
M  V30 5458 H 512.464 1.13215 4.0196 0
M  V30 5459 N 512.901 -0.976442 1.23707 0
M  V30 5460 C 513.831 -2.08749 1.04624 0
M  V30 5461 C 514.812 -1.70057 -0.0380956 0
M  V30 5462 O 515.997 -1.93782 0.127308 0
M  V30 5463 C 513.127 -3.41335 0.640902 0
M  V30 5464 C 512.081 -3.93947 1.67302 0
M  V30 5465 C 511.407 -5.22774 1.12301 0
M  V30 5466 C 512.707 -4.22769 3.06697 0
M  V30 5467 H 514.401 -2.24972 1.97555 0
M  V30 5468 H 511.947 -1.08108 0.951247 0
M  V30 5469 H 513.9 -4.18489 0.494434 0
M  V30 5470 H 512.624 -3.24988 -0.324099 0
M  V30 5471 H 511.283 -3.18941 1.80755 0
M  V30 5472 H 510.931 -5.0278 0.148877 0
M  V30 5473 H 510.631 -5.58942 1.81267 0
M  V30 5474 H 512.155 -6.02546 0.988479 0
M  V30 5475 H 513.569 -4.90659 2.96524 0
M  V30 5476 H 511.966 -4.70147 3.72937 0
M  V30 5477 H 513.036 -3.29885 3.55392 0
M  V30 5478 N 514.379 -1.04941 -1.1758 0
M  V30 5479 C 515.625 -0.759112 -1.88057 0
M  V30 5480 C 515.958 0.711918 -1.8068 0
M  V30 5481 O 515.233 1.52035 -1.21308 0
M  V30 5482 C 515.516 -1.237 -3.38187 0
M  V30 5483 C 515.369 -2.77078 -3.54327 0
M  V30 5484 C 516.688 -0.834014 -4.32125 0
M  V30 5485 H 513.807 -0.277237 -0.682868 0
M  V30 5486 H 516.449 -1.30296 -1.38286 0
M  V30 5487 H 514.599 -0.774337 -3.80705 0
M  V30 5488 H 516.271 -3.31449 -3.20842 0
M  V30 5489 H 514.514 -3.16477 -2.96689 0
M  V30 5490 H 515.185 -3.05577 -4.59703 0
M  V30 5491 H 517.661 -1.23228 -3.97434 0
M  V30 5492 H 516.537 -1.19603 -5.35711 0
M  V30 5493 H 516.798 0.262195 -4.41322 0
M  V30 5494 N 515.857 1.33968 -0.830081 0
M  V30 5495 C 516.82 2.27694 -0.26235 0
M  V30 5496 C 517.82 1.50589 0.563876 0
M  V30 5497 O 519.01 1.70028 0.378941 0
M  V30 5498 C 516.142 3.35002 0.63138 0
M  V30 5499 H 517.335 2.79419 -1.08928 0
M  V30 5500 H 514.888 1.44221 -0.602486 0
M  V30 5501 H 515.623 2.88504 1.48109 0
M  V30 5502 H 515.408 3.92079 0.0403276 0
M  V30 5503 H 516.898 4.04897 1.02217 0
M  V30 5504 N 517.335 0.585699 1.46312 0
M  V30 5505 C 518.612 0.00542031 1.95599 0
M  V30 5506 C 518.992 -1.45619 1.52834 0
M  V30 5507 O 518.34 -2.14759 0.780446 0
M  V30 5508 C 518.55 0.180601 3.48532 0
M  V30 5509 C 519.898 0.049979 4.24571 0
M  V30 5510 O 520.922 0.109589 3.56031 0
M  V30 5511 O 519.781 -0.0832226 5.46437 0
M  V30 5512 H 516.875 -0.0481281 0.825598 0
M  V30 5513 H 519.421 0.654227 1.56582 0
M  V30 5514 H 518.193 1.19657 3.72556 0
M  V30 5515 H 517.816 -0.504498 3.94386 0
M  V30 5516 N 518.813 -1.54241 0.323641 0
M  V30 5517 C 520.059 -2.01572 -0.272089 0
M  V30 5518 C 520.414 -1.20774 -1.49771 0
M  V30 5519 O 519.707 -0.281821 -1.89516 0
M  V30 5520 C 519.901 -3.5129 -0.658031 0
M  V30 5521 C 519.73 -4.46582 0.528645 0
M  V30 5522 C 518.5 -4.94737 1.02777 0
M  V30 5523 C 520.698 -4.95416 1.38086 0
M  V30 5524 N 518.68 -5.73933 2.17885 0
M  V30 5525 C 520.051 -5.72537 2.3791 0
M  V30 5526 C 522.106 -4.77559 1.40861 0
M  V30 5527 C 520.809 -6.33702 3.40314 0
M  V30 5528 C 522.835 -5.39559 2.42136 0
M  V30 5529 C 522.197 -6.16532 3.40688 0
M  V30 5530 H 518.296 -0.779425 -0.0634072 0
M  V30 5531 H 520.88 -1.8922 0.458697 0
M  V30 5532 H 519.051 -3.63888 -1.35795 0
M  V30 5533 H 520.783 -3.85388 -1.23524 0
M  V30 5534 H 517.538 -4.69796 0.599046 0
M  V30 5535 H 517.962 -6.18209 2.75947 0
M  V30 5536 H 522.604 -4.17611 0.660352 0
M  V30 5537 H 520.322 -6.9277 4.16047 0
M  V30 5538 H 523.908 -5.27659 2.45086 0
M  V30 5539 H 522.788 -6.63655 4.1777 0
M  V30 5540 N 520.291 -0.0518155 -1.57515 0
M  V30 5541 C 521.519 0.631395 -1.9703 0
M  V30 5542 C 521.934 1.64341 -0.92938 0
M  V30 5543 O 521.291 1.82296 0.0863266 0
M  V30 5544 C 521.342 1.31774 -3.36627 0
M  V30 5545 O 521.063 0.346247 -4.3673 0
M  V30 5546 C 522.564 2.09065 -3.90905 0
M  V30 5547 H 519.784 0.172576 -0.648428 0
M  V30 5548 H 522.328 -0.118306 -2.04158 0
M  V30 5549 H 520.483 2.01867 -3.30649 0
M  V30 5550 H 520.897 0.836226 -5.17791 0
M  V30 5551 H 522.371 2.52508 -4.9086 0
M  V30 5552 H 522.848 2.93908 -3.26366 0
M  V30 5553 H 523.454 1.43882 -4.00223 0
M  V30 5554 N 521.769 1.56035 0.221574 0
M  V30 5555 C 523.046 1.69837 0.970301 0
M  V30 5556 C 523.426 0.599065 2.02421 0
M  V30 5557 O 522.774 -0.393929 2.25079 0
M  V30 5558 C 522.984 3.11148 1.58076 0
M  V30 5559 C 524.332 3.70555 2.07302 0
M  V30 5560 O 525.356 3.14109 1.6797 0
M  V30 5561 O 524.215 4.69562 2.79596 0
M  V30 5562 H 521.309 0.691727 0.453257 0
M  V30 5563 H 523.855 1.68353 0.213358 0
M  V30 5564 H 522.627 3.82617 0.819759 0
M  V30 5565 H 522.25 3.16749 2.40324 0
M  V30 5566 N 523.247 -0.488276 1.49845 0
M  V30 5567 C 524.157 -1.61451 1.70207 0
M  V30 5568 C 525.173 -1.63877 0.584846 0
M  V30 5569 O 526.349 -1.82063 0.861107 0
M  V30 5570 C 523.414 -2.9776 1.77594 0
M  V30 5571 C 522.475 -3.05861 3.01243 0
M  V30 5572 C 521.708 -4.35668 3.08268 0
M  V30 5573 O 521.931 -5.25197 2.22541 0
M  V30 5574 O 520.865 -4.49005 4.00847 0
M  V30 5575 H 524.691 -1.47199 2.65643 0
M  V30 5576 H 522.276 -0.665939 1.33737 0
M  V30 5577 H 524.158 -3.7875 1.84732 0
M  V30 5578 H 522.833 -3.12248 0.8534 0
M  V30 5579 H 521.74 -2.24012 2.99616 0
M  V30 5580 H 523.073 -2.96304 3.9302 0
M  V30 5581 N 524.725 -1.39134 -0.740242 0
M  V30 5582 C 525.657 -1.33332 -1.86428 0
M  V30 5583 C 526.67 -0.243042 -1.60976 0
M  V30 5584 O 527.859 -0.501608 -1.71307 0
M  V30 5585 C 524.959 -1.04626 -3.22346 0
M  V30 5586 C 524.132 -2.24826 -3.75196 0
M  V30 5587 C 523.191 -1.92659 -4.89662 0
M  V30 5588 O 522.217 -2.6529 -5.03597 0
M  V30 5589 N 523.419 -0.889575 -5.73643 0
M  V30 5590 H 526.184 -2.30196 -1.91911 0
M  V30 5591 H 523.745 -1.33168 -0.920756 0
M  V30 5592 H 525.737 -0.811347 -3.96484 0
M  V30 5593 H 524.307 -0.165129 -3.12164 0
M  V30 5594 H 523.527 -2.64301 -2.9247 0
M  V30 5595 H 524.815 -3.05015 -4.07239 0
M  V30 5596 H 524.213 -0.287529 -5.64969 0
M  V30 5597 H 522.77 -0.714557 -6.47871 0
M  V30 5598 N 526.204 0.969867 -1.24223 0
M  V30 5599 C 527.453 1.70687 -1.07466 0
M  V30 5600 C 527.766 1.91736 0.386861 0
M  V30 5601 O 528.972 2.62986 0.674581 0
M  V30 5602 C 527.428 3.07217 -1.87472 0
M  V30 5603 C 527.036 2.94018 -3.3802 0
M  V30 5604 C 528.78 3.84804 -1.79237 0
M  V30 5605 C 526.687 4.25844 -4.10379 0
M  V30 5606 H 525.617 0.640067 -0.398536 0
M  V30 5607 H 528.268 1.08092 -1.48285 0
M  V30 5608 H 526.65 3.70628 -1.39466 0
M  V30 5609 H 527.824 2.39632 -3.9359 0
M  V30 5610 H 526.139 2.29898 -3.47183 0
M  V30 5611 H 528.736 4.82417 -2.30603 0
M  V30 5612 H 529.079 4.09356 -0.757197 0
M  V30 5613 H 529.612 3.28115 -2.24912 0
M  V30 5614 H 526.351 4.06486 -5.14246 0
M  V30 5615 H 525.871 4.80054 -3.59594 0
M  V30 5616 H 527.55 4.94475 -4.17257 0
M  V30 5617 N 527.682 1.05563 1.17022 0
M  V30 5618 C 528.928 0.778872 1.87897 0
M  V30 5619 C 529.283 -0.686839 1.79723 0
M  V30 5620 O 528.576 -1.49612 1.19694 0
M  V30 5621 C 528.77 1.19849 3.36706 0
M  V30 5622 C 528.599 2.70345 3.59366 0
M  V30 5623 C 527.369 3.37707 3.75875 0
M  V30 5624 C 529.567 3.68564 3.58699 0
M  V30 5625 N 527.549 4.7703 3.86414 0
M  V30 5626 C 528.92 4.93634 3.75134 0
M  V30 5627 C 530.975 3.6198 3.4187 0
M  V30 5628 C 529.678 6.12907 3.76481 0
M  V30 5629 C 531.704 4.80697 3.44507 0
M  V30 5630 C 531.066 6.04592 3.61453 0
M  V30 5631 H 527.165 0.337297 0.705517 0
M  V30 5632 H 529.749 1.34832 1.40458 0
M  V30 5633 H 527.92 0.656958 3.82804 0
M  V30 5634 H 529.652 0.871172 3.95212 0
M  V30 5635 H 526.407 2.88108 3.75887 0
M  V30 5636 H 526.831 5.49483 3.95471 0
M  V30 5637 H 531.473 2.67154 3.27702 0
M  V30 5638 H 529.191 7.08073 3.89432 0
M  V30 5639 H 532.777 4.77259 3.32738 0
M  V30 5640 H 531.657 6.94916 3.63403 0
M  V30 5641 N 529.16 -1.33526 0.837174 0
M  V30 5642 C 530.123 -2.27551 0.274421 0
M  V30 5643 C 531.123 -1.50886 -0.555881 0
M  V30 5644 O 532.313 -1.70227 -0.369918 0
M  V30 5645 C 529.445 -3.35332 -0.613605 0
M  V30 5646 H 530.638 -2.78837 1.10408 0
M  V30 5647 H 528.191 -1.439 0.610126 0
M  V30 5648 H 528.926 -2.89285 -1.46577 0
M  V30 5649 H 528.711 -3.92095 -0.0195341 0
M  V30 5650 H 530.201 -4.05433 -1.00068 0
M  V30 5651 N 530.638 -0.59345 -1.46 0
M  V30 5652 C 531.568 0.121192 -2.33185 0
M  V30 5653 C 532.549 0.872977 -1.4599 0
M  V30 5654 O 533.734 0.846321 -1.74789 0
M  V30 5655 C 530.864 1.12844 -3.28456 0
M  V30 5656 C 529.818 0.4908 -4.25177 0
M  V30 5657 C 529.144 1.60529 -5.10034 0
M  V30 5658 C 530.444 -0.578949 -5.19081 0
M  V30 5659 H 532.138 -0.606767 -2.93187 0
M  V30 5660 H 529.684 -0.293242 -1.40983 0
M  V30 5661 H 531.637 1.63684 -3.88311 0
M  V30 5662 H 530.361 1.88681 -2.66584 0
M  V30 5663 H 529.02 0.00339328 -3.666 0
M  V30 5664 H 528.668 2.35359 -4.44539 0
M  V30 5665 H 528.368 1.18422 -5.75543 0
M  V30 5666 H 529.892 2.11623 -5.72755 0
M  V30 5667 H 531.306 -0.155199 -5.7309 0
M  V30 5668 H 529.703 -0.920947 -5.92991 0
M  V30 5669 H 530.773 -1.46109 -4.62364 0
M  V30 5670 N 532.116 1.54067 -0.331816 0
M  V30 5671 C 533.064 2.26105 0.54582 0
M  V30 5672 C 534.058 1.27816 1.11173 0
M  V30 5673 O 535.264 1.45565 1.05882 0
M  V30 5674 H 531.639 0.726363 0.194683 0
M  V30 5675 H 533.61 2.98282 -0.083931 0
M  V30 5676 C 532.359 3.03814 1.69092 0
M  V30 5677 H 531.682 3.79269 1.26473 0
M  V30 5678 H 533.122 3.57453 2.28043 0
M  V30 5679 C 531.581 2.12606 2.61343 0
M  V30 5680 O 532.111 1.71437 3.6328 0
M  V30 5681 N 530.317 1.77925 2.29763 0
M  V30 5682 H 529.864 2.11602 1.46909 0
M  V30 5683 H 529.822 1.1718 2.91747 0
M  V30 5684 N 533.594 0.0601682 1.57485 0
M  V30 5685 C 535.01 -0.296422 1.56823 0
M  V30 5686 C 535.21 -1.70831 1.0686 0
M  V30 5687 O 534.266 -2.4174 0.729245 0
M  V30 5688 C 535.579 -0.116681 3.00474 0
M  V30 5689 C 537.127 -0.187103 3.1244 0
M  V30 5690 C 537.602 -0.035783 4.57986 0
M  V30 5691 N 539.093 -0.0917676 4.63109 0
M  V30 5692 C 539.828 0.00107251 5.734 0
M  V30 5693 N 539.324 0.146773 6.92645 0
M  V30 5694 N 541.117 -0.0551577 5.62073 0
M  V30 5695 H 533.268 0.983055 1.88281 0
M  V30 5696 H 535.531 0.382386 0.867459 0
M  V30 5697 H 535.237 0.85712 3.41096 0
M  V30 5698 H 535.111 -0.873929 3.66936 0
M  V30 5699 H 537.498 -1.15138 2.71712 0
M  V30 5700 H 537.579 0.601052 2.48638 0
M  V30 5701 H 537.223 0.925212 4.99402 0
M  V30 5702 H 537.153 -0.843196 5.19806 0
M  V30 5703 H 539.644 -0.203261 3.77353 0
M  V30 5704 H 539.957 0.210076 7.72514 0
M  V30 5705 H 538.302 0.181979 6.94762 0
M  V30 5706 H 541.493 -0.167605 4.678 0
M  V30 5707 H 541.666 0.020652 6.47997 0
M  V30 5708 N 535.072 -1.5615 -0.213296 0
M  V30 5709 C 536.32 -1.79191 -0.934612 0
M  V30 5710 C 536.641 -0.630112 -1.84539 0
M  V30 5711 O 535.911 0.35257 -1.92701 0
M  V30 5712 H 534.491 -0.660937 -0.348097 0
M  V30 5713 H 537.153 -1.93618 -0.22317 0
M  V30 5714 H 536.249 -2.71656 -1.53654 0
M  V30 5715 N 536.55 0.480323 -1.50102 0
M  V30 5716 C 537.798 1.23063 -1.60312 0
M  V30 5717 C 538.119 1.92659 -0.301226 0
M  V30 5718 O 537.389 1.83691 0.680753 0
M  V30 5719 H 535.969 0.457231 -0.590719 0
M  V30 5720 H 538.631 0.554893 -1.86834 0
M  V30 5721 H 537.727 1.9835 -2.40964 0
M  V30 5722 N 538.028 1.39524 0.732853 0
M  V30 5723 C 538.978 1.34905 1.83806 0
M  V30 5724 C 539.962 0.229546 1.59254 0
M  V30 5725 O 541.154 0.467255 1.70721 0
M  V30 5726 C 538.283 1.19699 3.21756 0
M  V30 5727 C 537.369 2.36359 3.5213 0
M  V30 5728 N 537.76 3.61834 3.53426 0
M  V30 5729 C 536.058 2.29363 3.82503 0
M  V30 5730 C 536.759 4.38992 3.81655 0
M  V30 5731 N 535.735 3.68606 3.99538 0
M  V30 5732 H 539.537 2.29882 1.83116 0
M  V30 5733 H 537.051 1.33051 0.931194 0
M  V30 5734 H 539.048 1.14472 4.00876 0
M  V30 5735 H 537.708 0.256739 3.23683 0
M  V30 5736 H 538.719 3.95228 3.34686 0
M  V30 5737 H 535.396 1.43612 3.92023 0
M  V30 5738 H 536.786 5.47763 3.89108 0
M  V30 5739 N 539.506 -0.963266 1.24736 0
M  V30 5740 C 540.783 -1.68248 0.9976 0
M  V30 5741 C 541.163 -2.05599 -0.478776 0
M  V30 5742 O 540.511 -1.7626 -1.45412 0
M  V30 5743 C 540.721 -2.91118 1.92487 0
M  V30 5744 C 542.069 -3.63261 2.19833 0
M  V30 5745 O 543.093 -3.01184 1.90176 0
M  V30 5746 O 541.952 -4.75019 2.7022 0
M  V30 5747 H 539.046 -0.735744 0.377637 0
M  V30 5748 H 541.592 -1.01696 1.35853 0
M  V30 5749 H 540.364 -2.60242 2.92215 0
M  V30 5750 H 539.987 -3.65402 1.56738 0
M  V30 5751 N 540.985 -1.06182 -1.16461 0
M  V30 5752 C 542.396 -0.802426 -1.68576 0
M  V30 5753 C 542.747 0.67412 -1.84255 0
M  V30 5754 O 541.872 1.52303 -1.5373 0
M  V30 5755 C 542.467 -1.45002 -3.06202 0
M  V30 5756 C 541.026 -1.23843 -3.55443 0
M  V30 5757 C 540.173 -1.52724 -2.31454 0
M  V30 5758 H 543.124 -1.22545 -1.00839 0
M  V30 5759 H 543.145 -0.864731 -3.70544 0
M  V30 5760 H 542.657 -2.52466 -2.94759 0
M  V30 5761 H 540.758 -0.183487 -3.72148 0
M  V30 5762 H 540.871 -1.95036 -4.37604 0
M  V30 5763 H 539.235 -0.947726 -2.36411 0
M  V30 5764 H 540.018 -2.61343 -2.22609 0
M  V30 5765 N 542.463 1.3308 -0.844243 0
M  V30 5766 C 543.41 2.29104 -0.279323 0
M  V30 5767 C 544.38 1.54577 0.607882 0
M  V30 5768 O 545.565 1.8285 0.545009 0
M  V30 5769 C 542.705 3.40927 0.53508 0
M  V30 5770 C 541.818 4.30354 -0.376749 0
M  V30 5771 C 540.953 5.29297 0.449276 0
M  V30 5772 C 539.992 6.10365 -0.460606 0
M  V30 5773 N 539.129 7.01335 0.327612 0
M  V30 5774 H 543.969 2.76817 -1.10346 0
M  V30 5775 H 541.506 1.36203 -0.555611 0
M  V30 5776 H 543.464 4.04469 1.02278 0
M  V30 5777 H 542.094 2.94391 1.32414 0
M  V30 5778 H 541.146 3.67485 -0.982791 0
M  V30 5779 H 542.458 4.87067 -1.07549 0
M  V30 5780 H 541.612 5.98392 1.00058 0
M  V30 5781 H 540.351 4.73174 1.18143 0
M  V30 5782 H 539.356 5.40182 -1.02388 0
M  V30 5783 H 540.581 6.68571 -1.1912 0
M  V30 5784 H 538.527 6.47655 1.04305 0
M  V30 5785 H 538.444 7.55355 -0.3123 0
M  V30 5786 H 539.712 7.74731 0.86098 0
M  V30 5787 N 543.941 0.601185 1.45683 0
M  V30 5788 C 544.888 -0.121396 2.30481 0
M  V30 5789 C 545.858 -0.866232 1.41724 0
M  V30 5790 O 547.043 -0.85324 1.70659 0
M  V30 5791 C 544.183 -1.11704 3.26521 0
M  V30 5792 C 543.296 -0.373741 4.3038 0
M  V30 5793 C 542.431 -1.35854 5.13534 0
M  V30 5794 C 541.47 -0.602689 6.09126 0
M  V30 5795 N 540.607 -1.53645 6.85082 0
M  V30 5796 H 545.447 0.607732 2.91737 0
M  V30 5797 H 542.984 0.311502 1.43764 0
M  V30 5798 H 544.942 -1.70735 3.80664 0
M  V30 5799 H 543.572 -1.81366 2.67032 0
M  V30 5800 H 542.624 0.331962 3.78949 0
M  V30 5801 H 543.936 0.2163 4.98331 0
M  V30 5802 H 543.09 -2.02111 5.72046 0
M  V30 5803 H 541.829 -1.98251 4.45587 0
M  V30 5804 H 540.834 0.0735482 5.49751 0
M  V30 5805 H 542.059 0.0161467 6.79098 0
M  V30 5806 H 540.005 -2.14819 6.1983 0
M  V30 5807 H 539.922 -0.999688 7.49361 0
M  V30 5808 H 541.19 -2.1888 7.48139 0
M  V30 5809 N 545.419 -1.53889 0.339982 0
M  V30 5810 C 546.668 -2.00035 -0.258604 0
M  V30 5811 C 546.981 -1.23179 -1.51942 0
M  V30 5812 O 548.187 -1.59784 -2.19503 0
M  V30 5813 C 546.643 -3.56249 -0.511359 0
M  V30 5814 C 546.251 -4.41957 0.733349 0
M  V30 5815 C 547.995 -4.1082 -1.069 0
M  V30 5816 C 545.902 -5.89673 0.451591 0
M  V30 5817 H 544.832 -0.747284 -0.10041 0
M  V30 5818 H 547.483 -1.77776 0.454758 0
M  V30 5819 H 545.865 -3.7456 -1.28533 0
M  V30 5820 H 547.039 -4.35421 1.50815 0
M  V30 5821 H 545.354 -3.9836 1.21237 0
M  V30 5822 H 547.951 -5.18789 -1.2947 0
M  V30 5823 H 548.294 -3.63817 -2.02343 0
M  V30 5824 H 548.827 -3.96205 -0.355817 0
M  V30 5825 H 545.566 -6.40903 1.37565 0
M  V30 5826 H 545.086 -5.99122 -0.285193 0
M  V30 5827 H 546.765 -6.46965 0.0675067 0
M  V30 5828 N 546.897 -0.0685191 -1.57451 0
M  V30 5829 C 548.127 0.609577 -1.97402 0
M  V30 5830 C 548.535 1.63882 -0.945489 0
M  V30 5831 O 547.878 1.8354 0.0766052 0
M  V30 5832 C 547.94 1.3385 -3.33653 0
M  V30 5833 C 547.604 0.463103 -4.54648 0
M  V30 5834 C 548.601 -0.277964 -5.19156 0
M  V30 5835 C 546.286 0.388941 -5.00792 0
M  V30 5836 C 548.28 -1.08145 -6.28159 0
M  V30 5837 C 545.967 -0.418217 -6.09667 0
M  V30 5838 C 546.965 -1.15208 -6.73213 0
M  V30 5839 O 546.653 -1.94594 -7.79993 0
M  V30 5840 H 546.385 0.170197 -0.654224 0
M  V30 5841 H 548.939 -0.13647 -2.04946 0
M  V30 5842 H 547.169 2.13055 -3.22714 0
M  V30 5843 H 548.858 1.90851 -3.58233 0
M  V30 5844 H 549.624 -0.230241 -4.84453 0
M  V30 5845 H 545.503 0.949769 -4.5111 0
M  V30 5846 H 549.047 -1.65476 -6.7769 0
M  V30 5847 H 544.944 -0.467515 -6.43805 0
M  V30 5848 H 545.712 -1.8699 -7.96854 0
M  V30 5849 N 548.375 1.56261 0.205012 0
M  V30 5850 C 549.338 1.92908 1.23771 0
M  V30 5851 C 550.338 0.809208 1.38955 0
M  V30 5852 O 551.528 1.07676 1.36936 0
M  V30 5853 C 548.66 2.19442 2.60879 0
M  V30 5854 H 549.853 2.85287 0.924728 0
M  V30 5855 H 547.406 1.49798 0.446125 0
M  V30 5856 H 548.141 1.29668 2.97248 0
M  V30 5857 H 547.926 3.0104 2.51232 0
M  V30 5858 H 549.416 2.48833 3.35368 0
M  V30 5859 N 549.853 -0.472356 1.50355 0
M  V30 5860 C 550.816 -1.5529 1.68576 0
M  V30 5861 C 551.816 -1.50863 0.556511 0
M  V30 5862 O 553.006 -1.53505 0.823516 0
M  V30 5863 C 550.138 -2.94921 1.70981 0
M  V30 5864 H 551.331 -1.40451 2.64978 0
M  V30 5865 H 548.884 -0.698645 1.39816 0
M  V30 5866 H 549.619 -3.15204 0.762675 0
M  V30 5867 H 549.404 -2.99541 2.53017 0
M  V30 5868 H 550.894 -3.73372 1.87037 0
M  V30 5869 N 551.331 -1.39911 -0.725443 0
M  V30 5870 C 552.578 -1.37654 -1.48518 0
M  V30 5871 C 552.906 0.0243982 -1.94485 0
M  V30 5872 O 552.161 1.00708 -1.67799 0
M  V30 5873 C 552.46 -2.30368 -2.7325 0
M  V30 5874 C 552.126 -3.77817 -2.461 0
M  V30 5875 C 550.788 -4.17991 -2.38405 0
M  V30 5876 C 553.14 -4.71036 -2.23103 0
M  V30 5877 C 550.468 -5.49433 -2.05768 0
M  V30 5878 C 552.82 -6.02766 -1.9198 0
M  V30 5879 C 551.484 -6.41993 -1.82761 0
M  V30 5880 H 550.754 -0.503713 -0.543465 0
M  V30 5881 H 553.401 -1.7249 -0.831822 0
M  V30 5882 H 551.706 -1.88683 -3.43375 0
M  V30 5883 H 553.403 -2.2591 -3.31309 0
M  V30 5884 H 549.993 -3.45982 -2.52972 0
M  V30 5885 H 554.177 -4.40823 -2.2801 0
M  V30 5886 H 549.433 -5.78738 -1.9716 0
M  V30 5887 H 553.607 -6.74519 -1.73197 0
M  V30 5888 H 551.234 -7.43761 -1.57237 0
M  V30 5889 N 552.809 0.956637 -1.25245 0
M  V30 5890 C 553.756 2.053 -1.05454 0
M  V30 5891 C 554.726 1.66062 0.0356889 0
M  V30 5892 O 555.911 1.90415 -0.121099 0
M  V30 5893 C 553.051 3.38391 -0.677191 0
M  V30 5894 C 552.164 3.90758 -1.84206 0
M  V30 5895 C 551.299 5.12165 -1.40926 0
M  V30 5896 C 550.338 5.56757 -2.54338 0
M  V30 5897 N 549.475 6.69376 -2.11848 0
M  V30 5898 H 554.315 2.21562 -1.99284 0
M  V30 5899 H 551.852 1.08578 -0.992434 0
M  V30 5900 H 553.81 4.1488 -0.43938 0
M  V30 5901 H 552.44 3.22021 0.224127 0
M  V30 5902 H 551.492 3.10808 -2.19323 0
M  V30 5903 H 552.804 4.19802 -2.69383 0
M  V30 5904 H 551.958 5.96065 -1.13098 0
M  V30 5905 H 550.697 4.84832 -0.528175 0
M  V30 5906 H 549.702 4.71423 -2.82913 0
M  V30 5907 H 550.927 5.861 -3.43022 0
M  V30 5908 H 548.873 6.43756 -1.26153 0
M  V30 5909 H 548.79 6.97927 -2.90574 0
M  V30 5910 H 550.058 7.5669 -1.87191 0
M  V30 5911 N 554.287 1.06798 1.15896 0
M  V30 5912 C 555.234 0.683314 2.20453 0
M  V30 5913 C 556.204 -0.32255 1.62938 0
M  V30 5914 O 557.389 -0.210276 1.89638 0
M  V30 5915 C 554.529 0.0813266 3.45004 0
M  V30 5916 C 553.642 1.13799 4.16742 0
M  V30 5917 C 552.777 0.501598 5.28826 0
M  V30 5918 C 551.816 1.54144 5.92373 0
M  V30 5919 N 550.953 0.928038 6.9594 0
M  V30 5920 H 555.793 1.57932 2.52708 0
M  V30 5921 H 553.33 0.789544 1.24115 0
M  V30 5922 H 555.288 -0.285274 4.16224 0
M  V30 5923 H 553.918 -0.77806 3.13283 0
M  V30 5924 H 552.97 1.62223 3.44075 0
M  V30 5925 H 554.282 1.92664 4.60089 0
M  V30 5926 H 553.436 0.0823162 6.06644 0
M  V30 5927 H 552.175 -0.318883 4.86656 0
M  V30 5928 H 551.18 1.97056 5.13273 0
M  V30 5929 H 552.405 2.3641 6.36621 0
M  V30 5930 H 550.351 0.12836 6.55874 0
M  V30 5931 H 550.268 1.65401 7.37685 0
M  V30 5932 H 551.536 0.534071 7.77668 0
M  V30 5933 N 555.766 -1.3263 0.851289 0
M  V30 5934 C 556.729 -2.27247 0.298541 0
M  V30 5935 C 557.729 -1.51467 -0.539847 0
M  V30 5936 O 558.919 -1.7061 -0.351843 0
M  V30 5937 C 556.051 -3.35964 -0.578004 0
M  V30 5938 H 557.244 -2.7765 1.13359 0
M  V30 5939 H 554.797 -1.43245 0.625354 0
M  V30 5940 H 555.532 -2.90823 -1.435 0
M  V30 5941 H 555.317 -3.92094 0.0220539 0
M  V30 5942 H 556.807 -4.06472 -0.957626 0
M  V30 5943 N 557.244 -0.608902 -1.45362 0
M  V30 5944 C 558.176 0.147318 -2.28726 0
M  V30 5945 C 559.189 0.830468 -1.40025 0
M  V30 5946 O 560.378 0.695636 -1.64387 0
M  V30 5947 C 557.478 1.22968 -3.15804 0
M  V30 5948 C 556.651 0.633391 -4.3279 0
M  V30 5949 C 555.71 1.60682 -5.01067 0
M  V30 5950 O 554.736 1.13261 -5.57818 0
M  V30 5951 N 555.938 2.94123 -5.00472 0
M  V30 5952 H 558.703 -0.568014 -2.94268 0
M  V30 5953 H 556.264 -0.448479 -1.55564 0
M  V30 5954 H 558.256 1.88072 -3.58345 0
M  V30 5955 H 556.826 1.84752 -2.52162 0
M  V30 5956 H 556.046 -0.195762 -3.93714 0
M  V30 5957 H 557.334 0.215255 -5.08344 0
M  V30 5958 H 556.732 3.3525 -4.55657 0
M  V30 5959 H 555.289 3.54646 -5.46872 0
M  V30 5960 N 558.722 1.53707 -0.348139 0
M  V30 5961 C 559.632 2.28881 0.514857 0
M  V30 5962 C 560.648 1.34168 1.10793 0
M  V30 5963 O 561.824 1.6721 1.12262 0
M  V30 5964 C 558.889 3.05042 1.64774 0
M  V30 5965 C 557.95 4.15389 1.08398 0
M  V30 5966 C 557.183 4.87909 2.16287 0
M  V30 5967 O 557.406 4.60137 3.3709 0
M  V30 5968 O 556.34 5.74254 1.80323 0
M  V30 5969 H 560.166 3.03547 -0.0963699 0
M  V30 5970 H 557.751 1.48972 -0.113043 0
M  V30 5971 H 559.633 3.52656 2.30677 0
M  V30 5972 H 558.308 2.33228 2.24469 0
M  V30 5973 H 557.215 3.72068 0.389341 0
M  V30 5974 H 558.548 4.89318 0.531829 0
M  V30 5975 N 560.2 0.0768682 1.57412 0
M  V30 5976 C 561.428 -0.59997 1.9801 0
M  V30 5977 C 561.843 -1.62842 0.955408 0
M  V30 5978 O 561.2 -1.8241 -0.057314 0
M  V30 5979 C 561.251 -1.26401 3.38681 0
M  V30 5980 O 560.972 -0.276723 4.37225 0
M  V30 5981 C 562.473 -2.0282 3.94182 0
M  V30 5982 H 559.693 -0.162239 0.651091 0
M  V30 5983 H 562.237 0.150771 2.03943 0
M  V30 5984 H 560.392 -1.96581 3.33819 0
M  V30 5985 H 560.806 -0.753744 5.19056 0
M  V30 5986 H 562.28 -2.44667 4.94815 0
M  V30 5987 H 562.757 -2.88678 3.31001 0
M  V30 5988 H 563.363 -1.37496 4.02461 0
M  V30 5989 N 561.678 -1.56367 -0.196722 0
M  V30 5990 C 562.625 -1.94417 -1.24382 0
M  V30 5991 C 563.595 -0.804543 -1.45315 0
M  V30 5992 O 564.78 -1.06256 -1.58475 0
M  V30 5993 C 561.92 -2.28757 -2.58388 0
M  V30 5994 C 561.033 -3.55775 -2.45047 0
M  V30 5995 C 560.168 -3.79445 -3.71746 0
M  V30 5996 C 559.207 -4.99894 -3.53231 0
M  V30 5997 N 558.344 -5.19826 -4.71938 0
M  V30 5998 H 563.184 -2.83691 -0.912338 0
M  V30 5999 H 560.721 -1.40392 -0.439135 0
M  V30 6000 H 562.679 -2.46682 -3.36457 0
M  V30 6001 H 561.309 -1.42625 -2.89582 0
M  V30 6002 H 560.361 -3.45905 -1.58284 0
M  V30 6003 H 561.673 -4.44 -2.27299 0
M  V30 6004 H 560.827 -3.97601 -4.58256 0
M  V30 6005 H 559.566 -2.89546 -3.92446 0
M  V30 6006 H 558.571 -4.81662 -2.65107 0
M  V30 6007 H 559.796 -5.913 -3.33978 0
M  V30 6008 H 557.742 -4.32875 -4.92905 0
M  V30 6009 H 557.659 -6.02228 -4.57009 0
M  V30 6010 H 558.927 -5.42439 -5.59803 0
M  V30 6011 N 563.156 0.464375 -1.50603 0
M  V30 6012 C 564.404 1.21356 -1.61608 0
M  V30 6013 C 564.725 1.92329 -0.321643 0
M  V30 6014 O 563.995 1.84403 0.661232 0
M  V30 6015 H 562.575 0.45094 -0.595535 0
M  V30 6016 H 565.237 0.535046 -1.87412 0
M  V30 6017 H 564.333 1.95783 -2.43054 0
M  V30 6018 N 564.634 1.40294 0.718013 0
M  V30 6019 C 565.581 1.40367 1.8321 0
M  V30 6020 C 566.551 0.260952 1.64037 0
M  V30 6021 O 567.736 0.458648 1.85205 0
M  V30 6022 C 564.876 1.26965 3.20895 0
M  V30 6023 C 563.989 2.50922 3.51656 0
M  V30 6024 C 563.124 2.29981 4.78834 0
M  V30 6025 C 562.163 3.49527 5.02491 0
M  V30 6026 N 561.3 3.27796 6.20882 0
M  V30 6027 H 566.14 2.35593 1.82482 0
M  V30 6028 H 563.677 1.17012 0.891444 0
M  V30 6029 H 565.635 1.17202 4.00399 0
M  V30 6030 H 564.265 0.353591 3.20858 0
M  V30 6031 H 563.317 2.71223 2.66725 0
M  V30 6032 H 564.629 3.39913 3.65048 0
M  V30 6033 H 563.783 2.17558 5.66351 0
M  V30 6034 H 562.522 1.38411 4.67647 0
M  V30 6035 H 561.527 3.6243 4.1343 0
M  V30 6036 H 562.752 4.42021 5.15553 0
M  V30 6037 H 560.698 2.38906 6.1095 0
M  V30 6038 H 560.615 4.10351 6.34939 0
M  V30 6039 H 561.883 3.19101 7.11193 0
M  V30 6040 N 566.112 -0.949982 1.2575 0
M  V30 6041 C 567.075 -2.02894 1.06615 0
M  V30 6042 C 568.075 -1.60791 0.0173905 0
M  V30 6043 O 569.265 -1.72249 0.260003 0
M  V30 6044 C 566.397 -3.35219 0.619751 0
M  V30 6045 H 567.59 -2.21302 2.02399 0
M  V30 6046 H 565.143 -1.12772 1.08223 0
M  V30 6047 H 565.878 -3.22508 -0.340486 0
M  V30 6048 H 565.663 -3.67129 1.37692 0
M  V30 6049 H 567.153 -4.14505 0.507443 0
M  V30 6050 N 567.59 -1.07411 -1.15328 0
M  V30 6051 C 568.818 -0.818782 -1.90009 0
M  V30 6052 C 569.233 0.628072 -1.78047 0
M  V30 6053 O 568.59 1.43085 -1.13282 0
M  V30 6054 C 568.641 -1.21874 -3.40337 0
M  V30 6055 O 568.362 -2.60883 -3.51954 0
M  V30 6056 C 569.863 -0.992796 -4.3204 0
M  V30 6057 H 567.083 -0.296007 -0.60218 0
M  V30 6058 H 569.627 -1.43073 -1.46117 0
M  V30 6059 H 567.782 -0.651103 -3.81889 0
M  V30 6060 H 568.196 -2.77216 -4.45255 0
M  V30 6061 H 569.67 -1.32215 -5.35932 0
M  V30 6062 H 570.147 0.0708331 -4.39143 0
M  V30 6063 H 570.753 -1.54537 -3.9623 0
M  V30 6064 N 569.068 1.32177 -0.85831 0
M  V30 6065 C 570.314 1.97417 -0.46417 0
M  V30 6066 C 570.647 1.67746 0.978514 0
M  V30 6067 O 569.922 0.967654 1.68721 0
M  V30 6068 C 570.205 3.53069 -0.708094 0
M  V30 6069 C 570.058 3.92357 -2.19946 0
M  V30 6070 C 571.377 4.39783 -0.166881 0
M  V30 6071 H 568.496 0.717097 -0.17012 0
M  V30 6072 H 571.138 1.56499 -1.07741 0
M  V30 6073 H 569.288 3.88054 -0.186128 0
M  V30 6074 H 570.96 3.67533 -2.78779 0
M  V30 6075 H 569.203 3.41384 -2.67656 0
M  V30 6076 H 569.874 5.00841 -2.32082 0
M  V30 6077 H 572.35 4.11556 -0.613285 0
M  V30 6078 H 571.226 5.47671 -0.367093 0
M  V30 6079 H 571.487 4.32196 0.930559 0
M  V30 6080 N 570.547 0.616602 1.45037 0
M  V30 6081 C 571.796 0.112861 2.01384 0
M  V30 6082 C 572.109 -1.26758 1.48969 0
M  V30 6083 O 573.315 -1.86454 1.9735 0
M  V30 6084 C 571.771 0.151057 3.59583 0
M  V30 6085 C 571.379 1.53191 4.20995 0
M  V30 6086 C 573.123 -0.296974 4.2346 0
M  V30 6087 C 571.03 1.526 5.71373 0
M  V30 6088 H 569.96 0.0384254 0.75302 0
M  V30 6089 H 572.611 0.773262 1.66412 0
M  V30 6090 H 570.993 -0.57617 3.91786 0
M  V30 6091 H 572.167 2.28156 4.00352 0
M  V30 6092 H 570.482 1.92279 3.69348 0
M  V30 6093 H 573.079 -0.320712 5.33737 0
M  V30 6094 H 573.422 -1.32145 3.9477 0
M  V30 6095 H 573.955 0.377279 3.96007 0
M  V30 6096 H 570.694 2.52837 6.04776 0
M  V30 6097 H 570.214 0.819064 5.94181 0
M  V30 6098 H 571.893 1.25357 6.3474 0
M  V30 6099 N 572.025 -1.5352 0.356285 0
M  V30 6100 C 572.955 -2.28372 -0.486661 0
M  V30 6101 C 573.936 -1.30432 -1.09185 0
M  V30 6102 O 575.121 -1.59291 -1.11085 0
M  V30 6103 C 572.251 -3.06604 -1.63129 0
M  V30 6104 C 571.205 -4.12154 -1.15381 0
M  V30 6105 C 570.531 -4.78415 -2.38796 0
M  V30 6106 C 571.831 -5.21724 -0.245179 0
M  V30 6107 H 573.525 -2.99083 0.137797 0
M  V30 6108 H 571.071 -1.43841 0.0677134 0
M  V30 6109 H 573.024 -3.57712 -2.22755 0
M  V30 6110 H 571.748 -2.33568 -2.28284 0
M  V30 6111 H 570.407 -3.61978 -0.580294 0
M  V30 6112 H 570.055 -4.01959 -3.02387 0
M  V30 6113 H 569.755 -5.49734 -2.07524 0
M  V30 6114 H 571.279 -5.32313 -2.99125 0
M  V30 6115 H 572.693 -5.68391 -0.748646 0
M  V30 6116 H 571.09 -6.00095 -0.0237608 0
M  V30 6117 H 572.16 -4.79596 0.715229 0
M  V30 6118 N 573.503 -0.0852151 -1.57369 0
M  V30 6119 C 574.466 0.8627 -2.12344 0
M  V30 6120 C 575.466 1.21746 -1.05046 0
M  V30 6121 O 576.656 1.14852 -1.30976 0
M  V30 6122 C 573.788 2.1618 -2.63589 0
M  V30 6123 H 574.981 0.385511 -2.97412 0
M  V30 6124 H 572.534 0.163663 -1.55441 0
M  V30 6125 H 573.269 2.68406 -1.82013 0
M  V30 6126 H 573.054 1.91723 -3.4203 0
M  V30 6127 H 574.544 2.84011 -3.06149 0
M  V30 6128 N 574.981 1.5647 0.188427 0
M  V30 6129 C 575.931 1.91479 1.23774 0
M  V30 6130 C 576.915 0.78119 1.40664 0
M  V30 6131 O 578.107 1.04414 1.42922 0
M  V30 6132 C 575.236 2.26354 2.58106 0
M  V30 6133 C 574.322 3.46186 2.44981 0
M  V30 6134 N 574.713 4.63911 2.01546 0
M  V30 6135 C 573.011 3.50456 2.75856 0
M  V30 6136 C 573.712 5.46064 2.00472 0
M  V30 6137 N 572.688 4.86648 2.42229 0
M  V30 6138 H 576.49 2.79994 0.893339 0
M  V30 6139 H 574.004 1.57477 0.39682 0
M  V30 6140 H 576.001 2.49622 3.33908 0
M  V30 6141 H 574.661 1.39168 2.93364 0
M  V30 6142 H 575.672 4.88451 1.7215 0
M  V30 6143 H 572.349 2.73704 3.15265 0
M  V30 6144 H 573.739 6.50368 1.68734 0
M  V30 6145 N 576.459 -0.456382 1.50847 0
M  V30 6146 C 577.687 -1.23026 1.66349 0
M  V30 6147 C 578.102 -1.85473 0.352868 0
M  V30 6148 O 577.459 -1.69885 -0.666739 0
M  V30 6149 C 577.51 -2.32827 2.76539 0
M  V30 6150 O 577.231 -1.72938 4.02522 0
M  V30 6151 C 578.732 -3.23448 3.03144 0
M  V30 6152 H 575.952 -0.371527 0.558756 0
M  V30 6153 H 578.496 -0.543082 1.97157 0
M  V30 6154 H 576.651 -2.97294 2.48384 0
M  V30 6155 H 577.065 -2.45357 4.63573 0
M  V30 6156 H 578.539 -3.96669 3.83872 0
M  V30 6157 H 579.016 -3.83094 2.14793 0
M  V30 6158 H 579.622 -2.64702 3.32886 0
M  V30 6159 N 577.937 -1.40673 -0.710563 0
M  V30 6160 C 579.186 -1.38525 -1.46607 0
M  V30 6161 C 579.499 0.0077024 -1.95598 0
M  V30 6162 O 580.705 0.151792 -2.71075 0
M  V30 6163 C 579.161 -2.43489 -2.6503 0
M  V30 6164 C 578.769 -3.88619 -2.22888 0
M  V30 6165 C 580.513 -2.50456 -3.42742 0
M  V30 6166 C 578.42 -4.85168 -3.3818 0
M  V30 6167 H 577.35 -0.515092 -0.550632 0
M  V30 6168 H 580.001 -1.66431 -0.772846 0
M  V30 6169 H 578.383 -2.0869 -3.36548 0
M  V30 6170 H 579.557 -4.32588 -1.58758 0
M  V30 6171 H 577.872 -3.85174 -1.58208 0
M  V30 6172 H 580.469 -3.19776 -4.28541 0
M  V30 6173 H 580.812 -1.53665 -3.86902 0
M  V30 6174 H 581.345 -2.84271 -2.78271 0
M  V30 6175 H 578.084 -5.8331 -2.99047 0
M  V30 6176 H 577.604 -4.4586 -4.01209 0
M  V30 6177 H 579.283 -5.05225 -4.04174 0
M  V30 6178 N 579.415 0.9433 -1.26252 0
M  V30 6179 C 580.362 2.0417 -1.07625 0
M  V30 6180 C 581.332 1.6609 0.0180738 0
M  V30 6181 O 582.517 1.90276 -0.141289 0
M  V30 6182 C 579.657 3.37653 -0.713043 0
M  V30 6183 C 578.77 3.88783 -1.8834 0
M  V30 6184 C 577.905 5.10642 -1.4635 0
M  V30 6185 C 576.944 5.54028 -2.60229 0
M  V30 6186 N 576.081 6.67092 -2.18936 0
M  V30 6187 H 580.921 2.19436 -2.01623 0
M  V30 6188 H 578.458 1.07519 -1.00389 0
M  V30 6189 H 580.416 4.14391 -0.483358 0
M  V30 6190 H 579.046 3.22241 0.18996 0
M  V30 6191 H 578.098 3.08464 -2.22608 0
M  V30 6192 H 579.41 4.16922 -2.73821 0
M  V30 6193 H 578.564 5.94832 -1.19414 0
M  V30 6194 H 577.303 4.84244 -0.579568 0
M  V30 6195 H 576.308 4.68396 -2.87898 0
M  V30 6196 H 577.533 5.82429 -3.49219 0
M  V30 6197 H 575.479 6.42381 -1.32974 0
M  V30 6198 H 575.396 6.94806 -2.97961 0
M  V30 6199 H 576.664 7.54662 -1.95206 0
M  V30 6200 N 580.893 1.08022 1.14757 0
M  V30 6201 C 582.141 0.805913 1.85336 0
M  V30 6202 C 582.462 -0.670162 1.83122 0
M  V30 6203 O 581.732 -1.48567 1.2769 0
M  V30 6204 H 580.312 0.295138 0.686223 0
M  V30 6205 H 582.974 1.36538 1.3908 0
M  V30 6206 H 582.07 1.14655 2.90277 0
M  V30 6207 N 582.371 -1.3172 0.865308 0
M  V30 6208 C 583.601 -2.00765 0.487543 0
M  V30 6209 C 584.009 -1.65145 -0.92325 0
M  V30 6210 O 583.352 -0.874294 -1.61561 0
M  V30 6211 C 583.414 -3.55122 0.559369 0
M  V30 6212 C 583.078 -4.14202 1.93095 0
M  V30 6213 C 584.075 -4.3165 2.89784 0
M  V30 6214 C 581.76 -4.50036 2.23099 0
M  V30 6215 C 583.754 -4.84114 4.14623 0
M  V30 6216 C 581.441 -5.02203 3.48189 0
M  V30 6217 C 582.439 -5.19192 4.43767 0
M  V30 6218 O 582.127 -5.70241 5.6664 0
M  V30 6219 H 581.859 -0.649066 0.188915 0
M  V30 6220 H 584.413 -1.69032 1.16694 0
M  V30 6221 H 582.643 -3.86295 -0.176926 0
M  V30 6222 H 584.332 -4.05428 0.195694 0
M  V30 6223 H 585.098 -4.04288 2.6791 0
M  V30 6224 H 580.977 -4.36091 1.49485 0
M  V30 6225 H 584.521 -4.9729 4.89233 0
M  V30 6226 H 580.418 -5.28997 3.69908 0
M  V30 6227 H 581.186 -5.88617 5.68746 0
M  V30 6228 N 583.85 -0.624285 -1.44708 0
M  V30 6229 C 585.098 -0.125802 -2.01708 0
M  V30 6230 C 585.418 1.2543 -1.49306 0
M  V30 6231 O 584.689 1.83198 -0.693924 0
M  V30 6232 H 583.269 -0.0435161 -0.745731 0
M  V30 6233 H 585.931 -0.809446 -1.77296 0
M  V30 6234 H 585.027 -0.0882734 -3.11975 0
M  V30 6235 N 585.328 1.53329 -0.364422 0
M  V30 6236 C 586.261 2.22052 0.526145 0
M  V30 6237 C 587.239 1.21203 1.08391 0
M  V30 6238 O 588.423 1.50101 1.14026 0
M  V30 6239 C 585.55 2.91432 1.72583 0
M  V30 6240 C 584.596 4.06345 1.29562 0
M  V30 6241 S 585.429 5.34671 0.297885 0
M  V30 6242 C 586.585 6.07563 1.50392 0
M  V30 6243 H 586.818 2.97244 -0.0575055 0
M  V30 6244 H 584.351 1.53684 -0.148525 0
M  V30 6245 H 586.309 3.3202 2.41398 0
M  V30 6246 H 584.97 2.15966 2.28073 0
M  V30 6247 H 584.163 4.53901 2.19067 0
M  V30 6248 H 583.765 3.67642 0.686696 0
M  V30 6249 H 586.057 6.32224 2.43513 0
M  V30 6250 H 587 6.99973 1.06977 0
M  V30 6251 H 587.408 5.37994 1.70945 0
M  V30 6252 N 586.806 0.0935595 1.57322 0
M  V30 6253 C 588.054 -0.569383 1.93913 0
M  V30 6254 C 588.375 -1.68817 0.976009 0
M  V30 6255 O 587.645 -1.9588 0.0278099 0
M  V30 6256 H 586.225 -0.21332 0.715894 0
M  V30 6257 H 588.887 0.156531 1.9427 0
M  V30 6258 H 587.983 -0.980577 2.96296 0
M  V30 6259 N 588.284 -1.56567 -0.180126 0
M  V30 6260 C 589.561 -1.7235 -0.924931 0
M  V30 6261 C 589.941 -0.652523 -2.00762 0
M  V30 6262 O 589.289 0.334115 -2.26044 0
M  V30 6263 C 589.499 -3.1523 -1.49771 0
M  V30 6264 C 590.847 -3.75921 -1.97405 0
M  V30 6265 O 591.871 -3.18452 -1.59583 0
M  V30 6266 O 590.73 -4.7681 -2.67048 0
M  V30 6267 H 587.824 -0.703502 -0.434758 0
M  V30 6268 H 590.37 -1.6886 -0.168647 0
M  V30 6269 H 589.142 -3.84656 -0.718027 0
M  V30 6270 H 588.765 -3.23009 -2.31842 0
M  V30 6271 N 589.762 0.448376 -1.51087 0
M  V30 6272 C 590.725 1.52588 -1.71025 0
M  V30 6273 C 591.725 1.49958 -0.580442 0
M  V30 6274 O 592.915 1.52176 -0.847833 0
M  V30 6275 C 590.047 2.92163 -1.75652 0
M  V30 6276 H 591.24 1.36218 -2.67179 0
M  V30 6277 H 588.793 0.676313 -1.4091 0
M  V30 6278 H 589.528 3.13951 -0.812724 0
M  V30 6279 H 589.313 2.95478 -2.57751 0
M  V30 6280 H 590.803 3.70349 -1.92953 0
M  V30 6281 N 591.24 1.41047 0.703093 0
M  V30 6282 C 592.203 1.42036 1.79884 0
M  V30 6283 C 593.203 0.312153 1.57741 0
M  V30 6284 O 594.393 0.571672 1.64553 0
M  V30 6285 C 591.525 1.22437 3.18154 0
M  V30 6286 H 592.718 2.39572 1.80403 0
M  V30 6287 H 590.271 1.27079 0.909977 0
M  V30 6288 H 591.006 0.257112 3.23279 0
M  V30 6289 H 590.791 2.02723 3.35627 0
M  V30 6290 H 592.281 1.25946 3.98155 0
M  V30 6291 N 592.718 -0.936591 1.26751 0
M  V30 6292 C 593.628 -2.06949 1.10496 0
M  V30 6293 C 594.644 -1.7396 0.037271 0
M  V30 6294 O 595.82 -1.99941 0.241944 0
M  V30 6295 C 592.885 -3.38612 0.744491 0
M  V30 6296 C 591.946 -3.85355 1.89209 0
M  V30 6297 C 591.179 -5.10735 1.54873 0
M  V30 6298 O 591.402 -5.68602 0.452546 0
M  V30 6299 O 590.336 -5.52632 2.38499 0
M  V30 6300 H 594.162 -2.23571 2.05547 0
M  V30 6301 H 591.747 -1.05428 1.05855 0
M  V30 6302 H 593.629 -4.17711 0.556396 0
M  V30 6303 H 592.304 -3.23218 -0.176582 0
M  V30 6304 H 591.211 -3.07182 2.13518 0
M  V30 6305 H 592.544 -4.05277 2.79305 0
M  V30 6306 N 594.196 -1.08629 -1.14182 0
M  V30 6307 C 595.444 -0.815731 -1.84906 0
M  V30 6308 C 595.765 0.660441 -1.83475 0
M  V30 6309 O 595.035 1.47888 -1.28476 0
M  V30 6310 H 593.615 -0.298773 -0.684648 0
M  V30 6311 H 596.277 -1.37274 -1.38354 0
M  V30 6312 H 595.373 -1.16193 -2.89665 0
M  V30 6313 N 595.674 1.31259 -0.872281 0
M  V30 6314 C 596.621 2.28459 -0.327857 0
M  V30 6315 C 597.591 1.55831 0.574957 0
M  V30 6316 O 598.776 1.83965 0.506101 0
M  V30 6317 C 595.916 3.41985 0.462644 0
M  V30 6318 C 595.029 4.29458 -0.467949 0
M  V30 6319 C 594.164 5.30131 0.336903 0
M  V30 6320 C 593.203 6.0925 -0.58997 0
M  V30 6321 N 592.34 7.01872 0.178775 0
M  V30 6322 H 597.18 2.74414 -1.16193 0
M  V30 6323 H 594.717 1.34994 -0.584376 0
M  V30 6324 H 596.675 4.06547 0.936759 0
M  V30 6325 H 595.305 2.97134 1.2614 0
M  V30 6326 H 594.357 3.65318 -1.06052 0
M  V30 6327 H 595.669 4.84677 -1.17856 0
M  V30 6328 H 594.823 6.0038 0.873427 0
M  V30 6329 H 593.562 4.75573 1.08079 0
M  V30 6330 H 592.567 5.37889 -1.13823 0
M  V30 6331 H 593.792 6.65894 -1.33275 0
M  V30 6332 H 591.738 6.49721 0.905435 0
M  V30 6333 H 591.655 7.54522 -0.472452 0
M  V30 6334 H 592.923 7.76382 0.696454 0
M  V30 6335 N 597.152 0.631951 1.44375 0
M  V30 6336 C 598.1 -0.0846693 2.32446 0
M  V30 6337 C 599.094 -0.834957 1.47393 0
M  V30 6338 O 600.3 -0.747764 1.63733 0
M  V30 6339 H 596.675 -0.0461508 0.750583 0
M  V30 6340 H 598.646 0.67619 2.90638 0
M  V30 6341 C 597.395 -1.05211 3.314 0
M  V30 6342 H 596.718 -0.484203 3.96857 0
M  V30 6343 H 598.158 -1.523 3.95703 0
M  V30 6344 C 596.617 -2.13776 2.60387 0
M  V30 6345 O 597.147 -3.21869 2.4034 0
M  V30 6346 N 595.353 -1.89733 2.20113 0
M  V30 6347 H 594.9 -1.01833 2.36618 0
M  V30 6348 H 594.858 -2.62572 1.72926 0
M  V30 6349 N 598.631 -1.53133 0.372548 0
M  V30 6350 C 599.88 -2.00539 -0.216115 0
M  V30 6351 C 600.193 -1.26374 -1.49295 0
M  V30 6352 O 601.399 -1.64404 -2.16064 0
M  V30 6353 C 599.855 -3.57253 -0.435678 0
M  V30 6354 C 599.463 -4.40302 0.82693 0
M  V30 6355 C 601.207 -4.12995 -0.981618 0
M  V30 6356 C 599.114 -5.88583 0.576567 0
M  V30 6357 H 598.044 -0.749246 -0.084536 0
M  V30 6358 H 600.695 -1.76771 0.492364 0
M  V30 6359 H 599.077 -3.77202 -1.20559 0
M  V30 6360 H 600.251 -4.32124 1.60017 0
M  V30 6361 H 598.566 -3.95699 1.29659 0
M  V30 6362 H 601.163 -5.21418 -1.18436 0
M  V30 6363 H 601.506 -3.68027 -1.94581 0
M  V30 6364 H 602.039 -3.96871 -0.271696 0
M  V30 6365 H 598.778 -6.37841 1.51128 0
M  V30 6366 H 598.298 -5.99592 -0.158047 0
M  V30 6367 H 599.977 -6.46676 0.204722 0
M  V30 6368 N 600.109 -0.101901 -1.5727 0
M  V30 6369 C 601.072 0.840129 -2.13247 0
M  V30 6370 C 602.072 1.20625 -1.06331 0
M  V30 6371 O 603.262 1.13456 -1.32186 0
M  V30 6372 C 600.394 2.13372 -2.65867 0
M  V30 6373 H 601.587 0.353945 -2.97804 0
M  V30 6374 H 599.14 0.147167 -1.55606 0
M  V30 6375 H 599.875 2.66461 -1.84849 0
M  V30 6376 H 599.66 1.88085 -3.44044 0
M  V30 6377 H 601.15 2.80748 -3.09145 0
M  V30 6378 N 601.587 1.56661 0.17182 0
M  V30 6379 C 602.537 1.92781 1.21736 0
M  V30 6380 C 603.521 0.796065 1.39827 0
M  V30 6381 O 604.713 1.05924 1.41806 0
M  V30 6382 C 601.842 2.29079 2.55691 0
M  V30 6383 C 600.928 3.48765 2.41296 0
M  V30 6384 N 601.319 4.66022 1.96614 0
M  V30 6385 C 599.617 3.53362 2.72124 0
M  V30 6386 C 600.318 5.48159 1.94669 0
M  V30 6387 N 599.294 4.89189 2.37054 0
M  V30 6388 H 603.096 2.80926 0.863592 0
M  V30 6389 H 600.61 1.57889 0.380096 0
M  V30 6390 H 602.607 2.5315 3.31241 0
M  V30 6391 H 601.267 1.42272 2.91871 0
M  V30 6392 H 602.278 4.9025 1.66959 0
M  V30 6393 H 598.955 2.77033 3.12345 0
M  V30 6394 H 600.345 6.52121 1.61826 0
M  V30 6395 N 603.065 -0.440357 1.51323 0
M  V30 6396 C 603.997 -1.55254 1.68609 0
M  V30 6397 C 605.01 -1.52614 0.566812 0
M  V30 6398 O 606.199 -1.57445 0.841032 0
M  V30 6399 C 603.299 -2.94169 1.68279 0
M  V30 6400 C 602.472 -3.21346 2.96742 0
M  V30 6401 C 601.531 -4.3997 2.8864 0
M  V30 6402 O 600.557 -4.38771 3.62586 0
M  V30 6403 N 601.759 -5.43367 2.04285 0
M  V30 6404 H 604.524 -1.40831 2.6455 0
M  V30 6405 H 602.085 -0.629251 1.49171 0
M  V30 6406 H 604.077 -3.71543 1.60431 0
M  V30 6407 H 602.647 -3.02205 0.799441 0
M  V30 6408 H 601.867 -2.32299 3.18482 0
M  V30 6409 H 603.155 -3.3633 3.81785 0
M  V30 6410 H 602.553 -5.47176 1.43578 0
M  V30 6411 H 601.11 -6.19605 2.02318 0
M  V30 6412 N 604.543 -1.41418 -0.695603 0
M  V30 6413 C 605.789 -1.40982 -1.4578 0
M  V30 6414 C 606.122 -0.0187763 -1.94191 0
M  V30 6415 O 605.397 0.95346 -1.69527 0
M  V30 6416 C 605.68 -2.41657 -2.66972 0
M  V30 6417 C 605.533 -3.89869 -2.24327 0
M  V30 6418 C 606.852 -2.39589 -3.69168 0
M  V30 6419 H 603.971 -0.513405 -0.528757 0
M  V30 6420 H 606.613 -1.72693 -0.792275 0
M  V30 6421 H 604.763 -2.14746 -3.23754 0
M  V30 6422 H 606.435 -4.27683 -1.72872 0
M  V30 6423 H 604.678 -4.04737 -1.56111 0
M  V30 6424 H 605.349 -4.55857 -3.11285 0
M  V30 6425 H 607.825 -2.63471 -3.2206 0
M  V30 6426 H 606.701 -3.12044 -4.51575 0
M  V30 6427 H 606.962 -1.41447 -4.18862 0
M  V30 6428 N 606.021 0.929856 -1.27246 0
M  V30 6429 C 606.968 2.03017 -1.09785 0
M  V30 6430 C 607.938 1.661 0.000456744 0
M  V30 6431 O 609.123 1.90116 -0.161462 0
M  V30 6432 C 606.263 3.36878 -0.748816 0
M  V30 6433 C 605.376 3.86763 -1.92453 0
M  V30 6434 C 604.511 5.09061 -1.51758 0
M  V30 6435 C 603.55 5.51237 -2.66091 0
M  V30 6436 N 602.687 6.64732 -2.25999 0
M  V30 6437 H 607.527 2.17285 -2.03939 0
M  V30 6438 H 605.064 1.06448 -1.01524 0
M  V30 6439 H 607.022 4.13855 -0.527283 0
M  V30 6440 H 605.652 3.22424 0.155771 0
M  V30 6441 H 604.704 3.06086 -2.25867 0
M  V30 6442 H 606.016 4.13994 -2.78227 0
M  V30 6443 H 605.17 5.93532 -1.25716 0
M  V30 6444 H 603.909 4.83602 -0.630896 0
M  V30 6445 H 602.914 4.65316 -2.92849 0
M  V30 6446 H 604.139 5.78692 -3.55377 0
M  V30 6447 H 602.085 6.40935 -1.3978 0
M  V30 6448 H 602.002 6.91607 -3.05313 0
M  V30 6449 H 603.27 7.52549 -2.03199 0
M  V30 6450 N 607.499 1.09233 1.13605 0
M  V30 6451 C 608.446 0.729921 2.18954 0
M  V30 6452 C 609.416 -0.287916 1.63586 0
M  V30 6453 O 610.601 -0.170003 1.90041 0
M  V30 6454 C 607.741 0.154489 3.44754 0
M  V30 6455 C 606.854 1.22613 4.14234 0
M  V30 6456 C 605.989 0.613657 5.27644 0
M  V30 6457 C 605.028 1.66674 5.8897 0
M  V30 6458 N 604.165 1.07545 6.93814 0
M  V30 6459 H 609.005 1.63257 2.49302 0
M  V30 6460 H 606.542 0.815693 1.22413 0
M  V30 6461 H 608.5 -0.196923 4.16735 0
M  V30 6462 H 607.13 -0.711433 3.14863 0
M  V30 6463 H 606.182 1.69485 3.40557 0
M  V30 6464 H 607.494 2.0238 4.55899 0
M  V30 6465 H 606.648 0.210976 6.06333 0
M  V30 6466 H 605.387 -0.215584 4.87223 0
M  V30 6467 H 604.392 2.07899 5.08978 0
M  V30 6468 H 605.617 2.49861 6.31464 0
M  V30 6469 H 603.563 0.267451 6.55455 0
M  V30 6470 H 603.48 1.81011 7.3401 0
M  V30 6471 H 604.748 0.698906 7.7636 0
M  V30 6472 N 608.977 -1.30795 0.87923 0
M  V30 6473 C 609.91 -2.26396 0.286404 0
M  V30 6474 C 610.888 -1.51528 -0.589748 0
M  V30 6475 O 612.072 -1.80566 -0.541119 0
M  V30 6476 C 609.199 -3.33458 -0.593581 0
M  V30 6477 C 608.245 -4.2597 0.21247 0
M  V30 6478 S 609.078 -5.11132 1.59702 0
M  V30 6479 C 610.234 -6.21705 0.723408 0
M  V30 6480 H 610.467 -2.7633 1.09677 0
M  V30 6481 H 608 -1.38703 0.678305 0
M  V30 6482 H 609.958 -3.9561 -1.09557 0
M  V30 6483 H 608.619 -2.82259 -1.37799 0
M  V30 6484 H 607.812 -5.01907 -0.458822 0
M  V30 6485 H 607.414 -3.68363 0.646883 0
M  V30 6486 H 609.706 -6.77472 -0.0620739 0
M  V30 6487 H 610.649 -6.93007 1.4542 0
M  V30 6488 H 611.057 -5.63771 0.286855 0
M  V30 6489 N 610.455 -0.639598 -1.44038 0
M  V30 6490 C 611.403 0.0723409 -2.32487 0
M  V30 6491 C 612.397 0.827129 -1.47834 0
M  V30 6492 O 613.603 0.73907 -1.64127 0
M  V30 6493 H 609.978 0.0421696 -0.750817 0
M  V30 6494 H 611.949 -0.691593 -2.90275 0
M  V30 6495 C 610.698 1.03452 -3.31953 0
M  V30 6496 H 610.021 0.46315 -3.97108 0
M  V30 6497 H 611.461 1.502 -3.96505 0
M  V30 6498 C 609.92 2.12392 -2.61518 0
M  V30 6499 O 610.45 3.2059 -2.42044 0
M  V30 6500 N 608.656 1.88563 -2.21116 0
M  V30 6501 H 608.203 1.00577 -2.37154 0
M  V30 6502 H 608.161 2.61651 -1.74316 0
M  V30 6503 N 611.933 1.52934 -0.380664 0
M  V30 6504 C 612.866 2.22597 0.502564 0
M  V30 6505 C 613.844 1.22345 1.071 0
M  V30 6506 O 615.028 1.51302 1.12428 0
M  V30 6507 C 612.155 2.93246 1.69482 0
M  V30 6508 C 611.201 4.07696 1.25244 0
M  V30 6509 S 612.034 5.34957 0.241159 0
M  V30 6510 C 613.19 6.09124 1.4394 0
M  V30 6511 H 613.423 2.97167 -0.089029 0
M  V30 6512 H 610.956 1.53518 -0.164817 0
M  V30 6513 H 612.914 3.34562 2.37863 0
M  V30 6514 H 611.575 2.18373 2.2577 0
M  V30 6515 H 610.768 4.56199 2.1424 0
M  V30 6516 H 610.37 3.68349 0.647664 0
M  V30 6517 H 612.662 6.34771 2.36794 0
M  V30 6518 H 613.605 7.01068 0.995464 0
M  V30 6519 H 614.013 5.39777 1.65229 0
M  V30 6520 N 613.412 0.11024 1.57214 0
M  V30 6521 C 614.689 -0.592956 1.86396 0
M  V30 6522 C 615.069 -1.85379 1.00985 0
M  V30 6523 O 614.417 -2.28337 0.0863592 0
M  V30 6524 C 614.627 -0.893816 3.3736 0
M  V30 6525 C 615.975 -1.25069 4.05762 0
M  V30 6526 O 616.999 -0.984356 3.42329 0
M  V30 6527 O 615.858 -1.75017 5.17718 0
M  V30 6528 H 612.952 -0.29828 0.771335 0
M  V30 6529 H 615.498 0.144083 1.69087 0
M  V30 6530 H 614.27 2.6031e-05 3.913 0
M  V30 6531 H 613.893 -1.68631 3.60068 0
M  V30 6532 N 614.89 -1.56749 -0.16351 0
M  V30 6533 C 616.138 -1.82074 -0.87713 0
M  V30 6534 C 616.459 -0.688503 -1.82441 0
M  V30 6535 O 615.729 0.291085 -1.93725 0
M  V30 6536 H 614.309 -0.671677 -0.326893 0
M  V30 6537 H 616.971 -1.9423 -0.161459 0
M  V30 6538 H 616.067 -2.76407 -1.44934 0
M  V30 6539 N 616.368 0.432326 -1.51554 0
M  V30 6540 C 617.614 1.18309 -1.64714 0
M  V30 6541 C 617.947 1.90745 -0.364696 0
M  V30 6542 O 617.222 1.8381 0.635936 0
M  V30 6543 C 617.505 2.1961 -2.85383 0
M  V30 6544 C 617.358 1.51223 -4.23617 0
M  V30 6545 C 618.677 3.20538 -3.01569 0
M  V30 6546 H 615.796 0.428751 -0.599451 0
M  V30 6547 H 618.438 0.471689 -1.84052 0
M  V30 6548 H 616.588 2.8028 -2.69027 0
M  V30 6549 H 618.26 0.938516 -4.51652 0
M  V30 6550 H 616.503 0.814501 -4.26085 0
M  V30 6551 H 617.174 2.25024 -5.04052 0
M  V30 6552 H 619.65 2.69926 -3.16669 0
M  V30 6553 H 618.526 3.88706 -3.87555 0
M  V30 6554 H 618.787 3.86933 -2.13859 0
M  V30 6555 N 617.846 1.41785 0.688094 0
M  V30 6556 C 619.262 1.24419 0.999608 0
M  V30 6557 C 619.462 0.138868 2.01021 0
M  V30 6558 O 618.518 -0.494283 2.47615 0
M  V30 6559 C 619.831 2.59625 1.51709 0
M  V30 6560 C 621.379 2.66869 1.63554 0
M  V30 6561 C 621.854 4.0241 2.18702 0
M  V30 6562 N 623.345 4.04295 2.26053 0
M  V30 6563 C 624.08 5.05977 2.69768 0
M  V30 6564 N 623.576 6.18047 3.13033 0
M  V30 6565 N 625.369 4.93336 2.69398 0
M  V30 6566 H 617.52 2.12392 0.0187427 0
M  V30 6567 H 619.783 0.945347 0.0708673 0
M  V30 6568 H 619.489 3.41297 0.849059 0
M  V30 6569 H 619.363 2.82628 2.49803 0
M  V30 6570 H 621.75 1.8555 2.29467 0
M  V30 6571 H 621.831 2.47668 0.639857 0
M  V30 6572 H 621.475 4.8418 1.53402 0
M  V30 6573 H 621.405 4.18955 3.19037 0
M  V30 6574 H 623.896 3.23383 1.9553 0
M  V30 6575 H 624.209 6.91498 3.45038 0
M  V30 6576 H 622.554 6.21572 3.10923 0
M  V30 6577 H 625.745 4.04865 2.34952 0
M  V30 6578 H 625.918 5.72717 3.03148 0
M  V30 6579 N 619.324 -0.923095 1.27737 0
M  V30 6580 C 620.274 -2.01061 1.0751 0
M  V30 6581 C 621.258 -1.609 0.00165451 0
M  V30 6582 O 622.45 -1.75618 0.220724 0
M  V30 6583 C 619.579 -3.35467 0.729162 0
M  V30 6584 C 618.665 -3.82059 1.84098 0
M  V30 6585 N 619.056 -4.01115 3.08124 0
M  V30 6586 C 617.354 -4.11135 1.7287 0
M  V30 6587 C 618.055 -4.39989 3.80506 0
M  V30 6588 N 617.031 -4.47721 3.08297 0
M  V30 6589 H 620.833 -2.13832 2.01626 0
M  V30 6590 H 618.347 -1.11027 1.18519 0
M  V30 6591 H 620.344 -4.13049 0.565355 0
M  V30 6592 H 619.004 -3.24056 -0.204334 0
M  V30 6593 H 620.015 -3.87294 3.43836 0
M  V30 6594 H 616.692 -4.08412 0.866352 0
M  V30 6595 H 618.082 -4.62773 4.87125 0
M  V30 6596 N 620.802 -1.09834 -1.13024 0
M  V30 6597 C 622.051 -0.831806 -1.83749 0
M  V30 6598 C 622.364 0.644763 -1.84668 0
M  V30 6599 O 623.57 1.02697 -2.51327 0
M  V30 6600 C 622.026 -1.43817 -3.29916 0
M  V30 6601 C 621.634 -2.94759 -3.37374 0
M  V30 6602 C 623.378 -1.25077 -4.05655 0
M  V30 6603 C 621.285 -3.48461 -4.77838 0
M  V30 6604 H 620.215 -0.30751 -0.688443 0
M  V30 6605 H 622.866 -1.32156 -1.27307 0
M  V30 6606 H 621.248 -0.876106 -3.86187 0
M  V30 6607 H 622.422 -3.57228 -2.91076 0
M  V30 6608 H 620.737 -3.12581 -2.75103 0
M  V30 6609 H 623.334 -1.62649 -5.09362 0
M  V30 6610 H 623.677 -0.191782 -4.15858 0
M  V30 6611 H 624.21 -1.78057 -3.55725 0
M  V30 6612 H 620.949 -4.53998 -4.72828 0
M  V30 6613 H 620.469 -2.90757 -5.24615 0
M  V30 6614 H 622.148 -3.45914 -5.46766 0
M  V30 6615 N 622.28 1.30327 -0.886154 0
M  V30 6616 C 623.696 1.48676 -0.580323 0
M  V30 6617 C 623.896 1.81189 0.881639 0
M  V30 6618 O 622.952 1.90021 1.66278 0
M  V30 6619 C 624.265 2.60932 -1.49449 0
M  V30 6620 C 625.813 2.74812 -1.49824 0
M  V30 6621 C 626.288 3.90183 -2.39836 0
M  V30 6622 N 627.779 3.97495 -2.37806 0
M  V30 6623 C 628.514 4.86078 -3.04165 0
M  V30 6624 N 628.01 5.79448 -3.79753 0
M  V30 6625 N 629.803 4.79456 -2.93391 0
M  V30 6626 H 621.954 1.07495 -1.8319 0
M  V30 6627 H 624.217 0.532661 -0.784204 0
M  V30 6628 H 623.923 2.43731 -2.5355 0
M  V30 6629 H 623.797 3.57437 -1.20494 0
M  V30 6630 H 626.184 2.91418 -0.464731 0
M  V30 6631 H 626.265 1.78924 -1.82811 0
M  V30 6632 H 625.909 3.74334 -3.43273 0
M  V30 6633 H 625.839 4.85411 -2.04166 0
M  V30 6634 H 628.33 3.30703 -1.82877 0
M  V30 6635 H 628.643 6.43805 -4.27475 0
M  V30 6636 H 626.988 5.79376 -3.8386 0
M  V30 6637 H 630.179 4.05494 -2.33864 0
M  V30 6638 H 630.352 5.48283 -3.45383 0
M  V30 6639 N 623.758 0.647228 1.43697 0
M  V30 6640 C 625.035 0.0883758 1.954 0
M  V30 6641 C 625.415 -1.39006 1.58873 0
M  V30 6642 O 624.763 -2.11255 0.87083 0
M  V30 6643 C 624.973 0.328263 3.47453 0
M  V30 6644 C 626.321 0.230009 4.23977 0
M  V30 6645 O 627.345 0.260496 3.55246 0
M  V30 6646 O 626.204 0.148615 5.46298 0
M  V30 6647 H 623.298 -0.0130683 0.826897 0
M  V30 6648 H 625.844 0.72005 1.53666 0
M  V30 6649 H 624.616 1.3535 3.67146 0
M  V30 6650 H 624.239 -0.336772 3.96171 0
M  V30 6651 N 625.236 -1.5273 0.388769 0
M  V30 6652 C 626.652 -1.59553 0.0387049 0
M  V30 6653 C 626.852 -1.40278 -1.44652 0
M  V30 6654 O 625.908 -1.21951 -2.21098 0
M  V30 6655 C 627.221 -2.9625 0.515409 0
M  V30 6656 C 628.769 -3.09426 0.471621 0
M  V30 6657 C 629.244 -4.48572 0.924505 0
M  V30 6658 N 630.735 -4.54754 0.880496 0
M  V30 6659 C 631.47 -5.60653 1.20234 0
M  V30 6660 N 630.966 -6.74198 1.59463 0
M  V30 6661 N 632.759 -5.50755 1.12363 0
M  V30 6662 H 624.91 -1.63508 1.35569 0
M  V30 6663 H 627.173 -0.768097 0.555636 0
M  V30 6664 H 626.879 -3.15569 1.5527 0
M  V30 6665 H 626.753 -3.77102 -0.085792 0
M  V30 6666 H 629.14 -2.89804 -0.556588 0
M  V30 6667 H 629.221 -2.30528 1.10862 0
M  V30 6668 H 628.865 -4.68936 1.95094 0
M  V30 6669 H 628.795 -5.25935 0.264524 0
M  V30 6670 H 631.286 -3.73237 0.591815 0
M  V30 6671 H 631.599 -7.5097 1.82385 0
M  V30 6672 H 629.944 -6.75531 1.63349 0
M  V30 6673 H 633.135 -4.6093 0.816169 0
M  V30 6674 H 633.308 -6.33184 1.37777 0
M  V30 6675 N 626.714 -0.118576 -1.57153 0
M  V30 6676 C 627.961 0.539526 -1.9518 0
M  V30 6677 C 628.289 1.66714 -1.00184 0
M  V30 6678 O 627.544 1.95683 -0.0256482 0
M  V30 6679 C 627.843 1.11303 -3.39627 0
M  V30 6680 C 627.509 0.106809 -4.50773 0
M  V30 6681 C 626.171 -0.169876 -4.809 0
M  V30 6682 C 628.523 -0.57895 -5.17975 0
M  V30 6683 C 625.851 -1.13861 -5.75545 0
M  V30 6684 C 628.203 -1.53631 -6.13661 0
M  V30 6685 C 626.867 -1.82099 -6.42181 0
M  V30 6686 H 626.137 0.197427 -0.714215 0
M  V30 6687 H 628.784 -0.199391 -1.90459 0
M  V30 6688 H 627.089 1.92869 -3.4104 0
M  V30 6689 H 628.786 1.63032 -3.66363 0
M  V30 6690 H 625.376 0.332645 -4.27307 0
M  V30 6691 H 629.56 -0.378359 -4.94856 0
M  V30 6692 H 624.816 -1.36592 -5.95947 0
M  V30 6693 H 628.99 -2.07337 -6.64819 0
M  V30 6694 H 626.617 -2.57319 -7.15326 0
M  V30 6695 N 628.193 1.56834 0.155195 0
M  V30 6696 C 629.141 1.98584 1.21107 0
M  V30 6697 C 630.135 0.876987 1.44932 0
M  V30 6698 O 631.341 1.06215 1.45322 0
M  V30 6699 H 627.716 0.632039 0.407469 0
M  V30 6700 H 629.687 2.86561 0.832195 0
M  V30 6701 C 628.436 2.37555 2.53895 0
M  V30 6702 H 627.759 3.22428 2.3639 0
M  V30 6703 H 629.199 2.70598 3.26424 0
M  V30 6704 C 627.658 1.22507 3.13837 0
M  V30 6705 O 628.188 0.521388 3.98302 0
M  V30 6706 N 626.394 0.991444 2.73164 0
M  V30 6707 H 625.941 1.56544 2.04577 0
M  V30 6708 H 625.899 0.223546 3.13604 0
M  V30 6709 N 629.671 -0.424282 1.51781 0
M  V30 6710 C 630.917 -1.17434 1.6534 0
M  V30 6711 C 631.25 -1.90549 0.374806 0
M  V30 6712 O 630.525 -1.84145 -0.626179 0
M  V30 6713 C 630.808 -2.18093 2.86544 0
M  V30 6714 C 630.661 -1.48975 4.24413 0
M  V30 6715 C 631.98 -3.18934 3.03264 0
M  V30 6716 H 629.099 -0.425566 0.601716 0
M  V30 6717 H 631.741 -0.461921 1.84299 0
M  V30 6718 H 629.891 -2.78849 2.7051 0
M  V30 6719 H 631.563 -0.914551 4.52143 0
M  V30 6720 H 629.806 -0.791893 4.26511 0
M  V30 6721 H 630.477 -2.22347 5.05238 0
M  V30 6722 H 632.953 -2.68243 3.18096 0
M  V30 6723 H 631.829 -3.86645 3.89611 0
M  V30 6724 H 632.09 -3.85793 2.15908 0
M  V30 6725 N 631.149 -1.42148 -0.680565 0
M  V30 6726 C 632.56 -1.3768 -1.26099 0
M  V30 6727 C 632.911 -0.0672348 -1.96085 0
M  V30 6728 O 632.036 0.834172 -1.99676 0
M  V30 6729 C 632.631 -2.49387 -2.29328 0
M  V30 6730 C 631.19 -2.4827 -2.82911 0
M  V30 6731 C 630.337 -2.2847 -1.57152 0
M  V30 6732 H 633.288 -1.51446 -0.474326 0
M  V30 6733 H 633.309 -2.19307 -3.10941 0
M  V30 6734 H 632.821 -3.44686 -1.78363 0
M  V30 6735 H 630.922 -1.56773 -3.38013 0
M  V30 6736 H 631.035 -3.45109 -3.3232 0
M  V30 6737 H 629.399 -1.76623 -1.83511 0
M  V30 6738 H 630.182 -3.25816 -1.0816 0
M  V30 6739 N 632.627 0.916307 -1.28225 0
M  V30 6740 C 633.873 1.66765 -1.154 0
M  V30 6741 C 634.206 1.91912 0.297251 0
M  V30 6742 O 633.481 1.51766 1.21644 0
M  V30 6743 C 633.764 3.02715 -1.95028 0
M  V30 6744 C 633.617 2.84738 -3.48201 0
M  V30 6745 C 634.936 4.03215 -1.76369 0
M  V30 6746 H 632.055 0.605205 -0.42059 0
M  V30 6747 H 634.697 1.06255 -1.57512 0
M  V30 6748 H 632.847 3.54365 -1.59242 0
M  V30 6749 H 634.519 2.40118 -3.9388 0
M  V30 6750 H 632.762 2.19848 -3.73964 0
M  V30 6751 H 633.433 3.8127 -3.99171 0
M  V30 6752 H 635.909 3.60617 -2.07593 0
M  V30 6753 H 634.785 4.96306 -2.34459 0
M  V30 6754 H 635.046 4.36288 -0.71452 0
M  V30 6755 N 634.105 1.10431 1.1244 0
M  V30 6756 C 635.33 0.869089 1.88313 0
M  V30 6757 C 635.755 -0.574912 1.79099 0
M  V30 6758 O 635.113 -1.40496 1.14589 0
M  V30 6759 C 635.161 1.32208 3.3549 0
M  V30 6760 O 634.265 0.487092 4.09513 0
M  V30 6761 H 633.606 0.313894 0.585121 0
M  V30 6762 H 636.136 1.47111 1.42195 0
M  V30 6763 H 636.146 1.31201 3.86329 0
M  V30 6764 H 634.821 2.37364 3.41513 0
M  V30 6765 H 633.398 0.562372 3.68635 0
M  V30 6766 N 635.583 -1.29855 0.893053 0
M  V30 6767 C 636.86 -1.90694 0.435336 0
M  V30 6768 C 637.24 -1.8111 -1.08454 0
M  V30 6769 O 636.588 -1.23352 -1.92345 0
M  V30 6770 C 636.798 -3.36033 0.942472 0
M  V30 6771 C 638.146 -4.13083 0.982226 0
M  V30 6772 O 639.17 -3.4491 0.889686 0
M  V30 6773 O 638.029 -5.34896 1.12022 0
M  V30 6774 H 635.123 -0.815978 0.134567 0
M  V30 6775 H 637.669 -1.38367 0.982484 0
M  V30 6776 H 636.441 -3.37132 1.9864 0
M  V30 6777 H 636.064 -3.95828 0.374952 0
M  V30 6778 N 637.061 -0.65484 -1.43351 0
M  V30 6779 C 638.024 0.0263562 -2.29185 0
M  V30 6780 C 639.024 0.748951 -1.42293 0
M  V30 6781 O 640.214 0.589957 -1.63906 0
M  V30 6782 C 637.346 1.04806 -3.2439 0
M  V30 6783 H 638.539 -0.728883 -2.90908 0
M  V30 6784 H 636.092 -0.416149 -1.50658 0
M  V30 6785 H 636.827 1.83247 -2.67565 0
M  V30 6786 H 636.612 0.533554 -3.88453 0
M  V30 6787 H 638.102 1.52372 -3.88809 0
M  V30 6788 N 638.539 1.52521 -0.396863 0
M  V30 6789 C 639.816 1.94112 0.240842 0
M  V30 6790 C 640.196 1.33288 1.637 0
M  V30 6791 O 639.544 0.503901 2.22875 0
M  V30 6792 C 639.754 3.48033 0.259567 0
M  V30 6793 C 641.102 4.21822 0.484866 0
M  V30 6794 O 642.126 3.54579 0.339453 0
M  V30 6795 O 640.985 5.41042 0.770412 0
M  V30 6796 H 638.079 0.812973 0.151671 0
M  V30 6797 H 640.625 1.63572 -0.451918 0
M  V30 6798 H 639.397 3.84655 -0.718078 0
M  V30 6799 H 639.02 3.84899 0.996937 0
M  V30 6800 N 640.017 0.126909 1.57088 0
M  V30 6801 C 641.266 -0.529024 1.94639 0
M  V30 6802 C 641.579 -1.67323 1.01304 0
M  V30 6803 O 642.785 -2.39245 1.28352 0
M  V30 6804 C 641.241 -0.992483 3.45945 0
M  V30 6805 C 640.849 0.123691 4.47829 0
M  V30 6806 C 642.593 -1.61934 3.924 0
M  V30 6807 C 640.5 -0.356911 5.90322 0
M  V30 6808 H 639.43 -0.201397 0.726605 0
M  V30 6809 H 642.081 0.208032 1.82317 0
M  V30 6810 H 640.463 -1.7842 3.53528 0
M  V30 6811 H 641.637 0.900168 4.51922 0
M  V30 6812 H 639.952 0.657699 4.11173 0
M  V30 6813 H 642.549 -1.9902 4.96281 0
M  V30 6814 H 642.892 -2.50075 3.32819 0
M  V30 6815 H 643.425 -0.892894 3.8765 0
M  V30 6816 H 640.164 0.488636 6.53676 0
M  V30 6817 H 639.684 -1.0997 5.89633 0
M  V30 6818 H 641.363 -0.815547 6.41839 0
M  V30 6819 N 641.495 -1.56914 -0.146875 0
M  V30 6820 C 642.405 -2.0154 -1.20079 0
M  V30 6821 C 643.421 -0.930838 -1.47008 0
M  V30 6822 O 644.597 -1.24032 -1.58676 0
M  V30 6823 C 641.662 -2.38715 -2.51428 0
M  V30 6824 C 640.723 -3.6112 -2.32145 0
M  V30 6825 C 639.956 -3.96512 -3.57231 0
M  V30 6826 O 640.179 -3.32566 -4.63418 0
M  V30 6827 O 639.113 -4.89758 -3.49887 0
M  V30 6828 H 642.939 -2.91506 -0.851924 0
M  V30 6829 H 640.524 -1.45106 -0.355607 0
M  V30 6830 H 642.406 -2.63485 -3.28867 0
M  V30 6831 H 641.081 -1.51903 -2.85845 0
M  V30 6832 H 639.988 -3.41536 -1.52656 0
M  V30 6833 H 641.321 -4.48549 -2.02644 0
M  V30 6834 N 642.974 0.416227 -1.52004 0
M  V30 6835 C 643.921 1.50666 -1.74838 0
M  V30 6836 C 644.891 1.55245 -0.590599 0
M  V30 6837 O 646.076 1.71928 -0.827374 0
M  V30 6838 C 643.216 2.88185 -1.89851 0
M  V30 6839 C 642.329 2.92971 -3.17478 0
M  V30 6840 C 641.464 4.21745 -3.22962 0
M  V30 6841 C 640.503 4.20478 -4.4482 0
M  V30 6842 N 639.64 5.40811 -4.47736 0
M  V30 6843 H 644.48 1.30498 -2.67907 0
M  V30 6844 H 642.017 0.633568 -1.32757 0
M  V30 6845 H 643.975 3.68007 -1.96537 0
M  V30 6846 H 642.605 3.06865 -1.00169 0
M  V30 6847 H 641.657 2.05684 -3.19997 0
M  V30 6848 H 642.969 2.87899 -4.07328 0
M  V30 6849 H 642.123 5.09954 -3.28682 0
M  V30 6850 H 640.862 4.29503 -2.31038 0
M  V30 6851 H 639.867 3.30659 -4.39254 0
M  V30 6852 H 641.092 4.14366 -5.38031 0
M  V30 6853 H 639.038 5.4925 -3.58692 0
M  V30 6854 H 638.955 5.37705 -5.31422 0
M  V30 6855 H 640.223 6.30993 -4.57676 0
M  V30 6856 N 644.452 1.42507 0.673017 0
M  V30 6857 C 645.382 1.48916 1.79851 0
M  V30 6858 C 646.363 0.345566 1.66553 0
M  V30 6859 O 647.548 0.560116 1.85947 0
M  V30 6860 C 644.678 1.39258 3.18158 0
M  V30 6861 C 643.632 2.51662 3.46194 0
M  V30 6862 C 642.958 2.27062 4.84094 0
M  V30 6863 C 644.258 3.93968 3.42909 0
M  V30 6864 H 645.952 2.43114 1.74745 0
M  V30 6865 H 643.498 1.17013 0.839288 0
M  V30 6866 H 645.451 1.42349 3.96629 0
M  V30 6867 H 644.175 0.415542 3.23946 0
M  V30 6868 H 642.834 2.47891 2.70084 0
M  V30 6869 H 642.482 1.27648 4.86534 0
M  V30 6870 H 642.182 3.02398 5.03815 0
M  V30 6871 H 643.706 2.31905 5.64847 0
M  V30 6872 H 645.12 3.99332 4.11347 0
M  V30 6873 H 643.517 4.6917 3.74165 0
M  V30 6874 H 644.587 4.20512 2.41449 0
M  V30 6875 N 645.93 -0.909495 1.28709 0
M  V30 6876 C 647.341 -1.47419 1.14563 0
M  V30 6877 C 647.692 -1.94432 -0.262832 0
M  V30 6878 O 646.817 -1.82842 -1.15748 0
M  V30 6879 C 647.412 -2.67933 2.07358 0
M  V30 6880 C 645.971 -3.20568 1.97264 0
M  V30 6881 C 645.118 -1.93269 1.98852 0
M  V30 6882 H 648.069 -0.721787 1.41336 0
M  V30 6883 H 648.09 -3.43339 1.64007 0
M  V30 6884 H 647.602 -2.33685 3.09859 0
M  V30 6885 H 645.703 -3.59531 0.978157 0
M  V30 6886 H 645.816 -3.85529 2.84436 0
M  V30 6887 H 644.18 -2.10553 1.43317 0
M  V30 6888 H 644.963 -1.61312 3.0304 0
M  V30 6889 N 647.408 -1.11026 -1.11852 0
M  V30 6890 C 648.638 -0.877544 -1.87037 0
M  V30 6891 C 649.046 0.575925 -1.80221 0
M  V30 6892 O 648.389 1.40916 -1.17849 0
M  V30 6893 C 648.451 -1.25529 -3.36872 0
M  V30 6894 C 648.115 -2.71704 -3.67459 0
M  V30 6895 C 649.112 -3.69931 -3.65304 0
M  V30 6896 C 646.797 -3.08243 -3.966 0
M  V30 6897 C 648.791 -5.02717 -3.9186 0
M  V30 6898 C 646.478 -4.41215 -4.22815 0
M  V30 6899 C 647.476 -5.38262 -4.20432 0
M  V30 6900 O 647.164 -6.68839 -4.45992 0
M  V30 6901 H 646.896 -0.314374 -0.598452 0
M  V30 6902 H 649.45 -1.48015 -1.42411 0
M  V30 6903 H 647.68 -0.595808 -3.82082 0
M  V30 6904 H 649.369 -0.999064 -3.93413 0
M  V30 6905 H 650.135 -3.43047 -3.42846 0
M  V30 6906 H 646.014 -2.33326 -3.97593 0
M  V30 6907 H 649.558 -5.78456 -3.89916 0
M  V30 6908 H 645.455 -4.67835 -4.44748 0
M  V30 6909 H 646.223 -6.74563 -4.63581 0
M  V30 6910 N 648.886 1.2938 -0.899927 0
M  V30 6911 C 650.135 1.9483 -0.521937 0
M  V30 6912 C 650.448 1.71725 0.936473 0
M  V30 6913 O 651.654 2.31282 1.42199 0
M  V30 6914 C 650.11 3.48911 -0.88255 0
M  V30 6915 C 649.718 3.80815 -2.35974 0
M  V30 6916 C 651.462 4.20595 -0.57448 0
M  V30 6917 C 649.369 5.28142 -2.66121 0
M  V30 6918 H 648.299 0.729285 -0.191468 0
M  V30 6919 H 650.95 1.47103 -1.09695 0
M  V30 6920 H 649.332 3.95293 -0.236459 0
M  V30 6921 H 650.506 3.45291 -3.05141 0
M  V30 6922 H 648.821 3.22271 -2.63686 0
M  V30 6923 H 651.418 5.29031 -0.776556 0
M  V30 6924 H 651.761 4.13442 0.487005 0
M  V30 6925 H 652.294 3.79945 -1.17842 0
M  V30 6926 H 649.033 5.4036 -3.71068 0
M  V30 6927 H 648.553 5.64913 -2.01578 0
M  V30 6928 H 650.232 5.95738 -2.52399 0
M  V30 6929 N 650.364 0.662433 1.43002 0
M  V30 6930 C 651.592 0.187615 2.06048 0
M  V30 6931 C 652.007 -1.15039 1.49705 0
M  V30 6932 O 651.364 -1.71209 0.631956 0
M  V30 6933 C 651.415 0.100498 3.6136 0
M  V30 6934 O 651.136 1.38562 4.15611 0
M  V30 6935 C 652.637 -0.399298 4.41498 0
M  V30 6936 H 649.857 0.0941675 0.664359 0
M  V30 6937 H 652.401 0.905681 1.83351 0
M  V30 6938 H 650.556 -0.568181 3.83211 0
M  V30 6939 H 650.97 1.25084 5.09366 0
M  V30 6940 H 652.444 -0.409187 5.50481 0
M  V30 6941 H 652.921 -1.43232 4.15188 0
M  V30 6942 H 653.527 0.23721 4.24638 0
M  V30 6943 N 651.842 -1.52309 0.404946 0
M  V30 6944 C 653.089 -2.01767 -0.1722 0
M  V30 6945 C 653.417 -1.29075 -1.45498 0
M  V30 6946 O 652.672 -0.3843 -1.9189 0
M  V30 6947 C 652.971 -3.54284 -0.470895 0
M  V30 6948 C 652.637 -4.45079 0.722194 0
M  V30 6949 C 651.299 -4.69617 1.04946 0
M  V30 6950 C 653.651 -4.98555 1.51962 0
M  V30 6951 C 650.979 -5.44878 2.17543 0
M  V30 6952 C 653.331 -5.75049 2.63632 0
M  V30 6953 C 651.995 -5.9786 2.9685 0
M  V30 6954 H 651.265 -0.738316 -0.0630125 0
M  V30 6955 H 653.912 -1.83566 0.545506 0
M  V30 6956 H 652.217 -3.70642 -1.27012 0
M  V30 6957 H 653.914 -3.90058 -0.930346 0
M  V30 6958 H 650.504 -4.26155 0.457131 0
M  V30 6959 H 654.688 -4.79509 1.28002 0
M  V30 6960 H 649.944 -5.60762 2.43631 0
M  V30 6961 H 654.118 -6.15483 3.25813 0
M  V30 6962 H 651.745 -6.5596 3.84215 0
M  V30 6963 N 653.32 -0.135238 -1.57019 0
M  V30 6964 C 654.731 0.387521 -1.82634 0
M  V30 6965 C 655.082 1.65528 -1.05332 0
M  V30 6966 O 654.207 2.14381 -0.294926 0
M  V30 6967 C 654.802 0.709852 -3.3128 0
M  V30 6968 C 653.361 1.17718 -3.57518 0
M  V30 6969 C 652.508 0.194183 -2.76619 0
M  V30 6970 H 655.459 -0.360126 -1.5456 0
M  V30 6971 H 655.48 1.5657 -3.46794 0
M  V30 6972 H 654.992 -0.213024 -3.87515 0
M  V30 6973 H 653.093 2.1164 -3.06658 0
M  V30 6974 H 653.206 1.11128 -4.66034 0
M  V30 6975 H 651.57 0.684478 -2.4533 0
M  V30 6976 H 652.353 -0.722076 -3.3562 0
M  V30 6977 N 654.798 1.5699 0.138552 0
M  V30 6978 C 655.708 2.02174 1.19008 0
M  V30 6979 C 656.724 0.938622 1.46512 0
M  V30 6980 O 657.9 1.24872 1.58016 0
M  V30 6981 C 654.965 2.40045 2.50159 0
M  V30 6982 C 654.026 3.62346 2.30226 0
M  V30 6983 C 653.259 3.98401 3.55123 0
M  V30 6984 O 653.482 3.35019 4.61647 0
M  V30 6985 O 652.416 4.91606 3.47285 0
M  V30 6986 H 656.242 2.91954 0.836452 0
M  V30 6987 H 653.827 1.45293 0.347907 0
M  V30 6988 H 655.709 2.65225 3.27465 0
M  V30 6989 H 654.384 1.53417 2.85035 0
M  V30 6990 H 653.291 3.42341 1.50843 0
M  V30 6991 H 654.624 4.49617 2.00262 0
M  V30 6992 N 656.276 -0.40816 1.52223 0
M  V30 6993 C 657.524 -1.15274 1.66001 0
M  V30 6994 C 657.845 -1.91003 0.392803 0
M  V30 6995 O 657.115 -1.8673 -0.592336 0
M  V30 6996 H 655.695 -0.428526 0.611861 0
M  V30 6997 H 658.357 -0.46512 1.89269 0
M  V30 6998 H 657.453 -1.86628 2.50153 0
M  V30 6999 N 657.755 -1.42862 -0.66545 0
M  V30 7000 C 658.98 -1.47456 -1.45848 0
M  V30 7001 C 659.405 -0.0900312 -1.87884 0
M  V30 7002 O 658.763 0.913587 -1.56599 0
M  V30 7003 C 658.811 -2.41514 -2.67774 0
M  V30 7004 O 657.915 -1.89296 -3.66389 0
M  V30 7005 H 657.256 -0.499236 -0.437789 0
M  V30 7006 H 659.786 -1.8765 -0.815394 0
M  V30 7007 H 659.796 -2.58409 -3.15735 0
M  V30 7008 H 658.471 -3.42099 -2.36519 0
M  V30 7009 H 657.048 -1.82003 -3.25468 0
M  V30 7010 N 659.233 0.902656 -1.29189 0
M  V30 7011 C 660.143 2.03946 -1.15944 0
M  V30 7012 C 661.159 1.738 -0.0833803 0
M  V30 7013 O 662.335 1.9923 -0.29487 0
M  V30 7014 C 659.4 3.36519 -0.834006 0
M  V30 7015 C 658.461 3.80203 -1.9936 0
M  V30 7016 C 657.694 5.06449 -1.68359 0
M  V30 7017 O 657.917 5.67202 -0.603141 0
M  V30 7018 O 656.851 5.46114 -2.53067 0
M  V30 7019 H 660.677 2.18043 -2.11403 0
M  V30 7020 H 658.262 1.02584 -1.08613 0
M  V30 7021 H 660.144 4.16089 -0.666949 0
M  V30 7022 H 658.819 3.23573 0.0908245 0
M  V30 7023 H 657.726 3.01413 -2.21588 0
M  V30 7024 H 659.059 3.97729 -2.89952 0
M  V30 7025 N 660.711 1.11618 1.11262 0
M  V30 7026 C 661.621 0.78898 2.20935 0
M  V30 7027 C 662.637 -0.21867 1.7262 0
M  V30 7028 O 663.813 -0.0543826 2.01327 0
M  V30 7029 C 660.878 0.239014 3.45875 0
M  V30 7030 C 659.939 1.3055 4.08968 0
M  V30 7031 C 659.172 0.781687 5.27944 0
M  V30 7032 O 659.395 -0.387605 5.69082 0
M  V30 7033 O 658.329 1.54734 5.81671 0
M  V30 7034 H 662.155 1.70477 2.51339 0
M  V30 7035 H 659.74 0.892203 1.19834 0
M  V30 7036 H 661.622 -0.0632312 4.21353 0
M  V30 7037 H 660.297 -0.649454 3.17118 0
M  V30 7038 H 659.204 1.66079 3.35214 0
M  V30 7039 H 660.537 2.16743 4.41909 0
M  V30 7040 N 662.189 -1.289 0.906776 0
M  V30 7041 C 663.139 -2.25122 0.361109 0
M  V30 7042 C 664.123 -1.52169 -0.52283 0
M  V30 7043 O 665.315 -1.73223 -0.363691 0
M  V30 7044 C 662.444 -3.40915 -0.403982 0
M  V30 7045 C 661.53 -4.21198 0.495279 0
M  V30 7046 N 661.921 -4.79636 1.60572 0
M  V30 7047 C 660.219 -4.45027 0.294372 0
M  V30 7048 C 660.92 -5.39977 2.16332 0
M  V30 7049 N 659.896 -5.23753 1.45546 0
M  V30 7050 H 663.698 -2.67869 1.20927 0
M  V30 7051 H 661.212 -1.43592 0.758632 0
M  V30 7052 H 663.209 -4.08922 -0.811695 0
M  V30 7053 H 661.869 -2.99703 -1.24932 0
M  V30 7054 H 662.88 -4.78209 1.98838 0
M  V30 7055 H 659.557 -4.14348 -0.512021 0
M  V30 7056 H 660.947 -5.96266 3.09704 0
M  V30 7057 N 663.667 -0.670007 -1.42649 0
M  V30 7058 C 664.895 -0.19854 -2.05945 0
M  V30 7059 C 665.31 1.14243 -1.50313 0
M  V30 7060 O 664.667 1.70872 -0.641027 0
M  V30 7061 C 664.718 -0.11966 -3.61302 0
M  V30 7062 O 664.439 -1.40764 -4.1487 0
M  V30 7063 C 665.94 0.375878 -4.41704 0
M  V30 7064 H 663.16 -0.0976894 -0.663851 0
M  V30 7065 H 665.704 -0.915392 -1.82868 0
M  V30 7066 H 663.859 0.547851 -3.83507 0
M  V30 7067 H 664.273 -1.27784 -5.08696 0
M  V30 7068 H 665.747 0.379988 -5.50691 0
M  V30 7069 H 666.224 1.41028 -4.15942 0
M  V30 7070 H 666.83 -0.259727 -4.24506 0
M  V30 7071 N 665.145 1.52092 -0.413018 0
M  V30 7072 C 666.375 2.05974 0.160648 0
M  V30 7073 C 666.783 1.28267 1.39084 0
M  V30 7074 O 666.126 0.328805 1.80733 0
M  V30 7075 C 666.188 3.54918 0.572169 0
M  V30 7076 C 665.852 4.53705 -0.547826 0
M  V30 7077 C 666.849 5.00342 -1.41259 0
M  V30 7078 C 664.534 4.97089 -0.721627 0
M  V30 7079 C 666.528 5.89011 -2.43607 0
M  V30 7080 C 664.215 5.85554 -1.74841 0
M  V30 7081 C 665.213 6.3141 -2.60403 0
M  V30 7082 O 664.901 7.18123 -3.61323 0
M  V30 7083 H 664.633 0.675636 0.0221936 0
M  V30 7084 H 667.187 1.96931 -0.58373 0
M  V30 7085 H 665.417 3.61661 1.36889 0
M  V30 7086 H 667.106 3.91428 1.0742 0
M  V30 7087 H 667.872 4.67537 -1.28974 0
M  V30 7088 H 663.751 4.60954 -0.0652911 0
M  V30 7089 H 667.295 6.24725 -3.10425 0
M  V30 7090 H 663.192 6.17773 -1.87156 0
M  V30 7091 H 663.96 7.36244 -3.57613 0
M  V30 7092 N 666.623 0.143563 1.56945 0
M  V30 7093 C 667.553 -0.7936 2.196 0
M  V30 7094 C 668.534 -1.25955 1.14321 0
M  V30 7095 O 669.719 -1.31773 1.42651 0
M  V30 7096 C 666.849 -2.03424 2.81489 0
M  V30 7097 C 665.803 -1.70519 3.92565 0
M  V30 7098 C 665.129 -3.01817 4.41373 0
M  V30 7099 C 666.429 -0.95449 5.13504 0
M  V30 7100 H 668.123 -0.271423 2.98167 0
M  V30 7101 H 665.669 -0.12911 1.4342 0
M  V30 7102 H 667.622 -2.69463 3.23987 0
M  V30 7103 H 666.346 -2.58008 2.00248 0
M  V30 7104 H 665.005 -1.06859 3.5068 0
M  V30 7105 H 664.653 -3.54386 3.56959 0
M  V30 7106 H 664.353 -2.80565 5.16292 0
M  V30 7107 H 665.877 -3.68934 4.86539 0
M  V30 7108 H 667.291 -1.5169 5.52868 0
M  V30 7109 H 665.688 -0.842035 5.94163 0
M  V30 7110 H 666.758 0.0544033 4.84869 0
M  V30 7111 N 668.101 -1.57061 -0.130224 0
M  V30 7112 C 669.051 -1.95941 -1.16582 0
M  V30 7113 C 670.035 -0.832858 -1.37667 0
M  V30 7114 O 671.227 -1.09647 -1.38948 0
M  V30 7115 C 668.356 -2.35777 -2.49528 0
M  V30 7116 C 667.442 -3.5504 -2.31964 0
M  V30 7117 N 667.833 -4.71071 -1.84189 0
M  V30 7118 C 666.131 -3.60453 -2.62659 0
M  V30 7119 C 666.832 -5.53128 -1.80068 0
M  V30 7120 N 665.808 -4.95303 -2.24001 0
M  V30 7121 H 669.61 -2.83117 -0.788806 0
M  V30 7122 H 667.124 -1.58842 -0.3381 0
M  V30 7123 H 669.121 -2.61843 -3.24413 0
M  V30 7124 H 667.781 -1.49961 -2.87996 0
M  V30 7125 H 668.792 -4.94504 -1.53903 0
M  V30 7126 H 665.469 -2.85217 -3.0489 0
M  V30 7127 H 666.859 -6.56182 -1.4448 0
M  V30 7128 N 669.579 0.400081 -1.52437 0
M  V30 7129 C 670.542 1.4707 -1.75793 0
M  V30 7130 C 671.542 1.48036 -0.627856 0
M  V30 7131 O 672.732 1.49401 -0.895817 0
M  V30 7132 C 669.864 2.86427 -1.84858 0
M  V30 7133 H 671.057 1.27649 -2.71377 0
M  V30 7134 H 668.61 0.631141 -1.42991 0
M  V30 7135 H 669.345 3.11207 -0.912194 0
M  V30 7136 H 669.13 2.87128 -2.6702 0
M  V30 7137 H 670.62 3.64023 -2.04638 0
M  V30 7138 N 671.057 1.43213 0.657864 0
M  V30 7139 C 671.989 1.43974 1.78337 0
M  V30 7140 C 673.002 0.336482 1.59285 0
M  V30 7141 O 674.191 0.600631 1.68091 0
M  V30 7142 C 671.291 1.23242 3.15697 0
M  V30 7143 C 670.464 2.46319 3.61449 0
M  V30 7144 C 669.523 2.2088 4.77597 0
M  V30 7145 O 668.549 2.942 4.87273 0
M  V30 7146 N 669.751 1.22251 5.67481 0
M  V30 7147 H 672.516 2.40993 1.78164 0
M  V30 7148 H 670.077 1.3831 0.841549 0
M  V30 7149 H 672.069 1.04113 3.91079 0
M  V30 7150 H 670.639 0.346849 3.1067 0
M  V30 7151 H 669.859 2.80904 2.76563 0
M  V30 7152 H 671.147 3.28239 3.88763 0
M  V30 7153 H 670.545 0.616433 5.62331 0
M  V30 7154 H 669.102 1.09107 6.42603 0
M  V30 7155 N 672.536 -0.895792 1.29666 0
M  V30 7156 C 673.952 -1.17726 1.07763 0
M  V30 7157 C 674.152 -2.00794 -0.168576 0
M  V30 7158 O 673.208 -2.37213 -0.865244 0
M  V30 7159 C 674.521 -1.89441 2.33522 0
M  V30 7160 C 676.069 -2.02251 2.3888 0
M  V30 7161 C 676.544 -2.77378 3.64452 0
M  V30 7162 N 678.035 -2.8493 3.65198 0
M  V30 7163 C 678.77 -3.43606 4.59045 0
M  V30 7164 N 678.266 -4.03417 5.63228 0
M  V30 7165 N 680.059 -3.41317 4.46608 0
M  V30 7166 H 672.21 -0.341652 2.09634 0
M  V30 7167 H 674.473 -0.213865 0.923561 0
M  V30 7168 H 674.179 -1.35842 3.24407 0
M  V30 7169 H 674.053 -2.89893 2.41334 0
M  V30 7170 H 676.44 -2.55025 1.4848 0
M  V30 7171 H 676.521 -1.0092 2.3505 0
M  V30 7172 H 676.165 -2.25279 4.55205 0
M  V30 7173 H 676.095 -3.79062 3.65541 0
M  V30 7174 H 678.586 -2.42453 2.89871 0
M  V30 7175 H 678.899 -4.46224 6.30955 0
M  V30 7176 H 677.244 -4.01868 5.67033 0
M  V30 7177 H 680.435 -2.93812 3.64407 0
M  V30 7178 H 680.608 -3.86751 5.1993 0
M  V30 7179 N 674.014 -1.12206 -1.10668 0
M  V30 7180 C 674.946 -0.74552 -2.16736 0
M  V30 7181 C 675.959 0.226696 -1.61214 0
M  V30 7182 O 677.148 0.0083936 -1.78498 0
M  V30 7183 C 674.248 -0.0823368 -3.388 0
M  V30 7184 C 673.421 -1.08341 -4.2377 0
M  V30 7185 C 672.48 -0.448292 -5.24287 0
M  V30 7186 O 671.506 -1.10458 -5.58379 0
M  V30 7187 N 672.708 0.785336 -5.75163 0
M  V30 7188 H 675.473 -1.65818 -2.49649 0
M  V30 7189 H 673.034 -1.01335 -1.26265 0
M  V30 7190 H 675.026 0.354476 -4.03145 0
M  V30 7191 H 673.596 0.733041 -3.03884 0
M  V30 7192 H 672.816 -1.69792 -3.55759 0
M  V30 7193 H 674.104 -1.76042 -4.77375 0
M  V30 7194 H 673.502 1.33755 -5.4966 0
M  V30 7195 H 672.059 1.16501 -6.41304 0
M  V30 7196 N 675.492 1.28418 -0.913599 0
M  V30 7197 C 676.439 2.27301 -0.400373 0
M  V30 7198 C 677.409 1.57582 0.52509 0
M  V30 7199 O 678.594 1.85482 0.447318 0
M  V30 7200 C 675.734 3.43284 0.35361 0
M  V30 7201 C 674.847 4.27752 -0.604341 0
M  V30 7202 C 673.982 5.30934 0.168075 0
M  V30 7203 C 673.021 6.07065 -0.783499 0
M  V30 7204 N 672.158 7.02086 -0.0446112 0
M  V30 7205 H 676.998 2.70579 -1.24865 0
M  V30 7206 H 674.535 1.33067 -0.627028 0
M  V30 7207 H 676.493 4.09322 0.806945 0
M  V30 7208 H 675.123 3.00997 1.16623 0
M  V30 7209 H 674.175 3.61759 -1.17621 0
M  V30 7210 H 675.487 4.80682 -1.33216 0
M  V30 7211 H 674.641 6.02855 0.681979 0
M  V30 7212 H 673.38 4.78771 0.928947 0
M  V30 7213 H 672.385 5.33995 -1.30878 0
M  V30 7214 H 673.61 6.61317 -1.54392 0
M  V30 7215 H 671.556 6.52273 0.698272 0
M  V30 7216 H 671.473 7.52637 -0.712258 0
M  V30 7217 H 672.741 7.78205 0.449102 0
M  V30 7218 N 676.97 0.677563 1.42291 0
M  V30 7219 C 677.9 0.014968 2.33495 0
M  V30 7220 C 678.881 -0.786376 1.50831 0
M  V30 7221 O 680.066 -0.742975 1.79426 0
M  V30 7222 C 677.196 -0.935023 3.34477 0
M  V30 7223 C 676.15 -0.242074 4.27315 0
M  V30 7224 C 675.476 -1.30519 5.18526 0
M  V30 7225 C 676.776 0.880604 5.14823 0
M  V30 7226 H 678.47 0.776671 2.89151 0
M  V30 7227 H 676.016 0.37494 1.39033 0
M  V30 7228 H 677.969 -1.40766 3.97194 0
M  V30 7229 H 676.693 -1.72818 2.77131 0
M  V30 7230 H 675.352 0.210351 3.65996 0
M  V30 7231 H 675 -2.09041 4.57505 0
M  V30 7232 H 674.7 -0.846652 5.81468 0
M  V30 7233 H 676.224 -1.7787 5.84119 0
M  V30 7234 H 677.638 0.489062 5.7121 0
M  V30 7235 H 676.035 1.26511 5.86613 0
M  V30 7236 H 677.105 1.72818 4.53059 0
M  V30 7237 N 678.448 -1.51871 0.421078 0
M  V30 7238 C 679.398 -2.24171 -0.416111 0
M  V30 7239 C 680.382 -1.25763 -1.00362 0
M  V30 7240 O 681.574 -1.5094 -0.924452 0
M  V30 7241 C 678.703 -3.07533 -1.52571 0
M  V30 7242 C 677.789 -4.1336 -0.948399 0
M  V30 7243 N 678.18 -5.05704 -0.0987933 0
M  V30 7244 C 676.478 -4.29055 -1.21768 0
M  V30 7245 C 677.179 -5.8127 0.223705 0
M  V30 7246 N 676.155 -5.4221 -0.388524 0
M  V30 7247 H 679.957 -2.92925 0.239166 0
M  V30 7248 H 677.471 -1.60732 0.232191 0
M  V30 7249 H 679.468 -3.57893 -2.13819 0
M  V30 7250 H 678.128 -2.4032 -2.18349 0
M  V30 7251 H 679.139 -5.17214 0.266428 0
M  V30 7252 H 675.816 -3.73071 -1.87416 0
M  V30 7253 H 677.206 -6.65653 0.914076 0
M  V30 7254 N 679.926 -0.151884 -1.56866 0
M  V30 7255 C 681.174 0.497021 -1.95893 0
M  V30 7256 C 681.495 1.65078 -1.03799 0
M  V30 7257 O 680.765 1.95642 -0.10049 0
M  V30 7258 H 679.345 0.186603 -0.723318 0
M  V30 7259 H 682.007 -0.228525 -1.93556 0
M  V30 7260 H 681.103 0.869933 -2.99731 0
M  V30 7261 N 681.404 1.57128 0.121893 0
M  V30 7262 C 682.634 1.88609 0.843227 0
M  V30 7263 C 683.042 0.740917 1.74089 0
M  V30 7264 O 682.385 -0.297426 1.81276 0
M  V30 7265 C 682.447 3.15073 1.73117 0
M  V30 7266 C 682.111 4.45742 1.0081 0
M  V30 7267 C 683.108 5.18719 0.350255 0
M  V30 7268 C 680.793 4.92444 0.99014 0
M  V30 7269 C 682.787 6.36617 -0.315889 0
M  V30 7270 C 680.474 6.10261 0.320196 0
M  V30 7271 C 681.472 6.82194 -0.331666 0
M  V30 7272 O 681.16 7.97769 -0.990927 0
M  V30 7273 H 680.892 0.628919 0.247865 0
M  V30 7274 H 683.446 2.05096 0.111725 0
M  V30 7275 H 681.676 2.9466 2.50424 0
M  V30 7276 H 683.365 3.32597 2.32667 0
M  V30 7277 H 684.131 4.83693 0.35577 0
M  V30 7278 H 680.01 4.36361 1.48695 0
M  V30 7279 H 683.554 6.92701 -0.825272 0
M  V30 7280 H 679.451 6.44743 0.312433 0
M  V30 7281 H 680.219 8.13591 -0.895113 0
M  V30 7282 N 682.882 -0.391992 1.52647 0
M  V30 7283 C 683.812 -1.48517 1.8018 0
M  V30 7284 C 684.793 -1.57039 0.653667 0
M  V30 7285 O 685.978 -1.72036 0.900962 0
M  V30 7286 C 683.108 -2.86161 1.96797 0
M  V30 7287 C 682.062 -2.92481 3.12472 0
M  V30 7288 C 681.388 -4.32546 3.14338 0
M  V30 7289 C 682.688 -2.624 4.51601 0
M  V30 7290 H 684.382 -1.25726 2.71723 0
M  V30 7291 H 681.928 -0.603387 1.30749 0
M  V30 7292 H 683.881 -3.62639 2.14641 0
M  V30 7293 H 682.605 -3.10283 1.01941 0
M  V30 7294 H 681.264 -2.18451 2.94406 0
M  V30 7295 H 680.912 -4.53703 2.1717 0
M  V30 7296 H 680.612 -4.37695 3.92042 0
M  V30 7297 H 682.136 -5.10934 3.34333 0
M  V30 7298 H 683.55 -3.28596 4.69785 0
M  V30 7299 H 681.947 -2.78903 5.3135 0
M  V30 7300 H 683.017 -1.57754 4.58521 0
M  V30 7301 N 684.36 -1.4356 -0.65026 0
M  V30 7302 C 685.771 -1.40324 -1.2315 0
M  V30 7303 C 686.122 -0.108812 -1.95898 0
M  V30 7304 O 685.247 0.79163 -2.01401 0
M  V30 7305 C 685.842 -2.54195 -2.23987 0
M  V30 7306 C 684.401 -2.54215 -2.77582 0
M  V30 7307 C 683.548 -2.31752 -1.5227 0
M  V30 7308 H 686.499 -1.52418 -0.442095 0
M  V30 7309 H 686.52 -2.25854 -3.0622 0
M  V30 7310 H 686.032 -3.48392 -1.71011 0
M  V30 7311 H 684.133 -1.63907 -3.34612 0
M  V30 7312 H 684.246 -3.52081 -3.24925 0
M  V30 7313 H 682.61 -1.80476 -1.79723 0
M  V30 7314 H 683.393 -3.28037 -1.01225 0
M  V30 7315 N 685.838 0.888903 -1.30139 0
M  V30 7316 C 687.063 1.67884 -1.21777 0
M  V30 7317 C 687.488 1.86848 0.216689 0
M  V30 7318 O 686.846 1.39659 1.15608 0
M  V30 7319 C 686.894 3.03483 -1.94757 0
M  V30 7320 O 685.998 3.92294 -1.27198 0
M  V30 7321 H 685.339 0.513144 -0.421402 0
M  V30 7322 H 687.869 1.10968 -1.71893 0
M  V30 7323 H 687.879 3.53553 -2.03627 0
M  V30 7324 H 686.554 2.89 -2.99085 0
M  V30 7325 H 685.131 3.50732 -1.26655 0
M  V30 7326 N 687.317 1.12792 1.10072 0
M  V30 7327 C 688.733 0.864745 1.34143 0
M  V30 7328 C 688.933 -0.503201 1.95116 0
M  V30 7329 O 687.989 -1.25111 2.19325 0
M  V30 7330 C 689.302 1.98413 2.25949 0
M  V30 7331 C 690.85 2.01545 2.39476 0
M  V30 7332 C 691.325 3.12727 3.34613 0
M  V30 7333 N 692.816 3.12194 3.42183 0
M  V30 7334 C 693.551 3.94862 4.15779 0
M  V30 7335 N 693.047 4.87528 4.92228 0
M  V30 7336 N 694.84 3.82985 4.11435 0
M  V30 7337 H 686.991 2.00926 0.68866 0
M  V30 7338 H 689.254 0.874564 0.365844 0
M  V30 7339 H 688.96 2.97005 1.88364 0
M  V30 7340 H 688.834 1.89254 3.26287 0
M  V30 7341 H 691.221 1.0357 2.76328 0
M  V30 7342 H 691.302 2.14777 1.3894 0
M  V30 7343 H 690.946 4.10936 2.98486 0
M  V30 7344 H 690.876 2.96732 4.35037 0
M  V30 7345 H 693.367 2.45065 2.87666 0
M  V30 7346 H 693.68 5.47109 5.45794 0
M  V30 7347 H 692.025 4.91539 4.9134 0
M  V30 7348 H 695.216 3.09923 3.50807 0
M  V30 7349 H 695.389 4.47641 4.68531 0
M  V30 7350 N 688.795 -1.27931 0.920396 0
M  V30 7351 C 689.727 -2.26175 0.371169 0
M  V30 7352 C 690.74 -1.55122 -0.494065 0
M  V30 7353 O 691.929 -1.75825 -0.30787 0
M  V30 7354 C 689.029 -3.35376 -0.487481 0
M  V30 7355 C 688.202 -4.35943 0.356772 0
M  V30 7356 C 687.261 -5.24374 -0.438042 0
M  V30 7357 O 686.287 -5.68998 0.151715 0
M  V30 7358 N 687.489 -5.53823 -1.73956 0
M  V30 7359 H 690.254 -2.73938 1.21564 0
M  V30 7360 H 687.815 -1.41482 0.787047 0
M  V30 7361 H 689.807 -3.91476 -1.02609 0
M  V30 7362 H 688.377 -2.87269 -1.23269 0
M  V30 7363 H 687.597 -3.7921 1.07672 0
M  V30 7364 H 688.885 -5.0015 0.934206 0
M  V30 7365 H 688.283 -5.19413 -2.24114 0
M  V30 7366 H 686.84 -6.12653 -2.22486 0
M  V30 7367 N 690.273 -0.685099 -1.4193 0
M  V30 7368 C 691.684 -0.287699 -1.8447 0
M  V30 7369 C 692.035 1.17215 -1.57338 0
M  V30 7370 O 691.16 1.89856 -1.03845 0
M  V30 7371 C 691.755 -0.515385 -3.34857 0
M  V30 7372 C 690.314 -0.172006 -3.76007 0
M  V30 7373 C 689.461 -0.802808 -2.65425 0
M  V30 7374 H 692.412 -0.88652 -1.3163 0
M  V30 7375 H 692.433 0.229251 -3.79809 0
M  V30 7376 H 691.945 -1.57796 -3.54573 0
M  V30 7377 H 690.046 0.886716 -3.61895 0
M  V30 7378 H 690.159 -0.619717 -4.75075 0
M  V30 7379 H 688.523 -0.233267 -2.5363 0
M  V30 7380 H 689.306 -1.86904 -2.87961 0
M  V30 7381 N 691.751 1.51645 -0.429126 0
M  V30 7382 C 692.699 2.29119 0.400921 0
M  V30 7383 C 693.693 1.34628 1.02819 0
M  V30 7384 O 694.899 1.52004 0.964098 0
M  V30 7385 H 691.274 0.737273 0.148095 0
M  V30 7386 H 693.245 2.97144 -0.273457 0
M  V30 7387 C 691.994 3.13953 1.49429 0
M  V30 7388 H 691.317 3.86544 1.02097 0
M  V30 7389 H 692.757 3.71232 2.04849 0
M  V30 7390 C 691.216 2.28796 2.47293 0
M  V30 7391 O 691.746 1.94193 3.51642 0
M  V30 7392 N 689.952 1.92177 2.17982 0
M  V30 7393 H 689.499 2.20517 1.33154 0
M  V30 7394 H 689.457 1.35497 2.83704 0
M  V30 7395 N 693.229 0.160201 1.56784 0
M  V30 7396 C 694.476 -0.487588 1.96542 0
M  V30 7397 C 694.804 -1.63999 1.04569 0
M  V30 7398 O 694.059 -1.95546 0.0775211 0
M  V30 7399 C 694.358 -1.02259 3.42459 0
M  V30 7400 C 694.024 0.0127436 4.50898 0
M  V30 7401 C 692.686 0.297318 4.80281 0
M  V30 7402 C 695.038 0.716078 5.16257 0
M  V30 7403 C 692.366 1.29081 5.72324 0
M  V30 7404 C 694.718 1.69847 6.09372 0
M  V30 7405 C 693.382 1.99061 6.37127 0
M  V30 7406 H 692.652 -0.178421 0.719199 0
M  V30 7407 H 695.299 0.249818 1.89864 0
M  V30 7408 H 693.604 -1.8376 3.46034 0
M  V30 7409 H 695.301 -1.53261 3.70556 0
M  V30 7410 H 691.891 -0.219235 4.28039 0
M  V30 7411 H 696.075 0.509428 4.93679 0
M  V30 7412 H 691.331 1.52344 5.92116 0
M  V30 7413 H 695.505 2.2489 6.59088 0
M  V30 7414 H 693.132 2.76194 7.08252 0
M  V30 7415 N 694.707 -1.5719 -0.113559 0
M  V30 7416 C 695.935 -1.89328 -0.834422 0
M  V30 7417 C 696.35 -0.752018 -1.73177 0
M  V30 7418 O 695.707 0.276912 -1.80387 0
M  V30 7419 C 695.758 -3.20962 -1.66329 0
M  V30 7420 O 695.479 -4.30695 -0.802069 0
M  V30 7421 C 696.98 -3.6684 -2.48884 0
M  V30 7422 H 694.2 -0.626769 -0.239587 0
M  V30 7423 H 696.744 -2.04273 -0.0963195 0
M  V30 7424 H 694.899 -3.0767 -2.35409 0
M  V30 7425 H 695.313 -5.06175 -1.37431 0
M  V30 7426 H 696.787 -4.61692 -3.02563 0
M  V30 7427 H 697.264 -2.93765 -3.26495 0
M  V30 7428 H 697.87 -3.82938 -1.85036 0
M  V30 7429 N 696.185 0.383891 -1.52853 0
M  V30 7430 C 697.095 1.49343 -1.80925 0
M  V30 7431 C 698.111 1.59458 -0.696348 0
M  V30 7432 O 699.287 1.75698 -0.984481 0
M  V30 7433 C 696.352 2.84819 -1.97684 0
M  V30 7434 C 695.413 2.84382 -3.21598 0
M  V30 7435 C 694.646 4.13397 -3.37548 0
M  V30 7436 O 694.869 5.08619 -2.58192 0
M  V30 7437 O 693.803 4.20325 -4.30826 0
M  V30 7438 H 697.629 1.2855 -2.75152 0
M  V30 7439 H 695.214 0.572229 -1.38007 0
M  V30 7440 H 697.096 3.65125 -2.10385 0
M  V30 7441 H 695.771 3.05627 -1.06647 0
M  V30 7442 H 694.678 2.0284 -3.14336 0
M  V30 7443 H 696.011 2.68526 -4.12498 0
M  V30 7444 N 697.663 1.43903 0.642637 0
M  V30 7445 C 698.61 1.49881 1.75512 0
M  V30 7446 C 699.58 0.347538 1.62423 0
M  V30 7447 O 700.765 0.556177 1.82514 0
M  V30 7448 C 697.905 1.43797 3.13714 0
M  V30 7449 C 697.018 2.6921 3.37861 0
M  V30 7450 C 696.153 2.5504 4.6597 0
M  V30 7451 C 695.192 3.75671 4.83257 0
M  V30 7452 N 694.329 3.60247 6.02633 0
M  V30 7453 H 699.169 2.44935 1.69737 0
M  V30 7454 H 696.706 1.21572 0.828165 0
M  V30 7455 H 698.664 1.38262 3.93624 0
M  V30 7456 H 697.294 0.523173 3.18532 0
M  V30 7457 H 696.346 2.8498 2.51973 0
M  V30 7458 H 697.658 3.58786 3.46517 0
M  V30 7459 H 696.812 2.47273 5.54023 0
M  V30 7460 H 695.551 1.63006 4.59653 0
M  V30 7461 H 694.556 3.83836 3.93637 0
M  V30 7462 H 695.781 4.68728 4.91397 0
M  V30 7463 H 693.727 2.70955 5.97427 0
M  V30 7464 H 693.644 4.43431 6.12295 0
M  V30 7465 H 694.912 3.56351 6.93278 0
M  V30 7466 N 699.141 -0.881989 1.30609 0
M  V30 7467 C 700.071 -2.00413 1.1982 0
M  V30 7468 C 701.052 -1.69871 0.0881538 0
M  V30 7469 O 702.237 -1.92304 0.2707 0
M  V30 7470 C 699.367 -3.35641 0.89233 0
M  V30 7471 C 698.321 -3.80451 1.96064 0
M  V30 7472 C 697.647 -5.13003 1.5077 0
M  V30 7473 C 698.947 -3.98855 3.37213 0
M  V30 7474 H 700.641 -2.09698 2.13699 0
M  V30 7475 H 698.187 -1.00754 1.02882 0
M  V30 7476 H 700.14 -4.13669 0.803497 0
M  V30 7477 H 698.864 -3.26497 -0.0821381 0
M  V30 7478 H 697.523 -3.04654 2.03916 0
M  V30 7479 H 697.171 -5.0029 0.521417 0
M  V30 7480 H 696.871 -5.43956 2.22229 0
M  V30 7481 H 698.395 -5.93554 1.43271 0
M  V30 7482 H 699.809 -4.67312 3.32103 0
M  V30 7483 H 698.206 -4.41188 4.06784 0
M  V30 7484 H 699.276 -3.02614 3.78883 0
M  V30 7485 N 700.619 -1.13374 -1.09472 0
M  V30 7486 C 701.529 -0.824029 -2.19652 0
M  V30 7487 C 702.545 0.19118 -1.72947 0
M  V30 7488 O 703.721 0.0223464 -2.01388 0
M  V30 7489 C 700.786 -0.294009 -3.45451 0
M  V30 7490 C 699.847 -1.3704 -4.0684 0
M  V30 7491 C 699.08 -0.86558 -5.26634 0
M  V30 7492 O 699.303 0.29702 -5.69626 0
M  V30 7493 O 698.237 -1.63968 -5.79136 0
M  V30 7494 H 702.063 -1.74454 -2.48595 0
M  V30 7495 H 699.648 -0.911155 -1.18399 0
M  V30 7496 H 701.53 -0.00381039 -4.214 0
M  V30 7497 H 700.205 0.598921 -3.18111 0
M  V30 7498 H 699.112 -1.71391 -3.3253 0
M  V30 7499 H 700.445 -2.23746 -4.38405 0
M  V30 7500 N 702.098 1.27442 -0.927168 0
M  V30 7501 C 703.028 2.29256 -0.443188 0
M  V30 7502 C 704.009 1.62701 0.49624 0
M  V30 7503 O 705.194 1.90013 0.401105 0
M  V30 7504 C 702.324 3.45955 0.305366 0
M  V30 7505 C 701.278 4.24501 -0.546178 0
M  V30 7506 C 700.604 5.33671 0.331512 0
M  V30 7507 C 701.904 4.89921 -1.81037 0
M  V30 7508 H 703.598 2.69988 -1.29409 0
M  V30 7509 H 701.144 1.29792 -0.623705 0
M  V30 7510 H 703.097 4.1628 0.654885 0
M  V30 7511 H 701.821 3.04138 1.19029 0
M  V30 7512 H 700.48 3.55921 -0.878398 0
M  V30 7513 H 700.128 4.88096 1.21537 0
M  V30 7514 H 699.828 5.87131 -0.234746 0
M  V30 7515 H 701.352 6.0684 0.676614 0
M  V30 7516 H 702.766 5.52536 -1.52895 0
M  V30 7517 H 701.163 5.53436 -2.32009 0
M  V30 7518 H 702.233 4.13652 -2.53021 0
M  V30 7519 N 703.576 0.692616 1.41565 0
M  V30 7520 C 704.987 0.297478 1.84315 0
M  V30 7521 C 705.338 -1.16379 1.57957 0
M  V30 7522 O 704.463 -1.89303 1.0485 0
M  V30 7523 C 705.058 0.533136 3.34579 0
M  V30 7524 C 703.617 0.191944 3.7591 0
M  V30 7525 C 702.764 0.816873 2.64995 0
M  V30 7526 H 705.715 0.893488 1.31158 0
M  V30 7527 H 705.736 -0.209105 3.79925 0
M  V30 7528 H 705.248 1.59674 3.53731 0
M  V30 7529 H 703.349 -0.867512 3.6236 0
M  V30 7530 H 703.462 0.644902 4.7474 0
M  V30 7531 H 701.826 0.246715 2.53502 0
M  V30 7532 H 702.609 1.88429 2.86966 0
M  V30 7533 N 705.054 -1.51416 0.437162 0
M  V30 7534 C 706.279 -2.0699 -0.130424 0
M  V30 7535 C 706.704 -1.30249 -1.35709 0
M  V30 7536 O 706.062 -0.340388 -1.78076 0
M  V30 7537 C 706.11 -3.5801 -0.43142 0
M  V30 7538 O 705.214 -3.8345 -1.5179 0
M  V30 7539 H 704.555 -0.663997 -0.00194339 0
M  V30 7540 H 707.085 -1.95029 0.618445 0
M  V30 7541 H 707.095 -4.02261 -0.681926 0
M  V30 7542 H 705.77 -4.13291 0.465137 0
M  V30 7543 H 704.347 -3.51062 -1.25737 0
M  V30 7544 N 706.532 -0.168513 -1.56696 0
M  V30 7545 C 707.462 0.758563 -2.20835 0
M  V30 7546 C 708.443 1.24121 -1.1631 0
M  V30 7547 O 709.628 1.29487 -1.4473 0
M  V30 7548 C 706.758 1.9892 -2.8469 0
M  V30 7549 C 705.712 1.64252 -3.95228 0
M  V30 7550 C 705.038 2.94757 -4.46119 0
M  V30 7551 C 706.338 0.872675 -5.14958 0
M  V30 7552 H 708.032 0.223953 -2.98561 0
M  V30 7553 H 705.578 0.106277 -1.43607 0
M  V30 7554 H 707.531 2.64275 -3.28233 0
M  V30 7555 H 706.255 2.5479 -2.04327 0
M  V30 7556 H 704.914 1.01266 -3.52336 0
M  V30 7557 H 704.562 3.48662 -3.62552 0
M  V30 7558 H 704.262 2.72316 -5.2069 0
M  V30 7559 H 705.786 3.61147 -4.92347 0
M  V30 7560 H 707.2 1.42875 -5.55211 0
M  V30 7561 H 705.597 0.747402 -5.95428 0
M  V30 7562 H 706.667 -0.131535 -4.84722 0
M  V30 7563 N 708.01 1.57248 0.105221 0
M  V30 7564 C 708.942 1.98008 1.15436 0
M  V30 7565 C 709.955 0.881236 1.36887 0
M  V30 7566 O 711.144 1.15943 1.35718 0
M  V30 7567 C 708.244 2.27509 2.51183 0
M  V30 7568 C 707.417 3.58811 2.50147 0
M  V30 7569 C 706.476 3.76365 3.67745 0
M  V30 7570 O 705.502 4.48329 3.50699 0
M  V30 7571 N 706.704 3.16174 4.86841 0
M  V30 7572 H 709.469 2.88616 0.807519 0
M  V30 7573 H 707.03 1.59202 0.29433 0
M  V30 7574 H 709.022 2.36455 3.28438 0
M  V30 7575 H 707.592 1.42959 2.77995 0
M  V30 7576 H 706.812 3.60927 1.5851 0
M  V30 7577 H 708.1 4.45088 2.46524 0
M  V30 7578 H 707.498 2.57701 5.03594 0
M  V30 7579 H 706.055 3.30621 5.61723 0
M  V30 7580 N 709.488 -0.375779 1.53054 0
M  V30 7581 C 710.765 -1.13453 1.59336 0
M  V30 7582 C 711.145 -2.07379 0.394614 0
M  V30 7583 O 710.493 -2.2004 -0.616 0
M  V30 7584 C 710.703 -1.8826 2.93869 0
M  V30 7585 C 712.051 -2.43155 3.48081 0
M  V30 7586 O 713.075 -1.984 2.95831 0
M  V30 7587 O 711.934 -3.24944 4.39401 0
M  V30 7588 H 709.028 -0.519856 0.643179 0
M  V30 7589 H 711.574 -0.379865 1.65394 0
M  V30 7590 H 710.346 -1.19652 3.72558 0
M  V30 7591 H 709.969 -2.70658 2.91256 0
M  V30 7592 N 710.966 -1.44241 -0.634997 0
M  V30 7593 C 712.213 -1.46821 -1.39463 0
M  V30 7594 C 712.541 -0.0993362 -1.94246 0
M  V30 7595 O 711.796 0.898325 -1.73864 0
M  V30 7596 C 712.095 -2.47279 -2.58046 0
M  V30 7597 C 711.761 -3.92703 -2.21574 0
M  V30 7598 C 710.423 -4.32306 -2.1134 0
M  V30 7599 C 712.775 -4.84271 -1.92695 0
M  V30 7600 C 710.103 -5.61407 -1.70409 0
M  V30 7601 C 712.455 -6.13755 -1.53258 0
M  V30 7602 C 711.119 -6.52316 -1.41562 0
M  V30 7603 H 710.389 -0.537256 -0.51033 0
M  V30 7604 H 713.036 -1.77431 -0.720441 0
M  V30 7605 H 711.341 -2.10138 -3.3068 0
M  V30 7606 H 713.038 -2.46523 -3.16271 0
M  V30 7607 H 709.628 -3.61369 -2.30456 0
M  V30 7608 H 713.812 -4.54432 -1.99513 0
M  V30 7609 H 709.068 -5.90105 -1.59955 0
M  V30 7610 H 713.242 -6.84168 -1.29949 0
M  V30 7611 H 710.869 -7.52255 -1.09619 0
M  V30 7612 N 712.444 0.87505 -1.31075 0
M  V30 7613 C 713.692 1.62447 -1.20231 0
M  V30 7614 C 714.013 1.93506 0.240888 0
M  V30 7615 O 713.283 1.57847 1.16022 0
M  V30 7616 H 711.863 0.602207 -0.441991 0
M  V30 7617 H 714.525 1.04788 -1.64334 0
M  V30 7618 H 713.621 2.57031 -1.77036 0
M  V30 7619 N 713.922 1.13953 1.08869 0
M  V30 7620 C 714.885 0.824991 2.13838 0
M  V30 7621 C 715.885 -0.168198 1.59918 0
M  V30 7622 O 717.075 0.0595778 1.74098 0
M  V30 7623 C 714.207 0.228938 3.4013 0
M  V30 7624 H 715.4 1.75521 2.43171 0
M  V30 7625 H 712.953 0.94492 1.24503 0
M  V30 7626 H 713.688 -0.710227 3.16427 0
M  V30 7627 H 713.473 0.944243 3.80561 0
M  V30 7628 H 714.963 0.0259223 4.17592 0
M  V30 7629 N 715.4 -1.26948 0.933913 0
M  V30 7630 C 716.33 -2.29017 0.45534 0
M  V30 7631 C 717.311 -1.62961 -0.487605 0
M  V30 7632 O 718.496 -1.90223 -0.391022 0
M  V30 7633 C 715.626 -3.46112 -0.287015 0
M  V30 7634 C 714.58 -4.24205 0.568682 0
M  V30 7635 C 713.906 -5.3384 -0.303206 0
M  V30 7636 C 715.206 -4.88954 1.83633 0
M  V30 7637 H 716.9 -2.69298 1.30839 0
M  V30 7638 H 714.446 -1.29459 0.630579 0
M  V30 7639 H 716.399 -4.16622 -0.6328 0
M  V30 7640 H 715.123 -3.04765 -1.17414 0
M  V30 7641 H 713.782 -3.5545 0.897261 0
M  V30 7642 H 713.43 -4.88734 -1.18947 0
M  V30 7643 H 713.13 -5.86998 0.265879 0
M  V30 7644 H 714.654 -6.0719 -0.644423 0
M  V30 7645 H 716.068 -5.51717 1.55823 0
M  V30 7646 H 714.465 -5.52198 2.34941 0
M  V30 7647 H 715.535 -4.12305 2.55211 0
M  V30 7648 N 716.879 -0.700114 -1.41195 0
M  V30 7649 C 717.809 -0.0521132 -2.33442 0
M  V30 7650 C 718.79 0.76228 -1.52063 0
M  V30 7651 O 719.975 0.714336 -1.80585 0
M  V30 7652 C 717.105 0.881693 -3.35922 0
M  V30 7653 C 716.059 0.174062 -4.27646 0
M  V30 7654 C 715.385 1.22254 -5.20536 0
M  V30 7655 C 716.685 -0.962396 -5.13357 0
M  V30 7656 H 718.379 -0.822574 -2.87879 0
M  V30 7657 H 715.925 -0.397011 -1.38419 0
M  V30 7658 H 717.878 1.34429 -3.99383 0
M  V30 7659 H 716.602 1.68387 -2.79845 0
M  V30 7660 H 715.261 -0.268551 -3.65615 0
M  V30 7661 H 714.909 2.01736 -4.60773 0
M  V30 7662 H 714.609 0.754038 -5.82742 0
M  V30 7663 H 716.133 1.68555 -5.86874 0
M  V30 7664 H 717.547 -0.579875 -5.7036 0
M  V30 7665 H 715.944 -1.35828 -5.84526 0
M  V30 7666 H 717.014 -1.80003 -4.50252 0
M  V30 7667 N 718.357 1.51182 -0.445186 0
M  V30 7668 C 719.267 2.31692 0.368255 0
M  V30 7669 C 720.283 1.40942 1.02036 0
M  V30 7670 O 721.459 1.74011 1.01401 0
M  V30 7671 C 718.524 3.14903 1.45041 0
M  V30 7672 C 717.585 4.21442 0.817615 0
M  V30 7673 C 716.818 5.00677 1.8482 0
M  V30 7674 O 717.041 4.80644 3.07145 0
M  V30 7675 O 715.975 5.84559 1.43438 0
M  V30 7676 H 719.801 3.0232 -0.289219 0
M  V30 7677 H 717.386 1.47951 -0.207555 0
M  V30 7678 H 719.268 3.66612 2.07783 0
M  V30 7679 H 717.943 2.47031 2.09182 0
M  V30 7680 H 716.85 3.73791 0.151931 0
M  V30 7681 H 718.183 4.9171 0.219564 0
M  V30 7682 N 719.835 0.176821 1.56605 0
M  V30 7683 C 720.745 -0.763682 2.21822 0
M  V30 7684 C 721.761 -1.24889 1.21156 0
M  V30 7685 O 722.937 -1.29987 1.53836 0
M  V30 7686 C 720.002 -1.97352 2.8505 0
M  V30 7687 C 719.063 -1.53466 4.00932 0
M  V30 7688 C 718.296 -2.68682 4.61135 0
M  V30 7689 O 718.519 -3.85694 4.20234 0
M  V30 7690 O 717.453 -2.42442 5.50913 0
M  V30 7691 H 721.279 -0.238363 3.02763 0
M  V30 7692 H 718.864 -0.0516331 1.49311 0
M  V30 7693 H 720.746 -2.68096 3.25119 0
M  V30 7694 H 719.421 -2.48779 2.07101 0
M  V30 7695 H 718.328 -0.796551 3.65521 0
M  V30 7696 H 719.661 -1.06724 4.8049 0
M  V30 7697 N 721.313 -1.57302 -0.09688 0
M  V30 7698 C 722.245 -1.98618 -1.14384 0
M  V30 7699 C 723.258 -0.888483 -1.36418 0
M  V30 7700 O 724.447 -1.16661 -1.35101 0
M  V30 7701 C 721.547 -2.28838 -2.49973 0
M  V30 7702 C 720.72 -3.60132 -2.48241 0
M  V30 7703 C 719.779 -3.7831 -3.65743 0
M  V30 7704 O 718.805 -4.50183 -3.48316 0
M  V30 7705 N 720.007 -3.18752 -4.85157 0
M  V30 7706 H 722.772 -2.8904 -0.792202 0
M  V30 7707 H 720.333 -1.59356 -0.285883 0
M  V30 7708 H 722.325 -2.38193 -3.27179 0
M  V30 7709 H 720.895 -1.44431 -2.77233 0
M  V30 7710 H 720.115 -3.61763 -1.56593 0
M  V30 7711 H 721.403 -4.46389 -2.4416 0
M  V30 7712 H 720.801 -2.60368 -5.0222 0
M  V30 7713 H 719.358 -3.33595 -5.59962 0
M  V30 7714 N 722.791 0.367657 -1.53252 0
M  V30 7715 C 724.016 1.13566 -1.73544 0
M  V30 7716 C 724.441 1.82329 -0.462344 0
M  V30 7717 O 723.799 1.71655 0.583472 0
M  V30 7718 C 723.847 2.14322 -2.89997 0
M  V30 7719 O 722.951 3.21359 -2.58461 0
M  V30 7720 H 722.292 0.329614 -0.576412 0
M  V30 7721 H 724.822 0.425417 -2.00128 0
M  V30 7722 H 724.832 2.57958 -3.16104 0
M  V30 7723 H 723.507 1.63664 -3.82344 0
M  V30 7724 H 722.084 2.8271 -2.43165 0
M  V30 7725 N 724.269 1.44576 0.627338 0
M  V30 7726 C 725.216 1.51734 1.73912 0
M  V30 7727 C 726.186 0.364745 1.62046 0
M  V30 7728 O 727.371 0.575503 1.81914 0
M  V30 7729 C 724.511 1.47116 3.12171 0
M  V30 7730 C 723.624 2.72778 3.34986 0
M  V30 7731 C 722.759 2.59968 4.63239 0
M  V30 7732 C 721.798 3.80776 4.79245 0
M  V30 7733 N 720.935 3.66618 5.98778 0
M  V30 7734 H 725.775 2.46722 1.6713 0
M  V30 7735 H 723.312 1.22444 0.815224 0
M  V30 7736 H 725.27 1.42429 3.92135 0
M  V30 7737 H 723.9 0.556928 3.17959 0
M  V30 7738 H 722.952 2.87637 2.48936 0
M  V30 7739 H 724.264 3.62441 3.42692 0
M  V30 7740 H 723.418 2.53135 5.51369 0
M  V30 7741 H 722.157 1.67872 4.57898 0
M  V30 7742 H 721.162 3.87989 3.89544 0
M  V30 7743 H 722.387 4.73913 4.86398 0
M  V30 7744 H 720.333 2.77277 5.9452 0
M  V30 7745 H 720.25 4.499 6.07557 0
M  V30 7746 H 721.518 3.63684 6.89459 0
M  V30 7747 N 725.747 -0.868086 1.31537 0
M  V30 7748 C 726.657 -2.00801 1.21311 0
M  V30 7749 C 727.673 -1.73518 0.129431 0
M  V30 7750 O 728.849 -1.98378 0.347588 0
M  V30 7751 C 725.914 -3.3419 0.922935 0
M  V30 7752 C 724.975 -3.74783 2.0937 0
M  V30 7753 C 724.208 -5.01807 1.81728 0
M  V30 7754 O 724.431 -5.65404 0.753313 0
M  V30 7755 O 723.365 -5.39213 2.67457 0
M  V30 7756 H 727.191 -2.12361 2.17109 0
M  V30 7757 H 724.776 -0.996684 1.11295 0
M  V30 7758 H 726.658 -4.14174 0.777033 0
M  V30 7759 H 725.333 -3.237 -0.00500301 0
M  V30 7760 H 724.24 -2.95432 2.29501 0
M  V30 7761 H 725.573 -3.89902 3.00396 0
M  V30 7762 N 727.225 -1.14528 -1.08264 0
M  V30 7763 C 728.474 -0.908992 -1.80056 0
M  V30 7764 C 728.787 0.565859 -1.87236 0
M  V30 7765 O 729.993 0.919454 -2.55457 0
M  V30 7766 C 728.449 -1.57681 -3.23519 0
M  V30 7767 C 728.057 -3.08803 -3.24569 0
M  V30 7768 C 729.801 -1.4217 -3.99985 0
M  V30 7769 C 727.708 -3.68414 -4.62629 0
M  V30 7770 H 726.638 -0.336432 -0.674781 0
M  V30 7771 H 729.289 -1.37437 -1.21587 0
M  V30 7772 H 727.671 -1.03911 -3.82124 0
M  V30 7773 H 728.845 -3.69252 -2.75663 0
M  V30 7774 H 727.16 -3.23968 -2.61598 0
M  V30 7775 H 729.757 -1.84106 -5.02005 0
M  V30 7776 H 730.1 -0.367989 -4.1467 0
M  V30 7777 H 730.633 -1.92984 -3.47853 0
M  V30 7778 H 727.372 -4.73644 -4.53147 0
M  V30 7779 H 726.892 -3.12746 -5.11811 0
M  V30 7780 H 728.571 -3.68793 -5.31602 0
M  V30 7781 N 728.703 1.26451 -0.940633 0
M  V30 7782 C 729.928 1.98407 -0.60412 0
M  V30 7783 C 730.353 1.69584 0.81382 0
M  V30 7784 O 729.711 0.943553 1.54812 0
M  V30 7785 C 729.759 3.50387 -0.852136 0
M  V30 7786 O 728.863 4.1233 0.076013 0
M  V30 7787 H 728.204 0.622466 -0.231153 0
M  V30 7788 H 730.734 1.60932 -1.26342 0
M  V30 7789 H 730.744 4.00614 -0.772816 0
M  V30 7790 H 729.419 3.70696 -1.88566 0
M  V30 7791 H 727.996 3.7286 -0.0543187 0
M  V30 7792 N 730.181 0.707592 1.40822 0
M  V30 7793 C 731.409 0.253073 2.05346 0
M  V30 7794 C 731.824 -1.10218 1.53289 0
M  V30 7795 O 731.181 -1.69112 0.686105 0
M  V30 7796 C 731.232 0.215411 3.60858 0
M  V30 7797 O 730.953 1.51714 4.10992 0
M  V30 7798 C 732.454 -0.258636 4.42545 0
M  V30 7799 H 729.674 0.115256 0.661027 0
M  V30 7800 H 732.218 0.963555 1.80377 0
M  V30 7801 H 730.373 -0.445978 3.84824 0
M  V30 7802 H 730.787 1.41226 5.05129 0
M  V30 7803 H 732.261 -0.233849 5.51504 0
M  V30 7804 H 732.738 -1.2995 4.19535 0
M  V30 7805 H 733.344 0.372186 4.23668 0
M  V30 7806 N 731.66 -1.50943 0.453197 0
M  V30 7807 C 732.888 -2.06628 -0.106135 0
M  V30 7808 C 733.303 -1.31901 -1.35084 0
M  V30 7809 O 732.66 -0.383074 -1.78434 0
M  V30 7810 C 732.711 -3.5914 -0.412368 0
M  V30 7811 O 732.432 -4.31047 0.782948 0
M  V30 7812 C 733.933 -4.31391 -1.02064 0
M  V30 7813 H 731.153 -0.670999 -0.000885896 0
M  V30 7814 H 733.697 -1.94331 0.63684 0
M  V30 7815 H 731.852 -3.71299 -1.10526 0
M  V30 7816 H 732.266 -5.21948 0.516736 0
M  V30 7817 H 733.74 -5.39135 -1.1848 0
M  V30 7818 H 734.217 -3.90714 -2.00598 0
M  V30 7819 H 734.823 -4.23716 -0.366664 0
M  V30 7820 N 733.138 -0.185124 -1.56509 0
M  V30 7821 C 734.387 0.456421 -1.96468 0
M  V30 7822 C 734.7 1.63448 -1.07444 0
M  V30 7823 O 735.906 2.34316 -1.37143 0
M  V30 7824 C 734.362 0.863404 -3.4939 0
M  V30 7825 C 733.97 -0.289815 -4.47062 0
M  V30 7826 C 735.714 1.47259 -3.98139 0
M  V30 7827 C 733.621 0.137571 -5.9124 0
M  V30 7828 H 732.551 0.17429 -0.733579 0
M  V30 7829 H 735.202 -0.275554 -1.81419 0
M  V30 7830 H 733.584 1.65176 -3.59907 0
M  V30 7831 H 734.758 -1.06728 -4.4827 0
M  V30 7832 H 733.073 -0.809851 -4.08449 0
M  V30 7833 H 735.67 1.80463 -5.03326 0
M  V30 7834 H 736.013 2.3755 -3.41871 0
M  V30 7835 H 736.546 0.748405 -3.90696 0
M  V30 7836 H 733.285 -0.730907 -6.51412 0
M  V30 7837 H 732.805 0.8801 -5.93308 0
M  V30 7838 H 734.484 0.576771 -6.44424 0
M  V30 7839 N 734.616 1.57351 0.0885366 0
M  V30 7840 C 735.579 2.01557 1.09121 0
M  V30 7841 C 736.579 0.910052 1.3257 0
M  V30 7842 O 737.769 1.17537 1.28572 0
M  V30 7843 C 734.901 2.38189 2.43883 0
M  V30 7844 H 736.094 2.91361 0.710562 0
M  V30 7845 H 733.647 1.52694 0.333779 0
M  V30 7846 H 734.382 1.5136 2.86811 0
M  V30 7847 H 734.167 3.18846 2.28209 0
M  V30 7848 H 735.657 2.73025 3.15986 0
M  V30 7849 N 736.094 -0.359525 1.53444 0
M  V30 7850 C 737.341 -1.10152 1.6992 0
M  V30 7851 C 737.669 -1.89125 0.4541 0
M  V30 7852 O 736.924 -1.87396 -0.564023 0
M  V30 7853 C 737.223 -2.08287 2.90433 0
M  V30 7854 C 736.889 -1.45749 4.26694 0
M  V30 7855 C 735.551 -1.28421 4.63747 0
M  V30 7856 C 737.903 -1.00557 5.11408 0
M  V30 7857 C 735.231 -0.644951 5.83144 0
M  V30 7858 C 737.583 -0.380288 6.31456 0
M  V30 7859 C 736.247 -0.194557 6.67216 0
M  V30 7860 H 735.517 -0.403076 0.621781 0
M  V30 7861 H 738.164 -0.382612 1.87639 0
M  V30 7862 H 736.469 -2.86503 2.67251 0
M  V30 7863 H 738.166 -2.65662 3.00374 0
M  V30 7864 H 734.756 -1.6023 3.97523 0
M  V30 7865 H 738.94 -1.12735 4.83326 0
M  V30 7866 H 734.196 -0.48952 6.09437 0
M  V30 7867 H 738.37 -0.0219455 6.96397 0
M  V30 7868 H 735.997 0.30285 7.59597 0
M  V30 7869 N 737.572 -1.44907 -0.619662 0
M  V30 7870 C 738.818 -1.48512 -1.38102 0
M  V30 7871 C 739.151 -0.121686 -1.93818 0
M  V30 7872 O 738.426 0.862256 -1.74343 0
M  V30 7873 C 738.709 -2.55469 -2.53787 0
M  V30 7874 C 738.562 -4.01212 -2.03345 0
M  V30 7875 C 739.881 -2.58821 -3.55949 0
M  V30 7876 H 737 -0.540712 -0.500799 0
M  V30 7877 H 739.642 -1.7665 -0.69962 0
M  V30 7878 H 737.792 -2.31606 -3.11915 0
M  V30 7879 H 739.464 -4.36245 -1.49959 0
M  V30 7880 H 737.707 -4.12443 -1.34438 0
M  V30 7881 H 738.378 -4.71717 -2.86683 0
M  V30 7882 H 740.854 -2.80172 -3.07641 0
M  V30 7883 H 739.73 -3.35542 -4.34399 0
M  V30 7884 H 739.991 -1.63451 -4.10775 0
M  V30 7885 N 739.05 0.861098 -1.31996 0
M  V30 7886 C 740.466 1.14827 -1.10846 0
M  V30 7887 C 740.666 2.0117 0.11528 0
M  V30 7888 O 739.722 2.39423 0.802048 0
M  V30 7889 C 741.035 1.83183 -2.38462 0
M  V30 7890 C 742.583 1.95847 -2.44158 0
M  V30 7891 C 743.058 2.67617 -3.71679 0
M  V30 7892 N 744.549 2.75147 -3.72624 0
M  V30 7893 C 745.284 3.31314 -4.67994 0
M  V30 7894 N 744.78 3.88343 -5.73726 0
M  V30 7895 N 746.573 3.29356 -4.55501 0
M  V30 7896 H 738.724 0.285951 -2.10466 0
M  V30 7897 H 740.987 0.189303 -0.928907 0
M  V30 7898 H 740.693 1.27193 -3.27895 0
M  V30 7899 H 740.567 2.83393 -2.48935 0
M  V30 7900 H 742.954 2.50999 -1.55189 0
M  V30 7901 H 743.035 0.94653 -2.37644 0
M  V30 7902 H 742.679 2.13131 -4.61018 0
M  V30 7903 H 742.609 3.69237 -3.75462 0
M  V30 7904 H 745.1 2.34682 -2.96197 0
M  V30 7905 H 745.413 4.29338 -6.42564 0
M  V30 7906 H 743.758 3.86693 -5.77489 0
M  V30 7907 H 746.949 2.84047 -3.72069 0
M  V30 7908 H 747.122 3.7283 -5.30001 0
M  V30 7909 N 740.528 1.15101 1.07655 0
M  V30 7910 C 741.491 0.847625 2.12951 0
M  V30 7911 C 742.491 -0.151227 1.60087 0
M  V30 7912 O 743.681 0.0780399 1.74025 0
M  V30 7913 C 740.813 0.265 3.39868 0
M  V30 7914 H 742.006 1.7809 2.41296 0
M  V30 7915 H 739.559 0.958072 1.23494 0
M  V30 7916 H 740.294 -0.676625 3.17163 0
M  V30 7917 H 740.079 0.984554 3.79538 0
M  V30 7918 H 741.569 0.0702121 4.17541 0
M  V30 7919 N 742.006 -1.2595 0.947325 0
M  V30 7920 C 742.936 -2.28521 0.479604 0
M  V30 7921 C 743.917 -1.63469 -0.470293 0
M  V30 7922 O 745.102 -1.90627 -0.370824 0
M  V30 7923 C 742.232 -3.46397 -0.250289 0
M  V30 7924 C 741.186 -4.23578 0.613643 0
M  V30 7925 C 740.512 -5.34131 -0.246568 0
M  V30 7926 C 741.812 -4.86979 1.88809 0
M  V30 7927 H 743.506 -2.67895 1.33688 0
M  V30 7928 H 741.052 -1.28783 0.644274 0
M  V30 7929 H 743.005 -4.17269 -0.588576 0
M  V30 7930 H 741.729 -3.05993 -1.14175 0
M  V30 7931 H 740.388 -3.54478 0.93491 0
M  V30 7932 H 740.036 -4.89968 -1.13756 0
M  V30 7933 H 739.736 -5.86683 0.328123 0
M  V30 7934 H 741.26 -6.07839 -0.579986 0
M  V30 7935 H 742.674 -5.50034 1.61666 0
M  V30 7936 H 741.071 -5.49675 2.40784 0
M  V30 7937 H 742.141 -4.09575 2.5957 0
M  V30 7938 N 743.484 -0.715051 -1.40445 0
M  V30 7939 C 744.432 -0.0509974 -2.32544 0
M  V30 7940 C 745.426 0.747602 -1.52011 0
M  V30 7941 O 746.632 0.651031 -1.67814 0
M  V30 7942 H 743.007 0.00231113 -0.751996 0
M  V30 7943 H 744.978 -0.84449 -2.86201 0
M  V30 7944 C 743.727 0.857101 -3.3697 0
M  V30 7945 H 743.05 0.252 -3.99005 0
M  V30 7946 H 744.49 1.28971 -4.03909 0
M  V30 7947 C 742.949 1.98231 -2.72408 0
M  V30 7948 O 743.479 3.07309 -2.58697 0
M  V30 7949 N 741.685 1.76577 -2.308 0
M  V30 7950 H 741.232 0.878641 -2.42152 0
M  V30 7951 H 741.19 2.52043 -1.87941 0
M  V30 7952 N 744.962 1.50701 -0.461195 0
M  V30 7953 C 746.208 2.02566 0.0973411 0
M  V30 7954 C 746.541 1.3432 1.40257 0
M  V30 7955 O 745.816 0.465692 1.88843 0
M  V30 7956 C 746.099 3.58919 0.291423 0
M  V30 7957 C 745.952 4.37751 -1.03413 0
M  V30 7958 C 747.271 4.27379 1.05048 0
M  V30 7959 H 744.39 0.73622 0.0339026 0
M  V30 7960 H 747.032 1.80115 -0.604855 0
M  V30 7961 H 745.182 3.78179 0.889539 0
M  V30 7962 H 746.854 4.30085 -1.66806 0
M  V30 7963 H 745.097 4.01885 -1.63313 0
M  V30 7964 H 745.768 5.45384 -0.852085 0
M  V30 7965 H 748.244 4.12534 0.543603 0
M  V30 7966 H 747.12 5.36609 1.15506 0
M  V30 7967 H 747.381 3.89868 2.0846 0
M  V30 7968 N 746.441 0.193421 1.56409 0
M  V30 7969 C 747.374 -0.767384 2.1491 0
M  V30 7970 C 748.352 -1.21075 1.08534 0
M  V30 7971 O 749.536 -1.29856 1.36637 0
M  V30 7972 C 746.663 -2.03615 2.70663 0
M  V30 7973 C 745.709 -1.73505 3.89613 0
M  V30 7974 S 746.542 -0.884645 5.28142 0
M  V30 7975 C 747.698 -2.1636 5.87315 0
M  V30 7976 H 747.931 -0.270053 2.96071 0
M  V30 7977 H 745.464 -0.0215546 1.54385 0
M  V30 7978 H 747.422 -2.7648 3.03429 0
M  V30 7979 H 746.083 -2.50461 1.89547 0
M  V30 7980 H 745.276 -2.67701 4.27027 0
M  V30 7981 H 744.878 -1.08723 3.57848 0
M  V30 7982 H 747.17 -3.11629 6.01576 0
M  V30 7983 H 748.113 -1.8338 6.83943 0
M  V30 7984 H 748.521 -2.29129 5.15907 0
M  V30 7985 N 747.919 -1.57396 -0.0801906 0
M  V30 7986 C 748.849 -2.06145 -1.09665 0
M  V30 7987 C 749.83 -0.953273 -1.40878 0
M  V30 7988 O 751.015 -1.22548 -1.50651 0
M  V30 7989 C 748.145 -2.49836 -2.41245 0
M  V30 7990 C 747.099 -3.64454 -2.24405 0
M  V30 7991 C 746.425 -3.94172 -3.61293 0
M  V30 7992 C 747.725 -4.94807 -1.67223 0
M  V30 7993 H 749.419 -2.91316 -0.691028 0
M  V30 7994 H 746.965 -1.40145 -0.330957 0
M  V30 7995 H 748.918 -2.82552 -3.12638 0
M  V30 7996 H 747.642 -1.61683 -2.83771 0
M  V30 7997 H 746.301 -3.32008 -1.55454 0
M  V30 7998 H 745.949 -3.03163 -4.01374 0
M  V30 7999 H 745.649 -4.71345 -3.50867 0
M  V30 8000 H 747.173 -4.29376 -4.3413 0
M  V30 8001 H 748.587 -5.25807 -2.28472 0
M  V30 8002 H 746.984 -5.76245 -1.67515 0
M  V30 8003 H 748.054 -4.80751 -0.632944 0
M  V30 8004 N 749.397 0.351382 -1.53633 0
M  V30 8005 C 750.344 1.43115 -1.81071 0
M  V30 8006 C 751.314 1.52601 -0.655913 0
M  V30 8007 O 752.499 1.68264 -0.89955 0
M  V30 8008 C 749.639 2.79874 -2.01903 0
M  V30 8009 C 748.752 2.79242 -3.29618 0
M  V30 8010 C 747.887 4.07667 -3.40559 0
M  V30 8011 C 746.926 4.01233 -4.62254 0
M  V30 8012 N 746.063 5.21334 -4.70271 0
M  V30 8013 H 750.903 1.19017 -2.73201 0
M  V30 8014 H 748.44 0.576691 -1.35324 0
M  V30 8015 H 750.398 3.5934 -2.11969 0
M  V30 8016 H 749.028 3.0234 -1.13094 0
M  V30 8017 H 748.08 1.91927 -3.28433 0
M  V30 8018 H 749.392 2.70363 -4.19172 0
M  V30 8019 H 748.546 4.95555 -3.50015 0
M  V30 8020 H 747.285 4.19317 -2.49047 0
M  V30 8021 H 746.29 3.11732 -4.52884 0
M  V30 8022 H 747.515 3.91173 -5.55122 0
M  V30 8023 H 745.461 5.33543 -3.81665 0
M  V30 8024 H 745.378 5.14681 -5.5375 0
M  V30 8025 H 746.646 6.11014 -4.84027 0
M  V30 8026 N 750.875 1.45233 0.611969 0
M  V30 8027 C 751.823 1.53898 1.74408 0
M  V30 8028 C 752.817 0.409254 1.64382 0
M  V30 8029 O 754.023 0.584988 1.70229 0
M  V30 8030 H 750.398 0.483303 0.576127 0
M  V30 8031 H 752.369 2.49143 1.64227 0
M  V30 8032 C 751.118 1.51865 3.12782 0
M  V30 8033 H 750.441 2.38118 3.21154 0
M  V30 8034 H 751.881 1.61986 3.91838 0
M  V30 8035 C 750.34 0.242374 3.36027 0
M  V30 8036 O 750.87 -0.679587 3.9591 0
M  V30 8037 N 749.076 0.139448 2.90265 0
M  V30 8038 H 748.623 0.890571 2.41716 0
M  V30 8039 H 748.581 -0.713686 3.06193 0
M  V30 8040 N 752.353 -0.854086 1.3245 0
M  V30 8041 C 753.3 -1.96271 1.21434 0
M  V30 8042 C 754.27 -1.6582 0.0963851 0
M  V30 8043 O 755.455 -1.88851 0.27203 0
M  V30 8044 C 752.595 -3.31939 0.943952 0
M  V30 8045 C 751.708 -3.74885 2.14675 0
M  V30 8046 C 750.843 -4.99347 1.81179 0
M  V30 8047 C 749.882 -5.34785 2.97777 0
M  V30 8048 N 749.019 -6.50425 2.6437 0
M  V30 8049 H 753.859 -2.05025 2.16261 0
M  V30 8050 H 751.396 -1.00348 1.07558 0
M  V30 8051 H 753.354 -4.10076 0.767675 0
M  V30 8052 H 751.984 -3.22784 0.0324763 0
M  V30 8053 H 751.036 -2.92396 2.43328 0
M  V30 8054 H 752.348 -3.97068 3.01891 0
M  V30 8055 H 751.502 -5.85193 1.60107 0
M  V30 8056 H 750.241 -4.79101 0.911777 0
M  V30 8057 H 749.246 -4.47451 3.1948 0
M  V30 8058 H 750.471 -5.56988 3.88511 0
M  V30 8059 H 748.417 -6.31695 1.7691 0
M  V30 8060 H 748.334 -6.7263 3.45116 0
M  V30 8061 H 749.602 -7.39422 2.46729 0
M  V30 8062 N 753.831 -1.1567 -1.07043 0
M  V30 8063 C 755.056 -0.957946 -1.83952 0
M  V30 8064 C 755.481 0.488807 -1.81638 0
M  V30 8065 O 754.839 1.34869 -1.21162 0
M  V30 8066 C 754.887 -1.48064 -3.288 0
M  V30 8067 O 753.991 -0.681921 -4.06723 0
M  V30 8068 H 753.332 -0.341453 -0.569479 0
M  V30 8069 H 755.862 -1.53728 -1.35015 0
M  V30 8070 H 755.872 -1.49484 -3.7963 0
M  V30 8071 H 754.547 -2.53388 -3.29799 0
M  V30 8072 H 753.124 -0.737612 -3.65532 0
M  V30 8073 N 755.309 1.25446 -0.953992 0
M  V30 8074 C 756.558 1.92441 -0.604101 0
M  V30 8075 C 756.871 1.75543 0.862796 0
M  V30 8076 O 758.077 2.37106 1.32262 0
M  V30 8077 C 756.533 3.44854 -1.02974 0
M  V30 8078 C 756.141 3.70464 -2.51914 0
M  V30 8079 C 757.885 4.1778 -0.752352 0
M  V30 8080 C 755.792 5.1638 -2.88281 0
M  V30 8081 H 754.722 0.720508 -0.222227 0
M  V30 8082 H 757.373 1.42318 -1.15836 0
M  V30 8083 H 755.755 3.93935 -0.403904 0
M  V30 8084 H 756.929 3.32038 -3.19511 0
M  V30 8085 H 755.244 3.10797 -2.77117 0
M  V30 8086 H 757.841 5.25261 -1.00024 0
M  V30 8087 H 758.184 4.15135 0.311212 0
M  V30 8088 H 758.717 3.74605 -1.33851 0
M  V30 8089 H 755.456 5.24135 -3.93653 0
M  V30 8090 H 754.976 5.55855 -2.25357 0
M  V30 8091 H 756.655 5.84497 -2.77439 0
M  V30 8092 N 756.787 0.722489 1.40064 0
M  V30 8093 C 757.734 0.0743738 2.3068 0
M  V30 8094 C 758.704 -0.743004 1.48555 0
M  V30 8095 O 759.889 -0.705536 1.77276 0
M  V30 8096 C 757.029 -0.836292 3.34814 0
M  V30 8097 C 756.142 -0.00764663 4.31999 0
M  V30 8098 C 755.277 -0.918428 5.232 0
M  V30 8099 C 754.316 -0.0842838 6.12042 0
M  V30 8100 N 753.453 -0.950316 6.95639 0
M  V30 8101 H 758.293 0.852794 2.85537 0
M  V30 8102 H 755.83 0.432222 1.40607 0
M  V30 8103 H 757.788 -1.3786 3.93765 0
M  V30 8104 H 756.418 -1.58082 2.81443 0
M  V30 8105 H 755.47 0.651928 3.74772 0
M  V30 8106 H 756.782 0.63786 4.94705 0
M  V30 8107 H 755.936 -1.52902 5.87116 0
M  V30 8108 H 754.675 -1.59774 4.60786 0
M  V30 8109 H 753.68 0.5392 5.4715 0
M  V30 8110 H 754.905 0.591628 6.76518 0
M  V30 8111 H 752.851 -1.61515 6.35806 0
M  V30 8112 H 752.768 -0.361004 7.55138 0
M  V30 8113 H 754.036 -1.54687 7.63997 0
M  V30 8114 N 758.265 -1.50454 0.469181 0
M  V30 8115 C 759.542 -1.9504 -0.147955 0
M  V30 8116 C 759.922 -1.40946 -1.57154 0
M  V30 8117 O 759.27 -0.609663 -2.20217 0
M  V30 8118 C 759.48 -3.48875 -0.0932198 0
M  V30 8119 C 760.828 -4.23655 -0.283056 0
M  V30 8120 O 761.852 -3.55795 -0.169892 0
M  V30 8121 O 760.711 -5.44102 -0.511396 0
M  V30 8122 H 757.805 -0.819283 -0.11271 0
M  V30 8123 H 760.351 -1.6123 0.529446 0
M  V30 8124 H 759.123 -3.80791 0.900784 0
M  V30 8125 H 758.746 -3.89217 -0.812161 0
M  V30 8126 N 759.743 -0.201713 -1.56304 0
M  V30 8127 C 761.159 0.154025 -1.58855 0
M  V30 8128 C 761.359 1.60516 -1.21807 0
M  V30 8129 O 760.415 2.34193 -0.94393 0
M  V30 8130 C 761.728 -0.154319 -3.00304 0
M  V30 8131 C 763.276 -0.0949578 -3.12856 0
M  V30 8132 C 763.751 -0.376703 -4.56448 0
M  V30 8133 N 765.242 -0.325558 -4.62054 0
M  V30 8134 C 765.977 -0.51732 -5.71062 0
M  V30 8135 N 765.473 -0.769789 -6.8851 0
M  V30 8136 N 767.266 -0.45112 -5.60287 0
M  V30 8137 H 759.417 -1.14858 -1.78666 0
M  V30 8138 H 761.68 -0.458934 -0.829508 0
M  V30 8139 H 761.386 -1.16074 -3.31994 0
M  V30 8140 H 761.26 0.540014 -3.73314 0
M  V30 8141 H 763.647 0.902075 -2.80974 0
M  V30 8142 H 763.728 -0.822468 -2.42217 0
M  V30 8143 H 763.372 -1.37108 -4.89044 0
M  V30 8144 H 763.302 0.371772 -5.25286 0
M  V30 8145 H 765.793 -0.137308 -3.7765 0
M  V30 8146 H 766.106 -0.904744 -7.67486 0
M  V30 8147 H 764.451 -0.806758 -6.90302 0
M  V30 8148 H 767.642 -0.254253 -4.67409 0
M  V30 8149 H 767.815 -0.603982 -6.45179 0
M  V30 8150 N 761.222 1.57436 0.0718424 0
M  V30 8151 C 762.152 2.06724 1.08571 0
M  V30 8152 C 763.133 0.960731 1.40371 0
M  V30 8153 O 764.318 1.23345 1.49999 0
M  V30 8154 C 761.448 2.51112 2.39916 0
M  V30 8155 C 760.402 3.65639 2.22469 0
M  V30 8156 C 759.728 3.96082 3.59198 0
M  V30 8157 C 761.028 4.95687 1.64596 0
M  V30 8158 H 762.722 2.91679 0.675569 0
M  V30 8159 H 760.268 1.40319 0.32352 0
M  V30 8160 H 762.221 2.84206 3.11135 0
M  V30 8161 H 760.945 1.63186 2.8291 0
M  V30 8162 H 759.604 3.32828 1.53691 0
M  V30 8163 H 759.252 3.05287 3.99761 0
M  V30 8164 H 758.952 4.73199 3.48362 0
M  V30 8165 H 760.476 4.31672 4.31847 0
M  V30 8166 H 761.89 5.27011 2.25681 0
M  V30 8167 H 760.287 5.77126 1.64457 0
M  V30 8168 H 761.357 4.8108 0.60744 0
M  V30 8169 N 762.7 -0.34323 1.53817 0
M  V30 8170 C 763.946 -1.08504 1.71332 0
M  V30 8171 C 764.279 -1.88294 0.475285 0
M  V30 8172 O 763.554 -1.87205 -0.527688 0
M  V30 8173 C 763.837 -2.02597 2.97702 0
M  V30 8174 C 763.69 -1.26268 4.31713 0
M  V30 8175 C 765.009 -3.0241 3.19744 0
M  V30 8176 H 762.128 -0.393072 0.623429 0
M  V30 8177 H 764.77 -0.363579 1.86489 0
M  V30 8178 H 762.92 -2.64118 2.8491 0
M  V30 8179 H 764.592 -0.673594 4.56356 0
M  V30 8180 H 762.835 -0.564696 4.30109 0
M  V30 8181 H 763.506 -1.95253 5.16314 0
M  V30 8182 H 765.982 -2.51004 3.31868 0
M  V30 8183 H 764.858 -3.65449 4.09558 0
M  V30 8184 H 765.119 -3.73806 2.36054 0
M  V30 8185 N 764.178 -1.45556 -0.604258 0
M  V30 8186 C 765.589 -1.44171 -1.18624 0
M  V30 8187 C 765.94 -0.171081 -1.95453 0
M  V30 8188 O 765.065 0.727156 -2.03817 0
M  V30 8189 C 765.66 -2.61193 -2.15786 0
M  V30 8190 C 764.219 -2.62918 -2.69353 0
M  V30 8191 C 763.366 -2.36479 -1.4482 0
M  V30 8192 H 766.317 -1.53747 -0.393381 0
M  V30 8193 H 766.338 -2.35481 -2.98879 0
M  V30 8194 H 765.85 -3.53656 -1.59841 0
M  V30 8195 H 763.951 -1.7447 -3.29228 0
M  V30 8196 H 764.064 -3.6224 -3.13559 0
M  V30 8197 H 762.428 -1.86103 -1.73891 0
M  V30 8198 H 763.211 -3.31091 -0.907376 0
M  V30 8199 N 765.656 0.84705 -1.32902 0
M  V30 8200 C 766.905 1.59667 -1.23245 0
M  V30 8201 C 767.218 1.94551 0.202349 0
M  V30 8202 O 768.424 2.68218 0.420847 0
M  V30 8203 C 766.88 2.8795 -2.15901 0
M  V30 8204 C 766.488 2.60461 -3.64505 0
M  V30 8205 C 768.232 3.65968 -2.15098 0
M  V30 8206 C 766.139 3.84791 -4.49099 0
M  V30 8207 H 765.069 0.599167 -0.457728 0
M  V30 8208 H 767.72 0.934662 -1.57912 0
M  V30 8209 H 766.102 3.55648 -1.74157 0
M  V30 8210 H 767.276 2.01026 -4.14639 0
M  V30 8211 H 765.591 1.9576 -3.67515 0
M  V30 8212 H 768.188 4.58241 -2.75534 0
M  V30 8213 H 768.531 4.00275 -1.14392 0
M  V30 8214 H 769.064 3.05184 -2.55162 0
M  V30 8215 H 765.803 3.55621 -5.50649 0
M  V30 8216 H 765.323 4.43594 -4.03713 0
M  V30 8217 H 767.002 4.52454 -4.62487 0
M  V30 8218 N 767.134 1.16236 1.06428 0
M  V30 8219 C 768.383 0.937523 1.78587 0
M  V30 8220 C 768.696 -0.536 1.88113 0
M  V30 8221 O 769.902 -0.878697 2.56887 0
M  V30 8222 C 768.358 1.62808 3.2097 0
M  V30 8223 C 767.966 3.13927 3.19615 0
M  V30 8224 C 769.71 1.48515 3.97673 0
M  V30 8225 C 767.617 3.75727 4.56709 0
M  V30 8226 H 766.547 0.347125 0.669343 0
M  V30 8227 H 769.198 1.39353 1.19385 0
M  V30 8228 H 767.58 1.09977 3.80422 0
M  V30 8229 H 768.754 3.7359 2.69753 0
M  V30 8230 H 767.069 3.28089 2.56411 0
M  V30 8231 H 769.666 1.92069 4.99013 0
M  V30 8232 H 770.009 0.433913 4.14032 0
M  V30 8233 H 770.542 1.98494 3.44739 0
M  V30 8234 H 767.281 4.80793 4.45554 0
M  V30 8235 H 766.801 3.20849 5.0677 0
M  V30 8236 H 768.48 3.77203 5.25668 0
M  V30 8237 N 768.612 -1.24939 0.960631 0
M  V30 8238 C 769.575 -2.239 0.49006 0
M  V30 8239 C 770.575 -1.55497 -0.409535 0
M  V30 8240 O 771.765 -1.72978 -0.205984 0
M  V30 8241 C 768.897 -3.39654 -0.291193 0
M  V30 8242 H 770.09 -2.67044 1.36482 0
M  V30 8243 H 767.643 -1.37429 0.744505 0
M  V30 8244 H 768.378 -3.01939 -1.18336 0
M  V30 8245 H 768.163 -3.90496 0.354276 0
M  V30 8246 H 769.653 -4.13125 -0.609693 0
M  V30 8247 N 770.09 -0.729906 -1.39679 0
M  V30 8248 C 771.367 -0.202149 -1.94553 0
M  V30 8249 C 771.747 1.29507 -1.66707 0
M  V30 8250 O 771.095 2.05819 -0.992517 0
M  V30 8251 C 771.305 -0.530279 -3.44948 0
M  V30 8252 C 772.653 -0.476808 -4.21914 0
M  V30 8253 O 773.677 -0.467171 -3.53123 0
M  V30 8254 O 772.536 -0.466869 -5.44502 0
M  V30 8255 H 769.63 -0.0351644 -0.826252 0
M  V30 8256 H 772.176 -0.808417 -1.49207 0
M  V30 8257 H 770.948 -1.56526 -3.5863 0
M  V30 8258 H 770.571 0.10522 -3.97461 0
M  V30 8259 N 771.568 1.50203 -0.477153 0
M  V30 8260 C 772.478 2.32421 0.319027 0
M  V30 8261 C 773.494 1.43075 0.990233 0
M  V30 8262 O 774.67 1.76123 0.976873 0
M  V30 8263 C 771.735 3.17909 1.38328 0
M  V30 8264 C 770.796 4.23082 0.728036 0
M  V30 8265 C 770.029 5.04484 1.74158 0
M  V30 8266 O 770.252 4.8705 2.96881 0
M  V30 8267 O 769.186 5.8747 1.31006 0
M  V30 8268 H 773.012 3.01638 -0.353281 0
M  V30 8269 H 770.597 1.47478 -0.238891 0
M  V30 8270 H 772.479 3.70937 1.9996 0
M  V30 8271 H 771.154 2.51413 2.03895 0
M  V30 8272 H 770.061 3.7403 0.07261 0
M  V30 8273 H 771.394 4.92065 0.115216 0
M  V30 8274 N 773.046 0.209999 1.56195 0
M  V30 8275 C 774.009 -0.691232 2.18528 0
M  V30 8276 C 775.009 -1.13013 1.14388 0
M  V30 8277 O 776.199 -1.04081 1.39688 0
M  V30 8278 C 773.331 -1.94551 2.79934 0
M  V30 8279 H 774.524 -0.147953 2.99535 0
M  V30 8280 H 772.077 -0.0396243 1.5625 0
M  V30 8281 H 772.812 -2.53094 2.02766 0
M  V30 8282 H 772.597 -1.63938 3.56184 0
M  V30 8283 H 774.087 -2.58785 3.2775 0
M  V30 8284 N 774.524 -1.57472 -0.0634922 0
M  V30 8285 C 775.94 -1.54016 -0.418466 0
M  V30 8286 C 776.14 -0.931376 -1.78683 0
M  V30 8287 O 775.196 -0.537465 -2.46714 0
M  V30 8288 C 776.509 -2.98634 -0.351906 0
M  V30 8289 C 778.057 -3.10012 -0.431494 0
M  V30 8290 C 778.532 -4.56296 -0.394754 0
M  V30 8291 N 780.023 -4.60964 -0.454583 0
M  V30 8292 C 780.758 -5.71643 -0.448501 0
M  V30 8293 N 780.254 -6.91663 -0.396742 0
M  V30 8294 N 782.047 -5.5991 -0.495677 0
M  V30 8295 H 774.198 -1.95409 0.832408 0
M  V30 8296 H 776.461 -0.894769 0.313197 0
M  V30 8297 H 776.167 -3.46766 0.587048 0
M  V30 8298 H 776.041 -3.58955 -1.15893 0
M  V30 8299 H 778.428 -2.61848 -1.36087 0
M  V30 8300 H 778.509 -2.52585 0.404258 0
M  V30 8301 H 778.153 -5.05119 0.530811 0
M  V30 8302 H 778.083 -5.11594 -1.24815 0
M  V30 8303 H 780.574 -3.74598 -0.498496 0
M  V30 8304 H 780.887 -7.71783 -0.396256 0
M  V30 8305 H 779.232 -6.9405 -0.363304 0
M  V30 8306 H 782.423 -4.65046 -0.533864 0
M  V30 8307 H 782.596 -6.46164 -0.487469 0
M  V30 8308 N 776.003 0.335068 -1.53997 0
M  V30 8309 C 777.231 1.09418 -1.756 0
M  V30 8310 C 777.646 1.82083 -0.499138 0
M  V30 8311 O 777.003 1.74646 0.529631 0
M  V30 8312 C 777.054 2.10115 -2.94166 0
M  V30 8313 O 776.775 1.40404 -4.14992 0
M  V30 8314 C 778.276 2.98336 -3.27888 0
M  V30 8315 H 775.496 0.32595 -0.586513 0
M  V30 8316 H 778.04 0.384693 -2.00849 0
M  V30 8317 H 776.195 2.76616 -2.71224 0
M  V30 8318 H 776.609 2.07743 -4.81605 0
M  V30 8319 H 778.083 3.6491 -4.1418 0
M  V30 8320 H 778.56 3.64814 -2.44556 0
M  V30 8321 H 779.166 2.37412 -3.52868 0
M  V30 8322 N 777.481 1.45874 0.596531 0
M  V30 8323 C 778.728 1.50467 1.35521 0
M  V30 8324 C 779.056 0.150802 1.93915 0
M  V30 8325 O 778.311 -0.851913 1.76184 0
M  V30 8326 C 778.61 2.54034 2.51399 0
M  V30 8327 C 778.276 3.9844 2.11085 0
M  V30 8328 C 776.938 4.37758 1.99804 0
M  V30 8329 C 779.29 4.89209 1.79788 0
M  V30 8330 C 776.618 5.65727 1.55465 0
M  V30 8331 C 778.97 6.17602 1.36931 0
M  V30 8332 C 777.634 6.5584 1.24218 0
M  V30 8333 H 776.904 0.550597 0.495907 0
M  V30 8334 H 779.551 1.79279 0.673145 0
M  V30 8335 H 777.856 2.18832 3.24992 0
M  V30 8336 H 779.553 2.54822 3.09624 0
M  V30 8337 H 776.143 3.67353 2.20794 0
M  V30 8338 H 780.327 4.59562 1.87395 0
M  V30 8339 H 775.583 5.94139 1.44253 0
M  V30 8340 H 779.757 6.87373 1.11764 0
M  V30 8341 H 777.384 7.54897 0.896353 0
M  V30 8342 N 778.959 -0.83999 1.33349 0
M  V30 8343 C 780.207 -1.59202 1.24496 0
M  V30 8344 C 780.528 -1.94077 -0.189499 0
M  V30 8345 O 779.798 -1.60868 -1.11796 0
M  V30 8346 H 778.378 -0.590276 0.457802 0
M  V30 8347 H 781.04 -1.00394 1.67054 0
M  V30 8348 H 780.136 -2.52247 1.83788 0
M  V30 8349 N 780.437 -1.16799 -1.0581 0
M  V30 8350 C 781.37 -0.822491 -2.12862 0
M  V30 8351 C 782.348 0.208006 -1.61264 0
M  V30 8352 O 783.532 0.0909652 -1.8828 0
M  V30 8353 C 780.659 -0.225826 -3.37946 0
M  V30 8354 C 779.705 -1.23071 -4.08357 0
M  V30 8355 S 780.538 -2.77944 -4.5772 0
M  V30 8356 C 781.694 -2.19741 -5.86059 0
M  V30 8357 H 781.927 -1.72917 -2.41841 0
M  V30 8358 H 779.46 -0.991982 -1.18318 0
M  V30 8359 H 781.418 0.111955 -4.10347 0
M  V30 8360 H 780.079 0.658692 -3.07116 0
M  V30 8361 H 779.272 -0.761758 -4.9821 0
M  V30 8362 H 778.874 -1.51383 -3.41993 0
M  V30 8363 H 781.166 -1.5691 -6.59079 0
M  V30 8364 H 782.109 -3.07823 -6.37692 0
M  V30 8365 H 782.517 -1.63433 -5.40324 0
M  V30 8366 N 781.915 1.24427 -0.967243 0
M  V30 8367 C 782.825 2.29109 -0.504592 0
M  V30 8368 C 783.841 1.68495 0.434224 0
M  V30 8369 O 785.017 1.99041 0.307379 0
M  V30 8370 C 782.082 3.46133 0.198273 0
M  V30 8371 C 781.143 4.22149 -0.780313 0
M  V30 8372 C 780.376 5.33585 -0.110896 0
M  V30 8373 O 780.599 5.59676 1.10088 0
M  V30 8374 O 779.533 5.96522 -0.802823 0
M  V30 8375 H 783.359 2.708 -1.37482 0
M  V30 8376 H 780.944 1.30111 -0.73426 0
M  V30 8377 H 782.826 4.17205 0.593124 0
M  V30 8378 H 781.501 3.0642 1.04347 0
M  V30 8379 H 780.408 3.53454 -1.22561 0
M  V30 8380 H 781.741 4.65677 -1.59392 0
M  V30 8381 N 783.393 0.737304 1.3929 0
M  V30 8382 C 784.641 0.285691 2.00071 0
M  V30 8383 C 784.962 -1.13169 1.58801 0
M  V30 8384 O 784.232 -1.77104 0.837308 0
M  V30 8385 H 782.812 0.102638 0.739915 0
M  V30 8386 H 785.474 0.947775 1.70303 0
M  V30 8387 H 784.57 0.335906 3.10287 0
M  V30 8388 N 784.871 -1.49948 0.485112 0
M  V30 8389 C 785.801 -2.31675 -0.291364 0
M  V30 8390 C 786.782 -1.39216 -0.977383 0
M  V30 8391 O 787.967 -1.68133 -0.971855 0
M  V30 8392 C 785.097 -3.19326 -1.36558 0
M  V30 8393 C 784.051 -4.2045 -0.800359 0
M  V30 8394 C 783.377 -4.96931 -1.97391 0
M  V30 8395 C 784.677 -5.21925 0.197867 0
M  V30 8396 H 786.371 -2.96839 0.390775 0
M  V30 8397 H 783.917 -1.42749 0.189375 0
M  V30 8398 H 785.87 -3.75304 -1.91638 0
M  V30 8399 H 784.594 -2.52074 -2.07668 0
M  V30 8400 H 783.253 -3.65594 -0.271428 0
M  V30 8401 H 782.901 -4.26141 -2.67232 0
M  V30 8402 H 782.601 -5.65344 -1.60187 0
M  V30 8403 H 784.125 -5.55749 -2.52935 0
M  V30 8404 H 785.539 -5.72691 -0.264239 0
M  V30 8405 H 783.936 -5.98138 0.484908 0
M  V30 8406 H 785.006 -4.71809 1.11912 0
M  V30 8407 N 786.349 -0.21828 -1.56081 0
M  V30 8408 C 787.596 0.414307 -1.98216 0
M  V30 8409 C 787.924 1.60005 -1.10584 0
M  V30 8410 O 787.179 1.95124 -0.150043 0
M  V30 8411 C 787.478 0.894782 -3.46018 0
M  V30 8412 C 787.144 -0.180083 -4.5054 0
M  V30 8413 C 785.806 -0.475367 -4.78846 0
M  V30 8414 C 788.158 -0.907191 -5.13244 0
M  V30 8415 C 785.486 -1.50233 -5.67139 0
M  V30 8416 C 787.838 -1.92347 -6.02649 0
M  V30 8417 C 786.502 -2.22571 -6.293 0
M  V30 8418 H 785.772 0.151606 -0.725325 0
M  V30 8419 H 788.419 -0.320113 -1.88806 0
M  V30 8420 H 786.724 1.7079 -3.52616 0
M  V30 8421 H 788.421 1.39403 -3.75989 0
M  V30 8422 H 785.011 0.06022 -4.28558 0
M  V30 8423 H 789.195 -0.692303 -4.91448 0
M  V30 8424 H 784.451 -1.74215 -5.86054 0
M  V30 8425 H 788.625 -2.49197 -6.50288 0
M  V30 8426 H 786.252 -3.0229 -6.97513 0
M  V30 8427 N 787.827 1.57504 0.0551401 0
M  V30 8428 C 789.243 1.54236 0.410292 0
M  V30 8429 C 789.443 0.940839 1.78187 0
M  V30 8430 O 788.499 0.550541 2.46425 0
M  V30 8431 C 789.812 2.98816 0.336064 0
M  V30 8432 C 791.36 3.10236 0.415047 0
M  V30 8433 C 791.835 4.56499 0.37055 0
M  V30 8434 N 793.326 4.61199 0.43013 0
M  V30 8435 C 794.061 5.71873 0.418179 0
M  V30 8436 N 793.557 6.91864 0.360056 0
M  V30 8437 N 795.35 5.60165 0.465977 0
M  V30 8438 H 787.501 1.94965 -0.842759 0
M  V30 8439 H 789.764 0.893096 -0.317937 0
M  V30 8440 H 789.47 3.4645 -0.605429 0
M  V30 8441 H 789.344 3.59564 1.13988 0
M  V30 8442 H 791.731 2.62566 1.34697 0
M  V30 8443 H 791.812 2.52367 -0.417648 0
M  V30 8444 H 791.456 5.0483 -0.557592 0
M  V30 8445 H 791.386 5.12249 1.221 0
M  V30 8446 H 793.877 3.74857 0.478623 0
M  V30 8447 H 794.19 7.71983 0.35532 0
M  V30 8448 H 792.535 6.94233 0.326492 0
M  V30 8449 H 795.726 4.65322 0.509194 0
M  V30 8450 H 795.899 6.46413 0.453194 0
M  V30 8451 N 789.305 -0.326896 1.54172 0
M  V30 8452 C 790.237 -1.42319 1.79661 0
M  V30 8453 C 791.25 -1.47989 0.678456 0
M  V30 8454 O 792.439 -1.50773 0.955503 0
M  V30 8455 C 789.539 -2.80876 1.89636 0
M  V30 8456 C 788.712 -2.98449 3.19761 0
M  V30 8457 C 787.771 -4.17347 3.2048 0
M  V30 8458 O 786.797 -4.10667 3.94134 0
M  V30 8459 N 787.999 -5.26717 2.44027 0
M  V30 8460 H 790.764 -1.20819 2.74268 0
M  V30 8461 H 788.325 -0.516866 1.53428 0
M  V30 8462 H 790.317 -3.58619 1.87549 0
M  V30 8463 H 788.887 -2.95442 1.02141 0
M  V30 8464 H 788.107 -2.08035 3.34836 0
M  V30 8465 H 789.395 -3.07083 4.05681 0
M  V30 8466 H 788.793 -5.35019 1.8377 0
M  V30 8467 H 787.35 -6.02891 2.47721 0
M  V30 8468 N 790.784 -1.46188 -0.588786 0
M  V30 8469 C 792.033 -1.50452 -1.34339 0
M  V30 8470 C 792.346 -0.158096 -1.9496 0
M  V30 8471 O 793.552 -0.0784918 -2.71387 0
M  V30 8472 C 792.008 -2.65074 -2.43441 0
M  V30 8473 C 791.616 -4.06111 -1.8915 0
M  V30 8474 C 793.36 -2.78603 -3.20282 0
M  V30 8475 C 791.267 -5.12084 -2.95845 0
M  V30 8476 H 790.197 -0.559905 -0.504997 0
M  V30 8477 H 792.848 -1.72382 -0.629014 0
M  V30 8478 H 791.23 -2.36462 -3.1765 0
M  V30 8479 H 792.404 -4.44487 -1.21524 0
M  V30 8480 H 790.719 -3.97197 -1.24995 0
M  V30 8481 H 793.316 -3.54944 -3.99898 0
M  V30 8482 H 793.659 -1.85902 -3.72486 0
M  V30 8483 H 794.192 -3.06832 -2.53178 0
M  V30 8484 H 790.931 -6.06556 -2.48535 0
M  V30 8485 H 790.451 -4.78259 -3.61979 0
M  V30 8486 H 792.13 -5.37661 -3.59902 0
M  V30 8487 N 792.262 0.832906 -1.33792 0
M  V30 8488 C 793.51 1.58539 -1.25338 0
M  V30 8489 C 793.831 1.94175 0.179204 0
M  V30 8490 O 793.101 1.61458 1.10941 0
M  V30 8491 H 791.681 0.58784 -0.460926 0
M  V30 8492 H 794.343 0.995064 -1.67584 0
M  V30 8493 H 793.439 2.51268 -1.85123 0
M  V30 8494 N 793.74 1.17359 1.05189 0
M  V30 8495 C 794.989 0.956412 1.77583 0
M  V30 8496 C 795.302 -0.516018 1.88671 0
M  V30 8497 O 796.508 -0.851401 2.57805 0
M  V30 8498 C 794.964 1.66203 3.19225 0
M  V30 8499 C 794.572 3.17299 3.16267 0
M  V30 8500 C 796.316 1.52725 3.96075 0
M  V30 8501 C 794.223 3.8055 4.52698 0
M  V30 8502 H 793.153 0.354204 0.665624 0
M  V30 8503 H 795.804 1.40612 1.17901 0
M  V30 8504 H 794.186 1.14006 3.79234 0
M  V30 8505 H 795.36 3.76431 2.65776 0
M  V30 8506 H 793.675 3.3079 2.52917 0
M  V30 8507 H 796.272 1.97351 4.96947 0
M  V30 8508 H 796.615 0.477803 4.13549 0
M  V30 8509 H 797.148 2.02139 3.42614 0
M  V30 8510 H 793.887 4.85492 4.4043 0
M  V30 8511 H 793.407 3.26206 5.03339 0
M  V30 8512 H 795.086 3.82757 5.21638 0
M  V30 8513 N 795.218 -1.23913 0.973828 0
M  V30 8514 C 796.448 -1.95911 0.655938 0
M  V30 8515 C 796.856 -1.72375 -0.779967 0
M  V30 8516 O 796.199 -1.00807 -1.5357 0
M  V30 8517 C 796.261 -3.49103 0.858324 0
M  V30 8518 C 795.925 -3.96347 2.27504 0
M  V30 8519 C 796.922 -4.05537 3.25324 0
M  V30 8520 C 794.607 -4.29509 2.60437 0
M  V30 8521 C 796.601 -4.47233 4.5416 0
M  V30 8522 C 794.288 -4.70887 3.89498 0
M  V30 8523 C 795.286 -4.79714 4.86172 0
M  V30 8524 O 794.974 -5.20166 6.1293 0
M  V30 8525 H 794.706 -0.630721 0.243244 0
M  V30 8526 H 797.26 -1.58534 1.30599 0
M  V30 8527 H 795.49 -3.86405 0.151097 0
M  V30 8528 H 797.179 -4.02311 0.538592 0
M  V30 8529 H 797.945 -3.80128 3.0121 0
M  V30 8530 H 793.824 -4.21853 1.85906 0
M  V30 8531 H 797.368 -4.54038 5.29618 0
M  V30 8532 H 793.265 -4.95744 4.1341 0
M  V30 8533 H 794.033 -5.38298 6.16586 0
M  V30 8534 N 796.696 -0.74468 -1.38897 0
M  V30 8535 C 797.921 -0.306119 -2.05128 0
M  V30 8536 C 798.346 1.0541 -1.55789 0
M  V30 8537 O 797.704 1.66993 -0.705909 0
M  V30 8538 C 797.752 -0.328195 -3.59103 0
M  V30 8539 O 796.856 0.680876 -4.06741 0
M  V30 8540 H 796.197 -0.137209 -0.649669 0
M  V30 8541 H 798.727 -1.01331 -1.77745 0
M  V30 8542 H 798.737 -0.175956 -4.0762 0
M  V30 8543 H 797.412 -1.32067 -3.94374 0
M  V30 8544 H 795.989 0.49398 -3.69614 0
M  V30 8545 N 798.174 1.49689 -0.493057 0
M  V30 8546 C 799.585 1.8665 -0.0433032 0
M  V30 8547 C 799.936 1.40607 1.36836 0
M  V30 8548 O 799.061 0.780503 2.01834 0
M  V30 8549 C 799.656 3.38724 -0.0718069 0
M  V30 8550 C 798.215 3.75015 0.32257 0
M  V30 8551 C 797.362 2.7366 -0.4478 0
M  V30 8552 H 800.313 1.42119 -0.706246 0
M  V30 8553 H 800.334 3.73522 0.725347 0
M  V30 8554 H 799.846 3.72204 -1.09935 0
M  V30 8555 H 797.947 3.47142 1.35364 0
M  V30 8556 H 798.06 4.79099 0.00864259 0
M  V30 8557 H 796.424 2.54498 0.101354 0
M  V30 8558 H 797.207 3.09985 -1.47527 0
M  V30 8559 N 799.652 0.226554 1.55963 0
M  V30 8560 C 800.6 -0.697922 2.21882 0
M  V30 8561 C 801.594 -1.19586 1.19981 0
M  V30 8562 O 802.8 -1.15511 1.38048 0
M  V30 8563 H 799.175 -0.243501 0.711485 0
M  V30 8564 H 801.146 -0.118576 2.98164 0
M  V30 8565 C 799.895 -1.89309 2.91646 0
M  V30 8566 H 799.218 -1.51906 3.69817 0
M  V30 8567 H 800.658 -2.51762 3.41162 0
M  V30 8568 C 799.117 -2.75162 1.94391 0
M  V30 8569 O 799.647 -3.74071 1.46402 0
M  V30 8570 N 797.853 -2.41302 1.61932 0
M  V30 8571 H 797.4 -1.60923 2.01151 0
M  V30 8572 H 797.358 -2.99023 0.971219 0
M  V30 8573 N 801.13 -1.57531 -0.0467866 0
M  V30 8574 C 802.378 -1.88078 -0.739656 0
M  V30 8575 C 802.699 -0.821936 -1.76831 0
M  V30 8576 O 801.969 0.146582 -1.95351 0
M  V30 8577 H 800.549 -0.694075 -0.276169 0
M  V30 8578 H 803.211 -1.94893 -0.0169391 0
M  V30 8579 H 802.307 -2.86396 -1.24031 0
M  V30 8580 N 802.608 0.318715 -1.54344 0
M  V30 8581 C 803.54 1.41364 -1.80413 0
M  V30 8582 C 804.553 1.47627 -0.686294 0
M  V30 8583 O 805.742 1.50264 -0.963486 0
M  V30 8584 C 802.842 2.79867 -1.91123 0
M  V30 8585 C 802.015 2.96749 -3.21339 0
M  V30 8586 C 801.074 4.15642 -3.22689 0
M  V30 8587 O 800.1 4.08571 -3.96306 0
M  V30 8588 N 801.302 5.25416 -2.46817 0
M  V30 8589 H 804.067 1.19363 -2.74905 0
M  V30 8590 H 801.628 0.508722 -1.537 0
M  V30 8591 H 803.62 3.57619 -1.89448 0
M  V30 8592 H 802.19 2.94896 -1.03706 0
M  V30 8593 H 801.41 2.06257 -3.35934 0
M  V30 8594 H 802.698 3.04927 -4.07304 0
M  V30 8595 H 802.096 5.34037 -1.86605 0
M  V30 8596 H 800.653 6.01569 -2.50915 0
M  V30 8597 N 804.086 1.46499 0.581025 0
M  V30 8598 C 805.018 1.53225 1.70455 0
M  V30 8599 C 806.031 0.420443 1.57277 0
M  V30 8600 O 807.22 0.688888 1.64671 0
M  V30 8601 C 804.32 1.39803 3.08721 0
M  V30 8602 C 803.493 2.65132 3.47884 0
M  V30 8603 C 802.552 2.45886 4.65217 0
M  V30 8604 O 801.578 3.19615 4.70993 0
M  V30 8605 N 802.78 1.5216 5.60203 0
M  V30 8606 H 805.545 2.50098 1.65139 0
M  V30 8607 H 803.106 1.42576 0.76705 0
M  V30 8608 H 805.098 1.24697 3.8501 0
M  V30 8609 H 803.668 0.51104 3.08394 0
M  V30 8610 H 802.888 2.95169 2.61284 0
M  V30 8611 H 804.176 3.48385 3.70817 0
M  V30 8612 H 803.574 0.913646 5.58273 0
M  V30 8613 H 802.131 1.43017 6.35916 0
M  V30 8614 N 805.565 -0.825799 1.34232 0
M  V30 8615 C 806.795 -1.61129 1.29309 0
M  V30 8616 C 807.203 -1.88714 -0.135589 0
M  V30 8617 O 806.546 -1.47703 -1.09222 0
M  V30 8618 C 806.608 -2.97866 2.01287 0
M  V30 8619 C 806.272 -2.9319 3.50555 0
M  V30 8620 C 807.269 -2.67978 4.45515 0
M  V30 8621 C 804.954 -3.12913 3.92926 0
M  V30 8622 C 806.948 -2.62536 5.80822 0
M  V30 8623 C 804.635 -3.07096 5.28333 0
M  V30 8624 C 805.633 -2.8194 6.22092 0
M  V30 8625 O 805.321 -2.7605 7.55018 0
M  V30 8626 H 805.053 -0.507652 0.446391 0
M  V30 8627 H 807.607 -1.03575 1.77374 0
M  V30 8628 H 805.837 -3.57327 1.47832 0
M  V30 8629 H 807.526 -3.58848 1.89691 0
M  V30 8630 H 808.292 -2.52478 4.14101 0
M  V30 8631 H 804.171 -3.3151 3.20347 0
M  V30 8632 H 807.715 -2.42821 6.53975 0
M  V30 8633 H 803.612 -3.22148 5.59367 0
M  V30 8634 H 804.38 -2.91798 7.6472 0
M  V30 8635 N 807.043 -1.17915 -1.04565 0
M  V30 8636 C 808.271 -0.99616 -1.8134 0
M  V30 8637 C 808.686 0.455509 -1.83223 0
M  V30 8638 O 808.043 1.31636 -1.26405 0
M  V30 8639 C 808.094 -1.53758 -3.27171 0
M  V30 8640 O 807.815 -2.93241 -3.25486 0
M  V30 8641 C 809.316 -1.40007 -4.2061 0
M  V30 8642 H 806.536 -0.352055 -0.571225 0
M  V30 8643 H 809.08 -1.56349 -1.31815 0
M  V30 8644 H 807.235 -1.01213 -3.73945 0
M  V30 8645 H 807.649 -3.18392 -4.16805 0
M  V30 8646 H 809.123 -1.82695 -5.2089 0
M  V30 8647 H 809.6 -0.348054 -4.37819 0
M  V30 8648 H 810.206 -1.916 -3.79697 0
M  V30 8649 N 808.521 1.23394 -0.980386 0
M  V30 8650 C 809.932 1.73631 -0.686239 0
M  V30 8651 C 810.283 1.79259 0.797541 0
M  V30 8652 O 809.408 1.43046 1.62379 0
M  V30 8653 C 810.003 3.15332 -1.239 0
M  V30 8654 C 808.562 3.63024 -0.994494 0
M  V30 8655 C 807.709 2.41279 -1.36673 0
M  V30 8656 H 810.66 1.08918 -1.15423 0
M  V30 8657 H 810.681 3.75556 -0.611414 0
M  V30 8658 H 810.193 3.11204 -2.31892 0
M  V30 8659 H 808.294 3.72535 0.0693492 0
M  V30 8660 H 808.407 4.49825 -1.64906 0
M  V30 8661 H 806.771 2.42295 -0.785195 0
M  V30 8662 H 807.554 2.39822 -2.45642 0
M  V30 8663 N 809.999 0.752036 1.385 0
M  V30 8664 C 810.931 0.0835089 2.29048 0
M  V30 8665 C 811.944 -0.685402 1.47669 0
M  V30 8666 O 813.133 -0.526748 1.70551 0
M  V30 8667 C 810.233 -0.905772 3.26572 0
M  V30 8668 C 809.406 -0.194828 4.36966 0
M  V30 8669 C 808.465 -1.09464 5.14688 0
M  V30 8670 O 807.491 -0.565743 5.66381 0
M  V30 8671 N 808.693 -2.42287 5.2752 0
M  V30 8672 H 811.458 0.861142 2.87062 0
M  V30 8673 H 809.019 0.602689 1.50264 0
M  V30 8674 H 811.011 -1.51072 3.75446 0
M  V30 8675 H 809.581 -1.58449 2.69467 0
M  V30 8676 H 808.801 0.590812 3.89747 0
M  V30 8677 H 810.089 0.297189 5.07931 0
M  V30 8678 H 809.487 -2.87715 4.8707 0
M  V30 8679 H 808.044 -2.97836 5.79773 0
M  V30 8680 N 811.477 -1.49425 0.500989 0
M  V30 8681 C 812.754 -1.9531 -0.106551 0
M  V30 8682 C 813.134 -1.44248 -1.54129 0
M  V30 8683 O 812.482 -0.656237 -2.18874 0
M  V30 8684 C 812.692 -3.48995 -0.0191972 0
M  V30 8685 C 814.04 -4.24161 -0.193129 0
M  V30 8686 O 815.064 -3.56075 -0.0943843 0
M  V30 8687 O 813.923 -5.45064 -0.395869 0
M  V30 8688 H 811.017 -0.82149 -0.0953068 0
M  V30 8689 H 813.563 -1.6007 0.563526 0
M  V30 8690 H 812.335 -3.78794 0.981353 0
M  V30 8691 H 811.958 -3.90852 -0.72942 0
M  V30 8692 N 812.955 -0.234822 -1.55841 0
M  V30 8693 C 814.371 0.120295 -1.59146 0
M  V30 8694 C 814.571 1.57896 -1.25184 0
M  V30 8695 O 813.627 2.32138 -0.993393 0
M  V30 8696 C 814.94 -0.217984 -2.99909 0
M  V30 8697 C 816.488 -0.161298 -3.12584 0
M  V30 8698 C 816.963 -0.473438 -4.55546 0
M  V30 8699 N 818.454 -0.423494 -4.6126 0
M  V30 8700 C 819.189 -0.638334 -5.69836 0
M  V30 8701 N 818.685 -0.915659 -6.86722 0
M  V30 8702 N 820.478 -0.569864 -5.59204 0
M  V30 8703 H 812.629 -1.18622 -1.76189 0
M  V30 8704 H 814.892 -0.476426 -0.819587 0
M  V30 8705 H 814.598 -1.2309 -3.29457 0
M  V30 8706 H 814.472 0.460707 -3.74376 0
M  V30 8707 H 816.859 0.842274 -2.82825 0
M  V30 8708 H 816.94 -0.873661 -2.40418 0
M  V30 8709 H 816.584 -1.47451 -4.86025 0
M  V30 8710 H 816.514 0.260268 -5.25956 0
M  V30 8711 H 819.005 -0.217383 -3.77274 0
M  V30 8712 H 819.318 -1.06734 -7.65394 0
M  V30 8713 H 817.663 -0.953 -6.88435 0
M  V30 8714 H 820.854 -0.35334 -4.66765 0
M  V30 8715 H 821.027 -0.740698 -6.43753 0
M  V30 8716 N 814.433 1.57553 0.0384317 0
M  V30 8717 C 815.343 2.09333 1.0591 0
M  V30 8718 C 816.359 1.0299 1.40247 0
M  V30 8719 O 817.535 1.34669 1.49754 0
M  V30 8720 C 814.6 2.55468 2.34386 0
M  V30 8721 C 813.661 3.76254 2.06716 0
M  V30 8722 C 812.894 4.20179 3.29067 0
M  V30 8723 O 813.117 3.637 4.39407 0
M  V30 8724 O 812.051 5.12697 3.15317 0
M  V30 8725 H 815.877 2.96683 0.649087 0
M  V30 8726 H 813.462 1.47211 0.254802 0
M  V30 8727 H 815.344 2.85514 3.09935 0
M  V30 8728 H 814.019 1.71234 2.74701 0
M  V30 8729 H 812.926 3.51241 1.28766 0
M  V30 8730 H 814.259 4.61443 1.71263 0
M  V30 8731 N 815.911 -0.310526 1.54511 0
M  V30 8732 C 816.843 -1.40405 1.8116 0
M  V30 8733 C 817.856 -1.47261 0.694114 0
M  V30 8734 O 819.045 -1.49751 0.971441 0
M  V30 8735 C 816.145 -2.78849 1.92604 0
M  V30 8736 C 815.318 -2.95041 3.22908 0
M  V30 8737 C 814.377 -4.13925 3.24889 0
M  V30 8738 O 813.403 -4.06463 3.98467 0
M  V30 8739 N 814.605 -5.24099 2.496 0
M  V30 8740 H 817.37 -1.17903 2.75534 0
M  V30 8741 H 814.931 -0.500564 1.53967 0
M  V30 8742 H 816.923 -3.5661 1.91342 0
M  V30 8743 H 815.493 -2.94342 1.05268 0
M  V30 8744 H 814.713 -2.04472 3.37023 0
M  V30 8745 H 816.001 -3.02763 4.08916 0
M  V30 8746 H 815.399 -5.33039 1.89435 0
M  V30 8747 H 813.956 -6.0023 2.54102 0
M  V30 8748 N 817.389 -1.46805 -0.573248 0
M  V30 8749 C 818.635 -1.5283 -1.33307 0
M  V30 8750 C 818.968 -0.183287 -1.93333 0
M  V30 8751 O 818.243 0.806354 -1.76998 0
M  V30 8752 C 818.526 -2.63414 -2.45531 0
M  V30 8753 C 818.379 -4.07478 -1.90478 0
M  V30 8754 C 819.698 -2.70014 -3.47535 0
M  V30 8755 H 816.817 -0.556371 -0.483343 0
M  V30 8756 H 819.459 -1.78787 -0.643066 0
M  V30 8757 H 817.609 -2.41412 -3.04389 0
M  V30 8758 H 819.281 -4.40795 -1.36004 0
M  V30 8759 H 817.524 -4.16511 -1.21248 0
M  V30 8760 H 818.195 -4.80598 -2.71531 0
M  V30 8761 H 820.671 -2.89817 -2.98572 0
M  V30 8762 H 819.547 -3.49192 -4.23504 0
M  V30 8763 H 819.808 -1.76436 -4.05367 0
M  V30 8764 N 818.867 0.818669 -1.34668 0
M  V30 8765 C 819.83 1.9114 -1.26483 0
M  V30 8766 C 820.83 1.598 -0.179044 0
M  V30 8767 O 822.02 1.6876 -0.431952 0
M  V30 8768 C 819.152 3.27285 -0.95381 0
M  V30 8769 H 820.345 1.9982 -2.23634 0
M  V30 8770 H 817.898 1.01314 -1.19018 0
M  V30 8771 H 818.633 3.24297 0.0143428 0
M  V30 8772 H 818.418 3.51416 -1.73924 0
M  V30 8773 H 819.908 4.07299 -0.921827 0
M  V30 8774 N 820.346 1.18468 1.03938 0
M  V30 8775 C 821.576 1.0043 1.80547 0
M  V30 8776 C 821.984 -0.450407 1.83761 0
M  V30 8777 O 821.327 -1.32463 1.27276 0
M  V30 8778 C 821.389 1.48437 3.27424 0
M  V30 8779 C 821.053 2.96372 3.47869 0
M  V30 8780 C 822.05 3.94217 3.38953 0
M  V30 8781 C 819.735 3.34831 3.74424 0
M  V30 8782 C 821.729 5.28517 3.56298 0
M  V30 8783 C 819.416 4.69294 3.91416 0
M  V30 8784 C 820.414 5.65946 3.82354 0
M  V30 8785 O 820.102 6.97974 3.98858 0
M  V30 8786 H 819.834 0.354853 0.575374 0
M  V30 8787 H 822.388 1.57473 1.31876 0
M  V30 8788 H 820.618 0.857601 3.7707 0
M  V30 8789 H 822.307 1.2677 3.85596 0
M  V30 8790 H 823.073 3.6585 3.184 0
M  V30 8791 H 818.952 2.60161 3.80575 0
M  V30 8792 H 822.496 6.03943 3.49141 0
M  V30 8793 H 818.393 4.97361 4.11463 0
M  V30 8794 H 819.161 7.04895 4.1601 0
M  V30 8795 N 821.824 -1.22873 0.986916 0
M  V30 8796 C 823.054 -1.95204 0.67668 0
M  V30 8797 C 823.462 -1.73193 -0.761641 0
M  V30 8798 O 822.805 -1.0243 -1.52492 0
M  V30 8799 C 822.867 -3.48173 0.895302 0
M  V30 8800 C 822.531 -3.93912 2.31695 0
M  V30 8801 C 823.528 -4.02064 3.29607 0
M  V30 8802 C 821.213 -4.26722 2.64978 0
M  V30 8803 C 823.207 -4.42391 4.58878 0
M  V30 8804 C 820.894 -4.66729 3.94471 0
M  V30 8805 C 821.892 -4.74531 4.91232 0
M  V30 8806 O 821.58 -5.13636 6.18412 0
M  V30 8807 H 821.312 -0.628105 0.24992 0
M  V30 8808 H 823.866 -1.5714 1.32274 0
M  V30 8809 H 822.096 -3.86223 0.192072 0
M  V30 8810 H 823.785 -4.01717 0.581233 0
M  V30 8811 H 824.551 -3.76912 3.05225 0
M  V30 8812 H 820.43 -4.19858 1.9037 0
M  V30 8813 H 823.974 -4.48395 5.34404 0
M  V30 8814 H 819.871 -4.91332 4.18645 0
M  V30 8815 H 820.639 -5.31728 6.2226 0
M  V30 8816 N 823.302 -0.75937 -1.38099 0
M  V30 8817 C 824.249 -0.135508 -2.30402 0
M  V30 8818 C 825.219 0.703356 -1.50473 0
M  V30 8819 O 826.404 0.658287 -1.79084 0
M  V30 8820 C 823.544 0.747228 -3.36913 0
M  V30 8821 C 822.657 -0.106893 -4.31868 0
M  V30 8822 C 821.792 0.779388 -5.25451 0
M  V30 8823 C 820.831 -0.0780179 -6.1205 0
M  V30 8824 N 819.968 0.765545 -6.97914 0
M  V30 8825 H 824.808 -0.9282 -2.83176 0
M  V30 8826 H 822.345 -0.46935 -1.39411 0
M  V30 8827 H 824.303 1.27371 -3.97281 0
M  V30 8828 H 822.933 1.50565 -2.85535 0
M  V30 8829 H 821.985 -0.751063 -3.72912 0
M  V30 8830 H 823.297 -0.768798 -4.9284 0
M  V30 8831 H 822.451 1.37282 -5.90964 0
M  V30 8832 H 821.19 1.47501 -4.6486 0
M  V30 8833 H 820.195 -0.684078 -5.45528 0
M  V30 8834 H 821.42 -0.770786 -6.74712 0
M  V30 8835 H 819.366 1.44601 -6.39864 0
M  V30 8836 H 819.283 0.160666 -7.55829 0
M  V30 8837 H 820.551 1.34377 -7.6783 0
M  V30 8838 N 824.78 1.49157 -0.508906 0
M  V30 8839 C 825.69 2.33045 0.269656 0
M  V30 8840 C 826.706 1.45143 0.959662 0
M  V30 8841 O 827.882 1.78155 0.939295 0
M  V30 8842 C 824.947 3.20772 1.31554 0
M  V30 8843 C 824.008 4.24531 0.638131 0
M  V30 8844 C 823.241 5.08065 1.63418 0
M  V30 8845 O 823.464 4.93238 2.86483 0
M  V30 8846 O 822.398 5.90117 1.18516 0
M  V30 8847 H 826.224 3.00821 -0.417183 0
M  V30 8848 H 823.809 1.46938 -0.270119 0
M  V30 8849 H 825.691 3.75095 1.92047 0
M  V30 8850 H 824.366 2.55681 1.98516 0
M  V30 8851 H 823.273 3.74099 -0.00674357 0
M  V30 8852 H 824.606 4.92199 0.0108155 0
M  V30 8853 N 826.258 0.243083 1.55714 0
M  V30 8854 C 827.535 -0.432851 1.90751 0
M  V30 8855 C 827.915 -1.76153 1.16333 0
M  V30 8856 O 827.263 -2.26783 0.279565 0
M  V30 8857 C 827.473 -0.604685 3.43722 0
M  V30 8858 C 828.821 -0.90231 4.14902 0
M  V30 8859 O 829.845 -0.690689 3.49439 0
M  V30 8860 O 828.704 -1.3051 5.30688 0
M  V30 8861 H 825.798 -0.231835 0.79384 0
M  V30 8862 H 828.344 0.286867 1.67258 0
M  V30 8863 H 827.116 0.331655 3.89892 0
M  V30 8864 H 826.739 -1.37509 3.73065 0
M  V30 8865 N 827.736 -1.57571 -0.0300757 0
M  V30 8866 C 828.646 -2.09892 -1.04798 0
M  V30 8867 C 829.662 -1.03732 -1.39698 0
M  V30 8868 O 830.838 -1.35461 -1.49038 0
M  V30 8869 C 827.903 -2.56707 -2.33028 0
M  V30 8870 C 826.964 -3.77345 -2.04718 0
M  V30 8871 C 826.197 -4.21918 -3.26834 0
M  V30 8872 O 826.42 -3.66025 -4.37472 0
M  V30 8873 O 825.354 -5.14362 -3.12594 0
M  V30 8874 H 829.18 -2.97023 -0.633344 0
M  V30 8875 H 826.765 -1.47344 -0.246991 0
M  V30 8876 H 828.647 -2.87154 -3.08417 0
M  V30 8877 H 827.322 -1.72688 -2.73789 0
M  V30 8878 H 826.229 -3.51919 -1.26901 0
M  V30 8879 H 827.562 -4.62345 -1.68813 0
M  V30 8880 N 829.214 0.302327 -1.54673 0
M  V30 8881 C 830.161 1.37282 -1.85532 0
M  V30 8882 C 831.131 1.50437 -0.704129 0
M  V30 8883 O 832.316 1.65317 -0.952627 0
M  V30 8884 C 829.456 2.73309 -2.10704 0
M  V30 8885 C 828.569 2.68614 -3.38335 0
M  V30 8886 C 827.704 3.96626 -3.53357 0
M  V30 8887 C 826.743 3.86324 -4.74784 0
M  V30 8888 N 825.88 5.06109 -4.86619 0
M  V30 8889 H 830.72 1.10265 -2.76849 0
M  V30 8890 H 828.257 0.533346 -1.37091 0
M  V30 8891 H 830.215 3.52414 -2.23294 0
M  V30 8892 H 828.845 2.98589 -1.22656 0
M  V30 8893 H 827.897 1.81381 -3.34373 0
M  V30 8894 H 829.209 2.56891 -4.27561 0
M  V30 8895 H 828.363 4.84168 -3.65604 0
M  V30 8896 H 827.102 4.11182 -2.62261 0
M  V30 8897 H 826.107 2.97166 -4.62572 0
M  V30 8898 H 827.332 3.73315 -5.67286 0
M  V30 8899 H 825.278 5.2113 -3.98446 0
M  V30 8900 H 825.195 4.96804 -5.69844 0
M  V30 8901 H 826.463 5.95306 -5.03221 0
M  V30 8902 N 830.692 1.47107 0.565454 0
M  V30 8903 C 831.94 1.53005 1.32038 0
M  V30 8904 C 832.261 0.190453 1.94068 0
M  V30 8905 O 831.531 -0.784783 1.79494 0
M  V30 8906 H 830.111 0.563578 0.490294 0
M  V30 8907 H 832.773 1.83351 0.660928 0
M  V30 8908 H 831.869 2.29215 2.11818 0
M  V30 8909 N 832.17 -0.811516 1.35101 0
M  V30 8910 C 833.102 -1.93102 1.23468 0
M  V30 8911 C 834.115 -1.62021 0.159095 0
M  V30 8912 O 835.304 -1.73682 0.411945 0
M  V30 8913 C 832.404 -3.27345 0.877404 0
M  V30 8914 C 831.577 -3.86368 2.05033 0
M  V30 8915 C 830.636 -4.99009 1.66963 0
M  V30 8916 O 829.662 -5.16698 2.38772 0
M  V30 8917 N 830.864 -5.7749 0.590394 0
M  V30 8918 H 833.629 -2.0361 2.19916 0
M  V30 8919 H 831.19 -0.988687 1.28205 0
M  V30 8920 H 833.182 -4.00163 0.604298 0
M  V30 8921 H 831.752 -3.126 0.00275267 0
M  V30 8922 H 830.972 -3.05804 2.48752 0
M  V30 8923 H 832.26 -4.22533 2.83449 0
M  V30 8924 H 831.658 -5.657 -0.00633259 0
M  V30 8925 H 830.215 -6.50708 0.377055 0
M  V30 8926 N 833.648 -1.19017 -1.03309 0
M  V30 8927 C 834.897 -0.984542 -1.76039 0
M  V30 8928 C 835.21 0.485937 -1.89468 0
M  V30 8929 O 836.416 0.810278 -2.59127 0
M  V30 8930 C 834.872 -1.71261 -3.1654 0
M  V30 8931 C 834.48 -3.22291 -3.11179 0
M  V30 8932 C 836.224 -1.59007 -3.93595 0
M  V30 8933 C 834.131 -3.87704 -4.46587 0
M  V30 8934 H 833.061 -0.364749 -0.659905 0
M  V30 8935 H 835.712 -1.4247 -1.15649 0
M  V30 8936 H 834.094 -1.20025 -3.77373 0
M  V30 8937 H 835.268 -3.80611 -2.59753 0
M  V30 8938 H 833.583 -3.34772 -2.47622 0
M  V30 8939 H 836.18 -2.05232 -4.93745 0
M  V30 8940 H 836.523 -0.543534 -4.12736 0
M  V30 8941 H 837.056 -2.07564 -3.39355 0
M  V30 8942 H 833.795 -4.92437 -4.3265 0
M  V30 8943 H 833.315 -3.34172 -4.98085 0
M  V30 8944 H 834.994 -3.91008 -5.15482 0
M  V30 8945 N 835.127 1.22348 -0.993418 0
M  V30 8946 C 836.057 2.26584 -0.564088 0
M  V30 8947 C 837.038 1.65102 0.409298 0
M  V30 8948 O 838.223 1.91872 0.299819 0
M  V30 8949 C 835.353 3.47087 0.121554 0
M  V30 8950 C 834.307 4.21009 -0.770429 0
M  V30 8951 C 833.633 5.34678 0.0481586 0
M  V30 8952 C 834.933 4.79636 -2.06752 0
M  V30 8953 H 836.627 2.62749 -1.43538 0
M  V30 8954 H 834.173 1.26303 -0.691628 0
M  V30 8955 H 836.126 4.19166 0.433303 0
M  V30 8956 H 834.85 3.1002 1.0274 0
M  V30 8957 H 833.509 3.50764 -1.06583 0
M  V30 8958 H 833.157 4.93852 0.954933 0
M  V30 8959 H 832.857 5.85061 -0.545641 0
M  V30 8960 H 834.381 6.09573 0.353991 0
M  V30 8961 H 835.795 5.43654 -1.81969 0
M  V30 8962 H 834.192 5.4036 -2.61019 0
M  V30 8963 H 835.262 3.99659 -2.74592 0
M  V30 8964 N 836.605 0.766683 1.37694 0
M  V30 8965 C 837.537 0.107798 2.28946 0
M  V30 8966 C 838.55 -0.669701 1.48387 0
M  V30 8967 O 839.739 -0.508629 1.711 0
M  V30 8968 C 836.839 -0.871084 3.27514 0
M  V30 8969 C 836.012 -0.148471 4.37148 0
M  V30 8970 C 835.071 -1.03998 5.1582 0
M  V30 8971 O 834.097 -0.505639 5.6695 0
M  V30 8972 N 835.299 -2.36679 5.3006 0
M  V30 8973 H 838.064 0.89154 2.86132 0
M  V30 8974 H 835.625 0.618593 1.49616 0
M  V30 8975 H 837.617 -1.47081 3.77027 0
M  V30 8976 H 836.187 -1.55582 2.71133 0
M  V30 8977 H 835.407 0.632117 3.89099 0
M  V30 8978 H 836.695 0.351045 5.07588 0
M  V30 8979 H 836.093 -2.82532 4.90094 0
M  V30 8980 H 834.65 -2.9167 5.82899 0
M  V30 8981 N 838.083 -1.48885 0.516809 0
M  V30 8982 C 838.993 -2.33185 -0.257293 0
M  V30 8983 C 840.009 -1.4565 -0.951952 0
M  V30 8984 O 841.185 -1.78651 -0.929834 0
M  V30 8985 C 838.25 -3.21465 -1.29851 0
M  V30 8986 C 837.311 -4.24863 -0.615608 0
M  V30 8987 C 836.544 -5.08925 -1.60722 0
M  V30 8988 O 836.767 -4.9475 -2.83863 0
M  V30 8989 O 835.701 -5.90737 -1.15384 0
M  V30 8990 H 839.527 -3.00596 0.433131 0
M  V30 8991 H 837.112 -1.46792 0.277908 0
M  V30 8992 H 838.994 -3.76108 -1.90055 0
M  V30 8993 H 837.669 -2.5673 -1.97158 0
M  V30 8994 H 836.576 -3.74091 0.0265829 0
M  V30 8995 H 837.909 -4.92198 0.0152871 0
M  V30 8996 N 839.561 -0.251338 -1.55583 0
M  V30 8997 C 840.809 0.371434 -1.98657 0
M  V30 8998 C 841.13 1.58143 -1.14087 0
M  V30 8999 O 840.4 1.94607 -0.224708 0
M  V30 9000 H 838.98 0.140225 -0.733721 0
M  V30 9001 H 841.642 -0.351157 -1.9171 0
M  V30 9002 H 840.738 0.677554 -3.04657 0
M  V30 9003 N 841.039 1.57585 0.0217189 0
M  V30 9004 C 842.288 1.88786 0.710125 0
M  V30 9005 C 842.601 0.850819 1.76126 0
M  V30 9006 O 843.807 1.0523 2.50277 0
M  V30 9007 C 842.263 3.3505 1.31413 0
M  V30 9008 C 841.871 4.47001 0.298959 0
M  V30 9009 C 843.615 3.7539 1.98199 0
M  V30 9010 C 841.522 5.8433 0.911727 0
M  V30 9011 H 840.452 0.704388 0.268986 0
M  V30 9012 H 843.103 1.83466 -0.0352638 0
M  V30 9013 H 841.485 3.35138 2.10947 0
M  V30 9014 H 842.659 4.58395 -0.470203 0
M  V30 9015 H 840.974 4.15542 -0.267222 0
M  V30 9016 H 843.571 4.75314 2.4491 0
M  V30 9017 H 843.914 3.07766 2.80331 0
M  V30 9018 H 844.447 3.77508 1.2543 0
M  V30 9019 H 841.186 6.55372 0.129659 0
M  V30 9020 H 840.706 5.76643 1.65056 0
M  V30 9021 H 842.385 6.31295 1.41688 0
M  V30 9022 N 842.517 -0.29412 1.54831 0
M  V30 9023 C 843.465 -1.38296 1.87021 0
M  V30 9024 C 844.459 -1.5216 0.744557 0
M  V30 9025 O 845.665 -1.54196 0.92864 0
M  V30 9026 H 842.04 -0.462088 0.593278 0
M  V30 9027 H 844.011 -1.08386 2.7802 0
M  V30 9028 C 842.76 -2.74024 2.14023 0
M  V30 9029 H 842.083 -2.6414 3.00117 0
M  V30 9030 H 843.523 -3.49205 2.40482 0
M  V30 9031 C 841.982 -3.23492 0.940982 0
M  V30 9032 O 842.512 -4.01361 0.164937 0
M  V30 9033 N 840.718 -2.80902 0.744467 0
M  V30 9034 H 840.265 -2.17694 1.37721 0
M  V30 9035 H 840.223 -3.14349 -0.0563652 0
M  V30 9036 N 843.995 -1.47404 -0.557645 0
M  V30 9037 C 844.905 -1.62491 -1.69216 0
M  V30 9038 C 845.921 -0.507764 -1.66426 0
M  V30 9039 O 847.097 -0.775241 -1.85882 0
M  V30 9040 C 844.162 -1.63511 -3.05721 0
M  V30 9041 C 843.223 -2.86648 -3.1958 0
M  V30 9042 C 842.456 -2.87609 -4.49574 0
M  V30 9043 O 842.679 -1.97799 -5.35006 0
M  V30 9044 O 841.613 -3.79465 -4.67215 0
M  V30 9045 H 845.439 -2.58487 -1.59431 0
M  V30 9046 H 843.024 -1.30485 -0.7276 0
M  V30 9047 H 844.906 -1.66863 -3.86956 0
M  V30 9048 H 843.581 -0.706812 -3.15889 0
M  V30 9049 H 842.488 -2.8884 -2.37744 0
M  V30 9050 H 843.821 -3.7877 -3.14316 0
M  V30 9051 N 845.473 0.80434 -1.35529 0
M  V30 9052 C 846.403 1.93086 -1.31301 0
M  V30 9053 C 847.384 1.69068 -0.187044 0
M  V30 9054 O 848.569 1.90399 -0.382359 0
M  V30 9055 C 845.699 3.29867 -1.0865 0
M  V30 9056 C 844.653 3.68373 -2.17911 0
M  V30 9057 C 843.979 5.0334 -1.80423 0
M  V30 9058 C 845.279 3.78516 -3.59893 0
M  V30 9059 H 846.973 1.96882 -2.25561 0
M  V30 9060 H 844.519 0.945841 -1.08581 0
M  V30 9061 H 846.472 4.08281 -1.04331 0
M  V30 9062 H 845.196 3.2642 -0.108359 0
M  V30 9063 H 843.855 2.92247 -2.21331 0
M  V30 9064 H 843.503 4.96399 -0.812213 0
M  V30 9065 H 843.203 5.30074 -2.53565 0
M  V30 9066 H 844.727 5.84191 -1.77633 0
M  V30 9067 H 846.141 4.47155 -3.58783 0
M  V30 9068 H 844.538 4.16721 -4.31814 0
M  V30 9069 H 845.608 2.8001 -3.95882 0
M  V30 9070 N 846.951 1.19563 1.02676 0
M  V30 9071 C 848.199 0.997593 1.75763 0
M  V30 9072 C 848.52 -0.47253 1.89188 0
M  V30 9073 O 847.79 -1.34214 1.42701 0
M  V30 9074 H 846.37 0.366128 0.651122 0
M  V30 9075 H 849.032 1.50495 1.23844 0
M  V30 9076 H 848.128 1.44741 2.76508 0
M  V30 9077 N 848.429 -1.21819 0.999893 0
M  V30 9078 C 849.392 -2.22227 0.561044 0
M  V30 9079 C 850.392 -1.56722 -0.359858 0
M  V30 9080 O 851.582 -1.73546 -0.150848 0
M  V30 9081 C 848.714 -3.40409 -0.182987 0
M  V30 9082 H 849.907 -2.62567 1.44909 0
M  V30 9083 H 847.46 -1.34991 0.78785 0
M  V30 9084 H 848.195 -3.05551 -1.08671 0
M  V30 9085 H 847.98 -3.89171 0.47833 0
M  V30 9086 H 849.47 -4.14856 -0.477952 0
M  V30 9087 N 849.908 -0.773975 -1.37286 0
M  V30 9088 C 851.156 -0.338636 -1.99243 0
M  V30 9089 C 851.477 1.08919 -1.61746 0
M  V30 9090 O 850.747 1.74822 -0.88397 0
M  V30 9091 H 849.327 -0.12222 -0.736934 0
M  V30 9092 H 851.989 -0.992595 -1.67731 0
M  V30 9093 H 851.085 -0.418055 -3.09287 0
M  V30 9094 N 851.386 1.48609 -0.524698 0
M  V30 9095 C 852.626 2.04398 0.00938367 0
M  V30 9096 C 852.99 1.39355 1.32077 0
M  V30 9097 O 854.191 1.86 1.94055 0
M  V30 9098 C 852.462 3.57148 0.134318 0
M  V30 9099 S 854.021 4.34409 0.619227 0
M  V30 9100 H 850.839 0.710936 -0.00953362 0
M  V30 9101 H 853.441 1.82382 -0.704058 0
M  V30 9102 H 852.145 4.02022 -0.825027 0
M  V30 9103 H 851.676 3.83607 0.872296 0
M  V30 9104 H 853.691 4.59017 1.88462 0
M  V30 9105 N 852.864 0.259585 1.55447 0
M  V30 9106 C 854.089 -0.368317 2.04103 0
M  V30 9107 C 854.514 -1.49827 1.13725 0
M  V30 9108 O 853.872 -1.80814 0.132705 0
M  V30 9109 C 853.92 -0.841506 3.50644 0
M  V30 9110 O 853.024 -1.95008 3.63381 0
M  V30 9111 H 852.365 -0.0785227 0.659341 0
M  V30 9112 H 854.895 0.389349 2.00861 0
M  V30 9113 H 854.905 -1.14138 3.9171 0
M  V30 9114 H 853.58 -0.0147001 4.15897 0
M  V30 9115 H 852.157 -1.65393 3.34215 0
M  V30 9116 N 854.342 -1.57594 -0.0133615 0
M  V30 9117 C 855.588 -1.91105 -0.696457 0
M  V30 9118 C 855.943 -0.859872 -1.72116 0
M  V30 9119 O 855.236 0.129579 -1.91161 0
M  V30 9120 C 855.43 -3.29121 -1.39336 0
M  V30 9121 C 855.259 -4.47565 -0.437666 0
M  V30 9122 C 854.029 -5.05272 -0.0529454 0
M  V30 9123 C 856.227 -5.13479 0.290537 0
M  V30 9124 N 854.209 -6.07232 0.902355 0
M  V30 9125 C 855.58 -6.10147 1.10097 0
M  V30 9126 C 857.635 -4.96627 0.355804 0
M  V30 9127 C 856.338 -6.91778 1.97069 0
M  V30 9128 C 858.364 -5.78833 1.21271 0
M  V30 9129 C 857.726 -6.75083 2.01102 0
M  V30 9130 H 853.825 -0.747882 -0.228464 0
M  V30 9131 H 856.409 -1.94651 0.0438462 0
M  V30 9132 H 854.58 -3.26474 -2.10403 0
M  V30 9133 H 856.312 -3.501 -2.03008 0
M  V30 9134 H 853.067 -4.71747 -0.418486 0
M  V30 9135 H 853.491 -6.6289 1.37498 0
M  V30 9136 H 858.133 -4.22077 -0.247105 0
M  V30 9137 H 855.851 -7.65662 2.58433 0
M  V30 9138 H 859.437 -5.67838 1.26694 0
M  V30 9139 H 858.317 -7.37587 2.66337 0
M  V30 9140 N 855.82 0.285905 -1.54985 0
M  V30 9141 C 856.75 1.35752 -1.89983 0
M  V30 9142 C 857.731 1.52163 -0.760295 0
M  V30 9143 O 858.916 1.65421 -1.01733 0
M  V30 9144 C 856.046 2.71925 -2.16042 0
M  V30 9145 C 855 2.70261 -3.31878 0
M  V30 9146 C 854.326 4.09864 -3.43388 0
M  V30 9147 C 855.626 2.30667 -4.68604 0
M  V30 9148 H 857.32 1.06709 -2.79738 0
M  V30 9149 H 854.866 0.511884 -1.34595 0
M  V30 9150 H 856.819 3.46992 -2.39113 0
M  V30 9151 H 855.543 3.02523 -1.23074 0
M  V30 9152 H 854.202 1.97651 -3.08755 0
M  V30 9153 H 853.85 4.37664 -2.47909 0
M  V30 9154 H 853.55 4.09648 -4.21262 0
M  V30 9155 H 855.074 4.86689 -3.68736 0
M  V30 9156 H 856.488 2.95453 -4.91305 0
M  V30 9157 H 854.885 2.41637 -5.49301 0
M  V30 9158 H 855.955 1.25793 -4.68299 0
M  V30 9159 N 857.298 1.47698 0.54982 0
M  V30 9160 C 858.261 1.60282 1.63837 0
M  V30 9161 C 859.261 0.477394 1.5355 0
M  V30 9162 O 860.451 0.742665 1.57576 0
M  V30 9163 C 857.583 1.55431 3.03404 0
M  V30 9164 H 858.776 2.57325 1.54026 0
M  V30 9165 H 856.329 1.35999 0.770329 0
M  V30 9166 H 857.064 0.597912 3.1874 0
M  V30 9167 H 856.849 2.37116 3.12279 0
M  V30 9168 H 858.339 1.6739 3.82584 0
M  V30 9169 N 858.776 -0.797141 1.35954 0
M  V30 9170 C 859.739 -1.89104 1.29508 0
M  V30 9171 C 860.739 -1.59495 0.204444 0
M  V30 9172 O 861.929 -1.68051 0.458746 0
M  V30 9173 C 859.061 -3.25726 1.00576 0
M  V30 9174 H 860.254 -1.96237 2.26785 0
M  V30 9175 H 857.807 -0.994075 1.20614 0
M  V30 9176 H 858.542 -3.24279 0.0372519 0
M  V30 9177 H 858.327 -3.48604 1.79492 0
M  V30 9178 H 859.817 -4.0578 0.986508 0
M  V30 9179 N 860.254 -1.20106 -1.0204 0
M  V30 9180 C 861.217 -0.948261 -2.08664 0
M  V30 9181 C 862.217 0.0746753 -1.60627 0
M  V30 9182 O 863.407 -0.160981 -1.73455 0
M  V30 9183 C 860.539 -0.426854 -3.38217 0
M  V30 9184 H 861.732 -1.894 -2.32524 0
M  V30 9185 H 859.285 -1.0159 -1.18782 0
M  V30 9186 H 860.02 0.524532 -3.2003 0
M  V30 9187 H 859.805 -1.16451 -3.74408 0
M  V30 9188 H 861.295 -0.269346 -4.1673 0
M  V30 9189 N 861.732 1.21287 -1.00634 0
M  V30 9190 C 862.96 1.94385 -0.708678 0
M  V30 9191 C 863.375 1.7416 0.728957 0
M  V30 9192 O 862.732 1.04906 1.49335 0
M  V30 9193 C 862.783 3.46755 -1.02193 0
M  V30 9194 O 862.504 3.6631 -2.40309 0
M  V30 9195 C 864.005 4.37014 -0.743867 0
M  V30 9196 H 861.225 0.618136 -0.261052 0
M  V30 9197 H 863.769 1.54067 -1.34475 0
M  V30 9198 H 861.924 3.8499 -0.431441 0
M  V30 9199 H 862.338 4.60393 -2.51274 0
M  V30 9200 H 863.812 5.42621 -1.01321 0
M  V30 9201 H 864.289 4.38017 0.322084 0
M  V30 9202 H 864.895 4.04426 -1.31603 0
M  V30 9203 N 863.21 0.781244 1.36873 0
M  V30 9204 C 864.435 0.360398 2.04245 0
M  V30 9205 C 864.86 -1.01242 1.58529 0
M  V30 9206 O 864.218 -1.65063 0.749936 0
M  V30 9207 C 864.266 0.42329 3.58107 0
M  V30 9208 O 863.37 -0.572796 4.08403 0
M  V30 9209 H 862.711 0.154386 0.645803 0
M  V30 9210 H 865.241 1.06008 1.74996 0
M  V30 9211 H 865.251 0.283967 4.07011 0
M  V30 9212 H 863.926 1.42477 3.90734 0
M  V30 9213 H 862.503 -0.395809 3.70793 0
M  V30 9214 N 864.689 -1.48329 0.532571 0
M  V30 9215 C 865.919 -2.066 0.00353785 0
M  V30 9216 C 866.327 -1.38913 -1.28451 0
M  V30 9217 O 865.67 -0.471385 -1.77549 0
M  V30 9218 C 865.732 -3.58342 -0.288324 0
M  V30 9219 C 865.396 -4.47917 0.906631 0
M  V30 9220 C 866.393 -4.87534 1.80572 0
M  V30 9221 C 864.078 -4.89783 1.11436 0
M  V30 9222 C 866.072 -5.6779 2.89642 0
M  V30 9223 C 863.759 -5.69809 2.20819 0
M  V30 9224 C 864.757 -6.08721 3.09755 0
M  V30 9225 O 864.445 -6.8714 4.17246 0
M  V30 9226 H 864.177 -0.675263 0.0315661 0
M  V30 9227 H 866.731 -1.91669 0.738375 0
M  V30 9228 H 864.961 -3.71395 -1.07717 0
M  V30 9229 H 866.65 -3.98726 -0.759752 0
M  V30 9230 H 867.416 -4.5581 1.65719 0
M  V30 9231 H 863.295 -4.58977 0.431382 0
M  V30 9232 H 866.839 -5.98082 3.59087 0
M  V30 9233 H 862.736 -6.00947 2.35655 0
M  V30 9234 H 863.504 -7.05498 4.14988 0
M  V30 9235 N 866.167 -0.267825 -1.55308 0
M  V30 9236 C 867.392 0.357487 -2.04296 0
M  V30 9237 C 867.817 1.49222 -1.14518 0
M  V30 9238 O 867.175 1.80741 -0.142292 0
M  V30 9239 C 867.223 0.822899 -3.51085 0
M  V30 9240 O 866.327 1.93078 -3.6441 0
M  V30 9241 H 865.668 0.075025 -0.659748 0
M  V30 9242 H 868.198 -0.399996 -2.00652 0
M  V30 9243 H 868.208 1.12059 -3.92309 0
M  V30 9244 H 866.883 -0.0073562 -4.15899 0
M  V30 9245 H 865.46 1.63618 -3.35087 0
M  V30 9246 N 867.645 1.57599 0.00500368 0
M  V30 9247 C 868.873 1.94626 0.702016 0
M  V30 9248 C 869.288 0.86953 1.67585 0
M  V30 9249 O 868.645 -0.15199 1.81866 0
M  V30 9250 C 868.696 3.31658 1.43824 0
M  V30 9251 O 868.417 4.35197 0.503467 0
M  V30 9252 C 869.918 3.83114 2.23021 0
M  V30 9253 H 867.138 0.641785 0.195841 0
M  V30 9254 H 869.682 2.04451 -0.0446287 0
M  V30 9255 H 867.837 3.23156 2.13655 0
M  V30 9256 H 868.251 5.1444 1.02235 0
M  V30 9257 H 869.725 4.81438 2.7004 0
M  V30 9258 H 870.202 3.15559 3.05482 0
M  V30 9259 H 870.808 3.94775 1.58216 0
M  V30 9260 N 869.123 -0.277682 1.55134 0
M  V30 9261 C 870.071 -1.36305 1.88478 0
M  V30 9262 C 871.065 -1.51362 0.760654 0
M  V30 9263 O 872.271 -1.53202 0.944943 0
M  V30 9264 H 868.646 -0.45577 0.598146 0
M  V30 9265 H 870.617 -1.05431 2.79154 0
M  V30 9266 C 869.366 -2.71739 2.16918 0
M  V30 9267 H 868.689 -2.60942 3.02901 0
M  V30 9268 H 870.129 -3.46635 2.44172 0
M  V30 9269 C 868.588 -3.22476 0.975239 0
M  V30 9270 O 869.118 -4.01164 0.207497 0
M  V30 9271 N 867.324 -2.80097 0.774219 0
M  V30 9272 H 866.871 -2.16221 1.40022 0
M  V30 9273 H 866.829 -3.14392 -0.023021 0
M  V30 9274 N 870.601 -1.47988 -0.541979 0
M  V30 9275 C 871.549 -1.62044 -1.66867 0
M  V30 9276 C 872.543 -0.487217 -1.62242 0
M  V30 9277 O 873.749 -0.66554 -1.67244 0
M  V30 9278 H 870.124 -0.51024 -0.552412 0
M  V30 9279 H 872.095 -2.56695 -1.52153 0
M  V30 9280 C 870.844 -1.66615 -3.0518 0
M  V30 9281 H 870.167 -2.5317 -3.09427 0
M  V30 9282 H 871.607 -1.80496 -3.83663 0
M  V30 9283 C 870.066 -0.402421 -3.34488 0
M  V30 9284 O 870.596 0.48992 -3.98701 0
M  V30 9285 N 868.802 -0.277778 -2.89269 0
M  V30 9286 H 868.349 -1.00488 -2.37192 0
M  V30 9287 H 868.307 0.566784 -3.09249 0
M  V30 9288 N 872.079 0.78992 -1.36375 0
M  V30 9289 C 873.009 1.91683 -1.33341 0
M  V30 9290 C 873.99 1.68861 -0.204965 0
M  V30 9291 O 875.175 1.89982 -0.402531 0
M  V30 9292 C 872.305 3.28696 -1.12143 0
M  V30 9293 C 871.259 3.66041 -2.21806 0
M  V30 9294 C 870.585 5.01399 -1.85751 0
M  V30 9295 C 871.885 3.74677 -3.63888 0
M  V30 9296 H 873.579 1.94478 -2.27637 0
M  V30 9297 H 871.125 0.934271 -1.09578 0
M  V30 9298 H 873.078 4.07151 -1.08656 0
M  V30 9299 H 871.802 3.26287 -0.142974 0
M  V30 9300 H 870.461 2.89883 -2.24418 0
M  V30 9301 H 870.109 4.9551 -0.864817 0
M  V30 9302 H 869.809 5.27355 -2.59173 0
M  V30 9303 H 871.333 5.82274 -1.83819 0
M  V30 9304 H 872.747 4.43324 -3.63506 0
M  V30 9305 H 871.144 4.12118 -4.3621 0
M  V30 9306 H 872.214 2.75795 -3.9883 0
M  V30 9307 N 873.557 1.20646 1.01402 0
M  V30 9308 C 874.968 1.01823 1.56489 0
M  V30 9309 C 875.319 -0.42463 1.9155 0
M  V30 9310 O 874.444 -1.30644 1.72514 0
M  V30 9311 C 875.039 1.84208 2.84347 0
M  V30 9312 C 873.598 1.69743 3.35953 0
M  V30 9313 C 872.745 1.8198 2.09233 0
M  V30 9314 H 875.696 1.348 0.837539 0
M  V30 9315 H 875.717 1.34698 3.55861 0
M  V30 9316 H 875.229 2.89215 2.58798 0
M  V30 9317 H 873.33 0.673833 3.66456 0
M  V30 9318 H 873.443 2.51173 4.07981 0
M  V30 9319 H 871.807 1.25193 2.21808 0
M  V30 9320 H 872.59 2.88477 1.86107 0
M  V30 9321 N 875.035 -1.20752 1.01276 0
M  V30 9322 C 875.968 -2.22091 0.524472 0
M  V30 9323 C 876.946 -1.5692 -0.426017 0
M  V30 9324 O 878.13 -1.8528 -0.346919 0
M  V30 9325 C 875.257 -3.37868 -0.237224 0
M  V30 9326 C 874.303 -4.21327 0.662236 0
M  V30 9327 S 875.136 -4.91352 2.12916 0
M  V30 9328 C 876.292 -6.10553 1.37752 0
M  V30 9329 H 876.525 -2.63166 1.38315 0
M  V30 9330 H 874.058 -1.30742 0.821332 0
M  V30 9331 H 876.016 -4.04985 -0.670599 0
M  V30 9332 H 874.677 -2.95261 -1.07143 0
M  V30 9333 H 873.87 -5.03944 0.0751085 0
M  V30 9334 H 873.472 -3.59445 1.03322 0
M  V30 9335 H 875.764 -6.74322 0.655491 0
M  V30 9336 H 876.707 -6.73717 2.17969 0
M  V30 9337 H 877.115 -5.57566 0.882088 0
M  V30 9338 N 876.513 -0.788492 -1.36457 0
M  V30 9339 C 877.762 -0.357052 -1.98515 0
M  V30 9340 C 878.075 1.0769 -1.63285 0
M  V30 9341 O 879.281 1.61057 -2.1857 0
M  V30 9342 C 877.737 -0.587449 -3.55073 0
M  V30 9343 C 877.345 -2.03276 -3.99228 0
M  V30 9344 C 879.089 -0.220468 -4.23927 0
M  V30 9345 C 876.996 -2.20987 -5.48561 0
M  V30 9346 H 875.926 -0.129762 -0.74275 0
M  V30 9347 H 878.577 -0.969995 -1.55767 0
M  V30 9348 H 876.959 0.0951918 -3.95886 0
M  V30 9349 H 878.133 -2.75173 -3.69617 0
M  V30 9350 H 876.448 -2.3579 -3.43208 0
M  V30 9351 H 879.045 -0.331085 -5.33674 0
M  V30 9352 H 879.388 0.831306 -4.07915 0
M  V30 9353 H 879.921 -0.856309 -3.88474 0
M  V30 9354 H 876.66 -3.24543 -5.69519 0
M  V30 9355 H 876.18 -1.53594 -5.79801 0
M  V30 9356 H 877.859 -2.01656 -6.14771 0
M  V30 9357 N 877.991 1.48044 -0.54043 0
M  V30 9358 C 879.402 1.86418 -0.102662 0
M  V30 9359 C 879.753 1.4489 1.32293 0
M  V30 9360 O 878.878 0.844319 1.99249 0
M  V30 9361 C 879.473 3.38324 -0.179533 0
M  V30 9362 C 878.032 3.75852 0.203098 0
M  V30 9363 C 877.179 2.72097 -0.534637 0
M  V30 9364 H 880.13 1.398 -0.751103 0
M  V30 9365 H 880.151 3.75641 0.606147 0
M  V30 9366 H 879.663 3.68518 -1.21721 0
M  V30 9367 H 877.764 3.51272 1.24252 0
M  V30 9368 H 877.877 4.78884 -0.143784 0
M  V30 9369 H 876.241 2.54692 0.0203358 0
M  V30 9370 H 877.024 3.05135 -1.57314 0
M  V30 9371 N 879.47 0.276058 1.55163 0
M  V30 9372 C 880.717 -0.340455 1.99618 0
M  V30 9373 C 881.045 -1.5579 1.16446 0
M  V30 9374 O 880.3 -1.94433 0.222359 0
M  V30 9375 C 880.599 -0.765744 3.491 0
M  V30 9376 C 880.265 0.347174 4.49561 0
M  V30 9377 C 878.927 0.65276 4.76752 0
M  V30 9378 C 881.279 1.09705 5.09523 0
M  V30 9379 C 878.607 1.71179 5.61173 0
M  V30 9380 C 880.959 2.14581 5.95095 0
M  V30 9381 C 879.623 2.45773 6.20606 0
M  V30 9382 H 878.893 -0.124581 0.730452 0
M  V30 9383 H 881.54 0.389966 1.87487 0
M  V30 9384 H 879.845 -1.57585 3.58712 0
M  V30 9385 H 881.542 -1.25352 3.80904 0
M  V30 9386 H 878.132 0.0988779 4.28486 0
M  V30 9387 H 882.316 0.874223 4.8854 0
M  V30 9388 H 877.572 1.95846 5.79184 0
M  V30 9389 H 881.746 2.7316 6.40591 0
M  V30 9390 H 879.373 3.27969 6.85813 0
M  V30 9391 N 880.948 -1.576 0.00335426 0
M  V30 9392 C 882.178 -1.94713 -0.690682 0
M  V30 9393 C 882.586 -0.876915 -1.67651 0
M  V30 9394 O 881.929 0.152434 -1.83066 0
M  V30 9395 C 881.991 -3.27833 -1.47532 0
M  V30 9396 C 881.655 -4.52344 -0.650704 0
M  V30 9397 C 882.652 -5.19862 0.0630537 0
M  V30 9398 C 880.337 -4.98755 -0.595687 0
M  V30 9399 C 882.331 -6.32093 0.820779 0
M  V30 9400 C 880.018 -6.10875 0.165761 0
M  V30 9401 C 881.016 -6.77401 0.872724 0
M  V30 9402 O 880.704 -7.87372 1.62174 0
M  V30 9403 H 880.436 -0.646627 -0.197104 0
M  V30 9404 H 882.99 -2.05335 0.0516082 0
M  V30 9405 H 881.22 -3.13628 -2.26217 0
M  V30 9406 H 882.909 -3.50034 -2.05501 0
M  V30 9407 H 883.675 -4.84991 0.0297223 0
M  V30 9408 H 879.554 -4.46797 -1.13549 0
M  V30 9409 H 883.098 -6.83953 1.37312 0
M  V30 9410 H 878.995 -6.45187 0.200901 0
M  V30 9411 H 879.763 -8.03905 1.5388 0
M  V30 9412 N 882.426 0.269451 -1.5528 0
M  V30 9413 C 883.675 0.998381 -1.75258 0
M  V30 9414 C 883.988 1.87321 -0.563034 0
M  V30 9415 O 885.194 2.63719 -0.645313 0
M  V30 9416 C 883.65 1.82505 -3.10193 0
M  V30 9417 C 883.258 0.99871 -4.36726 0
M  V30 9418 C 885.002 2.54807 -3.3952 0
M  V30 9419 C 882.909 1.81997 -5.627 0
M  V30 9420 H 881.839 0.376488 -0.653278 0
M  V30 9421 H 884.49 0.253909 -1.81735 0
M  V30 9422 H 882.872 2.61061 -2.97763 0
M  V30 9423 H 884.046 0.257064 -4.60082 0
M  V30 9424 H 882.361 0.390074 -4.14569 0
M  V30 9425 H 884.958 3.16662 -4.30847 0
M  V30 9426 H 885.301 3.25273 -2.59813 0
M  V30 9427 H 885.834 1.83278 -3.53064 0
M  V30 9428 H 882.573 1.15945 -6.45164 0
M  V30 9429 H 882.093 2.53749 -5.43481 0
M  V30 9430 H 883.772 2.39274 -6.0113 0
M  V30 9431 N 883.904 1.48273 0.534124 0
M  V30 9432 C 885.134 1.59503 1.31311 0
M  V30 9433 C 885.542 0.25284 1.87503 0
M  V30 9434 O 884.885 -0.767399 1.66903 0
M  V30 9435 C 884.947 2.57899 2.50456 0
M  V30 9436 C 884.611 4.03063 2.15382 0
M  V30 9437 C 885.608 4.90869 1.713 0
M  V30 9438 C 883.293 4.4857 2.26032 0
M  V30 9439 C 885.287 6.22209 1.38328 0
M  V30 9440 C 882.974 5.79932 1.92672 0
M  V30 9441 C 883.972 6.66574 1.4889 0
M  V30 9442 O 883.66 7.95492 1.15966 0
M  V30 9443 H 883.392 0.540695 0.405739 0
M  V30 9444 H 885.946 1.94794 0.651497 0
M  V30 9445 H 884.176 2.1772 3.19585 0
M  V30 9446 H 885.865 2.59008 3.12522 0
M  V30 9447 H 886.631 4.56951 1.62545 0
M  V30 9448 H 882.51 3.81321 2.59066 0
M  V30 9449 H 886.054 6.89792 1.04082 0
M  V30 9450 H 881.951 6.13386 2.01066 0
M  V30 9451 H 882.719 8.08207 1.29399 0
M  V30 9452 N 885.382 -0.782676 1.36792 0
M  V30 9453 C 886.612 -1.56934 1.3437 0
M  V30 9454 C 887.02 -1.89049 -0.0754828 0
M  V30 9455 O 886.363 -1.51103 -1.04467 0
M  V30 9456 C 886.425 -2.91311 2.10661 0
M  V30 9457 C 886.089 -2.81889 3.59705 0
M  V30 9458 C 887.086 -2.53668 4.53815 0
M  V30 9459 C 884.771 -3.00254 4.02682 0
M  V30 9460 C 886.765 -2.43925 5.8888 0
M  V30 9461 C 884.452 -2.90132 5.37835 0
M  V30 9462 C 885.45 -2.62006 6.30747 0
M  V30 9463 O 885.138 -2.5189 7.63418 0
M  V30 9464 H 884.87 -0.493194 0.462316 0
M  V30 9465 H 887.424 -0.978791 1.80579 0
M  V30 9466 H 885.654 -3.52443 1.59125 0
M  V30 9467 H 887.343 -3.52632 2.01012 0
M  V30 9468 H 888.109 -2.39176 4.21924 0
M  V30 9469 H 883.988 -3.21151 3.30731 0
M  V30 9470 H 887.532 -2.21892 6.6137 0
M  V30 9471 H 883.429 -3.04189 5.69332 0
M  V30 9472 H 884.197 -2.67321 7.73616 0
M  V30 9473 N 886.86 -1.21182 -1.00761 0
M  V30 9474 C 888.085 -1.05411 -1.78615 0
M  V30 9475 C 888.51 0.391837 -1.83973 0
M  V30 9476 O 887.868 1.28256 -1.28141 0
M  V30 9477 C 887.916 -1.65285 -3.20489 0
M  V30 9478 O 887.02 -0.896558 -4.02536 0
M  V30 9479 H 886.361 -0.37116 -0.550578 0
M  V30 9480 H 888.891 -1.60669 -1.26676 0
M  V30 9481 H 888.901 -1.69397 -3.71172 0
M  V30 9482 H 887.576 -2.70514 -3.15904 0
M  V30 9483 H 886.153 -0.930335 -3.61108 0
M  V30 9484 N 888.338 1.20213 -1.01915 0
M  V30 9485 C 889.271 2.2181 -0.536243 0
M  V30 9486 C 890.249 1.57144 0.417689 0
M  V30 9487 O 891.433 1.85461 0.337088 0
M  V30 9488 C 888.56 3.37989 0.219303 0
M  V30 9489 C 887.606 4.2097 -0.684571 0
M  V30 9490 S 888.439 4.90216 -2.15519 0
M  V30 9491 C 889.595 6.09814 -1.40988 0
M  V30 9492 H 889.828 2.62429 -1.39709 0
M  V30 9493 H 887.361 1.30305 -0.828254 0
M  V30 9494 H 889.319 4.05335 0.649112 0
M  V30 9495 H 887.98 2.95825 1.05575 0
M  V30 9496 H 887.173 5.03897 -0.101833 0
M  V30 9497 H 886.775 3.58892 -1.05227 0
M  V30 9498 H 889.067 6.73964 -0.691243 0
M  V30 9499 H 890.01 6.72552 -2.21539 0
M  V30 9500 H 890.418 5.5709 -0.911645 0
M  V30 9501 N 889.816 0.795718 1.36037 0
M  V30 9502 C 891.063 0.371024 1.99072 0
M  V30 9503 C 891.391 -1.05896 1.63145 0
M  V30 9504 O 890.646 -1.7474 0.881163 0
M  V30 9505 C 890.945 0.489038 3.54038 0
M  V30 9506 C 890.611 1.88075 4.09803 0
M  V30 9507 C 889.273 2.26152 4.24745 0
M  V30 9508 C 891.625 2.79174 4.40126 0
M  V30 9509 C 888.953 3.54718 4.67324 0
M  V30 9510 C 891.305 4.07175 4.8414 0
M  V30 9511 C 889.969 4.45266 4.97287 0
M  V30 9512 H 889.239 0.135767 0.728456 0
M  V30 9513 H 891.886 1.0144 1.62426 0
M  V30 9514 H 890.191 -0.237823 3.91078 0
M  V30 9515 H 891.888 0.141374 4.00751 0
M  V30 9516 H 888.478 1.57488 3.98617 0
M  V30 9517 H 892.662 2.51009 4.28145 0
M  V30 9518 H 887.918 3.84093 4.75691 0
M  V30 9519 H 892.092 4.77875 5.06565 0
M  V30 9520 H 889.719 5.44943 5.30038 0
M  V30 9521 N 891.294 -1.47756 0.548274 0
M  V30 9522 C 892.542 -2.02089 0.0208542 0
M  V30 9523 C 892.863 -1.42589 -1.33017 0
M  V30 9524 O 892.133 -0.597825 -1.86555 0
M  V30 9525 H 890.713 -0.746985 0.00472023 0
M  V30 9526 H 893.375 -1.81262 0.716257 0
M  V30 9527 H 892.471 -3.12012 -0.0739016 0
M  V30 9528 N 892.772 -0.284283 -1.55015 0
M  V30 9529 C 894.019 0.329864 -1.99795 0
M  V30 9530 C 894.347 1.55171 -1.1727 0
M  V30 9531 O 893.602 1.94312 -0.232667 0
M  V30 9532 C 893.901 0.747219 -3.49502 0
M  V30 9533 C 893.567 -0.37101 -4.49371 0
M  V30 9534 C 892.229 -0.678034 -4.76399 0
M  V30 9535 C 894.581 -1.12406 -5.08935 0
M  V30 9536 C 891.909 -1.74152 -5.60257 0
M  V30 9537 C 894.261 -2.17734 -5.93948 0
M  V30 9538 C 892.925 -2.49061 -6.19294 0
M  V30 9539 H 892.195 0.120706 -0.731103 0
M  V30 9540 H 894.842 -0.399904 -1.87278 0
M  V30 9541 H 893.147 1.55681 -3.59542 0
M  V30 9542 H 894.844 1.2333 -3.81563 0
M  V30 9543 H 891.434 -0.1216 -4.28427 0
M  V30 9544 H 895.618 -0.900119 -4.88069 0
M  V30 9545 H 890.874 -1.98915 -5.78137 0
M  V30 9546 H 895.048 -2.76553 -6.39133 0
M  V30 9547 H 892.675 -3.31602 -6.84064 0
M  V30 9548 N 894.251 1.57596 -0.0117121 0
M  V30 9549 C 895.183 2.06025 1.0043 0
M  V30 9550 C 896.196 0.980348 1.29973 0
M  V30 9551 O 897.385 1.25691 1.26744 0
M  V30 9552 C 894.485 2.45514 2.33615 0
M  V30 9553 C 893.658 3.76378 2.22842 0
M  V30 9554 C 892.717 4.02606 3.38814 0
M  V30 9555 O 891.743 4.73108 3.16477 0
M  V30 9556 N 892.945 3.51416 4.62047 0
M  V30 9557 H 895.71 2.93811 0.591206 0
M  V30 9558 H 893.271 1.60947 0.175427 0
M  V30 9559 H 895.263 2.60166 3.09993 0
M  V30 9560 H 893.833 1.63186 2.66625 0
M  V30 9561 H 893.053 3.71691 1.313 0
M  V30 9562 H 894.341 4.62149 2.12829 0
M  V30 9563 H 893.739 2.94346 4.83091 0
M  V30 9564 H 892.296 3.71377 5.35651 0
M  V30 9565 N 895.729 -0.261212 1.5542 0
M  V30 9566 C 897.145 -0.609012 1.47524 0
M  V30 9567 C 897.345 -1.88986 0.699042 0
M  V30 9568 O 896.401 -2.51517 0.222628 0
M  V30 9569 C 897.714 -0.725025 2.91828 0
M  V30 9570 C 899.262 -0.818302 3.02114 0
M  V30 9571 C 899.737 -0.965996 4.47697 0
M  V30 9572 N 901.228 -1.03123 4.51575 0
M  V30 9573 C 901.963 -1.16451 5.6145 0
M  V30 9574 N 901.459 -1.26425 6.81167 0
M  V30 9575 N 903.252 -1.19655 5.49217 0
M  V30 9576 H 895.403 0.579807 2.04333 0
M  V30 9577 H 897.666 0.198072 0.927077 0
M  V30 9578 H 897.372 0.145871 3.51397 0
M  V30 9579 H 897.246 -1.60156 3.41511 0
M  V30 9580 H 899.633 -1.67966 2.42634 0
M  V30 9581 H 899.714 0.0830895 2.55665 0
M  V30 9582 H 899.358 -0.109251 5.07782 0
M  V30 9583 H 899.288 -1.88221 4.91813 0
M  V30 9584 H 901.779 -0.966072 3.65343 0
M  V30 9585 H 902.092 -1.36462 7.60656 0
M  V30 9586 H 900.437 -1.23408 6.83956 0
M  V30 9587 H 903.628 -1.11501 4.54626 0
M  V30 9588 H 903.801 -1.29698 6.34888 0
M  V30 9589 N 897.207 -1.48554 -0.526253 0
M  V30 9590 C 898.456 -1.56014 -1.27837 0
M  V30 9591 C 898.769 -0.240643 -1.94114 0
M  V30 9592 O 899.975 -0.193525 -2.70809 0
M  V30 9593 C 898.431 -2.75161 -2.31979 0
M  V30 9594 C 898.039 -4.13768 -1.71755 0
M  V30 9595 C 899.783 -2.91936 -3.08178 0
M  V30 9596 C 897.69 -5.24171 -2.7386 0
M  V30 9597 H 896.62 -0.58082 -0.480795 0
M  V30 9598 H 899.271 -1.74895 -0.555335 0
M  V30 9599 H 897.653 -2.49722 -3.07335 0
M  V30 9600 H 898.827 -4.49241 -1.02563 0
M  V30 9601 H 897.142 -4.02141 -1.08036 0
M  V30 9602 H 899.739 -3.71586 -3.84484 0
M  V30 9603 H 900.082 -2.01533 -3.64267 0
M  V30 9604 H 900.615 -3.17294 -2.39937 0
M  V30 9605 H 897.354 -6.16552 -2.22586 0
M  V30 9606 H 896.874 -4.93181 -3.41368 0
M  V30 9607 H 898.553 -5.52442 -3.36774 0
M  V30 9608 N 898.685 0.775411 -1.37205 0
M  V30 9609 C 899.933 1.53081 -1.3195 0
M  V30 9610 C 900.254 1.9476 0.0966864 0
M  V30 9611 O 899.524 1.66019 1.03993 0
M  V30 9612 H 898.104 0.567762 -0.485444 0
M  V30 9613 H 900.766 0.92309 -1.71654 0
M  V30 9614 H 899.862 2.4319 -1.95614 0
M  V30 9615 N 900.163 1.21714 1.00117 0
M  V30 9616 C 901.44 0.945391 1.71236 0
M  V30 9617 C 901.82 -0.541772 2.0403 0
M  V30 9618 O 901.168 -1.50763 1.71705 0
M  V30 9619 C 901.378 1.83444 2.96899 0
M  V30 9620 C 902.726 2.08558 3.69849 0
M  V30 9621 O 903.75 1.80824 3.06889 0
M  V30 9622 O 902.609 2.55485 4.83104 0
M  V30 9623 H 899.703 0.354834 0.747009 0
M  V30 9624 H 902.249 1.32661 1.05825 0
M  V30 9625 H 901.021 2.84075 2.69105 0
M  V30 9626 H 900.644 1.45428 3.70049 0
M  V30 9627 N 901.641 -1.19671 1.02551 0
M  V30 9628 C 902.571 -2.25009 0.623965 0
M  V30 9629 C 903.552 -1.66129 -0.36538 0
M  V30 9630 O 904.737 -1.92599 -0.248842 0
M  V30 9631 C 901.867 -3.47287 -0.0294869 0
M  V30 9632 C 900.821 -4.18818 0.881781 0
M  V30 9633 C 900.147 -5.34618 0.0936189 0
M  V30 9634 C 901.447 -4.73986 2.19396 0
M  V30 9635 H 903.141 -2.58851 1.50454 0
M  V30 9636 H 900.687 -1.24425 0.724872 0
M  V30 9637 H 902.64 -4.20168 -0.322016 0
M  V30 9638 H 901.364 -3.12635 -0.944838 0
M  V30 9639 H 900.023 -3.47815 1.15845 0
M  V30 9640 H 899.671 -4.9621 -0.823661 0
M  V30 9641 H 899.371 -5.83409 0.700568 0
M  V30 9642 H 900.895 -6.10297 -0.192249 0
M  V30 9643 H 902.309 -5.38639 1.96319 0
M  V30 9644 H 900.706 -5.3325 2.75254 0
M  V30 9645 H 901.776 -3.92238 2.85092 0
M  V30 9646 N 903.119 -0.802921 -1.35613 0
M  V30 9647 C 904.359 -0.387163 -2.007 0
M  V30 9648 C 904.723 1.02546 -1.62322 0
M  V30 9649 O 905.924 1.54303 -2.201 0
M  V30 9650 C 904.195 -0.560813 -3.52973 0
M  V30 9651 S 905.754 -0.234935 -4.38171 0
M  V30 9652 H 902.572 -0.147218 -0.695592 0
M  V30 9653 H 905.174 -1.04437 -1.65267 0
M  V30 9654 H 903.878 -1.58897 -3.78391 0
M  V30 9655 H 903.409 0.111845 -3.93241 0
M  V30 9656 H 905.424 0.958715 -4.8685 0
M  V30 9657 N 904.597 1.47463 -0.556102 0
M  V30 9658 C 905.843 2.03361 -0.039909 0
M  V30 9659 C 906.198 1.42292 1.29502 0
M  V30 9660 O 905.491 0.568813 1.82962 0
M  V30 9661 C 905.685 3.57224 0.112126 0
M  V30 9662 C 905.514 4.33213 -1.20652 0
M  V30 9663 C 904.284 4.73153 -1.77352 0
M  V30 9664 C 906.482 4.68415 -2.12348 0
M  V30 9665 N 904.464 5.33781 -3.03233 0
M  V30 9666 C 905.835 5.29334 -3.22808 0
M  V30 9667 C 907.89 4.50344 -2.12356 0
M  V30 9668 C 906.593 5.7409 -4.33374 0
M  V30 9669 C 908.619 4.96098 -3.21933 0
M  V30 9670 C 907.981 5.57065 -4.31112 0
M  V30 9671 H 904.08 0.779939 -0.0567407 0
M  V30 9672 H 906.664 1.79959 -0.743147 0
M  V30 9673 H 904.835 3.80395 0.784485 0
M  V30 9674 H 906.567 3.99762 0.630285 0
M  V30 9675 H 903.322 4.55074 -1.31165 0
M  V30 9676 H 903.746 5.6864 -3.67393 0
M  V30 9677 H 908.388 4.02566 -1.29229 0
M  V30 9678 H 906.106 6.2086 -5.17261 0
M  V30 9679 H 909.692 4.83887 -3.23024 0
M  V30 9680 H 908.572 5.91824 -5.14504 0
M  V30 9681 N 906.075 0.2925 1.54862 0
M  V30 9682 C 907.038 -0.574423 2.21885 0
M  V30 9683 C 908.038 -1.06791 1.20218 0
M  V30 9684 O 909.228 -0.9653 1.45009 0
M  V30 9685 C 906.36 -1.79438 2.89853 0
M  V30 9686 H 907.553 0.0110319 2.99898 0
M  V30 9687 H 905.106 0.043256 1.5624 0
M  V30 9688 H 905.841 -2.4199 2.15897 0
M  V30 9689 H 905.626 -1.44827 3.64373 0
M  V30 9690 H 907.116 -2.41048 3.41007 0
M  V30 9691 N 907.553 -1.57587 0.0200696 0
M  V30 9692 C 908.516 -2.08595 -0.949767 0
M  V30 9693 C 909.516 -0.999215 -1.25985 0
M  V30 9694 O 910.706 -1.26115 -1.2017 0
M  V30 9695 C 907.838 -2.54424 -2.26895 0
M  V30 9696 H 909.031 -2.95563 -0.508161 0
M  V30 9697 H 906.584 -1.54631 -0.227798 0
M  V30 9698 H 907.319 -1.70758 -2.75703 0
M  V30 9699 H 907.104 -3.3381 -2.05702 0
M  V30 9700 H 908.594 -2.94144 -2.96427 0
M  V30 9701 N 909.032 0.252966 -1.55557 0
M  V30 9702 C 910.28 0.979912 -1.76754 0
M  V30 9703 C 910.601 1.86083 -0.582944 0
M  V30 9704 O 909.871 1.91742 0.401497 0
M  V30 9705 H 908.451 0.364805 -0.651864 0
M  V30 9706 H 911.113 0.272372 -1.92987 0
M  V30 9707 H 910.209 1.60518 -2.67657 0
M  V30 9708 N 910.51 1.48831 0.518367 0
M  V30 9709 C 911.787 1.47933 1.27966 0
M  V30 9710 C 912.167 0.197393 2.10175 0
M  V30 9711 O 911.515 -0.820656 2.13255 0
M  V30 9712 C 911.725 2.74816 2.15121 0
M  V30 9713 C 913.073 3.23613 2.74881 0
M  V30 9714 O 914.097 2.75814 2.254 0
M  V30 9715 O 912.956 4.06818 3.64913 0
M  V30 9716 H 910.05 0.591316 0.578164 0
M  V30 9717 H 912.596 1.61077 0.534065 0
M  V30 9718 H 911.368 3.59621 1.54234 0
M  V30 9719 H 910.991 2.64449 2.96905 0
M  V30 9720 N 911.988 -0.768124 1.37614 0
M  V30 9721 C 912.92 -1.89076 1.29548 0
M  V30 9722 C 913.933 -1.61433 0.21056 0
M  V30 9723 O 915.122 -1.72283 0.466992 0
M  V30 9724 C 912.222 -3.24388 0.981102 0
M  V30 9725 C 911.395 -3.79649 2.17222 0
M  V30 9726 C 910.454 -4.93444 1.82754 0
M  V30 9727 O 909.48 -5.0884 2.5509 0
M  V30 9728 N 910.682 -5.75319 0.773819 0
M  V30 9729 H 913.447 -1.9651 2.26283 0
M  V30 9730 H 911.008 -0.947399 1.31286 0
M  V30 9731 H 913 -3.98038 0.731301 0
M  V30 9732 H 911.57 -3.12433 0.102203 0
M  V30 9733 H 910.79 -2.97735 2.58355 0
M  V30 9734 H 912.078 -4.13302 2.96748 0
M  V30 9735 H 911.476 -5.65433 0.173644 0
M  V30 9736 H 910.033 -6.4918 0.583882 0
M  V30 9737 N 913.466 -1.22244 -0.994698 0
M  V30 9738 C 914.398 -0.948706 -2.08644 0
M  V30 9739 C 915.411 0.0720049 -1.62641 0
M  V30 9740 O 916.6 -0.161778 -1.77765 0
M  V30 9741 C 913.7 -0.404885 -3.36473 0
M  V30 9742 C 912.873 -1.48239 -4.11514 0
M  V30 9743 C 911.932 -0.94597 -5.17627 0
M  V30 9744 O 910.958 -1.63177 -5.45309 0
M  V30 9745 N 912.16 0.23355 -5.8003 0
M  V30 9746 H 914.925 -1.88858 -2.32707 0
M  V30 9747 H 912.486 -1.12908 -1.16032 0
M  V30 9748 H 914.478 -0.0313903 -4.04688 0
M  V30 9749 H 913.048 0.440061 -3.09487 0
M  V30 9750 H 912.268 -2.02928 -3.37955 0
M  V30 9751 H 913.556 -2.20741 -4.58422 0
M  V30 9752 H 912.954 0.80756 -5.59906 0
M  V30 9753 H 911.511 0.54845 -6.49488 0
M  V30 9754 N 914.944 1.19125 -1.03184 0
M  V30 9755 C 915.907 2.20662 -0.619766 0
M  V30 9756 C 916.907 1.57621 0.318179 0
M  V30 9757 O 918.097 1.73885 0.104783 0
M  V30 9758 C 915.229 3.40774 0.0926696 0
M  V30 9759 H 916.422 2.58633 -1.5182 0
M  V30 9760 H 913.975 1.32855 -0.823364 0
M  V30 9761 H 914.71 3.08324 1.00531 0
M  V30 9762 H 914.495 3.87766 -0.581344 0
M  V30 9763 H 915.985 4.15977 0.367792 0
M  V30 9764 N 916.422 0.810101 1.35185 0
M  V30 9765 C 917.838 0.494269 1.51754 0
M  V30 9766 C 918.038 -0.983907 1.75845 0
M  V30 9767 O 917.094 -1.76882 1.80191 0
M  V30 9768 C 918.407 1.34268 2.69059 0
M  V30 9769 C 919.955 1.33848 2.82938 0
M  V30 9770 C 920.43 2.17109 4.03271 0
M  V30 9771 N 921.921 2.14664 4.10456 0
M  V30 9772 C 922.656 2.75843 5.02691 0
M  V30 9773 N 922.152 3.45962 6.00235 0
M  V30 9774 N 923.945 2.65465 4.95464 0
M  V30 9775 H 916.096 1.76736 1.17805 0
M  V30 9776 H 918.359 0.752429 0.576676 0
M  V30 9777 H 918.065 2.39183 2.57845 0
M  V30 9778 H 917.939 0.998362 3.63748 0
M  V30 9779 H 920.326 0.29716 2.936 0
M  V30 9780 H 920.407 1.72269 1.89095 0
M  V30 9781 H 920.051 3.21283 3.93369 0
M  V30 9782 H 919.981 1.76046 4.96302 0
M  V30 9783 H 922.472 1.63648 3.40628 0
M  V30 9784 H 922.785 3.89922 6.67219 0
M  V30 9785 H 921.13 3.50067 6.00398 0
M  V30 9786 H 924.321 2.1027 4.18215 0
M  V30 9787 H 924.494 3.13433 5.67154 0
M  V30 9788 N 917.9 -1.47166 0.563914 0
M  V30 9789 C 919.148 -2.02056 0.0422873 0
M  V30 9790 C 919.469 -1.43992 -1.31497 0
M  V30 9791 O 918.739 -0.617578 -1.85911 0
M  V30 9792 H 917.319 -0.746893 0.0126427 0
M  V30 9793 H 919.981 -1.80492 0.735441 0
M  V30 9794 H 919.077 -3.12073 -0.0408044 0
M  V30 9795 N 919.378 -0.300708 -1.54705 0
M  V30 9796 C 920.625 0.308654 -2.00134 0
M  V30 9797 C 920.953 1.53918 -1.1891 0
M  V30 9798 O 920.208 1.94054 -0.253263 0
M  V30 9799 C 920.507 0.710108 -3.50275 0
M  V30 9800 C 920.173 -0.418651 -4.48952 0
M  V30 9801 C 918.835 -0.728524 -4.75653 0
M  V30 9802 C 921.187 -1.17797 -5.07714 0
M  V30 9803 C 918.515 -1.80085 -5.58378 0
M  V30 9804 C 920.867 -2.24022 -5.91606 0
M  V30 9805 C 919.531 -2.55616 -6.16617 0
M  V30 9806 H 918.801 0.112945 -0.732342 0
M  V30 9807 H 921.448 -0.419744 -1.86843 0
M  V30 9808 H 919.753 1.51859 -3.61173 0
M  V30 9809 H 921.45 1.19277 -3.8285 0
M  V30 9810 H 918.04 -0.167034 -4.28274 0
M  V30 9811 H 922.224 -0.951835 -4.87087 0
M  V30 9812 H 917.48 -2.05036 -5.75995 0
M  V30 9813 H 921.654 -2.83317 -6.36164 0
M  V30 9814 H 919.281 -3.38839 -6.80509 0
M  V30 9815 N 920.856 1.57574 -0.0284266 0
M  V30 9816 C 921.786 2.1321 0.952039 0
M  V30 9817 C 922.767 1.04806 1.33977 0
M  V30 9818 O 923.952 1.32635 1.41851 0
M  V30 9819 C 921.082 2.65862 2.23461 0
M  V30 9820 C 920.036 3.79047 1.98765 0
M  V30 9821 C 919.362 4.18124 3.33281 0
M  V30 9822 C 920.662 5.05151 1.32739 0
M  V30 9823 H 922.356 2.95385 0.488705 0
M  V30 9824 H 919.902 1.42092 0.233628 0
M  V30 9825 H 921.855 3.03417 2.92431 0
M  V30 9826 H 920.579 1.80848 2.71959 0
M  V30 9827 H 919.238 3.41929 1.32213 0
M  V30 9828 H 918.886 3.30092 3.79537 0
M  V30 9829 H 918.586 4.94396 3.17563 0
M  V30 9830 H 920.11 4.58262 4.0352 0
M  V30 9831 H 921.524 5.40297 1.91708 0
M  V30 9832 H 919.921 5.86416 1.27421 0
M  V30 9833 H 920.991 4.83969 0.300261 0
M  V30 9834 N 922.334 -0.244713 1.55689 0
M  V30 9835 C 923.583 -0.970373 1.76824 0
M  V30 9836 C 923.896 -1.86402 0.592764 0
M  V30 9837 O 925.102 -2.62659 0.687186 0
M  V30 9838 C 923.558 -1.77547 3.13058 0
M  V30 9839 C 923.166 -0.929104 4.3826 0
M  V30 9840 C 924.91 -2.49373 3.43531 0
M  V30 9841 C 922.817 -1.73021 5.65524 0
M  V30 9842 H 921.747 -0.366048 0.659185 0
M  V30 9843 H 924.398 -0.224964 1.82116 0
M  V30 9844 H 922.78 -2.56291 3.01879 0
M  V30 9845 H 923.954 -0.183836 4.60433 0
M  V30 9846 H 922.269 -0.324071 4.15137 0
M  V30 9847 H 924.866 -3.09767 4.35831 0
M  V30 9848 H 925.209 -3.21099 2.64955 0
M  V30 9849 H 925.742 -1.77637 3.55935 0
M  V30 9850 H 922.481 -1.05666 6.46927 0
M  V30 9851 H 922.001 -2.45071 5.47449 0
M  V30 9852 H 923.68 -2.2968 6.0486 0
M  V30 9853 N 923.813 -1.49104 -0.510467 0
M  V30 9854 C 925.061 -1.578 -1.26268 0
M  V30 9855 C 925.382 -0.262349 -1.93227 0
M  V30 9856 O 924.652 0.717624 -1.82283 0
M  V30 9857 H 923.232 -0.581387 -0.46904 0
M  V30 9858 H 925.894 -1.85678 -0.592423 0
M  V30 9859 H 924.99 -2.36919 -2.03165 0
M  V30 9860 N 925.291 0.760815 -1.38019 0
M  V30 9861 C 926.539 1.51673 -1.33566 0
M  V30 9862 C 926.86 1.94852 0.076024 0
M  V30 9863 O 926.13 1.67112 1.02227 0
M  V30 9864 H 924.71 0.562581 -0.491438 0
M  V30 9865 H 927.372 0.904832 -1.72623 0
M  V30 9866 H 926.468 2.41102 -1.98182 0
M  V30 9867 N 926.769 1.22769 0.988202 0
M  V30 9868 C 927.997 1.08155 1.76381 0
M  V30 9869 C 928.412 -0.367573 1.85187 0
M  V30 9870 O 927.769 -1.25455 1.32541 0
M  V30 9871 C 927.82 1.69193 3.19462 0
M  V30 9872 O 927.541 3.08437 3.11125 0
M  V30 9873 C 929.042 1.59915 4.13451 0
M  V30 9874 H 926.262 0.378908 0.553778 0
M  V30 9875 H 928.806 1.6246 1.24206 0
M  V30 9876 H 926.961 1.18939 3.6869 0
M  V30 9877 H 927.375 3.37916 4.0114 0
M  V30 9878 H 928.849 2.07339 5.1158 0
M  V30 9879 H 929.326 0.556546 4.3566 0
M  V30 9880 H 929.932 2.09497 3.70123 0
M  V30 9881 N 928.247 -1.18576 1.03814 0
M  V30 9882 C 929.472 -1.92978 0.759873 0
M  V30 9883 C 929.897 -1.75514 -0.676486 0
M  V30 9884 O 929.255 -1.06359 -1.46824 0
M  V30 9885 C 929.303 -3.42507 1.12788 0
M  V30 9886 O 928.407 -4.1163 0.251886 0
M  V30 9887 H 927.748 -0.602129 0.279886 0
M  V30 9888 H 930.278 -1.50383 1.3873 0
M  V30 9889 H 930.288 -3.93206 1.08872 0
M  V30 9890 H 928.963 -3.5454 2.17427 0
M  V30 9891 H 927.54 -3.7125 0.350441 0
M  V30 9892 N 929.725 -0.817259 -1.34754 0
M  V30 9893 C 930.973 -0.401852 -1.98065 0
M  V30 9894 C 931.294 1.03718 -1.65129 0
M  V30 9895 O 930.564 1.71921 -0.939141 0
M  V30 9896 H 929.144 -0.145603 -0.732672 0
M  V30 9897 H 931.806 -1.04545 -1.64488 0
M  V30 9898 H 930.902 -0.516241 -3.07801 0
M  V30 9899 N 931.203 1.46865 -0.571711 0
M  V30 9900 C 932.619 1.57897 -0.23255 0
M  V30 9901 C 932.819 1.56836 1.26509 0
M  V30 9902 O 931.875 1.47947 2.04617 0
M  V30 9903 C 933.188 2.87778 -0.872036 0
M  V30 9904 C 934.736 3.01389 -0.844605 0
M  V30 9905 C 935.211 4.33991 -1.46343 0
M  V30 9906 N 936.702 4.40662 -1.42727 0
M  V30 9907 C 937.437 5.41858 -1.87557 0
M  V30 9908 N 936.933 6.49787 -2.4031 0
M  V30 9909 N 938.726 5.32992 -1.7854 0
M  V30 9910 H 930.877 1.45798 -1.54457 0
M  V30 9911 H 933.14 0.694785 -0.644964 0
M  V30 9912 H 932.846 2.94332 -1.92513 0
M  V30 9913 H 932.72 3.75345 -0.373677 0
M  V30 9914 H 935.107 2.94423 0.19984 0
M  V30 9915 H 935.188 2.15327 -1.38087 0
M  V30 9916 H 934.832 4.41714 -2.50701 0
M  V30 9917 H 934.762 5.18809 -0.902479 0
M  V30 9918 H 937.253 3.63263 -1.04155 0
M  V30 9919 H 937.566 7.23199 -2.72403 0
M  V30 9920 H 935.911 6.50637 -2.44329 0
M  V30 9921 H 939.102 4.47575 -1.37093 0
M  V30 9922 H 939.275 6.11716 -2.13794 0
M  V30 9923 N 932.681 0.308908 1.54543 0
M  V30 9924 C 933.909 -0.300418 2.04707 0
M  V30 9925 C 934.324 -1.46915 1.18581 0
M  V30 9926 O 933.681 -1.81251 0.213186 0
M  V30 9927 C 933.732 -0.749038 3.53655 0
M  V30 9928 O 933.453 0.373181 4.36508 0
M  V30 9929 C 934.954 -1.4227 4.1985 0
M  V30 9930 H 932.174 -0.0641267 0.667929 0
M  V30 9931 H 934.718 0.450839 1.99469 0
M  V30 9932 H 932.873 -1.4503 3.59228 0
M  V30 9933 H 933.287 0.0224752 5.24495 0
M  V30 9934 H 934.761 -1.68768 5.25568 0
M  V30 9935 H 935.238 -2.36531 3.70067 0
M  V30 9936 H 935.844 -0.764404 4.18374 0
M  V30 9937 N 934.159 -1.57557 0.0367827 0
M  V30 9938 C 935.387 -1.96419 -0.650168 0
M  V30 9939 C 935.802 -0.913656 -1.6522 0
M  V30 9940 O 935.159 0.103718 -1.82205 0
M  V30 9941 C 935.21 -3.35355 -1.3498 0
M  V30 9942 O 934.931 -4.36379 -0.387905 0
M  V30 9943 C 936.432 -3.88892 -2.12786 0
M  V30 9944 H 933.652 -0.646751 -0.178756 0
M  V30 9945 H 936.196 -2.04261 0.0988197 0
M  V30 9946 H 934.351 -3.28708 -2.05012 0
M  V30 9947 H 934.765 -5.16969 -0.885596 0
M  V30 9948 H 936.239 -4.88428 -2.5718 0
M  V30 9949 H 936.716 -3.23547 -2.97008 0
M  V30 9950 H 937.322 -3.98831 -1.47694 0
M  V30 9951 N 935.637 0.236453 -1.55816 0
M  V30 9952 C 936.567 1.29639 -1.94206 0
M  V30 9953 C 937.548 1.49667 -0.808319 0
M  V30 9954 O 938.733 1.621 -1.06945 0
M  V30 9955 C 935.863 2.64914 -2.24584 0
M  V30 9956 C 934.817 2.59565 -3.40308 0
M  V30 9957 C 934.143 3.98732 -3.56254 0
M  V30 9958 C 935.443 2.15642 -4.75706 0
M  V30 9959 H 937.137 0.977552 -2.82992 0
M  V30 9960 H 934.683 0.468804 -1.36155 0
M  V30 9961 H 936.636 3.39209 -2.50031 0
M  V30 9962 H 935.36 2.98455 -1.32636 0
M  V30 9963 H 934.019 1.87728 -3.14887 0
M  V30 9964 H 933.667 4.29556 -2.61707 0
M  V30 9965 H 933.367 3.96039 -4.34082 0
M  V30 9966 H 934.891 4.74711 -3.84033 0
M  V30 9967 H 936.305 2.79673 -5.00456 0
M  V30 9968 H 934.702 2.24039 -5.56711 0
M  V30 9969 H 935.772 1.10831 -4.72064 0
M  V30 9970 N 937.115 1.49373 0.502552 0
M  V30 9971 C 938.063 1.66411 1.62512 0
M  V30 9972 C 939.057 0.530062 1.60893 0
M  V30 9973 O 940.263 0.709648 1.65421 0
M  V30 9974 H 936.638 0.524707 0.538689 0
M  V30 9975 H 938.609 2.60639 1.45293 0
M  V30 9976 C 937.358 1.74648 3.00655 0
M  V30 9977 H 936.681 2.61285 3.02606 0
M  V30 9978 H 938.121 1.90605 3.78742 0
M  V30 9979 C 936.58 0.490963 3.33303 0
M  V30 9980 O 937.11 -0.384039 3.9986 0
M  V30 9981 N 935.316 0.354375 2.88431 0
M  V30 9982 H 934.863 1.06742 2.34444 0
M  V30 9983 H 934.821 -0.484593 3.10643 0
M  V30 9984 N 938.594 -0.753485 1.38421 0
M  V30 9985 C 939.842 -1.50962 1.34368 0
M  V30 9986 C 940.163 -1.94889 -0.0656895 0
M  V30 9987 O 939.433 -1.67652 -1.01339 0
M  V30 9988 H 938.013 -0.559967 0.494415 0
M  V30 9989 H 940.675 -0.895665 1.73101 0
M  V30 9990 H 939.771 -2.40048 1.99458 0
M  V30 9991 N 940.072 -1.23292 -0.981677 0
M  V30 9992 C 940.982 -1.02964 -2.10798 0
M  V30 9993 C 941.998 0.0254674 -1.73981 0
M  V30 9994 O 943.174 -0.169706 -2.00684 0
M  V30 9995 C 940.239 -0.621934 -3.41076 0
M  V30 9996 C 939.3 -1.75194 -3.91926 0
M  V30 9997 C 938.533 -1.36359 -5.15986 0
M  V30 9998 O 938.756 -0.247265 -5.69864 0
M  V30 9999 O 937.69 -2.18421 -5.60871 0
M  V30 10000 H 941.516 -1.97354 -2.30836 0
M  V30 10001 H 939.101 -1.01986 -1.09175 0
M  V30 10002 H 940.983 -0.405446 -4.19445 0
M  V30 10003 H 939.658 0.29299 -3.22371 0
M  V30 10004 H 938.565 -2.02305 -3.1468 0
M  V30 10005 H 939.898 -2.64513 -4.15083 0
M  V30 10006 N 941.55 1.18024 -1.04442 0
M  V30 10007 C 942.798 1.87727 -0.74854 0
M  V30 10008 C 943.119 1.80975 0.726156 0
M  V30 10009 O 942.389 1.23061 1.52423 0
M  V30 10010 H 940.969 0.694974 -0.273897 0
M  V30 10011 H 943.631 1.43213 -1.32197 0
M  V30 10012 H 942.727 2.93665 -1.05674 0
M  V30 10013 N 943.028 0.824394 1.34319 0
M  V30 10014 C 943.958 0.262077 2.32025 0
M  V30 10015 C 944.939 -0.622277 1.58309 0
M  V30 10016 O 946.124 -0.548848 1.86283 0
M  V30 10017 C 943.254 -0.57567 3.42496 0
M  V30 10018 C 942.208 0.21167 4.27476 0
M  V30 10019 C 941.534 -0.748913 5.29429 0
M  V30 10020 C 942.834 1.42068 5.02607 0
M  V30 10021 H 944.528 1.07842 2.79304 0
M  V30 10022 H 942.074 0.520022 1.34282 0
M  V30 10023 H 944.027 -0.979251 4.09864 0
M  V30 10024 H 942.751 -1.42508 2.93869 0
M  V30 10025 H 941.41 0.596636 3.61712 0
M  V30 10026 H 941.058 -1.59432 4.77064 0
M  V30 10027 H 940.758 -0.226313 5.87164 0
M  V30 10028 H 942.282 -1.15032 5.99667 0
M  V30 10029 H 943.696 1.09103 5.62823 0
M  V30 10030 H 942.093 1.87903 5.69923 0
M  V30 10031 H 943.163 2.1981 4.32217 0
M  V30 10032 N 944.506 -1.46559 0.579492 0
M  V30 10033 C 945.438 -2.28383 -0.19337 0
M  V30 10034 C 946.451 -1.38324 -0.858511 0
M  V30 10035 O 947.64 -1.62952 -0.728615 0
M  V30 10036 C 944.74 -3.13262 -1.29306 0
M  V30 10037 C 943.913 -4.31426 -0.720459 0
M  V30 10038 C 942.972 -4.97728 -1.70744 0
M  V30 10039 O 941.998 -5.55423 -1.24476 0
M  V30 10040 N 943.2 -4.94445 -3.04146 0
M  V30 10041 H 945.965 -2.95353 0.508611 0
M  V30 10042 H 943.526 -1.56436 0.417046 0
M  V30 10043 H 945.518 -3.54483 -1.95254 0
M  V30 10044 H 944.088 -2.48388 -1.89795 0
M  V30 10045 H 943.308 -3.94028 0.116398 0
M  V30 10046 H 944.596 -5.07808 -0.31763 0
M  V30 10047 H 943.994 -4.4881 -3.44363 0
M  V30 10048 H 942.551 -5.39616 -3.65592 0
M  V30 10049 N 945.984 -0.3171 -1.54377 0
M  V30 10050 C 946.934 0.567199 -2.20832 0
M  V30 10051 C 947.918 1.08661 -1.18666 0
M  V30 10052 O 949.11 1.0247 -1.44322 0
M  V30 10053 C 946.239 1.73079 -2.96477 0
M  V30 10054 C 945.325 1.22658 -4.05975 0
M  V30 10055 N 945.716 0.441565 -5.03869 0
M  V30 10056 C 944.014 1.50589 -4.19808 0
M  V30 10057 C 944.715 0.171063 -5.81448 0
M  V30 10058 N 943.691 0.755389 -5.38326 0
M  V30 10059 H 947.493 -0.0399349 -2.93873 0
M  V30 10060 H 945.007 -0.122639 -1.61936 0
M  V30 10061 H 947.004 2.37601 -3.42566 0
M  V30 10062 H 945.664 2.34146 -2.24957 0
M  V30 10063 H 946.675 0.0849921 -5.1783 0
M  V30 10064 H 943.352 2.12288 -3.595 0
M  V30 10065 H 944.742 -0.460484 -6.7032 0
M  V30 10066 N 947.462 1.57535 -0.0451378 0
M  V30 10067 C 948.372 2.14653 0.946646 0
M  V30 10068 C 949.388 1.10279 1.3459 0
M  V30 10069 O 950.564 1.42417 1.42405 0
M  V30 10070 C 947.629 2.67533 2.20515 0
M  V30 10071 C 946.69 3.86682 1.86481 0
M  V30 10072 C 945.923 4.37031 3.06332 0
M  V30 10073 O 946.146 3.86481 4.1951 0
M  V30 10074 O 945.08 5.28691 2.87697 0
M  V30 10075 H 948.906 2.99706 0.49091 0
M  V30 10076 H 946.491 1.48355 0.17641 0
M  V30 10077 H 948.373 3.01542 2.94365 0
M  V30 10078 H 947.048 1.85554 2.65238 0
M  V30 10079 H 945.955 3.57573 1.09966 0
M  V30 10080 H 947.288 4.69873 1.46562 0
M  V30 10081 N 948.94 -0.228186 1.55939 0
M  V30 10082 C 950.217 -0.977492 1.69424 0
M  V30 10083 C 950.597 -2.02674 0.590479 0
M  V30 10084 O 949.945 -2.2491 -0.403467 0
M  V30 10085 C 950.155 -1.59394 3.10475 0
M  V30 10086 C 951.503 -2.08871 3.69673 0
M  V30 10087 O 952.527 -1.693 3.13394 0
M  V30 10088 O 951.386 -2.81584 4.68372 0
M  V30 10089 H 948.48 -0.456185 0.6898 0
M  V30 10090 H 951.026 -0.220492 1.68261 0
M  V30 10091 H 949.798 -0.835971 3.82266 0
M  V30 10092 H 949.421 -2.41665 3.15727 0
M  V30 10093 N 950.418 -1.49637 -0.494624 0
M  V30 10094 C 951.666 -1.5913 -1.24587 0
M  V30 10095 C 951.987 -0.282828 -1.92938 0
M  V30 10096 O 951.257 0.69825 -1.83034 0
M  V30 10097 H 949.837 -0.586329 -0.462847 0
M  V30 10098 H 952.499 -1.86296 -0.572696 0
M  V30 10099 H 951.595 -2.3906 -2.00641 0
M  V30 10100 N 951.896 0.746133 -1.38819 0
M  V30 10101 C 952.846 1.85085 -1.33145 0
M  V30 10102 C 953.83 1.59466 -0.214339 0
M  V30 10103 O 955.022 1.71159 -0.450943 0
M  V30 10104 C 952.151 3.22884 -1.16623 0
M  V30 10105 C 951.237 3.54369 -2.32988 0
M  V30 10106 N 951.628 3.56863 -3.58445 0
M  V30 10107 C 949.926 3.84674 -2.25703 0
M  V30 10108 C 950.627 3.85827 -4.3533 0
M  V30 10109 N 949.603 4.03037 -3.64777 0
M  V30 10110 H 953.405 1.85301 -2.28124 0
M  V30 10111 H 950.919 0.943847 -1.32156 0
M  V30 10112 H 952.916 4.0195 -1.10642 0
M  V30 10113 H 951.576 3.23914 -0.225841 0
M  V30 10114 H 952.587 3.38443 -3.92017 0
M  V30 10115 H 949.264 3.93375 -1.39864 0
M  V30 10116 H 950.654 3.94317 -5.44025 0
M  V30 10117 N 953.375 1.23811 0.975125 0
M  V30 10118 C 954.6 1.10109 1.75757 0
M  V30 10119 C 955.025 -0.342922 1.84948 0
M  V30 10120 O 954.383 -1.24814 1.31496 0
M  V30 10121 C 954.431 1.73724 3.15994 0
M  V30 10122 O 953.535 1.00297 4.00018 0
M  V30 10123 H 952.876 0.385627 0.540544 0
M  V30 10124 H 955.406 1.63971 1.22372 0
M  V30 10125 H 955.416 1.79178 3.6655 0
M  V30 10126 H 954.091 2.78794 3.0862 0
M  V30 10127 H 952.668 1.02575 3.58515 0
M  V30 10128 N 954.853 -1.17469 1.05066 0
M  V30 10129 C 955.803 -2.19388 0.620713 0
M  V30 10130 C 956.787 -1.5722 -0.34214 0
M  V30 10131 O 957.979 -1.76279 -0.159574 0
M  V30 10132 C 955.108 -3.433 -0.00438518 0
M  V30 10133 C 954.194 -4.12569 0.982218 0
M  V30 10134 N 954.585 -4.57683 2.15313 0
M  V30 10135 C 952.883 -4.38575 0.810416 0
M  V30 10136 C 953.584 -5.11124 2.77719 0
M  V30 10137 N 952.56 -5.0325 2.05525 0
M  V30 10138 H 956.362 -2.51971 1.51287 0
M  V30 10139 H 953.876 -1.33784 0.920625 0
M  V30 10140 H 955.873 -4.15591 -0.330161 0
M  V30 10141 H 954.533 -3.12209 -0.89195 0
M  V30 10142 H 955.544 -4.51812 2.53154 0
M  V30 10143 H 952.221 -4.17492 -0.0262078 0
M  V30 10144 H 953.611 -5.56161 3.77008 0
M  V30 10145 N 956.331 -0.831506 -1.3388 0
M  V30 10146 C 957.58 -0.420028 -1.97278 0
M  V30 10147 C 957.893 1.02441 -1.66629 0
M  V30 10148 O 959.099 1.54021 -2.23584 0
M  V30 10149 C 957.555 -0.700116 -3.53025 0
M  V30 10150 C 957.163 -2.15874 -3.92559 0
M  V30 10151 C 958.907 -0.355226 -4.23011 0
M  V30 10152 C 956.814 -2.38327 -5.41252 0
M  V30 10153 H 955.744 -0.153326 -0.738246 0
M  V30 10154 H 958.395 -1.01906 -1.52602 0
M  V30 10155 H 956.777 -0.0308044 -3.95988 0
M  V30 10156 H 957.951 -2.86792 -3.60675 0
M  V30 10157 H 956.266 -2.4659 -3.35533 0
M  V30 10158 H 958.863 -0.500701 -5.32351 0
M  V30 10159 H 959.206 0.70111 -4.10354 0
M  V30 10160 H 959.739 -0.979466 -3.85553 0
M  V30 10161 H 956.478 -3.42498 -5.58906 0
M  V30 10162 H 955.998 -1.71962 -5.74621 0
M  V30 10163 H 957.677 -2.21113 -6.08045 0
M  V30 10164 N 957.809 1.4625 -0.587256 0
M  V30 10165 C 958.741 2.28482 0.181256 0
M  V30 10166 C 959.754 1.38777 0.851163 0
M  V30 10167 O 960.943 1.63336 0.719963 0
M  V30 10168 C 958.043 3.13944 1.27643 0
M  V30 10169 C 957.216 4.31802 0.697569 0
M  V30 10170 C 956.275 4.98626 1.68102 0
M  V30 10171 O 955.301 5.56075 1.21529 0
M  V30 10172 N 956.503 4.96051 3.0152 0
M  V30 10173 H 959.268 2.95079 -0.524267 0
M  V30 10174 H 956.829 1.56213 -0.425336 0
M  V30 10175 H 958.821 3.55513 1.93371 0
M  V30 10176 H 957.391 2.49391 1.88475 0
M  V30 10177 H 956.611 3.93961 -0.137293 0
M  V30 10178 H 957.899 5.07969 0.290696 0
M  V30 10179 H 957.297 4.5063 3.41978 0
M  V30 10180 H 955.854 5.41547 3.62725 0
M  V30 10181 N 959.287 0.325282 1.54207 0
M  V30 10182 C 960.512 -0.281418 2.05482 0
M  V30 10183 C 960.937 -1.44869 1.19977 0
M  V30 10184 O 960.295 -1.80088 0.209275 0
M  V30 10185 C 960.343 -0.692029 3.53897 0
M  V30 10186 O 959.447 -1.7942 3.71325 0
M  V30 10187 H 958.788 -0.0504872 0.662078 0
M  V30 10188 H 961.318 0.474191 1.99029 0
M  V30 10189 H 961.328 -0.974219 3.96198 0
M  V30 10190 H 960.003 0.161709 4.15586 0
M  V30 10191 H 958.58 -1.51069 3.40929 0
M  V30 10192 N 960.765 -1.57509 0.0534917 0
M  V30 10193 C 961.695 -2.14698 -0.917999 0
M  V30 10194 C 962.676 -1.06924 -1.32292 0
M  V30 10195 O 963.861 -1.34875 -1.39723 0
M  V30 10196 C 960.991 -2.69383 -2.19203 0
M  V30 10197 C 959.945 -3.82161 -1.9271 0
M  V30 10198 C 959.271 -4.23373 -3.26587 0
M  V30 10199 C 960.571 -5.07199 -1.24686 0
M  V30 10200 H 962.265 -2.96125 -0.44165 0
M  V30 10201 H 959.811 -1.42446 -0.210993 0
M  V30 10202 H 961.764 -3.08031 -2.87567 0
M  V30 10203 H 960.488 -1.85151 -2.69048 0
M  V30 10204 H 959.147 -3.43989 -1.26757 0
M  V30 10205 H 958.795 -3.36089 -3.74237 0
M  V30 10206 H 958.495 -4.99385 -3.09658 0
M  V30 10207 H 960.019 -4.64623 -3.96178 0
M  V30 10208 H 961.433 -5.43279 -1.83088 0
M  V30 10209 H 959.83 -5.88369 -1.18076 0
M  V30 10210 H 960.9 -4.84386 -0.223227 0
M  V30 10211 N 962.243 0.219913 -1.56058 0
M  V30 10212 C 963.471 0.960915 -1.83232 0
M  V30 10213 C 963.886 1.77878 -0.632828 0
M  V30 10214 O 963.243 1.78093 0.398624 0
M  V30 10215 C 963.294 1.87716 -3.08942 0
M  V30 10216 O 963.015 1.09235 -4.24263 0
M  V30 10217 C 964.516 2.73192 -3.49115 0
M  V30 10218 H 961.736 0.281546 -0.609075 0
M  V30 10219 H 964.28 0.234648 -2.03149 0
M  V30 10220 H 962.435 2.55736 -2.90995 0
M  V30 10221 H 962.849 1.71446 -4.95688 0
M  V30 10222 H 964.323 3.33181 -4.40107 0
M  V30 10223 H 964.8 3.45668 -2.70943 0
M  V30 10224 H 965.406 2.10583 -3.69506 0
M  V30 10225 N 963.721 1.49897 0.486681 0
M  V30 10226 C 964.97 1.59349 1.23656 0
M  V30 10227 C 965.283 0.292024 1.93408 0
M  V30 10228 O 966.489 0.265258 2.70201 0
M  V30 10229 C 964.945 2.81215 2.24602 0
M  V30 10230 C 964.553 4.18177 1.60725 0
M  V30 10231 C 966.297 3.00004 3.00329 0
M  V30 10232 C 964.204 5.31247 2.59866 0
M  V30 10233 H 963.134 0.593363 0.465227 0
M  V30 10234 H 965.785 1.76306 0.508769 0
M  V30 10235 H 964.167 2.57783 3.00606 0
M  V30 10236 H 965.341 4.51802 0.90616 0
M  V30 10237 H 963.656 4.04864 0.973362 0
M  V30 10238 H 966.253 3.81649 3.74497 0
M  V30 10239 H 966.596 2.1112 3.58795 0
M  V30 10240 H 967.129 3.23544 2.3144 0
M  V30 10241 H 963.868 6.22236 2.06161 0
M  V30 10242 H 963.388 5.02059 3.28172 0
M  V30 10243 H 965.067 5.61177 3.22009 0
M  V30 10244 N 965.199 -0.738761 1.39212 0
M  V30 10245 C 966.61 -1.31684 1.32348 0
M  V30 10246 C 966.961 -1.96195 -0.0139041 0
M  V30 10247 O 966.086 -1.96056 -0.916025 0
M  V30 10248 C 966.681 -2.39444 2.39691 0
M  V30 10249 C 965.24 -2.92935 2.36359 0
M  V30 10250 C 964.387 -1.66465 2.21776 0
M  V30 10251 H 967.338 -0.536543 1.49355 0
M  V30 10252 H 967.359 -3.19744 2.06262 0
M  V30 10253 H 966.871 -1.92463 3.37016 0
M  V30 10254 H 964.972 -3.44207 1.42662 0
M  V30 10255 H 965.085 -3.46306 3.31073 0
M  V30 10256 H 963.449 -1.90657 1.68884 0
M  V30 10257 H 964.232 -1.21541 3.21065 0
M  V30 10258 N 966.677 -1.24326 -0.968545 0
M  V30 10259 C 967.625 -1.03256 -2.08425 0
M  V30 10260 C 968.619 0.0322356 -1.69369 0
M  V30 10261 O 969.825 -0.122251 -1.79584 0
M  V30 10262 H 966.2 -0.31688 -0.681976 0
M  V30 10263 H 968.171 -1.97873 -2.23358 0
M  V30 10264 C 966.92 -0.653144 -3.4151 0
M  V30 10265 H 966.243 -1.46424 -3.72021 0
M  V30 10266 H 967.683 -0.545316 -4.20479 0
M  V30 10267 C 966.142 0.639674 -3.30771 0
M  V30 10268 O 966.672 1.68563 -3.64622 0
M  V30 10269 N 964.878 0.620074 -2.83907 0
M  V30 10270 H 964.425 -0.231449 -2.56558 0
M  V30 10271 H 964.383 1.48528 -2.77104 0
M  V30 10272 N 968.156 1.1691 -1.05688 0
M  V30 10273 C 969.396 1.88972 -0.779044 0
M  V30 10274 C 969.76 1.7949 0.681708 0
M  V30 10275 O 970.961 2.46418 1.07386 0
M  V30 10276 C 969.232 3.34737 -1.25242 0
M  V30 10277 S 970.791 4.24718 -1.10272 0
M  V30 10278 H 967.609 0.652349 -0.282776 0
M  V30 10279 H 970.211 1.41162 -1.35254 0
M  V30 10280 H 968.915 3.39175 -2.3106 0
M  V30 10281 H 968.446 3.87593 -0.673417 0
M  V30 10282 H 970.461 4.96191 -0.0299004 0
M  V30 10283 N 969.634 0.838594 1.33437 0
M  V30 10284 C 970.883 0.430484 1.97053 0
M  V30 10285 C 971.196 -1.01556 1.6717 0
M  V30 10286 O 972.402 -1.52834 2.24397 0
M  V30 10287 C 970.858 0.718828 3.52648 0
M  V30 10288 C 970.466 2.17953 3.91408 0
M  V30 10289 C 972.21 0.377654 4.22817 0
M  V30 10290 C 970.117 2.41194 5.39981 0
M  V30 10291 H 969.047 0.157239 0.737422 0
M  V30 10292 H 971.698 1.02714 1.5206 0
M  V30 10293 H 970.08 0.0518042 3.95966 0
M  V30 10294 H 971.254 2.88701 3.59149 0
M  V30 10295 H 969.569 2.48366 3.34221 0
M  V30 10296 H 972.166 0.528926 5.32077 0
M  V30 10297 H 972.509 -0.679338 4.1072 0
M  V30 10298 H 973.042 0.999899 3.85028 0
M  V30 10299 H 969.781 3.45457 5.57081 0
M  V30 10300 H 969.301 1.75007 5.73701 0
M  V30 10301 H 970.98 2.24334 6.06863 0
M  V30 10302 N 971.112 -1.45937 0.595003 0
M  V30 10303 C 972.337 -2.07207 0.0894416 0
M  V30 10304 C 972.762 -1.43884 -1.21157 0
M  V30 10305 O 972.12 -0.526998 -1.73472 0
M  V30 10306 C 972.168 -3.60565 -0.0499828 0
M  V30 10307 O 971.272 -3.97364 -1.10342 0
M  V30 10308 H 970.613 -0.660471 0.0683627 0
M  V30 10309 H 973.143 -1.87386 0.82144 0
M  V30 10310 H 973.153 -4.0722 -0.252234 0
M  V30 10311 H 971.828 -4.06044 0.90006 0
M  V30 10312 H 970.405 -3.62401 -0.878645 0
M  V30 10313 N 972.59 -0.333456 -1.54032 0
M  V30 10314 C 973.82 0.267425 -2.04862 0
M  V30 10315 C 974.228 1.45559 -1.20869 0
M  V30 10316 O 973.571 1.82197 -0.234478 0
M  V30 10317 C 973.633 0.755759 -3.51466 0
M  V30 10318 C 973.297 -0.311409 -4.55938 0
M  V30 10319 C 974.294 -1.15078 -5.07004 0
M  V30 10320 C 971.979 -0.462439 -5.00167 0
M  V30 10321 C 973.973 -2.12682 -6.0087 0
M  V30 10322 C 971.66 -1.44188 -5.93846 0
M  V30 10323 C 972.658 -2.27253 -6.44085 0
M  V30 10324 O 972.346 -3.23532 -7.35923 0
M  V30 10325 H 972.078 0.0572596 -0.673571 0
M  V30 10326 H 974.632 -0.480646 -1.99697 0
M  V30 10327 H 972.862 1.55491 -3.54062 0
M  V30 10328 H 974.551 1.27607 -3.8532 0
M  V30 10329 H 975.317 -1.04513 -4.73605 0
M  V30 10330 H 971.196 0.17424 -4.60671 0
M  V30 10331 H 974.74 -2.77555 -6.40007 0
M  V30 10332 H 970.637 -1.54813 -6.2666 0
M  V30 10333 H 971.405 -3.18886 -7.53826 0
M  V30 10334 N 974.068 1.57479 -0.061844 0
M  V30 10335 C 975.345 1.84484 0.649993 0
M  V30 10336 C 975.725 0.952366 1.88396 0
M  V30 10337 O 975.073 0.0161035 2.28494 0
M  V30 10338 C 975.283 3.34452 0.997133 0
M  V30 10339 C 976.631 4.01724 1.37488 0
M  V30 10340 O 977.655 3.3914 1.08916 0
M  V30 10341 O 976.514 5.12091 1.90854 0
M  V30 10342 H 973.608 0.761798 0.321858 0
M  V30 10343 H 976.154 1.6945 -0.0920192 0
M  V30 10344 H 974.926 3.91115 0.120301 0
M  V30 10345 H 974.549 3.54713 1.79624 0
M  V30 10346 N 975.546 -0.211634 1.56173 0
M  V30 10347 C 976.957 -0.777776 1.69728 0
M  V30 10348 C 977.308 -1.84566 0.66558 0
M  V30 10349 O 976.433 -2.15639 -0.181338 0
M  V30 10350 C 977.028 -1.41757 3.07718 0
M  V30 10351 C 975.587 -1.93098 3.23094 0
M  V30 10352 C 974.734 -0.794785 2.65666 0
M  V30 10353 H 977.685 0.0131839 1.58695 0
M  V30 10354 H 977.706 -2.28662 3.04128 0
M  V30 10355 H 977.218 -0.640114 3.82785 0
M  V30 10356 H 975.319 -2.73615 2.52914 0
M  V30 10357 H 975.432 -2.10414 4.30422 0
M  V30 10358 H 973.796 -1.20473 2.24407 0
M  V30 10359 H 974.579 -0.0298408 3.43287 0
M  V30 10360 N 977.024 -1.50153 -0.478725 0
M  V30 10361 C 977.987 -1.67916 -1.56003 0
M  V30 10362 C 978.987 -0.550111 -1.51097 0
M  V30 10363 O 980.177 -0.817001 -1.53853 0
M  V30 10364 C 977.309 -1.6973 -2.95643 0
M  V30 10365 H 978.502 -2.6438 -1.41573 0
M  V30 10366 H 976.055 -1.39519 -0.704565 0
M  V30 10367 H 976.79 -0.749306 -3.15525 0
M  V30 10368 H 976.575 -2.51745 -3.00611 0
M  V30 10369 H 978.065 -1.85453 -3.74162 0
M  V30 10370 N 978.502 0.731368 -1.39602 0
M  V30 10371 C 979.732 1.51839 -1.40102 0
M  V30 10372 C 980.14 1.89199 0.00526634 0
M  V30 10373 O 979.483 1.54877 0.987874 0
M  V30 10374 C 979.545 2.83292 -2.21328 0
M  V30 10375 C 979.209 2.68345 -3.69919 0
M  V30 10376 C 980.206 2.36651 -4.62917 0
M  V30 10377 C 977.891 2.85102 -4.13548 0
M  V30 10378 C 979.885 2.21901 -5.97527 0
M  V30 10379 C 977.572 2.69971 -5.48233 0
M  V30 10380 C 978.57 2.38416 -6.40037 0
M  V30 10381 O 978.258 2.23383 -7.72241 0
M  V30 10382 H 977.99 0.475695 -0.480302 0
M  V30 10383 H 980.544 0.911096 -1.84087 0
M  V30 10384 H 978.774 3.46294 -1.72096 0
M  V30 10385 H 980.463 3.44928 -2.13961 0
M  V30 10386 H 981.229 2.23352 -4.3051 0
M  V30 10387 H 977.108 3.08655 -3.42423 0
M  V30 10388 H 980.652 1.97193 -6.69149 0
M  V30 10389 H 976.549 2.82849 -5.8023 0
M  V30 10390 H 977.317 2.38425 -7.83004 0
M  V30 10391 N 979.98 1.24838 0.961938 0
M  V30 10392 C 980.943 1.04674 2.03902 0
M  V30 10393 C 981.943 0.00204674 1.608 0
M  V30 10394 O 983.133 0.243555 1.72489 0
M  V30 10395 C 980.265 0.587736 3.35795 0
M  V30 10396 H 981.458 2.00278 2.23223 0
M  V30 10397 H 979.011 1.07142 1.138 0
M  V30 10398 H 979.746 -0.371244 3.22168 0
M  V30 10399 H 979.531 1.34182 3.68426 0
M  V30 10400 H 981.021 0.467867 4.14971 0
M  V30 10401 N 981.458 -1.16348 1.06306 0
M  V30 10402 C 982.688 -1.90505 0.799453 0
M  V30 10403 C 983.096 -1.77686 -0.649955 0
M  V30 10404 O 982.439 -1.11921 -1.45669 0
M  V30 10405 C 982.501 -3.41775 1.11492 0
M  V30 10406 C 982.165 -3.7838 2.56277 0
M  V30 10407 C 983.162 -3.80288 3.54509 0
M  V30 10408 C 980.847 -4.09007 2.9158 0
M  V30 10409 C 982.841 -4.12312 4.86084 0
M  V30 10410 C 980.528 -4.40697 4.23354 0
M  V30 10411 C 981.526 -4.4233 5.20416 0
M  V30 10412 O 981.214 -4.73267 6.49826 0
M  V30 10413 H 980.946 -0.61094 0.289359 0
M  V30 10414 H 983.5 -1.48409 1.41999 0
M  V30 10415 H 981.73 -3.84219 0.437306 0
M  V30 10416 H 983.419 -3.97207 0.835533 0
M  V30 10417 H 984.185 -3.56738 3.28577 0
M  V30 10418 H 980.064 -4.06901 2.16686 0
M  V30 10419 H 983.608 -4.13501 5.61838 0
M  V30 10420 H 979.505 -4.63713 4.49044 0
M  V30 10421 H 980.273 -4.91078 6.54817 0
M  V30 10422 N 982.937 -0.845659 -1.3299 0
M  V30 10423 C 983.847 -0.2864 -2.32845 0
M  V30 10424 C 984.863 0.591105 -1.63652 0
M  V30 10425 O 986.039 0.493615 -1.95257 0
M  V30 10426 C 983.104 0.523636 -3.42723 0
M  V30 10427 C 982.165 -0.378945 -4.27624 0
M  V30 10428 C 981.398 0.392526 -5.32255 0
M  V30 10429 O 981.621 1.6235 -5.46808 0
M  V30 10430 O 980.555 -0.237 -6.01433 0
M  V30 10431 H 984.381 -1.11346 -2.82552 0
M  V30 10432 H 981.966 -0.608356 -1.36453 0
M  V30 10433 H 983.848 0.983718 -4.09757 0
M  V30 10434 H 982.523 1.32764 -2.95221 0
M  V30 10435 H 981.43 -0.887012 -3.63432 0
M  V30 10436 H 982.763 -1.1479 -4.78627 0
M  V30 10437 N 984.415 1.45619 -0.602734 0
M  V30 10438 C 985.661 2.02572 -0.0961759 0
M  V30 10439 C 985.994 1.47076 1.26815 0
M  V30 10440 O 985.269 0.643566 1.83544 0
M  V30 10441 C 985.552 3.60062 -0.0520032 0
M  V30 10442 C 985.405 4.25901 -1.44665 0
M  V30 10443 C 986.724 4.35446 0.638342 0
M  V30 10444 H 983.843 0.736099 -0.0364238 0
M  V30 10445 H 986.485 1.7353 -0.773776 0
M  V30 10446 H 984.635 3.84936 0.525032 0
M  V30 10447 H 986.307 4.12228 -2.0704 0
M  V30 10448 H 984.55 3.84489 -2.00874 0
M  V30 10449 H 985.221 5.34779 -1.36803 0
M  V30 10450 H 987.697 4.15837 0.147926 0
M  V30 10451 H 986.573 5.45176 0.63834 0
M  V30 10452 H 986.834 4.07962 1.70351 0
M  V30 10453 N 985.893 0.34162 1.53853 0
M  V30 10454 C 986.856 -0.503541 2.236 0
M  V30 10455 C 987.856 -1.02912 1.23554 0
M  V30 10456 O 989.046 -0.918678 1.48007 0
M  V30 10457 C 986.178 -1.70126 2.95415 0
M  V30 10458 H 987.371 0.106437 2.99711 0
M  V30 10459 H 984.924 0.0929408 1.56023 0
M  V30 10460 H 985.659 -2.34999 2.23486 0
M  V30 10461 H 985.444 -1.33161 3.68796 0
M  V30 10462 H 986.934 -2.30077 3.48503 0
M  V30 10463 N 987.371 -1.57444 0.0701946 0
M  V30 10464 C 988.617 -1.93716 -0.600178 0
M  V30 10465 C 988.95 -0.950329 -1.69359 0
M  V30 10466 O 988.225 0.0207123 -1.94489 0
M  V30 10467 C 988.508 -3.40266 -1.17861 0
M  V30 10468 C 988.361 -4.49706 -0.0919575 0
M  V30 10469 C 989.68 -3.87599 -2.08459 0
M  V30 10470 H 986.799 -0.704421 -0.216704 0
M  V30 10471 H 989.441 -1.89514 0.135838 0
M  V30 10472 H 987.591 -3.43977 -1.80587 0
M  V30 10473 H 989.263 -4.58116 0.541031 0
M  V30 10474 H 987.506 -4.29937 0.577639 0
M  V30 10475 H 988.177 -5.49381 -0.537048 0
M  V30 10476 H 990.653 -3.85883 -1.5567 0
M  V30 10477 H 989.529 -4.90755 -2.45867 0
M  V30 10478 H 989.79 -3.25448 -2.99226 0
M  V30 10479 N 988.849 0.203349 -1.56283 0
M  V30 10480 C 990.098 0.92315 -1.79334 0
M  V30 10481 C 990.411 1.84765 -0.641977 0
M  V30 10482 O 991.617 2.60745 -0.756584 0
M  V30 10483 C 990.073 1.69184 -3.17655 0
M  V30 10484 C 989.681 0.812581 -4.40569 0
M  V30 10485 C 991.425 2.40177 -3.50022 0
M  V30 10486 C 989.332 1.57967 -5.69913 0
M  V30 10487 H 988.262 0.348442 -0.668659 0
M  V30 10488 H 990.913 0.1766 -1.82648 0
M  V30 10489 H 989.295 2.48197 -3.08568 0
M  V30 10490 H 990.469 0.0616956 -4.60759 0
M  V30 10491 H 988.784 0.21389 -4.1585 0
M  V30 10492 H 991.381 2.98103 -4.4389 0
M  V30 10493 H 991.724 3.13961 -2.73376 0
M  V30 10494 H 992.257 1.68138 -3.6052 0
M  V30 10495 H 988.996 0.884767 -6.49501 0
M  V30 10496 H 988.516 2.3047 -5.53754 0
M  V30 10497 H 990.195 2.13562 -6.10737 0
M  V30 10498 N 990.327 1.50405 0.470755 0
M  V30 10499 C 991.26 1.63933 1.58749 0
M  V30 10500 C 992.238 0.487444 1.55122 0
M  V30 10501 O 993.422 0.706992 1.74739 0
M  V30 10502 C 990.549 1.62222 2.97324 0
M  V30 10503 C 989.595 2.82975 3.19104 0
M  V30 10504 S 990.428 4.44272 2.98969 0
M  V30 10505 C 991.584 4.45254 4.39886 0
M  V30 10506 H 991.817 2.58396 1.47034 0
M  V30 10507 H 989.35 1.39672 0.658115 0
M  V30 10508 H 991.308 1.6192 3.77217 0
M  V30 10509 H 989.969 0.689944 3.06429 0
M  V30 10510 H 989.162 2.78083 4.2034 0
M  V30 10511 H 988.764 2.80846 2.46984 0
M  V30 10512 H 991.056 4.18837 5.32524 0
M  V30 10513 H 991.999 5.4687 4.49821 0
M  V30 10514 H 992.407 3.74958 4.2198 0
M  V30 10515 N 991.805 -0.723954 1.39988 0
M  V30 10516 C 992.755 -1.82943 1.36073 0
M  V30 10517 C 993.739 -1.59105 0.239682 0
M  V30 10518 O 994.931 -1.7042 0.478116 0
M  V30 10519 C 992.06 -3.20988 1.21745 0
M  V30 10520 C 991.146 -3.50618 2.38596 0
M  V30 10521 N 991.537 -3.51115 3.64077 0
M  V30 10522 C 989.835 -3.81035 2.31794 0
M  V30 10523 C 990.536 -3.78852 4.41413 0
M  V30 10524 N 989.512 -3.97182 3.71143 0
M  V30 10525 H 993.314 -1.81649 2.31043 0
M  V30 10526 H 990.828 -0.922703 1.33641 0
M  V30 10527 H 992.825 -4.00139 1.17022 0
M  V30 10528 H 991.485 -3.23513 0.277344 0
M  V30 10529 H 992.496 -3.32163 3.97351 0
M  V30 10530 H 989.173 -3.911 1.46105 0
M  V30 10531 H 990.563 -3.85612 5.5023 0
M  V30 10532 N 993.283 -1.25346 -0.955304 0
M  V30 10533 C 994.56 -1.00829 -1.67609 0
M  V30 10534 C 994.94 0.465675 -2.059 0
M  V30 10535 O 994.288 1.44287 -1.77182 0
M  V30 10536 C 994.498 -1.94337 -2.89886 0
M  V30 10537 C 995.846 -2.22142 -3.61854 0
M  V30 10538 O 996.87 -1.9209 -2.99967 0
M  V30 10539 O 995.729 -2.73239 -4.73289 0
M  V30 10540 H 992.823 -0.382314 -0.733325 0
M  V30 10541 H 995.369 -1.36498 -1.00829 0
M  V30 10542 H 994.141 -2.93867 -2.58376 0
M  V30 10543 H 993.764 -1.59062 -3.64397 0
M  V30 10544 N 994.761 1.15782 -1.06922 0
M  V30 10545 C 996.009 1.86097 -0.788192 0
M  V30 10546 C 996.33 1.82475 0.687606 0
M  V30 10547 O 995.6 1.26266 1.49778 0
M  V30 10548 H 994.18 0.689008 -0.288577 0
M  V30 10549 H 996.842 1.40377 -1.35205 0
M  V30 10550 H 995.938 2.91358 -1.1188 0
M  V30 10551 N 996.239 0.8527 1.3254 0
M  V30 10552 C 997.169 0.311234 2.31416 0
M  V30 10553 C 998.15 -0.588557 1.59593 0
M  V30 10554 O 999.335 -0.509211 1.87405 0
M  V30 10555 C 996.465 -0.502892 3.4364 0
M  V30 10556 C 995.419 0.302296 4.26931 0
M  V30 10557 C 994.745 -0.636445 5.30899 0
M  V30 10558 C 996.045 1.52697 4.99481 0
M  V30 10559 H 997.739 1.13742 2.76953 0
M  V30 10560 H 995.285 0.548389 1.33149 0
M  V30 10561 H 997.238 -0.892092 4.11849 0
M  V30 10562 H 995.962 -1.36242 2.96826 0
M  V30 10563 H 994.621 0.673226 3.60365 0
M  V30 10564 H 994.269 -1.49277 4.80339 0
M  V30 10565 H 993.969 -0.101716 5.87512 0
M  V30 10566 H 995.493 -1.02286 6.01972 0
M  V30 10567 H 996.907 1.21017 5.60382 0
M  V30 10568 H 995.304 1.9995 5.65809 0
M  V30 10569 H 996.374 2.28929 4.27457 0
M  V30 10570 N 997.718 -1.45297 0.610449 0
M  V30 10571 C 998.628 -2.34349 -0.108475 0
M  V30 10572 C 999.644 -1.51409 -0.857397 0
M  V30 10573 O 1000.82 -1.84202 -0.814337 0
M  V30 10574 C 997.885 -3.29072 -1.09144 0
M  V30 10575 C 996.946 -4.27918 -0.344165 0
M  V30 10576 C 996.179 -5.18116 -1.28031 0
M  V30 10577 O 996.402 -5.11802 -2.51824 0
M  V30 10578 O 995.336 -5.96879 -0.775821 0
M  V30 10579 H 999.162 -2.97232 0.623421 0
M  V30 10580 H 996.747 -1.44728 0.3707 0
M  V30 10581 H 998.629 -3.87433 -1.65751 0
M  V30 10582 H 997.304 -2.68749 -1.80431 0
M  V30 10583 H 996.211 -3.73164 0.264437 0
M  V30 10584 H 997.544 -4.91104 0.328275 0
M  V30 10585 N 999.196 -0.349774 -1.5367 0
M  V30 10586 C 1000.61 0.00191293 -1.596 0
M  V30 10587 C 1000.81 1.48175 -1.36552 0
M  V30 10588 O 999.868 2.24129 -1.16285 0
M  V30 10589 C 1001.18 -0.439848 -2.97466 0
M  V30 10590 C 1002.73 -0.392721 -3.10526 0
M  V30 10591 C 1003.2 -0.810047 -4.5078 0
M  V30 10592 N 1004.69 -0.764478 -4.56848 0
M  V30 10593 C 1005.43 -1.05927 -5.63531 0
M  V30 10594 N 1004.93 -1.42253 -6.78038 0
M  V30 10595 N 1006.72 -0.983098 -5.53436 0
M  V30 10596 H 998.87 -1.31364 -1.66905 0
M  V30 10597 H 1001.13 -0.535908 -0.781989 0
M  V30 10598 H 1000.84 -1.47189 -3.19419 0
M  V30 10599 H 1000.71 0.181735 -3.76762 0
M  V30 10600 H 1003.1 0.630161 -2.88293 0
M  V30 10601 H 1003.18 -1.04959 -2.33275 0
M  V30 10602 H 1002.82 -1.83097 -4.73749 0
M  V30 10603 H 1002.75 -0.130591 -5.26438 0
M  V30 10604 H 1005.25 -0.496637 -3.74622 0
M  V30 10605 H 1005.56 -1.63215 -7.55368 0
M  V30 10606 H 1003.9 -1.46104 -6.79469 0
M  V30 10607 H 1007.09 -0.698601 -4.62858 0
M  V30 10608 H 1007.27 -1.21618 -6.36485 0
M  V30 10609 N 1000.67 1.57404 -0.0785433 0
M  V30 10610 C 1001.61 2.08724 0.922464 0
M  V30 10611 C 1002.58 0.993912 1.28686 0
M  V30 10612 O 1003.77 1.26776 1.39499 0
M  V30 10613 C 1000.9 2.55051 2.2286 0
M  V30 10614 C 999.942 3.75884 2.01528 0
M  V30 10615 S 1000.77 5.2026 1.26844 0
M  V30 10616 C 1001.93 5.69924 2.58723 0
M  V30 10617 H 1002.16 2.93304 0.485807 0
M  V30 10618 H 999.697 1.53814 0.134377 0
M  V30 10619 H 1001.65 2.82402 2.97926 0
M  V30 10620 H 1000.32 1.70727 2.63649 0
M  V30 10621 H 999.509 4.06311 2.98207 0
M  V30 10622 H 999.111 3.48941 1.34596 0
M  V30 10623 H 1001.4 5.7718 3.5478 0
M  V30 10624 H 1002.35 6.68704 2.32897 0
M  V30 10625 H 1002.75 4.97773 2.66237 0
M  V30 10626 N 1002.15 -0.195058 1.56388 0
M  V30 10627 C 1003.38 -0.930291 1.8447 0
M  V30 10628 C 1003.79 -1.77356 0.658901 0
M  V30 10629 O 1003.13 -1.79691 -0.381664 0
M  V30 10630 C 1003.19 -1.87626 3.06654 0
M  V30 10631 C 1002.86 -1.21494 4.40555 0
M  V30 10632 C 1003.86 -0.591847 5.1652 0
M  V30 10633 C 1001.54 -1.21878 4.8729 0
M  V30 10634 C 1003.53 0.0185743 6.37397 0
M  V30 10635 C 1001.22 -0.604524 6.08103 0
M  V30 10636 C 1002.22 0.0130731 6.82999 0
M  V30 10637 O 1001.91 0.617703 8.01523 0
M  V30 10638 H 1001.64 -0.276933 0.616672 0
M  V30 10639 H 1004.19 -0.207277 2.04351 0
M  V30 10640 H 1002.42 -2.63897 2.82658 0
M  V30 10641 H 1004.11 -2.47929 3.21382 0
M  V30 10642 H 1004.88 -0.581018 4.81507 0
M  V30 10643 H 1000.76 -1.68888 4.2895 0
M  V30 10644 H 1004.3 0.50124 6.95797 0
M  V30 10645 H 1000.2 -0.612855 6.42584 0
M  V30 10646 H 1000.97 0.514612 8.16881 0
M  V30 10647 N 1003.63 -1.50653 -0.462772 0
M  V30 10648 C 1004.88 -1.61737 -1.21184 0
M  V30 10649 C 1005.2 -0.32369 -1.92295 0
M  V30 10650 O 1004.47 0.659269 -1.84473 0
M  V30 10651 H 1003.05 -0.596015 -0.450306 0
M  V30 10652 H 1005.71 -1.87469 -0.533051 0
M  V30 10653 H 1004.81 -2.43262 -1.95525 0
M  V30 10654 N 1005.11 0.71652 -1.4037 0
M  V30 10655 C 1006.02 1.86074 -1.42876 0
M  V30 10656 C 1007.03 1.71005 -0.321475 0
M  V30 10657 O 1008.21 1.93286 -0.565909 0
M  V30 10658 C 1005.28 3.21862 -1.28863 0
M  V30 10659 C 1004.34 3.49193 -2.49726 0
M  V30 10660 C 1003.57 4.78502 -2.36372 0
M  V30 10661 O 1003.79 5.53529 -1.37703 0
M  V30 10662 O 1002.73 5.06147 -3.25728 0
M  V30 10663 H 1006.55 1.86916 -2.39366 0
M  V30 10664 H 1004.14 0.866818 -1.21683 0
M  V30 10665 H 1006.02 4.02972 -1.23253 0
M  V30 10666 H 1004.69 3.2175 -0.354783 0
M  V30 10667 H 1003.6 2.68095 -2.60913 0
M  V30 10668 H 1004.93 3.54101 -3.41868 0
M  V30 10669 N 1006.59 1.25851 0.948643 0
M  V30 10670 C 1007.53 1.06759 2.04625 0
M  V30 10671 C 1008.5 -0.0251144 1.66081 0
M  V30 10672 O 1009.69 0.133221 1.90334 0
M  V30 10673 C 1006.83 0.698724 3.37952 0
M  V30 10674 C 1005.94 1.8669 3.89578 0
M  V30 10675 C 1005.08 1.44184 5.11258 0
M  V30 10676 C 1004.12 2.57878 5.55126 0
M  V30 10677 N 1003.25 2.16106 6.68014 0
M  V30 10678 H 1008.09 2.00691 2.20289 0
M  V30 10679 H 1005.63 0.999327 1.07944 0
M  V30 10680 H 1007.59 0.465788 4.14592 0
M  V30 10681 H 1006.22 -0.203618 3.22157 0
M  V30 10682 H 1005.27 2.21298 3.09405 0
M  V30 10683 H 1006.58 2.72051 4.18079 0
M  V30 10684 H 1005.74 1.16891 5.95333 0
M  V30 10685 H 1004.47 0.559035 4.84485 0
M  V30 10686 H 1003.48 2.85909 4.69612 0
M  V30 10687 H 1004.7 3.46747 5.83904 0
M  V30 10688 H 1002.65 1.3025 6.42939 0
M  V30 10689 H 1002.57 2.95012 6.96063 0
M  V30 10690 H 1003.84 1.92005 7.55483 0
M  V30 10691 N 1008.06 -1.15214 1.07534 0
M  V30 10692 C 1009 -2.19634 0.655261 0
M  V30 10693 C 1010.01 -1.60139 -0.293165 0
M  V30 10694 O 1011.2 -1.78311 -0.0821957 0
M  V30 10695 C 1008.3 -3.38851 -0.0578281 0
M  V30 10696 C 1007.47 -4.27888 0.90725 0
M  V30 10697 C 1006.53 -5.25692 0.231115 0
M  V30 10698 O 1005.56 -5.62469 0.872746 0
M  V30 10699 N 1006.76 -5.71424 -1.0225 0
M  V30 10700 H 1009.52 -2.56292 1.55353 0
M  V30 10701 H 1007.08 -1.30347 0.960271 0
M  V30 10702 H 1009.08 -4.01334 -0.520874 0
M  V30 10703 H 1007.65 -3.00593 -0.858071 0
M  V30 10704 H 1006.87 -3.62475 1.54937 0
M  V30 10705 H 1008.15 -4.84246 1.56151 0
M  V30 10706 H 1007.55 -5.43659 -1.56369 0
M  V30 10707 H 1006.11 -6.35938 -1.42919 0
M  V30 10708 N 1009.54 -0.859717 -1.32086 0
M  V30 10709 C 1010.45 -0.31108 -2.32528 0
M  V30 10710 C 1011.47 0.573714 -1.6427 0
M  V30 10711 O 1012.64 0.472878 -1.9577 0
M  V30 10712 C 1009.71 0.487256 -3.43259 0
M  V30 10713 C 1008.77 -0.424279 -4.27198 0
M  V30 10714 C 1008 0.336051 -5.32641 0
M  V30 10715 O 1008.23 1.56541 -5.48499 0
M  V30 10716 O 1007.16 -0.300777 -6.01148 0
M  V30 10717 H 1010.99 -1.14336 -2.81355 0
M  V30 10718 H 1008.57 -0.622794 -1.358 0
M  V30 10719 H 1010.45 0.940203 -4.10777 0
M  V30 10720 H 1009.13 1.29626 -2.96612 0
M  V30 10721 H 1008.04 -0.925509 -3.62471 0
M  V30 10722 H 1009.37 -1.1986 -4.77383 0
M  V30 10723 N 1011.02 1.44971 -0.618145 0
M  V30 10724 C 1011.97 2.32354 0.106846 0
M  V30 10725 C 1012.96 1.4659 0.848984 0
M  V30 10726 O 1014.17 1.63012 0.763354 0
M  V30 10727 H 1010.54 0.750108 0.0533109 0
M  V30 10728 H 1012.51 2.9127 -0.648426 0
M  V30 10729 C 1011.26 3.30381 1.08368 0
M  V30 10730 H 1010.59 3.96377 0.52205 0
M  V30 10731 H 1012.03 3.94231 1.56069 0
M  V30 10732 C 1010.49 2.58336 2.1625 0
M  V30 10733 O 1011.02 2.37258 3.24148 0
M  V30 10734 N 1009.22 2.18292 1.91825 0
M  V30 10735 H 1008.77 2.35635 1.04086 0
M  V30 10736 H 1008.73 1.70413 2.6421 0
M  V30 10737 N 1012.5 0.357919 1.53482 0
M  V30 10738 C 1013.74 -0.23451 2.0144 0
M  V30 10739 C 1014.08 -1.49044 1.24497 0
M  V30 10740 O 1013.35 -1.91566 0.336535 0
M  V30 10741 C 1013.64 -0.534193 3.56116 0
M  V30 10742 C 1013.49 0.734834 4.43757 0
M  V30 10743 C 1014.81 -1.33793 4.1927 0
M  V30 10744 H 1011.93 -0.0837595 0.732225 0
M  V30 10745 H 1014.57 0.481297 1.83803 0
M  V30 10746 H 1012.72 -1.144 3.71275 0
M  V30 10747 H 1014.39 1.37251 4.40409 0
M  V30 10748 H 1012.63 1.35678 4.12036 0
M  V30 10749 H 1013.3 0.48021 5.49907 0
M  V30 10750 H 1015.78 -0.822158 4.07897 0
M  V30 10751 H 1014.66 -1.51636 5.27539 0
M  V30 10752 H 1014.92 -2.34423 3.74831 0
M  V30 10753 N 1013.98 -1.5736 0.0868897 0
M  V30 10754 C 1015.21 -1.981 -0.586498 0
M  V30 10755 C 1015.61 -0.96455 -1.62767 0
M  V30 10756 O 1014.96 0.0551801 -1.83617 0
M  V30 10757 C 1015.02 -3.35193 -1.29947 0
M  V30 10758 C 1014.68 -4.55157 -0.410012 0
M  V30 10759 C 1015.68 -5.18797 0.338532 0
M  V30 10760 C 1013.37 -5.01212 -0.33047 0
M  V30 10761 C 1015.36 -6.26854 1.15468 0
M  V30 10762 C 1013.05 -6.09138 0.48934 0
M  V30 10763 C 1014.04 -6.71823 1.23057 0
M  V30 10764 O 1013.73 -7.77669 2.03683 0
M  V30 10765 H 1013.46 -0.656166 -0.16255 0
M  V30 10766 H 1016.02 -2.04773 0.160379 0
M  V30 10767 H 1014.25 -3.25179 -2.09274 0
M  V30 10768 H 1015.94 -3.60435 -1.86658 0
M  V30 10769 H 1016.7 -4.84151 0.286764 0
M  V30 10770 H 1012.58 -4.52188 -0.897058 0
M  V30 10771 H 1016.13 -6.75712 1.73374 0
M  V30 10772 H 1012.02 -6.43215 0.542618 0
M  V30 10773 H 1012.79 -7.94618 1.96277 0
M  V30 10774 N 1015.45 0.186762 -1.56489 0
M  V30 10775 C 1016.68 0.920495 -1.84961 0
M  V30 10776 C 1017.09 1.77004 -0.668297 0
M  V30 10777 O 1016.44 1.79891 0.37213 0
M  V30 10778 C 1016.5 1.85997 -3.07645 0
M  V30 10779 C 1016.16 1.19156 -4.41193 0
M  V30 10780 C 1017.16 0.564446 -5.16827 0
M  V30 10781 C 1014.84 1.19292 -4.87929 0
M  V30 10782 C 1016.84 -0.0523768 -6.37378 0
M  V30 10783 C 1014.52 0.572266 -6.08415 0
M  V30 10784 C 1015.52 -0.049294 -6.82982 0
M  V30 10785 O 1015.21 -0.660201 -8.01184 0
M  V30 10786 H 1014.94 0.273659 -0.618132 0
M  V30 10787 H 1017.5 0.196437 -2.04459 0
M  V30 10788 H 1015.73 2.62394 -2.84053 0
M  V30 10789 H 1017.42 2.46221 -3.22692 0
M  V30 10790 H 1018.18 0.555474 -4.81809 0
M  V30 10791 H 1014.06 1.66611 -4.29839 0
M  V30 10792 H 1017.6 -0.538133 -6.95521 0
M  V30 10793 H 1013.5 0.578769 -6.429 0
M  V30 10794 H 1014.27 -0.557926 -8.16596 0
M  V30 10795 N 1016.93 1.50896 0.454776 0
M  V30 10796 C 1018.16 1.66239 1.22671 0
M  V30 10797 C 1018.57 0.351876 1.85899 0
M  V30 10798 O 1017.91 -0.677848 1.70736 0
M  V30 10799 C 1017.98 2.70812 2.36434 0
M  V30 10800 C 1017.64 4.13913 1.93714 0
M  V30 10801 C 1018.64 4.99259 1.45039 0
M  V30 10802 C 1016.32 4.59921 2.01937 0
M  V30 10803 C 1018.32 6.28667 1.05151 0
M  V30 10804 C 1016 5.89329 1.6166 0
M  V30 10805 C 1017 6.73529 1.13347 0
M  V30 10806 O 1016.69 8.0052 0.736354 0
M  V30 10807 H 1016.42 0.561443 0.376508 0
M  V30 10808 H 1018.97 1.97974 0.547325 0
M  V30 10809 H 1017.2 2.34355 3.07595 0
M  V30 10810 H 1018.89 2.7521 2.98353 0
M  V30 10811 H 1019.66 4.64925 1.38095 0
M  V30 10812 H 1015.54 3.94518 2.38488 0
M  V30 10813 H 1019.08 6.94339 0.673711 0
M  V30 10814 H 1014.98 6.23182 1.68269 0
M  V30 10815 H 1015.75 8.1393 0.863759 0
M  V30 10816 N 1018.41 -0.709066 1.40748 0
M  V30 10817 C 1019.66 -1.4646 1.38681 0
M  V30 10818 C 1019.97 -1.95599 -0.0056209 0
M  V30 10819 O 1021.18 -2.71091 -0.148907 0
M  V30 10820 C 1019.63 -2.64771 2.43771 0
M  V30 10821 C 1019.24 -2.22474 3.88856 0
M  V30 10822 C 1020.99 -3.42475 2.50821 0
M  V30 10823 C 1018.89 -3.37663 4.85528 0
M  V30 10824 H 1017.82 -0.550084 0.515678 0
M  V30 10825 H 1020.47 -0.771074 1.66513 0
M  V30 10826 H 1018.86 -3.36325 2.09048 0
M  V30 10827 H 1020.03 -1.58297 4.32757 0
M  V30 10828 H 1018.35 -1.57798 3.85342 0
M  V30 10829 H 1020.94 -4.28201 3.20232 0
M  V30 10830 H 1021.29 -3.86738 1.54076 0
M  V30 10831 H 1021.82 -2.77969 2.84567 0
M  V30 10832 H 1018.56 -2.98426 5.83628 0
M  V30 10833 H 1018.08 -4.00734 4.46287 0
M  V30 10834 H 1019.76 -4.03636 5.05655 0
M  V30 10835 N 1019.89 -1.26353 -0.941956 0
M  V30 10836 C 1021.12 -1.14626 -1.72245 0
M  V30 10837 C 1021.53 0.298588 -1.86424 0
M  V30 10838 O 1020.89 1.2045 -1.37106 0
M  V30 10839 C 1020.94 -1.80933 -3.12963 0
M  V30 10840 O 1020.66 -3.19771 -2.99463 0
M  V30 10841 C 1022.16 -1.7515 -4.07231 0
M  V30 10842 H 1019.38 -0.3992 -0.539333 0
M  V30 10843 H 1021.93 -1.66958 -1.1809 0
M  V30 10844 H 1020.08 -1.32541 -3.64021 0
M  V30 10845 H 1020.5 -3.52571 -3.88322 0
M  V30 10846 H 1021.97 -2.26183 -5.03533 0
M  V30 10847 H 1022.45 -0.717855 -4.33294 0
M  V30 10848 H 1023.05 -2.2309 -3.62093 0
M  V30 10849 N 1021.37 1.14642 -1.08144 0
M  V30 10850 C 1022.6 1.89484 -0.830864 0
M  V30 10851 C 1023.01 1.78443 0.616722 0
M  V30 10852 O 1022.37 1.14191 1.42361 0
M  V30 10853 C 1022.42 3.39554 -1.24039 0
M  V30 10854 O 1022.14 3.50286 -2.63119 0
M  V30 10855 C 1023.64 4.31399 -1.02029 0
M  V30 10856 H 1020.86 0.600283 -0.299835 0
M  V30 10857 H 1023.4 1.45204 -1.44001 0
M  V30 10858 H 1021.56 3.81467 -0.675407 0
M  V30 10859 H 1021.97 4.43481 -2.80045 0
M  V30 10860 H 1023.45 5.35079 -1.35625 0
M  V30 10861 H 1023.92 4.39179 0.0428697 0
M  V30 10862 H 1024.53 3.95238 -1.57057 0
M  V30 10863 N 1022.85 0.866709 1.31628 0
M  V30 10864 C 1023.78 0.335762 2.31073 0
M  V30 10865 C 1024.76 -0.571597 1.60209 0
M  V30 10866 O 1025.94 -0.489306 1.87935 0
M  V30 10867 C 1023.07 -0.466416 3.44154 0
M  V30 10868 C 1022.03 0.347561 4.26586 0
M  V30 10869 C 1021.35 -0.5801 5.31544 0
M  V30 10870 C 1022.65 1.57986 4.97833 0
M  V30 10871 H 1024.35 1.16673 2.75731 0
M  V30 10872 H 1021.89 0.56248 1.3256 0
M  V30 10873 H 1023.84 -0.84836 4.12772 0
M  V30 10874 H 1022.57 -1.33086 2.98254 0
M  V30 10875 H 1021.23 0.71141 3.59631 0
M  V30 10876 H 1020.88 -1.44174 4.81895 0
M  V30 10877 H 1020.58 -0.0393965 5.87587 0
M  V30 10878 H 1022.1 -0.958958 6.03023 0
M  V30 10879 H 1023.51 1.26954 5.59067 0
M  V30 10880 H 1021.91 2.05939 5.63657 0
M  V30 10881 H 1022.98 2.3345 4.25005 0
M  V30 10882 N 1024.32 -1.44642 0.625825 0
M  V30 10883 C 1025.27 -2.32408 -0.0945221 0
M  V30 10884 C 1026.27 -1.47038 -0.841198 0
M  V30 10885 O 1027.47 -1.63415 -0.754698 0
M  V30 10886 H 1023.85 -0.75038 -0.0493321 0
M  V30 10887 H 1025.82 -2.90922 0.663863 0
M  V30 10888 C 1024.57 -3.30951 -1.06615 0
M  V30 10889 H 1023.89 -3.96648 -0.501021 0
M  V30 10890 H 1025.33 -3.95054 -1.53976 0
M  V30 10891 C 1023.79 -2.59479 -2.14877 0
M  V30 10892 O 1024.32 -2.38974 -3.22885 0
M  V30 10893 N 1022.52 -2.19307 -1.90665 0
M  V30 10894 H 1022.07 -2.36184 -1.02835 0
M  V30 10895 H 1022.03 -1.71811 -2.63303 0
M  V30 10896 N 1025.8 -0.366053 -1.5329 0
M  V30 10897 C 1026.71 0.488111 -2.29466 0
M  V30 10898 C 1027.73 1.09219 -1.35452 0
M  V30 10899 O 1028.9 1.10303 -1.68509 0
M  V30 10900 C 1025.97 1.61202 -3.06944 0
M  V30 10901 C 1025.03 1.03543 -4.16626 0
M  V30 10902 C 1024.26 2.10578 -4.904 0
M  V30 10903 O 1024.49 3.31697 -4.6404 0
M  V30 10904 O 1023.42 1.73609 -5.76319 0
M  V30 10905 H 1027.25 -0.131789 -3.03414 0
M  V30 10906 H 1024.83 -0.130421 -1.4883 0
M  V30 10907 H 1026.71 2.26546 -3.55324 0
M  V30 10908 H 1025.39 2.21732 -2.35832 0
M  V30 10909 H 1024.29 0.345892 -3.72498 0
M  V30 10910 H 1025.63 0.474687 -4.89906 0
M  V30 10911 N 1027.28 1.57312 -0.0952337 0
M  V30 10912 C 1028.23 2.15263 0.881167 0
M  V30 10913 C 1029.22 1.09552 1.29208 0
M  V30 10914 O 1030.43 1.27897 1.26659 0
M  V30 10915 H 1026.8 0.688611 0.302191 0
M  V30 10916 H 1028.77 2.96126 0.367694 0
M  V30 10917 C 1027.52 2.74779 2.13053 0
M  V30 10918 H 1026.85 3.55807 1.82323 0
M  V30 10919 H 1028.29 3.18895 2.79431 0
M  V30 10920 C 1026.74 1.7068 2.90465 0
M  V30 10921 O 1027.27 1.14582 3.85011 0
M  V30 10922 N 1025.48 1.41169 2.54007 0
M  V30 10923 H 1025.03 1.86977 1.77193 0
M  V30 10924 H 1024.99 0.717559 3.06102 0
M  V30 10925 N 1028.76 -0.17846 1.56586 0
M  V30 10926 C 1029.99 -0.910674 1.85446 0
M  V30 10927 C 1030.4 -1.76647 0.677675 0
M  V30 10928 O 1029.74 -1.80086 -0.362584 0
M  V30 10929 C 1029.8 -1.84363 3.08627 0
M  V30 10930 C 1029.46 -1.16814 4.41818 0
M  V30 10931 C 1030.46 -0.53703 5.17119 0
M  V30 10932 C 1028.15 -1.16703 4.88555 0
M  V30 10933 C 1030.14 0.0861778 6.37342 0
M  V30 10934 C 1027.83 -0.539992 6.0871 0
M  V30 10935 C 1028.83 0.0855135 6.82946 0
M  V30 10936 O 1028.51 0.70268 8.00823 0
M  V30 10937 H 1028.25 -0.270377 0.619574 0
M  V30 10938 H 1030.8 -0.185591 2.0456 0
M  V30 10939 H 1029.03 -2.60884 2.85441 0
M  V30 10940 H 1030.72 -2.44506 3.23993 0
M  V30 10941 H 1031.48 -0.529915 4.82096 0
M  V30 10942 H 1027.36 -1.64329 4.30717 0
M  V30 10943 H 1030.91 0.575011 6.95226 0
M  V30 10944 H 1026.8 -0.544666 6.43198 0
M  V30 10945 H 1027.57 0.601224 8.16289 0
M  V30 10946 N 1030.24 -1.51135 -0.446768 0
M  V30 10947 C 1031.19 -1.68152 -1.53977 0
M  V30 10948 C 1032.17 -0.53563 -1.51723 0
M  V30 10949 O 1033.36 -0.791134 -1.58335 0
M  V30 10950 C 1030.49 -1.80133 -2.92245 0
M  V30 10951 C 1029.58 -3.00476 -2.99291 0
M  V30 10952 N 1029.97 -4.23796 -2.76099 0
M  V30 10953 C 1028.27 -2.99536 -3.30445 0
M  V30 10954 C 1028.97 -5.04977 -2.88744 0
M  V30 10955 N 1027.94 -4.39428 -3.20006 0
M  V30 10956 H 1031.74 -2.61172 -1.34784 0
M  V30 10957 H 1029.26 -1.48653 -0.653923 0
M  V30 10958 H 1031.26 -1.90432 -3.70866 0
M  V30 10959 H 1029.92 -0.882879 -3.12467 0
M  V30 10960 H 1030.93 -4.52896 -2.51209 0
M  V30 10961 H 1027.6 -2.17286 -3.56501 0
M  V30 10962 H 1028.99 -6.13114 -2.74847 0
M  V30 10963 N 1031.71 0.701592 -1.41122 0
M  V30 10964 C 1032.65 1.8257 -1.36907 0
M  V30 10965 C 1033.62 1.6086 -0.237245 0
M  V30 10966 O 1034.81 1.83688 -0.423182 0
M  V30 10967 C 1031.94 3.19149 -1.13408 0
M  V30 10968 C 1030.98 3.59661 -2.29229 0
M  V30 10969 S 1031.81 3.65161 -3.91685 0
M  V30 10970 C 1032.97 5.04477 -3.70478 0
M  V30 10971 H 1033.2 1.85867 -2.32036 0
M  V30 10972 H 1030.74 0.869726 -1.27574 0
M  V30 10973 H 1032.69 3.97998 -1.00537 0
M  V30 10974 H 1031.36 3.13468 -0.199099 0
M  V30 10975 H 1030.55 4.58866 -2.08466 0
M  V30 10976 H 1030.15 2.88105 -2.38477 0
M  V30 10977 H 1032.44 5.91803 -3.29811 0
M  V30 10978 H 1033.39 5.3028 -4.69264 0
M  V30 10979 H 1033.79 4.75731 -3.03876 0
M  V30 10980 N 1033.19 1.2685 0.935242 0
M  V30 10981 C 1034.6 1.11569 1.49697 0
M  V30 10982 C 1034.95 -0.301952 1.93863 0
M  V30 10983 O 1034.08 -1.19408 1.80473 0
M  V30 10984 C 1034.67 2.01918 2.72056 0
M  V30 10985 C 1033.23 1.90765 3.24477 0
M  V30 10986 C 1032.38 1.94918 1.97237 0
M  V30 10987 H 1035.33 1.39853 0.750116 0
M  V30 10988 H 1035.35 1.57056 3.46574 0
M  V30 10989 H 1034.86 3.05088 2.39881 0
M  V30 10990 H 1032.96 0.905521 3.61429 0
M  V30 10991 H 1033.08 2.76611 3.91182 0
M  V30 10992 H 1031.44 1.39046 2.13397 0
M  V30 10993 H 1032.22 2.99729 1.67385 0
M  V30 10994 N 1034.67 -1.14067 1.0875 0
M  V30 10995 C 1035.63 -2.17453 0.724341 0
M  V30 10996 C 1036.63 -1.58959 -0.242614 0
M  V30 10997 O 1037.82 -1.74186 -0.0217008 0
M  V30 10998 C 1034.96 -3.40828 0.0700236 0
M  V30 10999 H 1036.15 -2.51094 1.63987 0
M  V30 11000 H 1033.7 -1.28775 0.885813 0
M  V30 11001 H 1034.44 -3.1277 -0.857061 0
M  V30 11002 H 1034.22 -3.84551 0.76569 0
M  V30 11003 H 1035.71 -4.17258 -0.168905 0
M  V30 11004 N 1036.15 -0.873678 -1.31166 0
M  V30 11005 C 1037.08 -0.276805 -2.26515 0
M  V30 11006 C 1038.06 0.596166 -1.51277 0
M  V30 11007 O 1039.24 0.548769 -1.80335 0
M  V30 11008 C 1036.37 0.607711 -3.33203 0
M  V30 11009 C 1035.42 -0.194411 -4.26057 0
M  V30 11010 S 1036.25 -1.57534 -5.11804 0
M  V30 11011 C 1037.41 -0.697047 -6.22006 0
M  V30 11012 H 1037.64 -1.08505 -2.76792 0
M  V30 11013 H 1035.17 -0.672419 -1.38989 0
M  V30 11014 H 1037.13 1.11234 -3.95142 0
M  V30 11015 H 1035.79 1.38994 -2.81673 0
M  V30 11016 H 1034.98 0.480094 -5.01708 0
M  V30 11017 H 1034.59 -0.631262 -3.68634 0
M  V30 11018 H 1036.88 0.0907919 -6.77439 0
M  V30 11019 H 1037.82 -1.42481 -6.93617 0
M  V30 11020 H 1038.23 -0.262954 -5.63887 0
M  V30 11021 N 1037.63 1.44308 -0.633487 0
M  V30 11022 C 1039.04 1.85387 -0.221009 0
M  V30 11023 C 1039.39 1.5301 1.22811 0
M  V30 11024 O 1038.51 0.969325 1.93476 0
M  V30 11025 C 1039.11 3.36497 -0.394331 0
M  V30 11026 C 1037.67 3.76382 -0.0363405 0
M  V30 11027 C 1036.81 2.68146 -0.706598 0
M  V30 11028 H 1039.77 1.34741 -0.83849 0
M  V30 11029 H 1039.79 3.78735 0.366026 0
M  V30 11030 H 1039.3 3.60031 -1.44911 0
M  V30 11031 H 1037.4 3.58463 1.01661 0
M  V30 11032 H 1037.51 4.77 -0.448045 0
M  V30 11033 H 1035.88 2.54306 -0.14168 0
M  V30 11034 H 1036.66 2.94512 -1.76401 0
M  V30 11035 N 1039.1 0.374177 1.53094 0
M  V30 11036 C 1040.01 -0.475935 2.29722 0
M  V30 11037 C 1041.03 -1.085 1.36029 0
M  V30 11038 O 1042.21 -1.09408 1.69091 0
M  V30 11039 C 1039.27 -1.59572 3.07795 0
M  V30 11040 C 1038.33 -1.01332 4.17169 0
M  V30 11041 C 1037.57 -2.07975 4.9151 0
M  V30 11042 O 1037.79 -3.29232 4.65793 0
M  V30 11043 O 1036.72 -1.7055 5.77232 0
M  V30 11044 H 1040.55 0.147877 3.0334 0
M  V30 11045 H 1038.13 0.138312 1.48758 0
M  V30 11046 H 1040.02 -2.24658 3.5652 0
M  V30 11047 H 1038.69 -2.20478 2.37005 0
M  V30 11048 H 1037.6 -0.326133 3.72676 0
M  V30 11049 H 1038.93 -0.4487 4.90151 0
M  V30 11050 N 1040.58 -1.57259 0.103575 0
M  V30 11051 C 1041.83 -1.94272 -0.557024 0
M  V30 11052 C 1042.15 -0.986739 -1.68192 0
M  V30 11053 O 1041.42 -0.0402818 -1.95859 0
M  V30 11054 H 1040 -0.717237 -0.208757 0
M  V30 11055 H 1042.66 -1.94167 0.168898 0
M  V30 11056 H 1041.76 -2.96914 -0.961691 0
M  V30 11057 N 1042.06 0.170153 -1.56679 0
M  V30 11058 C 1043.02 1.19443 -1.95617 0
M  V30 11059 C 1044.02 1.37118 -0.83996 0
M  V30 11060 O 1045.21 1.34504 -1.10699 0
M  V30 11061 C 1042.35 2.55926 -2.25199 0
M  V30 11062 H 1043.54 0.86095 -2.87276 0
M  V30 11063 H 1041.09 0.412646 -1.50755 0
M  V30 11064 H 1041.83 2.94286 -1.36257 0
M  V30 11065 H 1041.61 2.44464 -3.06562 0
M  V30 11066 H 1043.1 3.29742 -2.56242 0
M  V30 11067 N 1043.54 1.5137 0.438746 0
M  V30 11068 C 1044.45 1.75424 1.55768 0
M  V30 11069 C 1045.46 0.638409 1.61865 0
M  V30 11070 O 1046.64 0.9205 1.79133 0
M  V30 11071 C 1043.71 1.87288 2.9176 0
M  V30 11072 C 1042.77 3.11137 2.95791 0
M  V30 11073 C 1042 3.22425 4.25297 0
M  V30 11074 O 1042.22 2.39688 5.17596 0
M  V30 11075 O 1041.16 4.15393 4.35583 0
M  V30 11076 H 1044.98 2.70339 1.38386 0
M  V30 11077 H 1042.57 1.35854 0.621609 0
M  V30 11078 H 1044.45 1.97085 3.72472 0
M  V30 11079 H 1043.12 0.955599 3.09273 0
M  V30 11080 H 1042.03 3.06819 2.1404 0
M  V30 11081 H 1043.36 4.02549 2.83223 0
M  V30 11082 N 1045.02 -0.694098 1.41492 0
M  V30 11083 C 1045.93 -1.83778 1.45818 0
M  V30 11084 C 1046.94 -1.70471 0.348639 0
M  V30 11085 O 1048.12 -1.92361 0.596588 0
M  V30 11086 C 1045.18 -3.19771 1.33967 0
M  V30 11087 C 1044.24 -3.45175 2.5525 0
M  V30 11088 C 1043.48 -4.74681 2.43955 0
M  V30 11089 O 1043.7 -5.51268 1.46491 0
M  V30 11090 O 1042.63 -5.00901 3.33739 0
M  V30 11091 H 1046.46 -1.83084 2.42309 0
M  V30 11092 H 1044.05 -0.847349 1.23046 0
M  V30 11093 H 1045.93 -4.00961 1.29648 0
M  V30 11094 H 1044.6 -3.21145 0.405926 0
M  V30 11095 H 1043.51 -2.6391 2.65146 0
M  V30 11096 H 1044.84 -3.48617 3.47458 0
M  V30 11097 N 1046.49 -1.27344 -0.928501 0
M  V30 11098 C 1047.74 -1.13411 -1.67279 0
M  V30 11099 C 1048.06 0.320698 -1.92345 0
M  V30 11100 O 1047.33 1.2245 -1.52915 0
M  V30 11101 H 1045.91 -0.416712 -0.619968 0
M  V30 11102 H 1048.58 -1.5986 -1.11493 0
M  V30 11103 H 1047.67 -1.66256 -2.64131 0
M  V30 11104 N 1047.97 1.13488 -1.09353 0
M  V30 11105 C 1049.22 1.841 -0.82401 0
M  V30 11106 C 1049.53 1.84393 0.652586 0
M  V30 11107 O 1050.74 2.5089 1.03762 0
M  V30 11108 C 1049.2 3.30523 -1.42418 0
M  V30 11109 C 1048.8 3.38621 -2.93326 0
M  V30 11110 C 1050.55 4.06182 -1.23356 0
M  V30 11111 C 1048.46 4.79311 -3.46432 0
M  V30 11112 H 1047.39 0.68974 -0.304589 0
M  V30 11113 H 1050.04 1.27866 -1.31615 0
M  V30 11114 H 1048.42 3.86555 -0.859727 0
M  V30 11115 H 1049.59 2.92587 -3.5599 0
M  V30 11116 H 1047.91 2.76426 -3.11412 0
M  V30 11117 H 1050.5 5.10047 -1.60488 0
M  V30 11118 H 1050.85 4.15936 -0.174152 0
M  V30 11119 H 1051.38 3.56477 -1.76547 0
M  V30 11120 H 1048.12 4.74748 -4.5199 0
M  V30 11121 H 1047.64 5.25842 -2.8853 0
M  V30 11122 H 1049.32 5.48227 -3.43593 0
M  V30 11123 N 1049.45 0.880621 1.30701 0
M  V30 11124 C 1050.87 0.574015 1.4892 0
M  V30 11125 C 1051.07 -0.889312 1.80813 0
M  V30 11126 O 1050.12 -1.67082 1.89314 0
M  V30 11127 C 1051.44 1.48341 2.61563 0
M  V30 11128 C 1052.98 1.48658 2.75445 0
M  V30 11129 C 1053.46 2.3818 3.91196 0
M  V30 11130 N 1054.95 2.36119 3.985 0
M  V30 11131 C 1055.69 3.02101 4.87363 0
M  V30 11132 N 1055.18 3.77293 5.81052 0
M  V30 11133 N 1056.97 2.91356 4.80696 0
M  V30 11134 H 1049.13 1.82732 1.08271 0
M  V30 11135 H 1051.39 0.781939 0.535981 0
M  V30 11136 H 1051.09 2.52515 2.44804 0
M  V30 11137 H 1050.97 1.18977 3.57944 0
M  V30 11138 H 1053.36 0.452374 2.91612 0
M  V30 11139 H 1053.44 1.8205 1.79698 0
M  V30 11140 H 1053.08 3.41683 3.75786 0
M  V30 11141 H 1053.01 2.02106 4.86272 0
M  V30 11142 H 1055.5 1.81474 3.31475 0
M  V30 11143 H 1055.81 4.24742 6.45612 0
M  V30 11144 H 1054.16 3.81401 5.80998 0
M  V30 11145 H 1057.35 2.32143 4.06481 0
M  V30 11146 H 1057.52 3.43056 5.49742 0
M  V30 11147 N 1050.93 -1.4397 0.641131 0
M  V30 11148 C 1051.88 -2.30728 -0.0577905 0
M  V30 11149 C 1052.85 -1.44059 -0.826819 0
M  V30 11150 O 1054.03 -1.72947 -0.805853 0
M  V30 11151 C 1051.17 -3.29478 -1.02657 0
M  V30 11152 C 1050.28 -4.31247 -0.254913 0
M  V30 11153 C 1049.42 -5.17085 -1.2164 0
M  V30 11154 C 1048.46 -6.10556 -0.434481 0
M  V30 11155 N 1047.6 -6.89059 -1.34694 0
M  V30 11156 H 1052.44 -2.8995 0.687953 0
M  V30 11157 H 1049.97 -1.4285 0.351029 0
M  V30 11158 H 1051.93 -3.85228 -1.60173 0
M  V30 11159 H 1050.56 -2.71932 -1.73933 0
M  V30 11160 H 1049.61 -3.77889 0.436338 0
M  V30 11161 H 1050.92 -4.97545 0.353642 0
M  V30 11162 H 1050.08 -5.77402 -1.86258 0
M  V30 11163 H 1048.82 -4.50885 -1.85888 0
M  V30 11164 H 1047.82 -5.49339 0.225125 0
M  V30 11165 H 1049.05 -6.78795 0.203415 0
M  V30 11166 H 1046.99 -6.25518 -1.97644 0
M  V30 11167 H 1046.91 -7.51833 -0.792657 0
M  V30 11168 H 1048.18 -7.5389 -1.98165 0
M  V30 11169 N 1052.41 -0.382291 -1.52893 0
M  V30 11170 C 1053.66 0.201734 -2.01091 0
M  V30 11171 C 1053.98 1.47905 -1.2708 0
M  V30 11172 O 1053.25 1.92002 -0.38883 0
M  V30 11173 H 1051.83 0.0775373 -0.742965 0
M  V30 11174 H 1054.49 -0.512369 -1.88045 0
M  V30 11175 H 1053.58 0.416919 -3.09303 0
M  V30 11176 N 1053.89 1.57202 -0.111913 0
M  V30 11177 C 1055.13 1.94125 0.547573 0
M  V30 11178 C 1055.45 0.997026 1.68282 0
M  V30 11179 O 1056.65 1.26063 2.40459 0
M  V30 11180 C 1055.11 3.44982 1.02545 0
M  V30 11181 C 1054.72 4.47927 -0.0809529 0
M  V30 11182 C 1056.46 3.90837 1.65671 0
M  V30 11183 C 1054.37 5.89955 0.413224 0
M  V30 11184 H 1053.3 0.724651 0.208321 0
M  V30 11185 H 1055.95 1.82507 -0.190625 0
M  V30 11186 H 1054.33 3.5181 1.81785 0
M  V30 11187 H 1055.51 4.52761 -0.857003 0
M  V30 11188 H 1053.82 4.11782 -0.618434 0
M  V30 11189 H 1056.42 4.9436 2.03746 0
M  V30 11190 H 1056.76 3.30417 2.53239 0
M  V30 11191 H 1057.29 3.8678 0.929844 0
M  V30 11192 H 1054.03 6.54113 -0.426238 0
M  V30 11193 H 1053.55 5.88557 1.15591 0
M  V30 11194 H 1055.23 6.41032 0.876756 0
M  V30 11195 N 1055.36 -0.161842 1.56767 0
M  V30 11196 C 1056.59 -0.890953 1.86402 0
M  V30 11197 C 1057 -1.75918 0.696373 0
M  V30 11198 O 1056.34 -1.80461 -0.343463 0
M  V30 11199 C 1056.41 -1.81079 3.10565 0
M  V30 11200 C 1056.07 -1.12121 4.43032 0
M  V30 11201 C 1057.07 -0.482152 5.17659 0
M  V30 11202 C 1054.75 -1.11514 4.89765 0
M  V30 11203 C 1056.75 0.153772 6.37214 0
M  V30 11204 C 1054.43 -0.4754 6.09248 0
M  V30 11205 C 1055.43 0.157944 6.82817 0
M  V30 11206 O 1055.12 0.787579 8.00033 0
M  V30 11207 H 1054.85 -0.26379 0.622407 0
M  V30 11208 H 1057.41 -0.163884 2.04745 0
M  V30 11209 H 1055.64 -2.57842 2.88192 0
M  V30 11210 H 1057.32 -2.41056 3.26568 0
M  V30 11211 H 1058.09 -0.478752 4.82631 0
M  V30 11212 H 1053.97 -1.59752 4.32435 0
M  V30 11213 H 1057.51 0.648716 6.94577 0
M  V30 11214 H 1053.41 -0.476416 6.43739 0
M  V30 11215 H 1054.18 0.687769 8.15605 0
M  V30 11216 N 1056.84 -1.516 -0.430713 0
M  V30 11217 C 1057.79 -1.73392 -1.52328 0
M  V30 11218 C 1058.76 -0.575758 -1.55802 0
M  V30 11219 O 1059.94 -0.810931 -1.72709 0
M  V30 11220 C 1057.08 -1.87092 -2.89984 0
M  V30 11221 C 1056.2 -3.14668 -2.95987 0
M  V30 11222 C 1055.33 -3.18923 -4.24807 0
M  V30 11223 C 1054.37 -4.40787 -4.24703 0
M  V30 11224 N 1053.51 -4.42556 -5.45059 0
M  V30 11225 H 1058.35 -2.6665 -1.33048 0
M  V30 11226 H 1055.88 -1.32146 -0.646207 0
M  V30 11227 H 1057.84 -1.93017 -3.69865 0
M  V30 11228 H 1056.47 -0.972363 -3.07807 0
M  V30 11229 H 1055.52 -3.1802 -2.08728 0
M  V30 11230 H 1056.84 -4.04562 -2.91772 0
M  V30 11231 H 1055.99 -3.23801 -5.13067 0
M  V30 11232 H 1054.73 -2.2693 -4.31688 0
M  V30 11233 H 1053.73 -4.36079 -3.34836 0
M  V30 11234 H 1054.96 -5.34053 -4.19481 0
M  V30 11235 H 1052.91 -3.53435 -5.52648 0
M  V30 11236 H 1052.82 -5.26267 -5.42751 0
M  V30 11237 H 1054.09 -4.51634 -6.35332 0
M  V30 11238 N 1058.32 0.686584 -1.41858 0
M  V30 11239 C 1059.25 1.81264 -1.47193 0
M  V30 11240 C 1060.23 1.66875 -0.329657 0
M  V30 11241 O 1061.42 1.86473 -0.542347 0
M  V30 11242 C 1058.55 3.19472 -1.36216 0
M  V30 11243 C 1057.5 3.4858 -2.48347 0
M  V30 11244 C 1056.83 4.86239 -2.22432 0
M  V30 11245 C 1058.13 3.46653 -3.90678 0
M  V30 11246 H 1059.82 1.77057 -2.41436 0
M  V30 11247 H 1057.37 0.850415 -1.16206 0
M  V30 11248 H 1059.32 3.97969 -1.38558 0
M  V30 11249 H 1058.04 3.24327 -0.384611 0
M  V30 11250 H 1056.7 2.72437 -2.45303 0
M  V30 11251 H 1056.35 4.8773 -1.22999 0
M  V30 11252 H 1056.05 5.06677 -2.97577 0
M  V30 11253 H 1057.57 5.67034 -2.26505 0
M  V30 11254 H 1058.99 4.15139 -3.95389 0
M  V30 11255 H 1057.38 3.78625 -4.65578 0
M  V30 11256 H 1058.45 2.45451 -4.18189 0
M  V30 11257 N 1059.8 1.27835 0.921735 0
M  V30 11258 C 1060.71 1.12904 2.05645 0
M  V30 11259 C 1061.72 0.0575704 1.73905 0
M  V30 11260 O 1062.9 0.265261 1.99645 0
M  V30 11261 C 1059.96 0.783957 3.3772 0
M  V30 11262 C 1059.03 1.93694 3.8312 0
M  V30 11263 C 1058.26 1.60823 5.08893 0
M  V30 11264 O 1058.48 0.518873 5.68035 0
M  V30 11265 O 1057.42 2.44932 5.49811 0
M  V30 11266 H 1061.24 2.08143 2.21157 0
M  V30 11267 H 1058.83 1.07078 1.04185 0
M  V30 11268 H 1060.71 0.605107 4.17033 0
M  V30 11269 H 1059.38 -0.138849 3.23402 0
M  V30 11270 H 1058.29 2.17089 3.04669 0
M  V30 11271 H 1059.62 2.84016 4.0199 0
M  V30 11272 N 1061.28 -1.12907 1.09954 0
M  V30 11273 C 1062.5 -1.88138 0.860905 0
M  V30 11274 C 1062.92 -1.79402 -0.588256 0
M  V30 11275 O 1062.28 -1.16442 -1.40526 0
M  V30 11276 C 1062.33 -3.37537 1.29425 0
M  V30 11277 O 1062.05 -3.46056 2.68658 0
M  V30 11278 C 1063.55 -4.29721 1.08879 0
M  V30 11279 H 1060.77 -0.595437 0.309347 0
M  V30 11280 H 1063.31 -1.42894 1.46292 0
M  V30 11281 H 1061.47 -3.80344 0.736009 0
M  V30 11282 H 1061.88 -4.38969 2.87065 0
M  V30 11283 H 1063.36 -5.32854 1.4412 0
M  V30 11284 H 1063.83 -4.39192 0.0270053 0
M  V30 11285 H 1064.44 -3.9269 1.63325 0
M  V30 11286 N 1062.75 -0.88754 -1.30232 0
M  V30 11287 C 1064 -0.503322 -1.95319 0
M  V30 11288 C 1064.32 0.952817 -1.70824 0
M  V30 11289 O 1065.52 1.444 -2.29915 0
M  V30 11290 C 1063.98 -0.849216 -3.49738 0
M  V30 11291 C 1063.59 -2.3233 -3.83049 0
M  V30 11292 C 1065.33 -0.53432 -4.21124 0
M  V30 11293 C 1063.24 -2.61069 -5.30657 0
M  V30 11294 H 1062.17 -0.1845 -0.731078 0
M  V30 11295 H 1064.82 -1.08287 -1.48143 0
M  V30 11296 H 1063.2 -0.198729 -3.95501 0
M  V30 11297 H 1064.37 -3.01832 -3.48187 0
M  V30 11298 H 1062.69 -2.60599 -3.24773 0
M  V30 11299 H 1065.29 -0.726039 -5.29748 0
M  V30 11300 H 1065.63 0.526434 -4.12958 0
M  V30 11301 H 1066.16 -1.14211 -3.81052 0
M  V30 11302 H 1062.9 -3.65895 -5.43876 0
M  V30 11303 H 1062.42 -1.96179 -5.6681 0
M  V30 11304 H 1064.1 -2.46703 -5.98119 0
M  V30 11305 N 1064.23 1.43628 -0.648757 0
M  V30 11306 C 1065.14 2.34554 0.0463037 0
M  V30 11307 C 1066.16 1.53629 0.816952 0
M  V30 11308 O 1067.33 1.86297 0.765212 0
M  V30 11309 C 1064.4 3.3185 1.00381 0
M  V30 11310 C 1063.46 4.2868 0.230589 0
M  V30 11311 C 1062.69 5.21328 1.14249 0
M  V30 11312 O 1062.92 5.18298 2.38166 0
M  V30 11313 O 1061.85 5.98726 0.617296 0
M  V30 11314 H 1065.68 2.95475 -0.702008 0
M  V30 11315 H 1063.26 1.43694 -0.408942 0
M  V30 11316 H 1065.14 3.91692 1.5542 0
M  V30 11317 H 1063.82 2.73439 1.73243 0
M  V30 11318 H 1062.73 3.72332 -0.363282 0
M  V30 11319 H 1064.06 4.90061 -0.458368 0
M  V30 11320 N 1065.71 0.390394 1.52688 0
M  V30 11321 C 1066.96 -0.191067 2.01195 0
M  V30 11322 C 1067.28 -1.47229 1.27862 0
M  V30 11323 O 1066.55 -1.91793 0.399007 0
M  V30 11324 H 1065.13 -0.073596 0.743366 0
M  V30 11325 H 1067.79 0.522334 1.8777 0
M  V30 11326 H 1066.89 -0.40051 3.0952 0
M  V30 11327 N 1067.19 -1.57141 0.120249 0
M  V30 11328 C 1068.41 -2.00017 -0.548454 0
M  V30 11329 C 1068.84 -0.999433 -1.59352 0
M  V30 11330 O 1068.2 0.0286978 -1.81277 0
M  V30 11331 C 1068.24 -3.41766 -1.15015 0
M  V30 11332 O 1067.35 -3.44589 -2.26566 0
M  V30 11333 H 1066.69 -0.649739 -0.136875 0
M  V30 11334 H 1069.22 -2.03529 0.209092 0
M  V30 11335 H 1069.23 -3.80001 -1.48537 0
M  V30 11336 H 1067.9 -4.14117 -0.384681 0
M  V30 11337 H 1066.48 -3.18174 -1.94473 0
M  V30 11338 N 1068.67 0.153526 -1.5685 0
M  V30 11339 C 1069.61 1.18973 -1.97773 0
M  V30 11340 C 1070.58 1.43041 -0.844311 0
M  V30 11341 O 1071.77 1.55484 -1.10586 0
M  V30 11342 C 1068.91 2.51981 -2.35795 0
M  V30 11343 C 1068.02 2.35143 -3.62397 0
M  V30 11344 C 1067.16 3.61141 -3.89552 0
M  V30 11345 C 1066.2 3.39311 -5.09445 0
M  V30 11346 N 1065.33 4.57423 -5.32643 0
M  V30 11347 H 1070.17 0.833758 -2.86099 0
M  V30 11348 H 1067.71 0.400252 -1.4155 0
M  V30 11349 H 1069.67 3.29527 -2.55867 0
M  V30 11350 H 1068.3 2.85539 -1.50557 0
M  V30 11351 H 1067.35 1.48684 -3.50139 0
M  V30 11352 H 1068.66 2.14969 -4.501 0
M  V30 11353 H 1067.82 4.47117 -4.10087 0
M  V30 11354 H 1066.55 3.84312 -3.00259 0
M  V30 11355 H 1065.56 2.51723 -4.8879 0
M  V30 11356 H 1066.78 3.17545 -6.00285 0
M  V30 11357 H 1064.73 4.8078 -4.46303 0
M  V30 11358 H 1064.65 4.40228 -6.14602 0
M  V30 11359 H 1065.92 5.44632 -5.57671 0
M  V30 11360 N 1070.14 1.51827 0.422667 0
M  V30 11361 C 1071.39 1.64893 1.16853 0
M  V30 11362 C 1071.71 0.37456 1.91369 0
M  V30 11363 O 1070.98 -0.610128 1.86157 0
M  V30 11364 H 1069.56 0.607744 0.434345 0
M  V30 11365 H 1072.23 1.88816 0.483159 0
M  V30 11366 H 1071.32 2.48361 1.89006 0
M  V30 11367 N 1071.62 -0.679052 1.4222 0
M  V30 11368 C 1072.57 -1.79269 1.45366 0
M  V30 11369 C 1073.54 -1.63255 0.306089 0
M  V30 11370 O 1074.72 -1.8387 0.509548 0
M  V30 11371 C 1071.86 -3.17272 1.35766 0
M  V30 11372 C 1070.98 -3.44603 2.60525 0
M  V30 11373 C 1070.11 -4.7231 2.43098 0
M  V30 11374 C 1069.15 -4.92661 3.63251 0
M  V30 11375 N 1068.29 -6.11606 3.44794 0
M  V30 11376 H 1073.13 -1.75916 2.40536 0
M  V30 11377 H 1070.67 -0.858836 1.19425 0
M  V30 11378 H 1072.62 -3.97015 1.282 0
M  V30 11379 H 1071.25 -3.1976 0.441939 0
M  V30 11380 H 1070.31 -2.59144 2.78475 0
M  V30 11381 H 1071.62 -3.55536 3.49851 0
M  V30 11382 H 1070.77 -5.60136 2.33093 0
M  V30 11383 H 1069.51 -4.63652 1.51255 0
M  V30 11384 H 1068.52 -4.03278 3.73693 0
M  V30 11385 H 1069.74 -5.03167 4.5607 0
M  V30 11386 H 1067.69 -6.04129 2.55663 0
M  V30 11387 H 1067.6 -6.23381 4.27705 0
M  V30 11388 H 1068.87 -7.02122 3.38592 0
M  V30 11389 N 1073.1 -1.28322 -0.914942 0
M  V30 11390 C 1074.35 -1.15578 -1.66642 0
M  V30 11391 C 1074.68 0.295209 -1.91943 0
M  V30 11392 O 1073.95 1.21482 -1.51896 0
M  V30 11393 C 1074.24 -1.9535 -3.02507 0
M  V30 11394 C 1074.09 -3.48504 -2.84367 0
M  V30 11395 C 1075.41 -1.76798 -4.03027 0
M  V30 11396 H 1072.53 -0.421234 -0.604757 0
M  V30 11397 H 1075.17 -1.57625 -1.06087 0
M  V30 11398 H 1073.32 -1.59619 -3.54195 0
M  V30 11399 H 1074.99 -3.94135 -2.39699 0
M  V30 11400 H 1073.24 -3.74198 -2.1945 0
M  V30 11401 H 1073.91 -3.99576 -3.80845 0
M  V30 11402 H 1076.38 -2.07977 -3.60395 0
M  V30 11403 H 1075.26 -2.34987 -4.96057 0
M  V30 11404 H 1075.52 -0.719162 -4.36211 0
M  V30 11405 N 1074.58 1.12322 -1.10551 0
M  V30 11406 C 1075.51 2.17819 -0.713263 0
M  V30 11407 C 1076.52 1.6086 0.250604 0
M  V30 11408 O 1077.71 1.78466 0.0348909 0
M  V30 11409 C 1074.81 3.38885 -0.0320325 0
M  V30 11410 C 1073.99 4.25332 -1.02038 0
M  V30 11411 C 1073.04 5.24895 -0.370412 0
M  V30 11412 O 1072.07 5.59958 -1.02157 0
M  V30 11413 N 1073.27 5.73934 0.870633 0
M  V30 11414 H 1076.04 2.52083 -1.62094 0
M  V30 11415 H 1073.6 1.27755 -0.994492 0
M  V30 11416 H 1075.59 4.02574 0.414285 0
M  V30 11417 H 1074.16 3.02762 0.778072 0
M  V30 11418 H 1073.38 3.5824 -1.64492 0
M  V30 11419 H 1074.67 4.79936 -1.68936 0
M  V30 11420 H 1074.07 5.47614 1.419 0
M  V30 11421 H 1072.62 6.39504 1.26008 0
M  V30 11422 N 1076.06 0.894434 1.2976 0
M  V30 11423 C 1076.99 0.3847 2.30309 0
M  V30 11424 C 1077.97 -0.537486 1.61385 0
M  V30 11425 O 1079.15 -0.449332 1.8893 0
M  V30 11426 C 1076.28 -0.393311 3.45066 0
M  V30 11427 C 1075.24 0.437968 4.25753 0
M  V30 11428 C 1074.56 -0.467221 5.32655 0
M  V30 11429 C 1075.86 1.6851 4.9437 0
M  V30 11430 H 1077.56 1.22496 2.73194 0
M  V30 11431 H 1075.1 0.590471 1.31337 0
M  V30 11432 H 1077.06 -0.760614 4.14479 0
M  V30 11433 H 1075.78 -1.2673 3.0101 0
M  V30 11434 H 1074.44 0.787533 3.58041 0
M  V30 11435 H 1074.09 -1.33919 4.84845 0
M  V30 11436 H 1073.79 0.0852482 5.87538 0
M  V30 11437 H 1075.31 -0.830833 6.04921 0
M  V30 11438 H 1076.72 1.38784 5.56248 0
M  V30 11439 H 1075.12 2.17849 5.59162 0
M  V30 11440 H 1076.19 2.42412 4.19958 0
M  V30 11441 N 1077.53 -1.43282 0.656365 0
M  V30 11442 C 1078.46 -2.33492 -0.0196962 0
M  V30 11443 C 1079.45 -1.49647 -0.80868 0
M  V30 11444 O 1080.63 -1.78303 -0.769529 0
M  V30 11445 C 1077.76 -3.33052 -0.984574 0
M  V30 11446 C 1076.71 -4.26908 -0.305483 0
M  V30 11447 C 1076.04 -5.16531 -1.38202 0
M  V30 11448 C 1077.34 -5.16073 0.804081 0
M  V30 11449 H 1079.03 -2.90272 0.733661 0
M  V30 11450 H 1076.58 -1.39574 0.354259 0
M  V30 11451 H 1078.53 -3.9506 -1.46647 0
M  V30 11452 H 1077.26 -2.74535 -1.76913 0
M  V30 11453 H 1075.92 -3.66268 0.155995 0
M  V30 11454 H 1075.56 -4.54351 -2.1581 0
M  V30 11455 H 1075.26 -5.80148 -0.932878 0
M  V30 11456 H 1076.79 -5.81414 -1.86522 0
M  V30 11457 H 1078.2 -5.71873 0.404212 0
M  V30 11458 H 1076.6 -5.88427 1.17789 0
M  V30 11459 H 1077.67 -4.55574 1.66073 0
M  V30 11460 N 1079.01 -0.398486 -1.52479 0
M  V30 11461 C 1080.26 0.180394 -2.01293 0
M  V30 11462 C 1080.58 1.46548 -1.28641 0
M  V30 11463 O 1079.85 1.91579 -0.409173 0
M  V30 11464 H 1078.43 0.0696528 -0.743746 0
M  V30 11465 H 1081.09 -0.532285 -1.87491 0
M  V30 11466 H 1080.19 0.38409 -3.09728 0
M  V30 11467 N 1080.49 1.57075 -0.12858 0
M  V30 11468 C 1081.72 2.00305 0.537839 0
M  V30 11469 C 1082.14 1.00787 1.58819 0
M  V30 11470 O 1081.5 -0.0190839 1.8129 0
M  V30 11471 C 1081.55 3.42371 1.13201 0
M  V30 11472 O 1080.65 3.45786 2.24735 0
M  V30 11473 H 1079.99 0.650456 0.133428 0
M  V30 11474 H 1082.52 2.03415 -0.219882 0
M  V30 11475 H 1082.53 3.80783 1.4652 0
M  V30 11476 H 1081.21 4.14315 0.362713 0
M  V30 11477 H 1079.78 3.19201 1.92783 0
M  V30 11478 N 1081.97 -0.145205 1.5693 0
M  V30 11479 C 1083.22 -0.855822 1.83085 0
M  V30 11480 C 1083.54 -1.81625 0.709747 0
M  V30 11481 O 1082.81 -1.94052 -0.268456 0
M  V30 11482 H 1081.39 -0.319032 0.675446 0
M  V30 11483 H 1084.05 -0.138781 1.94405 0
M  V30 11484 H 1083.15 -1.41698 2.78079 0
M  V30 11485 N 1083.45 -1.52049 -0.414609 0
M  V30 11486 C 1084.67 -1.6997 -1.18848 0
M  V30 11487 C 1085.1 -0.406058 -1.83665 0
M  V30 11488 O 1084.46 0.635981 -1.69779 0
M  V30 11489 C 1084.5 -2.8327 -2.23138 0
M  V30 11490 O 1083.61 -2.48457 -3.29155 0
M  V30 11491 H 1082.95 -0.566003 -0.347183 0
M  V30 11492 H 1085.48 -1.98726 -0.486757 0
M  V30 11493 H 1085.49 -3.08022 -2.67557 0
M  V30 11494 H 1084.16 -3.7713 -1.75344 0
M  V30 11495 H 1082.74 -2.34357 -2.90054 0
M  V30 11496 N 1084.93 0.6715 -1.42579 0
M  V30 11497 C 1086.17 1.42731 -1.42516 0
M  V30 11498 C 1086.49 1.95545 -0.0462407 0
M  V30 11499 O 1087.69 2.71391 0.0769798 0
M  V30 11500 C 1086.15 2.58215 -2.50705 0
M  V30 11501 C 1085.76 2.12086 -3.94618 0
M  V30 11502 C 1087.5 3.35705 -2.59813 0
M  V30 11503 C 1085.41 3.24672 -4.9431 0
M  V30 11504 H 1084.34 0.536218 -0.530081 0
M  V30 11505 H 1086.99 0.726655 -1.68499 0
M  V30 11506 H 1085.37 3.30665 -2.17892 0
M  V30 11507 H 1086.55 1.46768 -4.36802 0
M  V30 11508 H 1084.86 1.47526 -3.89391 0
M  V30 11509 H 1087.46 4.1956 -3.31472 0
M  V30 11510 H 1087.8 3.82517 -1.64276 0
M  V30 11511 H 1088.33 2.70326 -2.91836 0
M  V30 11512 H 1085.07 2.82848 -5.91335 0
M  V30 11513 H 1084.59 3.88761 -4.56755 0
M  V30 11514 H 1086.27 3.90088 -5.16179 0
M  V30 11515 N 1086.4 1.28806 0.908124 0
M  V30 11516 C 1087.33 1.15758 2.02787 0
M  V30 11517 C 1088.31 0.053911 1.70015 0
M  V30 11518 O 1089.5 0.231901 1.9281 0
M  V30 11519 C 1086.63 0.824526 3.37371 0
M  V30 11520 C 1085.58 1.88359 3.84324 0
M  V30 11521 C 1084.91 1.40404 5.15937 0
M  V30 11522 C 1086.21 3.29108 4.05568 0
M  V30 11523 H 1087.9 2.09431 2.13961 0
M  V30 11524 H 1085.45 1.00831 1.02806 0
M  V30 11525 H 1087.4 0.71999 4.15204 0
M  V30 11526 H 1086.13 -0.147902 3.26265 0
M  V30 11527 H 1084.79 1.97736 3.087 0
M  V30 11528 H 1084.43 0.420515 5.01239 0
M  V30 11529 H 1084.13 2.11224 5.48323 0
M  V30 11530 H 1085.66 1.31283 5.9632 0
M  V30 11531 H 1087.07 3.2262 4.73909 0
M  V30 11532 H 1085.47 3.97812 4.49294 0
M  V30 11533 H 1086.54 3.72709 3.10187 0
M  V30 11534 N 1087.88 -1.11734 1.11145 0
M  V30 11535 C 1089.3 -1.35412 0.844736 0
M  V30 11536 C 1089.5 -1.94347 -0.532111 0
M  V30 11537 O 1088.55 -2.17443 -1.28353 0
M  V30 11538 C 1089.87 -2.28869 1.95037 0
M  V30 11539 C 1091.41 -2.42442 1.97967 0
M  V30 11540 C 1091.89 -3.39219 3.07725 0
M  V30 11541 N 1093.38 -3.4678 3.07079 0
M  V30 11542 C 1094.12 -4.21595 3.88646 0
M  V30 11543 N 1093.61 -4.99411 4.80167 0
M  V30 11544 N 1095.4 -4.17075 3.76835 0
M  V30 11545 H 1087.56 -0.718412 1.99881 0
M  V30 11546 H 1089.82 -0.378787 0.869037 0
M  V30 11547 H 1089.52 -1.92752 2.94176 0
M  V30 11548 H 1089.4 -3.2906 1.84389 0
M  V30 11549 H 1091.79 -2.77835 0.994561 0
M  V30 11550 H 1091.87 -1.42113 2.12691 0
M  V30 11551 H 1091.51 -3.04553 4.0646 0
M  V30 11552 H 1091.44 -4.39394 2.90242 0
M  V30 11553 H 1093.93 -2.91272 2.40767 0
M  V30 11554 H 1094.24 -5.53856 5.38946 0
M  V30 11555 H 1092.59 -4.98582 4.84191 0
M  V30 11556 H 1095.78 -3.55369 3.04681 0
M  V30 11557 H 1095.95 -4.75125 4.40637 0
M  V30 11558 N 1089.36 -0.901303 -1.29284 0
M  V30 11559 C 1090.31 -0.351562 -2.25273 0
M  V30 11560 C 1091.29 0.529276 -1.51946 0
M  V30 11561 O 1092.49 0.371031 -1.73068 0
M  V30 11562 C 1089.61 0.41843 -3.4074 0
M  V30 11563 C 1088.7 -0.47742 -4.21404 0
M  V30 11564 N 1089.09 -1.58537 -4.80312 0
M  V30 11565 C 1087.39 -0.275504 -4.45148 0
M  V30 11566 C 1088.09 -2.14041 -5.40889 0
M  V30 11567 N 1087.07 -1.43324 -5.24365 0
M  V30 11568 H 1090.87 -1.1979 -2.68379 0
M  V30 11569 H 1088.38 -0.752538 -1.43912 0
M  V30 11570 H 1090.38 0.829022 -4.08574 0
M  V30 11571 H 1089.04 1.26201 -2.99171 0
M  V30 11572 H 1090.05 -1.96809 -4.79047 0
M  V30 11573 H 1086.73 0.529581 -4.14128 0
M  V30 11574 H 1088.12 -3.07173 -5.97574 0
M  V30 11575 N 1090.84 1.42931 -0.663954 0
M  V30 11576 C 1092.08 2.01982 -0.182007 0
M  V30 11577 C 1092.42 1.52323 1.20463 0
M  V30 11578 O 1091.69 0.720834 1.80649 0
M  V30 11579 C 1091.97 3.59518 -0.204671 0
M  V30 11580 C 1091.83 4.19382 -1.62599 0
M  V30 11581 C 1093.15 4.37762 0.45308 0
M  V30 11582 H 1090.27 0.733892 -0.0676115 0
M  V30 11583 H 1092.91 1.70092 -0.84668 0
M  V30 11584 H 1091.06 3.86816 0.361295 0
M  V30 11585 H 1092.73 4.03076 -2.24337 0
M  V30 11586 H 1090.97 3.75623 -2.17001 0
M  V30 11587 H 1091.64 5.28496 -1.59362 0
M  V30 11588 H 1094.12 4.1609 -0.0285774 0
M  V30 11589 H 1093 5.47392 0.406538 0
M  V30 11590 H 1093.26 4.1482 1.52895 0
M  V30 11591 N 1092.32 0.406567 1.52266 0
M  V30 11592 C 1093.73 0.0573228 1.59497 0
M  V30 11593 C 1093.93 -1.43005 1.41957 0
M  V30 11594 O 1092.99 -2.19659 1.24523 0
M  V30 11595 C 1094.3 0.549947 2.95628 0
M  V30 11596 C 1095.85 0.5077 3.08855 0
M  V30 11597 C 1096.32 0.976792 4.47463 0
M  V30 11598 N 1097.81 0.933508 4.53696 0
M  V30 11599 C 1098.55 1.26769 5.59211 0
M  V30 11600 N 1098.05 1.6732 6.72292 0
M  V30 11601 N 1099.84 1.18782 5.49406 0
M  V30 11602 H 1091.99 1.37468 1.61914 0
M  V30 11603 H 1094.25 0.564562 0.76156 0
M  V30 11604 H 1093.96 1.58943 3.13736 0
M  V30 11605 H 1093.83 -0.0417767 3.77177 0
M  V30 11606 H 1096.22 -0.522728 2.90433 0
M  V30 11607 H 1096.3 1.13545 2.29219 0
M  V30 11608 H 1095.94 2.00554 4.66627 0
M  V30 11609 H 1095.87 0.325885 5.25591 0
M  V30 11610 H 1098.37 0.635333 3.72521 0
M  V30 11611 H 1098.68 1.91137 7.4879 0
M  V30 11612 H 1097.02 1.71221 6.73579 0
M  V30 11613 H 1100.21 0.869906 4.59946 0
M  V30 11614 H 1100.39 1.45157 6.31533 0
M  V30 11615 N 1093.79 -1.57004 0.136909 0
M  V30 11616 C 1094.7 -2.19807 -0.819887 0
M  V30 11617 C 1095.72 -1.17939 -1.27932 0
M  V30 11618 O 1096.9 -1.50478 -1.3386 0
M  V30 11619 C 1093.96 -2.79935 -2.04542 0
M  V30 11620 C 1093.02 -3.96897 -1.6362 0
M  V30 11621 C 1092.26 -4.54148 -2.80331 0
M  V30 11622 O 1092.48 -4.10282 -3.96264 0
M  V30 11623 O 1091.41 -5.44565 -2.56384 0
M  V30 11624 H 1095.24 -3.02058 -0.315337 0
M  V30 11625 H 1092.82 -1.49131 -0.0896151 0
M  V30 11626 H 1094.71 -3.18191 -2.76283 0
M  V30 11627 H 1093.38 -2.00703 -2.53969 0
M  V30 11628 H 1092.29 -3.63376 -0.889316 0
M  V30 11629 H 1093.62 -4.77618 -1.18918 0
M  V30 11630 N 1095.27 0.136881 -1.57004 0
M  V30 11631 C 1096.24 1.15267 -1.98106 0
M  V30 11632 C 1097.24 1.35305 -0.868856 0
M  V30 11633 O 1098.43 1.32126 -1.13527 0
M  V30 11634 C 1095.56 2.51092 -2.30577 0
M  V30 11635 H 1096.75 0.799821 -2.89038 0
M  V30 11636 H 1094.3 0.380576 -1.51596 0
M  V30 11637 H 1095.04 2.9133 -1.42469 0
M  V30 11638 H 1094.82 2.37906 -3.11678 0
M  V30 11639 H 1096.31 3.24232 -2.63179 0
M  V30 11640 N 1096.75 1.52266 0.40654 0
M  V30 11641 C 1097.71 1.75168 1.47814 0
M  V30 11642 C 1098.71 0.621575 1.48301 0
M  V30 11643 O 1099.9 0.889476 1.4978 0
M  V30 11644 C 1097.04 1.83642 2.87208 0
M  V30 11645 H 1098.23 2.70834 1.28798 0
M  V30 11646 H 1095.78 1.42722 0.637196 0
M  V30 11647 H 1096.52 0.898994 3.1159 0
M  V30 11648 H 1096.3 2.65801 2.88257 0
M  V30 11649 H 1097.79 2.03093 3.64888 0
M  V30 11650 N 1098.23 -0.663929 1.42933 0
M  V30 11651 C 1099.14 -1.80643 1.49683 0
M  V30 11652 C 1100.15 -1.69694 0.38472 0
M  V30 11653 O 1101.33 -1.91052 0.637256 0
M  V30 11654 C 1098.4 -3.16858 1.4072 0
M  V30 11655 C 1097.46 -3.39684 2.62514 0
M  V30 11656 C 1096.69 -4.69399 2.53969 0
M  V30 11657 O 1096.91 -5.48037 1.58152 0
M  V30 11658 O 1095.85 -4.93709 3.44289 0
M  V30 11659 H 1099.67 -1.77903 2.46138 0
M  V30 11660 H 1097.26 -0.821059 1.24816 0
M  V30 11661 H 1099.14 -3.9812 1.38124 0
M  V30 11662 H 1097.81 -3.20211 0.473954 0
M  V30 11663 H 1096.72 -2.58227 2.70684 0
M  V30 11664 H 1098.05 -3.41169 3.54774 0
M  V30 11665 N 1099.71 -1.29285 -0.901281 0
M  V30 11666 C 1100.96 -1.16538 -1.64626 0
M  V30 11667 C 1101.27 0.282623 -1.93547 0
M  V30 11668 O 1102.47 0.531396 -2.66249 0
M  V30 11669 C 1100.93 -2.03809 -2.96631 0
M  V30 11670 C 1100.54 -3.53423 -2.75311 0
M  V30 11671 C 1102.28 -1.99782 -3.7455 0
M  V30 11672 C 1100.19 -4.32804 -4.03032 0
M  V30 11673 H 1099.12 -0.432561 -0.617581 0
M  V30 11674 H 1101.77 -1.53912 -0.999159 0
M  V30 11675 H 1100.15 -1.59302 -3.62545 0
M  V30 11676 H 1101.33 -4.05971 -2.18 0
M  V30 11677 H 1099.64 -3.59106 -2.10789 0
M  V30 11678 H 1102.24 -2.5635 -4.69243 0
M  V30 11679 H 1102.58 -0.97743 -4.04663 0
M  V30 11680 H 1103.11 -2.42324 -3.15474 0
M  V30 11681 H 1099.85 -5.35473 -3.78086 0
M  V30 11682 H 1099.37 -3.85025 -4.59909 0
M  V30 11683 H 1101.05 -4.43383 -4.71191 0
M  V30 11684 N 1101.18 1.11143 -1.11736 0
M  V30 11685 C 1102.11 2.19339 -0.800795 0
M  V30 11686 C 1103.1 1.68508 0.23221 0
M  V30 11687 O 1104.28 1.93967 0.0950063 0
M  V30 11688 C 1101.41 3.46424 -0.246579 0
M  V30 11689 C 1100.36 4.10487 -1.21181 0
M  V30 11690 C 1099.69 5.32183 -0.518158 0
M  V30 11691 C 1100.99 4.55052 -2.56368 0
M  V30 11692 H 1102.68 2.46077 -1.70548 0
M  V30 11693 H 1100.23 1.18271 -0.821454 0
M  V30 11694 H 1102.18 4.21398 -0.0128889 0
M  V30 11695 H 1100.91 3.19154 0.693415 0
M  V30 11696 H 1099.57 3.3751 -1.43118 0
M  V30 11697 H 1099.21 5.01187 0.426742 0
M  V30 11698 H 1098.91 5.75997 -1.16196 0
M  V30 11699 H 1100.44 6.09895 -0.293333 0
M  V30 11700 H 1101.85 5.21335 -2.38501 0
M  V30 11701 H 1100.25 5.0969 -3.16758 0
M  V30 11702 H 1101.32 3.68343 -3.1536 0
M  V30 11703 N 1102.66 0.908147 1.28804 0
M  V30 11704 C 1103.63 0.397058 2.25735 0
M  V30 11705 C 1104.63 -0.473483 1.53671 0
M  V30 11706 O 1105.82 -0.277335 1.71978 0
M  V30 11707 C 1102.95 -0.431392 3.38159 0
M  V30 11708 H 1104.14 1.25323 2.72459 0
M  V30 11709 H 1101.69 0.687041 1.4039 0
M  V30 11710 H 1102.43 -1.3072 2.96787 0
M  V30 11711 H 1102.21 0.192502 3.91627 0
M  V30 11712 H 1103.7 -0.78 4.10251 0
M  V30 11713 N 1104.14 -1.42577 0.671525 0
M  V30 11714 C 1105.09 -2.30798 -0.00883676 0
M  V30 11715 C 1106.06 -1.4578 -0.796076 0
M  V30 11716 O 1107.24 -1.74617 -0.768987 0
M  V30 11717 C 1104.38 -3.31581 -0.956452 0
M  V30 11718 C 1103.5 -4.31691 -0.163381 0
M  V30 11719 C 1102.63 -5.19549 -1.10645 0
M  V30 11720 C 1101.67 -6.1134 -0.304876 0
M  V30 11721 N 1100.81 -6.91761 -1.20048 0
M  V30 11722 H 1105.65 -2.88426 0.749301 0
M  V30 11723 H 1103.18 -1.42074 0.381251 0
M  V30 11724 H 1105.14 -3.88539 -1.51966 0
M  V30 11725 H 1103.77 -2.75561 -1.68126 0
M  V30 11726 H 1102.82 -3.76879 0.516396 0
M  V30 11727 H 1104.14 -4.96683 0.459099 0
M  V30 11728 H 1103.29 -5.81223 -1.73969 0
M  V30 11729 H 1102.03 -4.54726 -1.76282 0
M  V30 11730 H 1101.03 -5.48738 0.341597 0
M  V30 11731 H 1102.26 -6.78211 0.347352 0
M  V30 11732 H 1100.2 -6.2957 -1.84331 0
M  V30 11733 H 1100.12 -7.53345 -0.633003 0
M  V30 11734 H 1101.39 -7.57924 -1.82129 0
M  V30 11735 N 1105.62 -0.414636 -1.52048 0
M  V30 11736 C 1106.9 0.218172 -1.94379 0
M  V30 11737 C 1107.28 1.62133 -1.35189 0
M  V30 11738 O 1106.62 2.22271 -0.529877 0
M  V30 11739 C 1106.83 0.218932 -3.48313 0
M  V30 11740 C 1108.18 0.435604 -4.2236 0
M  V30 11741 O 1109.21 0.298049 -3.54951 0
M  V30 11742 O 1108.06 0.707217 -5.41905 0
M  V30 11743 H 1105.16 0.142173 -0.814688 0
M  V30 11744 H 1107.7 -0.470977 -1.63033 0
M  V30 11745 H 1106.48 -0.76292 -3.83791 0
M  V30 11746 H 1106.1 0.951949 -3.86036 0
M  V30 11747 N 1107.1 1.56929 -0.145233 0
M  V30 11748 C 1108.33 2.00141 0.51257 0
M  V30 11749 C 1108.73 1.0243 1.59075 0
M  V30 11750 O 1108.08 0.0130063 1.83695 0
M  V30 11751 C 1108.14 3.39785 1.17417 0
M  V30 11752 C 1107.8 4.56365 0.240801 0
M  V30 11753 C 1108.8 5.17183 -0.530847 0
M  V30 11754 C 1106.49 5.02093 0.144221 0
M  V30 11755 C 1108.48 6.22136 -1.38654 0
M  V30 11756 C 1106.17 6.06902 -0.71508 0
M  V30 11757 C 1107.16 6.66793 -1.47907 0
M  V30 11758 O 1106.85 7.69573 -2.32405 0
M  V30 11759 H 1106.58 0.661747 0.138085 0
M  V30 11760 H 1109.14 2.04037 -0.236269 0
M  V30 11761 H 1107.37 3.32722 1.97061 0
M  V30 11762 H 1109.06 3.67115 1.73152 0
M  V30 11763 H 1109.82 4.82754 -0.466256 0
M  V30 11764 H 1105.7 4.55206 0.728613 0
M  V30 11765 H 1109.25 6.68812 -1.98333 0
M  V30 11766 H 1105.14 6.40758 -0.78097 0
M  V30 11767 H 1105.91 7.86786 -2.25634 0
M  V30 11768 N 1108.58 -0.128553 1.57075 0
M  V30 11769 C 1109.82 -0.836355 1.83982 0
M  V30 11770 C 1110.14 -1.80862 0.728971 0
M  V30 11771 O 1109.41 -1.94326 -0.247859 0
M  V30 11772 H 1107.99 -0.31185 0.678792 0
M  V30 11773 H 1110.66 -0.118153 1.94542 0
M  V30 11774 H 1109.75 -1.38741 2.79567 0
M  V30 11775 N 1110.05 -1.5248 -0.398459 0
M  V30 11776 C 1111.3 -1.67309 -1.1461 0
M  V30 11777 C 1111.63 -0.407095 -1.89885 0
M  V30 11778 O 1110.91 0.594834 -1.85181 0
M  V30 11779 C 1111.19 -2.90204 -2.13198 0
M  V30 11780 C 1111.04 -4.26881 -1.4175 0
M  V30 11781 C 1112.36 -3.08634 -3.13741 0
M  V30 11782 H 1109.48 -0.608853 -0.415292 0
M  V30 11783 H 1112.12 -1.85057 -0.430573 0
M  V30 11784 H 1110.27 -2.75204 -2.74218 0
M  V30 11785 H 1111.95 -4.53631 -0.837676 0
M  V30 11786 H 1110.19 -4.27793 -0.719387 0
M  V30 11787 H 1110.86 -5.08939 -2.1374 0
M  V30 11788 H 1113.34 -3.22603 -2.62805 0
M  V30 11789 H 1112.21 -3.96117 -3.79977 0
M  V30 11790 H 1112.47 -2.22425 -3.82073 0
M  V30 11791 N 1111.53 0.65634 -1.43283 0
M  V30 11792 C 1112.78 1.41347 -1.44449 0
M  V30 11793 C 1113.1 1.94879 -0.0687217 0
M  V30 11794 O 1112.37 1.74235 0.895492 0
M  V30 11795 H 1110.95 0.524578 -0.531815 0
M  V30 11796 H 1113.61 0.774292 -1.7886 0
M  V30 11797 H 1112.71 2.25737 -2.15521 0
M  V30 11798 N 1113.01 1.29761 0.894412 0
M  V30 11799 C 1114.23 1.21064 1.68399 0
M  V30 11800 C 1114.66 -0.224608 1.86754 0
M  V30 11801 O 1114.02 -1.16199 1.39167 0
M  V30 11802 C 1114.07 1.93468 3.04306 0
M  V30 11803 O 1113.17 1.25533 3.9283 0
M  V30 11804 H 1112.51 0.419223 0.514925 0
M  V30 11805 H 1115.04 1.71421 1.11696 0
M  V30 11806 H 1115.05 2.02127 3.54413 0
M  V30 11807 H 1113.73 2.97857 2.90265 0
M  V30 11808 H 1112.3 1.25168 3.51266 0
M  V30 11809 N 1114.49 -1.10549 1.12324 0
M  V30 11810 C 1115.76 -1.78968 0.789287 0
M  V30 11811 C 1116.14 -1.984 -0.721156 0
M  V30 11812 O 1115.49 -1.5761 -1.65443 0
M  V30 11813 C 1115.7 -3.12044 1.563 0
M  V30 11814 C 1117.05 -3.86939 1.74825 0
M  V30 11815 O 1118.07 -3.21761 1.52802 0
M  V30 11816 O 1116.93 -5.0392 2.11488 0
M  V30 11817 H 1114.03 -0.775617 0.286962 0
M  V30 11818 H 1116.57 -1.17209 1.2272 0
M  V30 11819 H 1115.35 -2.93313 2.59005 0
M  V30 11820 H 1114.97 -3.81521 1.11926 0
M  V30 11821 N 1115.97 -0.914965 -1.28321 0
M  V30 11822 C 1117.21 -0.549562 -1.95212 0
M  V30 11823 C 1117.54 0.904658 -1.71842 0
M  V30 11824 O 1116.82 1.64354 -1.04009 0
M  V30 11825 C 1117.1 -0.860927 -3.49657 0
M  V30 11826 C 1116.96 -2.36797 -3.82423 0
M  V30 11827 C 1118.27 -0.357926 -4.38642 0
M  V30 11828 H 1115.39 -0.201136 -0.709023 0
M  V30 11829 H 1118.04 -1.14443 -1.51667 0
M  V30 11830 H 1116.19 -0.354665 -3.86878 0
M  V30 11831 H 1117.86 -2.94494 -3.55065 0
M  V30 11832 H 1116.1 -2.82245 -3.29424 0
M  V30 11833 H 1116.77 -2.53637 -4.90278 0
M  V30 11834 H 1119.25 -0.791636 -4.085 0
M  V30 11835 H 1118.12 -0.604855 -5.45557 0
M  V30 11836 H 1118.38 0.741775 -4.35833 0
M  V30 11837 N 1117.44 1.42219 -0.679077 0
M  V30 11838 C 1118.67 2.05516 -0.211342 0
M  V30 11839 C 1119.08 1.5113 1.13826 0
M  V30 11840 O 1118.42 0.647593 1.71907 0
M  V30 11841 C 1118.49 3.59425 -0.0736007 0
M  V30 11842 C 1118.15 4.36525 -1.3526 0
M  V30 11843 C 1119.15 4.66897 -2.28698 0
M  V30 11844 C 1116.83 4.76089 -1.60139 0
M  V30 11845 C 1118.83 5.35775 -3.45288 0
M  V30 11846 C 1116.51 5.44706 -2.77017 0
M  V30 11847 C 1117.51 5.74474 -3.69416 0
M  V30 11848 O 1117.2 6.41683 -4.8425 0
M  V30 11849 H 1116.93 0.668662 -0.0993318 0
M  V30 11850 H 1119.49 1.8327 -0.927434 0
M  V30 11851 H 1117.72 3.80346 0.69811 0
M  V30 11852 H 1119.4 4.04346 0.354813 0
M  V30 11853 H 1120.17 4.36828 -2.10729 0
M  V30 11854 H 1116.05 4.5231 -0.890887 0
M  V30 11855 H 1119.59 5.58927 -4.17428 0
M  V30 11856 H 1115.49 5.74194 -2.9491 0
M  V30 11857 H 1116.26 6.60175 -4.8385 0
M  V30 11858 N 1118.92 0.422693 1.51826 0
M  V30 11859 C 1120.15 -0.15017 2.06856 0
M  V30 11860 C 1120.57 -1.36946 1.28948 0
M  V30 11861 O 1119.93 -1.78393 0.32338 0
M  V30 11862 C 1119.98 -0.465563 3.57582 0
M  V30 11863 O 1119.08 -1.55442 3.81984 0
M  V30 11864 H 1118.42 -0.00827931 0.663948 0
M  V30 11865 H 1120.95 0.599806 1.95611 0
M  V30 11866 H 1120.96 -0.720279 4.01592 0
M  V30 11867 H 1119.64 0.425679 4.13716 0
M  V30 11868 H 1118.21 -1.29081 3.49846 0
M  V30 11869 N 1120.4 -1.5685 0.153553 0
M  V30 11870 C 1121.65 -1.96625 -0.49665 0
M  V30 11871 C 1121.98 -1.03877 -1.64083 0
M  V30 11872 O 1121.25 -0.0824112 -1.94325 0
M  V30 11873 C 1121.54 -3.46035 -0.996585 0
M  V30 11874 C 1121.39 -4.49561 0.146551 0
M  V30 11875 C 1122.71 -3.98104 -1.8762 0
M  V30 11876 H 1119.83 -0.714917 -0.179059 0
M  V30 11877 H 1122.47 -1.88527 0.236104 0
M  V30 11878 H 1120.62 -3.53066 -1.621 0
M  V30 11879 H 1122.29 -4.54604 0.783108 0
M  V30 11880 H 1120.53 -4.26271 0.804727 0
M  V30 11881 H 1121.21 -5.51456 -0.245078 0
M  V30 11882 H 1123.68 -3.93593 -1.34997 0
M  V30 11883 H 1122.56 -5.03098 -2.19508 0
M  V30 11884 H 1122.82 -3.40852 -2.81554 0
M  V30 11885 N 1121.88 0.120221 -1.57141 0
M  V30 11886 C 1123.11 0.842441 -1.88972 0
M  V30 11887 C 1123.52 1.73494 -0.744671 0
M  V30 11888 O 1122.88 1.80268 0.284557 0
M  V30 11889 C 1122.93 1.67688 -3.20254 0
M  V30 11890 O 1122.65 0.820319 -4.30351 0
M  V30 11891 C 1124.15 2.50436 -3.65782 0
M  V30 11892 H 1121.37 0.242241 -0.625748 0
M  V30 11893 H 1123.91 0.104978 -2.0423 0
M  V30 11894 H 1122.07 2.36712 -3.0667 0
M  V30 11895 H 1122.48 1.39575 -5.05588 0
M  V30 11896 H 1123.96 3.04518 -4.60405 0
M  V30 11897 H 1124.43 3.27737 -2.92378 0
M  V30 11898 H 1125.04 1.86657 -3.82151 0
M  V30 11899 N 1123.36 1.52689 0.390367 0
M  V30 11900 C 1124.58 1.71839 1.16129 0
M  V30 11901 C 1125.01 0.435226 1.82996 0
M  V30 11902 O 1124.36 -0.60889 1.70769 0
M  V30 11903 C 1124.41 2.86784 2.18603 0
M  V30 11904 O 1123.52 2.53662 3.25161 0
M  V30 11905 H 1122.86 0.571455 0.338135 0
M  V30 11906 H 1125.39 1.99475 0.45508 0
M  V30 11907 H 1125.4 3.12239 2.62622 0
M  V30 11908 H 1124.07 3.79872 1.69322 0
M  V30 11909 H 1122.65 2.38942 2.86289 0
M  V30 11910 N 1124.83 -0.648732 1.43629 0
M  V30 11911 C 1126.08 -1.40857 1.45483 0
M  V30 11912 C 1126.41 -1.94332 0.0807963 0
M  V30 11913 O 1125.66 -1.72999 -0.914875 0
M  V30 11914 C 1125.96 -2.60394 2.44806 0
M  V30 11915 C 1125.63 -2.25311 3.90571 0
M  V30 11916 C 1124.29 -2.15456 4.3027 0
M  V30 11917 C 1126.64 -1.97307 4.8241 0
M  V30 11918 C 1123.97 -1.75759 5.59755 0
M  V30 11919 C 1126.32 -1.59108 6.12264 0
M  V30 11920 C 1124.99 -1.47781 6.50936 0
M  V30 11921 H 1124.26 -0.515434 0.532362 0
M  V30 11922 H 1126.9 -0.737339 1.76736 0
M  V30 11923 H 1125.21 -3.3267 2.06973 0
M  V30 11924 H 1126.91 -3.18609 2.43494 0
M  V30 11925 H 1123.5 -2.33894 3.59154 0
M  V30 11926 H 1127.68 -2.0384 4.52507 0
M  V30 11927 H 1122.94 -1.65579 5.88552 0
M  V30 11928 H 1127.11 -1.36472 6.82897 0
M  V30 11929 H 1124.74 -1.16792 7.51175 0
M  V30 11930 N 1126.31 -1.30234 -0.887518 0
M  V30 11931 C 1127.54 -1.21829 -1.67229 0
M  V30 11932 C 1127.96 0.219251 -1.87523 0
M  V30 11933 O 1127.31 1.14526 -1.42091 0
M  V30 11934 C 1127.36 -1.94044 -3.05007 0
M  V30 11935 O 1127.08 -3.32185 -2.85631 0
M  V30 11936 C 1128.59 -1.92265 -3.99436 0
M  V30 11937 H 1125.81 -0.421716 -0.521916 0
M  V30 11938 H 1128.35 -1.71816 -1.10903 0
M  V30 11939 H 1126.5 -1.47861 -3.58072 0
M  V30 11940 H 1126.92 -3.68724 -3.73018 0
M  V30 11941 H 1128.39 -2.47336 -4.93486 0
M  V30 11942 H 1128.87 -0.900984 -4.29859 0
M  V30 11943 H 1129.48 -2.38247 -3.52305 0
M  V30 11944 N 1127.79 1.09952 -1.12909 0
M  V30 11945 C 1128.7 2.19999 -0.81471 0
M  V30 11946 C 1129.72 1.72864 0.19851 0
M  V30 11947 O 1130.89 2.01376 0.0308832 0
M  V30 11948 C 1127.96 3.45573 -0.279363 0
M  V30 11949 C 1127.02 4.07417 -1.35314 0
M  V30 11950 C 1126.25 5.26996 -0.843247 0
M  V30 11951 O 1126.47 5.69495 0.321164 0
M  V30 11952 O 1125.41 5.79826 -1.61511 0
M  V30 11953 H 1129.23 2.49333 -1.73398 0
M  V30 11954 H 1126.82 1.18784 -0.906128 0
M  V30 11955 H 1128.7 4.21398 0.0140531 0
M  V30 11956 H 1127.38 3.17854 0.612401 0
M  V30 11957 H 1126.28 3.33253 -1.6998 0
M  V30 11958 H 1127.62 4.39349 -2.21885 0
M  V30 11959 N 1129.27 0.921757 1.27833 0
M  V30 11960 C 1130.2 0.433466 2.29441 0
M  V30 11961 C 1131.18 -0.503133 1.62489 0
M  V30 11962 O 1132.36 -0.409156 1.89841 0
M  V30 11963 C 1129.49 -0.320029 3.45822 0
M  V30 11964 C 1128.45 0.528178 4.24728 0
M  V30 11965 C 1127.77 -0.354132 5.33526 0
M  V30 11966 C 1129.07 1.78959 4.90684 0
M  V30 11967 H 1130.77 1.28263 2.70535 0
M  V30 11968 H 1128.31 0.618197 1.30055 0
M  V30 11969 H 1130.27 -0.672526 4.15999 0
M  V30 11970 H 1128.99 -1.20317 3.0363 0
M  V30 11971 H 1127.65 0.863302 3.5629 0
M  V30 11972 H 1127.3 -1.23605 4.87576 0
M  V30 11973 H 1127 0.209855 5.87225 0
M  V30 11974 H 1128.52 -0.702333 6.06547 0
M  V30 11975 H 1129.94 1.50552 5.53179 0
M  V30 11976 H 1128.33 2.29661 5.54415 0
M  V30 11977 H 1129.4 2.51265 4.14721 0
M  V30 11978 N 1130.75 -1.41857 0.686609 0
M  V30 11979 C 1131.71 -2.29187 0.0247022 0
M  V30 11980 C 1132.71 -1.43926 -0.717069 0
M  V30 11981 O 1133.9 -1.65179 -0.5533 0
M  V30 11982 C 1131.03 -3.26644 -0.975537 0
M  V30 11983 H 1132.22 -2.89212 0.793503 0
M  V30 11984 H 1129.78 -1.49694 0.449605 0
M  V30 11985 H 1130.51 -2.7158 -1.77242 0
M  V30 11986 H 1130.3 -3.89545 -0.446892 0
M  V30 11987 H 1131.79 -3.92107 -1.43673 0
M  V30 11988 N 1132.22 -0.430739 -1.51599 0
M  V30 11989 C 1133.64 -0.0826902 -1.59386 0
M  V30 11990 C 1133.84 1.40729 -1.44214 0
M  V30 11991 O 1132.9 2.1765 -1.28002 0
M  V30 11992 C 1134.21 -0.59691 -2.94716 0
M  V30 11993 C 1135.76 -0.556772 -3.08008 0
M  V30 11994 C 1136.23 -1.04786 -4.45852 0
M  V30 11995 N 1137.72 -1.00557 -4.52153 0
M  V30 11996 C 1138.46 -1.35649 -5.57124 0
M  V30 11997 N 1137.95 -1.77994 -6.69545 0
M  V30 11998 N 1139.75 -1.27508 -5.47447 0
M  V30 11999 H 1131.9 -1.40027 -1.59707 0
M  V30 12000 H 1134.16 -0.576606 -0.752482 0
M  V30 12001 H 1133.87 -1.63914 -3.11167 0
M  V30 12002 H 1133.74 -0.0182342 -3.77196 0
M  V30 12003 H 1136.13 0.476457 -2.91228 0
M  V30 12004 H 1136.21 -1.17177 -2.27383 0
M  V30 12005 H 1135.85 -2.07952 -4.63377 0
M  V30 12006 H 1135.78 -0.409461 -5.25006 0
M  V30 12007 H 1138.27 -0.694518 -3.71463 0
M  V30 12008 H 1138.59 -2.03026 -7.45654 0
M  V30 12009 H 1136.93 -1.81916 -6.70769 0
M  V30 12010 H 1140.12 -0.942969 -4.58504 0
M  V30 12011 H 1140.3 -1.55185 -6.29143 0
M  V30 12012 N 1133.7 1.56767 -0.161869 0
M  V30 12013 C 1134.98 1.88245 0.531352 0
M  V30 12014 C 1135.36 1.07025 1.81958 0
M  V30 12015 O 1134.71 0.161385 2.27929 0
M  V30 12016 C 1134.92 3.40117 0.782416 0
M  V30 12017 C 1136.27 4.09655 1.11661 0
M  V30 12018 O 1137.29 3.4538 0.871274 0
M  V30 12019 O 1136.15 5.23192 1.57901 0
M  V30 12020 H 1133.24 0.780725 0.272759 0
M  V30 12021 H 1135.79 1.68522 -0.199597 0
M  V30 12022 H 1134.56 3.91088 -0.128677 0
M  V30 12023 H 1134.18 3.65418 1.56702 0
M  V30 12024 N 1135.18 -0.111886 1.57202 0
M  V30 12025 C 1136.43 -0.816794 1.84859 0
M  V30 12026 C 1136.75 -1.80079 0.748113 0
M  V30 12027 O 1136.02 -1.94578 -0.227235 0
M  V30 12028 H 1134.6 -0.304633 0.682061 0
M  V30 12029 H 1137.26 -0.097513 1.94656 0
M  V30 12030 H 1136.36 -1.35768 2.81022 0
M  V30 12031 N 1136.66 -1.52894 -0.382264 0
M  V30 12032 C 1137.59 -1.74413 -1.48703 0
M  V30 12033 C 1138.6 -0.624663 -1.50339 0
M  V30 12034 O 1139.79 -0.900527 -1.54119 0
M  V30 12035 C 1136.89 -1.79387 -2.8753 0
M  V30 12036 C 1136.07 -3.08794 -3.09783 0
M  V30 12037 C 1135.12 -3.05226 -4.2863 0
M  V30 12038 O 1134.15 -3.79073 -4.24609 0
M  V30 12039 N 1135.35 -2.2488 -5.35172 0
M  V30 12040 H 1138.12 -2.69734 -1.30628 0
M  V30 12041 H 1135.68 -1.51465 -0.571842 0
M  V30 12042 H 1137.67 -1.74498 -3.65147 0
M  V30 12043 H 1136.24 -0.914233 -2.98932 0
M  V30 12044 H 1135.46 -3.27118 -2.19971 0
M  V30 12045 H 1136.75 -3.94347 -3.21509 0
M  V30 12046 H 1136.15 -1.64363 -5.41296 0
M  V30 12047 H 1134.7 -2.25825 -6.1143 0
M  V30 12048 N 1138.14 0.641106 -1.43971 0
M  V30 12049 C 1139.41 1.39897 -1.36704 0
M  V30 12050 C 1139.79 2.1109 -0.0208051 0
M  V30 12051 O 1139.14 2.05638 0.99625 0
M  V30 12052 C 1139.35 2.37366 -2.55849 0
M  V30 12053 C 1140.7 3.01 -2.99473 0
M  V30 12054 O 1141.72 2.47692 -2.55982 0
M  V30 12055 O 1140.58 3.9768 -3.74851 0
M  V30 12056 H 1137.68 0.625623 -0.540855 0
M  V30 12057 H 1140.22 0.666997 -1.56042 0
M  V30 12058 H 1139 1.8379 -3.45452 0
M  V30 12059 H 1138.62 3.17995 -2.38673 0
M  V30 12060 N 1139.62 1.30703 0.880598 0
M  V30 12061 C 1140.86 1.21066 1.64688 0
M  V30 12062 C 1141.22 -0.230015 1.90617 0
M  V30 12063 O 1142.42 -0.449696 2.65012 0
M  V30 12064 C 1140.69 2.02072 2.94791 0
M  V30 12065 S 1142.25 2.09182 3.85731 0
M  V30 12066 H 1139.07 0.431369 0.565192 0
M  V30 12067 H 1141.67 1.65234 1.04489 0
M  V30 12068 H 1140.37 3.05851 2.73648 0
M  V30 12069 H 1139.91 1.58583 3.60021 0
M  V30 12070 H 1141.92 1.22239 4.80908 0
M  V30 12071 N 1141.09 -1.09351 1.1349 0
M  V30 12072 C 1142 -2.19564 0.826366 0
M  V30 12073 C 1143.02 -1.72967 -0.189339 0
M  V30 12074 O 1144.2 -2.0139 -0.0202033 0
M  V30 12075 C 1141.26 -3.4542 0.297685 0
M  V30 12076 C 1140.32 -4.06694 1.37473 0
M  V30 12077 C 1139.55 -5.26542 0.871183 0
M  V30 12078 O 1139.78 -5.69657 -0.290958 0
M  V30 12079 O 1138.71 -5.78961 1.64584 0
M  V30 12080 H 1142.54 -2.4841 1.74718 0
M  V30 12081 H 1140.12 -1.18302 0.912414 0
M  V30 12082 H 1142 -4.21399 0.00829479 0
M  V30 12083 H 1140.68 -3.18175 -0.595536 0
M  V30 12084 H 1139.59 -3.32347 1.71745 0
M  V30 12085 H 1140.92 -4.38166 2.24212 0
M  V30 12086 N 1142.57 -0.928524 -1.27343 0
M  V30 12087 C 1143.99 -0.62889 -1.46687 0
M  V30 12088 C 1144.19 0.821592 -1.83989 0
M  V30 12089 O 1143.24 1.59941 -1.95385 0
M  V30 12090 C 1144.56 -1.57947 -2.55878 0
M  V30 12091 C 1146.1 -1.58778 -2.69738 0
M  V30 12092 C 1146.58 -2.52535 -3.82087 0
M  V30 12093 N 1148.07 -2.50747 -3.89462 0
M  V30 12094 C 1148.81 -3.19981 -4.75814 0
M  V30 12095 N 1148.3 -3.98598 -5.66649 0
M  V30 12096 N 1150.09 -3.08996 -4.69551 0
M  V30 12097 H 1142.25 -1.86625 -1.01414 0
M  V30 12098 H 1144.51 -0.801293 -0.50659 0
M  V30 12099 H 1144.21 -2.61427 -2.35264 0
M  V30 12100 H 1144.09 -1.3218 -3.53282 0
M  V30 12101 H 1146.48 -0.560292 -2.89732 0
M  V30 12102 H 1146.56 -1.88594 -1.72817 0
M  V30 12103 H 1146.2 -3.55395 -3.62846 0
M  V30 12104 H 1146.13 -2.20015 -4.78436 0
M  V30 12105 H 1148.62 -1.93651 -3.24511 0
M  V30 12106 H 1148.93 -4.4841 -6.29403 0
M  V30 12107 H 1147.28 -4.02701 -5.66442 0
M  V30 12108 H 1150.47 -2.4707 -3.97585 0
M  V30 12109 H 1150.64 -3.63223 -5.36631 0
M  V30 12110 N 1144.05 1.41491 -0.694123 0
M  V30 12111 C 1145.3 2.02055 -0.233559 0
M  V30 12112 C 1145.65 1.53987 1.1535 0
M  V30 12113 O 1144.94 0.740611 1.76707 0
M  V30 12114 C 1145.14 3.56666 -0.228869 0
M  V30 12115 C 1144.97 4.1974 -1.61394 0
M  V30 12116 C 1143.74 4.54095 -2.21643 0
M  V30 12117 C 1145.93 4.46043 -2.56028 0
M  V30 12118 N 1143.92 5.02449 -3.5273 0
M  V30 12119 C 1145.29 4.96156 -3.71792 0
M  V30 12120 C 1147.34 4.28053 -2.54313 0
M  V30 12121 C 1146.05 5.3017 -4.8612 0
M  V30 12122 C 1148.07 4.63155 -3.67752 0
M  V30 12123 C 1147.43 5.13438 -4.82246 0
M  V30 12124 H 1143.53 0.77098 -0.130821 0
M  V30 12125 H 1146.12 1.72057 -0.91129 0
M  V30 12126 H 1144.29 3.8614 0.418344 0
M  V30 12127 H 1146.02 4.03949 0.246387 0
M  V30 12128 H 1142.77 4.40501 -1.73943 0
M  V30 12129 H 1143.2 5.31033 -4.1992 0
M  V30 12130 H 1147.84 3.88416 -1.67011 0
M  V30 12131 H 1145.56 5.68731 -5.74083 0
M  V30 12132 H 1149.14 4.50895 -3.67675 0
M  V30 12133 H 1148.02 5.4009 -5.6857 0
M  V30 12134 N 1145.53 0.438773 1.51369 0
M  V30 12135 C 1146.48 -0.386324 2.29369 0
M  V30 12136 C 1147.47 -1.0196 1.3528 0
M  V30 12137 O 1148.68 -0.9544 1.52615 0
M  V30 12138 H 1145.05 -0.143397 0.738201 0
M  V30 12139 H 1147.02 0.292372 2.96964 0
M  V30 12140 C 1145.77 -1.47426 3.14898 0
M  V30 12141 H 1145.09 -0.996335 3.87186 0
M  V30 12142 H 1146.53 -2.02481 3.72529 0
M  V30 12143 C 1144.99 -2.45831 2.30366 0
M  V30 12144 O 1145.52 -3.50398 1.96428 0
M  V30 12145 N 1143.73 -2.16754 1.93561 0
M  V30 12146 H 1143.28 -1.31748 2.2136 0
M  V30 12147 H 1143.23 -2.82836 1.373 0
M  V30 12148 N 1147.01 -1.56678 0.170181 0
M  V30 12149 C 1147.94 -2.13747 -0.799203 0
M  V30 12150 C 1148.92 -1.06725 -1.22673 0
M  V30 12151 O 1150.1 -1.34694 -1.3187 0
M  V30 12152 C 1147.23 -2.67611 -2.07611 0
M  V30 12153 C 1146.27 -3.86994 -1.7927 0
M  V30 12154 S 1147.11 -5.26771 -0.962951 0
M  V30 12155 C 1148.26 -5.84039 -2.25054 0
M  V30 12156 H 1148.5 -2.95637 -0.313976 0
M  V30 12157 H 1146.03 -1.54336 -0.0444708 0
M  V30 12158 H 1147.99 -2.99291 -2.80954 0
M  V30 12159 H 1146.65 -1.85808 -2.53247 0
M  V30 12160 H 1145.84 -4.23006 -2.74011 0
M  V30 12161 H 1145.44 -3.56195 -1.14023 0
M  V30 12162 H 1147.73 -5.96883 -3.20525 0
M  V30 12163 H 1148.68 -6.81145 -1.93513 0
M  V30 12164 H 1149.09 -5.12449 -2.36763 0
M  V30 12165 N 1148.48 0.103547 -1.57259 0
M  V30 12166 C 1149.41 1.12714 -2.04494 0
M  V30 12167 C 1150.39 1.42278 -0.932255 0
M  V30 12168 O 1151.58 1.52453 -1.20298 0
M  V30 12169 C 1148.71 2.44927 -2.46228 0
M  V30 12170 C 1147.66 2.2979 -3.61082 0
M  V30 12171 C 1146.99 3.67105 -3.88765 0
M  V30 12172 C 1148.29 1.7455 -4.9227 0
M  V30 12173 H 1149.98 0.734198 -2.90258 0
M  V30 12174 H 1147.53 0.351725 -1.39638 0
M  V30 12175 H 1149.48 3.16798 -2.77879 0
M  V30 12176 H 1148.21 2.8614 -1.57453 0
M  V30 12177 H 1146.87 1.60366 -3.29664 0
M  V30 12178 H 1146.51 4.05831 -2.97171 0
M  V30 12179 H 1146.21 3.57825 -4.66084 0
M  V30 12180 H 1147.74 4.40456 -4.22884 0
M  V30 12181 H 1149.15 2.36253 -5.22358 0
M  V30 12182 H 1147.55 1.76051 -5.73695 0
M  V30 12183 H 1148.62 0.704242 -4.79759 0
M  V30 12184 N 1149.96 1.53094 0.37415 0
M  V30 12185 C 1150.91 1.75307 1.45779 0
M  V30 12186 C 1151.9 0.607409 1.48994 0
M  V30 12187 O 1153.09 0.865777 1.5438 0
M  V30 12188 C 1150.22 1.93871 2.83318 0
M  V30 12189 C 1149.3 3.14413 2.84614 0
M  V30 12190 N 1149.69 4.36486 2.55565 0
M  V30 12191 C 1147.99 3.14961 3.15778 0
M  V30 12192 C 1148.69 5.18178 2.64322 0
M  V30 12193 N 1147.67 4.54196 2.98675 0
M  V30 12194 H 1151.47 2.67305 1.22169 0
M  V30 12195 H 1148.98 1.51603 0.582254 0
M  V30 12196 H 1150.98 2.0791 3.61357 0
M  V30 12197 H 1149.64 1.03096 3.07898 0
M  V30 12198 H 1150.65 4.64366 2.29314 0
M  V30 12199 H 1147.33 2.34048 3.45728 0
M  V30 12200 H 1148.72 6.25529 2.45282 0
M  V30 12201 N 1151.44 -0.633461 1.44309 0
M  V30 12202 C 1152.85 -1.21504 1.41752 0
M  V30 12203 C 1153.2 -1.95758 0.131667 0
M  V30 12204 O 1152.33 -2.02311 -0.768072 0
M  V30 12205 C 1152.92 -2.21005 2.56792 0
M  V30 12206 C 1151.48 -2.74596 2.57438 0
M  V30 12207 C 1150.63 -1.49555 2.33513 0
M  V30 12208 H 1153.58 -0.424277 1.52923 0
M  V30 12209 H 1153.6 -3.03563 2.29412 0
M  V30 12210 H 1153.11 -1.66934 3.50364 0
M  V30 12211 H 1151.21 -3.32676 1.67801 0
M  V30 12212 H 1151.33 -3.20794 3.55849 0
M  V30 12213 H 1149.69 -1.77605 1.82561 0
M  V30 12214 H 1150.47 -0.973899 3.29196 0
M  V30 12215 N 1152.92 -1.31168 -0.873655 0
M  V30 12216 C 1153.85 -1.21094 -1.99646 0
M  V30 12217 C 1154.83 -0.0989684 -1.69812 0
M  V30 12218 O 1156.01 -0.282939 -1.92128 0
M  V30 12219 C 1153.14 -0.913684 -3.35066 0
M  V30 12220 C 1152.1 -1.98482 -3.79195 0
M  V30 12221 C 1151.42 -1.54033 -5.12033 0
M  V30 12222 C 1152.72 -3.39745 -3.96699 0
M  V30 12223 H 1154.42 -2.1503 -2.08333 0
M  V30 12224 H 1151.96 -1.03521 -1.00097 0
M  V30 12225 H 1153.92 -0.829821 -4.13149 0
M  V30 12226 H 1152.64 0.0613471 -3.26542 0
M  V30 12227 H 1151.3 -2.05851 -3.03349 0
M  V30 12228 H 1150.95 -0.553261 -4.99948 0
M  V30 12229 H 1150.65 -2.25688 -5.4253 0
M  V30 12230 H 1152.17 -1.47047 -5.92629 0
M  V30 12231 H 1153.59 -3.35071 -4.65188 0
M  V30 12232 H 1151.98 -4.09585 -4.38589 0
M  V30 12233 H 1153.05 -3.80802 -3.00196 0
M  V30 12234 N 1154.4 1.08748 -1.14068 0
M  V30 12235 C 1155.31 2.19123 -0.837998 0
M  V30 12236 C 1156.32 1.73065 0.180164 0
M  V30 12237 O 1157.5 2.01398 0.00952285 0
M  V30 12238 C 1154.56 3.45257 -0.316 0
M  V30 12239 C 1153.62 4.05959 -1.39628 0
M  V30 12240 C 1152.86 5.26072 -0.899095 0
M  V30 12241 O 1153.08 5.69804 0.260744 0
M  V30 12242 O 1152.01 5.7808 -1.67652 0
M  V30 12243 H 1155.84 2.4748 -1.76033 0
M  V30 12244 H 1153.43 1.17816 -0.918675 0
M  V30 12245 H 1155.31 4.21389 -0.0306425 0
M  V30 12246 H 1153.98 3.18486 0.578654 0
M  V30 12247 H 1152.89 3.31432 -1.73505 0
M  V30 12248 H 1154.22 4.36971 -2.26533 0
M  V30 12249 N 1155.87 0.935264 1.26849 0
M  V30 12250 C 1157.1 0.596249 1.98122 0
M  V30 12251 C 1157.52 -0.827452 1.69702 0
M  V30 12252 O 1156.87 -1.55095 0.961864 0
M  V30 12253 C 1156.93 0.821773 3.52036 0
M  V30 12254 O 1156.65 2.18947 3.79465 0
M  V30 12255 C 1158.15 0.492498 4.40556 0
M  V30 12256 H 1155.37 0.225242 0.632066 0
M  V30 12257 H 1157.91 1.25435 1.61512 0
M  V30 12258 H 1156.07 0.210363 3.86828 0
M  V30 12259 H 1156.48 2.24509 4.74021 0
M  V30 12260 H 1157.95 0.700953 5.47531 0
M  V30 12261 H 1158.43 -0.57228 4.35456 0
M  V30 12262 H 1159.04 1.08238 4.11296 0
M  V30 12263 N 1157.35 -1.41121 0.701616 0
M  V30 12264 C 1158.76 -1.84122 0.309208 0
M  V30 12265 C 1159.11 -1.58695 -1.15371 0
M  V30 12266 O 1158.24 -1.06053 -1.88631 0
M  V30 12267 C 1158.83 -3.34233 0.554429 0
M  V30 12268 C 1157.39 -3.7578 0.215876 0
M  V30 12269 C 1156.54 -2.6447 0.833729 0
M  V30 12270 H 1159.49 -1.30587 0.901822 0
M  V30 12271 H 1159.51 -3.8005 -0.18491 0
M  V30 12272 H 1159.02 -3.52707 1.61923 0
M  V30 12273 H 1157.13 -3.62905 -0.844421 0
M  V30 12274 H 1157.24 -4.74319 0.675118 0
M  V30 12275 H 1155.6 -2.5334 0.262851 0
M  V30 12276 H 1156.39 -2.85761 1.90252 0
M  V30 12277 N 1158.83 -0.446794 -1.51134 0
M  V30 12278 C 1160.25 -0.0995905 -1.59289 0
M  V30 12279 C 1160.45 1.39191 -1.45699 0
M  V30 12280 O 1159.5 2.1628 -1.30303 0
M  V30 12281 C 1160.82 -0.628135 -2.94066 0
M  V30 12282 C 1162.36 -0.589409 -3.074 0
M  V30 12283 C 1162.84 -1.09509 -4.44715 0
M  V30 12284 N 1164.33 -1.05347 -4.51061 0
M  V30 12285 C 1165.06 -1.41551 -5.55654 0
M  V30 12286 N 1164.56 -1.85086 -6.67619 0
M  V30 12287 N 1166.35 -1.33307 -5.46064 0
M  V30 12288 H 1158.5 -1.41713 -1.58213 0
M  V30 12289 H 1160.77 -0.584555 -0.746324 0
M  V30 12290 H 1160.47 -1.67205 -3.09411 0
M  V30 12291 H 1160.35 -0.0582398 -3.77155 0
M  V30 12292 H 1162.73 0.445541 -2.91717 0
M  V30 12293 H 1162.82 -1.19582 -2.26128 0
M  V30 12294 H 1162.46 -2.12855 -4.61146 0
M  V30 12295 H 1162.39 -0.465122 -5.24542 0
M  V30 12296 H 1164.88 -0.733877 -3.70706 0
M  V30 12297 H 1165.19 -2.10923 -7.43459 0
M  V30 12298 H 1163.54 -1.8902 -6.68802 0
M  V30 12299 H 1166.73 -0.991547 -4.57478 0
M  V30 12300 H 1166.9 -1.6185 -6.27462 0
M  V30 12301 N 1160.31 1.56586 -0.178487 0
M  V30 12302 C 1161.55 1.9739 0.465306 0
M  V30 12303 C 1161.89 1.06474 1.6241 0
M  V30 12304 O 1161.16 0.113316 1.9417 0
M  V30 12305 C 1161.45 3.47577 0.941408 0
M  V30 12306 C 1161.3 4.49271 -0.218054 0
M  V30 12307 C 1162.62 4.01038 1.81263 0
M  V30 12308 H 1159.74 0.717676 0.167663 0
M  V30 12309 H 1162.38 1.88128 -0.266067 0
M  V30 12310 H 1160.53 3.556 1.56463 0
M  V30 12311 H 1162.2 4.53301 -0.855332 0
M  V30 12312 H 1160.44 4.24936 -0.872441 0
M  V30 12313 H 1161.11 5.51776 0.157315 0
M  V30 12314 H 1163.59 3.9569 1.28718 0
M  V30 12315 H 1162.47 5.06526 2.11476 0
M  V30 12316 H 1162.73 3.45288 2.76096 0
M  V30 12317 N 1161.79 -0.095206 1.57312 0
M  V30 12318 C 1163.2 -0.649733 1.7503 0
M  V30 12319 C 1163.55 -1.7912 0.800652 0
M  V30 12320 O 1162.67 -2.1639 -0.0208831 0
M  V30 12321 C 1163.27 -1.18541 3.17386 0
M  V30 12322 C 1161.83 -1.686 3.36528 0
M  V30 12323 C 1160.97 -0.595531 2.7083 0
M  V30 12324 H 1163.93 0.130863 1.5816 0
M  V30 12325 H 1163.95 -2.05473 3.20252 0
M  V30 12326 H 1163.46 -0.35441 3.86478 0
M  V30 12327 H 1161.56 -2.541 2.72514 0
M  V30 12328 H 1161.67 -1.77907 4.44844 0
M  V30 12329 H 1160.04 -1.03495 2.32725 0
M  V30 12330 H 1160.82 0.224883 3.42563 0
M  V30 12331 N 1163.26 -1.53291 -0.366026 0
M  V30 12332 C 1164.49 -1.73108 -1.1277 0
M  V30 12333 C 1164.9 -0.459662 -1.83531 0
M  V30 12334 O 1164.25 0.577151 -1.74398 0
M  V30 12335 C 1164.31 -2.84137 -2.20242 0
M  V30 12336 C 1163.97 -4.24503 -1.69252 0
M  V30 12337 C 1164.97 -5.06866 -1.15684 0
M  V30 12338 C 1162.65 -4.70912 -1.74778 0
M  V30 12339 C 1164.65 -6.33728 -0.683191 0
M  V30 12340 C 1162.33 -5.97752 -1.27025 0
M  V30 12341 C 1163.33 -6.78992 -0.738858 0
M  V30 12342 O 1163.02 -8.03452 -0.268375 0
M  V30 12343 H 1162.75 -0.582439 -0.343134 0
M  V30 12344 H 1165.31 -2.00828 -0.430969 0
M  V30 12345 H 1163.54 -2.5189 -2.93408 0
M  V30 12346 H 1165.23 -2.92136 -2.818 0
M  V30 12347 H 1165.99 -4.72185 -1.10753 0
M  V30 12348 H 1161.87 -4.07751 -2.15081 0
M  V30 12349 H 1165.41 -6.97086 -0.267746 0
M  V30 12350 H 1161.31 -6.31933 -1.31649 0
M  V30 12351 H 1162.08 -8.17581 -0.387745 0
M  V30 12352 N 1164.74 0.6258 -1.44643 0
M  V30 12353 C 1165.99 1.38125 -1.46984 0
M  V30 12354 C 1166.3 1.95299 -0.108429 0
M  V30 12355 O 1167.51 2.71498 -0.00940005 0
M  V30 12356 C 1165.97 2.50108 -2.58793 0
M  V30 12357 C 1165.57 1.99424 -4.01166 0
M  V30 12358 C 1167.32 3.27269 -2.70361 0
M  V30 12359 C 1165.23 3.08781 -5.04389 0
M  V30 12360 H 1164.16 0.519083 -0.546872 0
M  V30 12361 H 1166.81 0.67268 -1.70726 0
M  V30 12362 H 1165.19 3.23565 -2.28302 0
M  V30 12363 H 1166.36 1.32797 -4.4125 0
M  V30 12364 H 1164.68 1.35063 -3.93887 0
M  V30 12365 H 1167.27 4.08802 -3.44652 0
M  V30 12366 H 1167.62 3.77097 -1.76362 0
M  V30 12367 H 1168.15 2.60905 -3.00289 0
M  V30 12368 H 1164.89 2.63891 -6.00035 0
M  V30 12369 H 1164.41 3.74033 -4.68892 0
M  V30 12370 H 1166.09 3.73469 -5.28328 0
M  V30 12371 N 1166.22 1.31629 0.866686 0
M  V30 12372 C 1167.18 1.1951 1.95576 0
M  V30 12373 C 1168.18 0.121319 1.60342 0
M  V30 12374 O 1169.37 0.370832 1.70207 0
M  V30 12375 C 1166.51 0.835201 3.30511 0
M  V30 12376 H 1167.7 2.16285 2.07752 0
M  V30 12377 H 1165.25 1.15288 1.05539 0
M  V30 12378 H 1165.99 -0.131245 3.24034 0
M  V30 12379 H 1165.77 1.61142 3.57457 0
M  V30 12380 H 1167.26 0.774393 4.10357 0
M  V30 12381 N 1167.7 -1.08142 1.14644 0
M  V30 12382 C 1168.63 -2.15022 0.793614 0
M  V30 12383 C 1169.64 -1.61679 -0.190729 0
M  V30 12384 O 1170.83 -1.78472 0.0313696 0
M  V30 12385 C 1167.93 -3.38532 0.157785 0
M  V30 12386 C 1167.11 -4.21252 1.17753 0
M  V30 12387 C 1166.17 -5.23158 0.564968 0
M  V30 12388 O 1165.19 -5.5578 1.22869 0
M  V30 12389 N 1166.39 -5.7677 -0.657022 0
M  V30 12390 H 1169.16 -2.45893 1.71338 0
M  V30 12391 H 1166.72 -1.23976 1.04122 0
M  V30 12392 H 1168.71 -4.03834 -0.264586 0
M  V30 12393 H 1167.28 -3.05441 -0.665168 0
M  V30 12394 H 1166.5 -3.51888 1.77675 0
M  V30 12395 H 1167.79 -4.73335 1.86632 0
M  V30 12396 H 1167.19 -5.52503 -1.21478 0
M  V30 12397 H 1165.74 -6.4374 -1.02186 0
M  V30 12398 N 1169.18 -0.941978 -1.26351 0
M  V30 12399 C 1170.42 -0.590845 -1.94002 0
M  V30 12400 C 1170.76 0.868004 -1.73722 0
M  V30 12401 O 1170.03 1.62111 -1.07472 0
M  V30 12402 C 1170.31 -0.934901 -3.47752 0
M  V30 12403 C 1170.17 -2.44855 -3.77314 0
M  V30 12404 C 1171.49 -0.450888 -4.37784 0
M  V30 12405 H 1168.61 -0.21613 -0.704597 0
M  V30 12406 H 1171.25 -1.17634 -1.49205 0
M  V30 12407 H 1169.4 -0.436648 -3.86038 0
M  V30 12408 H 1171.07 -3.01959 -3.48738 0
M  V30 12409 H 1169.31 -2.89169 -3.23363 0
M  V30 12410 H 1169.98 -2.6398 -4.84787 0
M  V30 12411 H 1172.46 -0.878107 -4.06729 0
M  V30 12412 H 1171.34 -0.720439 -5.44152 0
M  V30 12413 H 1171.6 0.649162 -4.37308 0
M  V30 12414 N 1170.66 1.40747 -0.709091 0
M  V30 12415 C 1171.59 2.282 -0.00156906 0
M  V30 12416 C 1172.57 1.42981 0.774279 0
M  V30 12417 O 1173.75 1.724 0.762276 0
M  V30 12418 C 1170.88 3.23441 1.00517 0
M  V30 12419 C 1169.92 4.25291 0.320904 0
M  V30 12420 S 1170.76 5.27069 -0.946518 0
M  V30 12421 C 1171.91 6.25873 0.0582856 0
M  V30 12422 H 1172.15 2.87859 -0.743271 0
M  V30 12423 H 1169.68 1.46085 -0.499866 0
M  V30 12424 H 1171.64 3.78841 1.58082 0
M  V30 12425 H 1170.3 2.62851 1.71954 0
M  V30 12426 H 1169.49 4.92255 1.08173 0
M  V30 12427 H 1169.09 3.73557 -0.18202 0
M  V30 12428 H 1171.38 6.71398 0.907233 0
M  V30 12429 H 1172.33 7.05739 -0.577787 0
M  V30 12430 H 1172.74 5.62942 0.419108 0
M  V30 12431 N 1172.13 0.454803 1.50895 0
M  V30 12432 C 1173.08 -0.361974 2.29766 0
M  V30 12433 C 1174.08 -1.00519 1.36353 0
M  V30 12434 O 1175.28 -0.938159 1.53618 0
M  V30 12435 H 1171.66 -0.135559 0.739681 0
M  V30 12436 H 1173.63 0.323853 2.96637 0
M  V30 12437 C 1172.38 -1.44078 3.16444 0
M  V30 12438 H 1171.7 -0.955212 3.88221 0
M  V30 12439 H 1173.14 -1.98518 3.74655 0
M  V30 12440 C 1171.6 -2.43374 2.32961 0
M  V30 12441 O 1172.13 -3.48295 2.00133 0
M  V30 12442 N 1170.33 -2.14689 1.95849 0
M  V30 12443 H 1169.88 -1.29392 2.22745 0
M  V30 12444 H 1169.84 -2.81363 1.40292 0
M  V30 12445 N 1173.61 -1.56489 0.186789 0
M  V30 12446 C 1174.89 -1.89066 -0.501337 0
M  V30 12447 C 1175.27 -1.09906 -1.80233 0
M  V30 12448 O 1174.62 -0.197626 -2.27644 0
M  V30 12449 C 1174.83 -3.41318 -0.728207 0
M  V30 12450 C 1176.17 -4.11379 -1.0513 0
M  V30 12451 O 1177.2 -3.46722 -0.816216 0
M  V30 12452 O 1176.06 -5.25638 -1.49557 0
M  V30 12453 H 1173.15 -0.784966 -0.260303 0
M  V30 12454 H 1175.7 -1.68183 0.226382 0
M  V30 12455 H 1174.47 -3.90834 0.19088 0
M  V30 12456 H 1174.09 -3.67865 -1.50869 0
M  V30 12457 N 1175.09 0.086862 -1.5736 0
M  V30 12458 C 1176.05 1.08906 -2.01673 0
M  V30 12459 C 1177.05 1.32473 -0.911463 0
M  V30 12460 O 1178.24 1.28447 -1.17673 0
M  V30 12461 C 1175.37 2.43629 -2.38449 0
M  V30 12462 H 1176.57 0.707461 -2.91436 0
M  V30 12463 H 1174.12 0.332154 -1.5273 0
M  V30 12464 H 1174.86 2.8665 -1.51665 0
M  V30 12465 H 1174.64 2.2787 -3.19089 0
M  V30 12466 H 1176.13 3.15695 -2.73361 0
M  V30 12467 N 1176.57 1.53483 0.357892 0
M  V30 12468 C 1177.98 1.61641 0.934289 0
M  V30 12469 C 1178.33 0.488655 1.90017 0
M  V30 12470 O 1177.45 -0.38378 2.1297 0
M  V30 12471 C 1178.05 2.92987 1.7013 0
M  V30 12472 C 1176.61 3.03456 2.22692 0
M  V30 12473 C 1175.76 2.56992 1.04165 0
M  V30 12474 H 1178.71 1.58112 0.136452 0
M  V30 12475 H 1178.73 2.81221 2.5631 0
M  V30 12476 H 1178.24 3.75047 0.998056 0
M  V30 12477 H 1176.34 2.25999 2.96235 0
M  V30 12478 H 1176.45 4.08673 2.50046 0
M  V30 12479 H 1174.82 2.12052 1.41088 0
M  V30 12480 H 1175.6 3.41477 0.353272 0
M  V30 12481 N 1178.05 -0.61812 1.44973 0
M  V30 12482 C 1179.01 -1.71135 1.52465 0
M  V30 12483 C 1180.01 -1.5561 0.405246 0
M  V30 12484 O 1181.2 -1.60869 0.668351 0
M  V30 12485 C 1178.33 -3.10324 1.41108 0
M  V30 12486 H 1179.52 -1.65862 2.49859 0
M  V30 12487 H 1177.08 -0.832932 1.32257 0
M  V30 12488 H 1177.81 -3.21183 0.448574 0
M  V30 12489 H 1177.6 -3.23001 2.2229 0
M  V30 12490 H 1179.09 -3.89976 1.49361 0
M  V30 12491 N 1179.52 -1.32087 -0.859693 0
M  V30 12492 C 1180.77 -1.22542 -1.6159 0
M  V30 12493 C 1181.1 0.213533 -1.93022 0
M  V30 12494 O 1180.38 1.14931 -1.56911 0
M  V30 12495 C 1180.66 -2.08004 -2.93949 0
M  V30 12496 C 1180.51 -3.60252 -2.6933 0
M  V30 12497 C 1181.83 -1.93732 -3.95166 0
M  V30 12498 H 1178.95 -0.446504 -0.586347 0
M  V30 12499 H 1181.59 -1.61982 -0.993064 0
M  V30 12500 H 1179.74 -1.74498 -3.47106 0
M  V30 12501 H 1181.42 -4.03947 -2.22766 0
M  V30 12502 H 1179.66 -3.83169 -2.03382 0
M  V30 12503 H 1180.33 -4.1537 -3.63555 0
M  V30 12504 H 1182.81 -2.23075 -3.5125 0
M  V30 12505 H 1181.68 -2.55815 -4.85644 0
M  V30 12506 H 1181.94 -0.903528 -4.32769 0
M  V30 12507 N 1181 1.07532 -1.15215 0
M  V30 12508 C 1181.96 2.1286 -0.84989 0
M  V30 12509 C 1182.96 1.60103 0.149524 0
M  V30 12510 O 1184.15 1.74017 -0.0798918 0
M  V30 12511 C 1181.29 3.3984 -0.268617 0
M  V30 12512 H 1182.48 2.41106 -1.78347 0
M  V30 12513 H 1180.03 1.23392 -0.959386 0
M  V30 12514 H 1180.77 3.17235 0.67325 0
M  V30 12515 H 1180.55 3.79433 -0.988592 0
M  V30 12516 H 1182.04 4.17533 -0.0746554 0
M  V30 12517 N 1182.48 0.948665 1.2585 0
M  V30 12518 C 1183.71 0.616741 1.98018 0
M  V30 12519 C 1184.13 -0.803005 1.70098 0
M  V30 12520 O 1183.49 -1.54208 0.953392 0
M  V30 12521 C 1183.54 0.874429 3.49837 0
M  V30 12522 O 1182.64 -0.0497568 4.1237 0
M  V30 12523 H 1181.98 0.235112 0.620982 0
M  V30 12524 H 1184.51 1.27364 1.60124 0
M  V30 12525 H 1184.52 0.798309 4.00114 0
M  V30 12526 H 1183.2 1.90922 3.69488 0
M  V30 12527 H 1181.77 0.0780591 3.72818 0
M  V30 12528 N 1183.96 -1.40369 0.716545 0
M  V30 12529 C 1185.19 -2.05181 0.266143 0
M  V30 12530 C 1185.6 -1.53988 -1.09239 0
M  V30 12531 O 1184.96 -0.696859 -1.68672 0
M  V30 12532 C 1185.01 -3.60713 0.238384 0
M  V30 12533 O 1184.73 -4.10018 1.54328 0
M  V30 12534 C 1186.23 -4.42701 -0.230453 0
M  V30 12535 H 1183.45 -0.66028 0.119463 0
M  V30 12536 H 1186 -1.7976 0.97502 0
M  V30 12537 H 1184.15 -3.85101 -0.421466 0
M  V30 12538 H 1184.56 -5.0422 1.4444 0
M  V30 12539 H 1186.04 -5.51642 -0.198728 0
M  V30 12540 H 1186.52 -4.20354 -1.27276 0
M  V30 12541 H 1187.12 -4.23423 0.399155 0
M  V30 12542 N 1185.44 -0.462799 -1.50652 0
M  V30 12543 C 1186.71 0.156221 -1.94975 0
M  V30 12544 C 1187.09 1.5775 -1.40279 0
M  V30 12545 O 1186.44 2.20473 -0.600323 0
M  V30 12546 C 1186.65 0.108008 -3.48833 0
M  V30 12547 C 1188 0.301013 -4.23532 0
M  V30 12548 O 1189.02 0.184973 -3.55719 0
M  V30 12549 O 1187.88 0.534457 -5.4388 0
M  V30 12550 H 1184.98 0.116182 -0.818798 0
M  V30 12551 H 1187.52 -0.522607 -1.61453 0
M  V30 12552 H 1186.29 -0.884634 -3.81169 0
M  V30 12553 H 1185.92 0.828653 -3.88869 0
M  V30 12554 N 1186.91 1.56388 -0.195085 0
M  V30 12555 C 1188.14 2.0167 0.448637 0
M  V30 12556 C 1188.55 1.07439 1.55736 0
M  V30 12557 O 1187.9 0.071441 1.83561 0
M  V30 12558 C 1187.96 3.43348 1.06547 0
M  V30 12559 C 1187.62 4.569 0.0954901 0
M  V30 12560 C 1188.62 5.15232 -0.695116 0
M  V30 12561 C 1186.3 5.02298 -0.0155889 0
M  V30 12562 C 1188.3 6.1741 -1.58377 0
M  V30 12563 C 1185.98 6.0432 -0.907799 0
M  V30 12564 C 1186.98 6.6175 -1.69045 0
M  V30 12565 O 1186.67 7.6179 -2.56771 0
M  V30 12566 H 1186.4 0.665805 0.116962 0
M  V30 12567 H 1188.96 2.03182 -0.301062 0
M  V30 12568 H 1187.19 3.38823 1.86376 0
M  V30 12569 H 1188.88 3.72438 1.61385 0
M  V30 12570 H 1189.64 4.81026 -0.619604 0
M  V30 12571 H 1185.52 4.57293 0.583424 0
M  V30 12572 H 1189.06 6.62164 -2.1951 0
M  V30 12573 H 1184.96 6.37949 -0.984427 0
M  V30 12574 H 1185.73 7.79209 -2.50551 0
M  V30 12575 N 1188.39 -0.0785156 1.57404 0
M  V30 12576 C 1189.33 -1.12563 1.98506 0
M  V30 12577 C 1190.3 -1.3794 0.860891 0
M  V30 12578 O 1191.49 -1.51425 1.12262 0
M  V30 12579 C 1188.61 -2.47139 2.31603 0
M  V30 12580 C 1187.66 -2.3794 3.53959 0
M  V30 12581 S 1188.49 -1.77997 5.05052 0
M  V30 12582 C 1189.65 -3.14164 5.41342 0
M  V30 12583 H 1189.88 -0.775328 2.87012 0
M  V30 12584 H 1187.42 -0.286806 1.51713 0
M  V30 12585 H 1189.37 -3.24554 2.51346 0
M  V30 12586 H 1188.03 -2.79333 1.43638 0
M  V30 12587 H 1187.23 -3.37168 3.74612 0
M  V30 12588 H 1186.83 -1.68659 3.33812 0
M  V30 12589 H 1189.12 -4.10467 5.39002 0
M  V30 12590 H 1190.06 -2.98298 6.42202 0
M  V30 12591 H 1190.47 -3.1446 4.68802 0
M  V30 12592 N 1189.87 -1.5367 -0.349747 0
M  V30 12593 C 1190.82 -1.81223 -1.42922 0
M  V30 12594 C 1191.79 -0.657536 -1.52531 0
M  V30 12595 O 1192.97 -0.90134 -1.68168 0
M  V30 12596 C 1190.11 -2.022 -2.79659 0
M  V30 12597 C 1189.23 -3.29915 -2.78891 0
M  V30 12598 C 1188.36 -3.40993 -4.07305 0
M  V30 12599 C 1187.4 -4.6268 -4.00741 0
M  V30 12600 N 1186.54 -4.70826 -5.20833 0
M  V30 12601 H 1191.38 -2.73328 -1.18727 0
M  V30 12602 H 1188.91 -1.35386 -0.57525 0
M  V30 12603 H 1190.87 -2.12351 -3.59114 0
M  V30 12604 H 1189.5 -1.13416 -3.0222 0
M  V30 12605 H 1188.55 -3.28637 -1.91577 0
M  V30 12606 H 1189.87 -4.19459 -2.69917 0
M  V30 12607 H 1189.02 -3.50542 -4.95182 0
M  V30 12608 H 1187.76 -2.49493 -4.19052 0
M  V30 12609 H 1186.76 -4.53215 -3.11249 0
M  V30 12610 H 1187.99 -5.55538 -3.90582 0
M  V30 12611 H 1185.93 -3.82233 -5.33136 0
M  V30 12612 H 1185.85 -5.54297 -5.14092 0
M  V30 12613 H 1187.12 -4.84677 -6.10499 0
M  V30 12614 N 1191.35 0.610423 -1.45298 0
M  V30 12615 C 1192.28 1.73207 -1.56594 0
M  V30 12616 C 1193.26 1.64893 -0.417651 0
M  V30 12617 O 1194.44 1.83336 -0.64043 0
M  V30 12618 C 1191.57 3.11803 -1.52959 0
M  V30 12619 C 1190.53 3.34925 -2.66475 0
M  V30 12620 C 1189.85 4.73764 -2.47894 0
M  V30 12621 C 1191.15 3.25456 -4.08504 0
M  V30 12622 H 1192.85 1.6401 -2.50482 0
M  V30 12623 H 1190.39 0.787621 -1.20551 0
M  V30 12624 H 1192.35 3.90065 -1.59458 0
M  V30 12625 H 1191.07 3.21833 -0.55599 0
M  V30 12626 H 1189.73 2.59051 -2.59399 0
M  V30 12627 H 1189.38 4.80524 -1.4868 0
M  V30 12628 H 1189.08 4.90191 -3.24016 0
M  V30 12629 H 1190.6 5.54231 -2.56243 0
M  V30 12630 H 1192.02 3.93597 -4.16839 0
M  V30 12631 H 1190.41 3.53414 -4.84994 0
M  V30 12632 H 1191.48 2.22939 -4.30612 0
M  V30 12633 N 1192.83 1.32541 0.852676 0
M  V30 12634 C 1194.07 1.23214 1.607 0
M  V30 12635 C 1194.4 -0.205542 1.93411 0
M  V30 12636 O 1193.66 -1.15907 1.57683 0
M  V30 12637 C 1193.96 2.039 2.9353 0
M  V30 12638 C 1193.62 3.53237 2.8024 0
M  V30 12639 C 1192.28 3.93953 2.76323 0
M  V30 12640 C 1194.64 4.48194 2.6603 0
M  V30 12641 C 1191.96 5.27865 2.56077 0
M  V30 12642 C 1194.32 5.82251 2.47319 0
M  V30 12643 C 1192.98 6.22166 2.41796 0
M  V30 12644 H 1192.25 0.450873 0.588043 0
M  V30 12645 H 1194.9 1.63988 0.988954 0
M  V30 12646 H 1193.2 1.55861 3.59464 0
M  V30 12647 H 1194.9 1.94051 3.50921 0
M  V30 12648 H 1191.49 3.209 2.84114 0
M  V30 12649 H 1195.67 4.17656 2.681 0
M  V30 12650 H 1190.93 5.57845 2.50237 0
M  V30 12651 H 1195.1 6.55442 2.35305 0
M  V30 12652 H 1192.73 7.2587 2.25868 0
M  V30 12653 N 1194.3 -1.0692 1.15784 0
M  V30 12654 C 1195.27 -2.12407 0.861167 0
M  V30 12655 C 1196.27 -1.6018 -0.141031 0
M  V30 12656 O 1197.46 -1.73972 0.0891192 0
M  V30 12657 C 1194.59 -3.39693 0.286636 0
M  V30 12658 H 1195.78 -2.40157 1.79623 0
M  V30 12659 H 1193.34 -1.22881 0.965916 0
M  V30 12660 H 1194.07 -3.17587 -0.656417 0
M  V30 12661 H 1193.86 -3.78903 1.0087 0
M  V30 12662 H 1195.35 -4.17488 0.0967971 0
M  V30 12663 N 1195.78 -0.955326 -1.25345 0
M  V30 12664 C 1196.69 -0.482707 -2.2958 0
M  V30 12665 C 1197.71 0.450283 -1.68073 0
M  V30 12666 O 1198.88 0.326358 -1.98738 0
M  V30 12667 C 1195.95 0.231293 -3.45928 0
M  V30 12668 C 1195.01 -0.739995 -4.22874 0
M  V30 12669 C 1194.24 -0.0599748 -5.33666 0
M  V30 12670 O 1194.47 1.15423 -5.586 0
M  V30 12671 O 1193.4 -0.745865 -5.97261 0
M  V30 12672 H 1197.23 -1.34892 -2.72099 0
M  V30 12673 H 1194.81 -0.721812 -1.30806 0
M  V30 12674 H 1196.69 0.632908 -4.1662 0
M  V30 12675 H 1195.37 1.07267 -3.0541 0
M  V30 12676 H 1194.28 -1.19183 -3.54607 0
M  V30 12677 H 1195.61 -1.54941 -4.67177 0
M  V30 12678 N 1197.26 1.39987 -0.723979 0
M  V30 12679 C 1198.19 2.2917 -0.0373445 0
M  V30 12680 C 1199.21 1.46258 0.715015 0
M  V30 12681 O 1200.4 1.69455 0.561003 0
M  V30 12682 C 1197.5 3.2468 0.971384 0
M  V30 12683 C 1196.67 4.36485 0.282826 0
M  V30 12684 C 1195.73 5.12379 1.19811 0
M  V30 12685 O 1194.75 5.65127 0.67974 0
M  V30 12686 N 1195.96 5.22531 2.52866 0
M  V30 12687 H 1198.72 2.88738 -0.803131 0
M  V30 12688 H 1196.28 1.51448 -0.572292 0
M  V30 12689 H 1198.27 3.72326 1.58606 0
M  V30 12690 H 1196.84 2.6622 1.63846 0
M  V30 12691 H 1196.06 3.90859 -0.512167 0
M  V30 12692 H 1197.35 5.08427 -0.194793 0
M  V30 12693 H 1196.75 4.81174 2.97469 0
M  V30 12694 H 1195.31 5.73655 3.09457 0
M  V30 12695 N 1198.74 0.470782 1.50404 0
M  V30 12696 C 1199.99 -0.0844409 2.02624 0
M  V30 12697 C 1200.32 -1.39398 1.3521 0
M  V30 12698 O 1199.59 -1.88542 0.477707 0
M  V30 12699 C 1199.88 -0.268563 3.59097 0
M  V30 12700 C 1199.73 1.06198 4.37084 0
M  V30 12701 C 1201.05 -1.02324 4.28039 0
M  V30 12702 H 1198.17 -0.0292141 0.736421 0
M  V30 12703 H 1200.81 0.616312 1.79726 0
M  V30 12704 H 1198.96 -0.865441 3.78738 0
M  V30 12705 H 1200.63 1.69541 4.29015 0
M  V30 12706 H 1198.87 1.65868 4.00837 0
M  V30 12707 H 1199.55 0.886795 5.4483 0
M  V30 12708 H 1202.02 -0.517325 4.12872 0
M  V30 12709 H 1200.9 -1.12087 5.37334 0
M  V30 12710 H 1201.16 -2.05974 3.91187 0
M  V30 12711 N 1200.22 -1.56282 0.203376 0
M  V30 12712 C 1201.63 -1.58871 -0.152335 0
M  V30 12713 C 1201.83 -1.21978 -1.60386 0
M  V30 12714 O 1200.89 -0.946422 -2.34092 0
M  V30 12715 C 1202.2 -3.00287 0.157515 0
M  V30 12716 C 1203.75 -3.12846 0.098287 0
M  V30 12717 C 1204.23 -4.56408 0.38156 0
M  V30 12718 N 1205.72 -4.6202 0.330475 0
M  V30 12719 C 1206.45 -5.71006 0.523397 0
M  V30 12720 N 1205.95 -6.88428 0.777115 0
M  V30 12721 N 1207.74 -5.60238 0.457082 0
M  V30 12722 H 1199.89 -1.78543 1.15048 0
M  V30 12723 H 1202.15 -0.829019 0.459816 0
M  V30 12724 H 1201.86 -3.3187 1.16427 0
M  V30 12725 H 1201.73 -3.73372 -0.536041 0
M  V30 12726 H 1204.12 -2.8107 -0.899085 0
M  V30 12727 H 1204.2 -2.42129 0.825045 0
M  V30 12728 H 1203.85 -4.88897 1.37629 0
M  V30 12729 H 1203.78 -5.25325 -0.366182 0
M  V30 12730 H 1206.27 -3.77636 0.141327 0
M  V30 12731 H 1206.58 -7.67389 0.912911 0
M  V30 12732 H 1204.93 -6.90215 0.814104 0
M  V30 12733 H 1208.12 -4.67382 0.259226 0
M  V30 12734 H 1208.29 -6.45114 0.610848 0
M  V30 12735 N 1201.7 0.070167 -1.57444 0
M  V30 12736 C 1202.92 0.781894 -1.91557 0
M  V30 12737 C 1203.34 1.71037 -0.799489 0
M  V30 12738 O 1202.7 1.81082 0.227062 0
M  V30 12739 C 1202.75 1.57415 -3.25427 0
M  V30 12740 O 1202.47 0.682991 -4.32743 0
M  V30 12741 C 1203.97 2.38673 -3.73564 0
M  V30 12742 H 1201.19 0.222211 -0.633138 0
M  V30 12743 H 1203.73 0.0399504 -2.04461 0
M  V30 12744 H 1201.89 2.26835 -3.14045 0
M  V30 12745 H 1202.3 1.2342 -5.09772 0
M  V30 12746 H 1203.78 2.89716 -4.6986 0
M  V30 12747 H 1204.25 3.18269 -3.02657 0
M  V30 12748 H 1204.86 1.74405 -3.87896 0
M  V30 12749 N 1203.17 1.53854 0.341593 0
M  V30 12750 C 1204.4 1.7488 1.10002 0
M  V30 12751 C 1204.81 0.488802 1.82777 0
M  V30 12752 O 1204.15 -0.549333 1.75294 0
M  V30 12753 C 1204.22 2.87604 2.15694 0
M  V30 12754 C 1203.88 4.27142 1.62477 0
M  V30 12755 C 1204.88 5.08642 1.07606 0
M  V30 12756 C 1202.56 4.73633 1.67265 0
M  V30 12757 C 1204.56 6.34735 0.582284 0
M  V30 12758 C 1202.24 5.99697 1.175 0
M  V30 12759 C 1203.24 6.80081 0.630742 0
M  V30 12760 O 1202.93 8.03777 0.140519 0
M  V30 12761 H 1202.66 0.587824 0.333824 0
M  V30 12762 H 1205.22 2.01488 0.398965 0
M  V30 12763 H 1203.45 2.56526 2.89364 0
M  V30 12764 H 1205.13 2.96583 2.77117 0
M  V30 12765 H 1205.9 4.73887 1.03227 0
M  V30 12766 H 1201.78 4.11121 2.08567 0
M  V30 12767 H 1205.32 6.97424 0.156811 0
M  V30 12768 H 1201.22 6.33947 1.21579 0
M  V30 12769 H 1201.99 8.18094 0.257626 0
M  V30 12770 N 1204.65 -0.602709 1.4562 0
M  V30 12771 C 1205.9 -1.36359 1.50113 0
M  V30 12772 C 1206.23 -1.93663 0.144297 0
M  V30 12773 O 1205.51 -1.75337 -0.841851 0
M  V30 12774 C 1205.79 -2.50788 2.58413 0
M  V30 12775 C 1205.64 -1.98649 4.03557 0
M  V30 12776 C 1206.96 -3.52905 2.62957 0
M  V30 12777 H 1204.08 -0.494455 0.54652 0
M  V30 12778 H 1206.72 -0.678957 1.77455 0
M  V30 12779 H 1204.87 -3.09191 2.3523 0
M  V30 12780 H 1206.54 -1.44857 4.37966 0
M  V30 12781 H 1204.79 -1.29615 4.13984 0
M  V30 12782 H 1205.46 -2.81159 4.7503 0
M  V30 12783 H 1207.93 -3.0435 2.83743 0
M  V30 12784 H 1206.81 -4.30454 3.40589 0
M  V30 12785 H 1207.07 -4.0884 1.68233 0
M  V30 12786 N 1206.13 -1.32992 -0.845635 0
M  V30 12787 C 1207.54 -1.21616 -1.41656 0
M  V30 12788 C 1207.89 0.167687 -1.95482 0
M  V30 12789 O 1207.02 1.06692 -1.8827 0
M  V30 12790 C 1207.61 -2.2018 -2.575 0
M  V30 12791 C 1206.17 -2.12664 -3.10565 0
M  V30 12792 C 1205.32 -2.08042 -1.83341 0
M  V30 12793 H 1208.27 -1.44688 -0.651993 0
M  V30 12794 H 1208.29 -1.80558 -3.34931 0
M  V30 12795 H 1207.8 -3.20888 -2.18294 0
M  V30 12796 H 1205.9 -1.15235 -3.54333 0
M  V30 12797 H 1206.02 -3.02902 -3.71197 0
M  V30 12798 H 1204.38 -1.53416 -2.03312 0
M  V30 12799 H 1205.16 -3.10547 -1.46339 0
M  V30 12800 N 1207.61 1.06304 -1.1635 0
M  V30 12801 C 1208.57 2.11947 -0.872419 0
M  V30 12802 C 1209.57 1.60253 0.132534 0
M  V30 12803 O 1210.76 1.73922 -0.0983441 0
M  V30 12804 C 1207.89 3.39536 -0.304646 0
M  V30 12805 H 1209.09 2.39201 -1.80894 0
M  V30 12806 H 1206.64 1.22367 -0.972419 0
M  V30 12807 H 1207.37 3.17931 0.639565 0
M  V30 12808 H 1207.16 3.78363 -1.02878 0
M  V30 12809 H 1208.65 4.17431 -0.118936 0
M  V30 12810 N 1209.09 0.96196 1.24836 0
M  V30 12811 C 1210.36 0.537809 1.88061 0
M  V30 12812 C 1210.74 -0.985023 1.8671 0
M  V30 12813 O 1210.09 -1.85394 1.33572 0
M  V30 12814 C 1210.3 1.12279 3.30446 0
M  V30 12815 C 1211.65 1.20414 4.07168 0
M  V30 12816 O 1212.67 1.07488 3.39595 0
M  V30 12817 O 1211.53 1.4078 5.28056 0
M  V30 12818 H 1208.63 0.178491 0.807509 0
M  V30 12819 H 1211.17 1.05586 1.32852 0
M  V30 12820 H 1209.94 2.16578 3.25898 0
M  V30 12821 H 1209.57 0.58843 3.93222 0
M  V30 12822 N 1210.56 -1.39601 0.731392 0
M  V30 12823 C 1211.84 -1.94531 0.20422 0
M  V30 12824 C 1212.22 -1.66845 -1.29329 0
M  V30 12825 O 1211.57 -0.994706 -2.05713 0
M  V30 12826 C 1211.78 -3.44891 0.53395 0
M  V30 12827 C 1213.13 -4.21863 0.481298 0
M  V30 12828 O 1214.15 -3.53073 0.470929 0
M  V30 12829 O 1213.01 -5.44452 0.472663 0
M  V30 12830 H 1210.1 -0.826214 0.0360436 0
M  V30 12831 H 1212.65 -1.49121 0.810005 0
M  V30 12832 H 1211.42 -3.58463 1.56907 0
M  V30 12833 H 1211.04 -3.97472 -0.10099 0
M  V30 12834 N 1212.04 -0.478751 -1.50152 0
M  V30 12835 C 1213.27 0.0709455 -2.06478 0
M  V30 12836 C 1213.68 1.33376 -1.34192 0
M  V30 12837 O 1213.02 1.79133 -0.40707 0
M  V30 12838 C 1213.09 0.417322 -3.5707 0
M  V30 12839 C 1212.75 -0.744563 -4.50894 0
M  V30 12840 C 1213.75 -1.62879 -4.93727 0
M  V30 12841 C 1211.43 -0.937062 -4.93482 0
M  V30 12842 C 1213.43 -2.68985 -5.77863 0
M  V30 12843 C 1211.11 -2.00134 -5.77399 0
M  V30 12844 C 1212.11 -2.87609 -6.19492 0
M  V30 12845 O 1211.8 -3.92203 -7.01735 0
M  V30 12846 H 1211.53 -0.00720177 -0.675962 0
M  V30 12847 H 1214.08 -0.668797 -1.94207 0
M  V30 12848 H 1212.31 1.21036 -3.6727 0
M  V30 12849 H 1214 0.903002 -3.95728 0
M  V30 12850 H 1214.77 -1.49179 -4.61488 0
M  V30 12851 H 1210.65 -0.265636 -4.60234 0
M  V30 12852 H 1214.19 -3.37293 -6.10639 0
M  V30 12853 H 1210.09 -2.13837 -6.09052 0
M  V30 12854 H 1210.86 -3.89284 -7.2 0
M  V30 12855 N 1213.52 1.56172 -0.211661 0
M  V30 12856 C 1214.94 1.5895 0.143907 0
M  V30 12857 C 1215.14 1.22826 1.59737 0
M  V30 12858 O 1214.19 0.958823 2.33587 0
M  V30 12859 C 1215.51 3.00199 -0.173438 0
M  V30 12860 C 1217.05 3.12789 -0.114877 0
M  V30 12861 C 1217.53 4.56199 -0.405759 0
M  V30 12862 N 1219.02 4.61838 -0.354973 0
M  V30 12863 C 1219.75 5.70721 -0.553671 0
M  V30 12864 N 1219.25 6.88006 -0.813613 0
M  V30 12865 N 1221.04 5.59988 -0.486787 0
M  V30 12866 H 1213.19 1.77931 -1.15993 0
M  V30 12867 H 1215.46 0.826569 -0.464206 0
M  V30 12868 H 1215.16 3.31248 -1.18186 0
M  V30 12869 H 1215.04 3.73651 0.516232 0
M  V30 12870 H 1217.42 2.81543 0.884166 0
M  V30 12871 H 1217.51 2.41688 -0.837875 0
M  V30 12872 H 1217.15 4.88161 -1.40219 0
M  V30 12873 H 1217.08 5.25512 0.338318 0
M  V30 12874 H 1219.57 3.77555 -0.161352 0
M  V30 12875 H 1219.88 7.66894 -0.953594 0
M  V30 12876 H 1218.23 6.89774 -0.850696 0
M  V30 12877 H 1221.42 4.67238 -0.284009 0
M  V30 12878 H 1221.59 6.44781 -0.645051 0
M  V30 12879 N 1215 -0.0618163 1.57479 0
M  V30 12880 C 1216.24 -0.760193 1.88013 0
M  V30 12881 C 1216.58 -1.76718 0.805258 0
M  V30 12882 O 1215.85 -1.93633 -0.183408 0
M  V30 12883 C 1216.14 -1.45924 3.29208 0
M  V30 12884 C 1215.99 -0.467994 4.47359 0
M  V30 12885 C 1217.31 -2.40166 3.68793 0
M  V30 12886 H 1214.43 -0.274896 0.683814 0
M  V30 12887 H 1217.07 -0.0232433 1.89986 0
M  V30 12888 H 1215.22 -2.08741 3.27657 0
M  V30 12889 H 1216.89 0.155735 4.61037 0
M  V30 12890 H 1215.13 0.215797 4.33263 0
M  V30 12891 H 1215.8 -0.994942 5.42959 0
M  V30 12892 H 1218.28 -1.87419 3.71501 0
M  V30 12893 H 1217.16 -2.86076 4.68457 0
M  V30 12894 H 1217.42 -3.25413 2.99264 0
M  V30 12895 N 1216.48 -1.54033 -0.333429 0
M  V30 12896 C 1217.41 -1.85719 -1.4153 0
M  V30 12897 C 1218.39 -0.713144 -1.54429 0
M  V30 12898 O 1219.57 -0.965984 -1.68471 0
M  V30 12899 C 1216.7 -2.07578 -2.78439 0
M  V30 12900 C 1215.66 -3.23411 -2.80338 0
M  V30 12901 C 1214.98 -3.30622 -4.2023 0
M  V30 12902 C 1216.28 -4.6129 -2.44968 0
M  V30 12903 H 1217.98 -2.76325 -1.15261 0
M  V30 12904 H 1215.52 -1.32957 -0.55303 0
M  V30 12905 H 1217.48 -2.28329 -3.5418 0
M  V30 12906 H 1216.2 -1.13713 -3.06165 0
M  V30 12907 H 1214.86 -3.02531 -2.07052 0
M  V30 12908 H 1214.51 -2.34333 -4.45081 0
M  V30 12909 H 1214.21 -4.08466 -4.22409 0
M  V30 12910 H 1215.73 -3.53596 -4.97798 0
M  V30 12911 H 1217.14 -4.81987 -3.10421 0
M  V30 12912 H 1215.54 -5.41611 -2.58414 0
M  V30 12913 H 1216.61 -4.6421 -1.40134 0
M  V30 12914 N 1217.95 0.594978 -1.45938 0
M  V30 12915 C 1219.2 1.35093 -1.50314 0
M  V30 12916 C 1219.52 1.94412 -0.151315 0
M  V30 12917 O 1218.79 1.77876 0.820787 0
M  V30 12918 H 1217.37 0.501549 -0.553586 0
M  V30 12919 H 1220.04 0.697735 -1.81983 0
M  V30 12920 H 1219.13 2.16393 -2.24901 0
M  V30 12921 N 1219.43 1.33438 0.838571 0
M  V30 12922 C 1220.66 1.27951 1.62592 0
M  V30 12923 C 1221.08 -0.149502 1.88207 0
M  V30 12924 O 1220.43 -1.09174 1.46244 0
M  V30 12925 C 1220.48 2.0523 2.97595 0
M  V30 12926 O 1220.2 3.42557 2.73105 0
M  V30 12927 C 1221.71 2.06957 3.92025 0
M  V30 12928 H 1218.93 0.440796 0.505905 0
M  V30 12929 H 1221.47 1.75814 1.0445 0
M  V30 12930 H 1219.62 1.61049 3.52338 0
M  V30 12931 H 1220.04 3.82314 3.59076 0
M  V30 12932 H 1221.51 2.65481 4.83967 0
M  V30 12933 H 1221.99 1.0599 4.26219 0
M  V30 12934 H 1222.6 2.51158 3.4322 0
M  V30 12935 N 1220.91 -1.05686 1.16912 0
M  V30 12936 C 1222.19 -1.7546 0.864483 0
M  V30 12937 C 1222.57 -2.0128 -0.636359 0
M  V30 12938 O 1221.92 -1.64485 -1.58609 0
M  V30 12939 C 1222.13 -3.05134 1.69395 0
M  V30 12940 C 1223.47 -3.79176 1.91079 0
M  V30 12941 O 1224.5 -3.1499 1.66312 0
M  V30 12942 O 1223.36 -4.94496 2.32671 0
M  V30 12943 H 1220.45 -0.762748 0.319601 0
M  V30 12944 H 1223 -1.11899 1.27581 0
M  V30 12945 H 1221.77 -2.82063 2.71212 0
M  V30 12946 H 1221.39 -3.76431 1.28007 0
M  V30 12947 N 1222.39 -0.968567 -1.24324 0
M  V30 12948 C 1223.64 -0.629682 -1.9204 0
M  V30 12949 C 1223.96 0.837906 -1.7608 0
M  V30 12950 O 1223.23 1.5982 -1.13289 0
M  V30 12951 H 1221.81 -0.229901 -0.710742 0
M  V30 12952 H 1224.47 -1.22982 -1.512 0
M  V30 12953 H 1223.57 -0.871034 -2.99699 0
M  V30 12954 N 1223.87 1.39211 -0.738786 0
M  V30 12955 C 1225.11 2.00436 -0.28839 0
M  V30 12956 C 1225.44 1.58626 1.12552 0
M  V30 12957 O 1224.7 0.808154 1.78234 0
M  V30 12958 C 1225 3.55758 -0.342224 0
M  V30 12959 C 1224.66 4.1723 -1.70968 0
M  V30 12960 C 1223.32 4.33734 -2.08395 0
M  V30 12961 C 1225.68 4.51294 -2.60736 0
M  V30 12962 C 1223 4.81592 -3.35091 0
M  V30 12963 C 1225.36 5.00562 -3.86808 0
M  V30 12964 C 1224.02 5.15274 -4.24322 0
M  V30 12965 H 1223.29 0.733447 -0.105529 0
M  V30 12966 H 1225.94 1.66481 -0.94637 0
M  V30 12967 H 1224.24 3.8976 0.399331 0
M  V30 12968 H 1225.94 4.00993 0.0244582 0
M  V30 12969 H 1222.53 4.04788 -1.4087 0
M  V30 12970 H 1226.71 4.38158 -2.3309 0
M  V30 12971 H 1221.97 4.91167 -3.64095 0
M  V30 12972 H 1226.14 5.25892 -4.5652 0
M  V30 12973 H 1223.77 5.52119 -5.2256 0
M  V30 12974 N 1225.34 0.486708 1.49896 0
M  V30 12975 C 1226.59 -0.0627279 2.02003 0
M  V30 12976 C 1226.91 -1.38799 1.36967 0
M  V30 12977 O 1226.18 -1.88868 0.520173 0
M  V30 12978 H 1224.76 -0.0261718 0.746541 0
M  V30 12979 H 1227.43 0.640692 1.84068 0
M  V30 12980 H 1226.52 -0.202856 3.1144 0
M  V30 12981 N 1226.82 -1.56058 0.219941 0
M  V30 12982 C 1228.24 -1.59024 -0.135476 0
M  V30 12983 C 1228.44 -1.23672 -1.59083 0
M  V30 12984 O 1227.5 -0.971197 -2.33075 0
M  V30 12985 C 1228.81 -3.00103 0.189356 0
M  V30 12986 C 1230.36 -3.12724 0.131463 0
M  V30 12987 C 1230.83 -4.55977 0.429947 0
M  V30 12988 N 1232.32 -4.61643 0.37946 0
M  V30 12989 C 1233.06 -5.70419 0.58393 0
M  V30 12990 N 1232.55 -6.87565 0.850088 0
M  V30 12991 N 1234.35 -5.59722 0.516477 0
M  V30 12992 H 1226.5 -1.77313 1.16935 0
M  V30 12993 H 1228.76 -0.824096 0.468583 0
M  V30 12994 H 1228.47 -3.30616 1.19941 0
M  V30 12995 H 1228.34 -3.73919 -0.49641 0
M  V30 12996 H 1230.73 -2.82008 -0.869223 0
M  V30 12997 H 1230.81 -2.41241 0.85068 0
M  V30 12998 H 1230.45 -4.8741 1.42806 0
M  V30 12999 H 1230.38 -5.25684 -0.310444 0
M  V30 13000 H 1232.87 -3.77465 0.181373 0
M  V30 13001 H 1233.19 -7.66378 0.994251 0
M  V30 13002 H 1231.53 -6.89313 0.887265 0
M  V30 13003 H 1234.72 -4.6708 0.308784 0
M  V30 13004 H 1234.9 -6.4443 0.679236 0
M  V30 13005 N 1228.3 0.053464 -1.57509 0
M  V30 13006 C 1229.53 0.765301 -1.92764 0
M  V30 13007 C 1229.95 1.69385 -0.817943 0
M  V30 13008 O 1229.31 1.7986 0.228075 0
M  V30 13009 C 1229.36 1.51938 -3.27028 0
M  V30 13010 O 1228.46 2.63121 -3.17555 0
M  V30 13011 H 1227.8 0.207567 -0.630723 0
M  V30 13012 H 1230.33 0.0162254 -2.04594 0
M  V30 13013 H 1230.34 1.89466 -3.6134 0
M  V30 13014 H 1229.02 0.838207 -4.07366 0
M  V30 13015 H 1227.59 2.28316 -2.94832 0
M  V30 13016 N 1229.78 1.54207 0.325255 0
M  V30 13017 C 1231.06 1.6298 1.08153 0
M  V30 13018 C 1231.44 0.462583 2.05969 0
M  V30 13019 O 1230.78 -0.543323 2.21947 0
M  V30 13020 C 1230.99 2.999 1.78497 0
M  V30 13021 C 1232.34 3.55888 2.3158 0
M  V30 13022 O 1233.37 3.02194 1.88566 0
M  V30 13023 O 1232.23 4.49847 3.10322 0
M  V30 13024 H 1229.32 0.659923 0.498429 0
M  V30 13025 H 1231.87 1.66553 0.325282 0
M  V30 13026 H 1230.64 3.7629 1.07338 0
M  V30 13027 H 1230.26 2.99997 2.60936 0
M  V30 13028 N 1231.26 -0.58723 1.46251 0
M  V30 13029 C 1232.48 -1.37661 1.55126 0
M  V30 13030 C 1232.91 -1.87123 0.191489 0
M  V30 13031 O 1232.27 -1.6131 -0.827576 0
M  V30 13032 C 1232.31 -2.54324 2.5564 0
M  V30 13033 O 1231.42 -3.55617 2.0883 0
M  V30 13034 H 1230.76 -0.410154 0.522178 0
M  V30 13035 H 1233.29 -0.712738 1.91784 0
M  V30 13036 H 1233.3 -3.01301 2.75103 0
M  V30 13037 H 1231.97 -2.17675 3.54387 0
M  V30 13038 H 1230.55 -3.15151 1.99335 0
M  V30 13039 N 1232.74 -1.33881 -0.831482 0
M  V30 13040 C 1234.15 -1.13376 -1.1233 0
M  V30 13041 C 1234.35 0.0704402 -2.01377 0
M  V30 13042 O 1233.41 0.748516 -2.4115 0
M  V30 13043 C 1234.72 -2.42484 -1.77826 0
M  V30 13044 C 1236.27 -2.4846 -1.90359 0
M  V30 13045 C 1236.74 -3.77548 -2.59272 0
M  V30 13046 N 1238.23 -3.7866 -2.66778 0
M  V30 13047 C 1238.97 -4.75258 -3.20807 0
M  V30 13048 N 1238.47 -5.82234 -3.75466 0
M  V30 13049 N 1240.26 -4.62724 -3.19128 0
M  V30 13050 H 1232.41 -2.11051 -0.238998 0
M  V30 13051 H 1234.67 -0.932893 -0.168565 0
M  V30 13052 H 1234.38 -3.30647 -1.19857 0
M  V30 13053 H 1234.25 -2.55186 -2.77777 0
M  V30 13054 H 1236.64 -1.60742 -2.47479 0
M  V30 13055 H 1236.72 -2.39693 -0.893359 0
M  V30 13056 H 1236.36 -4.65651 -2.02808 0
M  V30 13057 H 1236.29 -3.83594 -3.60781 0
M  V30 13058 H 1238.79 -3.01351 -2.28026 0
M  V30 13059 H 1239.1 -6.51968 -4.14918 0
M  V30 13060 H 1237.44 -5.85959 -3.73733 0
M  V30 13061 H 1240.63 -3.78303 -2.75688 0
M  V30 13062 H 1240.81 -5.38175 -3.60932 0
M  V30 13063 N 1234.21 1.05064 -1.1747 0
M  V30 13064 C 1235.12 2.16346 -0.907286 0
M  V30 13065 C 1236.14 1.7355 0.125013 0
M  V30 13066 O 1237.32 2.01326 -0.0545551 0
M  V30 13067 C 1234.38 3.44077 -0.425681 0
M  V30 13068 C 1233.44 4.01311 -1.52473 0
M  V30 13069 C 1232.67 5.22946 -1.06601 0
M  V30 13070 O 1232.9 5.70345 0.0793329 0
M  V30 13071 O 1231.83 5.72454 -1.85958 0
M  V30 13072 H 1235.66 2.41754 -1.83817 0
M  V30 13073 H 1233.24 1.14834 -0.955693 0
M  V30 13074 H 1235.12 4.21078 -0.164689 0
M  V30 13075 H 1233.8 3.20166 0.477037 0
M  V30 13076 H 1232.71 3.25744 -1.83961 0
M  V30 13077 H 1234.04 4.29543 -2.4032 0
M  V30 13078 N 1235.69 0.975146 1.23809 0
M  V30 13079 C 1236.64 0.503396 2.27087 0
M  V30 13080 C 1237.63 -0.43689 1.63669 0
M  V30 13081 O 1238.84 -0.31136 1.77287 0
M  V30 13082 H 1235.21 0.144346 0.738017 0
M  V30 13083 H 1237.19 1.38627 2.64244 0
M  V30 13084 C 1235.93 -0.183682 3.47214 0
M  V30 13085 H 1235.26 0.530753 3.96261 0
M  V30 13086 H 1236.7 -0.477479 4.21303 0
M  V30 13087 C 1235.16 -1.41317 3.05829 0
M  V30 13088 O 1235.69 -2.50975 3.13647 0
M  V30 13089 N 1233.89 -1.28191 2.60798 0
M  V30 13090 H 1233.44 -0.38967 2.54636 0
M  V30 13091 H 1233.4 -2.10565 2.33473 0
M  V30 13092 N 1237.17 -1.38817 0.746158 0
M  V30 13093 C 1238.1 -2.33144 0.128836 0
M  V30 13094 C 1239.08 -1.54487 -0.711873 0
M  V30 13095 O 1240.27 -1.82836 -0.654577 0
M  V30 13096 C 1237.4 -3.38639 -0.770772 0
M  V30 13097 C 1236.35 -4.27987 -0.0333669 0
M  V30 13098 C 1235.68 -5.24274 -1.05073 0
M  V30 13099 C 1236.98 -5.09915 1.13066 0
M  V30 13100 H 1238.67 -2.85019 0.916778 0
M  V30 13101 H 1236.22 -1.37039 0.442306 0
M  V30 13102 H 1238.17 -4.03587 -1.21225 0
M  V30 13103 H 1236.89 -2.8523 -1.59095 0
M  V30 13104 H 1235.55 -3.64534 0.388612 0
M  V30 13105 H 1235.2 -4.67156 -1.86478 0
M  V30 13106 H 1234.9 -5.84906 -0.562037 0
M  V30 13107 H 1236.42 -5.92099 -1.49169 0
M  V30 13108 H 1237.84 -5.68145 0.767084 0
M  V30 13109 H 1236.23 -5.79744 1.54972 0
M  V30 13110 H 1237.3 -4.4409 1.94709 0
M  V30 13111 N 1238.65 -0.49465 -1.49636 0
M  V30 13112 C 1240.06 -0.150217 -1.58892 0
M  V30 13113 C 1240.26 1.34485 -1.50053 0
M  V30 13114 O 1239.32 2.12026 -1.37118 0
M  V30 13115 C 1240.63 -0.721372 -2.91919 0
M  V30 13116 C 1242.18 -0.686908 -3.0537 0
M  V30 13117 C 1242.66 -1.23601 -4.41006 0
M  V30 13118 N 1244.15 -1.19644 -4.47481 0
M  V30 13119 C 1244.88 -1.59157 -5.50869 0
M  V30 13120 N 1244.38 -2.06232 -6.61393 0
M  V30 13121 N 1246.17 -1.50612 -5.41546 0
M  V30 13122 H 1238.32 -1.46675 -1.53624 0
M  V30 13123 H 1240.58 -0.608003 -0.727349 0
M  V30 13124 H 1240.29 -1.76964 -3.03935 0
M  V30 13125 H 1240.16 -0.178199 -3.76779 0
M  V30 13126 H 1242.55 0.352508 -2.92987 0
M  V30 13127 H 1242.63 -1.26716 -2.22209 0
M  V30 13128 H 1242.28 -2.27418 -4.5414 0
M  V30 13129 H 1242.21 -0.631765 -5.22797 0
M  V30 13130 H 1244.7 -0.851443 -3.68183 0
M  V30 13131 H 1245.01 -2.34469 -7.36372 0
M  V30 13132 H 1243.36 -2.10202 -6.6245 0
M  V30 13133 H 1246.55 -1.13659 -4.54092 0
M  V30 13134 H 1246.72 -1.8173 -6.21995 0
M  V30 13135 N 1240.13 1.55939 -0.228214 0
M  V30 13136 C 1241.08 2.17223 0.692674 0
M  V30 13137 C 1242.06 1.12252 1.15275 0
M  V30 13138 O 1243.25 1.3822 1.10563 0
M  V30 13139 C 1240.38 2.86084 1.89766 0
M  V30 13140 C 1239.47 3.98288 1.45695 0
M  V30 13141 N 1239.86 5.00515 0.729258 0
M  V30 13142 C 1238.16 4.105 1.74372 0
M  V30 13143 C 1238.86 5.79516 0.503606 0
M  V30 13144 N 1237.83 5.33119 1.06229 0
M  V30 13145 H 1241.63 2.9362 0.128345 0
M  V30 13146 H 1239.15 1.62373 -0.0297445 0
M  V30 13147 H 1241.15 3.28404 2.5682 0
M  V30 13148 H 1239.81 2.11185 2.46639 0
M  V30 13149 H 1240.82 5.16495 0.381261 0
M  V30 13150 H 1237.49 3.46759 2.32518 0
M  V30 13151 H 1238.88 6.71857 -0.0760344 0
M  V30 13152 N 1241.6 -0.0451101 1.57535 0
M  V30 13153 C 1242.55 -1.05817 2.01958 0
M  V30 13154 C 1243.54 -1.32963 0.906077 0
M  V30 13155 O 1244.73 -1.32816 1.16999 0
M  V30 13156 C 1241.86 -2.36414 2.48924 0
M  V30 13157 C 1240.95 -2.12428 3.67063 0
M  V30 13158 N 1241.34 -1.58448 4.80341 0
M  V30 13159 C 1239.63 -2.42785 3.74128 0
M  V30 13160 C 1240.34 -1.49896 5.62055 0
M  V30 13161 N 1239.31 -1.96892 5.0669 0
M  V30 13162 H 1243.11 -0.634569 2.86968 0
M  V30 13163 H 1240.63 -0.251719 1.60437 0
M  V30 13164 H 1242.62 -3.09781 2.79001 0
M  V30 13165 H 1241.28 -2.79467 1.65313 0
M  V30 13166 H 1242.3 -1.26939 5.02102 0
M  V30 13167 H 1238.97 -2.89022 3.01285 0
M  V30 13168 H 1240.36 -1.08788 6.63035 0
M  V30 13169 N 1243.08 -1.54377 -0.317073 0
M  V30 13170 C 1244.33 -1.72893 -1.05424 0
M  V30 13171 C 1244.66 -0.506082 -1.87801 0
M  V30 13172 O 1243.91 0.51213 -1.8888 0
M  V30 13173 C 1244.21 -2.96066 -2.00199 0
M  V30 13174 C 1243.88 -4.30551 -1.33927 0
M  V30 13175 C 1242.54 -4.67112 -1.15584 0
M  V30 13176 C 1244.89 -5.13986 -0.864158 0
M  V30 13177 C 1242.22 -5.84701 -0.483892 0
M  V30 13178 C 1244.57 -6.32264 -0.206006 0
M  V30 13179 C 1243.24 -6.67499 -0.0104849 0
M  V30 13180 H 1242.51 -0.63266 -0.385776 0
M  V30 13181 H 1245.15 -1.88623 -0.330722 0
M  V30 13182 H 1243.46 -2.7505 -2.79024 0
M  V30 13183 H 1245.15 -3.07586 -2.57278 0
M  V30 13184 H 1241.74 -4.0179 -1.49207 0
M  V30 13185 H 1245.93 -4.86252 -0.993635 0
M  V30 13186 H 1241.18 -6.10555 -0.32127 0
M  V30 13187 H 1245.36 -6.96192 0.170108 0
M  V30 13188 H 1242.99 -7.58472 0.512209 0
M  V30 13189 N 1244.56 0.579466 -1.4656 0
M  V30 13190 C 1245.47 1.71609 -1.59961 0
M  V30 13191 C 1246.49 1.67162 -0.483002 0
M  V30 13192 O 1247.66 1.87012 -0.747561 0
M  V30 13193 C 1244.73 3.08114 -1.58954 0
M  V30 13194 C 1243.79 3.238 -2.81872 0
M  V30 13195 C 1243.02 4.53794 -2.80904 0
M  V30 13196 O 1243.24 5.37884 -1.89835 0
M  V30 13197 O 1242.18 4.72796 -3.72488 0
M  V30 13198 H 1246 1.6325 -2.56092 0
M  V30 13199 H 1243.59 0.746891 -1.2939 0
M  V30 13200 H 1245.47 3.8939 -1.611 0
M  V30 13201 H 1244.15 3.16903 -0.65984 0
M  V30 13202 H 1243.05 2.42006 -2.85279 0
M  V30 13203 H 1244.39 3.19904 -3.74062 0
M  V30 13204 N 1246.04 1.3432 0.824371 0
M  V30 13205 C 1247.28 1.26783 1.58284 0
M  V30 13206 C 1247.62 -0.162282 1.93521 0
M  V30 13207 O 1246.89 -1.1073 1.59903 0
M  V30 13208 C 1247.18 2.15725 2.88331 0
M  V30 13209 C 1247.03 3.67266 2.59684 0
M  V30 13210 C 1248.35 2.04141 3.8989 0
M  V30 13211 H 1245.47 0.461893 0.574303 0
M  V30 13212 H 1248.11 1.64558 0.949769 0
M  V30 13213 H 1246.26 1.83639 3.42358 0
M  V30 13214 H 1247.93 4.09711 2.11978 0
M  V30 13215 H 1246.17 3.88426 1.93151 0
M  V30 13216 H 1246.84 4.24863 3.52414 0
M  V30 13217 H 1249.32 2.3231 3.45212 0
M  V30 13218 H 1248.2 2.68601 4.7869 0
M  V30 13219 H 1248.46 1.01795 4.30221 0
M  V30 13220 N 1247.52 -1.0444 1.18026 0
M  V30 13221 C 1248.79 -1.74533 0.883045 0
M  V30 13222 C 1249.17 -2.01944 -0.614975 0
M  V30 13223 O 1248.52 -1.66158 -1.56855 0
M  V30 13224 C 1248.73 -3.0332 1.72621 0
M  V30 13225 C 1250.08 -3.77128 1.9509 0
M  V30 13226 O 1251.1 -3.13209 1.69643 0
M  V30 13227 O 1249.96 -4.92001 2.37903 0
M  V30 13228 H 1247.06 -0.759315 0.327673 0
M  V30 13229 H 1249.6 -1.10539 1.2876 0
M  V30 13230 H 1248.37 -2.79171 2.74188 0
M  V30 13231 H 1248 -3.75052 1.31993 0
M  V30 13232 N 1248.99 -0.981699 -1.2329 0
M  V30 13233 C 1249.96 -0.527992 -2.23036 0
M  V30 13234 C 1250.96 0.383083 -1.5617 0
M  V30 13235 O 1252.15 0.176595 -1.73303 0
M  V30 13236 C 1249.28 0.233501 -3.40099 0
M  V30 13237 H 1250.47 -1.40995 -2.64689 0
M  V30 13238 H 1248.03 -0.767724 -1.36146 0
M  V30 13239 H 1248.76 1.13194 -3.03904 0
M  V30 13240 H 1248.55 -0.420505 -3.89839 0
M  V30 13241 H 1250.04 0.539485 -4.14101 0
M  V30 13242 N 1250.47 1.3842 -0.753509 0
M  V30 13243 C 1251.7 2.04929 -0.319174 0
M  V30 13244 C 1252.12 1.56457 1.04416 0
M  V30 13245 O 1251.48 0.716527 1.6654 0
M  V30 13246 C 1251.53 3.58887 -0.351054 0
M  V30 13247 O 1250.63 4.07166 0.654963 0
M  V30 13248 H 1249.97 0.648782 -0.141343 0
M  V30 13249 H 1252.5 1.77096 -1.02461 0
M  V30 13250 H 1252.51 4.075 -0.201907 0
M  V30 13251 H 1251.19 3.93525 -1.34576 0
M  V30 13252 H 1249.77 3.69921 0.470435 0
M  V30 13253 N 1251.95 0.502579 1.49372 0
M  V30 13254 C 1253.18 -0.0380876 2.06565 0
M  V30 13255 C 1253.59 -1.31224 1.36297 0
M  V30 13256 O 1252.93 -1.78463 0.435517 0
M  V30 13257 C 1252.99 -0.360462 3.57688 0
M  V30 13258 C 1252.66 0.816203 4.49652 0
M  V30 13259 C 1253.65 1.70713 4.91073 0
M  V30 13260 C 1251.34 1.01545 4.91929 0
M  V30 13261 C 1253.33 2.78144 5.73511 0
M  V30 13262 C 1251.02 2.09294 5.74142 0
M  V30 13263 C 1252.02 2.97428 6.14838 0
M  V30 13264 O 1251.71 4.03317 6.95407 0
M  V30 13265 H 1251.44 0.0179548 0.675762 0
M  V30 13266 H 1253.99 0.699609 1.93118 0
M  V30 13267 H 1252.22 -1.15177 3.69149 0
M  V30 13268 H 1253.91 -0.839931 3.97115 0
M  V30 13269 H 1254.68 1.56502 4.59056 0
M  V30 13270 H 1250.56 0.338822 4.59753 0
M  V30 13271 H 1254.1 3.46965 6.05195 0
M  V30 13272 H 1250 2.235 6.05572 0
M  V30 13273 H 1250.77 4.00689 7.13716 0
M  V30 13274 N 1253.43 -1.55816 0.23648 0
M  V30 13275 C 1254.67 -1.98981 -0.391725 0
M  V30 13276 C 1255.01 -1.12428 -1.58346 0
M  V30 13277 O 1254.28 -0.185303 -1.93615 0
M  V30 13278 C 1254.57 -3.50831 -0.811759 0
M  V30 13279 C 1254.42 -4.48152 0.384648 0
M  V30 13280 C 1255.74 -4.07489 -1.66254 0
M  V30 13281 H 1252.86 -0.723404 -0.140911 0
M  V30 13282 H 1255.5 -1.87011 0.335706 0
M  V30 13283 H 1253.65 -3.61162 -1.43157 0
M  V30 13284 H 1255.32 -4.49814 1.02298 0
M  V30 13285 H 1253.56 -4.21406 1.02955 0
M  V30 13286 H 1254.23 -5.51979 0.0475809 0
M  V30 13287 H 1256.71 -4.00195 -1.13944 0
M  V30 13288 H 1255.59 -5.14026 -1.92531 0
M  V30 13289 H 1255.85 -3.55297 -2.6309 0
M  V30 13290 N 1254.91 0.036755 -1.57557 0
M  V30 13291 C 1256.15 0.730186 -1.89199 0
M  V30 13292 C 1256.49 1.75414 -0.833271 0
M  V30 13293 O 1255.76 1.93901 0.152579 0
M  V30 13294 C 1256.04 1.40669 -3.31488 0
M  V30 13295 C 1255.9 0.396764 -4.48047 0
M  V30 13296 C 1257.22 2.34268 -3.72567 0
M  V30 13297 H 1254.33 0.263983 -0.6881 0
M  V30 13298 H 1256.98 -0.0069847 -1.89999 0
M  V30 13299 H 1255.13 2.03502 -3.30937 0
M  V30 13300 H 1256.8 -0.229062 -4.60731 0
M  V30 13301 H 1255.04 -0.284698 -4.32865 0
M  V30 13302 H 1255.71 0.908436 -5.44474 0
M  V30 13303 H 1258.19 1.81485 -3.74436 0
M  V30 13304 H 1257.06 2.78587 -4.72949 0
M  V30 13305 H 1257.33 3.20611 -3.04403 0
M  V30 13306 N 1256.39 1.54543 0.308881 0
M  V30 13307 C 1257.63 1.73706 1.04661 0
M  V30 13308 C 1257.96 0.517111 1.87189 0
M  V30 13309 O 1257.24 -0.485856 1.88334 0
M  V30 13310 C 1257.52 3.02141 1.95916 0
M  V30 13311 C 1257.38 4.34419 1.1662 0
M  V30 13312 C 1258.69 3.26401 2.95213 0
M  V30 13313 H 1255.81 0.63203 0.379087 0
M  V30 13314 H 1258.46 1.87253 0.321947 0
M  V30 13315 H 1256.61 2.90723 2.57706 0
M  V30 13316 H 1258.28 4.57743 0.571772 0
M  V30 13317 H 1256.52 4.3126 0.468747 0
M  V30 13318 H 1257.19 5.20535 1.83704 0
M  V30 13319 H 1259.67 3.37377 2.43549 0
M  V30 13320 H 1258.54 4.17597 3.56235 0
M  V30 13321 H 1258.8 2.44322 3.68455 0
M  V30 13322 N 1257.86 -0.571685 1.46866 0
M  V30 13323 C 1258.83 -1.66198 1.57832 0
M  V30 13324 C 1259.83 -1.54242 0.454547 0
M  V30 13325 O 1261.02 -1.58661 0.719191 0
M  V30 13326 C 1258.15 -3.05678 1.5091 0
M  V30 13327 H 1259.34 -1.57829 2.5501 0
M  V30 13328 H 1256.89 -0.790433 1.3484 0
M  V30 13329 H 1257.63 -3.19593 0.550529 0
M  V30 13330 H 1257.41 -3.15765 2.32454 0
M  V30 13331 H 1258.9 -3.85027 1.61692 0
M  V30 13332 N 1259.34 -1.34755 -0.817236 0
M  V30 13333 C 1260.3 -1.26687 -1.91006 0
M  V30 13334 C 1261.3 -0.180745 -1.59781 0
M  V30 13335 O 1262.49 -0.433748 -1.68714 0
M  V30 13336 C 1259.63 -0.957293 -3.27183 0
M  V30 13337 H 1260.82 -2.23846 -1.99582 0
M  V30 13338 H 1258.37 -1.19125 -1.01187 0
M  V30 13339 H 1259.11 0.0108917 -3.24298 0
M  V30 13340 H 1258.89 -1.74297 -3.5123 0
M  V30 13341 H 1260.38 -0.926161 -4.072 0
M  V30 13342 N 1260.82 1.03812 -1.18578 0
M  V30 13343 C 1261.75 2.13802 -0.938665 0
M  V30 13344 C 1262.73 1.69643 0.124575 0
M  V30 13345 O 1263.92 1.94179 -0.0285421 0
M  V30 13346 C 1261.05 3.44154 -0.466392 0
M  V30 13347 C 1260 4.01949 -1.47041 0
M  V30 13348 C 1259.33 5.27811 -0.855558 0
M  V30 13349 C 1260.63 4.37827 -2.84789 0
M  V30 13350 H 1262.32 2.34732 -1.85852 0
M  V30 13351 H 1259.87 1.12808 -0.895007 0
M  V30 13352 H 1261.82 4.20463 -0.280856 0
M  V30 13353 H 1260.54 3.22918 0.489041 0
M  V30 13354 H 1259.2 3.27725 -1.64293 0
M  V30 13355 H 1258.85 5.02886 0.107142 0
M  V30 13356 H 1258.55 5.67441 -1.52592 0
M  V30 13357 H 1260.07 6.06795 -0.680609 0
M  V30 13358 H 1261.49 5.05112 -2.71173 0
M  V30 13359 H 1259.88 4.88514 -3.48532 0
M  V30 13360 H 1260.95 3.47541 -3.38147 0
M  V30 13361 N 1262.3 0.988223 1.22768 0
M  V30 13362 C 1263.55 0.660154 1.91014 0
M  V30 13363 C 1263.87 -0.809788 1.77391 0
M  V30 13364 O 1263.14 -1.57998 1.15817 0
M  V30 13365 H 1261.72 0.24118 0.706995 0
M  V30 13366 H 1264.38 1.25372 1.49224 0
M  V30 13367 H 1263.47 0.918603 2.98275 0
M  V30 13368 N 1263.78 -1.38018 0.760839 0
M  V30 13369 C 1264.69 -2.34181 0.140232 0
M  V30 13370 C 1265.7 -1.59635 -0.692287 0
M  V30 13371 O 1266.88 -1.91788 -0.614752 0
M  V30 13372 C 1263.94 -3.38778 -0.73693 0
M  V30 13373 C 1263 -4.29157 0.110792 0
M  V30 13374 C 1262.24 -5.28758 -0.724599 0
M  V30 13375 O 1262.46 -5.35585 -1.96226 0
M  V30 13376 O 1261.39 -6.01738 -0.139565 0
M  V30 13377 H 1265.22 -2.88962 0.934588 0
M  V30 13378 H 1262.8 -1.3999 0.521835 0
M  V30 13379 H 1264.69 -4.02804 -1.23803 0
M  V30 13380 H 1263.36 -2.86341 -1.50966 0
M  V30 13381 H 1262.27 -3.68268 0.658007 0
M  V30 13382 H 1263.6 -4.84869 0.846346 0
M  V30 13383 N 1265.25 -0.510493 -1.49103 0
M  V30 13384 C 1266.18 0.251999 -2.32136 0
M  V30 13385 C 1267.16 0.953613 -1.40855 0
M  V30 13386 O 1268.35 0.943178 -1.69758 0
M  V30 13387 C 1265.48 1.31118 -3.21598 0
M  V30 13388 C 1264.43 0.72888 -4.21748 0
M  V30 13389 C 1263.76 1.88928 -5.0021 0
M  V30 13390 C 1265.06 -0.286425 -5.21514 0
M  V30 13391 H 1266.75 -0.441102 -2.96133 0
M  V30 13392 H 1264.3 -0.213577 -1.42407 0
M  V30 13393 H 1266.25 1.8524 -3.78503 0
M  V30 13394 H 1264.98 2.0336 -2.55563 0
M  V30 13395 H 1263.64 0.209336 -3.66002 0
M  V30 13396 H 1263.28 2.59961 -4.30615 0
M  V30 13397 H 1262.98 1.50568 -5.67981 0
M  V30 13398 H 1264.51 2.43465 -5.59962 0
M  V30 13399 H 1265.92 0.166997 -5.73057 0
M  V30 13400 H 1264.32 -0.586361 -5.97228 0
M  V30 13401 H 1265.39 -1.19904 -4.69842 0
M  V30 13402 N 1266.73 1.55688 -0.24474 0
M  V30 13403 C 1267.69 2.20014 0.642382 0
M  V30 13404 C 1268.69 1.16877 1.10437 0
M  V30 13405 O 1269.88 1.41972 1.00943 0
M  V30 13406 C 1267.02 2.84198 1.88267 0
M  V30 13407 H 1268.21 2.9979 0.0811937 0
M  V30 13408 H 1265.76 1.56299 0.00480917 0
M  V30 13409 H 1266.5 2.08354 2.48514 0
M  V30 13410 H 1266.28 3.59747 1.55963 0
M  V30 13411 H 1267.77 3.33434 2.5142 0
M  V30 13412 N 1268.21 -0.0283989 1.57574 0
M  V30 13413 C 1269.16 -1.02881 2.06601 0
M  V30 13414 C 1270.13 -1.35879 0.955308 0
M  V30 13415 O 1271.31 -1.46205 1.22592 0
M  V30 13416 C 1268.45 -2.32447 2.55073 0
M  V30 13417 C 1267.56 -2.05602 3.79937 0
M  V30 13418 C 1266.7 -3.29043 4.17018 0
M  V30 13419 C 1265.74 -2.97755 5.34797 0
M  V30 13420 N 1264.88 -4.1365 5.67308 0
M  V30 13421 H 1269.72 -0.603772 2.91819 0
M  V30 13422 H 1267.25 -0.286503 1.44283 0
M  V30 13423 H 1269.21 -3.08152 2.81244 0
M  V30 13424 H 1267.84 -2.72672 1.72771 0
M  V30 13425 H 1266.89 -1.2039 3.60847 0
M  V30 13426 H 1268.2 -1.78522 4.65759 0
M  V30 13427 H 1267.36 -4.13115 4.4432 0
M  V30 13428 H 1266.1 -3.59237 3.29849 0
M  V30 13429 H 1265.1 -2.12085 5.07247 0
M  V30 13430 H 1266.33 -2.68839 6.23621 0
M  V30 13431 H 1264.27 -4.43794 4.83097 0
M  V30 13432 H 1264.19 -3.89996 6.47641 0
M  V30 13433 H 1265.46 -4.98594 5.99186 0
M  V30 13434 N 1269.69 -1.54705 -0.300681 0
M  V30 13435 C 1271.1 -1.45926 -0.646359 0
M  V30 13436 C 1271.3 -0.65072 -1.90704 0
M  V30 13437 O 1270.36 -0.158547 -2.52002 0
M  V30 13438 C 1271.67 -2.89889 -0.799059 0
M  V30 13439 C 1273.22 -2.99934 -0.894923 0
M  V30 13440 C 1273.7 -4.45093 -1.07962 0
M  V30 13441 N 1275.19 -4.48804 -1.14581 0
M  V30 13442 C 1275.92 -5.58305 -1.30702 0
M  V30 13443 N 1275.42 -6.77729 -1.43719 0
M  V30 13444 N 1277.21 -5.45994 -1.33593 0
M  V30 13445 H 1269.36 -2.05742 0.527617 0
M  V30 13446 H 1271.62 -0.931817 0.174415 0
M  V30 13447 H 1271.33 -3.51655 0.0563954 0
M  V30 13448 H 1271.2 -3.37325 -1.68796 0
M  V30 13449 H 1273.59 -2.38281 -1.74086 0
M  V30 13450 H 1273.67 -2.55794 0.0179973 0
M  V30 13451 H 1273.32 -5.0734 -0.238444 0
M  V30 13452 H 1273.25 -4.86864 -2.00677 0
M  V30 13453 H 1275.74 -3.62766 -1.05874 0
M  V30 13454 H 1276.05 -7.56937 -1.55776 0
M  V30 13455 H 1274.4 -6.80594 -1.40774 0
M  V30 13456 H 1277.59 -4.51641 -1.23035 0
M  V30 13457 H 1277.76 -6.31381 -1.45813 0
M  V30 13458 N 1271.17 0.563888 -1.47167 0
M  V30 13459 C 1272.41 1.31875 -1.53145 0
M  V30 13460 C 1272.74 1.94047 -0.192518 0
M  V30 13461 O 1272.01 1.79577 0.782872 0
M  V30 13462 H 1270.59 0.489694 -0.5641 0
M  V30 13463 H 1273.25 0.658976 -1.83422 0
M  V30 13464 H 1272.34 2.11574 -2.2944 0
M  V30 13465 N 1272.64 1.35187 0.810078 0
M  V30 13466 C 1273.55 1.29926 1.95337 0
M  V30 13467 C 1274.57 0.204748 1.72791 0
M  V30 13468 O 1275.75 0.433507 1.96679 0
M  V30 13469 C 1272.81 1.06736 3.29861 0
M  V30 13470 C 1271.87 2.25466 3.65326 0
M  V30 13471 C 1271.11 2.03373 4.93432 0
M  V30 13472 O 1271.33 0.998419 5.61594 0
M  V30 13473 O 1270.26 2.90648 5.27075 0
M  V30 13474 H 1274.09 2.26137 2.02721 0
M  V30 13475 H 1271.67 1.15523 0.947354 0
M  V30 13476 H 1273.56 0.956367 4.10404 0
M  V30 13477 H 1272.23 0.135735 3.23415 0
M  V30 13478 H 1271.14 2.42129 2.85175 0
M  V30 13479 H 1272.47 3.17063 3.76473 0
M  V30 13480 N 1274.12 -1.03182 1.19127 0
M  V30 13481 C 1275.37 -1.75934 0.986415 0
M  V30 13482 C 1275.68 -1.89519 -0.48392 0
M  V30 13483 O 1276.89 -2.59213 -0.80752 0
M  V30 13484 C 1275.35 -3.16358 1.71597 0
M  V30 13485 C 1274.95 -3.10836 3.22622 0
M  V30 13486 C 1276.7 -3.93426 1.59425 0
M  V30 13487 C 1274.61 -4.46174 3.88179 0
M  V30 13488 H 1273.54 -0.659516 0.365451 0
M  V30 13489 H 1276.19 -1.15497 1.42593 0
M  V30 13490 H 1274.57 -3.77245 1.20426 0
M  V30 13491 H 1275.74 -2.59348 3.80887 0
M  V30 13492 H 1274.06 -2.47266 3.35035 0
M  V30 13493 H 1276.65 -4.93526 2.05757 0
M  V30 13494 H 1277 -4.12678 0.547926 0
M  V30 13495 H 1277.53 -3.39134 2.07925 0
M  V30 13496 H 1274.27 -4.32126 4.92897 0
M  V30 13497 H 1273.79 -4.97729 3.34702 0
M  V30 13498 H 1275.47 -5.15066 3.91556 0
M  V30 13499 N 1275.6 -0.99472 -1.22242 0
M  V30 13500 C 1276.88 -0.587481 -1.86569 0
M  V30 13501 C 1277.26 0.935174 -1.89256 0
M  V30 13502 O 1276.61 1.81787 -1.3844 0
M  V30 13503 C 1276.82 -1.21001 -3.27353 0
M  V30 13504 C 1278.16 -1.31167 -4.03832 0
M  V30 13505 O 1279.19 -1.16454 -3.36626 0
M  V30 13506 O 1278.05 -1.54731 -5.24138 0
M  V30 13507 H 1275.14 -0.199838 -0.802492 0
M  V30 13508 H 1277.69 -1.09071 -1.30006 0
M  V30 13509 H 1276.46 -2.25143 -3.20041 0
M  V30 13510 H 1276.08 -0.692479 -3.91523 0
M  V30 13511 N 1277.08 1.37613 -0.768148 0
M  V30 13512 C 1278.03 2.30311 -0.150176 0
M  V30 13513 C 1279 1.50918 0.69376 0
M  V30 13514 O 1280.18 1.795 0.64687 0
M  V30 13515 C 1277.32 3.37382 0.72576 0
M  V30 13516 C 1276.43 4.31791 -0.13439 0
M  V30 13517 C 1275.57 5.25937 0.745915 0
M  V30 13518 C 1274.61 6.11988 -0.116988 0
M  V30 13519 N 1273.74 6.98387 0.721091 0
M  V30 13520 H 1278.58 2.82579 -0.946212 0
M  V30 13521 H 1276.12 1.3911 -0.478217 0
M  V30 13522 H 1278.08 3.98084 1.24839 0
M  V30 13523 H 1276.71 2.86488 1.48743 0
M  V30 13524 H 1275.76 3.72426 -0.774793 0
M  V30 13525 H 1277.07 4.9234 -0.800163 0
M  V30 13526 H 1276.23 5.91826 1.33516 0
M  V30 13527 H 1274.97 4.6579 1.44538 0
M  V30 13528 H 1273.97 5.45081 -0.7188 0
M  V30 13529 H 1275.2 6.74207 -0.813732 0
M  V30 13530 H 1273.14 6.40772 1.40524 0
M  V30 13531 H 1273.06 7.55916 0.112536 0
M  V30 13532 H 1274.33 7.6867 1.29485 0
M  V30 13533 N 1278.56 0.518393 1.4883 0
M  V30 13534 C 1279.5 -0.250684 2.29435 0
M  V30 13535 C 1280.47 -0.944481 1.36634 0
M  V30 13536 O 1281.66 -0.947766 1.65596 0
M  V30 13537 C 1278.8 -1.29871 3.1973 0
M  V30 13538 C 1277.91 -0.61493 4.27601 0
M  V30 13539 C 1277.05 -1.64489 5.05091 0
M  V30 13540 C 1276.09 -0.943932 6.04778 0
M  V30 13541 N 1275.22 -1.91889 6.75369 0
M  V30 13542 H 1280.06 0.44288 2.94691 0
M  V30 13543 H 1277.6 0.230246 1.45287 0
M  V30 13544 H 1279.56 -1.91851 3.70471 0
M  V30 13545 H 1278.19 -1.96081 2.56422 0
M  V30 13546 H 1277.24 0.118552 3.80215 0
M  V30 13547 H 1278.55 -0.063994 4.98759 0
M  V30 13548 H 1277.71 -2.33928 5.59788 0
M  V30 13549 H 1276.44 -2.2297 4.33746 0
M  V30 13550 H 1275.45 -0.235407 5.49296 0
M  V30 13551 H 1276.67 -0.365383 6.78116 0
M  V30 13552 H 1274.62 -2.493 6.06783 0
M  V30 13553 H 1274.54 -1.41909 7.42562 0
M  V30 13554 H 1275.81 -2.60563 7.34661 0
M  V30 13555 N 1280.03 -1.55556 0.252993 0
M  V30 13556 C 1281.28 -1.99385 -0.370599 0
M  V30 13557 C 1281.61 -1.14101 -1.57145 0
M  V30 13558 O 1280.89 -0.205828 -1.93408 0
M  V30 13559 C 1281.17 -3.51672 -0.774503 0
M  V30 13560 C 1281.02 -4.47719 0.432159 0
M  V30 13561 C 1282.34 -4.0923 -1.61923 0
M  V30 13562 H 1279.46 -0.724858 -0.133231 0
M  V30 13563 H 1282.1 -1.86644 0.355522 0
M  V30 13564 H 1280.25 -3.62661 -1.39318 0
M  V30 13565 H 1281.93 -4.48704 1.07063 0
M  V30 13566 H 1280.17 -4.2029 1.07419 0
M  V30 13567 H 1280.84 -5.51898 0.106123 0
M  V30 13568 H 1283.32 -4.01381 -1.09693 0
M  V30 13569 H 1282.19 -5.16039 -1.87068 0
M  V30 13570 H 1282.45 -3.58067 -2.59307 0
M  V30 13571 N 1281.51 0.0200419 -1.57587 0
M  V30 13572 C 1282.76 0.710078 -1.89962 0
M  V30 13573 C 1283.09 1.74521 -0.851829 0
M  V30 13574 O 1282.37 1.94052 0.132005 0
M  V30 13575 C 1282.65 1.37145 -3.32961 0
M  V30 13576 C 1282.5 0.349221 -4.48442 0
M  V30 13577 C 1283.82 2.30304 -3.75031 0
M  V30 13578 H 1280.94 0.25667 -0.690862 0
M  V30 13579 H 1283.58 -0.0271362 -1.89981 0
M  V30 13580 H 1281.73 1.99981 -3.33076 0
M  V30 13581 H 1283.4 -0.277916 -4.60462 0
M  V30 13582 H 1281.65 -0.330594 -4.32538 0
M  V30 13583 H 1282.32 0.850636 -5.45406 0
M  V30 13584 H 1284.79 1.77503 -3.7634 0
M  V30 13585 H 1283.67 2.73555 -4.75877 0
M  V30 13586 H 1283.93 3.17364 -3.07786 0
M  V30 13587 N 1282.99 1.54862 0.292472 0
M  V30 13588 C 1283.95 1.8565 1.34413 0
M  V30 13589 C 1284.95 0.729868 1.43281 0
M  V30 13590 O 1286.14 0.998128 1.42769 0
M  V30 13591 C 1283.28 2.0444 2.72795 0
M  V30 13592 H 1284.47 2.79642 1.08354 0
M  V30 13593 H 1282.02 1.47055 0.529574 0
M  V30 13594 H 1282.76 1.12765 3.04063 0
M  V30 13595 H 1282.54 2.86451 2.67747 0
M  V30 13596 H 1284.03 2.296 3.48817 0
M  V30 13597 N 1284.47 -0.556076 1.47464 0
M  V30 13598 C 1285.75 -1.31689 1.44628 0
M  V30 13599 C 1286.13 -2.10609 0.143841 0
M  V30 13600 O 1285.47 -2.11097 -0.874662 0
M  V30 13601 C 1285.68 -2.22045 2.69253 0
M  V30 13602 C 1287.03 -2.83028 3.16513 0
M  V30 13603 O 1288.06 -2.32346 2.69988 0
M  V30 13604 O 1286.91 -3.75148 3.97399 0
M  V30 13605 H 1284.01 -0.593026 0.576411 0
M  V30 13606 H 1286.55 -0.574885 1.59666 0
M  V30 13607 H 1285.33 -1.63337 3.5558 0
M  V30 13608 H 1284.95 -3.03539 2.56807 0
M  V30 13609 N 1285.95 -1.35615 -0.802897 0
M  V30 13610 C 1286.91 -1.28705 -1.89651 0
M  V30 13611 C 1287.91 -0.197681 -1.5958 0
M  V30 13612 O 1289.1 -0.451618 -1.68244 0
M  V30 13613 C 1286.23 -0.991941 -3.26149 0
M  V30 13614 H 1287.43 -2.25951 -1.97196 0
M  V30 13615 H 1284.98 -1.20192 -0.999179 0
M  V30 13616 H 1285.71 -0.0235051 -3.24291 0
M  V30 13617 H 1285.5 -1.78013 -3.49362 0
M  V30 13618 H 1286.99 -0.969298 -4.06195 0
M  V30 13619 N 1287.43 1.02549 -1.19673 0
M  V30 13620 C 1288.67 1.75408 -0.995732 0
M  V30 13621 C 1288.99 1.89773 0.473863 0
M  V30 13622 O 1290.19 2.59638 0.793762 0
M  V30 13623 C 1288.65 3.15444 -1.73273 0
M  V30 13624 C 1288.26 3.09121 -3.24266 0
M  V30 13625 C 1290 3.92575 -1.61509 0
M  V30 13626 C 1287.91 4.44109 -3.9054 0
M  V30 13627 H 1286.84 0.657569 -0.368944 0
M  V30 13628 H 1289.49 1.14739 -1.43203 0
M  V30 13629 H 1287.87 3.76601 -1.22425 0
M  V30 13630 H 1289.05 2.57325 -3.82257 0
M  V30 13631 H 1287.36 2.45485 -3.36342 0
M  V30 13632 H 1289.96 4.92428 -2.08372 0
M  V30 13633 H 1290.3 4.12382 -0.569804 0
M  V30 13634 H 1290.83 3.38027 -2.09721 0
M  V30 13635 H 1287.57 4.29506 -4.95182 0
M  V30 13636 H 1287.09 4.95947 -3.37337 0
M  V30 13637 H 1288.77 5.12982 -3.94282 0
M  V30 13638 N 1288.9 1.00119 1.21713 0
M  V30 13639 C 1289.87 0.563409 2.22167 0
M  V30 13640 C 1290.87 -0.35819 1.5676 0
M  V30 13641 O 1292.06 -0.149001 1.73562 0
M  V30 13642 C 1289.19 -0.179365 3.40428 0
M  V30 13643 H 1290.38 1.45189 2.62412 0
M  V30 13644 H 1287.93 0.789286 1.34907 0
M  V30 13645 H 1288.67 -1.08345 3.05666 0
M  V30 13646 H 1288.45 0.482471 3.8912 0
M  V30 13647 H 1289.94 -0.473537 4.14906 0
M  V30 13648 N 1290.38 -1.37203 0.775435 0
M  V30 13649 C 1291.33 -2.30228 0.162388 0
M  V30 13650 C 1292.3 -1.51284 -0.685747 0
M  V30 13651 O 1293.48 -1.7984 -0.637342 0
M  V30 13652 C 1290.62 -3.37762 -0.707858 0
M  V30 13653 C 1289.74 -4.31714 0.157287 0
M  V30 13654 C 1288.87 -5.26325 -0.718012 0
M  V30 13655 C 1287.91 -6.11918 0.149442 0
M  V30 13656 N 1287.05 -6.9876 -0.684043 0
M  V30 13657 H 1291.89 -2.82073 0.961184 0
M  V30 13658 H 1289.42 -1.38854 0.485587 0
M  V30 13659 H 1291.38 -3.98741 -1.22726 0
M  V30 13660 H 1290.01 -2.87273 -1.47222 0
M  V30 13661 H 1289.06 -3.7201 0.794533 0
M  V30 13662 H 1290.38 -4.91909 0.826262 0
M  V30 13663 H 1289.53 -5.92526 -1.30376 0
M  V30 13664 H 1288.27 -4.6655 -1.42066 0
M  V30 13665 H 1287.27 -5.44692 0.747697 0
M  V30 13666 H 1288.5 -6.73766 0.849476 0
M  V30 13667 H 1286.45 -6.41508 -1.37124 0
M  V30 13668 H 1286.36 -7.55965 -0.0724464 0
M  V30 13669 H 1287.63 -7.69346 -1.25407 0
M  V30 13670 N 1291.86 -0.526279 -1.48553 0
M  V30 13671 C 1293.11 0.0091665 -2.02498 0
M  V30 13672 C 1293.43 1.34632 -1.40373 0
M  V30 13673 O 1292.69 1.88172 -0.537573 0
M  V30 13674 C 1292.99 0.184075 -3.56926 0
M  V30 13675 C 1292.65 -1.07825 -4.37818 0
M  V30 13676 C 1291.32 -1.42422 -4.59641 0
M  V30 13677 C 1293.67 -1.91616 -4.84699 0
M  V30 13678 C 1291 -2.60713 -5.25591 0
M  V30 13679 C 1293.35 -3.09082 -5.51952 0
M  V30 13680 C 1292.01 -3.44029 -5.72014 0
M  V30 13681 H 1291.28 0.00335426 -0.740992 0
M  V30 13682 H 1293.93 -0.691553 -1.78577 0
M  V30 13683 H 1292.23 0.967532 -3.79666 0
M  V30 13684 H 1293.93 0.613226 -3.96283 0
M  V30 13685 H 1290.52 -0.798812 -4.2109 0
M  V30 13686 H 1294.71 -1.66199 -4.67645 0
M  V30 13687 H 1289.96 -2.87996 -5.39322 0
M  V30 13688 H 1294.14 -3.74317 -5.87247 0
M  V30 13689 H 1291.76 -4.35789 -6.2289 0
M  V30 13690 N 1293.34 1.5542 -0.261239 0
M  V30 13691 C 1294.29 2.23382 0.648324 0
M  V30 13692 C 1295.28 1.22615 1.16884 0
M  V30 13693 O 1296.49 1.40587 1.12407 0
M  V30 13694 H 1292.86 0.716733 0.227592 0
M  V30 13695 H 1294.83 2.98354 0.0521289 0
M  V30 13696 C 1293.58 2.9579 1.82766 0
M  V30 13697 H 1292.9 3.73109 1.4363 0
M  V30 13698 H 1294.34 3.46686 2.441 0
M  V30 13699 C 1292.8 2.00472 2.70763 0
M  V30 13700 O 1293.33 1.54698 3.70717 0
M  V30 13701 N 1291.54 1.67267 2.37635 0
M  V30 13702 H 1291.09 2.04685 1.56402 0
M  V30 13703 H 1291.04 1.03759 2.96785 0
M  V30 13704 N 1294.82 -0.0116844 1.57596 0
M  V30 13705 C 1296.06 -0.698089 1.89234 0
M  V30 13706 C 1296.38 -1.75581 0.862016 0
M  V30 13707 O 1297.58 -2.49602 1.06822 0
M  V30 13708 C 1296.04 -1.29277 3.3588 0
M  V30 13709 C 1295.65 -0.27049 4.47183 0
M  V30 13710 C 1297.39 -1.95805 3.76644 0
M  V30 13711 C 1295.3 -0.874502 5.84899 0
M  V30 13712 H 1294.23 -0.264495 0.706087 0
M  V30 13713 H 1296.88 0.0469451 1.8344 0
M  V30 13714 H 1295.26 -2.08809 3.36474 0
M  V30 13715 H 1296.44 0.499381 4.58086 0
M  V30 13716 H 1294.75 0.293676 4.15363 0
M  V30 13717 H 1297.35 -2.41879 4.76863 0
M  V30 13718 H 1297.69 -2.78366 3.09545 0
M  V30 13719 H 1298.22 -1.23023 3.78299 0
M  V30 13720 H 1294.96 -0.0879263 6.55441 0
M  V30 13721 H 1294.48 -1.61381 5.77682 0
M  V30 13722 H 1296.16 -1.37665 6.32185 0
M  V30 13723 N 1296.29 -1.55015 -0.284256 0
M  V30 13724 C 1297.57 -1.6579 -1.03794 0
M  V30 13725 C 1297.95 -0.517029 -2.04671 0
M  V30 13726 O 1297.3 0.484287 -2.23309 0
M  V30 13727 C 1297.51 -3.04527 -1.70483 0
M  V30 13728 C 1298.86 -3.61903 -2.22062 0
M  V30 13729 O 1299.88 -3.07087 -1.80488 0
M  V30 13730 O 1298.74 -4.57917 -2.98286 0
M  V30 13731 H 1295.83 -0.672906 -0.480757 0
M  V30 13732 H 1298.38 -1.67357 -0.281009 0
M  V30 13733 H 1297.15 -3.79004 -0.973238 0
M  V30 13734 H 1296.77 -3.0681 -2.5289 0
M  V30 13735 N 1297.77 0.548248 -1.47757 0
M  V30 13736 C 1298.73 1.63666 -1.60456 0
M  V30 13737 C 1299.73 1.53499 -0.479028 0
M  V30 13738 O 1300.92 1.57497 -0.744342 0
M  V30 13739 C 1298.06 3.03239 -1.55754 0
M  V30 13740 H 1299.25 1.53752 -2.57488 0
M  V30 13741 H 1296.8 0.768881 -1.36081 0
M  V30 13742 H 1297.54 3.18677 -0.601303 0
M  V30 13743 H 1297.32 3.12027 -2.37448 0
M  V30 13744 H 1298.81 3.82406 -1.67797 0
M  V30 13745 N 1299.25 1.36039 0.795694 0
M  V30 13746 C 1300.53 1.20474 1.54096 0
M  V30 13747 C 1300.91 -0.211691 2.10036 0
M  V30 13748 O 1300.25 -1.21656 1.93422 0
M  V30 13749 C 1300.46 2.28164 2.64087 0
M  V30 13750 C 1301.81 2.64519 3.32137 0
M  V30 13751 O 1302.84 2.2716 2.74366 0
M  V30 13752 O 1301.7 3.28796 4.36527 0
M  V30 13753 H 1298.79 0.468699 0.681359 0
M  V30 13754 H 1301.34 1.47752 0.834716 0
M  V30 13755 H 1300.11 3.23121 2.20701 0
M  V30 13756 H 1299.73 2.02217 3.42336 0
M  V30 13757 N 1300.73 -1.01913 1.20215 0
M  V30 13758 C 1301.68 -2.104 0.948708 0
M  V30 13759 C 1302.65 -1.65665 -0.120139 0
M  V30 13760 O 1303.83 -1.90785 0.0240547 0
M  V30 13761 C 1300.97 -3.41398 0.504132 0
M  V30 13762 C 1300.08 -3.99625 1.64085 0
M  V30 13763 C 1299.22 -5.18673 1.14683 0
M  V30 13764 C 1298.26 -5.68977 2.2568 0
M  V30 13765 N 1297.39 -6.79289 1.77514 0
M  V30 13766 H 1302.23 -2.31415 1.87753 0
M  V30 13767 H 1299.77 -1.13487 0.935901 0
M  V30 13768 H 1301.73 -4.16578 0.22771 0
M  V30 13769 H 1300.36 -3.20463 -0.387689 0
M  V30 13770 H 1299.41 -3.21565 2.03225 0
M  V30 13771 H 1300.72 -4.32965 2.47674 0
M  V30 13772 H 1299.88 -6.01048 0.826223 0
M  V30 13773 H 1298.62 -4.86891 0.280797 0
M  V30 13774 H 1297.62 -4.85208 2.5856 0
M  V30 13775 H 1298.85 -6.02794 3.12755 0
M  V30 13776 H 1296.79 -6.49341 0.932338 0
M  V30 13777 H 1296.71 -7.11808 2.54686 0
M  V30 13778 H 1297.98 -7.65235 1.48446 0
M  V30 13779 N 1302.21 -1.00763 -1.2118 0
M  V30 13780 C 1303.45 -0.692851 -1.90598 0
M  V30 13781 C 1303.79 0.774698 -1.78079 0
M  V30 13782 O 1303.06 1.56186 -1.15914 0
M  V30 13783 C 1303.34 -1.11792 -3.42308 0
M  V30 13784 C 1303.2 -2.64511 -3.63805 0
M  V30 13785 C 1304.52 -0.682314 -4.34779 0
M  V30 13786 H 1301.63 -0.253175 -0.69215 0
M  V30 13787 H 1304.28 -1.25378 -1.4276 0
M  V30 13788 H 1302.43 -0.640665 -3.83181 0
M  V30 13789 H 1304.1 -3.20021 -3.32242 0
M  V30 13790 H 1302.34 -3.05903 -3.0758 0
M  V30 13791 H 1303.01 -2.89306 -4.70113 0
M  V30 13792 H 1305.49 -1.09247 -4.01503 0
M  V30 13793 H 1304.36 -1.00787 -5.39568 0
M  V30 13794 H 1304.63 0.416441 -4.40134 0
M  V30 13795 N 1303.68 1.3679 -0.7827 0
M  V30 13796 C 1304.63 2.32019 -0.164358 0
M  V30 13797 C 1305.63 1.55476 0.672571 0
M  V30 13798 O 1306.83 1.7079 0.568406 0
M  V30 13799 H 1303.21 0.751214 -0.0343697 0
M  V30 13800 H 1305.18 2.81741 -0.983077 0
M  V30 13801 C 1303.93 3.4075 0.691727 0
M  V30 13802 H 1303.25 3.99759 0.0570885 0
M  V30 13803 H 1304.69 4.09719 1.09117 0
M  V30 13804 C 1303.15 2.81753 1.84708 0
M  V30 13805 O 1303.68 2.73378 2.94325 0
M  V30 13806 N 1301.89 2.39138 1.6511 0
M  V30 13807 H 1301.43 2.46149 0.759487 0
M  V30 13808 H 1301.39 2.0001 2.42576 0
M  V30 13809 N 1305.16 0.53415 1.48272 0
M  V30 13810 C 1306.57 0.0947592 1.86459 0
M  V30 13811 C 1306.92 -1.32906 1.44328 0
M  V30 13812 O 1306.05 -1.99605 0.835866 0
M  V30 13813 C 1306.64 0.16519 3.38397 0
M  V30 13814 C 1305.2 -0.219029 3.75762 0
M  V30 13815 C 1304.35 0.523097 2.72321 0
M  V30 13816 H 1307.3 0.74517 1.40117 0
M  V30 13817 H 1307.32 -0.622065 3.75381 0
M  V30 13818 H 1306.83 1.20157 3.69031 0
M  V30 13819 H 1304.94 -1.2574 3.50742 0
M  V30 13820 H 1305.05 0.123482 4.78941 0
M  V30 13821 H 1303.41 -0.0311323 2.54681 0
M  V30 13822 H 1304.2 1.56019 3.05799 0
M  V30 13823 N 1306.64 -1.55279 0.269478 0
M  V30 13824 C 1308.06 -1.59374 -0.0848147 0
M  V30 13825 C 1308.26 -1.2867 -1.55068 0
M  V30 13826 O 1307.31 -1.04486 -2.29867 0
M  V30 13827 C 1308.63 -2.99349 0.284735 0
M  V30 13828 C 1310.17 -3.12147 0.230887 0
M  V30 13829 C 1310.65 -4.54379 0.574795 0
M  V30 13830 N 1312.14 -4.60202 0.526136 0
M  V30 13831 C 1312.87 -5.68273 0.765109 0
M  V30 13832 N 1312.37 -6.84512 1.0684 0
M  V30 13833 N 1314.16 -5.57796 0.694287 0
M  V30 13834 H 1306.31 -1.73503 1.22517 0
M  V30 13835 H 1308.58 -0.808771 0.494564 0
M  V30 13836 H 1308.28 -3.26633 1.30398 0
M  V30 13837 H 1308.16 -3.75309 -0.377199 0
M  V30 13838 H 1310.54 -2.84631 -0.779064 0
M  V30 13839 H 1310.63 -2.38412 0.926998 0
M  V30 13840 H 1310.27 -4.8262 1.58241 0
M  V30 13841 H 1310.2 -5.26406 -0.143044 0
M  V30 13842 H 1312.69 -3.76696 0.301368 0
M  V30 13843 H 1313 -7.62826 1.23757 0
M  V30 13844 H 1311.35 -6.86141 1.10612 0
M  V30 13845 H 1314.54 -4.65862 0.457226 0
M  V30 13846 H 1314.71 -6.41943 0.883913 0
M  V30 13847 N 1308.12 0.00332656 -1.576 0
M  V30 13848 C 1309.05 0.994803 -2.11248 0
M  V30 13849 C 1310.03 1.36061 -1.02085 0
M  V30 13850 O 1311.21 1.44494 -1.2975 0
M  V30 13851 C 1308.34 2.28772 -2.61306 0
M  V30 13852 C 1307.3 2.06362 -3.74965 0
M  V30 13853 C 1306.62 3.41638 -4.11324 0
M  V30 13854 C 1307.92 1.4289 -5.02374 0
M  V30 13855 H 1309.62 0.548119 -2.9434 0
M  V30 13856 H 1307.16 0.262208 -1.41593 0
M  V30 13857 H 1309.12 2.98485 -2.97464 0
M  V30 13858 H 1307.84 2.75547 -1.75332 0
M  V30 13859 H 1306.5 1.39076 -3.39195 0
M  V30 13860 H 1306.15 3.8611 -3.22379 0
M  V30 13861 H 1305.85 3.2746 -4.87897 0
M  V30 13862 H 1307.37 4.12671 -4.50039 0
M  V30 13863 H 1308.79 2.02555 -5.36325 0
M  V30 13864 H 1307.18 1.3921 -5.8373 0
M  V30 13865 H 1308.25 0.397708 -4.83266 0
M  V30 13866 N 1309.6 1.55164 0.276031 0
M  V30 13867 C 1310.56 1.87065 1.32436 0
M  V30 13868 C 1311.56 0.745024 1.42499 0
M  V30 13869 O 1312.75 1.01321 1.41702 0
M  V30 13870 C 1309.88 2.07322 2.70611 0
M  V30 13871 H 1311.07 2.80775 1.05382 0
M  V30 13872 H 1308.63 1.47609 0.513947 0
M  V30 13873 H 1309.36 1.15983 3.0285 0
M  V30 13874 H 1309.15 2.89275 2.64693 0
M  V30 13875 H 1310.64 2.33287 3.46362 0
M  V30 13876 O 1311.11 -0.421827 1.55894 0
M  V30 13877 H 1311.8 -1.07487 1.61141 0
M  V30 END ATOM
M  V30 BEGIN BOND
M  V30 END BOND
M  V30 END CTAB
M  END
$$$$
