drugbank_target|P0AFI7 Pyridoxine/pyridoxamine 5'-phosphate oxidase (DB03247; DB03345)
 OpenBabel12092120033D

  0  0  0     0  0            999 V3000
M  V30 BEGIN CTAB
M  V30 COUNTS 3593 3638 0 0 0
M  V30 BEGIN ATOM
M  V30 1 H -0.908 1.98254 -0.117106 0
M  V30 2 N 0 1.576 0 0
M  V30 3 C 0.933 2.03868 1.02534 0
M  V30 4 C 1.911 0.928543 1.3348 0
M  V30 5 O 3.095 1.19667 1.45644 0
M  V30 6 C 0.222 2.43627 2.35294 0
M  V30 7 C -0.732 3.65373 2.2001 0
M  V30 8 S 0.101 5.13292 1.52614 0
M  V30 9 C 1.257 5.56322 2.86805 0
M  V30 10 H 1.49 2.90518 0.631377 0
M  V30 11 H -0.977 1.52953 0.210867 0
M  V30 12 H 0.981 2.67203 3.11629 0
M  V30 13 H -0.358 1.57376 2.7183 0
M  V30 14 H -1.165 3.90944 3.18086 0
M  V30 15 H -1.563 3.418 1.51819 0
M  V30 16 H 0.729 5.58782 3.83104 0
M  V30 17 H 1.672 6.56266 2.65933 0
M  V30 18 H 2.08 4.83886 2.90714 0
M  V30 19 N 1.4781 -0.272755 1.55222 0
M  V30 20 C 2.7031 -1.02683 1.80197 0
M  V30 21 C 3.1281 -1.79142 0.573551 0
M  V30 22 O 2.4861 -1.74917 -0.476849 0
M  V30 23 C 2.5341 -1.9609 3.02624 0
M  V30 24 O 1.6381 -3.04863 2.77727 0
M  V30 25 H 0.9791 -0.293557 0.595584 0
M  V30 26 H 3.5091 -0.30159 2.02365 0
M  V30 27 H 3.5191 -2.38039 3.31363 0
M  V30 28 H 2.1941 -1.39851 3.91682 0
M  V30 29 H 0.7711 -2.67228 2.60084 0
M  V30 30 N 2.9562 -1.48159 -0.537278 0
M  V30 31 C 4.2332 -1.46291 -1.29839 0
M  V30 32 C 4.6132 -0.170613 -2.10409 0
M  V30 33 O 3.9612 0.847746 -2.12192 0
M  V30 34 C 4.1712 -2.72055 -2.18603 0
M  V30 35 C 5.5192 -3.20087 -2.7898 0
M  V30 36 O 6.5432 -2.72921 -2.28894 0
M  V30 37 O 5.4022 -4.02138 -3.70064 0
M  V30 38 H 2.4962 -0.583906 -0.585647 0
M  V30 39 H 5.0422 -1.60384 -0.554534 0
M  V30 40 H 3.8142 -3.57628 -1.58801 0
M  V30 41 H 3.4372 -2.60646 -3.00249 0
M  V30 42 N 4.4343 0.785586 -1.36625 0
M  V30 43 C 5.3823 1.91978 -1.31329 0
M  V30 44 C 6.3763 1.68162 -0.204416 0
M  V30 45 O 7.5823 1.76122 -0.371645 0
M  V30 46 H 3.9573 0.631087 -0.408942 0
M  V30 47 H 5.9283 1.93562 -2.27104 0
M  V30 48 C 4.6773 3.29055 -1.12329 0
M  V30 49 H 4.0003 3.4795 -1.96903 0
M  V30 50 H 5.4403 4.08756 -1.12671 0
M  V30 51 C 3.8993 3.36461 0.171861 0
M  V30 52 O 4.4293 3.84576 1.16035 0
M  V30 53 N 2.6353 2.89782 0.217846 0
M  V30 54 H 2.1823 2.50819 -0.587183 0
M  V30 55 H 2.1403 2.95119 1.08408 0
M  V30 56 N 5.9124 1.20967 1.01018 0
M  V30 57 C 7.1894 0.93264 1.71934 0
M  V30 58 C 7.5694 -0.55692 2.03621 0
M  V30 59 O 6.9174 -1.52035 1.7058 0
M  V30 60 C 7.1274 1.81233 2.98254 0
M  V30 61 C 8.4754 2.05804 3.71389 0
M  V30 62 O 9.4994 1.78539 3.08225 0
M  V30 63 O 8.3584 2.51888 4.84989 0
M  V30 64 H 5.4524 0.349272 0.749625 0
M  V30 65 H 7.9984 1.31871 1.06808 0
M  V30 66 H 6.7704 2.82067 2.71208 0
M  V30 67 H 6.3934 1.42674 3.7112 0
M  V30 68 N 7.3905 -1.2043 1.01659 0
M  V30 69 C 8.3005 -2.2689 0.596484 0
M  V30 70 C 9.3165 -1.70107 -0.36599 0
M  V30 71 O 10.4925 -2.00117 -0.226942 0
M  V30 72 C 7.5575 -3.4665 -0.0586659 0
M  V30 73 C 6.6185 -4.18662 0.949751 0
M  V30 74 C 5.8515 -5.32705 0.32577 0
M  V30 75 O 6.0745 -5.63656 -0.874509 0
M  V30 76 O 5.0085 -5.92803 1.04249 0
M  V30 77 H 8.8345 -2.65041 1.4828 0
M  V30 78 H 6.4195 -1.27048 0.786082 0
M  V30 79 H 8.3015 -4.19256 -0.424564 0
M  V30 80 H 6.9765 -3.10375 -0.91918 0
M  V30 81 H 5.8835 -3.48229 1.36702 0
M  V30 82 H 7.2165 -4.58878 1.78023 0
M  V30 83 N 8.8686 -0.792821 -1.36206 0
M  V30 84 C 9.7986 -0.207853 -2.32573 0
M  V30 85 C 10.7796 0.659055 -1.56813 0
M  V30 86 O 11.9646 0.592176 -1.84951 0
M  V30 87 C 9.0946 0.655449 -3.41059 0
M  V30 88 C 8.0486 -0.111842 -4.27854 0
M  V30 89 C 7.3746 0.872274 -5.27537 0
M  V30 90 C 8.6746 -1.30299 -5.05786 0
M  V30 91 H 10.3686 -1.01294 -2.81744 0
M  V30 92 H 7.9146 -0.48854 -1.3546 0
M  V30 93 H 9.8676 1.07464 -4.07467 0
M  V30 94 H 8.5916 1.49328 -2.90463 0
M  V30 95 H 7.2506 -0.512053 -3.63006 0
M  V30 96 H 6.8986 1.70523 -4.73214 0
M  V30 97 H 6.5986 0.363291 -5.86476 0
M  V30 98 H 8.1226 1.28996 -5.96818 0
M  V30 99 H 9.5366 -0.959379 -5.65216 0
M  V30 100 H 7.9336 -1.7455 -5.74154 0
M  V30 101 H 9.0036 -2.09663 -4.37229 0
M  V30 102 N 10.3467 1.47872 -0.545128 0
M  V30 103 C 11.2787 2.27869 0.246621 0
M  V30 104 C 12.2917 1.36282 0.890561 0
M  V30 105 O 13.4807 1.61207 0.766449 0
M  V30 106 C 10.5807 3.10159 1.36582 0
M  V30 107 C 9.7537 4.29627 0.820954 0
M  V30 108 C 8.8127 4.93607 1.82314 0
M  V30 109 O 7.8387 5.52366 1.37406 0
M  V30 110 N 9.0407 4.87211 3.15603 0
M  V30 111 H 11.8057 2.96459 -0.439539 0
M  V30 112 H 9.3667 1.57367 -0.380421 0
M  V30 113 H 11.3587 3.49829 2.03474 0
M  V30 114 H 9.9287 2.43891 1.9554 0
M  V30 115 H 9.1487 3.94192 -0.0244032 0
M  V30 116 H 10.4367 5.06928 0.436063 0
M  V30 117 H 9.8347 4.40651 3.54744 0
M  V30 118 H 8.3917 5.30937 3.78087 0
M  V30 119 N 11.8248 0.280983 1.55075 0
M  V30 120 C 12.7568 -0.637268 2.20163 0
M  V30 121 C 13.7698 -1.11298 1.18813 0
M  V30 122 O 14.9588 -1.03388 1.4551 0
M  V30 123 C 12.0588 -1.88199 2.81841 0
M  V30 124 C 11.2318 -1.55211 4.08936 0
M  V30 125 C 10.2908 -2.64991 4.54606 0
M  V30 126 O 9.3168 -2.30929 5.2025 0
M  V30 127 N 10.5188 -3.95161 4.25238 0
M  V30 128 H 13.2838 -0.0801694 2.99593 0
M  V30 129 H 10.8448 0.102329 1.61576 0
M  V30 130 H 12.8368 -2.60948 3.09335 0
M  V30 131 H 11.4068 -2.34799 2.06369 0
M  V30 132 H 10.6268 -0.658185 3.88666 0
M  V30 133 H 11.9148 -1.30681 4.91732 0
M  V30 134 H 11.3128 -4.25653 3.72607 0
M  V30 135 H 9.8698 -4.6427 4.5749 0
M  V30 136 N 13.3029 -1.57598 0.00835791 0
M  V30 137 C 14.5519 -1.90107 -0.673968 0
M  V30 138 C 14.8649 -0.884275 -1.7447 0
M  V30 139 O 16.0709 -1.09987 -2.48224 0
M  V30 140 C 14.5269 -3.37497 -1.24995 0
M  V30 141 C 14.1349 -4.47491 -0.2136 0
M  V30 142 C 15.8789 -3.79104 -1.90999 0
M  V30 143 C 13.7859 -5.85963 -0.80005 0
M  V30 144 H 12.7159 -0.709393 -0.255495 0
M  V30 145 H 15.3669 -1.83365 0.0702693 0
M  V30 146 H 13.7489 -3.39102 -2.04513 0
M  V30 147 H 14.9229 -4.57414 0.557596 0
M  V30 148 H 13.2379 -4.14956 0.346474 0
M  V30 149 H 15.8349 -4.79901 -2.35795 0
M  V30 150 H 16.1779 -3.1306 -2.74407 0
M  V30 151 H 16.7109 -3.79833 -1.18203 0
M  V30 152 H 13.4499 -6.555 -0.00456708 0
M  V30 153 H 12.9699 -5.79687 -1.54021 0
M  V30 154 H 14.6489 -6.33884 -1.29615 0
M  V30 155 N 14.781 0.264519 -1.55364 0
M  V30 156 C 15.744 1.31046 -1.88042 0
M  V30 157 C 16.744 1.41943 -0.755569 0
M  V30 158 O 17.934 1.40947 -1.02369 0
M  V30 159 C 15.066 2.69067 -2.09323 0
M  V30 160 H 16.259 1.03297 -2.81549 0
M  V30 161 H 13.812 0.502989 -1.47986 0
M  V30 162 H 14.547 3.01982 -1.18226 0
M  V30 163 H 14.332 2.62542 -2.91229 0
M  V30 164 H 15.822 3.44623 -2.35848 0
M  V30 165 N 16.2591 1.48442 0.529413 0
M  V30 166 C 17.2091 1.59407 1.63014 0
M  V30 167 C 18.1931 0.451166 1.54445 0
M  V30 168 O 19.3851 0.702635 1.62456 0
M  V30 169 C 16.5141 1.63746 3.01732 0
M  V30 170 C 15.6001 2.83518 3.15402 0
M  V30 171 N 15.9911 4.07929 2.99045 0
M  V30 172 C 14.2891 2.80862 3.46457 0
M  V30 173 C 14.9901 4.8829 3.16146 0
M  V30 174 N 13.9661 4.21117 3.43746 0
M  V30 175 H 17.7681 2.53343 1.48978 0
M  V30 176 H 15.2821 1.44821 0.734885 0
M  V30 177 H 17.2791 1.69695 3.80801 0
M  V30 178 H 15.9391 0.709264 3.16859 0
M  V30 179 H 16.9501 4.38357 2.75796 0
M  V30 180 H 13.6271 1.97301 3.67938 0
M  V30 181 H 15.0171 5.97028 3.08232 0
M  V30 182 N 17.7372 -0.778329 1.37039 0
M  V30 183 C 18.6672 -1.90546 1.34962 0
M  V30 184 C 19.6482 -1.68681 0.219274 0
M  V30 185 O 20.8332 -1.89634 0.418624 0
M  V30 186 C 17.9632 -3.27734 1.14925 0
M  V30 187 C 16.9172 -3.64147 2.24902 0
M  V30 188 C 16.2432 -4.99806 1.89996 0
M  V30 189 C 17.5432 -3.71579 3.67051 0
M  V30 190 H 19.2372 -1.92541 2.29277 0
M  V30 191 H 16.7832 -0.924948 1.10366 0
M  V30 192 H 18.7362 -4.06215 1.12104 0
M  V30 193 H 17.4602 -3.26154 0.170631 0
M  V30 194 H 16.1192 -2.8797 2.26868 0
M  V30 195 H 15.7672 -4.94759 0.906796 0
M  V30 196 H 15.4672 -5.25139 2.63634 0
M  V30 197 H 16.9912 -5.80694 1.88749 0
M  V30 198 H 18.4052 -4.40227 3.67251 0
M  V30 199 H 16.8022 -4.08405 4.39688 0
M  V30 200 H 17.8722 -2.72404 4.01154 0
M  V30 201 N 19.2153 -1.21501 -1.00376 0
M  V30 202 C 20.6313 -0.972629 -1.26539 0
M  V30 203 C 20.8313 0.340257 -1.98606 0
M  V30 204 O 19.8873 1.06561 -2.28913 0
M  V30 205 C 21.2003 -2.16404 -2.08781 0
M  V30 206 C 22.7483 -2.20643 -2.22004 0
M  V30 207 C 23.2233 -3.39306 -3.07629 0
M  V30 208 N 24.7143 -3.39401 -3.15217 0
M  V30 209 C 25.4493 -4.27867 -3.81729 0
M  V30 210 N 24.9453 -5.26533 -4.5026 0
M  V30 211 N 26.7383 -4.15672 -3.78382 0
M  V30 212 H 18.8893 -2.05929 -0.520281 0
M  V30 213 H 21.1523 -0.901803 -0.292328 0
M  V30 214 H 20.8583 -3.11554 -1.63178 0
M  V30 215 H 20.7323 -2.15567 -3.09533 0
M  V30 216 H 23.1193 -1.26048 -2.66825 0
M  V30 217 H 23.2003 -2.25523 -1.20718 0
M  V30 218 H 22.8443 -4.34195 -2.63509 0
M  V30 219 H 22.7743 -3.31665 -4.09031 0
M  V30 220 H 25.2653 -2.67997 -2.66432 0
M  V30 221 H 25.5783 -5.90337 -4.98721 0
M  V30 222 H 23.9233 -5.30457 -4.49044 0
M  V30 223 H 27.1143 -3.3785 -3.23998 0
M  V30 224 H 27.2873 -4.84825 -4.2994 0
M  V30 225 N 20.6934 1.19889 -1.02296 0
M  V30 226 C 22.1094 1.41462 -0.738954 0
M  V30 227 C 22.3094 1.89721 0.678846 0
M  V30 228 O 21.3654 2.07016 1.4457 0
M  V30 229 C 22.6784 2.43083 -1.77005 0
M  V30 230 C 24.2264 2.5684 -1.78892 0
M  V30 231 C 24.7014 3.61709 -2.80945 0
M  V30 232 N 26.1924 3.69199 -2.79725 0
M  V30 233 C 26.9274 4.50019 -3.55345 0
M  V30 234 N 26.4234 5.34592 -4.40662 0
M  V30 235 N 28.2164 4.44612 -3.43914 0
M  V30 236 H 20.3674 0.868827 -1.93817 0
M  V30 237 H 22.6304 0.44399 -0.837602 0
M  V30 238 H 22.3364 2.14636 -2.78612 0
M  V30 239 H 22.2104 3.4217 -1.58744 0
M  V30 240 H 24.5974 2.84614 -0.779674 0
M  V30 241 H 24.6784 1.57927 -2.01228 0
M  V30 242 H 24.3224 3.34678 -3.82038 0
M  V30 243 H 24.2524 4.60259 -2.5587 0
M  V30 244 H 26.7434 3.08794 -2.17842 0
M  V30 245 H 27.0564 5.93363 -4.95116 0
M  V30 246 H 25.4014 5.34073 -4.44737 0
M  V30 247 H 28.5924 3.7758 -2.76679 0
M  V30 248 H 28.7654 5.0736 -4.031 0
M  V30 249 N 22.1715 0.800033 1.35784 0
M  V30 250 C 23.0815 0.207204 2.33683 0
M  V30 251 C 24.0975 -0.64631 1.61551 0
M  V30 252 O 25.2735 -0.559604 1.93469 0
M  V30 253 C 22.3385 -0.639659 3.40748 0
M  V30 254 C 21.3995 0.233585 4.28664 0
M  V30 255 C 20.6325 -0.572954 5.30616 0
M  V30 256 O 20.8555 -1.80816 5.40982 0
M  V30 257 O 19.7895 0.0327285 6.01891 0
M  V30 258 H 23.6155 1.01692 2.86169 0
M  V30 259 H 21.2005 0.561691 1.38439 0
M  V30 260 H 23.0825 -1.12223 4.06182 0
M  V30 261 H 21.7575 -1.42708 2.90544 0
M  V30 262 H 20.6645 0.763147 3.66233 0
M  V30 263 H 21.9975 0.984784 4.82248 0
M  V30 264 N 23.6496 -1.47581 0.552962 0
M  V30 265 C 24.8796 -2.06575 0.0320091 0
M  V30 266 C 25.2876 -1.4067 -1.26525 0
M  V30 267 O 24.6306 -0.495808 -1.76883 0
M  V30 268 C 24.6926 -3.58705 -0.238913 0
M  V30 269 C 24.3566 -4.46625 0.968272 0
M  V30 270 C 25.3536 -4.85 1.87274 0
M  V30 271 C 23.0386 -4.88201 1.18175 0
M  V30 272 C 25.0326 -5.63745 2.9744 0
M  V30 273 C 22.7196 -5.66712 2.28651 0
M  V30 274 C 23.7176 -6.04394 3.18114 0
M  V30 275 O 23.4056 -6.81324 4.26676 0
M  V30 276 H 23.1376 -0.674763 0.0408689 0
M  V30 277 H 25.6916 -1.90634 0.764719 0
M  V30 278 H 23.9216 -3.72844 -1.02588 0
M  V30 279 H 25.6106 -3.99735 -0.704731 0
M  V30 280 H 26.3766 -4.53482 1.71984 0
M  V30 281 H 22.2556 -4.58339 0.494593 0
M  V30 282 H 25.7996 -5.93077 3.67296 0
M  V30 283 H 21.6966 -5.97642 2.43915 0
M  V30 284 H 22.4646 -6.99712 4.24671 0
M  V30 285 N 25.1277 -0.289203 -1.54924 0
M  V30 286 C 26.3557 0.326463 -2.04308 0
M  V30 287 C 26.7707 1.48413 -1.16701 0
M  V30 288 O 26.1277 1.81507 -0.190087 0
M  V30 289 C 26.1787 0.794014 -3.52672 0
M  V30 290 O 25.8997 -0.317564 -4.36948 0
M  V30 291 C 27.4007 1.47605 -4.18004 0
M  V30 292 H 24.6207 0.0726272 -0.667058 0
M  V30 293 H 27.1647 -0.425401 -2.00026 0
M  V30 294 H 25.3197 1.49593 -3.57352 0
M  V30 295 H 25.7337 0.0443186 -5.24481 0
M  V30 296 H 27.2077 1.75447 -5.23376 0
M  V30 297 H 27.6847 2.41224 -3.67025 0
M  V30 298 H 28.2907 0.81762 -4.17367 0
M  V30 299 N 26.6058 1.57591 -0.0167156 0
M  V30 300 C 27.5528 2.09462 0.969251 0
M  V30 301 C 28.5228 0.99381 1.33089 0
M  V30 302 O 29.7078 1.26726 1.42636 0
M  V30 303 C 26.8478 2.61622 2.25051 0
M  V30 304 C 25.9608 3.85666 1.94642 0
M  V30 305 C 25.0958 4.26266 3.16972 0
M  V30 306 C 24.1348 5.43101 2.82326 0
M  V30 307 N 23.2718 5.78915 3.97243 0
M  V30 308 H 28.1118 2.93428 0.519997 0
M  V30 309 H 25.6488 1.45044 0.245087 0
M  V30 310 H 27.6068 2.89949 2.99976 0
M  V30 311 H 26.2368 1.80505 2.67615 0
M  V30 312 H 25.2888 3.64145 1.10013 0
M  V30 313 H 26.6008 4.70678 1.65117 0
M  V30 314 H 25.7548 4.55963 4.00228 0
M  V30 315 H 24.4938 3.39996 3.49648 0
M  V30 316 H 23.4988 5.1311 1.97479 0
M  V30 317 H 24.7238 6.3106 2.50879 0
M  V30 318 H 22.6698 4.95602 4.29785 0
M  V30 319 H 22.5868 6.58539 3.71299 0
M  V30 320 H 23.8548 6.13212 4.81239 0
M  V30 321 N 28.0839 -0.256276 1.55502 0
M  V30 322 C 29.3319 -0.983672 1.76545 0
M  V30 323 C 29.6529 -1.86206 0.578982 0
M  V30 324 O 28.9229 -1.91656 -0.405577 0
M  V30 325 H 27.5029 -0.366191 0.651086 0
M  V30 326 H 30.1649 -0.276479 1.92929 0
M  V30 327 H 29.2609 -1.61087 2.67315 0
M  V30 328 N 29.562 -1.4872 -0.521534 0
M  V30 329 C 30.81 -1.56857 -1.27437 0
M  V30 330 C 31.131 -0.247982 -1.93417 0
M  V30 331 O 30.401 0.731151 -1.81744 0
M  V30 332 H 28.981 -0.577885 -0.473347 0
M  V30 333 H 31.643 -1.85233 -0.606205 0
M  V30 334 H 30.739 -2.35402 -2.0492 0
M  V30 335 N 31.0401 0.771051 -1.3745 0
M  V30 336 C 31.9701 1.89827 -1.3597 0
M  V30 337 C 32.9511 1.68562 -0.228216 0
M  V30 338 O 34.1361 1.8941 -0.428675 0
M  V30 339 C 31.2661 3.2712 -1.16662 0
M  V30 340 C 30.2201 3.6295 -2.2683 0
M  V30 341 C 29.5461 4.98791 -1.92644 0
M  V30 342 C 30.8461 3.69627 -3.69017 0
M  V30 343 H 32.5401 1.91323 -2.30295 0
M  V30 344 H 30.0861 0.919082 -1.10855 0
M  V30 345 H 32.0391 4.05615 -1.14256 0
M  V30 346 H 30.7631 3.26059 -0.187926 0
M  V30 347 H 29.4221 2.86763 -2.28392 0
M  V30 348 H 29.0701 4.94271 -0.933021 0
M  V30 349 H 28.7701 5.23733 -2.66416 0
M  V30 350 H 30.2941 5.79685 -1.91826 0
M  V30 351 H 31.7081 4.38273 -3.69581 0
M  V30 352 H 30.1051 4.06067 -4.41848 0
M  V30 353 H 31.1751 2.70273 -4.02592 0
M  V30 354 N 32.5182 1.22032 0.997298 0
M  V30 355 C 33.9342 0.979326 1.26021 0
M  V30 356 C 34.1342 -0.32972 1.98784 0
M  V30 357 O 33.1902 -1.05345 2.29475 0
M  V30 358 C 34.5032 2.17509 2.07631 0
M  V30 359 C 36.0512 2.21817 2.2083 0
M  V30 360 C 36.5262 3.40933 3.05825 0
M  V30 361 N 38.0172 3.41067 3.13412 0
M  V30 362 C 38.7522 4.29885 3.79455 0
M  V30 363 N 38.2482 5.28914 4.47462 0
M  V30 364 N 40.0412 4.17673 3.76173 0
M  V30 365 H 32.1922 2.06202 0.509352 0
M  V30 366 H 34.4552 0.90334 0.287541 0
M  V30 367 H 34.1612 3.12415 1.61524 0
M  V30 368 H 34.0352 2.17206 3.08385 0
M  V30 369 H 36.4222 1.27462 2.66153 0
M  V30 370 H 36.5032 2.2616 1.1952 0
M  V30 371 H 36.1472 4.35586 2.61203 0
M  V30 372 H 36.0772 3.33829 4.07266 0
M  V30 373 H 38.5682 2.69406 2.65007 0
M  V30 374 H 38.8812 5.92973 4.95583 0
M  V30 375 H 37.2262 5.32831 4.46224 0
M  V30 376 H 40.4172 3.39564 3.22202 0
M  V30 377 H 40.5902 4.87098 4.27363 0
M  V30 378 N 33.9963 -1.19345 1.0293 0
M  V30 379 C 35.4123 -1.41069 0.746446 0
M  V30 380 C 35.6123 -1.90078 -0.668776 0
M  V30 381 O 34.6683 -2.0778 -1.4347 0
M  V30 382 C 35.9813 -2.42141 1.78292 0
M  V30 383 C 37.5293 -2.55887 1.80252 0
M  V30 384 C 38.0043 -3.60214 2.8286 0
M  V30 385 N 39.4953 -3.67711 2.81679 0
M  V30 386 C 40.2303 -4.48128 3.57727 0
M  V30 387 N 39.7263 -5.32248 4.43491 0
M  V30 388 N 41.5193 -4.42782 3.46267 0
M  V30 389 H 33.6703 -0.858536 1.94275 0
M  V30 390 H 35.9333 -0.439541 0.839945 0
M  V30 391 H 35.6393 -2.13155 2.79746 0
M  V30 392 H 35.5133 -3.41323 1.60557 0
M  V30 393 H 37.9003 -2.84196 0.794757 0
M  V30 394 H 37.9813 -1.56858 2.02062 0
M  V30 395 H 37.6253 -3.32647 3.83807 0
M  V30 396 H 37.5553 -4.58895 2.58307 0
M  V30 397 H 40.0463 -3.07634 2.19476 0
M  V30 398 H 40.3593 -5.90729 4.98256 0
M  V30 399 H 38.7043 -5.31707 4.47564 0
M  V30 400 H 41.8953 -3.76107 2.78677 0
M  V30 401 H 42.0683 -5.05215 4.05785 0
M  V30 402 N 35.4744 -0.807222 -1.35358 0
M  V30 403 C 36.8904 -0.491038 -1.51858 0
M  V30 404 C 37.0904 0.987648 -1.75635 0
M  V30 405 O 36.1464 1.77265 -1.79815 0
M  V30 406 C 37.4594 -1.33695 -2.69344 0
M  V30 407 C 39.0074 -1.33246 -2.83222 0
M  V30 408 C 39.4824 -2.1625 -4.03733 0
M  V30 409 N 40.9734 -2.1379 -4.10911 0
M  V30 410 C 41.7084 -2.74772 -5.03277 0
M  V30 411 N 41.2044 -3.44684 -6.0097 0
M  V30 412 N 42.9974 -2.6441 -4.96028 0
M  V30 413 H 35.1484 -1.76485 -1.18181 0
M  V30 414 H 37.4114 -0.751199 -0.578276 0
M  V30 415 H 37.1174 -2.38634 -2.58354 0
M  V30 416 H 36.9914 -0.990618 -3.6396 0
M  V30 417 H 39.3784 -0.290911 -2.93663 0
M  V30 418 H 39.4594 -1.71866 -1.89461 0
M  V30 419 H 39.1034 -3.20445 -3.94052 0
M  V30 420 H 39.0334 -1.74989 -4.96675 0
M  V30 421 H 41.5244 -1.62923 -3.40976 0
M  V30 422 H 41.8374 -3.88501 -6.68047 0
M  V30 423 H 40.1824 -3.48788 -6.01142 0
M  V30 424 H 43.3734 -2.0938 -4.18662 0
M  V30 425 H 43.5464 -3.12225 -5.6782 0
M  V30 426 N 36.9525 1.47285 -0.560781 0
M  V30 427 C 38.2295 1.9558 0.0277798 0
M  V30 428 C 38.6095 1.5034 1.48192 0
M  V30 429 O 37.9575 0.743882 2.16052 0
M  V30 430 C 38.1675 3.48789 -0.121418 0
M  V30 431 C 39.5155 4.24594 0.0220912 0
M  V30 432 O 40.5395 3.56166 -0.0491439 0
M  V30 433 O 39.3985 5.46217 0.175958 0
M  V30 434 H 36.4925 0.824663 0.0621342 0
M  V30 435 H 39.0385 1.5767 -0.627556 0
M  V30 436 H 37.8105 3.74533 -1.13316 0
M  V30 437 H 37.4335 3.93473 0.571366 0
M  V30 438 N 38.4306 0.297415 1.54768 0
M  V30 439 C 39.3606 -0.573494 2.26348 0
M  V30 440 C 40.3416 -1.14085 1.26169 0
M  V30 441 O 41.5266 -1.17086 1.54934 0
M  V30 442 C 38.6566 -1.74716 3.00153 0
M  V30 443 C 37.6106 -1.31032 4.07449 0
M  V30 444 C 36.9366 -2.56887 4.68949 0
M  V30 445 C 38.2366 -0.444183 5.20408 0
M  V30 446 H 39.9306 0.0235131 2.99391 0
M  V30 447 H 37.4766 0.0127488 1.43994 0
M  V30 448 H 39.4296 -2.3625 3.48947 0
M  V30 449 H 38.1536 -2.37035 2.24682 0
M  V30 450 H 36.8126 -0.718066 3.59499 0
M  V30 451 H 36.4606 -3.17512 3.90122 0
M  V30 452 H 36.1606 -2.2836 5.41411 0
M  V30 453 H 37.6846 -3.19229 5.20505 0
M  V30 454 H 39.0986 -0.9651 5.65118 0
M  V30 455 H 37.4956 -0.252846 5.99567 0
M  V30 456 H 38.5656 0.531609 4.81977 0
M  V30 457 N 39.9087 -1.5758 0.0250728 0
M  V30 458 C 41.3197 -1.79476 -0.514323 0
M  V30 459 C 41.6707 -0.934956 -1.72491 0
M  V30 460 O 40.7957 -0.144245 -2.15919 0
M  V30 461 C 41.3907 -3.25503 -0.939842 0
M  V30 462 C 39.9497 -3.48408 -1.42438 0
M  V30 463 C 39.0967 -2.74583 -0.387201 0
M  V30 464 H 42.0477 -1.567 0.25113 0
M  V30 465 H 42.0687 -3.34992 -1.80445 0
M  V30 466 H 41.5807 -3.88056 -0.0585628 0
M  V30 467 H 39.6817 -2.91103 -2.32572 0
M  V30 468 H 39.7947 -4.57119 -1.43455 0
M  V30 469 H 38.1587 -2.39942 -0.854409 0
M  V30 470 H 38.9417 -3.39849 0.485543 0
M  V30 471 N 41.3868 0.248026 -1.55636 0
M  V30 472 C 42.3498 1.29044 -1.89421 0
M  V30 473 C 43.3498 1.41134 -0.770581 0
M  V30 474 O 44.5398 1.39854 -1.03858 0
M  V30 475 C 41.6718 2.66831 -2.12165 0
M  V30 476 H 42.8648 1.00305 -2.82629 0
M  V30 477 H 40.4178 0.487265 -1.48511 0
M  V30 478 H 41.1528 3.00711 -1.21422 0
M  V30 479 H 40.9378 2.59438 -2.93997 0
M  V30 480 H 42.4278 3.42103 -2.3949 0
M  V30 481 N 42.8649 1.48995 0.513639 0
M  V30 482 C 44.1419 1.48338 1.27495 0
M  V30 483 C 44.5219 0.204065 2.10111 0
M  V30 484 O 43.8699 -0.813881 2.13514 0
M  V30 485 C 44.0799 2.75498 2.14247 0
M  V30 486 C 45.4279 3.24484 2.73852 0
M  V30 487 O 46.4519 2.76528 2.24523 0
M  V30 488 O 45.3109 4.07974 3.6362 0
M  V30 489 H 42.4049 0.593149 0.576284 0
M  V30 490 H 44.9509 1.61246 0.528948 0
M  V30 491 H 43.7229 3.60109 1.53092 0
M  V30 492 H 43.3459 2.6539 2.96064 0
M  V30 493 N 44.343 -0.763751 1.37857 0
M  V30 494 C 45.754 -1.3405 1.29952 0
M  V30 495 C 46.105 -1.96138 -0.0492898 0
M  V30 496 O 45.23 -1.94372 -0.951239 0
M  V30 497 C 45.825 -2.43729 2.35333 0
M  V30 498 C 44.384 -2.97151 2.31037 0
M  V30 499 C 43.531 -1.70438 2.18738 0
M  V30 500 H 46.482 -0.563396 1.48363 0
M  V30 501 H 46.503 -3.23412 2.00462 0
M  V30 502 H 46.015 -1.9851 3.33489 0
M  V30 503 H 44.116 -3.46724 1.3643 0
M  V30 504 H 44.229 -3.52221 3.24772 0
M  V30 505 H 42.593 -1.93673 1.65418 0
M  V30 506 H 43.376 -1.27312 3.18821 0
M  V30 507 N 45.8211 -1.22559 -0.990812 0
M  V30 508 C 46.7511 -1.0218 -2.09956 0
M  V30 509 C 47.7321 0.0579394 -1.70001 0
M  V30 510 O 48.9171 -0.104684 -1.93918 0
M  V30 511 C 46.0471 -0.601023 -3.4206 0
M  V30 512 C 45.0011 -1.62694 -3.95872 0
M  V30 513 C 44.3271 -1.06193 -5.24049 0
M  V30 514 C 45.6271 -3.01743 -4.2632 0
M  V30 515 H 47.3211 -1.94916 -2.27262 0
M  V30 516 H 44.8671 -0.938566 -1.09211 0
M  V30 517 H 46.8201 -0.445561 -4.19038 0
M  V30 518 H 45.5441 0.362005 -3.24588 0
M  V30 519 H 44.2031 -1.77021 -3.21028 0
M  V30 520 H 43.8511 -0.0901903 -5.02919 0
M  V30 521 H 43.5511 -1.74732 -5.61019 0
M  V30 522 H 45.0751 -0.918092 -6.03658 0
M  V30 523 H 46.4891 -2.90777 -4.94087 0
M  V30 524 H 44.8861 -3.67425 -4.74467 0
M  V30 525 H 45.9561 -3.51518 -3.34011 0
M  V30 526 N 47.2992 1.18797 -1.03562 0
M  V30 527 C 48.5272 1.92599 -0.755869 0
M  V30 528 C 48.9422 1.75886 0.686271 0
M  V30 529 O 48.2992 1.08517 1.46732 0
M  V30 530 C 48.3502 3.44159 -1.10619 0
M  V30 531 O 48.0712 3.60341 -2.4917 0
M  V30 532 C 49.5722 4.3507 -0.850214 0
M  V30 533 H 46.7922 0.611587 -0.276048 0
M  V30 534 H 49.3362 1.50742 -1.38192 0
M  V30 535 H 47.4912 3.83823 -0.525194 0
M  V30 536 H 47.9052 4.54128 -2.62427 0
M  V30 537 H 49.3792 5.39989 -1.14523 0
M  V30 538 H 49.8562 4.38673 0.215176 0
M  V30 539 H 50.4622 4.01097 -1.41426 0
M  V30 540 N 48.7773 0.814389 1.34928 0
M  V30 541 C 49.7073 0.244827 2.32213 0
M  V30 542 C 50.6883 -0.634024 1.57842 0
M  V30 543 O 51.8733 -0.562676 1.8587 0
M  V30 544 C 49.0033 -0.601106 3.42058 0
M  V30 545 C 47.9573 0.179896 4.27622 0
M  V30 546 C 47.2833 -0.788237 5.28858 0
M  V30 547 C 48.5833 1.38329 5.03649 0
M  V30 548 H 50.2773 1.05763 2.80097 0
M  V30 549 H 47.8233 0.510029 1.34665 0
M  V30 550 H 49.7763 -1.00968 4.09125 0
M  V30 551 H 48.5003 -1.44688 2.92802 0
M  V30 552 H 47.1593 0.569739 3.62146 0
M  V30 553 H 46.8073 -1.62973 4.75866 0
M  V30 554 H 46.5073 -0.269942 5.8698 0
M  V30 555 H 48.0313 -1.19485 5.98795 0
M  V30 556 H 49.4453 1.04918 5.63618 0
M  V30 557 H 47.8423 1.83662 5.71304 0
M  V30 558 H 48.9123 2.16592 4.33839 0
M  V30 559 N 50.2554 -1.46986 0.568584 0
M  V30 560 C 51.5024 -2.02441 0.0487986 0
M  V30 561 C 51.8304 -1.44169 -1.30559 0
M  V30 562 O 51.0854 -0.591213 -1.86556 0
M  V30 563 C 51.3844 -3.57306 -0.081836 0
M  V30 564 C 51.0504 -4.34552 1.20313 0
M  V30 565 C 49.7124 -4.55376 1.5552 0
M  V30 566 C 52.0644 -4.79016 2.05411 0
M  V30 567 C 49.3924 -5.17913 2.7565 0
M  V30 568 C 51.7444 -5.42879 3.24754 0
M  V30 569 C 50.4084 -5.61933 3.60261 0
M  V30 570 H 49.6784 -0.740785 0.0178567 0
M  V30 571 H 52.3254 -1.76525 0.742384 0
M  V30 572 H 50.6304 -3.8228 -0.858463 0
M  V30 573 H 52.3274 -3.97876 -0.499546 0
M  V30 574 H 48.9174 -4.18631 0.919014 0
M  V30 575 H 53.1014 -4.62696 1.79516 0
M  V30 576 H 48.3574 -5.30858 3.03315 0
M  V30 577 H 52.5314 -5.76293 3.90973 0
M  V30 578 H 50.1584 -6.10161 4.53439 0
M  V30 579 N 51.7335 -0.305618 -1.54608 0
M  V30 580 C 52.6435 0.57778 -2.27374 0
M  V30 581 C 53.6595 1.14451 -1.31061 0
M  V30 582 O 54.8355 1.16831 -1.6405 0
M  V30 583 C 51.9005 1.73123 -3.00382 0
M  V30 584 C 50.9615 1.19812 -4.12242 0
M  V30 585 C 50.1945 2.2966 -4.81759 0
M  V30 586 O 50.4175 3.49651 -4.50666 0
M  V30 587 O 49.3515 1.96091 -5.69062 0
M  V30 588 H 53.1775 -0.012624 -3.03697 0
M  V30 589 H 50.7625 -0.0719184 -1.49227 0
M  V30 590 H 52.6445 2.40315 -3.4616 0
M  V30 591 H 51.3195 2.30815 -2.26949 0
M  V30 592 H 50.2265 0.491798 -3.70853 0
M  V30 593 H 51.5595 0.666566 -4.87666 0
M  V30 594 N 53.2116 1.57565 -0.0334293 0
M  V30 595 C 54.6276 1.56297 0.322997 0
M  V30 596 C 54.8276 1.03945 1.7262 0
M  V30 597 O 53.8836 0.688109 2.42943 0
M  V30 598 C 55.1966 3.00232 0.167664 0
M  V30 599 C 56.7446 3.12078 0.240107 0
M  V30 600 C 57.2196 4.57859 0.113513 0
M  V30 601 N 58.7106 4.62887 0.170359 0
M  V30 602 C 59.4456 5.73319 0.0962517 0
M  V30 603 N 58.9416 6.92794 -0.0291881 0
M  V30 604 N 60.7346 5.61898 0.150551 0
M  V30 605 H 52.8856 1.89923 -0.950956 0
M  V30 606 H 55.1486 0.873824 -0.367608 0
M  V30 607 H 54.8546 3.42501 -0.799102 0
M  V30 608 H 54.7286 3.654 0.936083 0
M  V30 609 H 57.1156 2.69718 1.19733 0
M  V30 610 H 57.1966 2.49623 -0.558763 0
M  V30 611 H 56.8406 5.009 -0.840314 0
M  V30 612 H 56.7706 5.18299 0.931302 0
M  V30 613 H 59.2616 3.76954 0.26728 0
M  V30 614 H 59.5746 7.7276 -0.0789252 0
M  V30 615 H 57.9196 6.94971 -0.0640299 0
M  V30 616 H 61.1106 4.67448 0.246981 0
M  V30 617 H 61.2836 6.47938 0.0893365 0
M  V30 618 N 54.6897 -0.239769 1.55765 0
M  V30 619 C 55.9357 -0.963942 1.79108 0
M  V30 620 C 56.2907 -1.82689 0.60352 0
M  V30 621 O 55.5837 -1.87313 -0.403033 0
M  V30 622 C 55.7777 -1.852 3.05672 0
M  V30 623 C 55.6067 -1.07651 4.36625 0
M  V30 624 C 54.3767 -0.778738 4.99263 0
M  V30 625 C 56.5747 -0.45062 5.12322 0
M  V30 626 N 54.5567 0.0200708 6.13897 0
M  V30 627 C 55.9277 0.212429 6.19636 0
M  V30 628 C 57.9827 -0.361806 4.96584 0
M  V30 629 C 56.6857 0.955772 7.12922 0
M  V30 630 C 58.7117 0.368023 5.90254 0
M  V30 631 C 58.0737 1.01968 6.96981 0
M  V30 632 H 54.1727 -0.333601 0.707272 0
M  V30 633 H 56.7567 -0.236425 1.93259 0
M  V30 634 H 54.9277 -2.55149 2.92837 0
M  V30 635 H 56.6597 -2.51228 3.1728 0
M  V30 636 H 53.4147 -1.09229 4.60832 0
M  V30 637 H 53.8387 0.407777 6.75771 0
M  V30 638 H 58.4807 -0.851286 4.14141 0
M  V30 639 H 56.1987 1.45683 7.9486 0
M  V30 640 H 59.7847 0.437504 5.80153 0
M  V30 641 H 58.6647 1.5754 7.68213 0
M  V30 642 N 56.1678 -1.49265 -0.50573 0
M  V30 643 C 57.0978 -1.68495 -1.61653 0
M  V30 644 C 58.0788 -0.53366 -1.61512 0
M  V30 645 O 59.2638 -0.76897 -1.78327 0
M  V30 646 C 56.3938 -1.74709 -3.00157 0
M  V30 647 C 55.3478 -2.89581 -3.15162 0
M  V30 648 C 54.6738 -2.80903 -4.5497 0
M  V30 649 C 55.9738 -4.30578 -2.95634 0
M  V30 650 H 57.6678 -2.61493 -1.45814 0
M  V30 651 H 55.2138 -1.25838 -0.70005 0
M  V30 652 H 57.1668 -1.86748 -3.77761 0
M  V30 653 H 55.8908 -0.783067 -3.17074 0
M  V30 654 H 54.5498 -2.77136 -2.39982 0
M  V30 655 H 54.1978 -1.82419 -4.68756 0
M  V30 656 H 53.8978 -3.57999 -4.65951 0
M  V30 657 H 55.4218 -2.94944 -5.34641 0
M  V30 658 H 56.8358 -4.4373 -3.63011 0
M  V30 659 H 55.2328 -5.0886 -3.18091 0
M  V30 660 H 56.3028 -4.45352 -1.91806 0
M  V30 661 N 57.6459 0.756429 -1.3826 0
M  V30 662 C 58.8709 1.55077 -1.37717 0
M  V30 663 C 59.2959 1.88073 0.03164 0
M  V30 664 O 58.6539 1.50364 1.01293 0
M  V30 665 C 58.7019 2.8283 -2.23695 0
M  V30 666 O 57.8059 3.77862 -1.6521 0
M  V30 667 H 57.1469 0.469152 -0.469885 0
M  V30 668 H 59.6769 0.935019 -1.81985 0
M  V30 669 H 59.6869 3.31783 -2.37453 0
M  V30 670 H 58.3619 2.58144 -3.2609 0
M  V30 671 H 56.9389 3.36555 -1.60578 0
M  V30 672 N 59.124 1.23083 0.984299 0
M  V30 673 C 60.056 0.96636 2.07832 0
M  V30 674 C 61.069 -0.0582135 1.62696 0
M  V30 675 O 62.258 0.176843 1.77622 0
M  V30 676 C 59.358 0.433397 3.36117 0
M  V30 677 C 58.531 1.51722 4.10243 0
M  V30 678 C 57.59 0.989821 5.16807 0
M  V30 679 O 56.616 1.67794 5.43906 0
M  V30 680 N 57.818 -0.184367 5.80207 0
M  V30 681 H 60.583 1.90824 2.31098 0
M  V30 682 H 58.144 1.13888 1.1507 0
M  V30 683 H 60.136 0.065699 4.04647 0
M  V30 684 H 58.706 -0.413806 3.09849 0
M  V30 685 H 57.926 2.05786 3.36223 0
M  V30 686 H 59.214 2.24619 4.56534 0
M  V30 687 H 58.612 -0.760062 5.60571 0
M  V30 688 H 57.169 -0.493366 6.4993 0
M  V30 689 N 60.6021 -1.18246 1.0419 0
M  V30 690 C 61.5651 -2.20128 0.638452 0
M  V30 691 C 62.5651 -1.57885 -0.304805 0
M  V30 692 O 63.7551 -1.73967 -0.0900369 0
M  V30 693 C 60.8871 -3.4084 -0.0637751 0
M  V30 694 H 62.0801 -2.57336 1.54007 0
M  V30 695 H 59.6331 -1.32152 0.834598 0
M  V30 696 H 60.3681 -3.09166 -0.979136 0
M  V30 697 H 60.1531 -3.8726 0.614198 0
M  V30 698 H 61.6431 -4.16274 -0.332512 0
M  V30 699 N 62.0802 -0.821533 -1.34494 0
M  V30 700 C 63.3202 -0.414785 -2.00147 0
M  V30 701 C 63.6842 1.00299 -1.6372 0
M  V30 702 O 64.8852 1.51255 -2.22206 0
M  V30 703 C 63.1562 -0.609403 -3.52166 0
M  V30 704 S 64.7152 -0.295297 -4.37805 0
M  V30 705 H 61.5332 -0.15679 -0.693497 0
M  V30 706 H 64.1352 -1.06705 -1.63812 0
M  V30 707 H 62.8392 -1.64096 -3.76166 0
M  V30 708 H 62.3702 0.0576414 -3.93358 0
M  V30 709 H 64.3852 0.891531 -4.88125 0
M  V30 710 N 63.5583 1.46682 -0.576371 0
M  V30 711 C 64.4683 2.34032 0.163141 0
M  V30 712 C 65.4843 1.49367 0.892501 0
M  V30 713 O 66.6603 1.82252 0.857106 0
M  V30 714 C 63.7253 3.26435 1.16795 0
M  V30 715 C 62.7863 4.26998 0.443944 0
M  V30 716 C 62.0193 5.14986 1.40088 0
M  V30 717 O 62.2423 5.05785 2.637 0
M  V30 718 O 61.1763 5.94906 0.914917 0
M  V30 719 H 65.0023 2.98607 -0.55388 0
M  V30 720 H 62.5873 1.45554 -0.336821 0
M  V30 721 H 64.4693 3.83459 1.74748 0
M  V30 722 H 63.1443 2.64465 1.86655 0
M  V30 723 H 62.0513 3.7368 -0.177271 0
M  V30 724 H 63.3843 4.91736 -0.213566 0
M  V30 725 N 65.0364 0.313813 1.54444 0
M  V30 726 C 65.9994 -0.54379 2.22656 0
M  V30 727 C 66.9994 -1.05124 1.21678 0
M  V30 728 O 68.1894 -0.945225 1.46325 0
M  V30 729 C 65.3214 -1.75427 2.92298 0
M  V30 730 H 66.5144 0.0523599 2.99854 0
M  V30 731 H 64.0674 0.0647834 1.56166 0
M  V30 732 H 64.8024 -2.38991 2.19211 0
M  V30 733 H 64.5874 -1.39791 3.66334 0
M  V30 734 H 66.0774 -2.36325 3.44297 0
M  V30 735 N 66.5145 -1.57545 0.0417849 0
M  V30 736 C 67.4615 -2.10977 -0.935805 0
M  V30 737 C 68.4315 -1.01486 -1.31491 0
M  V30 738 O 69.6165 -1.2898 -1.40602 0
M  V30 739 C 66.7565 -2.65169 -2.2086 0
M  V30 740 C 65.8695 -3.88714 -1.88482 0
M  V30 741 C 65.0045 -4.31254 -3.1015 0
M  V30 742 C 64.0435 -5.47524 -2.7365 0
M  V30 743 N 63.1805 -5.85162 -3.87982 0
M  V30 744 H 68.0205 -2.94218 -0.473249 0
M  V30 745 H 65.5575 -1.45415 -0.221981 0
M  V30 746 H 67.5155 -2.94685 -2.95325 0
M  V30 747 H 66.1455 -1.8474 -2.64709 0
M  V30 748 H 65.1975 -3.65849 -1.04205 0
M  V30 749 H 66.5095 -4.73245 -1.57608 0
M  V30 750 H 65.6635 -4.62273 -3.92923 0
M  V30 751 H 64.4025 -3.45516 -3.44195 0
M  V30 752 H 63.4075 -5.16187 -1.89291 0
M  V30 753 H 64.6325 -6.34971 -2.40807 0
M  V30 754 H 62.5785 -5.02377 -4.21846 0
M  V30 755 H 62.4955 -6.64362 -3.60775 0
M  V30 756 H 63.7635 -6.20791 -4.71422 0
M  V30 757 N 67.9926 0.231505 -1.5589 0
M  V30 758 C 68.9226 1.29022 -1.94617 0
M  V30 759 C 69.9036 1.4941 -0.813067 0
M  V30 760 O 71.0886 1.6176 -1.07459 0
M  V30 761 C 68.2186 2.64199 -2.25424 0
M  V30 762 C 67.1726 2.58484 -3.41131 0
M  V30 763 C 66.4986 3.97599 -3.57518 0
M  V30 764 C 67.7986 2.1413 -4.76388 0
M  V30 765 H 69.4926 0.968563 -2.83301 0
M  V30 766 H 67.0386 0.464479 -1.36303 0
M  V30 767 H 68.9916 3.38413 -2.51107 0
M  V30 768 H 67.7156 2.98032 -1.33583 0
M  V30 769 H 66.3746 1.86727 -3.15481 0
M  V30 770 H 66.0226 4.28723 -2.6307 0
M  V30 771 H 65.7226 3.94659 -4.35337 0
M  V30 772 H 67.2466 4.7349 -3.85538 0
M  V30 773 H 68.6606 2.78083 -5.01341 0
M  V30 774 H 67.0576 2.2227 -5.57419 0
M  V30 775 H 68.1276 1.09331 -4.72414 0
M  V30 776 N 69.4707 1.49531 0.497807 0
M  V30 777 C 70.4337 1.65916 1.58128 0
M  V30 778 C 71.4337 0.530825 1.51786 0
M  V30 779 O 72.6237 0.797342 1.54881 0
M  V30 780 C 69.7557 1.65951 2.9778 0
M  V30 781 H 70.9487 2.62556 1.44929 0
M  V30 782 H 68.5017 1.38611 0.722275 0
M  V30 783 H 69.2367 0.709065 3.16453 0
M  V30 784 H 69.0217 2.47897 3.03792 0
M  V30 785 H 70.5117 1.80673 3.76493 0
M  V30 786 N 70.9488 -0.749086 1.3866 0
M  V30 787 C 72.2258 -1.4992 1.25632 0
M  V30 788 C 72.6058 -2.10633 -0.140317 0
M  V30 789 O 71.9538 -1.97437 -1.15025 0
M  V30 790 C 72.1638 -2.56195 2.36992 0
M  V30 791 C 73.5118 -3.22972 2.75634 0
M  V30 792 O 74.5358 -2.66502 2.36337 0
M  V30 793 O 73.3948 -4.25122 3.43415 0
M  V30 794 H 70.4888 -0.665067 0.491544 0
M  V30 795 H 73.0348 -0.784113 1.50498 0
M  V30 796 H 71.8068 -2.09612 3.30422 0
M  V30 797 H 71.4298 -3.35279 2.13714 0
M  V30 798 N 72.4269 -1.23603 -0.977757 0
M  V30 799 C 73.8379 -1.06424 -1.53398 0
M  V30 800 C 74.1889 0.367578 -1.92726 0
M  V30 801 O 73.3139 1.25465 -1.76316 0
M  V30 802 C 73.9089 -1.92568 -2.78753 0
M  V30 803 C 72.4679 -1.79642 -3.30765 0
M  V30 804 C 71.6149 -1.88111 -2.03739 0
M  V30 805 H 74.5659 -1.37227 -0.797152 0
M  V30 806 H 74.5869 -1.45203 -3.51705 0
M  V30 807 H 74.0989 -2.96771 -2.50098 0
M  V30 808 H 72.1999 -0.782325 -3.64294 0
M  V30 809 H 72.3129 -2.63174 -4.00345 0
M  V30 810 H 70.6769 -1.31723 -2.17994 0
M  V30 811 H 71.4599 -2.93875 -1.77461 0
M  V30 812 N 73.905 1.17692 -1.04816 0
M  V30 813 C 75.133 1.91786 -0.776254 0
M  V30 814 C 75.548 1.76604 0.667577 0
M  V30 815 O 74.905 1.10067 1.45573 0
M  V30 816 C 74.956 3.42967 -1.14263 0
M  V30 817 O 74.677 3.57678 -2.52978 0
M  V30 818 C 76.178 4.34144 -0.896311 0
M  V30 819 H 73.398 0.608624 -0.282519 0
M  V30 820 H 75.942 1.49268 -1.39783 0
M  V30 821 H 74.097 3.83245 -0.565874 0
M  V30 822 H 74.511 4.51319 -2.67229 0
M  V30 823 H 75.985 5.38744 -1.20244 0
M  V30 824 H 76.462 4.38876 0.168636 0
M  V30 825 H 77.068 3.99574 -1.45672 0
M  V30 826 N 75.3831 0.828654 1.34056 0
M  V30 827 C 76.3461 0.259927 2.27721 0
M  V30 828 C 77.3461 -0.565478 1.50529 0
M  V30 829 O 78.5361 -0.38075 1.69988 0
M  V30 830 C 75.6681 -0.634944 3.34935 0
M  V30 831 H 76.8611 1.0863 2.79534 0
M  V30 832 H 74.4141 0.600951 1.44285 0
M  V30 833 H 75.1491 -1.48416 2.88346 0
M  V30 834 H 74.9341 -0.0444999 3.92075 0
M  V30 835 H 76.4241 -1.02648 4.04788 0
M  V30 836 N 76.8612 -1.46375 0.584142 0
M  V30 837 C 77.7942 -2.27351 -0.196676 0
M  V30 838 C 78.7722 -1.35715 -0.895561 0
M  V30 839 O 79.9562 -1.65126 -0.90916 0
M  V30 840 C 77.0832 -3.13486 -1.28235 0
M  V30 841 C 76.1292 -4.20896 -0.689145 0
M  V30 842 S 76.9622 -5.33299 0.48507 0
M  V30 843 C 78.1182 -6.23 -0.601767 0
M  V30 844 H 78.3512 -2.93228 0.490395 0
M  V30 845 H 75.8842 -1.49875 0.371071 0
M  V30 846 H 77.8422 -3.63676 -1.90395 0
M  V30 847 H 76.5032 -2.4692 -1.94138 0
M  V30 848 H 75.6962 -4.80997 -1.50527 0
M  V30 849 H 75.2982 -3.73726 -0.143181 0
M  V30 850 H 77.5902 -6.60979 -1.48705 0
M  V30 851 H 78.5332 -7.0809 -0.0374799 0
M  V30 852 H 78.9412 -5.57173 -0.906557 0
M  V30 853 N 78.3393 -0.321999 -1.54275 0
M  V30 854 C 79.5853 0.281461 -2.00837 0
M  V30 855 C 79.9183 1.51909 -1.20985 0
M  V30 856 O 79.1933 1.923 -0.291733 0
M  V30 857 C 79.4763 0.617162 -3.54772 0
M  V30 858 C 79.3293 -0.631064 -4.45351 0
M  V30 859 C 80.6483 1.43542 -4.16033 0
M  V30 860 H 77.7673 0.100826 -0.730071 0
M  V30 861 H 80.4093 -0.438268 -1.84876 0
M  V30 862 H 78.5593 1.23034 -3.68504 0
M  V30 863 H 80.2313 -1.26934 -4.43492 0
M  V30 864 H 78.4743 -1.26025 -4.15091 0
M  V30 865 H 79.1453 -0.351735 -5.50878 0
M  V30 866 H 81.6213 0.917134 -4.05867 0
M  V30 867 H 80.4973 1.63907 -5.23856 0
M  V30 868 H 80.7583 2.43108 -3.69257 0
M  V30 869 N 79.8174 1.5752 -0.0501392 0
M  V30 870 C 81.0634 1.92936 0.624798 0
M  V30 871 C 81.3964 0.928685 1.70555 0
M  V30 872 O 80.6714 -0.0454779 1.94447 0
M  V30 873 C 80.9544 3.38737 1.22185 0
M  V30 874 C 80.8074 4.49552 0.149218 0
M  V30 875 C 82.1264 3.84913 2.13378 0
M  V30 876 H 79.2454 0.701604 0.225657 0
M  V30 877 H 81.8874 1.89671 -0.111693 0
M  V30 878 H 80.0374 3.4165 1.84953 0
M  V30 879 H 81.7094 4.58768 -0.482648 0
M  V30 880 H 79.9524 4.30638 -0.522841 0
M  V30 881 H 80.6234 5.48653 0.606966 0
M  V30 882 H 83.0994 3.8387 1.60572 0
M  V30 883 H 81.9754 4.87584 2.52097 0
M  V30 884 H 82.2364 3.21611 3.03346 0
M  V30 885 N 81.2955 -0.223234 1.56011 0
M  V30 886 C 82.2585 -1.26014 1.9145 0
M  V30 887 C 83.2585 -1.3989 0.792937 0
M  V30 888 O 84.4485 -1.38184 1.0607 0
M  V30 889 C 81.5805 -2.63422 2.16383 0
M  V30 890 H 82.7735 -0.95796 2.84189 0
M  V30 891 H 80.3265 -0.463576 1.49267 0
M  V30 892 H 81.0615 -2.98741 1.2619 0
M  V30 893 H 80.8465 -2.54728 2.98088 0
M  V30 894 H 82.3365 -3.38249 2.44903 0
M  V30 895 N 82.7736 -1.49793 -0.48987 0
M  V30 896 C 84.0016 -1.63568 -1.26701 0
M  V30 897 C 84.4166 -0.311465 -1.86213 0
M  V30 898 O 83.7736 0.704416 -1.68357 0
M  V30 899 C 83.8246 -2.71284 -2.38929 0
M  V30 900 O 83.5456 -3.9857 -1.81861 0
M  V30 901 C 85.0466 -2.95864 -3.3012 0
M  V30 902 H 82.2666 -0.550342 -0.383881 0
M  V30 903 H 84.8106 -1.95898 -0.586864 0
M  V30 904 H 82.9656 -2.417 -3.02753 0
M  V30 905 H 83.3796 -4.57993 -2.55622 0
M  V30 906 H 84.8536 -3.74941 -4.05121 0
M  V30 907 H 85.3306 -2.06206 -3.87783 0
M  V30 908 H 85.9366 -3.26907 -2.72051 0
M  V30 909 N 84.2517 0.741722 -1.39055 0
M  V30 910 C 85.4977 1.50336 -1.36113 0
M  V30 911 C 85.8307 1.94148 0.0450796 0
M  V30 912 O 85.1057 1.66301 1.00868 0
M  V30 913 C 85.3887 2.74773 -2.32749 0
M  V30 914 C 85.2417 2.37023 -3.82283 0
M  V30 915 C 86.5607 3.76846 -2.27322 0
M  V30 916 H 83.6797 0.545351 -0.495743 0
M  V30 917 H 86.3217 0.848624 -1.69995 0
M  V30 918 H 84.4717 3.30639 -2.03986 0
M  V30 919 H 86.1437 1.8684 -4.21768 0
M  V30 920 H 84.3867 1.69334 -3.99385 0
M  V30 921 H 85.0577 3.26104 -4.45376 0
M  V30 922 H 87.5337 3.30548 -2.5274 0
M  V30 923 H 86.4097 4.6159 -2.97028 0
M  V30 924 H 86.6707 4.23286 -1.27599 0
M  V30 925 N 85.7298 1.2412 0.971189 0
M  V30 926 C 87.0068 0.986867 1.6888 0
M  V30 927 C 87.3868 -0.491857 2.0529 0
M  V30 928 O 86.7348 -1.46531 1.75331 0
M  V30 929 C 86.9448 1.9063 2.92338 0
M  V30 930 C 88.2928 2.17515 3.64654 0
M  V30 931 O 89.3168 1.88254 3.02388 0
M  V30 932 O 88.1758 2.6719 4.7673 0
M  V30 933 H 85.2698 0.372944 0.738134 0
M  V30 934 H 87.8158 1.35203 1.02559 0
M  V30 935 H 86.5878 2.90552 2.62097 0
M  V30 936 H 86.2108 1.54408 3.66393 0
M  V30 937 N 87.2079 -1.17134 1.05439 0
M  V30 938 C 88.1179 -2.24878 0.668365 0
M  V30 939 C 89.1339 -1.71186 -0.311687 0
M  V30 940 O 90.3099 -2.00738 -0.163161 0
M  V30 941 C 87.3749 -3.46662 0.051648 0
M  V30 942 C 86.4359 -4.15429 1.08246 0
M  V30 943 C 85.6689 -5.31399 0.495082 0
M  V30 944 O 85.8919 -5.66153 -0.694743 0
M  V30 945 O 84.8259 -5.89187 1.23056 0
M  V30 946 H 88.6519 -2.60189 1.56637 0
M  V30 947 H 86.2369 -1.24482 0.826104 0
M  V30 948 H 88.1189 -4.20394 -0.290966 0
M  V30 949 H 86.7939 -3.13142 -0.819971 0
M  V30 950 H 85.7009 -3.43704 1.47711 0
M  V30 951 H 87.0339 -4.52982 1.92532 0
M  V30 952 N 88.686 -0.835752 -1.33615 0
M  V30 953 C 89.636 -0.238856 -2.26745 0
M  V30 954 C 90.62 0.604343 -1.49119 0
M  V30 955 O 91.812 0.456822 -1.71003 0
M  V30 956 C 88.941 0.587725 -3.38232 0
M  V30 957 C 88.027 -0.266811 -4.2326 0
M  V30 958 N 88.418 -1.34403 -4.87616 0
M  V30 959 C 86.716 -0.0533131 -4.45968 0
M  V30 960 C 87.417 -1.86819 -5.50884 0
M  V30 961 N 86.393 -1.17013 -5.30857 0
M  V30 962 H 90.195 -1.06266 -2.74016 0
M  V30 963 H 87.709 -0.679881 -1.47483 0
M  V30 964 H 89.706 1.03161 -4.03935 0
M  V30 965 H 88.366 1.40954 -2.9251 0
M  V30 966 H 89.377 -1.7269 -4.88261 0
M  V30 967 H 86.054 0.735312 -4.10974 0
M  V30 968 H 87.444 -2.7701 -6.1214 0
M  V30 969 N 90.1641 1.46063 -0.591896 0
M  V30 970 C 91.4121 2.01938 -0.0808391 0
M  V30 971 C 91.7331 1.46475 1.28725 0
M  V30 972 O 91.0031 0.652944 1.84698 0
M  V30 973 H 89.5831 0.746516 -0.0268938 0
M  V30 974 H 92.2451 1.79055 -0.769752 0
M  V30 975 H 91.3411 3.12094 -0.0187578 0
M  V30 976 N 91.6422 0.330177 1.54103 0
M  V30 977 C 92.5742 -0.566902 2.22079 0
M  V30 978 C 93.5872 -1.07462 1.22294 0
M  V30 979 O 94.7762 -0.987065 1.48726 0
M  V30 980 C 91.8762 -1.79138 2.87685 0
M  V30 981 C 91.0492 -1.42123 4.13666 0
M  V30 982 C 90.1082 -2.50394 4.62806 0
M  V30 983 O 89.1342 -2.14261 5.27334 0
M  V30 984 N 90.3362 -3.81433 4.37595 0
M  V30 985 H 93.1012 0.0151844 2.99696 0
M  V30 986 H 90.6622 0.153681 1.61169 0
M  V30 987 H 92.6542 -2.50975 3.1748 0
M  V30 988 H 91.2242 -2.28115 2.13734 0
M  V30 989 H 90.4442 -0.534201 3.90564 0
M  V30 990 H 91.7322 -1.14971 4.9564 0
M  V30 991 H 91.1302 -4.13584 3.8596 0
M  V30 992 H 89.6872 -4.4948 4.72029 0
M  V30 993 N 93.1203 -1.57491 0.0584922 0
M  V30 994 C 94.5313 -1.80526 -0.476138 0
M  V30 995 C 94.8823 -0.971334 -1.70469 0
M  V30 996 O 94.0073 -0.190012 -2.15564 0
M  V30 997 C 94.6023 -3.27424 -0.870587 0
M  V30 998 C 93.1613 -3.51351 -1.35015 0
M  V30 999 C 92.3083 -2.75343 -0.32887 0
M  V30 1000 H 95.2593 -1.56133 0.284312 0
M  V30 1001 H 95.2803 -3.38745 -1.73299 0
M  V30 1002 H 94.7923 -3.88093 0.0237627 0
M  V30 1003 H 92.8933 -2.95971 -2.26345 0
M  V30 1004 H 93.0063 -4.60059 -1.33726 0
M  V30 1005 H 91.3703 -2.417 -0.803321 0
M  V30 1006 H 92.1533 -3.38743 0.557521 0
M  V30 1007 N 94.5984 0.214957 -1.56127 0
M  V30 1008 C 95.8284 0.953707 -1.8327 0
M  V30 1009 C 96.2364 1.78181 -0.636262 0
M  V30 1010 O 95.5794 1.79191 0.404516 0
M  V30 1011 C 95.6414 1.91516 -3.0424 0
M  V30 1012 C 95.3054 1.27094 -4.38972 0
M  V30 1013 C 96.3024 0.657575 -5.15725 0
M  V30 1014 C 93.9874 1.28073 -4.85698 0
M  V30 1015 C 95.9814 0.0625968 -6.37369 0
M  V30 1016 C 93.6684 0.681914 -6.07283 0
M  V30 1017 C 94.6664 0.0739046 -6.8296 0
M  V30 1018 O 94.3544 -0.515582 -8.02245 0
M  V30 1019 H 94.0864 0.284764 -0.613095 0
M  V30 1020 H 96.6404 0.233283 -2.04071 0
M  V30 1021 H 94.8704 2.67475 -2.79274 0
M  V30 1022 H 96.5594 2.52001 -3.18198 0
M  V30 1023 H 97.3254 0.642288 -4.80728 0
M  V30 1024 H 93.2044 1.74337 -4.26764 0
M  V30 1025 H 96.7484 -0.412593 -6.96379 0
M  V30 1026 H 92.6454 0.694636 -6.41752 0
M  V30 1027 H 93.4134 -0.410544 -8.1747 0
M  V30 1028 N 96.0765 1.50051 0.48192 0
M  V30 1029 C 97.0085 1.64263 1.59844 0
M  V30 1030 C 98.0215 0.52451 1.54119 0
M  V30 1031 O 99.2105 0.797293 1.59704 0
M  V30 1032 C 96.3105 1.60102 2.98698 0
M  V30 1033 C 95.4835 2.87767 3.29407 0
M  V30 1034 C 94.5425 2.76397 4.47762 0
M  V30 1035 O 93.5685 3.50348 4.48603 0
M  V30 1036 N 94.7705 1.89222 5.48794 0
M  V30 1037 H 97.5355 2.60566 1.48073 0
M  V30 1038 H 95.0965 1.47379 0.670149 0
M  V30 1039 H 97.0885 1.50123 3.75826 0
M  V30 1040 H 95.6585 0.715798 3.04294 0
M  V30 1041 H 94.8785 3.11954 2.40994 0
M  V30 1042 H 96.1665 3.72365 3.4673 0
M  V30 1043 H 95.5645 1.28434 5.50928 0
M  V30 1044 H 94.1215 1.85154 6.24949 0
M  V30 1045 N 97.5546 -0.734337 1.39446 0
M  V30 1046 C 98.9706 -1.03997 1.21065 0
M  V30 1047 C 99.1706 -2.01369 0.0727019 0
M  V30 1048 O 98.2266 -2.45856 -0.575426 0
M  V30 1049 C 99.5396 -1.60163 2.54496 0
M  V30 1050 C 101.088 -1.7224 2.61347 0
M  V30 1051 C 101.563 -2.31814 3.95002 0
M  V30 1052 N 103.054 -2.39223 3.96644 0
M  V30 1053 C 103.789 -2.86258 4.96834 0
M  V30 1054 N 103.285 -3.33184 6.07421 0
M  V30 1055 N 105.078 -2.85473 4.84213 0
M  V30 1056 H 97.2286 -0.0885624 2.12215 0
M  V30 1057 H 99.4916 -0.10191 0.942506 0
M  V30 1058 H 99.1976 -0.960811 3.38321 0
M  V30 1059 H 99.0716 -2.5896 2.74262 0
M  V30 1060 H 101.459 -2.35443 1.77906 0
M  V30 1061 H 101.54 -0.720939 2.4543 0
M  V30 1062 H 101.184 -1.69238 4.78875 0
M  V30 1063 H 101.114 -3.32638 4.08239 0
M  V30 1064 H 103.605 -2.06057 3.16779 0
M  V30 1065 H 103.918 -3.67586 6.7978 0
M  V30 1066 H 102.263 -3.31191 6.11013 0
M  V30 1067 H 105.454 -2.48136 3.96921 0
M  V30 1068 H 105.627 -3.21814 5.62441 0
M  V30 1069 N 99.0327 -1.24633 -0.964593 0
M  V30 1070 C 100.282 -1.08188 -1.7023 0
M  V30 1071 C 100.595 0.37873 -1.91898 0
M  V30 1072 O 101.801 0.663427 -2.6327 0
M  V30 1073 C 100.257 -1.88773 -3.06419 0
M  V30 1074 C 99.8647 -3.39263 -2.92582 0
M  V30 1075 C 101.609 -1.80867 -3.84041 0
M  V30 1076 C 99.5157 -4.1218 -4.24101 0
M  V30 1077 H 98.4457 -0.401245 -0.638372 0
M  V30 1078 H 101.097 -1.48742 -1.07462 0
M  V30 1079 H 99.4787 -1.41035 -3.70034 0
M  V30 1080 H 100.653 -3.94603 -2.37961 0
M  V30 1081 H 98.9677 -3.48154 -2.28424 0
M  V30 1082 H 101.565 -2.32646 -4.81435 0
M  V30 1083 H 101.908 -0.774543 -4.09031 0
M  V30 1084 H 102.441 -2.26301 -3.27159 0
M  V30 1085 H 99.1797 -5.15965 -4.04303 0
M  V30 1086 H 98.6997 -3.61626 -4.78526 0
M  V30 1087 H 100.379 -4.19349 -4.92702 0
M  V30 1088 N 100.511 1.16574 -1.06058 0
M  V30 1089 C 101.757 1.87324 -0.777022 0
M  V30 1090 C 102.09 1.81351 0.694645 0
M  V30 1091 O 101.365 1.22753 1.50871 0
M  V30 1092 C 101.648 3.36991 -1.26922 0
M  V30 1093 C 101.501 3.51667 -2.80447 0
M  V30 1094 C 102.82 4.3131 -0.87521 0
M  V30 1095 H 99.9388 0.680191 -0.28374 0
M  V30 1096 H 102.581 1.37036 -1.3161 0
M  V30 1097 H 100.731 3.79949 -0.81063 0
M  V30 1098 H 102.403 3.17664 -3.34495 0
M  V30 1099 H 100.646 2.93656 -3.19294 0
M  V30 1100 H 101.317 4.56766 -3.0995 0
M  V30 1101 H 103.793 3.9624 -1.27014 0
M  V30 1102 H 102.669 5.34545 -1.2471 0
M  V30 1103 H 102.93 4.41552 0.220071 0
M  V30 1104 N 101.989 0.842826 1.3317 0
M  V30 1105 C 102.919 0.294028 2.31641 0
M  V30 1106 C 103.9 -0.600401 1.59151 0
M  V30 1107 O 105.085 -0.523124 1.87022 0
M  V30 1108 C 102.215 -0.528416 3.43257 0
M  V30 1109 C 101.169 0.27056 4.27144 0
M  V30 1110 C 100.495 -0.675881 5.30411 0
M  V30 1111 C 101.795 1.48981 5.00602 0
M  V30 1112 H 103.489 1.11681 2.77791 0
M  V30 1113 H 101.035 0.538478 1.33553 0
M  V30 1114 H 102.988 -0.922674 4.11175 0
M  V30 1115 H 101.712 -1.38445 2.95805 0
M  V30 1116 H 100.371 0.646427 3.60856 0
M  V30 1117 H 100.019 -1.52842 4.79216 0
M  V30 1118 H 99.7189 -0.145374 5.8742 0
M  V30 1119 H 101.243 -1.06757 6.01195 0
M  V30 1120 H 102.657 1.16849 5.61266 0
M  V30 1121 H 101.054 1.95739 5.6728 0
M  V30 1122 H 102.124 2.25746 4.29147 0
M  V30 1123 N 103.467 -1.45747 0.599634 0
M  V30 1124 C 104.397 -2.33235 -0.111306 0
M  V30 1125 C 105.378 -1.46359 -0.866781 0
M  V30 1126 O 106.563 -1.75146 -0.838904 0
M  V30 1127 C 103.693 -3.28932 -1.11451 0
M  V30 1128 C 102.647 -4.25381 -0.472772 0
M  V30 1129 C 101.973 -5.1071 -1.58365 0
M  V30 1130 C 103.273 -5.18831 0.600948 0
M  V30 1131 H 104.967 -2.92927 0.61919 0
M  V30 1132 H 102.513 -1.40857 0.299215 0
M  V30 1133 H 104.466 -3.89002 -1.62036 0
M  V30 1134 H 103.19 -2.67381 -1.8755 0
M  V30 1135 H 101.849 -3.66598 0.0121472 0
M  V30 1136 H 101.497 -4.45533 -2.33473 0
M  V30 1137 H 101.197 -5.7604 -1.15982 0
M  V30 1138 H 102.721 -5.73647 -2.09194 0
M  V30 1139 H 104.135 -5.73019 0.179491 0
M  V30 1140 H 102.532 -5.92595 0.946076 0
M  V30 1141 H 103.602 -4.6174 1.48068 0
M  V30 1142 N 104.945 -0.338344 -1.53925 0
M  V30 1143 C 105.892 0.520845 -2.24846 0
M  V30 1144 C 106.862 1.09976 -1.24477 0
M  V30 1145 O 108.047 1.13735 -1.53196 0
M  V30 1146 C 105.187 1.6685 -3.02084 0
M  V30 1147 C 104.3 1.11739 -4.17299 0
M  V30 1148 C 103.435 2.23193 -4.82036 0
M  V30 1149 C 102.474 1.65407 -5.89328 0
M  V30 1150 N 101.611 2.70582 -6.47866 0
M  V30 1151 H 106.451 -0.0904881 -2.97863 0
M  V30 1152 H 103.988 -0.0564282 -1.46992 0
M  V30 1153 H 105.946 2.34407 -3.45122 0
M  V30 1154 H 104.576 2.2509 -2.31375 0
M  V30 1155 H 103.628 0.332919 -3.7894 0
M  V30 1156 H 104.94 0.654677 -4.94485 0
M  V30 1157 H 104.094 2.98626 -5.28117 0
M  V30 1158 H 102.833 2.72807 -4.04262 0
M  V30 1159 H 101.838 0.884779 -5.42634 0
M  V30 1160 H 103.063 1.16652 -6.69006 0
M  V30 1161 H 101.009 3.1946 -5.72959 0
M  V30 1162 H 100.926 2.28917 -7.20509 0
M  V30 1163 H 102.194 3.45799 -6.98601 0
M  V30 1164 N 106.423 1.57458 -0.0668435 0
M  V30 1165 C 107.373 2.0896 0.912119 0
M  V30 1166 C 108.357 0.998186 1.26195 0
M  V30 1167 O 109.549 1.26133 1.24175 0
M  V30 1168 C 106.678 2.6508 2.18145 0
M  V30 1169 C 105.764 3.81218 1.85832 0
M  V30 1170 N 106.155 4.90378 1.23948 0
M  V30 1171 C 104.453 3.9042 2.15612 0
M  V30 1172 C 105.154 5.71279 1.09616 0
M  V30 1173 N 104.13 5.19389 1.60423 0
M  V30 1174 H 107.932 2.90749 0.42924 0
M  V30 1175 H 105.446 1.6182 0.137184 0
M  V30 1176 H 107.443 3.0029 2.89192 0
M  V30 1177 H 106.103 1.84736 2.67025 0
M  V30 1178 H 107.114 5.09847 0.909731 0
M  V30 1179 H 103.791 3.21043 2.66903 0
M  V30 1180 H 105.181 6.69085 0.614425 0
M  V30 1181 N 107.901 -0.206675 1.56239 0
M  V30 1182 C 109.131 -0.943975 1.83773 0
M  V30 1183 C 109.539 -1.77841 0.645703 0
M  V30 1184 O 108.882 -1.79403 -0.395008 0
M  V30 1185 C 108.944 -1.899 3.05251 0
M  V30 1186 C 108.608 -1.24764 4.39639 0
M  V30 1187 C 109.605 -0.630216 5.16066 0
M  V30 1188 C 107.29 -1.25496 4.8637 0
M  V30 1189 C 109.284 -0.0287946 6.37393 0
M  V30 1190 C 106.971 -0.649698 6.07637 0
M  V30 1191 C 107.969 -0.0376845 6.8299 0
M  V30 1192 O 107.657 0.55812 8.0196 0
M  V30 1193 H 107.389 -0.281508 0.614597 0
M  V30 1194 H 109.943 -0.222458 2.04192 0
M  V30 1195 H 108.173 -2.6599 2.80689 0
M  V30 1196 H 109.862 -2.5031 3.1953 0
M  V30 1197 H 110.628 -0.616785 4.81062 0
M  V30 1198 H 106.507 -1.72072 4.27683 0
M  V30 1199 H 110.051 0.449518 6.9615 0
M  V30 1200 H 105.948 -0.660592 6.42111 0
M  V30 1201 H 106.716 0.453891 8.17241 0
M  V30 1202 N 109.379 -1.50304 -0.473955 0
M  V30 1203 C 110.656 -1.51667 -1.23518 0
M  V30 1204 C 111.036 -0.259701 -2.09496 0
M  V30 1205 O 110.384 0.756986 -2.15597 0
M  V30 1206 C 110.594 -2.81082 -2.06868 0
M  V30 1207 C 111.942 -3.31631 -2.65153 0
M  V30 1208 O 112.966 -2.82384 -2.17113 0
M  V30 1209 O 111.825 -4.17471 -3.52675 0
M  V30 1210 H 108.919 -0.60822 -0.560355 0
M  V30 1211 H 111.465 -1.62592 -0.486011 0
M  V30 1212 H 110.237 -3.64041 -1.4349 0
M  V30 1213 H 109.86 -2.73146 -2.88924 0
M  V30 1214 N 110.857 0.726932 -1.39834 0
M  V30 1215 C 111.767 1.87131 -1.41489 0
M  V30 1216 C 112.783 1.71239 -0.308757 0
M  V30 1217 O 113.959 1.93701 -0.551529 0
M  V30 1218 C 111.024 3.22811 -1.26468 0
M  V30 1219 C 110.085 3.51039 -2.47124 0
M  V30 1220 C 109.318 4.80245 -2.3281 0
M  V30 1221 O 109.541 5.54537 -1.33585 0
M  V30 1222 O 108.475 5.08554 -3.21957 0
M  V30 1223 H 112.301 1.8869 -2.3797 0
M  V30 1224 H 109.886 0.875837 -1.21035 0
M  V30 1225 H 111.768 4.03877 -1.20255 0
M  V30 1226 H 110.443 3.22005 -0.330862 0
M  V30 1227 H 109.35 2.70027 -2.58914 0
M  V30 1228 H 110.683 3.56632 -3.39227 0
M  V30 1229 N 112.336 1.25143 0.95797 0
M  V30 1230 C 113.283 1.05235 2.05412 0
M  V30 1231 C 114.253 -0.0374561 1.66058 0
M  V30 1232 O 115.438 0.119073 1.90428 0
M  V30 1233 C 112.578 0.673589 3.38462 0
M  V30 1234 C 111.691 1.8379 3.90954 0
M  V30 1235 C 110.826 1.40381 5.12315 0
M  V30 1236 C 109.865 2.53746 5.57027 0
M  V30 1237 N 109.002 2.11136 6.69601 0
M  V30 1238 H 113.842 1.99048 2.21774 0
M  V30 1239 H 111.379 0.991277 1.08683 0
M  V30 1240 H 113.337 0.434964 4.14926 0
M  V30 1241 H 111.967 -0.227554 3.21997 0
M  V30 1242 H 111.019 2.18992 3.11041 0
M  V30 1243 H 112.331 2.68937 4.20089 0
M  V30 1244 H 111.485 1.12464 5.96185 0
M  V30 1245 H 110.224 0.523015 4.84887 0
M  V30 1246 H 109.229 2.82412 4.71724 0
M  V30 1247 H 110.454 3.42398 5.86464 0
M  V30 1248 H 108.4 1.25468 6.4389 0
M  V30 1249 H 108.317 2.89832 6.98236 0
M  V30 1250 H 109.585 1.86385 7.56889 0
M  V30 1251 N 113.814 -1.1601 1.06675 0
M  V30 1252 C 115.062 -1.86264 0.784229 0
M  V30 1253 C 115.383 -1.82328 -0.691488 0
M  V30 1254 O 114.653 -1.25947 -1.50047 0
M  V30 1255 H 113.233 -0.689621 0.28711 0
M  V30 1256 H 115.895 -1.40664 1.34906 0
M  V30 1257 H 114.991 -2.91595 1.11259 0
M  V30 1258 N 115.292 -0.849877 -1.32721 0
M  V30 1259 C 116.225 -0.235903 -2.26977 0
M  V30 1260 C 117.203 0.623355 -1.50177 0
M  V30 1261 O 118.387 0.581207 -1.79316 0
M  V30 1262 C 115.514 0.667712 -3.32053 0
M  V30 1263 C 114.56 -0.11753 -4.26338 0
M  V30 1264 S 115.393 -1.48277 -5.14562 0
M  V30 1265 C 116.549 -0.584741 -6.23163 0
M  V30 1266 H 116.782 -1.03495 -2.78704 0
M  V30 1267 H 114.315 -0.64724 -1.40179 0
M  V30 1268 H 116.273 1.18343 -3.93072 0
M  V30 1269 H 114.934 1.44052 -2.7912 0
M  V30 1270 H 114.127 0.57051 -5.00761 0
M  V30 1271 H 113.729 -0.564668 -3.69713 0
M  V30 1272 H 116.021 0.212968 -6.77165 0
M  V30 1273 H 116.964 -1.29947 -6.96074 0
M  V30 1274 H 117.372 -0.161202 -5.6427 0
M  V30 1275 N 116.77 1.45427 -0.607355 0
M  V30 1276 C 118.016 2.0254 -0.102607 0
M  V30 1277 C 118.349 1.47478 1.26348 0
M  V30 1278 O 117.624 0.64939 1.83339 0
M  V30 1279 C 117.907 3.60044 -0.0634347 0
M  V30 1280 C 117.76 4.2544 -1.46017 0
M  V30 1281 C 119.079 4.35646 0.624514 0
M  V30 1282 H 116.198 0.73598 -0.0387607 0
M  V30 1283 H 118.84 1.73284 -0.779282 0
M  V30 1284 H 116.99 3.85101 0.512808 0
M  V30 1285 H 118.662 4.11569 -2.08347 0
M  V30 1286 H 116.905 3.83849 -2.02094 0
M  V30 1287 H 117.576 5.34342 -1.385 0
M  V30 1288 H 120.052 4.15882 0.134723 0
M  V30 1289 H 118.928 5.45376 0.621028 0
M  V30 1290 H 119.189 4.08501 1.69055 0
M  V30 1291 N 118.248 0.346503 1.53744 0
M  V30 1292 C 119.495 -0.249104 2.00962 0
M  V30 1293 C 119.823 -1.5032 1.23426 0
M  V30 1294 O 119.078 -1.93217 0.310761 0
M  V30 1295 C 119.377 -0.605809 3.52228 0
M  V30 1296 C 119.043 0.551747 4.47512 0
M  V30 1297 C 117.705 0.86941 4.73281 0
M  V30 1298 C 120.057 1.32818 5.03993 0
M  V30 1299 C 117.385 1.96582 5.52786 0
M  V30 1300 C 119.737 2.41486 5.84694 0
M  V30 1301 C 118.401 2.73808 6.08757 0
M  V30 1302 H 117.671 -0.0911538 0.735372 0
M  V30 1303 H 120.318 0.475027 1.85515 0
M  V30 1304 H 118.623 -1.4107 3.65522 0
M  V30 1305 H 120.32 -1.07858 3.86222 0
M  V30 1306 H 116.91 0.294102 4.2759 0
M  V30 1307 H 121.094 1.09602 4.84047 0
M  V30 1308 H 116.35 2.22045 5.69654 0
M  V30 1309 H 120.524 3.02078 6.27473 0
M  V30 1310 H 118.151 3.58892 6.7015 0
M  V30 1311 N 119.726 -1.57421 0.075193 0
M  V30 1312 C 120.956 -1.97659 -0.601203 0
M  V30 1313 C 121.364 -0.952427 -1.63479 0
M  V30 1314 O 120.707 0.0688241 -1.83571 0
M  V30 1315 C 120.769 -3.34218 -1.32434 0
M  V30 1316 C 120.433 -4.5484 -0.443826 0
M  V30 1317 C 121.43 -5.19034 0.299969 0
M  V30 1318 C 119.115 -5.00952 -0.367709 0
M  V30 1319 C 121.109 -6.27695 1.10807 0
M  V30 1320 C 118.796 -6.09484 0.444058 0
M  V30 1321 C 119.794 -6.72719 1.18061 0
M  V30 1322 O 119.482 -7.79161 1.97898 0
M  V30 1323 H 119.214 -0.65494 -0.167422 0
M  V30 1324 H 121.768 -2.04886 0.145157 0
M  V30 1325 H 119.998 -3.23615 -2.11685 0
M  V30 1326 H 121.687 -3.59038 -1.89331 0
M  V30 1327 H 122.453 -4.84351 0.250776 0
M  V30 1328 H 118.332 -4.51509 -0.930638 0
M  V30 1329 H 121.876 -6.76982 1.68347 0
M  V30 1330 H 117.773 -6.43601 0.494803 0
M  V30 1331 H 118.541 -7.96055 1.90367 0
M  V30 1332 N 121.204 0.198386 -1.56346 0
M  V30 1333 C 122.432 0.935572 -1.84539 0
M  V30 1334 C 122.847 1.76989 -0.657281 0
M  V30 1335 O 122.204 1.78626 0.374043 0
M  V30 1336 C 122.255 1.8344 -3.11499 0
M  V30 1337 O 121.976 1.03377 -4.25728 0
M  V30 1338 C 123.477 2.68355 -3.52846 0
M  V30 1339 H 120.697 0.273126 -0.612897 0
M  V30 1340 H 123.241 0.20663 -2.03453 0
M  V30 1341 H 121.396 2.51701 -2.94492 0
M  V30 1342 H 121.81 1.64599 -4.98003 0
M  V30 1343 H 123.284 3.27085 -4.44657 0
M  V30 1344 H 123.761 3.41901 -2.75681 0
M  V30 1345 H 124.367 2.05471 -3.72373 0
M  V30 1346 N 122.682 1.50554 0.465978 0
M  V30 1347 C 123.63 1.70324 1.58406 0
M  V30 1348 C 124.624 0.569139 1.59553 0
M  V30 1349 O 125.83 0.749776 1.63641 0
M  V30 1350 H 122.205 0.537688 0.525734 0
M  V30 1351 H 124.176 2.64104 1.38894 0
M  V30 1352 C 122.925 1.81928 2.96307 0
M  V30 1353 H 122.248 2.68586 2.96144 0
M  V30 1354 H 123.688 1.99784 3.73982 0
M  V30 1355 C 122.147 0.572095 3.32007 0
M  V30 1356 O 122.677 -0.286416 4.00678 0
M  V30 1357 N 120.883 0.424606 2.87481 0
M  V30 1358 H 120.43 1.12427 2.31771 0
M  V30 1359 H 120.388 -0.408697 3.11732 0
M  V30 1360 N 124.16 -0.719506 1.40217 0
M  V30 1361 C 125.09 -1.8465 1.42922 0
M  V30 1362 C 126.071 -1.67599 0.29062 0
M  V30 1363 O 127.256 -1.87688 0.498677 0
M  V30 1364 C 124.386 -3.22565 1.28722 0
M  V30 1365 C 123.34 -3.54281 2.40144 0
M  V30 1366 C 122.666 -4.91298 2.11023 0
M  V30 1367 C 123.966 -3.55676 3.82481 0
M  V30 1368 H 125.66 -1.82644 2.37237 0
M  V30 1369 H 123.206 -0.877305 1.1419 0
M  V30 1370 H 125.159 -4.01095 1.29232 0
M  V30 1371 H 123.883 -3.25137 0.308811 0
M  V30 1372 H 122.542 -2.78088 2.38877 0
M  V30 1373 H 122.19 -4.90468 1.11582 0
M  V30 1374 H 121.89 -5.13485 2.8567 0
M  V30 1375 H 123.414 -5.72166 2.13209 0
M  V30 1376 H 124.828 -4.24254 3.85592 0
M  V30 1377 H 123.225 -3.89388 4.56614 0
M  V30 1378 H 124.295 -2.55144 4.12346 0
M  V30 1379 N 125.638 -1.25649 -0.95132 0
M  V30 1380 C 126.886 -1.10375 -1.69298 0
M  V30 1381 C 127.207 0.355339 -1.91735 0
M  V30 1382 O 126.477 1.25188 -1.50681 0
M  V30 1383 H 125.057 -0.405461 -0.627384 0
M  V30 1384 H 127.719 -1.57823 -1.14358 0
M  V30 1385 H 126.815 -1.61465 -2.67087 0
M  V30 1386 N 127.117 1.15442 -1.07289 0
M  V30 1387 C 128.342 1.90638 -0.816828 0
M  V30 1388 C 128.767 1.77445 0.624083 0
M  V30 1389 O 128.125 1.10671 1.43602 0
M  V30 1390 C 128.173 3.39008 -1.22906 0
M  V30 1391 O 127.277 4.10701 -0.373975 0
M  V30 1392 H 126.618 0.593555 -0.297638 0
M  V30 1393 H 129.148 1.46198 -1.43134 0
M  V30 1394 H 129.158 3.89801 -1.20497 0
M  V30 1395 H 127.833 3.47929 -2.27856 0
M  V30 1396 H 126.41 3.70046 -0.460499 0
M  V30 1397 N 128.595 0.856903 1.32268 0
M  V30 1398 C 130.011 0.547061 1.49931 0
M  V30 1399 C 130.211 -0.921781 1.7918 0
M  V30 1400 O 129.267 -1.70469 1.8627 0
M  V30 1401 C 130.58 1.43599 2.64196 0
M  V30 1402 C 132.128 1.43665 2.78081 0
M  V30 1403 C 132.603 2.31085 3.95428 0
M  V30 1404 N 134.094 2.28893 4.02694 0
M  V30 1405 C 134.829 2.93262 4.92732 0
M  V30 1406 N 134.325 3.66751 5.87763 0
M  V30 1407 N 136.118 2.82638 4.85873 0
M  V30 1408 H 128.269 1.8075 1.11549 0
M  V30 1409 H 130.532 0.772144 0.549997 0
M  V30 1410 H 130.238 2.48058 2.49319 0
M  V30 1411 H 130.112 1.12502 3.60032 0
M  V30 1412 H 132.499 0.399701 2.92381 0
M  V30 1413 H 132.58 1.7878 1.82952 0
M  V30 1414 H 132.224 3.34849 3.81888 0
M  V30 1415 H 132.154 1.93302 4.89839 0
M  V30 1416 H 134.645 1.75466 3.34694 0
M  V30 1417 H 134.958 4.13027 6.53168 0
M  V30 1418 H 133.303 3.70859 5.87783 0
M  V30 1419 H 136.494 2.24774 4.10602 0
M  V30 1420 H 136.667 3.33084 5.55841 0
M  V30 1421 N 130.073 -1.45103 0.615059 0
M  V30 1422 C 131.02 -2.30586 -0.0993978 0
M  V30 1423 C 131.99 -1.42544 -0.852669 0
M  V30 1424 O 133.175 -1.71465 -0.836917 0
M  V30 1425 C 130.315 -3.27572 -1.08583 0
M  V30 1426 C 129.428 -4.30717 -0.332656 0
M  V30 1427 C 128.563 -5.14807 -1.30947 0
M  V30 1428 C 127.602 -6.09673 -0.544538 0
M  V30 1429 N 126.739 -6.86517 -1.47101 0
M  V30 1430 H 131.579 -2.91144 0.635542 0
M  V30 1431 H 129.116 -1.4346 0.325206 0
M  V30 1432 H 131.074 -3.82276 -1.67095 0
M  V30 1433 H 129.704 -2.68751 -1.78809 0
M  V30 1434 H 128.756 -3.78615 0.368107 0
M  V30 1435 H 130.068 -4.98102 0.263842 0
M  V30 1436 H 129.222 -5.73948 -1.96643 0
M  V30 1437 H 127.961 -4.47458 -1.9399 0
M  V30 1438 H 126.966 -5.49656 0.126003 0
M  V30 1439 H 128.191 -6.79052 0.080947 0
M  V30 1440 H 126.137 -6.21851 -2.08895 0
M  V30 1441 H 126.054 -7.50281 -0.928137 0
M  V30 1442 H 127.322 -7.50194 -2.11731 0
M  V30 1443 N 131.551 -0.354651 -1.53558 0
M  V30 1444 C 132.514 0.484566 -2.24019 0
M  V30 1445 C 133.514 1.01861 -1.24422 0
M  V30 1446 O 134.704 0.906097 -1.4878 0
M  V30 1447 C 131.836 1.67615 -2.96847 0
M  V30 1448 H 133.029 -0.131843 -2.9961 0
M  V30 1449 H 130.582 -0.106165 -1.55939 0
M  V30 1450 H 131.317 2.33095 -2.25471 0
M  V30 1451 H 131.102 1.30029 -3.69912 0
M  V30 1452 H 132.592 2.27114 -3.50441 0
M  V30 1453 N 133.029 1.57378 -0.0835403 0
M  V30 1454 C 133.979 2.09916 0.889905 0
M  V30 1455 C 134.963 1.01151 1.25129 0
M  V30 1456 O 136.155 1.27443 1.2283 0
M  V30 1457 C 133.284 2.67379 2.15322 0
M  V30 1458 C 132.37 3.83167 1.81779 0
M  V30 1459 N 132.761 4.91665 1.18739 0
M  V30 1460 C 131.059 3.92685 2.11459 0
M  V30 1461 C 131.76 5.72409 1.0355 0
M  V30 1462 N 130.736 5.21062 1.54906 0
M  V30 1463 H 134.538 2.91188 0.398378 0
M  V30 1464 H 132.052 1.61956 0.120013 0
M  V30 1465 H 134.049 3.0334 2.8599 0
M  V30 1466 H 132.709 1.87558 2.65051 0
M  V30 1467 H 133.72 5.10784 0.855604 0
M  V30 1468 H 130.397 3.23856 2.63483 0
M  V30 1469 H 131.787 6.69699 0.543425 0
M  V30 1470 N 134.507 -0.190092 1.56449 0
M  V30 1471 C 135.439 -1.25973 1.91477 0
M  V30 1472 C 136.452 -1.41452 0.805931 0
M  V30 1473 O 137.641 -1.41789 1.08435 0
M  V30 1474 C 134.741 -2.63117 2.13594 0
M  V30 1475 C 133.914 -2.69182 3.4476 0
M  V30 1476 C 132.973 -3.87557 3.5593 0
M  V30 1477 O 131.999 -3.74427 4.28711 0
M  V30 1478 N 133.201 -5.03224 2.89388 0
M  V30 1479 H 135.966 -0.962394 2.83828 0
M  V30 1480 H 133.527 -0.379981 1.57378 0
M  V30 1481 H 135.519 -3.40742 2.1835 0
M  V30 1482 H 134.089 -2.85319 1.27719 0
M  V30 1483 H 133.309 -1.77793 3.51828 0
M  V30 1484 H 134.597 -2.70229 4.31107 0
M  V30 1485 H 133.995 -5.16791 2.30094 0
M  V30 1486 H 132.552 -5.78778 2.99764 0
M  V30 1487 N 135.985 -1.50799 -0.457987 0
M  V30 1488 C 137.234 -1.6168 -1.20593 0
M  V30 1489 C 137.547 -0.32888 -1.92815 0
M  V30 1490 O 138.753 -0.316773 -2.69646 0
M  V30 1491 C 137.209 -2.8545 -2.19195 0
M  V30 1492 C 136.817 -4.21168 -1.52715 0
M  V30 1493 C 138.561 -3.05681 -2.94549 0
M  V30 1494 C 136.468 -5.3611 -2.4968 0
M  V30 1495 H 135.398 -0.602134 -0.453818 0
M  V30 1496 H 138.049 -1.77245 -0.475031 0
M  V30 1497 H 136.431 -2.63472 -2.95632 0
M  V30 1498 H 137.605 -4.53449 -0.819775 0
M  V30 1499 H 135.92 -4.06648 -0.895922 0
M  V30 1500 H 138.517 -3.88727 -3.67145 0
M  V30 1501 H 138.86 -2.17929 -3.54701 0
M  V30 1502 H 139.393 -3.27901 -2.25223 0
M  V30 1503 H 136.132 -6.26057 -1.94249 0
M  V30 1504 H 135.652 -5.0823 -3.18532 0
M  V30 1505 H 137.331 -5.6722 -3.11241 0
M  V30 1506 N 137.463 0.71206 -1.40597 0
M  V30 1507 C 138.373 1.8562 -1.43466 0
M  V30 1508 C 139.389 1.70902 -0.326902 0
M  V30 1509 O 140.565 1.93105 -0.572043 0
M  V30 1510 C 137.63 3.21451 -1.29884 0
M  V30 1511 C 136.691 3.48398 -2.50833 0
M  V30 1512 C 135.924 4.77749 -2.3789 0
M  V30 1513 O 136.147 5.53089 -1.39459 0
M  V30 1514 O 135.081 5.05111 -3.27333 0
M  V30 1515 H 138.907 1.86155 -2.39958 0
M  V30 1516 H 136.492 0.86295 -1.21957 0
M  V30 1517 H 138.374 4.02579 -1.24531 0
M  V30 1518 H 137.049 3.21636 -0.364997 0
M  V30 1519 H 135.956 2.67265 -2.61763 0
M  V30 1520 H 137.289 3.53014 -3.4299 0
M  V30 1521 N 138.941 1.26152 0.944643 0
M  V30 1522 C 139.889 1.07215 2.06417 0
M  V30 1523 C 140.883 9.2007e-05 1.694 0
M  V30 1524 O 142.089 0.1565 1.79318 0
M  V30 1525 H 138.464 0.329837 0.675805 0
M  V30 1526 H 140.435 2.02099 2.19541 0
M  V30 1527 C 139.184 0.718197 3.40202 0
M  V30 1528 H 138.507 1.53497 3.69159 0
M  V30 1529 H 139.947 0.625459 4.19361 0
M  V30 1530 C 138.406 -0.576435 3.31932 0
M  V30 1531 O 138.936 -1.61574 3.67773 0
M  V30 1532 N 137.142 -0.565781 2.85039 0
M  V30 1533 H 136.689 0.280367 2.5607 0
M  V30 1534 H 136.647 -1.43213 2.79888 0
M  V30 1535 N 140.419 -1.14872 1.07899 0
M  V30 1536 C 141.367 -2.21857 0.698727 0
M  V30 1537 C 142.361 -1.66845 -0.293086 0
M  V30 1538 O 143.567 -1.79321 -0.156204 0
M  V30 1539 H 139.942 -0.722691 0.207899 0
M  V30 1540 H 141.913 -2.51205 1.61054 0
M  V30 1541 C 140.662 -3.47498 0.11858 0
M  V30 1542 H 139.985 -3.90154 0.872914 0
M  V30 1543 H 141.425 -4.23858 -0.109759 0
M  V30 1544 C 139.884 -3.16947 -1.1422 0
M  V30 1545 O 140.414 -3.3426 -2.22785 0
M  V30 1546 N 138.62 -2.70946 -1.05055 0
M  V30 1547 H 138.167 -2.57058 -0.167038 0
M  V30 1548 H 138.125 -2.50879 -1.89491 0
M  V30 1549 N 141.898 -0.863906 -1.31812 0
M  V30 1550 C 143.309 -0.52522 -1.7916 0
M  V30 1551 C 143.66 0.957518 -1.71248 0
M  V30 1552 O 142.785 1.74734 -1.27659 0
M  V30 1553 C 143.38 -0.9466 -3.25307 0
M  V30 1554 C 141.939 -0.659668 -3.70574 0
M  V30 1555 C 141.086 -1.14126 -2.52726 0
M  V30 1556 H 144.037 -1.05022 -1.1898 0
M  V30 1557 H 144.058 -0.266766 -3.79564 0
M  V30 1558 H 143.57 -2.02579 -3.31034 0
M  V30 1559 H 141.671 0.408416 -3.70355 0
M  V30 1560 H 141.784 -1.23245 -4.62977 0
M  V30 1561 H 140.148 -0.561216 -2.4844 0
M  V30 1562 H 140.931 -2.22775 -2.61201 0
M  V30 1563 N 143.376 1.44774 -0.622745 0
M  V30 1564 C 144.792 1.56986 -0.287652 0
M  V30 1565 C 144.992 1.61167 1.20944 0
M  V30 1566 O 144.048 1.55015 1.99315 0
M  V30 1567 C 145.361 2.84551 -0.972188 0
M  V30 1568 C 146.909 2.9825 -0.949536 0
M  V30 1569 C 147.384 4.28605 -1.61437 0
M  V30 1570 N 148.875 4.35399 -1.58057 0
M  V30 1571 C 149.61 5.34964 -2.064 0
M  V30 1572 N 149.106 6.40981 -2.62897 0
M  V30 1573 N 150.899 5.26419 -1.97078 0
M  V30 1574 H 143.05 1.40304 -1.59463 0
M  V30 1575 H 145.313 0.671794 -0.668878 0
M  V30 1576 H 145.019 2.87417 -2.02693 0
M  V30 1577 H 144.893 3.73807 -0.504771 0
M  V30 1578 H 147.28 2.94941 0.0967067 0
M  V30 1579 H 147.361 2.10364 -1.45536 0
M  V30 1580 H 147.005 4.32672 -2.66002 0
M  V30 1581 H 146.935 5.15334 -1.08344 0
M  V30 1582 H 149.426 3.59397 -1.16801 0
M  V30 1583 H 149.739 7.13225 -2.97539 0
M  V30 1584 H 148.084 6.4169 -2.66943 0
M  V30 1585 H 151.275 4.42504 -1.52669 0
M  V30 1586 H 151.448 6.03861 -2.35066 0
M  V30 1587 N 144.854 0.36279 1.53368 0
M  V30 1588 C 146.1 -0.228113 2.01513 0
M  V30 1589 C 146.433 -1.48648 1.2497 0
M  V30 1590 O 145.708 -1.91459 0.342616 0
M  V30 1591 C 145.991 -0.522884 3.56284 0
M  V30 1592 C 145.844 0.74892 4.43521 0
M  V30 1593 C 147.163 -1.32461 4.19693 0
M  V30 1594 H 144.282 -0.0814343 0.732487 0
M  V30 1595 H 146.924 0.48713 1.83649 0
M  V30 1596 H 145.074 -1.1322 3.71636 0
M  V30 1597 H 146.746 1.38648 4.39971 0
M  V30 1598 H 144.989 1.36986 4.11603 0
M  V30 1599 H 145.66 0.497667 5.49752 0
M  V30 1600 H 148.136 -0.809203 4.08156 0
M  V30 1601 H 147.012 -1.49961 5.28018 0
M  V30 1602 H 147.273 -2.33232 3.75573 0
M  V30 1603 N 146.332 -1.57332 0.0918853 0
M  V30 1604 C 147.557 -1.98995 -0.584442 0
M  V30 1605 C 147.982 -0.970528 -1.61128 0
M  V30 1606 O 147.34 0.0613904 -1.81196 0
M  V30 1607 C 147.388 -3.39636 -1.21161 0
M  V30 1608 O 146.492 -3.40447 -2.32744 0
M  V30 1609 H 145.833 -0.647165 -0.148572 0
M  V30 1610 H 148.363 -2.03873 0.172347 0
M  V30 1611 H 148.373 -3.7726 -1.55367 0
M  V30 1612 H 147.048 -4.13356 -0.459313 0
M  V30 1613 H 145.625 -3.14614 -2.0018 0
M  V30 1614 N 147.81 0.181792 -1.56548 0
M  V30 1615 C 148.74 1.22765 -1.98623 0
M  V30 1616 C 149.721 1.46747 -0.860189 0
M  V30 1617 O 150.906 1.58259 -1.12551 0
M  V30 1618 C 148.036 2.56894 -2.33715 0
M  V30 1619 C 146.99 2.475 -3.49182 0
M  V30 1620 C 146.316 3.86023 -3.69986 0
M  V30 1621 C 147.616 1.98866 -4.82959 0
M  V30 1622 H 149.31 0.877942 -2.86239 0
M  V30 1623 H 146.856 0.42088 -1.37712 0
M  V30 1624 H 148.809 3.30253 -2.61746 0
M  V30 1625 H 147.533 2.93632 -1.42997 0
M  V30 1626 H 146.192 1.76596 -3.21262 0
M  V30 1627 H 145.84 4.20136 -2.76576 0
M  V30 1628 H 145.54 3.80609 -4.47672 0
M  V30 1629 H 147.064 4.60984 -4.00407 0
M  V30 1630 H 148.478 2.61992 -5.09934 0
M  V30 1631 H 146.875 2.04424 -5.64208 0
M  V30 1632 H 147.945 0.942465 -4.75653 0
M  V30 1633 N 149.288 1.51039 0.449983 0
M  V30 1634 C 150.218 1.74379 1.55288 0
M  V30 1635 C 151.199 0.593236 1.5942 0
M  V30 1636 O 152.384 0.834625 1.7535 0
M  V30 1637 C 149.514 1.85728 2.93466 0
M  V30 1638 C 148.468 3.01078 3.04197 0
M  V30 1639 C 147.794 2.97595 4.44231 0
M  V30 1640 C 149.094 4.41254 2.7945 0
M  V30 1641 H 150.788 2.66725 1.36008 0
M  V30 1642 H 148.334 1.2835 0.652864 0
M  V30 1643 H 150.287 2.0064 3.70569 0
M  V30 1644 H 149.011 0.900207 3.13949 0
M  V30 1645 H 147.67 2.85851 2.29531 0
M  V30 1646 H 147.318 1.99691 4.61663 0
M  V30 1647 H 147.018 3.75046 4.52343 0
M  V30 1648 H 148.542 3.14583 5.23326 0
M  V30 1649 H 149.956 4.56897 3.46292 0
M  V30 1650 H 148.353 5.20315 2.98985 0
M  V30 1651 H 149.423 4.52164 1.75144 0
M  V30 1652 N 150.766 -0.704594 1.40972 0
M  V30 1653 C 152.013 -1.46458 1.39844 0
M  V30 1654 C 152.341 -1.94499 0.00447594 0
M  V30 1655 O 151.596 -1.69275 -0.982057 0
M  V30 1656 C 151.895 -2.698 2.34399 0
M  V30 1657 C 151.561 -2.40464 3.81429 0
M  V30 1658 C 150.223 -2.32174 4.21484 0
M  V30 1659 C 152.575 -2.16086 4.74296 0
M  V30 1660 C 149.903 -1.97589 5.52427 0
M  V30 1661 C 152.255 -1.83011 6.05549 0
M  V30 1662 C 150.919 -1.7321 6.44635 0
M  V30 1663 H 150.189 -0.535927 0.511725 0
M  V30 1664 H 152.836 -0.806124 1.73706 0
M  V30 1665 H 151.141 -3.40536 1.93759 0
M  V30 1666 H 152.838 -3.27919 2.30804 0
M  V30 1667 H 149.428 -2.47808 3.49699 0
M  V30 1668 H 153.612 -2.2144 4.4416 0
M  V30 1669 H 148.868 -1.88547 5.81601 0
M  V30 1670 H 153.042 -1.63164 6.77016 0
M  V30 1671 H 150.669 -1.46179 7.46013 0
M  V30 1672 N 152.244 -1.26651 -0.937939 0
M  V30 1673 C 153.655 -1.1125 -1.49934 0
M  V30 1674 C 154.006 0.306077 -1.93798 0
M  V30 1675 O 153.131 1.19792 -1.80219 0
M  V30 1676 C 153.726 -2.01339 -2.72485 0
M  V30 1677 C 152.285 -1.90074 -3.24883 0
M  V30 1678 C 151.432 -1.94498 -1.97651 0
M  V30 1679 H 154.383 -1.39693 -0.753091 0
M  V30 1680 H 154.404 -1.56319 -3.46907 0
M  V30 1681 H 153.916 -3.04577 -2.40529 0
M  V30 1682 H 152.017 -0.897827 -3.61621 0
M  V30 1683 H 152.13 -2.75778 -3.9177 0
M  V30 1684 H 150.494 -1.38591 -2.13693 0
M  V30 1685 H 151.277 -2.99372 -1.68022 0
M  V30 1686 N 153.722 1.14298 -1.08507 0
M  V30 1687 C 154.968 1.85854 -0.826438 0
M  V30 1688 C 155.323 1.81413 0.640878 0
M  V30 1689 O 154.616 1.23463 1.46518 0
M  V30 1690 C 154.81 3.33547 -1.28379 0
M  V30 1691 C 154.639 3.52369 -2.79403 0
M  V30 1692 C 153.409 3.67159 -3.47164 0
M  V30 1693 C 155.607 3.49203 -3.77573 0
M  V30 1694 N 153.589 3.74149 -4.86709 0
M  V30 1695 C 154.96 3.6245 -5.03021 0
M  V30 1696 C 157.015 3.32547 -3.70563 0
M  V30 1697 C 155.718 3.60761 -6.2229 0
M  V30 1698 C 157.744 3.32162 -4.89308 0
M  V30 1699 C 157.106 3.45949 -6.13595 0
M  V30 1700 H 153.205 0.696705 -0.355143 0
M  V30 1701 H 155.789 1.36981 -1.38362 0
M  V30 1702 H 153.96 3.81008 -0.754166 0
M  V30 1703 H 155.692 3.92867 -0.971469 0
M  V30 1704 H 152.447 3.68433 -2.9758 0
M  V30 1705 H 152.871 3.81359 -5.5937 0
M  V30 1706 H 157.513 3.20797 -2.75407 0
M  V30 1707 H 155.231 3.71286 -7.17755 0
M  V30 1708 H 158.817 3.20485 -4.85573 0
M  V30 1709 H 157.697 3.456 -7.03939 0
M  V30 1710 N 155.201 0.870884 1.31352 0
M  V30 1711 C 156.151 0.298889 2.26032 0
M  V30 1712 C 157.135 -0.564595 1.50669 0
M  V30 1713 O 158.327 -0.411323 1.72154 0
M  V30 1714 C 155.456 -0.497842 3.39671 0
M  V30 1715 C 154.542 0.378937 4.22404 0
M  V30 1716 N 154.933 1.47284 4.83881 0
M  V30 1717 C 153.231 0.171535 4.4567 0
M  V30 1718 C 153.932 2.01359 5.45738 0
M  V30 1719 N 152.908 1.31047 5.27568 0
M  V30 1720 H 156.71 1.13494 2.71102 0
M  V30 1721 H 154.224 0.718745 1.45629 0
M  V30 1722 H 156.221 -0.924155 4.06528 0
M  V30 1723 H 154.881 -1.33149 2.96144 0
M  V30 1724 H 155.892 1.85575 4.8351 0
M  V30 1725 H 152.569 -0.626091 4.12779 0
M  V30 1726 H 153.959 2.93143 6.0458 0
M  V30 1727 N 156.679 -1.44442 0.630414 0
M  V30 1728 C 157.907 -2.06414 0.141671 0
M  V30 1729 C 158.322 -1.47105 -1.18345 0
M  V30 1730 O 157.679 -0.593662 -1.72574 0
M  V30 1731 C 157.73 -3.61494 0.0199784 0
M  V30 1732 O 157.451 -4.18594 1.29269 0
M  V30 1733 C 158.952 -4.40499 -0.497544 0
M  V30 1734 H 156.172 -0.666292 0.0793452 0
M  V30 1735 H 158.716 -1.85323 0.864614 0
M  V30 1736 H 156.871 -3.8185 -0.653402 0
M  V30 1737 H 157.285 -5.12026 1.13707 0
M  V30 1738 H 158.759 -5.49433 -0.531708 0
M  V30 1739 H 159.236 -4.11895 -1.52445 0
M  V30 1740 H 159.842 -4.25061 0.142562 0
M  V30 1741 N 158.157 -0.370918 -1.53173 0
M  V30 1742 C 159.087 0.464847 -2.28826 0
M  V30 1743 C 160.068 1.07936 -1.31468 0
M  V30 1744 O 161.253 1.0956 -1.60344 0
M  V30 1745 C 158.383 1.60196 -3.08147 0
M  V30 1746 C 157.337 1.11443 -4.13237 0
M  V30 1747 C 156.663 2.3422 -4.80672 0
M  V30 1748 C 157.963 0.195384 -5.21934 0
M  V30 1749 H 159.657 -0.166329 -2.98938 0
M  V30 1750 H 157.203 -0.0814359 -1.4377 0
M  V30 1751 H 159.156 2.19332 -3.59822 0
M  V30 1752 H 157.88 2.26045 -2.35735 0
M  V30 1753 H 156.539 0.545727 -3.62515 0
M  V30 1754 H 156.187 2.98537 -4.04827 0
M  V30 1755 H 155.887 2.02269 -5.51689 0
M  V30 1756 H 157.411 2.94032 -5.35143 0
M  V30 1757 H 158.825 0.694375 -5.69079 0
M  V30 1758 H 157.222 -0.0335027 -6.00091 0
M  V30 1759 H 158.292 -0.760961 -4.78892 0
M  V30 1760 N 159.635 1.57281 -0.100228 0
M  V30 1761 C 160.545 2.17833 0.870965 0
M  V30 1762 C 161.561 1.14921 1.30649 0
M  V30 1763 O 162.737 1.47313 1.37335 0
M  V30 1764 C 159.802 2.75085 2.1102 0
M  V30 1765 C 158.863 3.9297 1.72838 0
M  V30 1766 C 158.096 4.47482 2.90854 0
M  V30 1767 O 158.319 4.00922 4.05731 0
M  V30 1768 O 157.253 5.38433 2.69023 0
M  V30 1769 H 161.079 3.0124 0.38575 0
M  V30 1770 H 158.664 1.48881 0.124397 0
M  V30 1771 H 160.546 3.11656 2.83634 0
M  V30 1772 H 159.221 1.94721 2.58584 0
M  V30 1773 H 158.128 3.61201 0.973883 0
M  V30 1774 H 159.461 4.74713 1.30033 0
M  V30 1775 N 161.113 -0.173488 1.56642 0
M  V30 1776 C 162.529 -0.525174 1.50712 0
M  V30 1777 C 162.729 -1.8476 0.804107 0
M  V30 1778 O 161.785 -2.49869 0.363574 0
M  V30 1779 C 163.098 -0.559937 2.95441 0
M  V30 1780 C 164.646 -0.647288 3.06234 0
M  V30 1781 C 165.121 -0.712963 4.52417 0
M  V30 1782 N 166.612 -0.775911 4.56655 0
M  V30 1783 C 167.347 -0.847264 5.67106 0
M  V30 1784 N 166.843 -0.879585 6.87194 0
M  V30 1785 N 168.636 -0.886117 5.55071 0
M  V30 1786 H 160.787 0.693681 2.00753 0
M  V30 1787 H 163.05 0.249841 0.914485 0
M  V30 1788 H 162.756 0.343049 3.50023 0
M  V30 1789 H 162.63 -1.40718 3.49969 0
M  V30 1790 H 165.017 -1.5407 2.51687 0
M  V30 1791 H 165.098 0.226586 2.54794 0
M  V30 1792 H 164.742 0.176183 5.07594 0
M  V30 1793 H 164.672 -1.60295 5.0161 0
M  V30 1794 H 167.163 -0.759304 3.70193 0
M  V30 1795 H 167.476 -0.935144 7.67121 0
M  V30 1796 H 165.821 -0.847898 6.89808 0
M  V30 1797 H 169.012 -0.857853 4.60172 0
M  V30 1798 H 169.185 -0.938263 6.41171 0
M  V30 1799 N 162.591 -1.51276 -0.441967 0
M  V30 1800 C 163.523 -1.68444 -1.55433 0
M  V30 1801 C 164.536 -0.565187 -1.52674 0
M  V30 1802 O 165.725 -0.839356 -1.57534 0
M  V30 1803 C 162.825 -1.67966 -2.94348 0
M  V30 1804 C 161.998 -2.964 -3.21661 0
M  V30 1805 C 161.057 -2.88171 -4.40277 0
M  V30 1806 O 160.083 -3.62119 -4.39157 0
M  V30 1807 N 161.285 -2.03706 -5.43584 0
M  V30 1808 H 164.05 -2.644 -1.41112 0
M  V30 1809 H 161.611 -1.49104 -0.630838 0
M  V30 1810 H 163.603 -1.60035 -3.71713 0
M  V30 1811 H 162.173 -0.796225 -3.0229 0
M  V30 1812 H 161.393 -3.18234 -2.32638 0
M  V30 1813 H 162.681 -3.81427 -3.36736 0
M  V30 1814 H 162.079 -1.42995 -5.47329 0
M  V30 1815 H 160.636 -2.01658 -6.1982 0
M  V30 1816 N 164.069 0.697108 -1.41344 0
M  V30 1817 C 165.315 1.4593 -1.40827 0
M  V30 1818 C 165.648 1.94193 -0.0167098 0
M  V30 1819 O 164.923 1.69425 0.955263 0
M  V30 1820 C 165.206 2.67229 -2.41373 0
M  V30 1821 C 165.059 2.24741 -3.8963 0
M  V30 1822 C 166.378 3.69423 -2.39196 0
M  V30 1823 H 163.497 0.529303 -0.512842 0
M  V30 1824 H 166.139 0.794112 -1.72609 0
M  V30 1825 H 164.289 3.23982 -2.14401 0
M  V30 1826 H 165.961 1.73327 -4.27499 0
M  V30 1827 H 164.204 1.56542 -4.0457 0
M  V30 1828 H 164.875 3.1177 -4.55525 0
M  V30 1829 H 167.351 3.2234 -2.63128 0
M  V30 1830 H 166.227 4.51907 -3.11563 0
M  V30 1831 H 166.488 4.19012 -1.41001 0
M  V30 1832 N 165.547 1.27147 0.931209 0
M  V30 1833 C 166.48 1.0389 2.0318 0
M  V30 1834 C 167.458 -0.0395716 1.62552 0
M  V30 1835 O 168.642 0.104867 1.88208 0
M  V30 1836 C 165.769 0.575227 3.3378 0
M  V30 1837 C 164.815 1.64774 3.93385 0
M  V30 1838 S 165.648 3.23933 4.26413 0
M  V30 1839 C 166.804 2.79358 5.60098 0
M  V30 1840 H 167.037 1.97075 2.22596 0
M  V30 1841 H 164.57 1.10938 1.07387 0
M  V30 1842 H 166.528 0.314385 4.09294 0
M  V30 1843 H 165.189 -0.336505 3.12292 0
M  V30 1844 H 164.382 1.27454 4.87618 0
M  V30 1845 H 163.984 1.86048 3.24441 0
M  V30 1846 H 166.276 2.24443 6.39243 0
M  V30 1847 H 167.219 3.72322 6.02314 0
M  V30 1848 H 167.627 2.1861 5.20452 0
M  V30 1849 N 167.025 -1.13721 1.09112 0
M  V30 1850 C 168.271 -1.85198 0.826414 0
M  V30 1851 C 168.604 -1.83129 -0.646319 0
M  V30 1852 O 167.879 -1.2671 -1.47563 0
M  V30 1853 C 168.162 -3.33507 1.35812 0
M  V30 1854 C 168.015 -3.44108 2.89672 0
M  V30 1855 C 169.334 -4.28838 0.989256 0
M  V30 1856 H 166.453 -0.67243 0.301675 0
M  V30 1857 H 169.095 -1.33499 1.35197 0
M  V30 1858 H 167.245 -3.77666 0.911082 0
M  V30 1859 H 168.917 -3.08684 3.428 0
M  V30 1860 H 167.16 -2.85087 3.26967 0
M  V30 1861 H 167.831 -4.48388 3.21951 0
M  V30 1862 H 170.307 -3.92734 1.37475 0
M  V30 1863 H 169.183 -5.31051 1.38838 0
M  V30 1864 H 169.444 -4.4198 -0.102924 0
M  V30 1865 N 168.503 -0.877838 -1.30888 0
M  V30 1866 C 169.752 -0.488793 -1.95688 0
M  V30 1867 C 170.065 0.965485 -1.70111 0
M  V30 1868 O 171.271 1.46104 -2.28836 0
M  V30 1869 C 169.727 -0.823201 -3.50359 0
M  V30 1870 C 169.335 -2.29477 -3.84765 0
M  V30 1871 C 171.079 -0.503009 -4.21509 0
M  V30 1872 C 168.986 -2.57118 -5.32583 0
M  V30 1873 H 167.916 -0.179062 -0.732429 0
M  V30 1874 H 170.567 -1.07183 -1.48943 0
M  V30 1875 H 168.949 -0.169331 -3.95638 0
M  V30 1876 H 170.123 -2.99236 -3.5042 0
M  V30 1877 H 168.438 -2.58178 -3.267 0
M  V30 1878 H 171.035 -0.68665 -5.30273 0
M  V30 1879 H 171.378 0.557109 -4.12555 0
M  V30 1880 H 171.911 -1.11376 -3.8189 0
M  V30 1881 H 168.65 -3.61843 -5.4658 0
M  V30 1882 H 168.17 -1.91961 -5.68253 0
M  V30 1883 H 169.849 -2.42251 -5.99936 0
M  V30 1884 N 169.982 1.44106 -0.638065 0
M  V30 1885 C 171.23 2.01579 -0.145043 0
M  V30 1886 C 171.551 1.50496 1.24 0
M  V30 1887 O 170.821 0.711374 1.82527 0
M  V30 1888 H 169.401 0.745282 -0.05063 0
M  V30 1889 H 172.063 1.76516 -0.826327 0
M  V30 1890 H 171.159 3.11877 -0.118039 0
M  V30 1891 N 171.46 0.379036 1.52974 0
M  V30 1892 C 172.407 -0.461048 2.26148 0
M  V30 1893 C 173.377 -1.06637 1.27349 0
M  V30 1894 O 174.562 -1.09633 1.56157 0
M  V30 1895 C 171.702 -1.58782 3.06402 0
M  V30 1896 C 170.815 -1.00636 4.20115 0
M  V30 1897 C 169.95 -2.10334 4.87784 0
M  V30 1898 C 168.989 -1.49724 5.93506 0
M  V30 1899 N 168.126 -2.5331 6.54812 0
M  V30 1900 H 172.966 0.169429 2.97518 0
M  V30 1901 H 170.503 0.0953806 1.4679 0
M  V30 1902 H 172.461 -2.25174 3.51215 0
M  V30 1903 H 171.091 -2.18876 2.37261 0
M  V30 1904 H 170.143 -0.232332 3.7969 0
M  V30 1905 H 171.455 -0.523343 4.96047 0
M  V30 1906 H 170.609 -2.84519 5.35849 0
M  V30 1907 H 169.348 -2.61992 4.11353 0
M  V30 1908 H 168.353 -0.740598 5.44789 0
M  V30 1909 H 169.578 -0.988732 6.71864 0
M  V30 1910 H 167.524 -3.04156 5.81227 0
M  V30 1911 H 167.441 -2.09734 7.26325 0
M  V30 1912 H 168.709 -3.27155 7.07524 0
M  V30 1913 N 172.938 -1.57226 0.108567 0
M  V30 1914 C 173.901 -2.13602 -0.831082 0
M  V30 1915 C 174.901 -1.06841 -1.20173 0
M  V30 1916 O 176.091 -1.32666 -1.12895 0
M  V30 1917 C 173.223 -2.66769 -2.12243 0
M  V30 1918 H 174.416 -2.97951 -0.341317 0
M  V30 1919 H 171.969 -1.55667 -0.14057 0
M  V30 1920 H 172.704 -1.85977 -2.65675 0
M  V30 1921 H 172.489 -3.44839 -1.86625 0
M  V30 1922 H 173.979 -3.10332 -2.79435 0
M  V30 1923 N 174.416 0.165178 -1.56732 0
M  V30 1924 C 175.326 1.22423 -2.00125 0
M  V30 1925 C 176.342 1.48084 -0.913619 0
M  V30 1926 O 177.518 1.60112 -1.22172 0
M  V30 1927 C 174.583 2.54197 -2.35764 0
M  V30 1928 C 173.644 2.36343 -3.58386 0
M  V30 1929 C 172.877 3.61834 -3.92316 0
M  V30 1930 O 173.1 4.67267 -3.27135 0
M  V30 1931 O 172.034 3.55579 -4.85641 0
M  V30 1932 H 175.86 0.885886 -2.90492 0
M  V30 1933 H 173.445 0.372518 -1.44681 0
M  V30 1934 H 175.327 3.3192 -2.59629 0
M  V30 1935 H 174.002 2.87598 -1.48557 0
M  V30 1936 H 172.909 1.56632 -3.39731 0
M  V30 1937 H 174.242 2.07865 -4.46154 0
M  V30 1938 N 175.894 1.51508 0.433938 0
M  V30 1939 C 177.31 1.39759 0.770682 0
M  V30 1940 C 177.51 0.482594 1.95636 0
M  V30 1941 O 176.566 -0.0609691 2.52426 0
M  V30 1942 C 177.879 2.81851 1.04787 0
M  V30 1943 C 179.427 2.91025 1.1521 0
M  V30 1944 C 179.902 4.34032 1.46219 0
M  V30 1945 N 181.393 4.37154 1.53136 0
M  V30 1946 C 182.128 5.4484 1.78709 0
M  V30 1947 N 181.624 6.62682 2.02051 0
M  V30 1948 N 183.417 5.32324 1.80519 0
M  V30 1949 H 175.568 2.09548 -0.346892 0
M  V30 1950 H 177.831 0.943446 -0.0928074 0
M  V30 1951 H 177.537 3.50815 0.249304 0
M  V30 1952 H 177.411 3.21386 1.97461 0
M  V30 1953 H 179.798 2.22257 1.94128 0
M  V30 1954 H 179.879 2.54983 0.204281 0
M  V30 1955 H 179.523 5.03351 0.678274 0
M  V30 1956 H 179.453 4.6759 2.42212 0
M  V30 1957 H 181.944 3.52197 1.36987 0
M  V30 1958 H 182.257 7.40543 2.20943 0
M  V30 1959 H 180.602 6.65791 1.99366 0
M  V30 1960 H 183.793 4.39246 1.61805 0
M  V30 1961 H 183.966 6.16328 2.00111 0
M  V30 1962 N 177.372 -0.689602 1.41712 0
M  V30 1963 C 178.302 -1.81577 1.46806 0
M  V30 1964 C 179.283 -1.66945 0.326105 0
M  V30 1965 O 180.468 -1.86588 0.538377 0
M  V30 1966 C 177.598 -3.19762 1.35535 0
M  V30 1967 C 176.552 -3.49107 2.47605 0
M  V30 1968 C 175.878 -4.86711 2.21397 0
M  V30 1969 C 177.178 -3.47483 3.89939 0
M  V30 1970 H 178.872 -1.7757 2.41058 0
M  V30 1971 H 176.418 -0.852887 1.16025 0
M  V30 1972 H 178.371 -3.98263 1.3771 0
M  V30 1973 H 177.095 -3.24409 0.377708 0
M  V30 1974 H 175.754 -2.72959 2.44722 0
M  V30 1975 H 175.402 -4.8799 1.21961 0
M  V30 1976 H 175.102 -5.0731 2.96497 0
M  V30 1977 H 176.626 -5.67515 2.25297 0
M  V30 1978 H 178.04 -4.1598 3.94505 0
M  V30 1979 H 176.437 -3.79615 4.64771 0
M  V30 1980 H 177.507 -2.46341 4.17665 0
M  V30 1981 N 178.85 -1.27639 -0.924453 0
M  V30 1982 C 180.075 -1.17101 -1.71179 0
M  V30 1983 C 180.5 0.268134 -1.86179 0
M  V30 1984 O 179.858 1.19415 -1.36418 0
M  V30 1985 C 179.906 -1.86313 -3.08739 0
M  V30 1986 O 179.01 -1.16331 -3.95652 0
M  V30 1987 H 178.351 -0.407091 -0.524569 0
M  V30 1988 H 180.881 -1.68767 -1.15666 0
M  V30 1989 H 180.891 -1.938 -3.59034 0
M  V30 1990 H 179.566 -2.91001 -2.97138 0
M  V30 1991 H 178.143 -1.16935 -3.54091 0
M  V30 1992 N 180.328 1.1314 -1.09713 0
M  V30 1993 C 181.556 1.88321 -0.856898 0
M  V30 1994 C 181.971 1.79276 0.592073 0
M  V30 1995 O 181.328 1.16142 1.40774 0
M  V30 1996 C 181.379 3.37812 -1.28706 0
M  V30 1997 O 181.1 3.46627 -2.67921 0
M  V30 1998 C 182.601 4.29952 -1.07964 0
M  V30 1999 H 179.821 0.596094 -0.308079 0
M  V30 2000 H 182.365 1.43205 -1.45988 0
M  V30 2001 H 180.52 3.805 -0.727912 0
M  V30 2002 H 180.934 4.39579 -2.8613 0
M  V30 2003 H 182.408 5.33159 -1.42986 0
M  V30 2004 H 182.885 4.39196 -0.0176577 0
M  V30 2005 H 183.491 3.93036 -1.62489 0
M  V30 2006 N 181.806 0.884767 1.30421 0
M  V30 2007 C 182.736 0.367574 2.30589 0
M  V30 2008 C 183.717 -0.549464 1.60981 0
M  V30 2009 O 184.902 -0.46336 1.88591 0
M  V30 2010 C 182.032 -0.418944 3.44764 0
M  V30 2011 C 180.986 0.406316 4.26067 0
M  V30 2012 C 180.312 -0.506793 5.32293 0
M  V30 2013 C 181.612 1.64832 4.95608 0
M  V30 2014 H 183.306 1.20462 2.74097 0
M  V30 2015 H 180.852 0.580695 1.31772 0
M  V30 2016 H 182.805 -0.791395 4.13902 0
M  V30 2017 H 181.529 -1.28964 3.0006 0
M  V30 2018 H 180.188 0.760903 3.58617 0
M  V30 2019 H 179.836 -1.37519 4.83836 0
M  V30 2020 H 179.536 0.0415828 5.87585 0
M  V30 2021 H 181.06 -0.875764 6.04287 0
M  V30 2022 H 182.474 1.34646 5.57264 0
M  V30 2023 H 180.871 2.13688 5.60765 0
M  V30 2024 H 181.941 2.39284 4.21748 0
M  V30 2025 N 183.284 -1.43765 0.645699 0
M  V30 2026 C 184.194 -2.34544 -0.0512957 0
M  V30 2027 C 185.21 -1.53455 -0.82022 0
M  V30 2028 O 186.386 -1.86133 -0.769176 0
M  V30 2029 C 183.451 -3.31636 -1.01087 0
M  V30 2030 C 182.512 -4.2863 -0.239712 0
M  V30 2031 C 181.745 -5.21084 -1.15358 0
M  V30 2032 O 181.968 -5.1779 -2.39269 0
M  V30 2033 O 180.902 -5.98593 -0.630038 0
M  V30 2034 H 184.728 -2.95624 0.695718 0
M  V30 2035 H 182.313 -1.43781 0.405882 0
M  V30 2036 H 184.195 -3.9136 -1.56254 0
M  V30 2037 H 182.87 -2.73069 -1.73824 0
M  V30 2038 H 181.777 -3.72408 0.355356 0
M  V30 2039 H 183.11 -4.90157 0.447936 0
M  V30 2040 N 184.763 -0.387143 -1.52771 0
M  V30 2041 C 186.009 0.196025 -2.0185 0
M  V30 2042 C 186.342 1.46641 -1.27319 0
M  V30 2043 O 185.617 1.90889 -0.373032 0
M  V30 2044 C 185.9 0.466136 -3.5707 0
M  V30 2045 C 185.753 -0.819385 -4.42274 0
M  V30 2046 C 187.072 1.25768 -4.21747 0
M  V30 2047 H 184.191 0.0697708 -0.73369 0
M  V30 2048 H 186.833 -0.516286 -1.82851 0
M  V30 2049 H 184.983 1.07293 -3.7339 0
M  V30 2050 H 186.655 -1.4563 -4.37709 0
M  V30 2051 H 184.898 -1.43517 -4.09372 0
M  V30 2052 H 185.569 -0.585065 -5.48891 0
M  V30 2053 H 188.045 0.744167 -4.09391 0
M  V30 2054 H 186.921 1.41541 -5.30337 0
M  V30 2055 H 187.182 2.27228 -3.79236 0
M  V30 2056 N 186.241 1.57166 -0.116904 0
M  V30 2057 C 187.174 2.10912 0.871291 0
M  V30 2058 C 188.152 1.025 1.26224 0
M  V30 2059 O 189.336 1.3014 1.36366 0
M  V30 2060 C 186.463 2.6041 2.16574 0
M  V30 2061 C 185.509 3.80687 1.92302 0
M  V30 2062 S 186.342 5.23199 1.14119 0
M  V30 2063 C 187.498 5.76064 2.44748 0
M  V30 2064 H 187.731 2.94401 0.414138 0
M  V30 2065 H 185.264 1.54096 0.096829 0
M  V30 2066 H 187.222 2.89583 2.9095 0
M  V30 2067 H 185.883 1.77106 2.59408 0
M  V30 2068 H 185.076 4.13462 2.8821 0
M  V30 2069 H 184.678 3.5212 1.26047 0
M  V30 2070 H 186.97 5.8566 3.406 0
M  V30 2071 H 187.913 6.74184 2.16521 0
M  V30 2072 H 188.321 5.04117 2.54019 0
M  V30 2073 N 187.719 -0.156864 1.56817 0
M  V30 2074 C 188.666 -1.19394 1.97519 0
M  V30 2075 C 189.636 -1.4322 0.841265 0
M  V30 2076 O 190.821 -1.55719 1.10255 0
M  V30 2077 C 187.961 -2.52483 2.35258 0
M  V30 2078 C 187.074 -2.35914 3.61896 0
M  V30 2079 C 186.209 -3.61969 3.88782 0
M  V30 2080 C 185.248 -3.40395 5.08722 0
M  V30 2081 N 184.385 -4.58556 5.31668 0
M  V30 2082 H 189.225 -0.839845 2.85921 0
M  V30 2083 H 186.762 -0.403264 1.41464 0
M  V30 2084 H 188.72 -3.30071 2.55165 0
M  V30 2085 H 187.35 -2.85859 1.49949 0
M  V30 2086 H 186.402 -1.49429 3.49821 0
M  V30 2087 H 187.714 -2.15926 4.49641 0
M  V30 2088 H 186.868 -4.47989 4.09135 0
M  V30 2089 H 185.607 -3.84951 2.9944 0
M  V30 2090 H 184.612 -2.52763 4.88253 0
M  V30 2091 H 185.837 -3.18822 5.99608 0
M  V30 2092 H 183.783 -4.81729 4.45279 0
M  V30 2093 H 183.7 -4.41535 6.13664 0
M  V30 2094 H 184.968 -5.45817 5.5651 0
M  V30 2095 N 189.197 -1.51736 -0.425897 0
M  V30 2096 C 190.427 -1.68549 -1.19476 0
M  V30 2097 C 190.835 -0.387288 -1.85194 0
M  V30 2098 O 190.178 0.645142 -1.71999 0
M  V30 2099 C 190.24 -2.75275 -2.31223 0
M  V30 2100 C 189.904 -4.17534 -1.8578 0
M  V30 2101 C 190.901 -5.01936 -1.35485 0
M  V30 2102 C 188.586 -4.6369 -1.93123 0
M  V30 2103 C 190.58 -6.30559 -0.931347 0
M  V30 2104 C 188.267 -5.92307 -1.50384 0
M  V30 2105 C 189.265 -6.75569 -1.00473 0
M  V30 2106 O 188.953 -8.0178 -0.583452 0
M  V30 2107 H 188.685 -0.568525 -0.365725 0
M  V30 2108 H 191.239 -1.98982 -0.509444 0
M  V30 2109 H 189.469 -2.40182 -3.03067 0
M  V30 2110 H 191.158 -2.80853 -2.93047 0
M  V30 2111 H 191.924 -4.67475 -1.29197 0
M  V30 2112 H 187.803 -3.98997 -2.30916 0
M  V30 2113 H 191.347 -6.95498 -0.541084 0
M  V30 2114 H 187.244 -6.2628 -1.56346 0
M  V30 2115 H 188.012 -8.1543 -0.708275 0
M  V30 2116 N 190.675 0.682077 -1.42076 0
M  V30 2117 C 191.922 1.44215 -1.42156 0
M  V30 2118 C 192.25 1.94468 -0.0354186 0
M  V30 2119 O 191.505 1.70816 0.955002 0
M  V30 2120 C 191.804 2.66036 -2.38662 0
M  V30 2121 C 191.47 2.34366 -3.85206 0
M  V30 2122 C 190.132 2.25439 -4.25124 0
M  V30 2123 C 192.484 2.08513 -4.77673 0
M  V30 2124 C 189.812 1.88775 -5.55501 0
M  V30 2125 C 192.164 1.73354 -6.08384 0
M  V30 2126 C 190.828 1.62933 -6.47309 0
M  V30 2127 H 190.098 0.527718 -0.520187 0
M  V30 2128 H 192.745 0.778387 -1.74967 0
M  V30 2129 H 191.05 3.3741 -1.99152 0
M  V30 2130 H 192.747 3.24205 -2.35991 0
M  V30 2131 H 189.337 2.42213 -3.53597 0
M  V30 2132 H 193.521 2.14346 -4.47626 0
M  V30 2133 H 188.777 1.7927 -5.84527 0
M  V30 2134 H 192.951 1.52373 -6.79526 0
M  V30 2135 H 190.578 1.34292 -7.48244 0
M  V30 2136 N 192.153 1.28127 0.917671 0
M  V30 2137 C 193.103 1.08361 2.00604 0
M  V30 2138 C 194.087 0.00847518 1.60898 0
M  V30 2139 O 195.279 0.228167 1.75523 0
M  V30 2140 C 192.408 0.743376 3.35155 0
M  V30 2141 C 191.494 1.85716 3.81275 0
M  V30 2142 N 191.885 3.09822 3.99805 0
M  V30 2143 C 190.183 1.74612 4.10398 0
M  V30 2144 C 190.884 3.82368 4.38372 0
M  V30 2145 N 189.86 3.10192 4.4641 0
M  V30 2146 H 193.662 2.02531 2.12975 0
M  V30 2147 H 191.176 1.18989 1.10523 0
M  V30 2148 H 193.173 0.582859 4.12805 0
M  V30 2149 H 191.833 -0.190595 3.2414 0
M  V30 2150 H 192.844 3.45475 3.85833 0
M  V30 2151 H 189.521 0.883657 4.08041 0
M  V30 2152 H 190.911 4.89082 4.60704 0
M  V30 2153 N 193.631 -1.12557 1.10312 0
M  V30 2154 C 194.856 -1.88405 0.867085 0
M  V30 2155 C 195.281 -1.79038 -0.576817 0
M  V30 2156 O 194.639 -1.14439 -1.40618 0
M  V30 2157 C 194.687 -3.3563 1.31851 0
M  V30 2158 O 193.791 -4.09565 0.482734 0
M  V30 2159 H 193.132 -0.585455 0.313271 0
M  V30 2160 H 195.662 -1.42352 1.4696 0
M  V30 2161 H 195.672 -3.86469 1.3079 0
M  V30 2162 H 194.347 -3.41765 2.37001 0
M  V30 2163 H 192.924 -3.68695 0.558448 0
M  V30 2164 N 195.109 -0.891671 -1.2995 0
M  V30 2165 C 196.525 -0.58662 -1.48428 0
M  V30 2166 C 196.725 0.873951 -1.81561 0
M  V30 2167 O 195.781 1.65471 -1.90724 0
M  V30 2168 C 197.094 -1.50553 -2.60296 0
M  V30 2169 C 198.642 -1.50988 -2.74175 0
M  V30 2170 C 199.117 -2.41488 -3.89163 0
M  V30 2171 N 200.608 -2.39489 -3.96483 0
M  V30 2172 C 201.343 -3.06223 -4.84784 0
M  V30 2173 N 200.839 -3.82206 -5.77833 0
M  V30 2174 N 202.632 -2.95421 -4.78208 0
M  V30 2175 H 194.783 -1.83644 -1.06718 0
M  V30 2176 H 197.046 -0.786455 -0.529332 0
M  V30 2177 H 196.752 -2.54581 -2.42654 0
M  V30 2178 H 196.626 -1.22008 -3.56923 0
M  V30 2179 H 199.013 -0.47708 -2.91218 0
M  V30 2180 H 199.094 -1.83567 -1.78148 0
M  V30 2181 H 198.738 -3.44857 -3.72876 0
M  V30 2182 H 198.668 -2.06222 -4.84541 0
M  V30 2183 H 201.159 -1.84278 -3.29924 0
M  V30 2184 H 201.472 -4.302 -6.41988 0
M  V30 2185 H 199.817 -3.86313 -5.77743 0
M  V30 2186 H 203.008 -2.35581 -4.04499 0
M  V30 2187 H 203.181 -3.47704 -5.46814 0
M  V30 2188 N 196.587 1.43421 -0.653314 0
M  V30 2189 C 197.998 1.85065 -0.246537 0
M  V30 2190 C 198.349 1.54688 1.2069 0
M  V30 2191 O 197.474 0.995896 1.92122 0
M  V30 2192 C 198.069 3.35922 -0.440666 0
M  V30 2193 C 196.628 3.76297 -0.0882064 0
M  V30 2194 C 195.775 2.67147 -0.743484 0
M  V30 2195 H 198.726 1.33572 -0.856979 0
M  V30 2196 H 198.747 3.79204 0.313798 0
M  V30 2197 H 198.259 3.58 -1.49858 0
M  V30 2198 H 196.36 3.5983 0.96711 0
M  V30 2199 H 196.473 4.76338 -0.513738 0
M  V30 2200 H 194.837 2.54086 -0.176712 0
M  V30 2201 H 195.62 2.92053 -1.80443 0
M  V30 2202 N 198.065 0.39524 1.52563 0
M  V30 2203 C 199.481 0.0454682 1.59535 0
M  V30 2204 C 199.681 -1.44056 1.4089 0
M  V30 2205 O 198.737 -2.20579 1.22888 0
M  V30 2206 C 200.05 0.527963 2.96029 0
M  V30 2207 C 201.598 0.484733 3.09224 0
M  V30 2208 C 202.073 0.943512 4.48176 0
M  V30 2209 N 203.564 0.899765 4.54377 0
M  V30 2210 C 204.299 1.22609 5.60138 0
M  V30 2211 N 203.795 1.62319 6.73516 0
M  V30 2212 N 205.588 1.14696 5.50274 0
M  V30 2213 H 197.739 1.36261 1.62931 0
M  V30 2214 H 200.002 0.558887 0.765735 0
M  V30 2215 H 199.708 1.56607 3.14908 0
M  V30 2216 H 199.582 -0.0698056 3.77135 0
M  V30 2217 H 201.969 -0.544298 2.90037 0
M  V30 2218 H 202.05 1.11838 2.30056 0
M  V30 2219 H 201.694 1.9708 4.68104 0
M  V30 2220 H 201.624 0.286817 5.25818 0
M  V30 2221 H 204.115 0.607632 3.72983 0
M  V30 2222 H 204.428 1.85567 7.5019 0
M  V30 2223 H 202.773 1.66211 6.74833 0
M  V30 2224 H 205.964 0.835701 4.6058 0
M  V30 2225 H 206.137 1.40459 6.32594 0
M  V30 2226 N 199.544 -1.57102 0.125237 0
M  V30 2227 C 200.821 -1.86953 -0.575142 0
M  V30 2228 C 201.201 -1.02749 -1.84407 0
M  V30 2229 O 200.549 -0.108144 -2.28244 0
M  V30 2230 C 200.759 -3.38198 -0.861583 0
M  V30 2231 C 202.107 -4.06937 -1.21192 0
M  V30 2232 O 203.131 -3.43252 -0.951645 0
M  V30 2233 O 201.99 -5.19364 -1.70068 0
M  V30 2234 H 199.084 -0.774147 -0.290906 0
M  V30 2235 H 201.63 -1.68942 0.160211 0
M  V30 2236 H 200.402 -3.91282 0.0373647 0
M  V30 2237 H 200.025 -3.61661 -1.65188 0
M  V30 2238 N 201.022 0.148545 -1.56898 0
M  V30 2239 C 202.247 0.880385 -1.87787 0
M  V30 2240 C 202.672 1.74018 -0.714093 0
M  V30 2241 O 202.03 1.78153 0.336343 0
M  V30 2242 C 202.078 1.71422 -3.17249 0
M  V30 2243 O 201.182 2.8183 -3.01074 0
M  V30 2244 H 200.523 0.245301 -0.617028 0
M  V30 2245 H 203.053 0.139826 -2.04122 0
M  V30 2246 H 203.063 2.10954 -3.49231 0
M  V30 2247 H 201.738 1.08284 -4.01556 0
M  V30 2248 H 200.315 2.45715 -2.80497 0
M  V30 2249 N 202.5 1.5196 0.417844 0
M  V30 2250 C 203.432 1.70895 1.52733 0
M  V30 2251 C 204.445 0.589405 1.51756 0
M  V30 2252 O 205.634 0.864312 1.56179 0
M  V30 2253 C 202.734 1.72627 2.91639 0
M  V30 2254 C 201.907 3.01479 3.16905 0
M  V30 2255 C 200.966 2.95139 4.35637 0
M  V30 2256 O 199.992 3.69059 4.3334 0
M  V30 2257 N 201.194 2.12328 5.40275 0
M  V30 2258 H 203.959 2.66612 1.36888 0
M  V30 2259 H 201.52 1.50089 0.607037 0
M  V30 2260 H 203.512 1.65928 3.6912 0
M  V30 2261 H 202.082 0.844216 3.00985 0
M  V30 2262 H 201.302 3.21895 2.27546 0
M  V30 2263 H 202.59 3.86736 3.30625 0
M  V30 2264 H 201.988 1.51685 5.44985 0
M  V30 2265 H 200.545 2.11494 6.16534 0
M  V30 2266 N 203.978 -0.674533 1.42435 0
M  V30 2267 C 205.227 -1.43034 1.42212 0
M  V30 2268 C 205.54 -1.95555 0.0420788 0
M  V30 2269 O 206.746 -2.71374 -0.0827558 0
M  V30 2270 C 205.202 -2.58748 2.50155 0
M  V30 2271 C 204.81 -2.12925 3.94166 0
M  V30 2272 C 206.554 -3.36257 2.59098 0
M  V30 2273 C 204.461 -3.25723 4.93618 0
M  V30 2274 H 203.391 -0.537345 0.528939 0
M  V30 2275 H 206.042 -0.73024 1.68344 0
M  V30 2276 H 204.424 -3.31128 2.17188 0
M  V30 2277 H 205.598 -1.47697 4.36488 0
M  V30 2278 H 203.913 -1.48354 3.89076 0
M  V30 2279 H 206.51 -4.20264 3.30578 0
M  V30 2280 H 206.853 -3.82866 1.63461 0
M  V30 2281 H 207.386 -2.70947 2.9126 0
M  V30 2282 H 204.125 -2.84105 5.90732 0
M  V30 2283 H 203.645 -3.89732 4.55926 0
M  V30 2284 H 205.324 -3.91186 5.15347 0
M  V30 2285 N 205.456 -1.28612 -0.910864 0
M  V30 2286 C 206.704 -1.15705 -1.65701 0
M  V30 2287 C 207.025 0.29416 -1.92769 0
M  V30 2288 O 206.295 1.20331 -1.54588 0
M  V30 2289 H 204.875 -0.425216 -0.614167 0
M  V30 2290 H 207.537 -1.61381 -1.0928 0
M  V30 2291 H 206.633 -1.6988 -2.61815 0
M  V30 2292 N 206.934 1.1197 -1.10907 0
M  V30 2293 C 207.897 2.16031 -0.765707 0
M  V30 2294 C 208.897 1.59393 0.212235 0
M  V30 2295 O 210.087 1.74196 -0.0115441 0
M  V30 2296 C 207.219 3.40632 -0.135053 0
M  V30 2297 H 208.412 2.47919 -1.68748 0
M  V30 2298 H 205.965 1.27061 -0.910226 0
M  V30 2299 H 206.7 3.14348 0.797218 0
M  V30 2300 H 206.485 3.8302 -0.838937 0
M  V30 2301 H 207.975 4.17505 0.0892469 0
M  V30 2302 N 208.412 0.89855 1.29475 0
M  V30 2303 C 209.658 0.534065 1.96263 0
M  V30 2304 C 210.013 -0.909415 1.69551 0
M  V30 2305 O 209.306 -1.63596 0.997349 0
M  V30 2306 C 209.5 0.761398 3.49195 0
M  V30 2307 C 209.329 2.22542 3.90775 0
M  V30 2308 C 208.099 2.87264 4.15701 0
M  V30 2309 C 210.297 3.20051 4.02581 0
M  V30 2310 N 208.279 4.24121 4.4384 0
M  V30 2311 C 209.65 4.42023 4.34759 0
M  V30 2312 C 211.705 3.15657 3.85052 0
M  V30 2313 C 210.408 5.60161 4.51235 0
M  V30 2314 C 212.434 4.33078 4.02737 0
M  V30 2315 C 211.796 5.5382 4.35273 0
M  V30 2316 H 207.895 0.245013 0.742625 0
M  V30 2317 H 210.479 1.15912 1.56437 0
M  V30 2318 H 208.65 0.165732 3.88046 0
M  V30 2319 H 210.382 0.362462 4.03074 0
M  V30 2320 H 207.137 2.38064 4.09417 0
M  V30 2321 H 207.561 4.94839 4.6202 0
M  V30 2322 H 212.203 2.23396 3.58962 0
M  V30 2323 H 209.921 6.52913 4.76162 0
M  V30 2324 H 213.507 4.31163 3.90628 0
M  V30 2325 H 212.387 6.43166 4.48672 0
M  V30 2326 N 209.89 -1.43072 0.660911 0
M  V30 2327 C 211.136 -2.0202 0.177708 0
M  V30 2328 C 211.469 -1.52066 -1.20787 0
M  V30 2329 O 210.744 -0.716987 -1.80802 0
M  V30 2330 C 211.027 -3.59561 0.197019 0
M  V30 2331 C 210.88 -4.19727 1.61706 0
M  V30 2332 C 212.199 -4.37664 -0.462396 0
M  V30 2333 H 209.318 -0.734034 0.0660494 0
M  V30 2334 H 211.96 -1.70272 0.843058 0
M  V30 2335 H 210.11 -3.86739 -0.369527 0
M  V30 2336 H 211.782 -4.03553 2.23479 0
M  V30 2337 H 210.025 -3.76084 2.16201 0
M  V30 2338 H 210.696 -5.28834 1.58237 0
M  V30 2339 H 213.172 -4.16095 0.0197215 0
M  V30 2340 H 212.048 -5.47305 -0.418188 0
M  V30 2341 H 212.309 -4.14493 -1.53778 0
M  V30 2342 N 211.368 -0.403325 -1.52352 0
M  V30 2343 C 212.593 0.176499 -2.06648 0
M  V30 2344 C 213.018 1.38577 -1.27193 0
M  V30 2345 O 212.376 1.7879 -0.300637 0
M  V30 2346 C 212.424 0.511061 -3.5696 0
M  V30 2347 O 211.528 1.60294 -3.79973 0
M  V30 2348 H 210.869 0.0167337 -0.663789 0
M  V30 2349 H 213.399 -0.574848 -1.96359 0
M  V30 2350 H 213.409 0.771362 -4.00642 0
M  V30 2351 H 212.084 -0.37296 -4.14224 0
M  V30 2352 H 210.661 1.33526 -3.48174 0
M  V30 2353 N 212.846 1.57033 -0.133567 0
M  V30 2354 C 213.793 2.16074 0.811208 0
M  V30 2355 C 214.763 1.08979 1.2535 0
M  V30 2356 O 215.948 1.36958 1.32843 0
M  V30 2357 C 213.088 2.77595 2.05024 0
M  V30 2358 C 212.201 3.99042 1.65498 0
M  V30 2359 C 211.336 4.48603 2.84479 0
M  V30 2360 C 210.375 5.62547 2.41262 0
M  V30 2361 N 209.512 6.06787 3.53206 0
M  V30 2362 H 214.352 2.96477 0.300906 0
M  V30 2363 H 211.889 1.46462 0.136822 0
M  V30 2364 H 213.847 3.11402 2.77642 0
M  V30 2365 H 212.477 1.99859 2.53488 0
M  V30 2366 H 211.529 3.71302 0.826981 0
M  V30 2367 H 212.841 4.81629 1.29748 0
M  V30 2368 H 211.995 4.84395 3.65303 0
M  V30 2369 H 210.734 3.64995 3.23465 0
M  V30 2370 H 209.739 5.26345 1.58874 0
M  V30 2371 H 210.964 6.47931 2.03377 0
M  V30 2372 H 208.91 5.26117 3.91838 0
M  V30 2373 H 208.827 6.84266 3.21427 0
M  V30 2374 H 210.095 6.4722 4.34427 0
M  V30 2375 N 214.325 -0.140222 1.56975 0
M  V30 2376 C 215.257 -1.19818 1.95388 0
M  V30 2377 C 216.27 -1.38816 0.850525 0
M  V30 2378 O 217.459 -1.38267 1.12891 0
M  V30 2379 C 214.559 -2.56189 2.21857 0
M  V30 2380 C 213.732 -2.58077 3.5315 0
M  V30 2381 C 212.791 -3.76037 3.6808 0
M  V30 2382 O 211.817 -3.60598 4.40406 0
M  V30 2383 N 213.019 -4.93763 3.05251 0
M  V30 2384 H 215.784 -0.871609 2.86746 0
M  V30 2385 H 213.345 -0.32972 1.58507 0
M  V30 2386 H 215.337 -3.33623 2.2908 0
M  V30 2387 H 213.907 -2.81111 1.36731 0
M  V30 2388 H 213.127 -1.6651 3.57307 0
M  V30 2389 H 214.415 -2.56377 4.39486 0
M  V30 2390 H 213.813 -5.09209 2.46419 0
M  V30 2391 H 212.37 -5.68949 3.18026 0
M  V30 2392 N 215.803 -1.52179 -0.40978 0
M  V30 2393 C 217.028 -1.70347 -1.18308 0
M  V30 2394 C 217.453 -0.411887 -1.83535 0
M  V30 2395 O 216.811 0.630587 -1.6998 0
M  V30 2396 C 216.859 -2.83977 -2.22238 0
M  V30 2397 O 215.963 -2.495 -3.28365 0
M  V30 2398 H 215.304 -0.567103 -0.345384 0
M  V30 2399 H 217.834 -1.98879 -0.480445 0
M  V30 2400 H 217.844 -3.0887 -2.66577 0
M  V30 2401 H 216.519 -3.77685 -1.74146 0
M  V30 2402 H 215.096 -2.35277 -2.89308 0
M  V30 2403 N 217.281 0.66697 -1.42791 0
M  V30 2404 C 218.506 1.46004 -1.47301 0
M  V30 2405 C 218.931 1.87894 -0.0880317 0
M  V30 2406 O 218.289 1.56502 0.915253 0
M  V30 2407 C 218.337 2.68031 -2.41229 0
M  V30 2408 O 217.441 3.6659 -1.88906 0
M  V30 2409 H 216.782 0.43832 -0.49877 0
M  V30 2410 H 219.312 0.817391 -1.87563 0
M  V30 2411 H 219.322 3.1601 -2.58073 0
M  V30 2412 H 217.997 2.36883 -3.41847 0
M  V30 2413 H 216.574 3.25661 -1.81656 0
M  V30 2414 N 218.759 1.29093 0.90403 0
M  V30 2415 C 220.175 1.07011 1.1841 0
M  V30 2416 C 220.375 -0.181358 2.00682 0
M  V30 2417 O 219.431 -0.880331 2.36657 0
M  V30 2418 C 220.744 2.32311 1.90924 0
M  V30 2419 C 222.292 2.37587 2.03768 0
M  V30 2420 C 222.767 3.62679 2.79693 0
M  V30 2421 N 224.258 3.63376 2.87249 0
M  V30 2422 C 224.993 4.56848 3.46522 0
M  V30 2423 N 224.489 5.60648 4.06996 0
M  V30 2424 N 226.282 4.44426 3.44154 0
M  V30 2425 H 218.433 2.09412 0.354993 0
M  V30 2426 H 220.696 0.922181 0.219742 0
M  V30 2427 H 220.402 3.23536 1.37905 0
M  V30 2428 H 220.276 2.39483 2.91424 0
M  V30 2429 H 222.663 1.46853 2.55965 0
M  V30 2430 H 222.744 2.34403 1.02415 0
M  V30 2431 H 222.388 4.53762 2.28173 0
M  V30 2432 H 222.318 3.63119 3.81381 0
M  V30 2433 H 224.809 2.88321 2.44293 0
M  V30 2434 H 225.122 6.28101 4.50232 0
M  V30 2435 H 223.467 5.64463 4.05471 0
M  V30 2436 H 226.658 3.62529 2.96126 0
M  V30 2437 H 226.831 5.17457 3.90054 0
M  V30 2438 N 220.237 -1.11381 1.11499 0
M  V30 2439 C 221.486 -1.82494 0.858993 0
M  V30 2440 C 221.799 -1.85605 -0.617278 0
M  V30 2441 O 223.005 -2.52824 -0.989552 0
M  V30 2442 C 221.461 -3.27745 1.48699 0
M  V30 2443 C 221.069 -3.32961 2.99735 0
M  V30 2444 C 222.813 -4.03754 1.31085 0
M  V30 2445 C 220.72 -4.72612 3.55516 0
M  V30 2446 H 219.65 -0.683802 0.317696 0
M  V30 2447 H 222.301 -1.25331 1.34031 0
M  V30 2448 H 220.683 -3.84844 0.933339 0
M  V30 2449 H 221.857 -2.85741 3.61509 0
M  V30 2450 H 220.172 -2.70433 3.16631 0
M  V30 2451 H 222.769 -5.06891 1.70192 0
M  V30 2452 H 223.112 -4.15527 0.253496 0
M  V30 2453 H 223.645 -3.53043 1.83318 0
M  V30 2454 H 220.384 -4.66036 4.60967 0
M  V30 2455 H 219.904 -5.2024 2.98513 0
M  V30 2456 H 221.583 -5.4157 3.53992 0
M  V30 2457 N 221.715 -0.905404 -1.28997 0
M  V30 2458 C 222.94 -0.549175 -1.99997 0
M  V30 2459 C 223.365 0.860276 -1.67275 0
M  V30 2460 O 222.723 1.57355 -0.900502 0
M  V30 2461 C 222.771 -0.755185 -3.52604 0
M  V30 2462 O 221.875 0.189692 -4.11964 0
M  V30 2463 H 221.216 -0.213899 -0.628604 0
M  V30 2464 H 223.746 -1.21856 -1.64354 0
M  V30 2465 H 223.756 -0.662045 -4.02593 0
M  V30 2466 H 222.431 -1.78271 -3.75755 0
M  V30 2467 H 221.008 0.0485257 -3.72868 0
M  V30 2468 N 223.193 1.4272 -0.668489 0
M  V30 2469 C 224.156 2.292 0.00448567 0
M  V30 2470 C 225.156 1.43001 0.735339 0
M  V30 2471 O 226.346 1.64461 0.57429 0
M  V30 2472 C 223.478 3.25375 1.01705 0
M  V30 2473 H 224.671 2.90199 -0.756608 0
M  V30 2474 H 222.224 1.50254 -0.430506 0
M  V30 2475 H 222.959 2.69301 1.80686 0
M  V30 2476 H 222.744 3.88944 0.496463 0
M  V30 2477 H 224.234 3.90245 1.48655 0
M  V30 2478 N 224.671 0.411399 1.52136 0
M  V30 2479 C 226.087 0.0623865 1.59478 0
M  V30 2480 C 226.287 -1.42554 1.4241 0
M  V30 2481 O 225.343 -2.19263 1.2522 0
M  V30 2482 C 226.656 0.559331 2.95452 0
M  V30 2483 C 228.204 0.517503 3.08692 0
M  V30 2484 C 228.679 0.990994 4.4715 0
M  V30 2485 N 230.17 0.947908 4.53397 0
M  V30 2486 C 230.905 1.28544 5.58806 0
M  V30 2487 N 230.401 1.69454 6.71757 0
M  V30 2488 N 232.194 1.20526 5.49026 0
M  V30 2489 H 224.345 1.37982 1.61477 0
M  V30 2490 H 226.608 0.566977 0.759764 0
M  V30 2491 H 226.314 1.59938 3.1323 0
M  V30 2492 H 226.188 -0.0298014 3.77188 0
M  V30 2493 H 228.575 -0.513505 2.90598 0
M  V30 2494 H 228.656 1.14272 2.28857 0
M  V30 2495 H 228.3 2.02034 4.65988 0
M  V30 2496 H 228.23 0.34257 5.25485 0
M  V30 2497 H 230.721 0.647157 3.72317 0
M  V30 2498 H 231.034 1.93513 7.48179 0
M  V30 2499 H 229.379 1.73359 6.73032 0
M  V30 2500 H 232.57 0.884505 4.59667 0
M  V30 2501 H 232.743 1.47161 6.31069 0
M  V30 2502 N 226.149 -1.5696 0.141893 0
M  V30 2503 C 227.397 -1.95573 -0.509484 0
M  V30 2504 C 227.718 -1.02746 -1.65736 0
M  V30 2505 O 226.988 -0.0880311 -1.95702 0
M  V30 2506 H 225.568 -0.722115 -0.191205 0
M  V30 2507 H 228.23 -1.93697 0.216196 0
M  V30 2508 H 227.326 -2.99171 -0.889 0
M  V30 2509 N 227.627 0.131896 -1.57047 0
M  V30 2510 C 228.876 0.84044 -1.83356 0
M  V30 2511 C 229.189 1.81646 -0.725535 0
M  V30 2512 O 230.395 2.57025 -0.874659 0
M  V30 2513 C 228.851 1.54528 -3.25037 0
M  V30 2514 C 228.459 0.610902 -4.43815 0
M  V30 2515 C 230.203 2.23972 -3.60606 0
M  V30 2516 C 228.11 1.31823 -5.76521 0
M  V30 2517 H 227.04 0.317599 -0.683847 0
M  V30 2518 H 229.691 0.0931561 -1.83263 0
M  V30 2519 H 228.073 2.33873 -3.19561 0
M  V30 2520 H 229.247 -0.148407 -4.60561 0
M  V30 2521 H 227.562 0.0241016 -4.16393 0
M  V30 2522 H 230.159 2.77558 -4.57018 0
M  V30 2523 H 230.502 3.01173 -2.87403 0
M  V30 2524 H 231.035 1.51529 -3.6781 0
M  V30 2525 H 227.774 0.587771 -6.52859 0
M  V30 2526 H 227.294 2.04987 -5.63685 0
M  V30 2527 H 228.973 1.855 -6.19838 0
M  V30 2528 N 229.106 1.52395 0.401703 0
M  V30 2529 C 230.036 1.79231 1.49661 0
M  V30 2530 C 231.017 0.643654 1.57452 0
M  V30 2531 O 232.202 0.889989 1.72606 0
M  V30 2532 C 229.332 1.94971 2.87409 0
M  V30 2533 C 228.286 3.10604 2.94465 0
M  V30 2534 C 227.612 3.11577 4.34538 0
M  V30 2535 C 228.912 4.49921 2.6527 0
M  V30 2536 H 230.606 2.70917 1.27454 0
M  V30 2537 H 228.152 1.30362 0.6117 0
M  V30 2538 H 230.105 2.12328 3.63999 0
M  V30 2539 H 228.829 0.999632 3.10926 0
M  V30 2540 H 227.488 2.93009 2.20321 0
M  V30 2541 H 227.136 2.14277 4.55076 0
M  V30 2542 H 226.836 3.89247 4.40183 0
M  V30 2543 H 228.36 3.31073 5.13053 0
M  V30 2544 H 229.774 4.67683 3.31581 0
M  V30 2545 H 228.171 5.29564 2.82281 0
M  V30 2546 H 229.241 4.57507 1.60671 0
M  V30 2547 N 230.584 -0.659388 1.43143 0
M  V30 2548 C 231.494 -1.80167 1.50256 0
M  V30 2549 C 232.51 -1.69571 0.390106 0
M  V30 2550 O 233.686 -1.90849 0.643319 0
M  V30 2551 C 230.751 -3.16409 1.41725 0
M  V30 2552 C 229.812 -3.38848 2.63591 0
M  V30 2553 C 229.045 -4.68591 2.55458 0
M  V30 2554 O 229.268 -5.47532 1.59891 0
M  V30 2555 O 228.202 -4.92614 3.45854 0
M  V30 2556 H 232.028 -1.77121 2.46702 0
M  V30 2557 H 229.613 -0.817092 1.25076 0
M  V30 2558 H 231.495 -3.9768 1.39387 0
M  V30 2559 H 230.17 -3.20059 0.484118 0
M  V30 2560 H 229.077 -2.57366 2.71502 0
M  V30 2561 H 230.41 -3.4004 3.55856 0
M  V30 2562 N 232.062 -1.29571 -0.897171 0
M  V30 2563 C 233.287 -1.20705 -1.68656 0
M  V30 2564 C 233.712 0.228582 -1.86706 0
M  V30 2565 O 233.07 1.16494 -1.3892 0
M  V30 2566 C 233.118 -1.9282 -3.04717 0
M  V30 2567 O 232.222 -1.24697 -3.93096 0
M  V30 2568 H 231.563 -0.418126 -0.515816 0
M  V30 2569 H 234.093 -1.71183 -1.12061 0
M  V30 2570 H 234.103 -2.01372 -3.54843 0
M  V30 2571 H 232.778 -2.97239 -2.90899 0
M  V30 2572 H 231.355 -1.2442 -3.51531 0
M  V30 2573 N 233.54 1.10788 -1.12088 0
M  V30 2574 C 234.487 2.17025 -0.785407 0
M  V30 2575 C 235.457 1.64265 0.246191 0
M  V30 2576 O 236.642 1.90412 0.121584 0
M  V30 2577 C 233.782 3.44249 -0.242177 0
M  V30 2578 C 232.895 4.1098 -1.33115 0
M  V30 2579 C 232.03 5.25911 -0.747741 0
M  V30 2580 C 231.069 5.84538 -1.81609 0
M  V30 2581 N 230.206 6.90853 -1.25167 0
M  V30 2582 H 235.046 2.45066 -1.69548 0
M  V30 2583 H 232.583 1.20297 -0.846582 0
M  V30 2584 H 234.541 4.17101 0.0908026 0
M  V30 2585 H 233.171 3.16571 0.631072 0
M  V30 2586 H 232.223 3.36133 -1.78097 0
M  V30 2587 H 233.535 4.50601 -2.13917 0
M  V30 2588 H 232.689 6.056 -0.365216 0
M  V30 2589 H 231.428 4.87614 0.0915188 0
M  V30 2590 H 230.433 5.03522 -2.20785 0
M  V30 2591 H 231.658 6.249 -2.6585 0
M  V30 2592 H 229.604 6.54562 -0.434174 0
M  V30 2593 H 229.521 7.29166 -1.99633 0
M  V30 2594 H 230.789 7.7433 -0.896259 0
M  V30 2595 N 235.018 0.912232 1.28515 0
M  V30 2596 C 236.265 0.544599 1.95039 0
M  V30 2597 C 236.593 -0.911435 1.71823 0
M  V30 2598 O 235.848 -1.66317 1.03137 0
M  V30 2599 C 236.147 0.798392 3.48368 0
M  V30 2600 C 235.813 2.23374 3.91682 0
M  V30 2601 C 234.475 2.62617 4.03219 0
M  V30 2602 C 236.827 3.16786 4.13879 0
M  V30 2603 C 234.155 3.94429 4.3433 0
M  V30 2604 C 236.507 4.48161 4.46469 0
M  V30 2605 C 235.171 4.8726 4.56217 0
M  V30 2606 H 234.441 0.199283 0.7137 0
M  V30 2607 H 237.088 1.15327 1.52879 0
M  V30 2608 H 235.393 0.106908 3.91654 0
M  V30 2609 H 237.09 0.493141 3.97956 0
M  V30 2610 H 233.68 1.91922 3.83228 0
M  V30 2611 H 237.864 2.87677 4.0442 0
M  V30 2612 H 233.12 4.24426 4.40082 0
M  V30 2613 H 237.294 5.20559 4.62592 0
M  V30 2614 H 234.921 5.89431 4.80078 0
M  V30 2615 N 236.496 -1.42363 0.676048 0
M  V30 2616 C 237.426 -2.33497 0.0124832 0
M  V30 2617 C 238.407 -1.50748 -0.787981 0
M  V30 2618 O 239.592 -1.79346 -0.744884 0
M  V30 2619 C 236.722 -3.34377 -0.938582 0
M  V30 2620 C 235.676 -4.27289 -0.246622 0
M  V30 2621 C 235.002 -5.18386 -1.31071 0
M  V30 2622 C 236.302 -5.14916 0.875125 0
M  V30 2623 H 237.996 -2.89233 0.773593 0
M  V30 2624 H 235.542 -1.39073 0.37346 0
M  V30 2625 H 237.495 -3.97044 -1.41188 0
M  V30 2626 H 236.219 -2.76947 -1.73113 0
M  V30 2627 H 234.878 -3.66018 0.206456 0
M  V30 2628 H 234.526 -4.57282 -2.09528 0
M  V30 2629 H 234.226 -5.81378 -0.852839 0
M  V30 2630 H 235.75 -5.83929 -1.78492 0
M  V30 2631 H 237.164 -5.71262 0.482983 0
M  V30 2632 H 235.561 -5.86747 1.25887 0
M  V30 2633 H 236.631 -4.53242 1.72335 0
M  V30 2634 N 237.974 -0.419461 -1.51915 0
M  V30 2635 C 238.884 0.407528 -2.31033 0
M  V30 2636 C 239.9 1.04413 -1.3919 0
M  V30 2637 O 241.076 1.0434 -1.72265 0
M  V30 2638 C 238.141 1.50365 -3.12396 0
M  V30 2639 C 237.202 0.889029 -4.19994 0
M  V30 2640 C 236.435 1.93291 -4.97468 0
M  V30 2641 O 236.658 3.15259 -4.75361 0
M  V30 2642 O 235.592 1.53339 -5.8204 0
M  V30 2643 H 239.418 -0.237865 -3.02767 0
M  V30 2644 H 237.003 -0.182413 -1.48282 0
M  V30 2645 H 238.885 2.13975 -3.63032 0
M  V30 2646 H 237.56 2.13345 -2.43445 0
M  V30 2647 H 236.467 0.215353 -3.7348 0
M  V30 2648 H 237.8 0.302991 -4.91267 0
M  V30 2649 N 239.452 1.56882 -0.150215 0
M  V30 2650 C 240.382 2.19935 0.784284 0
M  V30 2651 C 241.363 1.14854 1.25469 0
M  V30 2652 O 242.548 1.43209 1.31168 0
M  V30 2653 C 239.678 2.82349 2.02229 0
M  V30 2654 C 238.632 3.93285 1.68853 0
M  V30 2655 C 237.958 4.42649 2.99944 0
M  V30 2656 C 239.258 5.13904 0.932714 0
M  V30 2657 H 240.952 2.9828 0.258781 0
M  V30 2658 H 238.498 1.43473 0.123029 0
M  V30 2659 H 240.451 3.25126 2.68088 0
M  V30 2660 H 239.175 2.0134 2.57157 0
M  V30 2661 H 237.834 3.5113 1.05371 0
M  V30 2662 H 237.482 3.58458 3.52869 0
M  V30 2663 H 237.182 5.17476 2.78374 0
M  V30 2664 H 238.706 4.88099 3.66868 0
M  V30 2665 H 240.12 5.53506 1.49345 0
M  V30 2666 H 238.517 5.94515 0.81684 0
M  V30 2667 H 239.587 4.84842 -0.0749568 0
M  V30 2668 N 240.93 -0.123565 1.57115 0
M  V30 2669 C 241.877 -1.15177 2.00007 0
M  V30 2670 C 242.847 -1.41403 0.871454 0
M  V30 2671 O 244.032 -1.53346 1.13533 0
M  V30 2672 C 241.172 -2.47436 2.40561 0
M  V30 2673 C 240.285 -2.28184 3.66819 0
M  V30 2674 C 239.42 -3.53641 3.96373 0
M  V30 2675 C 238.459 -3.29528 5.15827 0
M  V30 2676 N 237.596 -4.47175 5.41275 0
M  V30 2677 H 242.436 -0.779008 2.87638 0
M  V30 2678 H 239.973 -0.373166 1.42288 0
M  V30 2679 H 241.931 -3.24584 2.62109 0
M  V30 2680 H 240.561 -2.82614 1.55978 0
M  V30 2681 H 239.613 -1.41976 3.52912 0
M  V30 2682 H 240.925 -2.0634 4.5412 0
M  V30 2683 H 240.079 -4.39209 4.18545 0
M  V30 2684 H 238.818 -3.78512 3.07538 0
M  V30 2685 H 237.823 -2.42349 4.93505 0
M  V30 2686 H 239.048 -3.06031 6.06236 0
M  V30 2687 H 236.994 -4.72175 4.55397 0
M  V30 2688 H 236.911 -4.28419 6.22891 0
M  V30 2689 H 238.179 -5.3389 5.67963 0
M  V30 2690 N 242.408 -1.52605 -0.393616 0
M  V30 2691 C 243.34 -1.73303 -1.49995 0
M  V30 2692 C 244.353 -0.613473 -1.50799 0
M  V30 2693 O 245.542 -0.889049 -1.54784 0
M  V30 2694 C 242.642 -1.77245 -2.88855 0
M  V30 2695 C 241.815 -3.06483 -3.12069 0
M  V30 2696 C 240.874 -3.02033 -4.30886 0
M  V30 2697 O 239.9 -3.75907 -4.27414 0
M  V30 2698 N 241.102 -2.20897 -5.36828 0
M  V30 2699 H 243.867 -2.68756 -1.32629 0
M  V30 2700 H 241.428 -1.51036 -0.583083 0
M  V30 2701 H 243.42 -1.7178 -3.66434 0
M  V30 2702 H 241.99 -0.891993 -2.99603 0
M  V30 2703 H 241.21 -3.25474 -2.22396 0
M  V30 2704 H 242.498 -3.91947 -3.2443 0
M  V30 2705 H 241.896 -1.60336 -5.42502 0
M  V30 2706 H 240.453 -2.21275 -6.13091 0
M  V30 2707 N 243.887 0.651787 -1.4349 0
M  V30 2708 C 244.834 1.76462 -1.4876 0
M  V30 2709 C 245.804 1.62641 -0.337189 0
M  V30 2710 O 246.989 1.82864 -0.544544 0
M  V30 2711 C 244.129 3.14623 -1.41796 0
M  V30 2712 C 243.242 3.39568 -2.67053 0
M  V30 2713 C 242.377 4.67585 -2.52068 0
M  V30 2714 C 241.416 4.85639 -3.72587 0
M  V30 2715 N 240.553 6.04915 -3.56402 0
M  V30 2716 H 245.393 1.71293 -2.43849 0
M  V30 2717 H 242.93 0.835889 -1.21043 0
M  V30 2718 H 244.888 3.94496 -1.35753 0
M  V30 2719 H 243.518 3.18859 -0.50288 0
M  V30 2720 H 242.57 2.53783 -2.8337 0
M  V30 2721 H 243.882 3.48795 -3.56572 0
M  V30 2722 H 243.036 5.55586 -2.4374 0
M  V30 2723 H 241.775 4.60681 -1.60075 0
M  V30 2724 H 240.78 3.96073 -3.81321 0
M  V30 2725 H 242.005 4.94372 -4.65589 0
M  V30 2726 H 239.951 5.9914 -2.67146 0
M  V30 2727 H 239.868 6.15106 -4.39524 0
M  V30 2728 H 241.136 6.95533 -3.51929 0
M  V30 2729 N 245.365 1.30045 0.890287 0
M  V30 2730 C 246.612 1.18561 1.64163 0
M  V30 2731 C 246.94 -0.260852 1.92743 0
M  V30 2732 O 246.195 -1.20376 1.54299 0
M  V30 2733 C 246.494 1.95409 2.99249 0
M  V30 2734 C 246.16 3.45066 2.90242 0
M  V30 2735 C 244.822 3.85878 2.87492 0
M  V30 2736 C 247.174 4.4039 2.78758 0
M  V30 2737 C 244.502 5.20314 2.7109 0
M  V30 2738 C 246.854 5.74928 2.63894 0
M  V30 2739 C 245.518 6.14986 2.59516 0
M  V30 2740 H 244.788 0.433846 0.600715 0
M  V30 2741 H 247.435 1.61088 1.03552 0
M  V30 2742 H 245.74 1.45501 3.63781 0
M  V30 2743 H 247.437 1.8392 3.56334 0
M  V30 2744 H 244.027 3.12631 2.93189 0
M  V30 2745 H 248.211 4.09806 2.79952 0
M  V30 2746 H 243.467 5.50449 2.66112 0
M  V30 2747 H 247.641 6.48434 2.53981 0
M  V30 2748 H 245.268 7.19104 2.46565 0
M  V30 2749 N 246.843 -1.10192 1.12674 0
M  V30 2750 C 247.775 -2.16418 0.754701 0
M  V30 2751 C 248.788 -1.61309 -0.21986 0
M  V30 2752 O 249.977 -1.785 -0.000826841 0
M  V30 2753 C 247.077 -3.38762 0.096698 0
M  V30 2754 C 246.25 -4.23307 1.10136 0
M  V30 2755 C 245.309 -5.24092 0.470513 0
M  V30 2756 O 244.335 -5.57906 1.12824 0
M  V30 2757 N 245.537 -5.75491 -0.760948 0
M  V30 2758 H 248.302 -2.48943 1.66875 0
M  V30 2759 H 245.863 -1.25834 1.01869 0
M  V30 2760 H 247.855 -4.03291 -0.337384 0
M  V30 2761 H 246.425 -3.04192 -0.720153 0
M  V30 2762 H 245.645 -3.55036 1.71299 0
M  V30 2763 H 246.933 -4.76624 1.78064 0
M  V30 2764 H 246.331 -5.50222 -1.31424 0
M  V30 2765 H 244.888 -6.41792 -1.13781 0
M  V30 2766 N 248.321 -0.919034 -1.28029 0
M  V30 2767 C 249.253 -0.368762 -2.26214 0
M  V30 2768 C 250.266 0.495716 -1.55069 0
M  V30 2769 O 251.455 0.30974 -1.75792 0
M  V30 2770 C 248.555 0.491049 -3.35324 0
M  V30 2771 C 247.728 -0.352133 -4.3598 0
M  V30 2772 C 246.787 0.443622 -5.24327 0
M  V30 2773 O 245.813 -0.14566 -5.69014 0
M  V30 2774 N 247.015 1.74545 -5.53637 0
M  V30 2775 H 249.78 -1.21273 -2.74068 0
M  V30 2776 H 247.341 -0.785541 -1.41566 0
M  V30 2777 H 249.333 1.03026 -3.91366 0
M  V30 2778 H 247.903 1.23574 -2.87138 0
M  V30 2779 H 247.123 -1.07269 -3.79324 0
M  V30 2780 H 248.411 -0.928883 -5.00249 0
M  V30 2781 H 247.809 2.24666 -5.19174 0
M  V30 2782 H 246.366 2.23138 -6.12416 0
M  V30 2783 N 249.799 1.42003 -0.683588 0
M  V30 2784 C 251.047 2.01015 -0.209101 0
M  V30 2785 C 251.368 1.54365 1.19149 0
M  V30 2786 O 250.638 0.769083 1.80172 0
M  V30 2787 H 249.218 0.743294 -0.074315 0
M  V30 2788 H 251.88 1.73798 -0.882066 0
M  V30 2789 H 250.976 3.11343 -0.2172 0
M  V30 2790 N 251.277 0.427512 1.51691 0
M  V30 2791 C 252.187 -0.39527 2.31246 0
M  V30 2792 C 253.203 -1.03674 1.39742 0
M  V30 2793 O 254.379 -1.03425 1.72816 0
M  V30 2794 C 251.444 -1.48706 3.13189 0
M  V30 2795 C 250.505 -0.866743 4.20459 0
M  V30 2796 C 249.738 -1.90651 4.98486 0
M  V30 2797 O 249.961 -3.12733 4.77026 0
M  V30 2798 O 248.895 -1.5025 5.82845 0
M  V30 2799 H 252.721 0.253918 3.02637 0
M  V30 2800 H 250.306 0.190274 1.48183 0
M  V30 2801 H 252.188 -2.12047 3.64162 0
M  V30 2802 H 250.863 -2.12051 2.44573 0
M  V30 2803 H 249.77 -0.195544 3.73589 0
M  V30 2804 H 251.103 -0.276934 4.9142 0
M  V30 2805 N 252.755 -1.56801 0.158532 0
M  V30 2806 C 254.001 -1.96781 -0.490405 0
M  V30 2807 C 254.334 -1.04397 -1.63753 0
M  V30 2808 O 253.609 -0.0885805 -1.94298 0
M  V30 2809 C 253.892 -3.4635 -0.985594 0
M  V30 2810 C 253.745 -4.49512 0.160824 0
M  V30 2811 C 255.064 -3.98697 -1.86355 0
M  V30 2812 H 252.183 -0.715482 -0.176788 0
M  V30 2813 H 254.825 -1.88451 0.242088 0
M  V30 2814 H 252.975 -3.53579 -1.60978 0
M  V30 2815 H 254.647 -4.54353 0.797537 0
M  V30 2816 H 252.89 -4.26013 0.818256 0
M  V30 2817 H 253.561 -5.51531 -0.227569 0
M  V30 2818 H 256.037 -3.94019 -1.33746 0
M  V30 2819 H 254.913 -5.03792 -2.17909 0
M  V30 2820 H 255.174 -3.41744 -2.8047 0
M  V30 2821 N 254.233 0.115231 -1.57178 0
M  V30 2822 C 255.644 0.67197 -1.74188 0
M  V30 2823 C 255.995 1.80125 -0.777777 0
M  V30 2824 O 255.12 2.16346 0.0484376 0
M  V30 2825 C 255.715 1.22573 -3.1585 0
M  V30 2826 C 254.274 1.72872 -3.34353 0
M  V30 2827 C 253.421 0.629972 -2.70049 0
M  V30 2828 H 256.372 -0.110712 -1.58313 0
M  V30 2829 H 256.393 2.09535 -3.17609 0
M  V30 2830 H 255.905 0.403598 -3.85996 0
M  V30 2831 H 254.006 2.5755 -2.69256 0
M  V30 2832 H 254.119 1.83557 -4.42542 0
M  V30 2833 H 252.483 1.0645 -2.31388 0
M  V30 2834 H 253.266 -0.181241 -3.42821 0
M  V30 2835 N 255.711 1.52812 0.385517 0
M  V30 2836 C 256.641 1.80808 1.47752 0
M  V30 2837 C 257.622 0.660318 1.5676 0
M  V30 2838 O 258.807 0.908246 1.71652 0
M  V30 2839 C 255.937 1.98008 2.85324 0
M  V30 2840 C 254.891 3.13709 2.91154 0
M  V30 2841 C 254.217 3.16169 4.31209 0
M  V30 2842 C 255.517 4.52709 2.60483 0
M  V30 2843 H 257.211 2.72253 1.24573 0
M  V30 2844 H 254.757 1.31003 0.597839 0
M  V30 2845 H 256.71 2.16176 3.61726 0
M  V30 2846 H 255.434 1.03255 3.09848 0
M  V30 2847 H 254.093 2.95329 2.17201 0
M  V30 2848 H 253.741 2.19092 4.52778 0
M  V30 2849 H 253.441 3.93894 4.36029 0
M  V30 2850 H 254.965 3.36496 5.09512 0
M  V30 2851 H 256.379 4.71173 3.26602 0
M  V30 2852 H 254.776 5.32528 2.76648 0
M  V30 2853 H 255.846 4.59186 1.55809 0
M  V30 2854 N 257.189 -0.644168 1.43834 0
M  V30 2855 C 258.6 -1.22554 1.40845 0
M  V30 2856 C 258.951 -1.9585 0.117115 0
M  V30 2857 O 258.076 -2.01734 -0.783086 0
M  V30 2858 C 258.671 -2.22907 2.55143 0
M  V30 2859 C 257.23 -2.76501 2.5539 0
M  V30 2860 C 256.377 -1.51287 2.32396 0
M  V30 2861 H 259.328 -0.43563 1.52604 0
M  V30 2862 H 259.349 -3.05259 2.2715 0
M  V30 2863 H 258.861 -1.69533 3.49114 0
M  V30 2864 H 256.962 -3.33914 1.65324 0
M  V30 2865 H 257.075 -3.23429 3.53455 0
M  V30 2866 H 255.439 -1.78957 1.81236 0
M  V30 2867 H 256.222 -0.998336 3.28463 0
M  V30 2868 N 258.668 -1.30515 -0.883378 0
M  V30 2869 C 259.893 -1.22487 -1.67367 0
M  V30 2870 C 260.318 0.208767 -1.86938 0
M  V30 2871 O 259.676 1.15015 -1.40148 0
M  V30 2872 C 259.724 -1.96041 -3.02655 0
M  V30 2873 O 258.828 -1.28859 -3.91751 0
M  V30 2874 H 258.169 -0.423573 -0.511353 0
M  V30 2875 H 260.699 -1.72362 -1.10239 0
M  V30 2876 H 260.709 -2.05124 -3.52687 0
M  V30 2877 H 259.384 -3.00307 -2.8773 0
M  V30 2878 H 257.961 -1.28141 -3.50192 0
M  V30 2879 N 260.146 1.09593 -1.13257 0
M  V30 2880 C 261.393 1.81734 -0.893257 0
M  V30 2881 C 261.721 1.8563 0.580656 0
M  V30 2882 O 260.976 1.31906 1.44566 0
M  V30 2883 C 261.275 3.27802 -1.42411 0
M  V30 2884 C 260.941 3.44041 -2.91456 0
M  V30 2885 C 259.603 3.48181 -3.3215 0
M  V30 2886 C 261.955 3.48719 -3.87356 0
M  V30 2887 C 259.283 3.54575 -4.67433 0
M  V30 2888 C 261.635 3.56648 -5.2248 0
M  V30 2889 C 260.299 3.59055 -5.62704 0
M  V30 2890 H 259.569 0.665011 -0.326866 0
M  V30 2891 H 262.216 1.2912 -1.41422 0
M  V30 2892 H 260.521 3.83042 -0.823795 0
M  V30 2893 H 262.218 3.82149 -1.21503 0
M  V30 2894 H 258.808 3.41502 -2.58987 0
M  V30 2895 H 262.992 3.44763 -3.57004 0
M  V30 2896 H 258.248 3.54725 -4.97976 0
M  V30 2897 H 262.422 3.59212 -5.96607 0
M  V30 2898 H 260.049 3.63763 -6.67518 0
M  V30 2899 N 261.624 0.925811 1.2754 0
M  V30 2900 C 262.87 0.575575 1.95086 0
M  V30 2901 C 263.225 -0.873246 1.71441 0
M  V30 2902 O 262.518 -1.61443 1.03183 0
M  V30 2903 C 262.712 0.835296 3.47502 0
M  V30 2904 C 262.541 2.30781 3.85967 0
M  V30 2905 C 261.311 2.96017 4.09514 0
M  V30 2906 C 263.509 3.28519 3.95702 0
M  V30 2907 N 261.491 4.3344 4.34744 0
M  V30 2908 C 262.862 4.51146 4.25285 0
M  V30 2909 C 264.917 3.23753 3.7827 0
M  V30 2910 C 263.62 5.69606 4.39251 0
M  V30 2911 C 265.646 4.41523 3.9346 0
M  V30 2912 C 265.008 5.62928 4.23428 0
M  V30 2913 H 261.107 0.260711 0.737261 0
M  V30 2914 H 263.691 1.19204 1.53943 0
M  V30 2915 H 261.862 0.248005 3.87607 0
M  V30 2916 H 263.594 0.447878 4.02214 0
M  V30 2917 H 260.349 2.46695 4.04275 0
M  V30 2918 H 260.773 5.04528 4.5142 0
M  V30 2919 H 265.415 2.3096 3.54143 0
M  V30 2920 H 263.133 6.62866 4.62205 0
M  V30 2921 H 266.719 4.39351 3.81394 0
M  V30 2922 H 265.599 6.52538 4.34929 0
M  V30 2923 N 263.102 -1.41638 0.69111 0
M  V30 2924 C 264.35 -2.00902 0.219758 0
M  V30 2925 C 264.671 -1.54994 -1.18329 0
M  V30 2926 O 263.941 -0.778628 -1.79762 0
M  V30 2927 H 262.521 -0.74289 0.0782558 0
M  V30 2928 H 265.183 -1.73327 0.891271 0
M  V30 2929 H 264.279 -3.11224 0.233708 0
M  V30 2930 N 264.58 -0.43555 -1.51462 0
M  V30 2931 C 265.828 0.131254 -2.01673 0
M  V30 2932 C 266.149 1.43368 -1.32177 0
M  V30 2933 O 265.419 1.90524 -0.455769 0
M  V30 2934 H 263.999 0.0514954 -0.745223 0
M  V30 2935 H 266.661 -0.577847 -1.86137 0
M  V30 2936 H 265.757 0.308446 -3.10572 0
M  V30 2937 N 266.058 1.56714 -0.166846 0
M  V30 2938 C 267.305 1.96747 0.479252 0
M  V30 2939 C 267.633 1.05263 1.63554 0
M  V30 2940 O 266.888 0.0858098 1.95512 0
M  V30 2941 C 267.187 3.42889 1.00806 0
M  V30 2942 C 266.853 4.50889 -0.0318574 0
M  V30 2943 C 265.515 4.8015 -0.317675 0
M  V30 2944 C 267.867 5.15949 -0.737956 0
M  V30 2945 C 265.195 5.71772 -1.31506 0
M  V30 2946 C 267.547 6.08647 -1.72429 0
M  V30 2947 C 266.211 6.36277 -2.0176 0
M  V30 2948 H 265.481 0.719949 0.175371 0
M  V30 2949 H 268.128 1.89756 -0.257864 0
M  V30 2950 H 266.433 3.4681 1.82291 0
M  V30 2951 H 268.13 3.71203 1.51689 0
M  V30 2952 H 264.72 4.28128 0.201088 0
M  V30 2953 H 268.904 4.93458 -0.530351 0
M  V30 2954 H 264.16 5.91465 -1.54853 0
M  V30 2955 H 268.334 6.58129 -2.27682 0
M  V30 2956 H 265.961 7.07075 -2.79194 0
M  V30 2957 N 267.536 -0.106894 1.57237 0
M  V30 2958 C 268.952 -0.46078 1.52804 0
M  V30 2959 C 269.152 -1.81184 0.881746 0
M  V30 2960 O 268.208 -2.48102 0.469224 0
M  V30 2961 C 269.521 -0.434127 2.9755 0
M  V30 2962 C 271.069 -0.516821 3.08704 0
M  V30 2963 C 271.544 -0.520436 4.55033 0
M  V30 2964 N 273.035 -0.58153 4.59535 0
M  V30 2965 C 273.77 -0.605973 5.70189 0
M  V30 2966 N 273.266 -0.587331 6.90306 0
M  V30 2967 N 275.059 -0.649895 5.5833 0
M  V30 2968 H 267.21 0.778203 1.9763 0
M  V30 2969 H 269.473 0.288403 0.903066 0
M  V30 2970 H 269.179 0.491197 3.48253 0
M  V30 2971 H 269.053 -1.25748 3.55622 0
M  V30 2972 H 271.44 -1.43256 2.57995 0
M  V30 2973 H 271.521 0.334449 2.53604 0
M  V30 2974 H 271.165 0.391313 5.0639 0
M  V30 2975 H 271.095 -1.38876 5.07958 0
M  V30 2976 H 273.586 -0.60161 3.73081 0
M  V30 2977 H 273.899 -0.60894 7.70397 0
M  V30 2978 H 272.244 -0.554564 6.92784 0
M  V30 2979 H 275.435 -0.661907 4.63397 0
M  V30 2980 H 275.608 -0.665476 6.44574 0
M  V30 2981 N 269.014 -1.53014 -0.377408 0
M  V30 2982 C 270.26 -1.68872 -1.12294 0
M  V30 2983 C 270.593 -0.433224 -1.89306 0
M  V30 2984 O 269.868 0.569258 -1.85983 0
M  V30 2985 C 270.151 -2.93115 -2.09179 0
M  V30 2986 C 270.004 -4.28794 -1.35853 0
M  V30 2987 C 271.323 -3.12928 -3.09458 0
M  V30 2988 H 268.442 -0.614518 -0.406862 0
M  V30 2989 H 271.084 -1.85633 -0.40503 0
M  V30 2990 H 269.234 -2.78956 -2.70399 0
M  V30 2991 H 270.906 -4.54742 -0.775082 0
M  V30 2992 H 269.149 -4.28744 -0.660364 0
M  V30 2993 H 269.82 -5.11837 -2.06706 0
M  V30 2994 H 272.296 -3.26194 -2.58334 0
M  V30 2995 H 271.172 -4.01316 -3.74482 0
M  V30 2996 H 271.433 -2.27669 -3.78971 0
M  V30 2997 N 270.492 0.636531 -1.44174 0
M  V30 2998 C 271.717 1.42847 -1.50364 0
M  V30 2999 C 272.142 1.87665 -0.127867 0
M  V30 3000 O 271.5 1.58408 0.88185 0
M  V30 3001 C 271.548 2.62854 -2.4686 0
M  V30 3002 O 270.652 3.62501 -1.9664 0
M  V30 3003 H 269.993 0.427642 -0.507955 0
M  V30 3004 H 272.523 0.777422 -1.89255 0
M  V30 3005 H 272.533 3.10465 -2.64718 0
M  V30 3006 H 271.208 2.29578 -3.46795 0
M  V30 3007 H 269.785 3.21735 -1.88523 0
M  V30 3008 N 271.97 1.30982 0.876444 0
M  V30 3009 C 272.9 1.20668 1.99903 0
M  V30 3010 C 273.881 0.095354 1.69833 0
M  V30 3011 O 275.066 0.27885 1.92188 0
M  V30 3012 C 272.196 0.90655 3.3526 0
M  V30 3013 C 271.15 1.97675 3.79617 0
M  V30 3014 C 270.476 1.52943 5.1236 0
M  V30 3015 C 271.776 3.389 3.97422 0
M  V30 3016 H 273.47 2.14586 2.0879 0
M  V30 3017 H 271.016 1.03308 1.00317 0
M  V30 3018 H 272.969 0.821025 4.13324 0
M  V30 3019 H 271.693 -0.0682969 3.26529 0
M  V30 3020 H 270.352 2.05205 3.03787 0
M  V30 3021 H 270 0.54262 5.00065 0
M  V30 3022 H 269.7 2.24532 5.43009 0
M  V30 3023 H 271.224 1.45786 5.92941 0
M  V30 3024 H 272.638 3.34081 4.659 0
M  V30 3025 H 271.035 4.0865 4.3946 0
M  V30 3026 H 272.105 3.80163 3.01006 0
M  V30 3027 N 273.449 -1.08991 1.13837 0
M  V30 3028 C 274.359 -2.19301 0.833333 0
M  V30 3029 C 275.375 -1.73026 -0.183847 0
M  V30 3030 O 276.551 -2.01395 -0.0138092 0
M  V30 3031 C 273.616 -3.45323 0.308651 0
M  V30 3032 C 272.677 -4.06255 1.38764 0
M  V30 3033 C 271.91 -5.26262 0.887896 0
M  V30 3034 O 272.133 -5.69747 -0.27287 0
M  V30 3035 O 271.067 -5.78435 1.66421 0
M  V30 3036 H 274.893 -2.47854 1.75506 0
M  V30 3037 H 272.478 -1.18012 0.916166 0
M  V30 3038 H 274.36 -4.21394 0.0216739 0
M  V30 3039 H 273.035 -3.18362 -0.585431 0
M  V30 3040 H 271.942 -3.318 1.72799 0
M  V30 3041 H 273.275 -4.37452 2.25602 0
M  V30 3042 N 274.927 -0.932562 -1.27047 0
M  V30 3043 C 275.859 -0.392734 -2.2581 0
M  V30 3044 C 276.872 0.479241 -1.55586 0
M  V30 3045 O 278.061 0.291078 -1.76111 0
M  V30 3046 C 275.161 0.455456 -3.35826 0
M  V30 3047 C 274.334 -0.398355 -4.35582 0
M  V30 3048 C 273.393 0.387985 -5.24768 0
M  V30 3049 O 272.419 -0.206003 -5.68827 0
M  V30 3050 N 273.621 1.68664 -5.55457 0
M  V30 3051 H 276.386 -1.24173 -2.72766 0
M  V30 3052 H 273.947 -0.800511 -1.40725 0
M  V30 3053 H 275.939 0.988692 -3.92437 0
M  V30 3054 H 274.509 1.20522 -2.88432 0
M  V30 3055 H 273.729 -1.11286 -3.78165 0
M  V30 3056 H 275.017 -0.981889 -4.99236 0
M  V30 3057 H 274.415 2.19147 -5.21528 0
M  V30 3058 H 272.972 2.1663 -6.14748 0
M  V30 3059 N 276.405 1.4127 -0.698611 0
M  V30 3060 C 277.654 2.00408 -0.227949 0
M  V30 3061 C 277.967 1.55981 1.18023 0
M  V30 3062 O 279.173 2.07699 1.74852 0
M  V30 3063 C 277.629 3.58129 -0.356636 0
M  V30 3064 C 277.237 4.11536 -1.77037 0
M  V30 3065 C 278.981 4.24466 0.0540969 0
M  V30 3066 C 276.888 5.61701 -1.85055 0
M  V30 3067 H 275.818 0.749586 -0.0814657 0
M  V30 3068 H 278.469 1.61713 -0.867249 0
M  V30 3069 H 276.851 3.94442 0.350965 0
M  V30 3070 H 278.025 3.86636 -2.50698 0
M  V30 3071 H 276.34 3.57736 -2.13105 0
M  V30 3072 H 278.937 5.34698 0.0146723 0
M  V30 3073 H 279.28 4.01687 1.09332 0
M  V30 3074 H 279.813 3.93198 -0.603337 0
M  V30 3075 H 276.552 5.89312 -2.8704 0
M  V30 3076 H 276.072 5.88519 -1.15783 0
M  V30 3077 H 277.751 6.26524 -1.61484 0
M  V30 3078 N 277.883 0.443576 1.51229 0
M  V30 3079 C 278.793 -0.370721 2.31652 0
M  V30 3080 C 279.809 -1.02186 1.40833 0
M  V30 3081 O 280.985 -1.01586 1.73903 0
M  V30 3082 C 278.05 -1.45376 3.14749 0
M  V30 3083 C 277.111 -0.822099 4.21355 0
M  V30 3084 C 276.344 -1.85353 5.0048 0
M  V30 3085 O 276.567 -3.07656 4.80316 0
M  V30 3086 O 275.501 -1.4406 5.84406 0
M  V30 3087 H 279.327 0.286002 3.0235 0
M  V30 3088 H 276.912 0.20598 1.47973 0
M  V30 3089 H 278.794 -2.08173 3.66391 0
M  V30 3090 H 277.469 -2.09445 2.46809 0
M  V30 3091 H 276.376 -0.155909 3.73775 0
M  V30 3092 H 277.709 -0.224797 4.91686 0
M  V30 3093 N 279.361 -1.56624 0.175154 0
M  V30 3094 C 280.608 -1.96999 -0.468811 0
M  V30 3095 C 280.936 -1.06129 -1.62994 0
M  V30 3096 O 280.191 -0.0961771 -1.95464 0
M  V30 3097 C 280.49 -3.43419 -0.989864 0
M  V30 3098 C 280.156 -4.50866 0.0557687 0
M  V30 3099 C 278.818 -4.79975 0.343134 0
M  V30 3100 C 281.17 -5.15551 0.765308 0
M  V30 3101 C 278.498 -5.71066 1.34536 0
M  V30 3102 C 280.85 -6.07724 1.75654 0
M  V30 3103 C 279.514 -6.35199 2.05132 0
M  V30 3104 H 278.784 -0.720869 -0.17155 0
M  V30 3105 H 281.431 -1.89616 0.267924 0
M  V30 3106 H 279.736 -3.47772 -1.80449 0
M  V30 3107 H 281.433 -3.72002 -1.49719 0
M  V30 3108 H 278.023 -4.28229 -0.178381 0
M  V30 3109 H 282.207 -4.9317 0.556513 0
M  V30 3110 H 277.463 -5.90635 1.57988 0
M  V30 3111 H 281.637 -6.56912 2.31169 0
M  V30 3112 H 279.264 -7.05584 2.8294 0
M  V30 3113 N 280.839 0.0985539 -1.57292 0
M  V30 3114 C 282.085 0.798769 -1.87059 0
M  V30 3115 C 282.44 1.76514 -0.76555 0
M  V30 3116 O 281.733 1.90181 0.232752 0
M  V30 3117 C 281.927 1.56927 -3.21105 0
M  V30 3118 C 281.756 0.679026 -4.44544 0
M  V30 3119 C 280.526 0.326071 -5.04247 0
M  V30 3120 C 282.724 -0.0124715 -5.14298 0
M  V30 3121 N 280.706 -0.572702 -6.11223 0
M  V30 3122 C 282.077 -0.769446 -6.15207 0
M  V30 3123 C 284.132 -0.0867545 -4.97824 0
M  V30 3124 C 282.835 -1.59376 -7.01421 0
M  V30 3125 C 284.861 -0.897955 -5.84543 0
M  V30 3126 C 284.223 -1.64306 -6.84969 0
M  V30 3127 H 280.322 0.268568 -0.734435 0
M  V30 3128 H 282.906 0.0614664 -1.94603 0
M  V30 3129 H 281.077 2.27748 -3.1462 0
M  V30 3130 H 282.809 2.21641 -3.38611 0
M  V30 3131 H 279.564 0.67295 -4.68795 0
M  V30 3132 H 279.988 -1.01454 -6.69355 0
M  V30 3133 H 284.63 0.474963 -4.20124 0
M  V30 3134 H 282.348 -2.16655 -7.78515 0
M  V30 3135 H 285.934 -0.958059 -5.73858 0
M  V30 3136 H 284.814 -2.26065 -7.50909 0
M  V30 3137 N 282.317 1.53212 0.369288 0
M  V30 3138 C 283.249 1.75668 1.47219 0
M  V30 3139 C 284.262 0.637387 1.49804 0
M  V30 3140 O 285.451 0.913561 1.5335 0
M  V30 3141 C 282.551 1.81818 2.85999 0
M  V30 3142 C 281.724 3.11409 3.07153 0
M  V30 3143 C 280.783 3.08849 4.26026 0
M  V30 3144 O 279.809 3.82659 4.2138 0
M  V30 3145 N 281.011 2.29409 5.33246 0
M  V30 3146 H 283.776 2.70832 1.28337 0
M  V30 3147 H 281.337 1.51944 0.55898 0
M  V30 3148 H 283.329 1.77588 3.63655 0
M  V30 3149 H 281.899 0.939544 2.98146 0
M  V30 3150 H 281.119 3.28971 2.1719 0
M  V30 3151 H 282.407 3.97059 3.18154 0
M  V30 3152 H 281.805 1.68946 5.39883 0
M  V30 3153 H 280.362 2.31001 6.09493 0
M  V30 3154 N 283.795 -0.628877 1.44509 0
M  V30 3155 C 285.043 -1.38565 1.4712 0
M  V30 3156 C 285.364 -1.94712 0.105899 0
M  V30 3157 O 284.634 -1.75912 -0.862079 0
M  V30 3158 H 283.214 -0.514333 0.541729 0
M  V30 3159 H 285.876 -0.740018 1.80305 0
M  V30 3160 H 284.972 -2.21583 2.19789 0
M  V30 3161 N 285.273 -1.31445 -0.869486 0
M  V30 3162 C 286.521 -1.20918 -1.61936 0
M  V30 3163 C 286.842 0.232683 -1.93607 0
M  V30 3164 O 286.112 1.15352 -1.58338 0
M  V30 3165 H 284.692 -0.44454 -0.600328 0
M  V30 3166 H 287.354 -1.64776 -1.0409 0
M  V30 3167 H 286.45 -1.78124 -2.56278 0
M  V30 3168 N 286.751 1.08385 -1.14413 0
M  V30 3169 C 287.661 2.18856 -0.844951 0
M  V30 3170 C 288.677 1.73121 0.174668 0
M  V30 3171 O 289.853 2.014 0.00312857 0
M  V30 3172 C 286.918 3.45155 -0.32696 0
M  V30 3173 C 285.979 4.05513 -1.40916 0
M  V30 3174 C 285.212 5.25784 -0.915793 0
M  V30 3175 O 285.435 5.69884 0.242651 0
M  V30 3176 O 284.369 5.77545 -1.69487 0
M  V30 3177 H 288.195 2.46919 -1.76818 0
M  V30 3178 H 285.78 1.17524 -0.922411 0
M  V30 3179 H 287.662 4.21377 -0.0440211 0
M  V30 3180 H 286.337 3.18668 0.568539 0
M  V30 3181 H 285.244 3.30879 -1.74556 0
M  V30 3182 H 286.577 4.3625 -2.27919 0
M  V30 3183 N 288.23 0.939286 1.26551 0
M  V30 3184 C 289.18 0.418284 2.2413 0
M  V30 3185 C 290.164 -0.483935 1.5345 0
M  V30 3186 O 291.356 -0.319489 1.74093 0
M  V30 3187 C 288.485 -0.31709 3.41832 0
M  V30 3188 C 287.571 0.602311 4.19801 0
M  V30 3189 N 287.962 1.72726 4.75394 0
M  V30 3190 C 286.26 0.407534 4.44134 0
M  V30 3191 C 286.961 2.30004 5.34297 0
M  V30 3192 N 285.937 1.58828 5.1988 0
M  V30 3193 H 289.739 1.27705 2.64705 0
M  V30 3194 H 287.253 0.794929 1.41614 0
M  V30 3195 H 289.25 -0.707364 4.10855 0
M  V30 3196 H 287.91 -1.17264 3.02786 0
M  V30 3197 H 288.921 2.10944 4.72994 0
M  V30 3198 H 285.598 -0.406406 4.15517 0
M  V30 3199 H 286.988 3.24778 5.88191 0
M  V30 3200 N 289.708 -1.40897 0.706093 0
M  V30 3201 C 291.124 -1.55042 0.37869 0
M  V30 3202 C 291.324 -1.67944 -1.11342 0
M  V30 3203 O 290.38 -1.66372 -1.89938 0
M  V30 3204 C 291.693 -2.78398 1.13643 0
M  V30 3205 C 293.241 -2.92206 1.12181 0
M  V30 3206 C 293.716 -4.18463 1.86152 0
M  V30 3207 N 295.207 -4.25443 1.83173 0
M  V30 3208 C 295.942 -5.2202 2.37239 0
M  V30 3209 N 295.438 -6.24563 2.99821 0
M  V30 3210 N 297.231 -5.14033 2.27435 0
M  V30 3211 H 289.382 -1.30769 1.67372 0
M  V30 3212 H 291.645 -0.631653 0.706907 0
M  V30 3213 H 291.351 -2.7511 2.19106 0
M  V30 3214 H 291.225 -3.70228 0.721853 0
M  V30 3215 H 293.612 -2.95004 0.0754171 0
M  V30 3216 H 293.693 -2.01521 1.57554 0
M  V30 3217 H 293.337 -4.16427 2.90776 0
M  V30 3218 H 293.267 -5.08141 1.38206 0
M  V30 3219 H 295.758 -3.51976 1.37556 0
M  V30 3220 H 296.071 -6.94665 3.38616 0
M  V30 3221 H 294.416 -6.25035 3.03902 0
M  V30 3222 H 297.607 -4.3285 1.78208 0
M  V30 3223 H 297.78 -5.89129 2.69873 0
M  V30 3224 N 291.186 -0.45159 -1.50991 0
M  V30 3225 C 292.116 0.342898 -2.30969 0
M  V30 3226 C 293.097 1.00815 -1.37005 0
M  V30 3227 O 294.282 1.00907 -1.65926 0
M  V30 3228 C 291.412 1.43637 -3.16205 0
M  V30 3229 C 290.366 0.893818 -4.18563 0
M  V30 3230 C 289.692 2.08411 -4.92411 0
M  V30 3231 C 290.992 -0.0815568 -5.22236 0
M  V30 3232 H 292.686 -0.324556 -2.97636 0
M  V30 3233 H 290.232 -0.157531 -1.43136 0
M  V30 3234 H 292.185 1.9995 -3.70942 0
M  V30 3235 H 290.909 2.13232 -2.47386 0
M  V30 3236 H 289.568 0.352798 -3.64898 0
M  V30 3237 H 289.216 2.76658 -4.20082 0
M  V30 3238 H 288.916 1.72741 -5.61636 0
M  V30 3239 H 290.44 2.65251 -5.49976 0
M  V30 3240 H 291.854 0.391742 -5.7196 0
M  V30 3241 H 290.251 -0.351551 -5.99069 0
M  V30 3242 H 291.321 -1.01374 -4.74185 0
M  V30 3243 N 292.664 1.56529 -0.183458 0
M  V30 3244 C 293.614 2.1515 0.754605 0
M  V30 3245 C 294.598 1.08904 1.18443 0
M  V30 3246 O 295.79 1.34997 1.14476 0
M  V30 3247 C 292.919 2.80531 1.97881 0
M  V30 3248 C 292.005 3.93952 1.57043 0
M  V30 3249 N 292.396 4.98221 0.87231 0
M  V30 3250 C 290.694 4.05338 1.86057 0
M  V30 3251 C 291.395 5.77836 0.669377 0
M  V30 3252 N 290.371 5.29858 1.21454 0
M  V30 3253 H 294.173 2.93132 0.212387 0
M  V30 3254 H 291.687 1.62391 0.0167725 0
M  V30 3255 H 293.684 3.20914 2.6612 0
M  V30 3256 H 292.344 2.04035 2.52586 0
M  V30 3257 H 293.355 5.15191 0.529033 0
M  V30 3258 H 290.032 3.39957 2.42354 0
M  V30 3259 H 291.422 6.71799 0.116422 0
M  V30 3260 N 294.142 -0.090211 1.57342 0
M  V30 3261 C 295.419 -0.824761 1.77361 0
M  V30 3262 C 295.799 -1.96698 0.76637 0
M  V30 3263 O 295.147 -2.27586 -0.204179 0
M  V30 3264 C 295.357 -1.31481 3.23286 0
M  V30 3265 C 296.705 -1.75563 3.86604 0
M  V30 3266 O 297.729 -1.41093 3.27065 0
M  V30 3267 O 296.588 -2.39317 4.91314 0
M  V30 3268 H 293.682 -0.393776 0.727234 0
M  V30 3269 H 296.228 -0.0717138 1.69548 0
M  V30 3270 H 295 -0.496671 3.88135 0
M  V30 3271 H 294.623 -2.12973 3.35751 0
M  V30 3272 N 295.62 -1.53406 -0.361157 0
M  V30 3273 C 297.036 -1.43277 -0.703124 0
M  V30 3274 C 297.236 -0.575384 -1.9311 0
M  V30 3275 O 296.292 -0.0595362 -2.5243 0
M  V30 3276 C 297.605 -2.8653 -0.9122 0
M  V30 3277 C 299.153 -2.96191 -1.01193 0
M  V30 3278 C 299.628 -4.40514 -1.25345 0
M  V30 3279 N 301.119 -4.43962 -1.32105 0
M  V30 3280 C 301.854 -5.52746 -1.5251 0
M  V30 3281 N 301.35 -6.71567 -1.70203 0
M  V30 3282 N 303.143 -5.40331 -1.54916 0
M  V30 3283 H 295.294 -2.07654 0.446475 0
M  V30 3284 H 297.557 -0.937944 0.137715 0
M  V30 3285 H 297.263 -3.51605 -0.0816414 0
M  V30 3286 H 297.137 -3.30441 -1.81903 0
M  V30 3287 H 299.524 -2.31266 -1.83303 0
M  V30 3288 H 299.605 -2.55667 -0.0823929 0
M  V30 3289 H 299.249 -5.06014 -0.437346 0
M  V30 3290 H 299.179 -4.78614 -2.19627 0
M  V30 3291 H 301.67 -3.58332 -1.20028 0
M  V30 3292 H 301.983 -7.50241 -1.85359 0
M  V30 3293 H 300.328 -6.74545 -1.67373 0
M  V30 3294 H 303.519 -4.46465 -1.40663 0
M  V30 3295 H 303.692 -6.25173 -1.70477 0
M  V30 3296 N 297.098 0.621204 -1.44841 0
M  V30 3297 C 298.345 1.38055 -1.48145 0
M  V30 3298 C 298.673 1.94143 -0.117867 0
M  V30 3299 O 297.928 1.74713 0.881694 0
M  V30 3300 C 298.227 2.55675 -2.4973 0
M  V30 3301 C 297.893 2.17817 -3.94799 0
M  V30 3302 C 296.555 2.07205 -4.34303 0
M  V30 3303 C 298.907 1.88065 -4.86087 0
M  V30 3304 C 296.235 1.65045 -5.63007 0
M  V30 3305 C 298.587 1.47394 -6.15189 0
M  V30 3306 C 297.251 1.35331 -6.53637 0
M  V30 3307 H 296.521 0.505181 -0.542101 0
M  V30 3308 H 299.168 0.703477 -1.78111 0
M  V30 3309 H 297.473 3.2866 -2.13284 0
M  V30 3310 H 299.17 3.13904 -2.4953 0
M  V30 3311 H 295.76 2.26998 -3.63552 0
M  V30 3312 H 299.944 1.95168 -4.56315 0
M  V30 3313 H 295.2 1.54317 -5.91605 0
M  V30 3314 H 299.374 1.23415 -6.85377 0
M  V30 3315 H 297.001 1.02435 -7.53267 0
M  V30 3316 N 298.576 1.31904 0.862503 0
M  V30 3317 C 299.506 1.22782 1.98612 0
M  V30 3318 C 300.487 0.113362 1.69722 0
M  V30 3319 O 301.672 0.299218 1.91881 0
M  V30 3320 C 298.802 0.942058 3.34279 0
M  V30 3321 C 297.756 2.0169 3.77499 0
M  V30 3322 C 297.082 1.58369 5.10709 0
M  V30 3323 C 298.382 3.43096 3.93805 0
M  V30 3324 H 300.076 2.16788 2.06502 0
M  V30 3325 H 297.622 1.04366 0.992154 0
M  V30 3326 H 299.575 0.864818 4.1243 0
M  V30 3327 H 298.299 -0.0336603 3.26583 0
M  V30 3328 H 296.958 2.08416 3.01593 0
M  V30 3329 H 296.606 0.595628 4.99461 0
M  V30 3330 H 296.306 2.30279 5.40597 0
M  V30 3331 H 297.83 1.52067 5.91361 0
M  V30 3332 H 299.244 3.39003 4.62331 0
M  V30 3333 H 297.641 4.13288 4.35101 0
M  V30 3334 H 298.711 3.83334 2.96957 0
M  V30 3335 N 300.054 -1.07777 1.14986 0
M  V30 3336 C 301.284 -1.83752 0.944402 0
M  V30 3337 C 301.692 -1.8218 -0.51058 0
M  V30 3338 O 301.035 -1.22852 -1.36576 0
M  V30 3339 C 301.097 -3.32128 1.37592 0
M  V30 3340 C 300.761 -3.57425 2.84775 0
M  V30 3341 C 301.758 -3.5173 3.8286 0
M  V30 3342 C 299.443 -3.8523 3.2234 0
M  V30 3343 C 301.437 -3.73482 5.16517 0
M  V30 3344 C 299.124 -4.06634 4.56171 0
M  V30 3345 C 300.122 -4.00754 5.53069 0
M  V30 3346 O 299.81 -4.2159 6.84483 0
M  V30 3347 H 299.542 -0.58673 0.335744 0
M  V30 3348 H 302.096 -1.36982 1.53052 0
M  V30 3349 H 300.326 -3.79686 0.733165 0
M  V30 3350 H 302.015 -3.89555 1.14024 0
M  V30 3351 H 302.781 -3.30256 3.55184 0
M  V30 3352 H 298.66 -3.88923 2.47508 0
M  V30 3353 H 302.204 -3.68808 5.92137 0
M  V30 3354 H 298.101 -4.27593 4.83564 0
M  V30 3355 H 298.869 -4.38961 6.90837 0
M  V30 3356 N 301.532 -0.945985 -1.26051 0
M  V30 3357 C 302.464 -0.416662 -2.25381 0
M  V30 3358 C 303.477 0.462712 -1.56086 0
M  V30 3359 O 304.666 0.272383 -1.7641 0
M  V30 3360 C 301.766 0.419812 -3.3629 0
M  V30 3361 C 300.939 -0.444531 -4.35135 0
M  V30 3362 C 299.998 0.332305 -5.2515 0
M  V30 3363 O 299.024 -0.266324 -5.68577 0
M  V30 3364 N 300.226 1.62763 -5.57215 0
M  V30 3365 H 302.991 -1.27059 -2.71433 0
M  V30 3366 H 300.552 -0.815392 -1.39868 0
M  V30 3367 H 302.544 0.947013 -3.93464 0
M  V30 3368 H 301.114 1.17456 -2.89694 0
M  V30 3369 H 300.334 -1.15291 -3.76964 0
M  V30 3370 H 301.622 -1.03478 -4.98166 0
M  V30 3371 H 301.02 2.13603 -5.23823 0
M  V30 3372 H 299.577 2.10097 -6.17011 0
M  V30 3373 N 303.011 1.40521 -0.713556 0
M  V30 3374 C 304.427 1.54839 -0.386907 0
M  V30 3375 C 304.627 1.68532 1.1045 0
M  V30 3376 O 303.683 1.67377 1.89053 0
M  V30 3377 C 304.996 2.77792 -1.15118 0
M  V30 3378 C 306.544 2.91607 -1.13729 0
M  V30 3379 C 307.019 4.1747 -1.88368 0
M  V30 3380 N 308.51 4.24466 -1.85427 0
M  V30 3381 C 309.245 5.20755 -2.40004 0
M  V30 3382 N 308.741 6.22965 -3.03129 0
M  V30 3383 N 310.534 5.1282 -2.30158 0
M  V30 3384 H 302.685 1.29879 -1.68063 0
M  V30 3385 H 304.948 0.627896 -0.710247 0
M  V30 3386 H 304.654 2.73944 -2.20561 0
M  V30 3387 H 304.528 3.6984 -0.741477 0
M  V30 3388 H 306.915 2.94959 -0.0910608 0
M  V30 3389 H 306.996 2.00682 -1.5862 0
M  V30 3390 H 306.64 4.1488 -2.9298 0
M  V30 3391 H 306.57 5.074 -1.40898 0
M  V30 3392 H 309.061 3.51241 -1.3942 0
M  V30 3393 H 309.374 6.92859 -3.42295 0
M  V30 3394 H 307.719 6.23415 -3.07212 0
M  V30 3395 H 310.91 4.31899 -1.80501 0
M  V30 3396 H 311.083 5.87689 -2.72993 0
M  V30 3397 N 304.489 0.459591 1.5075 0
M  V30 3398 C 305.399 -0.34613 2.32033 0
M  V30 3399 C 306.415 -1.00686 1.41909 0
M  V30 3400 O 307.591 -0.997361 1.7497 0
M  V30 3401 C 304.656 -1.42029 3.16273 0
M  V30 3402 C 303.717 -0.777362 4.22203 0
M  V30 3403 C 302.95 -1.80034 5.02418 0
M  V30 3404 O 303.173 -3.02544 4.83553 0
M  V30 3405 O 302.107 -1.37853 5.85901 0
M  V30 3406 H 305.933 0.318054 3.0203 0
M  V30 3407 H 303.518 0.221663 1.47746 0
M  V30 3408 H 305.4 -2.04275 3.68578 0
M  V30 3409 H 304.075 -2.06815 2.49016 0
M  V30 3410 H 302.982 -0.116256 3.73919 0
M  V30 3411 H 304.315 -0.172634 4.91897 0
M  V30 3412 N 305.967 -1.56429 0.191757 0
M  V30 3413 C 306.915 -2.20273 -0.747174 0
M  V30 3414 C 307.909 -1.17288 -1.22229 0
M  V30 3415 O 309.115 -1.35441 -1.18557 0
M  V30 3416 H 305.49 -0.705885 -0.259289 0
M  V30 3417 H 307.461 -2.97826 -0.184963 0
M  V30 3418 C 306.21 -2.87356 -1.95759 0
M  V30 3419 H 305.533 -3.66341 -1.60106 0
M  V30 3420 H 306.973 -3.3547 -2.59299 0
M  V30 3421 C 305.432 -1.88213 -2.79423 0
M  V30 3422 O 305.962 -1.38033 -3.7724 0
M  V30 3423 N 304.168 -1.56516 -2.44849 0
M  V30 3424 H 303.715 -1.97516 -1.65364 0
M  V30 3425 H 303.673 -0.904369 -3.01112 0
M  V30 3426 N 307.445 0.0818655 -1.57387 0
M  V30 3427 C 308.722 0.815343 -1.77796 0
M  V30 3428 C 309.102 1.96289 -0.77679 0
M  V30 3429 O 308.45 2.27691 0.192106 0
M  V30 3430 C 308.66 1.29765 -3.23978 0
M  V30 3431 C 310.008 1.7351 -3.8753 0
M  V30 3432 O 311.032 1.39356 -3.27808 0
M  V30 3433 O 309.891 2.36708 -4.92576 0
M  V30 3434 H 306.985 0.389914 -0.729312 0
M  V30 3435 H 309.531 0.0627213 -1.69584 0
M  V30 3436 H 308.303 0.47608 -3.88393 0
M  V30 3437 H 307.926 2.11189 -3.36875 0
M  V30 3438 N 308.923 1.53595 0.353017 0
M  V30 3439 C 309.886 1.80232 1.41594 0
M  V30 3440 C 310.886 0.673081 1.46035 0
M  V30 3441 O 312.076 0.941335 1.46576 0
M  V30 3442 C 309.208 1.93578 2.80607 0
M  V30 3443 H 310.401 2.75174 1.19244 0
M  V30 3444 H 307.954 1.44864 0.586872 0
M  V30 3445 H 308.689 1.00746 3.08254 0
M  V30 3446 H 308.474 2.75724 2.78781 0
M  V30 3447 H 309.964 2.15735 3.57558 0
M  V30 3448 N 310.401 -0.613514 1.45168 0
M  V30 3449 C 311.647 -1.37279 1.50087 0
M  V30 3450 C 312.002 -1.91902 0.138294 0
M  V30 3451 O 311.295 -1.71764 -0.84899 0
M  V30 3452 C 311.489 -2.54347 2.51083 0
M  V30 3453 C 311.318 -2.11186 3.97027 0
M  V30 3454 C 310.088 -1.97636 4.65046 0
M  V30 3455 C 312.286 -1.69016 4.85735 0
M  V30 3456 N 310.268 -1.48224 5.95737 0
M  V30 3457 C 311.639 -1.30976 6.06008 0
M  V30 3458 C 313.694 -1.56555 4.72647 0
M  V30 3459 C 312.397 -0.817197 7.14643 0
M  V30 3460 C 314.423 -1.08702 5.81324 0
M  V30 3461 C 313.785 -0.716233 7.00749 0
M  V30 3462 H 309.884 -0.496478 0.60418 0
M  V30 3463 H 312.468 -0.701988 1.81605 0
M  V30 3464 H 310.639 -3.19031 2.21527 0
M  V30 3465 H 312.371 -3.21208 2.46187 0
M  V30 3466 H 309.126 -2.18638 4.20112 0
M  V30 3467 H 309.55 -1.25767 6.65216 0
M  V30 3468 H 314.192 -1.83849 3.80736 0
M  V30 3469 H 311.91 -0.531797 8.06348 0
M  V30 3470 H 315.496 -0.994943 5.7323 0
M  V30 3471 H 314.376 -0.351642 7.83411 0
M  V30 3472 N 311.879 -1.3236 -0.855495 0
M  V30 3473 C 312.826 -1.21225 -1.964 0
M  V30 3474 C 313.796 -0.0946204 -1.6583 0
M  V30 3475 O 314.981 -0.27002 -1.8888 0
M  V30 3476 C 312.121 -0.940419 -3.32039 0
M  V30 3477 C 311.234 -2.14276 -3.75113 0
M  V30 3478 C 310.369 -1.80648 -4.9954 0
M  V30 3479 C 309.408 -2.97208 -5.35102 0
M  V30 3480 N 308.545 -2.63678 -6.50706 0
M  V30 3481 H 313.385 -2.16042 -2.05255 0
M  V30 3482 H 310.922 -1.07451 -1.00463 0
M  V30 3483 H 312.88 -0.763311 -4.10158 0
M  V30 3484 H 311.51 -0.0290413 -3.22787 0
M  V30 3485 H 310.562 -2.43017 -2.92655 0
M  V30 3486 H 311.874 -3.01468 -3.97389 0
M  V30 3487 H 311.028 -1.59484 -5.85363 0
M  V30 3488 H 309.767 -0.906678 -4.79198 0
M  V30 3489 H 308.772 -3.19004 -4.47791 0
M  V30 3490 H 309.997 -3.87918 -5.57401 0
M  V30 3491 H 307.943 -1.76238 -6.31883 0
M  V30 3492 H 307.86 -3.444 -6.72997 0
M  V30 3493 H 309.128 -2.45942 -7.39684 0
M  V30 3494 N 313.357 1.07166 -1.15556 0
M  V30 3495 C 314.606 1.79181 -0.926132 0
M  V30 3496 C 314.919 1.87768 0.547967 0
M  V30 3497 O 316.125 2.56323 0.895036 0
M  V30 3498 C 314.581 3.22 -1.60761 0
M  V30 3499 C 314.189 3.21607 -3.11886 0
M  V30 3500 C 315.933 3.9861 -1.4598 0
M  V30 3501 C 313.84 4.59092 -3.72812 0
M  V30 3502 H 312.77 0.67154 -0.342856 0
M  V30 3503 H 315.421 1.2027 -1.3859 0
M  V30 3504 H 313.803 3.81115 -1.07553 0
M  V30 3505 H 314.977 2.72127 -3.71865 0
M  V30 3506 H 313.292 2.58495 -3.2645 0
M  V30 3507 H 315.889 5.00225 -1.88888 0
M  V30 3508 H 316.232 4.143 -0.407541 0
M  V30 3509 H 316.765 3.45996 -1.96295 0
M  V30 3510 H 313.504 4.48606 -4.77946 0
M  V30 3511 H 313.024 5.08803 -3.17616 0
M  V30 3512 H 314.703 5.28059 -3.73848 0
M  V30 3513 N 314.835 0.952656 1.25548 0
M  V30 3514 C 316.112 0.523818 1.88456 0
M  V30 3515 C 316.492 -0.998871 1.85973 0
M  V30 3516 O 315.84 -1.86381 1.3219 0
M  V30 3517 C 316.05 1.0982 3.31271 0
M  V30 3518 C 317.398 1.17385 4.08051 0
M  V30 3519 O 318.422 1.04961 3.40384 0
M  V30 3520 O 317.281 1.36852 5.29088 0
M  V30 3521 H 314.375 0.172485 0.808813 0
M  V30 3522 H 316.921 1.04596 1.33633 0
M  V30 3523 H 315.693 2.1415 3.27499 0
M  V30 3524 H 315.316 0.559191 3.93648 0
M  V30 3525 N 316.313 -1.40141 0.720998 0
M  V30 3526 C 317.729 -1.54632 0.395113 0
M  V30 3527 C 317.929 -1.69115 -1.09555 0
M  V30 3528 O 316.985 -1.68377 -1.88163 0
M  V30 3529 C 318.298 -2.77177 1.1659 0
M  V30 3530 C 319.846 -2.91 1.15274 0
M  V30 3531 C 320.321 -4.16465 1.90579 0
M  V30 3532 N 321.812 -4.23476 1.87675 0
M  V30 3533 C 322.547 -5.19475 2.42762 0
M  V30 3534 N 322.043 -6.21348 3.06428 0
M  V30 3535 N 323.836 -5.11592 2.32874 0
M  V30 3536 H 315.987 -1.28986 1.68749 0
M  V30 3537 H 318.25 -0.62412 0.713567 0
M  V30 3538 H 317.956 -2.72771 2.22011 0
M  V30 3539 H 317.83 -3.69442 0.76108 0
M  V30 3540 H 320.217 -2.94907 0.106702 0
M  V30 3541 H 320.298 -1.99838 1.59682 0
M  V30 3542 H 319.942 -4.1332 2.95176 0
M  V30 3543 H 319.872 -5.06646 1.43587 0
M  V30 3544 H 322.363 -3.50497 1.41281 0
M  V30 3545 H 322.676 -6.91034 3.45965 0
M  V30 3546 H 321.021 -6.21777 3.10514 0
M  V30 3547 H 324.212 -4.30936 1.82789 0
M  V30 3548 H 324.385 -5.86233 2.76106 0
M  V30 3549 N 317.792 -0.46758 -1.50504 0
M  V30 3550 C 318.722 0.318381 -2.31319 0
M  V30 3551 C 319.703 0.993564 -1.38066 0
M  V30 3552 O 320.888 0.991411 -1.66987 0
M  V30 3553 C 318.018 1.40275 -3.17711 0
M  V30 3554 C 316.972 0.849373 -4.19487 0
M  V30 3555 C 316.298 2.03177 -4.94594 0
M  V30 3556 C 317.598 -0.136942 -5.2212 0
M  V30 3557 H 319.292 -0.356106 -2.97275 0
M  V30 3558 H 316.838 -0.172703 -1.42961 0
M  V30 3559 H 318.791 1.96004 -3.73042 0
M  V30 3560 H 317.515 2.10596 -2.49634 0
M  V30 3561 H 316.174 0.314076 -3.65252 0
M  V30 3562 H 315.822 2.72187 -4.22993 0
M  V30 3563 H 315.522 1.66774 -5.63436 0
M  V30 3564 H 317.046 2.59403 -5.52759 0
M  V30 3565 H 318.46 0.331056 -5.72343 0
M  V30 3566 H 316.857 -0.41507 -5.98663 0
M  V30 3567 H 317.927 -1.06398 -4.73083 0
M  V30 3568 N 319.27 1.56325 -0.20005 0
M  V30 3569 C 320.233 2.18084 0.705132 0
M  V30 3570 C 321.233 1.13666 1.1374 0
M  V30 3571 O 322.423 1.39023 1.04968 0
M  V30 3572 C 319.555 2.78689 1.96329 0
M  V30 3573 H 320.748 2.99435 0.167023 0
M  V30 3574 H 318.301 1.56221 0.0495725 0
M  V30 3575 H 319.036 2.0115 2.5438 0
M  V30 3576 H 318.821 3.55133 1.66202 0
M  V30 3577 H 320.311 3.26096 2.60866 0
M  V30 3578 N 320.748 -0.0735177 1.57428 0
M  V30 3579 C 322.159 -0.625551 1.75908 0
M  V30 3580 C 322.51 -1.78 0.825261 0
M  V30 3581 O 321.635 -2.16398 0.00893964 0
M  V30 3582 C 322.23 -1.14155 3.18989 0
M  V30 3583 C 320.789 -1.63946 3.38819 0
M  V30 3584 C 319.936 -0.558151 2.71625 0
M  V30 3585 H 322.887 0.152647 1.57964 0
M  V30 3586 H 322.908 -2.0104 3.23053 0
M  V30 3587 H 322.42 -0.301116 3.8693 0
M  V30 3588 H 320.521 -2.50321 2.7599 0
M  V30 3589 H 320.634 -1.71759 4.47253 0
M  V30 3590 H 318.998 -1.00278 2.34129 0
M  V30 3591 H 319.781 0.272071 3.4222 0
M  V30 3592 O 322.265 -1.60033 -0.217154 0
M  V30 3593 H 322.956 -1.73663 -0.857964 0
M  V30 END ATOM
M  V30 BEGIN BOND
M  V30 END BOND
M  V30 END CTAB
M  END
$$$$
