drugbank_target|P0AF93 2-iminobutanoate/2-iminopropanoate deaminase (DB03544)
 OpenBabel12092120043D

  0  0  0     0  0            999 V3000
M  V30 BEGIN CTAB
M  V30 COUNTS 1935 1949 0 0 0
M  V30 BEGIN ATOM
M  V30 1 H -0.908 1.98254 -0.117106 0
M  V30 2 N 0 1.576 0 0
M  V30 3 C 0.933 2.03868 1.02534 0
M  V30 4 C 1.911 0.928543 1.3348 0
M  V30 5 O 3.095 1.19667 1.45644 0
M  V30 6 C 0.222 2.43627 2.35294 0
M  V30 7 C -0.732 3.65373 2.2001 0
M  V30 8 S 0.101 5.13292 1.52614 0
M  V30 9 C 1.257 5.56322 2.86805 0
M  V30 10 H 1.49 2.90518 0.631377 0
M  V30 11 H -0.977 1.52953 0.210867 0
M  V30 12 H 0.981 2.67203 3.11629 0
M  V30 13 H -0.358 1.57376 2.7183 0
M  V30 14 H -1.165 3.90944 3.18086 0
M  V30 15 H -1.563 3.418 1.51819 0
M  V30 16 H 0.729 5.58782 3.83104 0
M  V30 17 H 1.672 6.56266 2.65933 0
M  V30 18 H 2.08 4.83886 2.90714 0
M  V30 19 N 1.4781 -0.272755 1.55222 0
M  V30 20 C 2.7031 -1.02683 1.80197 0
M  V30 21 C 3.1281 -1.79142 0.573551 0
M  V30 22 O 2.4861 -1.74917 -0.476849 0
M  V30 23 C 2.5341 -1.9609 3.02624 0
M  V30 24 O 1.6381 -3.04863 2.77727 0
M  V30 25 H 0.9791 -0.293557 0.595584 0
M  V30 26 H 3.5091 -0.30159 2.02365 0
M  V30 27 H 3.5191 -2.38039 3.31363 0
M  V30 28 H 2.1941 -1.39851 3.91682 0
M  V30 29 H 0.7711 -2.67228 2.60084 0
M  V30 30 N 2.9562 -1.48159 -0.537278 0
M  V30 31 C 3.9032 -1.62138 -1.64256 0
M  V30 32 C 4.8732 -0.463668 -1.59497 0
M  V30 33 O 6.0582 -0.686241 -1.78032 0
M  V30 34 C 3.1982 -1.66028 -3.02537 0
M  V30 35 C 2.3112 -2.92855 -3.17585 0
M  V30 36 C 1.4462 -2.87952 -4.46382 0
M  V30 37 C 0.4852 -4.09516 -4.54932 0
M  V30 38 N -0.3778 -4.02733 -5.75109 0
M  V30 39 H 4.4622 -2.56529 -1.51647 0
M  V30 40 H 1.9992 -1.27224 -0.738414 0
M  V30 41 H 3.9572 -1.66265 -3.82638 0
M  V30 42 H 2.5872 -0.751331 -3.13934 0
M  V30 43 H 1.6392 -3.02395 -2.30784 0
M  V30 44 H 2.9512 -3.82822 -3.19764 0
M  V30 45 H 2.1052 -2.8655 -5.34765 0
M  V30 46 H 0.8442 -1.95702 -4.46712 0
M  V30 47 H -0.1508 -4.11201 -3.64957 0
M  V30 48 H 1.0742 -5.02917 -4.56346 0
M  V30 49 H -0.9798 -3.13299 -5.76351 0
M  V30 50 H -1.0628 -4.86397 -5.78752 0
M  V30 51 H 0.2052 -4.05379 -6.65799 0
M  V30 52 N 4.4343 0.785586 -1.36625 0
M  V30 53 C 5.6623 1.57448 -1.3423 0
M  V30 54 C 6.0773 1.88649 0.0755653 0
M  V30 55 O 5.4343 1.50414 1.03354 0
M  V30 56 C 5.4853 2.89316 -2.16745 0
M  V30 57 O 5.2063 2.59459 -3.53005 0
M  V30 58 C 6.7073 3.83606 -2.22174 0
M  V30 59 H 3.9273 0.488226 -0.4603 0
M  V30 60 H 6.4713 0.974733 -1.79775 0
M  V30 61 H 4.6263 3.4575 -1.74745 0
M  V30 62 H 5.0403 3.43804 -3.96105 0
M  V30 63 H 6.5143 4.73181 -2.8426 0
M  V30 64 H 6.9913 4.21734 -1.22627 0
M  V30 65 H 7.5973 3.33104 -2.64427 0
M  V30 66 N 5.9124 1.20967 1.01018 0
M  V30 67 C 7.1614 1.01796 1.74128 0
M  V30 68 C 7.4744 -0.449691 1.90361 0
M  V30 69 O 8.6804 -0.76068 2.60626 0
M  V30 70 C 7.1364 1.7727 3.13215 0
M  V30 71 C 6.7444 3.28171 3.04972 0
M  V30 72 C 8.4884 1.66489 3.90489 0
M  V30 73 C 6.3954 3.96156 4.39107 0
M  V30 74 H 5.3254 0.377276 0.652824 0
M  V30 75 H 7.9764 1.44651 1.12909 0
M  V30 76 H 6.3584 1.27205 3.75013 0
M  V30 77 H 7.5324 3.85499 2.52443 0
M  V30 78 H 5.8474 3.39437 2.41188 0
M  V30 79 H 8.4444 2.14617 4.89738 0
M  V30 80 H 8.7874 0.6222 4.11624 0
M  V30 81 H 9.3204 2.14003 3.35332 0
M  V30 82 H 6.0594 5.00604 4.23174 0
M  V30 83 H 5.5794 3.43617 4.91617 0
M  V30 84 H 7.2584 4.00774 5.07926 0
M  V30 85 N 7.3905 -1.2043 1.01659 0
M  V30 86 C 8.3535 -2.21433 0.591616 0
M  V30 87 C 9.3535 -1.57203 -0.338226 0
M  V30 88 O 10.5435 -1.73737 -0.126918 0
M  V30 89 C 7.6755 -3.40628 -0.136058 0
M  V30 90 H 8.8685 -2.60545 1.48514 0
M  V30 91 H 6.4215 -1.33893 0.806379 0
M  V30 92 H 7.1565 -3.07019 -1.04449 0
M  V30 93 H 6.9415 -3.88475 0.531917 0
M  V30 94 H 8.4315 -4.15475 -0.420735 0
M  V30 95 N 8.8686 -0.792821 -1.36206 0
M  V30 96 C 10.0966 -0.378825 -2.03402 0
M  V30 97 C 10.5116 1.00586 -1.59774 0
M  V30 98 O 9.8686 1.64574 -0.788764 0
M  V30 99 C 9.9196 -0.43683 -3.58851 0
M  V30 100 O 9.6406 -1.76691 -4.00889 0
M  V30 101 C 11.1416 -0.0138943 -4.43298 0
M  V30 102 H 8.3616 -0.155673 -0.652692 0
M  V30 103 H 10.9056 -1.07261 -1.74113 0
M  V30 104 H 9.0606 0.208575 -3.86838 0
M  V30 105 H 9.4746 -1.72011 -4.95492 0
M  V30 106 H 10.9486 -0.105615 -5.51899 0
M  V30 107 H 11.4256 1.03915 -4.2673 0
M  V30 108 H 12.0316 -0.63192 -4.20579 0
M  V30 109 N 10.3467 1.47872 -0.545128 0
M  V30 110 C 11.2567 2.33633 0.212746 0
M  V30 111 C 12.2727 1.4744 0.923983 0
M  V30 112 O 13.4487 1.80393 0.895572 0
M  V30 113 C 10.5137 3.23884 1.23693 0
M  V30 114 C 9.5747 4.25961 0.534417 0
M  V30 115 C 8.8077 5.11899 1.5098 0
M  V30 116 O 9.0307 5.00077 2.7437 0
M  V30 117 O 7.9647 5.92831 1.0409 0
M  V30 118 H 11.7907 2.99714 -0.490416 0
M  V30 119 H 9.3757 1.46235 -0.305871 0
M  V30 120 H 11.2577 3.79666 1.82843 0
M  V30 121 H 9.9327 2.60446 1.92222 0
M  V30 122 H 8.8397 3.73972 -0.0979679 0
M  V30 123 H 10.1727 4.92079 -0.109213 0
M  V30 124 N 11.8248 0.280983 1.55075 0
M  V30 125 C 12.7728 -0.619864 2.24188 0
M  V30 126 C 13.7668 -1.15315 1.24092 0
M  V30 127 O 14.9728 -1.1061 1.42005 0
M  V30 128 H 11.3478 -0.218459 0.719569 0
M  V30 129 H 13.3188 -0.0141831 2.98397 0
M  V30 130 C 12.0678 -1.7899 2.98091 0
M  V30 131 H 11.3908 -1.38874 3.74905 0
M  V30 132 H 12.8308 -2.39672 3.49762 0
M  V30 133 C 11.2898 -2.68192 2.03899 0
M  V30 134 O 11.8198 -3.6872 1.594 0
M  V30 135 N 10.0258 -2.35488 1.70275 0
M  V30 136 H 9.5728 -1.53787 2.06658 0
M  V30 137 H 9.5308 -2.95442 1.07524 0
M  V30 138 N 13.3029 -1.57598 0.00835791 0
M  V30 139 C 14.2659 -2.07884 -0.965242 0
M  V30 140 C 15.2659 -0.989825 -1.26725 0
M  V30 141 O 16.4559 -1.25218 -1.21104 0
M  V30 142 C 13.5879 -2.52731 -2.28779 0
M  V30 143 H 14.7809 -2.95178 -0.530112 0
M  V30 144 H 12.3339 -1.54458 -0.239283 0
M  V30 145 H 13.0689 -1.68705 -2.76964 0
M  V30 146 H 12.8539 -3.32272 -2.08177 0
M  V30 147 H 14.3439 -2.91933 -2.98605 0
M  V30 148 N 14.781 0.264519 -1.55364 0
M  V30 149 C 16.192 0.834936 -1.6699 0
M  V30 150 C 16.543 1.86718 -0.602552 0
M  V30 151 O 15.668 2.14899 0.254425 0
M  V30 152 C 16.263 1.5212 -3.02729 0
M  V30 153 C 14.822 2.03954 -3.16354 0
M  V30 154 C 13.969 0.884498 -2.62815 0
M  V30 155 H 16.92 0.0406869 -1.58648 0
M  V30 156 H 16.941 2.38853 -2.96191 0
M  V30 157 H 16.453 0.769668 -3.80392 0
M  V30 158 H 14.554 2.82041 -2.43482 0
M  V30 159 H 14.667 2.24902 -4.23032 0
M  V30 160 H 13.031 1.2802 -2.20188 0
M  V30 161 H 13.814 0.14634 -3.42988 0
M  V30 162 N 16.2591 1.48442 0.529413 0
M  V30 163 C 17.2221 1.62524 1.61612 0
M  V30 164 C 18.2221 0.498509 1.52877 0
M  V30 165 O 19.4121 0.76431 1.56537 0
M  V30 166 C 16.5441 1.59597 3.01233 0
M  V30 167 H 17.7371 2.59423 1.50465 0
M  V30 168 H 15.2901 1.37047 0.751514 0
M  V30 169 H 16.0251 0.641781 3.17886 0
M  V30 170 H 15.8101 2.41397 3.08982 0
M  V30 171 H 17.3001 1.72646 3.80241 0
M  V30 172 N 17.7372 -0.778329 1.37039 0
M  V30 173 C 18.7002 -1.87301 1.32102 0
M  V30 174 C 19.7002 -1.59198 0.226405 0
M  V30 175 O 20.8902 -1.67403 0.481861 0
M  V30 176 C 18.0222 -3.24309 1.05055 0
M  V30 177 H 19.2152 -1.93093 2.29467 0
M  V30 178 H 16.7682 -0.977358 1.21973 0
M  V30 179 H 17.5032 -3.24196 0.0819373 0
M  V30 180 H 17.2882 -3.46098 1.84279 0
M  V30 181 H 18.7782 -4.04382 1.04234 0
M  V30 182 N 19.2153 -1.21501 -1.00376 0
M  V30 183 C 20.4643 -1.02718 -1.73586 0
M  V30 184 C 20.7773 0.439589 -1.90596 0
M  V30 185 O 21.9833 0.746848 -2.61026 0
M  V30 186 C 20.4393 -1.78929 -3.1227 0
M  V30 187 C 20.0473 -3.29783 -3.03228 0
M  V30 188 C 21.7913 -1.68557 -3.89601 0
M  V30 189 C 19.6983 -3.98479 -4.36999 0
M  V30 190 H 18.6283 -0.380733 -0.650814 0
M  V30 191 H 21.2793 -1.45248 -1.1214 0
M  V30 192 H 19.6613 -1.29192 -3.74333 0
M  V30 193 H 20.8353 -3.86832 -2.50395 0
M  V30 194 H 19.1503 -3.40711 -2.39385 0
M  V30 195 H 21.7473 -2.17211 -4.88593 0
M  V30 196 H 22.0903 -0.644021 -4.11288 0
M  V30 197 H 22.6233 -2.15778 -3.34193 0
M  V30 198 H 19.3623 -5.02841 -4.20513 0
M  V30 199 H 18.8823 -3.46219 -4.89788 0
M  V30 200 H 20.5613 -4.03462 -5.05794 0
M  V30 201 N 20.6934 1.19889 -1.02296 0
M  V30 202 C 21.9414 1.89046 -0.714558 0
M  V30 203 C 22.2624 1.79636 0.758681 0
M  V30 204 O 21.5324 1.20292 1.54618 0
M  V30 205 H 20.1124 0.699802 -0.261317 0
M  V30 206 H 22.7744 1.45574 -1.29592 0
M  V30 207 H 21.8704 2.95524 -1.0036 0
M  V30 208 N 22.1715 0.800033 1.35784 0
M  V30 209 C 23.5825 0.439142 1.81462 0
M  V30 210 C 23.9335 -1.03813 1.66485 0
M  V30 211 O 23.0585 -1.80626 1.19177 0
M  V30 212 C 23.6535 0.790314 3.29453 0
M  V30 213 C 22.2125 0.482111 3.733 0
M  V30 214 C 21.3595 1.01938 2.57883 0
M  V30 215 H 24.3105 0.992254 1.23855 0
M  V30 216 H 24.3315 0.0853677 3.80404 0
M  V30 217 H 23.8435 1.86554 3.40322 0
M  V30 218 H 21.9445 -0.584652 3.67984 0
M  V30 219 H 22.0575 1.01015 4.6833 0
M  V30 220 H 20.4215 0.442043 2.50835 0
M  V30 221 H 21.2045 2.10059 2.71533 0
M  V30 222 N 23.6496 -1.47581 0.552962 0
M  V30 223 C 24.8796 -2.06575 0.0320091 0
M  V30 224 C 25.2876 -1.4067 -1.26525 0
M  V30 225 O 24.6306 -0.495808 -1.76883 0
M  V30 226 C 24.6926 -3.58705 -0.238913 0
M  V30 227 C 24.3566 -4.46625 0.968272 0
M  V30 228 C 25.3536 -4.85 1.87274 0
M  V30 229 C 23.0386 -4.88201 1.18175 0
M  V30 230 C 25.0326 -5.63745 2.9744 0
M  V30 231 C 22.7196 -5.66712 2.28651 0
M  V30 232 C 23.7176 -6.04394 3.18114 0
M  V30 233 O 23.4056 -6.81324 4.26676 0
M  V30 234 H 23.1376 -0.674763 0.0408689 0
M  V30 235 H 25.6916 -1.90634 0.764719 0
M  V30 236 H 23.9216 -3.72844 -1.02588 0
M  V30 237 H 25.6106 -3.99735 -0.704731 0
M  V30 238 H 26.3766 -4.53482 1.71984 0
M  V30 239 H 22.2556 -4.58339 0.494593 0
M  V30 240 H 25.7996 -5.93077 3.67296 0
M  V30 241 H 21.6966 -5.97642 2.43915 0
M  V30 242 H 22.4646 -6.99712 4.24671 0
M  V30 243 N 25.1277 -0.289203 -1.54924 0
M  V30 244 C 26.3737 0.323998 -2.00195 0
M  V30 245 C 26.7067 1.54441 -1.17735 0
M  V30 246 O 25.9817 1.92875 -0.250878 0
M  V30 247 C 26.2647 0.692276 -3.53383 0
M  V30 248 C 26.1177 -0.536457 -4.46589 0
M  V30 249 C 27.4367 1.52335 -4.12895 0
M  V30 250 H 24.5557 0.116289 -0.727768 0
M  V30 251 H 27.1977 -0.398954 -1.85764 0
M  V30 252 H 25.3477 1.30822 -3.65811 0
M  V30 253 H 27.0197 -1.17499 -4.46085 0
M  V30 254 H 25.2627 -1.17192 -4.1767 0
M  V30 255 H 25.9337 -0.234806 -5.515 0
M  V30 256 H 28.4097 1.00302 -4.0383 0
M  V30 257 H 27.2857 1.74982 -5.20262 0
M  V30 258 H 27.5467 2.50886 -3.64018 0
M  V30 259 N 26.6058 1.57591 -0.0167156 0
M  V30 260 C 27.5378 2.06343 0.997753 0
M  V30 261 C 28.5508 0.984469 1.29661 0
M  V30 262 O 29.7398 1.26093 1.26344 0
M  V30 263 C 26.8398 2.46255 2.32834 0
M  V30 264 C 26.0128 3.77083 2.21646 0
M  V30 265 C 25.0718 4.0368 3.37534 0
M  V30 266 O 24.0978 4.7411 3.14973 0
M  V30 267 N 25.2998 3.52881 4.60929 0
M  V30 268 H 28.0648 2.93997 0.581875 0
M  V30 269 H 25.6258 1.61002 0.170316 0
M  V30 270 H 27.6178 2.61149 3.09166 0
M  V30 271 H 26.1878 1.64032 2.66106 0
M  V30 272 H 25.4078 3.72106 1.30119 0
M  V30 273 H 26.6958 4.62822 2.11361 0
M  V30 274 H 26.0938 2.95878 4.82154 0
M  V30 275 H 24.6508 3.73076 5.34469 0
M  V30 276 N 28.0839 -0.256276 1.55502 0
M  V30 277 C 29.3319 -0.983672 1.76545 0
M  V30 278 C 29.6529 -1.86206 0.578982 0
M  V30 279 O 28.9229 -1.91656 -0.405577 0
M  V30 280 H 27.5029 -0.366191 0.651086 0
M  V30 281 H 30.1649 -0.276479 1.92929 0
M  V30 282 H 29.2609 -1.61087 2.67315 0
M  V30 283 N 29.562 -1.4872 -0.521534 0
M  V30 284 C 30.808 -1.574 -1.27879 0
M  V30 285 C 31.141 -0.250817 -1.92573 0
M  V30 286 O 30.416 0.743934 -1.79711 0
M  V30 287 C 30.699 -2.71843 -2.36164 0
M  V30 288 C 30.552 -4.13893 -1.76105 0
M  V30 289 C 31.871 -2.82008 -3.37875 0
M  V30 290 H 28.99 -0.572941 -0.463581 0
M  V30 291 H 31.632 -1.80927 -0.580119 0
M  V30 292 H 29.782 -2.51914 -2.95756 0
M  V30 293 H 31.454 -4.45284 -1.20499 0
M  V30 294 H 29.697 -4.20498 -1.06601 0
M  V30 295 H 30.368 -4.89804 -2.5455 0
M  V30 296 H 32.844 -3.00086 -2.88249 0
M  V30 297 H 31.72 -3.63796 -4.11028 0
M  V30 298 H 31.981 -1.90511 -3.98946 0
M  V30 299 N 31.0401 0.771051 -1.3745 0
M  V30 300 C 32.3171 1.519 -1.23231 0
M  V30 301 C 32.6971 2.10383 0.173809 0
M  V30 302 O 32.0451 1.95583 1.18151 0
M  V30 303 C 32.2551 2.59933 -2.32886 0
M  V30 304 C 33.6031 3.27316 -2.70461 0
M  V30 305 O 34.6271 2.70228 -2.32068 0
M  V30 306 O 33.4861 4.30531 -3.36608 0
M  V30 307 H 30.5801 0.672803 -0.480901 0
M  V30 308 H 33.1261 0.807957 -1.49232 0
M  V30 309 H 31.8981 2.14842 -3.27045 0
M  V30 310 H 31.5211 3.38637 -2.08353 0
M  V30 311 N 32.5182 1.22032 0.997298 0
M  V30 312 C 33.4482 1.01065 2.10495 0
M  V30 313 C 34.4292 -0.0669542 1.69968 0
M  V30 314 O 35.6142 0.0943987 1.9397 0
M  V30 315 C 32.7442 0.582874 3.42374 0
M  V30 316 C 31.6982 1.60592 3.96729 0
M  V30 317 C 31.0242 1.03412 5.24605 0
M  V30 318 C 32.3242 2.99478 4.27914 0
M  V30 319 H 34.0182 1.93708 2.28292 0
M  V30 320 H 31.5642 0.932761 1.09707 0
M  V30 321 H 33.5172 0.423332 4.19268 0
M  V30 322 H 32.2412 -0.379213 3.24391 0
M  V30 323 H 30.9002 1.75316 3.21963 0
M  V30 324 H 30.5482 0.063518 5.0296 0
M  V30 325 H 30.2482 1.71754 5.61938 0
M  V30 326 H 31.7722 0.886066 6.04137 0
M  V30 327 H 33.1862 2.88153 4.95622 0
M  V30 328 H 31.5832 3.64903 4.76409 0
M  V30 329 H 32.6532 3.49742 3.3587 0
M  V30 330 N 33.9963 -1.19345 1.0293 0
M  V30 331 C 35.2443 -1.88665 0.724574 0
M  V30 332 C 35.5653 -1.80036 -0.749144 0
M  V30 333 O 34.8353 -1.2111 -1.53978 0
M  V30 334 H 33.4153 -0.698406 0.265025 0
M  V30 335 H 36.0773 -1.44885 1.30362 0
M  V30 336 H 35.1733 -2.94987 1.01926 0
M  V30 337 N 35.4744 -0.807222 -1.35358 0
M  V30 338 C 36.4224 -0.20614 -2.31685 0
M  V30 339 C 37.4164 0.644445 -1.56663 0
M  V30 340 O 38.6224 0.537538 -1.71786 0
M  V30 341 H 34.9974 -0.0479006 -0.750473 0
M  V30 342 H 36.9684 -1.03369 -2.79924 0
M  V30 343 C 35.7174 0.630212 -3.41941 0
M  V30 344 H 35.0404 -0.0149558 -3.99797 0
M  V30 345 H 36.4804 1.01716 -4.11619 0
M  V30 346 C 34.9394 1.79601 -2.85035 0
M  V30 347 O 35.4694 2.89351 -2.78637 0
M  V30 348 N 33.6754 1.60774 -2.42074 0
M  V30 349 H 33.2224 0.715009 -2.47478 0
M  V30 350 H 33.1804 2.38933 -2.04349 0
M  V30 351 N 36.9525 1.47285 -0.560781 0
M  V30 352 C 37.8855 2.27009 0.232821 0
M  V30 353 C 38.8635 1.34273 0.917039 0
M  V30 354 O 40.0475 1.63659 0.935315 0
M  V30 355 C 37.1745 3.11406 1.33206 0
M  V30 356 C 36.2205 4.19746 0.756019 0
M  V30 357 S 37.0535 5.34003 -0.400165 0
M  V30 358 C 38.2095 6.21964 0.700805 0
M  V30 359 H 38.4425 2.93971 -0.443683 0
M  V30 360 H 35.9755 1.50446 -0.347181 0
M  V30 361 H 37.9335 3.60601 1.96156 0
M  V30 362 H 36.5945 2.438 1.98041 0
M  V30 363 H 35.7875 4.78541 1.5816 0
M  V30 364 H 35.3895 3.73451 0.202619 0
M  V30 365 H 37.6815 6.58529 1.59202 0
M  V30 366 H 38.6245 7.07941 0.150126 0
M  V30 367 H 39.0325 5.5566 0.995083 0
M  V30 368 N 38.4306 0.297415 1.54768 0
M  V30 369 C 39.6796 -0.313669 1.99246 0
M  V30 370 C 39.9926 -1.55281 1.18942 0
M  V30 371 O 41.1986 -2.23825 1.5367 0
M  V30 372 C 39.6546 -0.609407 3.54703 0
M  V30 373 C 39.2626 0.611192 4.43811 0
M  V30 374 C 41.0066 -1.18188 4.07715 0
M  V30 375 C 38.9136 0.288805 5.90694 0
M  V30 376 H 37.8436 -0.120979 0.744231 0
M  V30 377 H 40.4946 0.40556 1.78962 0
M  V30 378 H 38.8766 -1.38813 3.70873 0
M  V30 379 H 40.0506 1.3875 4.39414 0
M  V30 380 H 38.3656 1.10205 4.01552 0
M  V30 381 H 40.9626 -1.43727 5.15021 0
M  V30 382 H 41.3056 -2.12299 3.58099 0
M  V30 383 H 41.8386 -0.464944 3.95074 0
M  V30 384 H 38.5776 1.19838 6.44453 0
M  V30 385 H 38.0976 -0.450305 5.98107 0
M  V30 386 H 39.7766 -0.110933 6.46905 0
M  V30 387 N 39.9087 -1.5758 0.0250728 0
M  V30 388 C 41.1577 -1.90811 -0.653767 0
M  V30 389 C 41.4707 -0.90273 -1.73523 0
M  V30 390 O 42.6767 -1.12614 -2.47043 0
M  V30 391 C 41.1327 -3.38804 -1.21409 0
M  V30 392 C 40.7407 -4.47692 -0.166126 0
M  V30 393 C 42.4847 -3.81108 -1.86967 0
M  V30 394 C 40.3917 -5.86779 -0.737856 0
M  V30 395 H 39.3217 -0.712063 -0.247956 0
M  V30 396 H 41.9727 -1.83281 0.0897137 0
M  V30 397 H 40.3547 -3.41252 -2.00905 0
M  V30 398 H 41.5287 -4.56797 0.606079 0
M  V30 399 H 39.8437 -4.14565 0.390466 0
M  V30 400 H 42.4407 -4.82375 -2.30692 0
M  V30 401 H 42.7837 -3.15953 -2.71071 0
M  V30 402 H 43.3167 -3.81065 -1.14167 0
M  V30 403 H 40.0557 -6.55468 0.0649577 0
M  V30 404 H 39.5757 -5.81288 -1.47864 0
M  V30 405 H 41.2547 -6.35223 -1.22884 0
M  V30 406 N 41.3868 0.248026 -1.55636 0
M  V30 407 C 42.6148 0.993808 -1.81469 0
M  V30 408 C 43.0298 1.78991 -0.60064 0
M  V30 409 O 42.3868 1.77345 0.430682 0
M  V30 410 C 42.4378 1.93258 -3.05506 0
M  V30 411 O 42.1588 1.16869 -4.22224 0
M  V30 412 C 43.6598 2.79444 -3.4413 0
M  V30 413 H 40.8798 0.292486 -0.603898 0
M  V30 414 H 43.4238 0.271253 -2.02693 0
M  V30 415 H 41.5788 2.60943 -2.86335 0
M  V30 416 H 41.9928 1.80359 -4.92515 0
M  V30 417 H 43.4668 3.41066 -4.34026 0
M  V30 418 H 43.9438 3.50499 -2.64665 0
M  V30 419 H 44.5498 2.17214 -3.65648 0
M  V30 420 N 42.8649 1.48995 0.513639 0
M  V30 421 C 44.0899 1.61792 1.29762 0
M  V30 422 C 44.5149 0.284475 1.85936 0
M  V30 423 O 43.8729 -0.746185 1.65232 0
M  V30 424 C 43.9209 2.67993 2.41272 0
M  V30 425 O 43.0249 2.26287 3.44772 0
M  V30 426 H 42.3659 0.541963 0.38363 0
M  V30 427 H 44.8959 1.95097 0.616307 0
M  V30 428 H 44.9059 2.89772 2.87221 0
M  V30 429 H 43.5809 3.64791 1.9975 0
M  V30 430 H 42.1579 2.14788 3.04829 0
M  V30 431 N 44.343 -0.763751 1.37857 0
M  V30 432 C 45.591 -1.51957 1.33243 0
M  V30 433 C 45.912 -1.94835 -0.0801709 0
M  V30 434 O 45.182 -1.66894 -1.02582 0
M  V30 435 H 43.762 -0.563626 0.49024 0
M  V30 436 H 46.424 -0.908504 1.7243 0
M  V30 437 H 45.52 -2.41523 1.97669 0
M  V30 438 N 45.8211 -1.22559 -0.990812 0
M  V30 439 C 46.7531 -0.955325 -2.08342 0
M  V30 440 C 47.7661 0.0668408 -1.62663 0
M  V30 441 O 48.9551 -0.167421 -1.77713 0
M  V30 442 C 46.0551 -0.415566 -3.36342 0
M  V30 443 C 45.2281 -1.49544 -4.11042 0
M  V30 444 C 44.2871 -0.962399 -5.17324 0
M  V30 445 O 43.3131 -1.64907 -5.44788 0
M  V30 446 N 44.5151 0.215134 -5.80101 0
M  V30 447 H 47.2801 -1.89596 -2.32106 0
M  V30 448 H 44.8411 -1.13276 -1.15673 0
M  V30 449 H 46.8331 -0.0442386 -4.04676 0
M  V30 450 H 45.4031 0.430232 -3.09625 0
M  V30 451 H 44.6231 -2.04 -3.37309 0
M  V30 452 H 45.9111 -2.22195 -4.57719 0
M  V30 453 H 45.3091 0.789779 -5.6016 0
M  V30 454 H 43.8661 0.527826 -6.49659 0
M  V30 455 N 47.2992 1.18797 -1.03562 0
M  V30 456 C 48.5482 1.87978 -0.731235 0
M  V30 457 C 48.8612 1.80911 0.743671 0
M  V30 458 O 50.0672 2.45407 1.16137 0
M  V30 459 C 48.5232 3.3721 -1.25768 0
M  V30 460 C 48.1312 3.52818 -2.76085 0
M  V30 461 C 49.8752 4.11825 -1.0296 0
M  V30 462 C 47.7822 4.9598 -3.22114 0
M  V30 463 H 46.7122 0.704063 -0.269835 0
M  V30 464 H 49.3632 1.34266 -1.25079 0
M  V30 465 H 47.7452 3.90359 -0.666011 0
M  V30 466 H 48.9192 3.09965 -3.40966 0
M  V30 467 H 47.2342 2.91602 -2.97249 0
M  V30 468 H 49.8312 5.17411 -1.34869 0
M  V30 469 H 50.1742 4.16287 0.0333546 0
M  V30 470 H 50.7072 3.64833 -1.58562 0
M  V30 471 H 47.4462 4.96684 -4.27768 0
M  V30 472 H 46.9662 5.39569 -2.61965 0
M  V30 473 H 48.6452 5.6467 -3.15844 0
M  V30 474 N 48.7773 0.814389 1.34928 0
M  V30 475 C 50.1883 0.458364 1.80986 0
M  V30 476 C 50.5393 -1.02042 1.67577 0
M  V30 477 O 49.6643 -1.79352 1.21086 0
M  V30 478 C 50.2593 0.825212 3.28597 0
M  V30 479 C 48.8183 0.521677 3.72767 0
M  V30 480 C 47.9653 1.04668 2.56788 0
M  V30 481 H 50.9163 1.00533 1.22795 0
M  V30 482 H 50.9373 0.12571 3.80292 0
M  V30 483 H 50.4493 1.90154 3.38324 0
M  V30 484 H 48.5503 -0.545589 3.68584 0
M  V30 485 H 48.6633 1.05977 4.67232 0
M  V30 486 H 47.0273 0.468622 2.50352 0
M  V30 487 H 47.8103 2.12927 2.6929 0
M  V30 488 N 50.2554 -1.46986 0.568584 0
M  V30 489 C 51.5014 -2.02741 0.0488709 0
M  V30 490 C 51.8344 -1.44077 -1.30214 0
M  V30 491 O 51.1094 -0.600552 -1.84996 0
M  V30 492 C 51.3924 -3.60086 -0.032047 0
M  V30 493 C 51.2454 -4.29162 1.34686 0
M  V30 494 C 52.5644 -4.33838 -0.739798 0
M  V30 495 H 49.6834 -0.736749 0.0192338 0
M  V30 496 H 52.3254 -1.75289 0.733065 0
M  V30 497 H 50.4754 -3.83606 -0.61473 0
M  V30 498 H 52.1474 -4.16948 1.97362 0
M  V30 499 H 50.3904 -3.89073 1.91846 0
M  V30 500 H 51.0614 -5.37826 1.24285 0
M  V30 501 H 53.5374 -4.15378 -0.244939 0
M  V30 502 H 52.4134 -5.43537 -0.765406 0
M  V30 503 H 52.6744 -4.03875 -1.79827 0
M  V30 504 N 51.7335 -0.305618 -1.54608 0
M  V30 505 C 52.6815 0.584119 -2.25146 0
M  V30 506 C 53.6755 1.13326 -1.25911 0
M  V30 507 O 54.8815 1.08337 -1.43747 0
M  V30 508 H 51.2565 0.206983 -0.722954 0
M  V30 509 H 53.2275 -0.033291 -2.98381 0
M  V30 510 C 51.9765 1.74225 -3.009 0
M  V30 511 H 51.2995 1.32892 -3.77067 0
M  V30 512 H 52.7395 2.34077 -3.53531 0
M  V30 513 C 51.1985 2.64914 -2.0814 0
M  V30 514 O 51.7285 3.66137 -1.65246 0
M  V30 515 N 49.9345 2.3275 -1.74 0
M  V30 516 H 49.4815 1.50479 -2.09078 0
M  V30 517 H 49.4395 2.93694 -1.12211 0
M  V30 518 N 53.2116 1.57565 -0.0334293 0
M  V30 519 C 54.6226 1.79746 0.504798 0
M  V30 520 C 54.9736 0.944091 1.71992 0
M  V30 521 O 54.0986 0.155694 2.15839 0
M  V30 522 C 54.6936 3.25997 0.922567 0
M  V30 523 C 53.2526 3.49159 1.40588 0
M  V30 524 C 52.3996 2.74785 0.372633 0
M  V30 525 H 55.3506 1.56565 -0.259436 0
M  V30 526 H 55.3716 3.35945 1.78666 0
M  V30 527 H 54.8836 3.88081 0.0379825 0
M  V30 528 H 52.9846 2.92332 2.31025 0
M  V30 529 H 53.0976 4.57873 1.41028 0
M  V30 530 H 51.4616 2.40391 0.841672 0
M  V30 531 H 52.2446 3.39587 -0.503559 0
M  V30 532 N 54.6897 -0.239769 1.55765 0
M  V30 533 C 55.6367 -1.29696 1.90913 0
M  V30 534 C 56.6067 -1.47478 0.764164 0
M  V30 535 O 57.7917 -1.61345 1.01845 0
M  V30 536 C 54.9317 -2.64598 2.21544 0
M  V30 537 C 54.0447 -2.54765 3.48882 0
M  V30 538 C 53.1797 -3.82069 3.69049 0
M  V30 539 C 52.2187 -3.66883 4.89963 0
M  V30 540 N 51.3557 -4.86094 5.06614 0
M  V30 541 H 56.1957 -0.990224 2.81067 0
M  V30 542 H 53.7327 -0.477684 1.39128 0
M  V30 543 H 55.6907 -3.43132 2.3731 0
M  V30 544 H 54.3207 -2.93405 1.34585 0
M  V30 545 H 53.3727 -1.67763 3.41409 0
M  V30 546 H 54.6847 -2.39457 4.37563 0
M  V30 547 H 53.8387 -4.69046 3.84812 0
M  V30 548 H 52.5777 -4.00282 2.78614 0
M  V30 549 H 51.5827 -2.78289 4.74168 0
M  V30 550 H 52.8077 -3.50157 5.81865 0
M  V30 551 H 50.7537 -5.04655 4.19117 0
M  V30 552 H 50.6707 -4.73443 5.89396 0
M  V30 553 H 51.9387 -5.74549 5.26795 0
M  V30 554 N 56.1678 -1.49265 -0.50573 0
M  V30 555 C 57.3958 -1.62215 -1.28429 0
M  V30 556 C 57.8108 -0.291697 -1.86533 0
M  V30 557 O 57.1678 0.722233 -1.67601 0
M  V30 558 C 57.2188 -2.68735 -2.41793 0
M  V30 559 O 56.9398 -3.96619 -1.86078 0
M  V30 560 C 58.4408 -2.92346 -3.3324 0
M  V30 561 H 55.6608 -0.546239 -0.389697 0
M  V30 562 H 58.2048 -1.95265 -0.607609 0
M  V30 563 H 56.3598 -2.38476 -3.053 0
M  V30 564 H 56.7738 -4.55256 -2.60465 0
M  V30 565 H 58.2478 -3.70623 -4.09075 0
M  V30 566 H 58.7248 -2.02081 -3.89948 0
M  V30 567 H 59.3308 -3.24003 -2.75503 0
M  V30 568 N 57.6459 0.756429 -1.3826 0
M  V30 569 C 58.8939 1.51248 -1.34047 0
M  V30 570 C 59.2149 1.94875 0.0698372 0
M  V30 571 O 58.4849 1.67436 1.01696 0
M  V30 572 H 57.0649 0.561018 -0.493222 0
M  V30 573 H 59.7269 0.899347 -1.7291 0
M  V30 574 H 58.8229 2.40472 -1.98947 0
M  V30 575 N 59.124 1.23083 0.984299 0
M  V30 576 C 60.034 1.02515 2.11016 0
M  V30 577 C 61.05 -0.0291702 1.73976 0
M  V30 578 O 62.226 0.165434 2.00719 0
M  V30 579 C 59.291 0.614673 3.41208 0
M  V30 580 C 58.352 1.74359 3.92297 0
M  V30 581 C 57.585 1.35261 5.16275 0
M  V30 582 O 57.808 0.235136 5.69915 0
M  V30 583 O 56.742 2.17227 5.61334 0
M  V30 584 H 60.568 1.96862 2.31255 0
M  V30 585 H 58.153 1.01753 1.09392 0
M  V30 586 H 60.035 0.396518 4.1953 0
M  V30 587 H 58.71 -0.299851 3.22308 0
M  V30 588 H 57.617 2.01635 3.1511 0
M  V30 589 H 58.95 2.63629 4.15645 0
M  V30 590 N 60.6021 -1.18246 1.0419 0
M  V30 591 C 61.8481 -1.88536 0.747122 0
M  V30 592 C 62.1811 -1.80223 -0.723409 0
M  V30 593 O 61.4561 -1.20337 -1.52804 0
M  V30 594 C 61.7391 -3.38968 1.21544 0
M  V30 595 C 61.5921 -3.56084 2.74816 0
M  V30 596 C 62.9111 -4.32648 0.806482 0
M  V30 597 H 60.0301 -0.684619 0.272883 0
M  V30 598 H 62.6721 -1.39113 1.29413 0
M  V30 599 H 60.8221 -3.8119 0.750081 0
M  V30 600 H 62.4941 -3.22946 3.29399 0
M  V30 601 H 60.7371 -2.98699 3.14582 0
M  V30 602 H 61.4081 -4.61639 3.02644 0
M  V30 603 H 63.8841 -3.98211 1.20695 0
M  V30 604 H 62.7601 -5.36462 1.1619 0
M  V30 605 H 63.0211 -4.41146 -0.29029 0
M  V30 606 N 62.0802 -0.821533 -1.34494 0
M  V30 607 C 63.4912 -0.467956 -1.8074 0
M  V30 608 C 63.8422 1.01151 -1.68116 0
M  V30 609 O 62.9672 1.78707 -1.22036 0
M  V30 610 C 63.5622 -0.842627 -3.28154 0
M  V30 611 C 62.1212 -0.541439 -3.72485 0
M  V30 612 C 61.2682 -1.06028 -2.56229 0
M  V30 613 H 64.2192 -1.01183 -1.22261 0
M  V30 614 H 64.2402 -0.145876 -3.8022 0
M  V30 615 H 63.7522 -1.91945 -3.37311 0
M  V30 616 H 61.8532 0.526034 -3.68868 0
M  V30 617 H 61.9662 -1.08453 -4.66663 0
M  V30 618 H 60.3302 -0.481892 -2.501 0
M  V30 619 H 61.1132 -2.14352 -2.68157 0
M  V30 620 N 63.5583 1.46682 -0.576371 0
M  V30 621 C 64.5213 2.28707 0.150239 0
M  V30 622 C 65.5213 1.38035 0.824794 0
M  V30 623 O 66.7113 1.60476 0.677719 0
M  V30 624 C 63.8433 3.18248 1.22192 0
M  V30 625 H 65.0363 2.94423 -0.570521 0
M  V30 626 H 62.5893 1.52688 -0.334078 0
M  V30 627 H 63.3243 2.57265 1.97447 0
M  V30 628 H 63.1093 3.85 0.742812 0
M  V30 629 H 64.5993 3.80001 1.73172 0
M  V30 630 N 65.0364 0.313813 1.54444 0
M  V30 631 C 66.3134 -0.345447 1.92525 0
M  V30 632 C 66.6934 -1.70667 1.24242 0
M  V30 633 O 66.0414 -2.25273 0.382654 0
M  V30 634 C 66.2514 -0.44737 3.46121 0
M  V30 635 C 67.5994 -0.712238 4.18584 0
M  V30 636 O 68.6234 -0.530678 3.52225 0
M  V30 637 O 67.4824 -1.06183 5.36085 0
M  V30 638 H 64.5764 -0.195407 0.803583 0
M  V30 639 H 67.1224 0.362813 1.65776 0
M  V30 640 H 65.8944 0.509043 3.87975 0
M  V30 641 H 65.5174 -1.20359 3.78945 0
M  V30 642 N 66.5145 -1.57545 0.0417849 0
M  V30 643 C 67.7605 -1.92601 -0.635021 0
M  V30 644 C 68.0935 -0.919627 -1.71045 0
M  V30 645 O 67.3685 0.0557892 -1.9442 0
M  V30 646 C 67.6515 -3.38085 -1.23979 0
M  V30 647 C 67.5045 -4.49467 -0.173057 0
M  V30 648 C 68.8235 -3.83776 -2.15416 0
M  V30 649 H 65.9425 -0.700397 -0.229374 0
M  V30 650 H 68.5845 -1.89728 0.101633 0
M  V30 651 H 66.7345 -3.40664 -1.86762 0
M  V30 652 H 68.4065 -4.59018 0.458312 0
M  V30 653 H 66.6495 -4.30909 0.499996 0
M  V30 654 H 67.3205 -5.48323 -0.636054 0
M  V30 655 H 69.7965 -3.83013 -1.62605 0
M  V30 656 H 68.6725 -4.8624 -2.54679 0
M  V30 657 H 68.9335 -3.19998 -3.05047 0
M  V30 658 N 67.9926 0.231505 -1.5589 0
M  V30 659 C 68.9556 1.27028 -1.90779 0
M  V30 660 C 69.9556 1.40308 -0.785507 0
M  V30 661 O 71.1456 1.38744 -1.05336 0
M  V30 662 C 68.2776 2.64566 -2.14983 0
M  V30 663 H 69.4706 0.973017 -2.83677 0
M  V30 664 H 67.0236 0.471486 -1.49019 0
M  V30 665 H 67.7586 2.99406 -1.24604 0
M  V30 666 H 67.5436 2.56305 -2.96732 0
M  V30 667 H 69.0336 3.39543 -2.43105 0
M  V30 668 N 69.4707 1.49531 0.497807 0
M  V30 669 C 70.4337 1.65916 1.58128 0
M  V30 670 C 71.4337 0.530825 1.51786 0
M  V30 671 O 72.6237 0.797342 1.54881 0
M  V30 672 C 69.7557 1.65951 2.9778 0
M  V30 673 H 70.9487 2.62556 1.44929 0
M  V30 674 H 68.5017 1.38611 0.722275 0
M  V30 675 H 69.2367 0.709065 3.16453 0
M  V30 676 H 69.0217 2.47897 3.03792 0
M  V30 677 H 70.5117 1.80673 3.76493 0
M  V30 678 N 70.9488 -0.749086 1.3866 0
M  V30 679 C 71.8808 -1.87273 1.32142 0
M  V30 680 C 72.8938 -1.61127 0.232787 0
M  V30 681 O 74.0828 -1.71623 0.49069 0
M  V30 682 C 71.1828 -3.23005 1.02571 0
M  V30 683 C 70.3558 -3.7662 2.22433 0
M  V30 684 C 69.4148 -4.90879 1.89537 0
M  V30 685 O 68.4408 -5.05276 2.62078 0
M  V30 686 N 69.6428 -5.74198 0.853031 0
M  V30 687 H 72.4078 -1.93373 2.28969 0
M  V30 688 H 69.9688 -0.929216 1.32579 0
M  V30 689 H 71.9608 -3.96992 0.786085 0
M  V30 690 H 70.5308 -3.12262 0.145249 0
M  V30 691 H 69.7508 -2.94147 2.62434 0
M  V30 692 H 71.0388 -4.09173 3.02415 0
M  V30 693 H 70.4368 -5.6514 0.25155 0
M  V30 694 H 68.9938 -6.48313 0.67329 0
M  V30 695 N 72.4269 -1.23603 -0.977757 0
M  V30 696 C 73.3899 -1.02069 -2.05218 0
M  V30 697 C 74.3899 0.0184305 -1.60789 0
M  V30 698 O 75.5799 -0.221569 -1.72785 0
M  V30 699 C 72.7119 -0.544926 -3.36517 0
M  V30 700 H 73.9049 -1.9742 -2.25755 0
M  V30 701 H 71.4579 -1.05684 -1.15155 0
M  V30 702 H 72.1929 0.412241 -3.21669 0
M  V30 703 H 71.9779 -1.2948 -3.70105 0
M  V30 704 H 73.4679 -0.414985 -4.15533 0
M  V30 705 N 73.905 1.17692 -1.04816 0
M  V30 706 C 75.321 1.39863 -0.768794 0
M  V30 707 C 75.521 1.91118 0.638451 0
M  V30 708 O 74.577 2.10036 1.40146 0
M  V30 709 C 75.89 2.39274 -1.82122 0
M  V30 710 C 77.438 2.52987 -1.843 0
M  V30 711 C 77.913 3.55669 -2.88555 0
M  V30 712 N 79.404 3.63183 -2.87493 0
M  V30 713 C 80.139 4.42381 -3.64811 0
M  V30 714 N 79.635 5.25125 -4.51903 0
M  V30 715 N 81.428 4.37217 -3.53267 0
M  V30 716 H 73.579 0.82752 -1.95617 0
M  V30 717 H 75.842 0.426123 -0.846831 0
M  V30 718 H 75.548 2.08678 -2.83102 0
M  V30 719 H 75.422 3.38725 -1.65967 0
M  V30 720 H 77.809 2.82896 -0.839869 0
M  V30 721 H 77.89 1.53623 -2.04532 0
M  V30 722 H 77.534 3.26499 -3.89051 0
M  V30 723 H 77.464 4.54728 -2.65575 0
M  V30 724 H 79.955 3.04103 -2.24343 0
M  V30 725 H 80.268 5.82728 -5.07591 0
M  V30 726 H 78.613 5.24519 -4.55966 0
M  V30 727 H 81.804 3.71626 -2.84625 0
M  V30 728 H 81.977 4.98696 -4.13771 0
M  V30 729 N 75.3831 0.828654 1.34056 0
M  V30 730 C 76.3151 0.212052 2.28217 0
M  V30 731 C 77.3281 -0.601362 1.51286 0
M  V30 732 O 78.5171 -0.430104 1.73241 0
M  V30 733 C 75.6171 -0.72088 3.31144 0
M  V30 734 C 74.7901 0.0509587 4.3737 0
M  V30 735 C 73.8491 -0.803766 5.20025 0
M  V30 736 O 72.8751 -0.246667 5.68665 0
M  V30 737 N 74.0771 -2.1227 5.40298 0
M  V30 738 H 76.8421 1.02105 2.81771 0
M  V30 739 H 74.4031 0.686153 1.46641 0
M  V30 740 H 76.3951 -1.29742 3.8334 0
M  V30 741 H 74.9651 -1.43061 2.77943 0
M  V30 742 H 74.1851 0.808831 3.85813 0
M  V30 743 H 75.4731 0.582065 5.0546 0
M  V30 744 H 74.8711 -2.59898 5.02464 0
M  V30 745 H 73.4281 -2.64796 5.95589 0
M  V30 746 N 76.8612 -1.46375 0.584142 0
M  V30 747 C 78.0862 -2.07268 0.0740405 0
M  V30 748 C 78.5112 -1.42979 -1.22223 0
M  V30 749 O 77.8692 -0.514092 -1.73859 0
M  V30 750 C 77.9172 -3.60518 -0.0767769 0
M  V30 751 O 77.0212 -3.96533 -1.13292 0
M  V30 752 H 76.3622 -0.660961 0.0634524 0
M  V30 753 H 78.8922 -1.87991 0.807492 0
M  V30 754 H 78.9022 -4.07021 -0.282489 0
M  V30 755 H 77.5772 -4.06702 0.86986 0
M  V30 756 H 76.1542 -3.61738 -0.905553 0
M  V30 757 N 78.3393 -0.321999 -1.54275 0
M  V30 758 C 79.2693 0.537411 -2.27231 0
M  V30 759 C 80.2503 1.12064 -1.27968 0
M  V30 760 O 81.4353 1.14606 -1.56777 0
M  V30 761 C 78.5653 1.69919 -3.02894 0
M  V30 762 C 77.5193 1.24534 -4.09482 0
M  V30 763 C 76.8453 2.49394 -4.72977 0
M  V30 764 C 78.1453 0.361335 -5.21049 0
M  V30 765 H 79.8393 -0.0711406 -2.99315 0
M  V30 766 H 77.3853 -0.0356555 -1.43956 0
M  V30 767 H 79.3383 2.30668 -3.52662 0
M  V30 768 H 78.0623 2.33431 -2.28424 0
M  V30 769 H 76.7213 0.660782 -3.60596 0
M  V30 770 H 76.3693 3.11265 -3.95124 0
M  V30 771 H 76.0693 2.19718 -5.44975 0
M  V30 772 H 77.5933 3.10908 -5.25517 0
M  V30 773 H 79.0073 0.875072 -5.66582 0
M  V30 774 H 77.4043 0.157428 -5.99893 0
M  V30 775 H 78.4743 -0.60822 -4.8107 0
M  V30 776 N 79.8174 1.5752 -0.0501392 0
M  V30 777 C 81.0944 1.83996 0.663685 0
M  V30 778 C 81.4744 0.938339 1.89099 0
M  V30 779 O 80.8224 -0.00087759 2.285 0
M  V30 780 C 81.0324 3.33702 1.02196 0
M  V30 781 C 82.3804 4.00691 1.40469 0
M  V30 782 O 83.4044 3.38321 1.11433 0
M  V30 783 O 82.2634 5.10658 1.94654 0
M  V30 784 H 79.3574 0.759385 0.32751 0
M  V30 785 H 81.9034 1.69514 -0.0794238 0
M  V30 786 H 80.6754 3.91015 0.149364 0
M  V30 787 H 80.2984 3.53368 1.82255 0
M  V30 788 N 81.2955 -0.223234 1.56011 0
M  V30 789 C 82.2435 -1.29627 1.93131 0
M  V30 790 C 83.2375 -1.48608 0.813146 0
M  V30 791 O 84.4435 -1.49802 0.997966 0
M  V30 792 H 80.8185 -0.434563 0.613726 0
M  V30 793 H 82.7895 -0.955995 2.82672 0
M  V30 794 C 81.5385 -2.63983 2.26292 0
M  V30 795 H 80.8615 -2.50185 3.11846 0
M  V30 796 H 82.3015 -3.3788 2.56151 0
M  V30 797 C 80.7605 -3.18866 1.08747 0
M  V30 798 O 81.2905 -4.00192 0.347727 0
M  V30 799 N 79.4965 -2.77217 0.871743 0
M  V30 800 H 79.0435 -2.1119 1.47501 0
M  V30 801 H 79.0015 -3.1428 0.0869905 0
M  V30 802 N 82.7736 -1.49793 -0.48987 0
M  V30 803 C 84.0196 -1.60078 -1.24511 0
M  V30 804 C 84.3526 -0.291608 -1.91998 0
M  V30 805 O 83.6276 0.705647 -1.81248 0
M  V30 806 C 83.9106 -2.76791 -2.30345 0
M  V30 807 C 83.7636 -4.17535 -1.67286 0
M  V30 808 C 85.0826 -2.89111 -3.31817 0
M  V30 809 H 82.2016 -0.582645 -0.451324 0
M  V30 810 H 84.8436 -1.82117 -0.541612 0
M  V30 811 H 82.9936 -2.5813 -2.90346 0
M  V30 812 H 84.6656 -4.4774 -1.11026 0
M  V30 813 H 82.9086 -4.22665 -0.976577 0
M  V30 814 H 83.5796 -4.95094 -2.44103 0
M  V30 815 H 86.0556 -3.06133 -2.81819 0
M  V30 816 H 84.9316 -3.72433 -4.03219 0
M  V30 817 H 85.1926 -1.9893 -3.94815 0
M  V30 818 N 84.2517 0.741722 -1.39055 0
M  V30 819 C 85.1987 1.85566 -1.37237 0
M  V30 820 C 86.1687 1.64457 -0.233072 0
M  V30 821 O 87.3537 1.85957 -0.427147 0
M  V30 822 C 84.4937 3.23004 -1.215 0
M  V30 823 C 83.6067 3.55864 -2.44918 0
M  V30 824 C 82.7417 4.82669 -2.21821 0
M  V30 825 C 81.7807 5.08351 -3.40948 0
M  V30 826 N 80.9177 6.26356 -3.17211 0
M  V30 827 H 85.7577 1.86455 -2.32462 0
M  V30 828 H 83.2947 0.911176 -1.15482 0
M  V30 829 H 85.2527 4.02331 -1.10389 0
M  V30 830 H 83.8827 3.21411 -0.29908 0
M  V30 831 H 82.9347 2.7129 -2.66657 0
M  V30 832 H 84.2467 3.70765 -3.33668 0
M  V30 833 H 83.4007 5.69962 -2.07914 0
M  V30 834 H 82.1397 4.69929 -1.30454 0
M  V30 835 H 81.1447 4.19522 -3.55361 0
M  V30 836 H 82.3697 5.22981 -4.33207 0
M  V30 837 H 80.3157 6.14917 -2.28502 0
M  V30 838 H 80.2327 6.41813 -3.99515 0
M  V30 839 H 81.5007 7.16506 -3.06984 0
M  V30 840 N 85.7298 1.2412 0.971189 0
M  V30 841 C 86.6928 1.03156 2.04674 0
M  V30 842 C 87.6928 -0.00990322 1.60797 0
M  V30 843 O 88.8828 0.230729 1.72665 0
M  V30 844 C 86.0148 0.562765 3.36223 0
M  V30 845 H 87.2078 1.98614 2.24705 0
M  V30 846 H 84.7608 1.06293 1.14593 0
M  V30 847 H 85.4958 -0.395176 3.21883 0
M  V30 848 H 85.2808 1.31441 3.69413 0
M  V30 849 H 86.7708 0.437015 4.15307 0
M  V30 850 N 87.2079 -1.17134 1.05439 0
M  V30 851 C 88.4569 -1.86791 0.761049 0
M  V30 852 C 88.7699 -1.82072 -0.714795 0
M  V30 853 O 89.9759 -2.47223 -1.12218 0
M  V30 854 C 88.4319 -3.35166 1.31117 0
M  V30 855 C 88.0399 -3.48381 2.81664 0
M  V30 856 C 89.7839 -4.10134 1.09499 0
M  V30 857 C 87.6909 -4.90793 3.29964 0
M  V30 858 H 86.6209 -0.699681 0.281002 0
M  V30 859 H 89.2719 -1.3226 1.27199 0
M  V30 860 H 87.6539 -3.8925 0.72803 0
M  V30 861 H 88.8279 -3.04502 3.45855 0
M  V30 862 H 87.1429 -2.86836 3.01851 0
M  V30 863 H 89.7399 -5.152 1.43084 0
M  V30 864 H 90.0829 -4.16287 0.0328772 0
M  V30 865 H 90.6159 -3.62264 1.64346 0
M  V30 866 H 87.3549 -4.89816 4.35616 0
M  V30 867 H 86.8749 -5.35333 2.70516 0
M  V30 868 H 88.5539 -5.59573 3.24787 0
M  V30 869 N 88.686 -0.835752 -1.33615 0
M  V30 870 C 89.932 -0.430596 -1.98176 0
M  V30 871 C 90.265 1.00684 -1.66061 0
M  V30 872 O 89.54 1.70339 -0.938877 0
M  V30 873 C 89.823 -0.648065 -3.5422 0
M  V30 874 C 89.676 -2.13255 -3.96033 0
M  V30 875 C 90.995 -0.0922113 -4.40003 0
M  V30 876 H 88.114 -0.157924 -0.719881 0
M  V30 877 H 90.756 -1.05069 -1.58305 0
M  V30 878 H 88.906 -0.120237 -3.88314 0
M  V30 879 H 90.578 -2.725 -3.72211 0
M  V30 880 H 88.821 -2.61823 -3.45878 0
M  V30 881 H 89.492 -2.23547 -5.04708 0
M  V30 882 H 91.968 -0.543343 -4.12537 0
M  V30 883 H 90.844 -0.274083 -5.48215 0
M  V30 884 H 91.105 1.00378 -4.30554 0
M  V30 885 N 90.1641 1.46063 -0.591896 0
M  V30 886 C 91.0741 2.34192 0.13831 0
M  V30 887 C 92.0901 1.50305 0.876608 0
M  V30 888 O 93.2661 1.8315 0.837728 0
M  V30 889 C 90.3311 3.27656 1.13326 0
M  V30 890 C 89.3921 4.27445 0.39863 0
M  V30 891 C 88.6251 5.16443 1.34618 0
M  V30 892 O 88.8481 5.08553 2.58321 0
M  V30 893 O 87.7821 5.95843 0.851768 0
M  V30 894 H 91.6081 2.98002 -0.58552 0
M  V30 895 H 89.1931 1.45188 -0.352239 0
M  V30 896 H 91.0751 3.85291 1.70671 0
M  V30 897 H 89.7501 2.6643 1.83839 0
M  V30 898 H 88.6571 3.73471 -0.216895 0
M  V30 899 H 89.9901 4.91482 -0.265709 0
M  V30 900 N 91.6422 0.330177 1.54103 0
M  V30 901 C 92.6052 -0.520144 2.2322 0
M  V30 902 C 93.6052 -1.03828 1.22786 0
M  V30 903 O 94.7952 -0.929652 1.4732 0
M  V30 904 C 91.9272 -1.72317 2.94142 0
M  V30 905 H 93.1202 0.0841605 2.99782 0
M  V30 906 H 90.6732 0.0813433 1.56088 0
M  V30 907 H 91.4082 -2.36653 2.21734 0
M  V30 908 H 91.1932 -1.35898 3.67796 0
M  V30 909 H 92.6832 -2.3266 3.46784 0
M  V30 910 N 93.1203 -1.57491 0.0584922 0
M  V30 911 C 94.0833 -2.1085 -0.898617 0
M  V30 912 C 95.0833 -1.02964 -1.23511 0
M  V30 913 O 96.2733 -1.29007 -1.17059 0
M  V30 914 C 93.4053 -2.59881 -2.20623 0
M  V30 915 H 94.5983 -2.96715 -0.435936 0
M  V30 916 H 92.1513 -1.55141 -0.190023 0
M  V30 917 H 92.8863 -1.77431 -2.71457 0
M  V30 918 H 92.6713 -3.38727 -1.97501 0
M  V30 919 H 94.1613 -3.01285 -2.89166 0
M  V30 920 N 94.5984 0.214957 -1.56127 0
M  V30 921 C 95.8464 0.936518 -1.79091 0
M  V30 922 C 96.1674 1.84606 -0.628148 0
M  V30 923 O 95.4374 1.92664 0.35462 0
M  V30 924 H 94.0174 0.3488 -0.660566 0
M  V30 925 H 96.6794 0.22523 -1.93594 0
M  V30 926 H 95.7754 1.53943 -2.71492 0
M  V30 927 N 96.0765 1.50051 0.48192 0
M  V30 928 C 97.0065 1.71046 1.58951 0
M  V30 929 C 97.9875 0.559288 1.60642 0
M  V30 930 O 99.1725 0.797243 1.77081 0
M  V30 931 C 96.3025 1.79462 2.97339 0
M  V30 932 C 95.2565 2.94558 3.10515 0
M  V30 933 C 94.5825 2.88105 4.50444 0
M  V30 934 C 95.8825 4.35227 2.88747 0
M  V30 935 H 97.5765 2.6378 1.41635 0
M  V30 936 H 95.1225 1.26936 0.679942 0
M  V30 937 H 97.0755 1.92734 3.74742 0
M  V30 938 H 95.7995 0.833412 3.15788 0
M  V30 939 H 94.4585 2.80918 2.35543 0
M  V30 940 H 94.1065 1.89853 4.65795 0
M  V30 941 H 93.8065 3.65366 4.60197 0
M  V30 942 H 95.3305 3.03412 5.29881 0
M  V30 943 H 96.7445 4.49449 3.55905 0
M  V30 944 H 95.1415 5.13856 3.09955 0
M  V30 945 H 96.2115 4.48347 1.84696 0
M  V30 946 N 97.5546 -0.734337 1.39446 0
M  V30 947 C 98.5016 -1.84835 1.38219 0
M  V30 948 C 99.4716 -1.64331 0.24179 0
M  V30 949 O 100.657 -1.85728 0.437002 0
M  V30 950 C 97.7966 -3.22355 1.23212 0
M  V30 951 C 96.9096 -3.5456 2.46801 0
M  V30 952 C 96.0446 -4.81485 2.24377 0
M  V30 953 C 95.0836 -5.06536 3.43639 0
M  V30 954 N 94.2206 -6.24665 3.20528 0
M  V30 955 H 99.0606 -1.85219 2.33448 0
M  V30 956 H 96.5976 -0.905039 1.15963 0
M  V30 957 H 98.5556 -4.0174 1.12522 0
M  V30 958 H 97.1856 -3.21248 0.316121 0
M  V30 959 H 96.2376 -2.69872 2.68092 0
M  V30 960 H 97.5496 -3.6899 3.3563 0
M  V30 961 H 96.7036 -5.68852 2.10933 0
M  V30 962 H 95.4426 -4.6923 1.32944 0
M  V30 963 H 94.4476 -4.17632 3.5758 0
M  V30 964 H 95.6726 -5.20676 4.35974 0
M  V30 965 H 93.6186 -6.13696 2.3176 0
M  V30 966 H 93.5356 -6.39685 4.02913 0
M  V30 967 H 94.8036 -7.14868 3.10779 0
M  V30 968 N 99.0327 -1.24633 -0.964593 0
M  V30 969 C 100.279 -1.08949 -1.71049 0
M  V30 970 C 100.612 0.370302 -1.90637 0
M  V30 971 O 99.8867 1.27349 -1.47011 0
M  V30 972 C 100.17 -1.83329 -3.0994 0
M  V30 973 C 100.023 -3.37077 -2.97824 0
M  V30 974 C 101.342 -1.60846 -4.09654 0
M  V30 975 H 98.4607 -0.397178 -0.620821 0
M  V30 976 H 101.103 -1.5334 -1.12191 0
M  V30 977 H 99.2527 -1.45597 -3.60186 0
M  V30 978 H 100.925 -3.84425 -2.5498 0
M  V30 979 H 99.1677 -3.65298 -2.33965 0
M  V30 980 H 99.8387 -3.84324 -3.96231 0
M  V30 981 H 102.315 -1.93674 -3.68279 0
M  V30 982 H 101.191 -2.1534 -5.04896 0
M  V30 983 H 101.452 -0.547434 -4.38698 0
M  V30 984 N 100.511 1.16574 -1.06058 0
M  V30 985 C 101.759 1.86677 -0.77434 0
M  V30 986 C 102.08 1.81959 0.701147 0
M  V30 987 O 101.35 1.2515 1.50713 0
M  V30 988 H 99.9298 0.691134 -0.283449 0
M  V30 989 H 102.592 1.41378 -1.34158 0
M  V30 990 H 101.688 2.92181 -1.09711 0
M  V30 991 N 101.989 0.842826 1.3317 0
M  V30 992 C 103.266 0.362216 1.92217 0
M  V30 993 C 103.646 -1.15289 1.76838 0
M  V30 994 O 102.994 -1.96914 1.15919 0
M  V30 995 C 103.204 0.813495 3.39387 0
M  V30 996 C 104.552 0.823804 4.16532 0
M  V30 997 O 105.576 0.757358 3.48055 0
M  V30 998 O 104.435 0.915193 5.38782 0
M  V30 999 H 101.529 0.103317 0.820521 0
M  V30 1000 H 104.075 0.928942 1.42017 0
M  V30 1001 H 102.847 1.85624 3.4447 0
M  V30 1002 H 102.47 0.223561 3.96971 0
M  V30 1003 N 103.467 -1.45747 0.599634 0
M  V30 1004 C 104.716 -2.01502 0.0893511 0
M  V30 1005 C 105.029 -1.4748 -1.28488 0
M  V30 1006 O 106.235 -1.95161 -1.88745 0
M  V30 1007 C 104.691 -3.59735 0.109082 0
M  V30 1008 C 104.299 -4.22754 1.48267 0
M  V30 1009 C 106.043 -4.23085 -0.346374 0
M  V30 1010 C 103.95 -5.73115 1.45921 0
M  V30 1011 H 102.88 -0.753417 0.0296347 0
M  V30 1012 H 105.531 -1.67303 0.753788 0
M  V30 1013 H 103.913 -3.91087 -0.621854 0
M  V30 1014 H 105.087 -4.02987 2.23468 0
M  V30 1015 H 103.402 -3.71567 1.87955 0
M  V30 1016 H 105.999 -5.33327 -0.38298 0
M  V30 1017 H 106.342 -3.93201 -1.36743 0
M  V30 1018 H 106.875 -3.9642 0.331038 0
M  V30 1019 H 103.614 -6.07685 2.45762 0
M  V30 1020 H 103.134 -5.95097 0.749665 0
M  V30 1021 H 104.813 -6.3616 1.17941 0
M  V30 1022 N 104.945 -0.338344 -1.53925 0
M  V30 1023 C 106.191 0.260143 -2.01125 0
M  V30 1024 C 106.524 1.50617 -1.22589 0
M  V30 1025 O 105.799 1.91979 -0.312113 0
M  V30 1026 C 106.082 0.579499 -3.55407 0
M  V30 1027 C 105.935 -0.678264 -4.44657 0
M  V30 1028 C 107.254 1.39122 -4.17532 0
M  V30 1029 H 104.373 0.0930772 -0.731099 0
M  V30 1030 H 107.015 -0.457852 -1.84401 0
M  V30 1031 H 105.165 1.19118 -3.69788 0
M  V30 1032 H 106.837 -1.31631 -4.42121 0
M  V30 1033 H 105.08 -1.3042 -4.13731 0
M  V30 1034 H 105.751 -0.410143 -5.50474 0
M  V30 1035 H 108.227 0.874035 -4.06817 0
M  V30 1036 H 107.103 1.58342 -5.25565 0
M  V30 1037 H 107.364 2.39178 -3.71815 0
M  V30 1038 N 106.423 1.57458 -0.0668435 0
M  V30 1039 C 107.37 2.12439 0.902122 0
M  V30 1040 C 108.34 1.03565 1.2986 0
M  V30 1041 O 109.525 1.312 1.38532 0
M  V30 1042 C 106.665 2.6865 2.16614 0
M  V30 1043 C 105.778 3.91663 1.82274 0
M  V30 1044 C 104.913 4.36134 3.0325 0
M  V30 1045 C 103.952 5.51808 2.64904 0
M  V30 1046 N 103.089 5.9126 3.78624 0
M  V30 1047 H 107.929 2.94934 0.426382 0
M  V30 1048 H 105.466 1.4575 0.198819 0
M  V30 1049 H 107.424 2.99346 2.90599 0
M  V30 1050 H 106.054 1.88928 2.61737 0
M  V30 1051 H 105.106 3.6746 0.983719 0
M  V30 1052 H 106.418 4.75693 1.50059 0
M  V30 1053 H 105.572 4.68465 3.85519 0
M  V30 1054 H 104.311 3.50948 3.38655 0
M  V30 1055 H 103.316 5.19133 1.81055 0
M  V30 1056 H 104.541 6.38722 2.30675 0
M  V30 1057 H 102.487 5.09024 4.138 0
M  V30 1058 H 102.404 6.70018 3.5016 0
M  V30 1059 H 103.672 6.28212 4.61486 0
M  V30 1060 N 107.901 -0.206675 1.56239 0
M  V30 1061 C 109.129 -0.945345 1.8404 0
M  V30 1062 C 109.544 -1.77336 0.647885 0
M  V30 1063 O 108.901 -1.78425 -0.383511 0
M  V30 1064 C 108.952 -1.8509 3.10522 0
M  V30 1065 O 108.673 -1.05634 4.25174 0
M  V30 1066 C 110.174 -2.70222 3.51418 0
M  V30 1067 H 107.394 -0.276372 0.61144 0
M  V30 1068 H 109.938 -0.217417 2.03341 0
M  V30 1069 H 108.093 -2.53259 2.93153 0
M  V30 1070 H 108.507 -1.67238 4.97124 0
M  V30 1071 H 109.981 -3.29438 4.42916 0
M  V30 1072 H 110.458 -3.43358 2.73864 0
M  V30 1073 H 111.064 -2.07443 3.71278 0
M  V30 1074 N 109.379 -1.50304 -0.473955 0
M  V30 1075 C 110.607 -1.64902 -1.24959 0
M  V30 1076 C 111.022 -0.331198 -1.85872 0
M  V30 1077 O 110.379 0.68652 -1.69095 0
M  V30 1078 C 110.43 -2.73803 -2.36038 0
M  V30 1079 O 110.151 -4.00477 -1.77624 0
M  V30 1080 C 111.652 -2.99349 -3.26964 0
M  V30 1081 H 108.872 -0.554383 -0.378022 0
M  V30 1082 H 111.416 -1.9651 -0.566054 0
M  V30 1083 H 109.571 -2.44898 -3.00173 0
M  V30 1084 H 109.985 -4.60678 -2.5075 0
M  V30 1085 H 111.459 -3.79217 -4.01121 0
M  V30 1086 H 111.936 -2.10307 -3.85574 0
M  V30 1087 H 112.542 -3.29774 -2.68569 0
M  V30 1088 N 110.857 0.726932 -1.39834 0
M  V30 1089 C 112.103 1.48884 -1.377 0
M  V30 1090 C 112.436 1.94185 0.0244852 0
M  V30 1091 O 111.711 1.67361 0.990986 0
M  V30 1092 C 111.994 2.72288 -2.3565 0
M  V30 1093 C 111.847 2.32956 -3.84775 0
M  V30 1094 C 113.166 3.74414 -2.31306 0
M  V30 1095 H 110.285 0.540062 -0.5015 0
M  V30 1096 H 112.927 0.830547 -1.70886 0
M  V30 1097 H 111.077 3.28457 -2.07481 0
M  V30 1098 H 112.749 1.82356 -4.23726 0
M  V30 1099 H 110.992 1.65088 -4.01159 0
M  V30 1100 H 111.663 3.21362 -4.4881 0
M  V30 1101 H 114.139 3.27849 -2.56231 0
M  V30 1102 H 113.015 4.58414 -3.01907 0
M  V30 1103 H 113.276 4.21909 -1.32081 0
M  V30 1104 N 112.336 1.25143 0.95797 0
M  V30 1105 C 113.583 1.09692 1.70217 0
M  V30 1106 C 113.911 -0.362654 1.91089 0
M  V30 1107 O 113.166 -1.28386 1.47701 0
M  V30 1108 C 113.465 1.79272 3.09187 0
M  V30 1109 C 113.131 3.29196 3.08125 0
M  V30 1110 C 111.793 3.70096 3.07543 0
M  V30 1111 C 114.145 4.24995 3.0171 0
M  V30 1112 C 111.473 5.05213 2.9829 0
M  V30 1113 C 113.825 5.60132 2.93999 0
M  V30 1114 C 112.489 6.00365 2.9175 0
M  V30 1115 H 111.759 0.401393 0.622868 0
M  V30 1116 H 114.406 1.55372 1.11945 0
M  V30 1117 H 112.711 1.26014 3.70982 0
M  V30 1118 H 114.408 1.64773 3.65583 0
M  V30 1119 H 110.998 2.96651 3.09348 0
M  V30 1120 H 115.182 3.9439 3.01281 0
M  V30 1121 H 110.438 5.35569 2.94916 0
M  V30 1122 H 114.612 6.3406 2.87996 0
M  V30 1123 H 112.239 7.05023 2.84336 0
M  V30 1124 N 113.814 -1.1601 1.06675 0
M  V30 1125 C 115.06 -1.86909 0.786945 0
M  V30 1126 C 115.393 -1.81717 -0.685018 0
M  V30 1127 O 114.668 -1.23551 -1.50218 0
M  V30 1128 C 114.951 -3.36313 1.28707 0
M  V30 1129 C 114.804 -3.50175 2.82308 0
M  V30 1130 C 116.123 -4.3084 0.898071 0
M  V30 1131 H 113.242 -0.678677 0.287343 0
M  V30 1132 H 115.884 -1.36336 1.32334 0
M  V30 1133 H 114.034 -3.79513 0.830768 0
M  V30 1134 H 115.706 -3.15886 3.36175 0
M  V30 1135 H 113.949 -2.91959 3.20847 0
M  V30 1136 H 114.62 -4.55116 3.12368 0
M  V30 1137 H 117.096 -3.95561 1.29114 0
M  V30 1138 H 115.972 -5.33876 1.27543 0
M  V30 1139 H 116.233 -4.41662 -0.196651 0
M  V30 1140 N 115.292 -0.849877 -1.32721 0
M  V30 1141 C 116.239 -0.289033 -2.28983 0
M  V30 1142 C 117.209 0.601324 -1.54833 0
M  V30 1143 O 118.394 0.537253 -1.8308 0
M  V30 1144 C 115.534 0.520623 -3.4115 0
M  V30 1145 C 114.647 -0.394989 -4.3019 0
M  V30 1146 C 113.782 0.426834 -5.29482 0
M  V30 1147 C 112.821 -0.486476 -6.10164 0
M  V30 1148 N 111.958 0.297879 -7.01468 0
M  V30 1149 H 116.798 -1.11519 -2.76347 0
M  V30 1150 H 114.335 -0.56138 -1.35967 0
M  V30 1151 H 116.293 1.00563 -4.04899 0
M  V30 1152 H 114.923 1.31165 -2.9495 0
M  V30 1153 H 113.975 -0.99836 -3.67065 0
M  V30 1154 H 115.287 -1.09612 -4.86607 0
M  V30 1155 H 114.441 0.975205 -5.98811 0
M  V30 1156 H 113.18 1.16136 -4.73671 0
M  V30 1157 H 112.185 -1.04677 -5.39743 0
M  V30 1158 H 113.41 -1.21953 -6.6806 0
M  V30 1159 H 111.356 1.01558 -6.48091 0
M  V30 1160 H 111.273 -0.344318 -7.55216 0
M  V30 1161 H 112.541 0.828131 -7.75089 0
M  V30 1162 N 116.77 1.45427 -0.607355 0
M  V30 1163 C 118.047 1.9557 -0.0344566 0
M  V30 1164 C 118.427 1.54979 1.43334 0
M  V30 1165 O 117.775 0.812241 2.13576 0
M  V30 1166 C 117.985 3.48226 -0.232321 0
M  V30 1167 C 119.333 4.2445 -0.113001 0
M  V30 1168 O 120.357 3.55829 -0.162431 0
M  V30 1169 O 119.216 5.465 0.00209442 0
M  V30 1170 H 116.31 0.826222 0.0358667 0
M  V30 1171 H 118.856 1.55594 -0.6774 0
M  V30 1172 H 117.628 3.70739 -1.25174 0
M  V30 1173 H 117.251 3.95092 0.445896 0
M  V30 1174 N 118.248 0.346503 1.53744 0
M  V30 1175 C 119.178 -0.501193 2.28058 0
M  V30 1176 C 120.159 -1.10014 1.29734 0
M  V30 1177 O 121.344 -1.12097 1.58581 0
M  V30 1178 C 118.474 -1.65078 3.05559 0
M  V30 1179 C 117.428 -1.18003 4.11411 0
M  V30 1180 C 116.754 -2.41837 4.76884 0
M  V30 1181 C 118.054 -0.278394 5.21558 0
M  V30 1182 H 119.748 0.11875 2.99164 0
M  V30 1183 H 117.294 0.0585531 1.43881 0
M  V30 1184 H 119.247 -2.25028 3.56287 0
M  V30 1185 H 117.971 -2.29767 2.32109 0
M  V30 1186 H 116.63 -0.603331 3.61601 0
M  V30 1187 H 116.278 -3.0494 4.00026 0
M  V30 1188 H 115.978 -2.1102 5.48402 0
M  V30 1189 H 117.502 -3.02508 5.30397 0
M  V30 1190 H 118.916 -0.784823 5.67903 0
M  V30 1191 H 117.313 -0.0619707 6.00068 0
M  V30 1192 H 118.383 0.684677 4.80042 0
M  V30 1193 N 119.726 -1.57421 0.075193 0
M  V30 1194 C 120.674 -2.14124 -0.908508 0
M  V30 1195 C 121.668 -1.07898 -1.30592 0
M  V30 1196 O 122.874 -1.26273 -1.28277 0
M  V30 1197 H 119.249 -0.684707 -0.310935 0
M  V30 1198 H 121.22 -2.95634 -0.405374 0
M  V30 1199 C 119.969 -2.72044 -2.16535 0
M  V30 1200 H 119.292 -3.53456 -1.86839 0
M  V30 1201 H 120.732 -3.15311 -2.83469 0
M  V30 1202 C 119.191 -1.66968 -2.92615 0
M  V30 1203 O 119.721 -1.0967 -3.86439 0
M  V30 1204 N 117.927 -1.37923 -2.55784 0
M  V30 1205 H 117.474 -1.84706 -1.79559 0
M  V30 1206 H 117.432 -0.67852 -3.06991 0
M  V30 1207 N 121.204 0.198386 -1.56346 0
M  V30 1208 C 122.481 0.944982 -1.71258 0
M  V30 1209 C 122.861 2.0151 -0.629048 0
M  V30 1210 O 122.209 2.25639 0.360473 0
M  V30 1211 C 122.419 1.5344 -3.1346 0
M  V30 1212 C 123.767 2.01778 -3.73591 0
M  V30 1213 O 124.791 1.63288 -3.16568 0
M  V30 1214 O 123.65 2.72594 -4.73661 0
M  V30 1215 H 120.744 0.442939 -0.69838 0
M  V30 1216 H 123.29 0.188342 -1.68652 0
M  V30 1217 H 122.062 0.762869 -3.83792 0
M  V30 1218 H 121.685 2.35596 -3.20282 0
M  V30 1219 N 122.682 1.50554 0.465978 0
M  V30 1220 C 123.929 1.61798 1.21768 0
M  V30 1221 C 124.257 0.320696 1.91838 0
M  V30 1222 O 123.512 -0.693724 1.82992 0
M  V30 1223 C 123.811 2.75152 2.28093 0
M  V30 1224 C 123.477 4.15454 1.75239 0
M  V30 1225 C 122.139 4.53628 1.60546 0
M  V30 1226 C 124.491 5.03121 1.36083 0
M  V30 1227 C 121.819 5.77204 1.05128 0
M  V30 1228 C 124.171 6.27249 0.821056 0
M  V30 1229 C 122.835 6.64221 0.660795 0
M  V30 1230 H 122.105 0.592063 0.445582 0
M  V30 1231 H 124.752 1.84503 0.512927 0
M  V30 1232 H 123.057 2.46556 3.04496 0
M  V30 1233 H 124.754 2.81055 2.86023 0
M  V30 1234 H 121.344 3.85341 1.87644 0
M  V30 1235 H 125.528 4.74257 1.46267 0
M  V30 1236 H 120.784 6.0452 0.91462 0
M  V30 1237 H 124.958 6.94537 0.509018 0
M  V30 1238 H 122.585 7.59854 0.229226 0
M  V30 1239 N 124.16 -0.719506 1.40217 0
M  V30 1240 C 125.123 -1.8153 1.39927 0
M  V30 1241 C 126.123 -1.58095 0.293723 0
M  V30 1242 O 127.313 -1.65209 0.552429 0
M  V30 1243 C 124.445 -3.19561 1.18716 0
M  V30 1244 H 125.638 -1.83186 2.37451 0
M  V30 1245 H 123.191 -0.924746 1.26008 0
M  V30 1246 H 123.926 -3.23557 0.219366 0
M  V30 1247 H 123.711 -3.3797 1.98793 0
M  V30 1248 H 125.201 -3.99598 1.21291 0
M  V30 1249 N 125.638 -1.25649 -0.95132 0
M  V30 1250 C 126.866 -1.13343 -1.73092 0
M  V30 1251 C 127.281 0.312434 -1.86197 0
M  V30 1252 O 126.638 1.21465 -1.36207 0
M  V30 1253 C 126.689 -1.78602 -3.14299 0
M  V30 1254 O 126.41 -3.17537 -3.01831 0
M  V30 1255 C 127.911 -1.72119 -4.08522 0
M  V30 1256 H 125.131 -0.395181 -0.542285 0
M  V30 1257 H 127.675 -1.66076 -1.19328 0
M  V30 1258 H 125.83 -1.29832 -3.64996 0
M  V30 1259 H 126.244 -3.49676 -3.90931 0
M  V30 1260 H 127.718 -2.22435 -5.052 0
M  V30 1261 H 128.195 -0.685635 -4.33815 0
M  V30 1262 H 128.801 -2.20393 -3.63741 0
M  V30 1263 N 127.117 1.15442 -1.07289 0
M  V30 1264 C 128.363 1.86489 -0.796846 0
M  V30 1265 C 128.696 1.82078 0.675371 0
M  V30 1266 O 127.971 1.24346 1.4956 0
M  V30 1267 C 128.254 3.35626 -1.30489 0
M  V30 1268 C 128.107 3.48673 -2.84161 0
M  V30 1269 C 129.426 4.30357 -0.920907 0
M  V30 1270 H 126.545 0.677144 -0.290939 0
M  V30 1271 H 129.187 1.35633 -1.33056 0
M  V30 1272 H 127.337 3.79068 -0.850883 0
M  V30 1273 H 129.009 3.14099 -3.37846 0
M  V30 1274 H 127.252 2.90253 -3.22391 0
M  V30 1275 H 127.923 4.53453 -3.14777 0
M  V30 1276 H 130.399 3.94871 -1.3121 0
M  V30 1277 H 129.275 5.33193 -1.30372 0
M  V30 1278 H 129.536 4.4176 0.173226 0
M  V30 1279 N 128.595 0.856903 1.32268 0
M  V30 1280 C 129.543 0.291987 2.3076 0
M  V30 1281 C 130.537 -0.585857 1.58947 0
M  V30 1282 O 131.743 -0.47341 1.73663 0
M  V30 1283 H 128.118 0.075721 0.748178 0
M  V30 1284 H 130.089 1.13687 2.75895 0
M  V30 1285 C 128.838 -0.502869 3.44044 0
M  V30 1286 H 128.161 0.163328 3.99466 0
M  V30 1287 H 129.601 -0.863691 4.1511 0
M  V30 1288 C 128.06 -1.68898 2.91505 0
M  V30 1289 O 128.59 -2.78811 2.89184 0
M  V30 1290 N 126.796 -1.51679 2.47875 0
M  V30 1291 H 126.343 -0.622666 2.49961 0
M  V30 1292 H 126.301 -2.31184 2.13076 0
M  V30 1293 N 130.073 -1.45103 0.615059 0
M  V30 1294 C 131.036 -2.29025 -0.0895485 0
M  V30 1295 C 132.036 -1.40174 -0.787906 0
M  V30 1296 O 133.226 -1.62217 -0.634933 0
M  V30 1297 C 130.358 -3.21376 -1.13711 0
M  V30 1298 H 131.551 -2.92807 0.648382 0
M  V30 1299 H 129.104 -1.51749 0.374444 0
M  V30 1300 H 129.839 -2.6241 -1.90556 0
M  V30 1301 H 129.624 -3.86834 -0.640475 0
M  V30 1302 H 131.114 -3.84459 -1.63036 0
M  V30 1303 N 131.551 -0.354651 -1.53558 0
M  V30 1304 C 132.779 0.239515 -2.05509 0
M  V30 1305 C 133.194 1.4333 -1.2289 0
M  V30 1306 O 132.551 1.80538 -0.266899 0
M  V30 1307 C 132.602 0.643719 -3.55723 0
M  V30 1308 O 132.323 -0.502602 -4.35207 0
M  V30 1309 C 133.824 1.29743 -4.23889 0
M  V30 1310 H 131.044 0.0442697 -0.669538 0
M  V30 1311 H 133.588 -0.509856 -1.98042 0
M  V30 1312 H 131.743 1.34302 -3.63376 0
M  V30 1313 H 132.157 -0.178172 -5.24197 0
M  V30 1314 H 133.631 1.53091 -5.30346 0
M  V30 1315 H 134.108 2.25441 -3.76926 0
M  V30 1316 H 134.714 0.639865 -4.20459 0
M  V30 1317 N 133.029 1.57378 -0.0835403 0
M  V30 1318 C 134.259 1.97975 0.590713 0
M  V30 1319 C 134.667 0.961083 1.62972 0
M  V30 1320 O 134.01 -0.0590879 1.83605 0
M  V30 1321 C 134.072 3.34915 1.3066 0
M  V30 1322 C 133.736 4.55069 0.419698 0
M  V30 1323 C 134.733 5.18868 -0.32749 0
M  V30 1324 C 132.418 5.0114 0.341137 0
M  V30 1325 C 134.412 6.27098 -1.14134 0
M  V30 1326 C 132.099 6.0924 -0.476374 0
M  V30 1327 C 133.097 6.72083 -1.21627 0
M  V30 1328 O 132.785 7.781 -2.02028 0
M  V30 1329 H 132.517 0.655818 0.163947 0
M  V30 1330 H 135.071 2.04807 -0.156021 0
M  V30 1331 H 133.301 3.24733 2.09966 0
M  V30 1332 H 134.99 3.60037 1.87424 0
M  V30 1333 H 135.756 4.84211 -0.276459 0
M  V30 1334 H 131.635 4.51996 0.90668 0
M  V30 1335 H 135.179 6.7608 -1.71935 0
M  V30 1336 H 131.076 6.43329 -0.528927 0
M  V30 1337 H 131.844 7.95034 -1.94586 0
M  V30 1338 N 134.507 -0.190092 1.56449 0
M  V30 1339 C 135.417 -1.25591 1.98152 0
M  V30 1340 C 136.433 -1.49519 0.889944 0
M  V30 1341 O 137.609 -1.62036 1.19609 0
M  V30 1342 C 134.674 -2.57916 2.3169 0
M  V30 1343 C 133.735 -2.42015 3.5458 0
M  V30 1344 C 132.968 -3.6803 3.8651 0
M  V30 1345 O 133.191 -4.72413 3.1966 0
M  V30 1346 O 132.125 -3.6326 4.79923 0
M  V30 1347 H 135.951 -0.931988 2.89046 0
M  V30 1348 H 133.536 -0.395488 1.4407 0
M  V30 1349 H 135.418 -3.36008 2.54316 0
M  V30 1350 H 134.093 -2.89925 1.43963 0
M  V30 1351 H 133 -1.62017 3.37196 0
M  V30 1352 H 134.333 -2.14937 4.4279 0
M  V30 1353 N 135.985 -1.50799 -0.457987 0
M  V30 1354 C 136.948 -1.7005 -1.53674 0
M  V30 1355 C 137.948 -0.570881 -1.50325 0
M  V30 1356 O 139.138 -0.838126 -1.52712 0
M  V30 1357 C 136.27 -1.73788 -2.93276 0
M  V30 1358 H 137.463 -2.66306 -1.37917 0
M  V30 1359 H 135.016 -1.40477 -0.685271 0
M  V30 1360 H 135.751 -0.792717 -3.14462 0
M  V30 1361 H 135.536 -2.55864 -2.97113 0
M  V30 1362 H 137.026 -1.90591 -3.71571 0
M  V30 1363 N 137.463 0.71206 -1.40597 0
M  V30 1364 C 138.71 1.47197 -1.39065 0
M  V30 1365 C 139.038 1.94499 0.00583891 0
M  V30 1366 O 138.293 1.68752 0.99102 0
M  V30 1367 C 138.592 2.71039 -2.32965 0
M  V30 1368 C 138.258 2.42484 -3.80148 0
M  V30 1369 C 136.92 2.34406 -4.20247 0
M  V30 1370 C 139.272 2.18598 -4.73143 0
M  V30 1371 C 136.6 2.00516 -5.51371 0
M  V30 1372 C 138.952 1.8622 -6.0457 0
M  V30 1373 C 137.616 1.76626 -6.43708 0
M  V30 1374 H 136.886 0.538634 -0.508876 0
M  V30 1375 H 139.533 0.815325 -1.73276 0
M  V30 1376 H 137.838 3.41558 -1.91951 0
M  V30 1377 H 139.535 3.29138 -2.29061 0
M  V30 1378 H 136.125 2.49659 -3.4838 0
M  V30 1379 H 140.309 2.23793 -4.42979 0
M  V30 1380 H 135.565 1.91628 -5.80593 0
M  V30 1381 H 139.739 1.66752 -6.76141 0
M  V30 1382 H 137.366 1.50133 -7.45228 0
M  V30 1383 N 138.941 1.26152 0.944643 0
M  V30 1384 C 140.188 1.11492 1.69044 0
M  V30 1385 C 140.516 -0.342366 1.91463 0
M  V30 1386 O 139.771 -1.26812 1.49054 0
M  V30 1387 C 140.07 1.82541 3.07268 0
M  V30 1388 C 139.736 3.32445 3.04616 0
M  V30 1389 C 138.398 3.73337 3.036 0
M  V30 1390 C 140.75 4.28171 2.97185 0
M  V30 1391 C 138.078 5.08348 2.92915 0
M  V30 1392 C 140.43 5.63218 2.88041 0
M  V30 1393 C 139.094 6.03426 2.85366 0
M  V30 1394 H 138.364 0.407977 0.618576 0
M  V30 1395 H 141.011 1.56551 1.10291 0
M  V30 1396 H 139.316 1.29941 3.69625 0
M  V30 1397 H 141.013 1.68642 3.63815 0
M  V30 1398 H 137.603 2.99915 3.06185 0
M  V30 1399 H 141.787 3.97563 2.97081 0
M  V30 1400 H 137.043 5.38667 2.89219 0
M  V30 1401 H 141.217 6.37078 2.81254 0
M  V30 1402 H 138.844 7.07999 2.76842 0
M  V30 1403 N 140.419 -1.14872 1.07899 0
M  V30 1404 C 141.647 -1.89661 0.82683 0
M  V30 1405 C 142.062 -1.78312 -0.620519 0
M  V30 1406 O 141.419 -1.13888 -1.42604 0
M  V30 1407 C 141.47 -3.39817 1.23316 0
M  V30 1408 O 141.191 -3.50845 2.62372 0
M  V30 1409 C 142.692 -4.31615 1.0111 0
M  V30 1410 H 139.912 -0.60092 0.298557 0
M  V30 1411 H 142.456 -1.4551 1.43691 0
M  V30 1412 H 140.611 -3.8161 0.667286 0
M  V30 1413 H 141.025 -4.44076 2.79101 0
M  V30 1414 H 142.499 -5.35367 1.34486 0
M  V30 1415 H 142.976 -4.39169 -0.0522168 0
M  V30 1416 H 143.582 -3.95572 1.56215 0
M  V30 1417 N 141.898 -0.863906 -1.31812 0
M  V30 1418 C 142.808 -0.318461 -2.32428 0
M  V30 1419 C 143.824 0.568496 -1.64451 0
M  V30 1420 O 145 0.46666 -1.95919 0
M  V30 1421 C 142.065 0.476355 -3.43412 0
M  V30 1422 C 141.126 -0.43784 -4.27061 0
M  V30 1423 C 140.359 0.319138 -5.32745 0
M  V30 1424 O 140.582 1.54799 -5.48993 0
M  V30 1425 O 139.516 -0.319861 -6.01049 0
M  V30 1426 H 143.342 -1.15229 -2.80991 0
M  V30 1427 H 140.927 -0.627103 -1.35602 0
M  V30 1428 H 142.809 0.927156 -4.11074 0
M  V30 1429 H 141.484 1.28683 -2.97022 0
M  V30 1430 H 140.391 -0.937013 -3.62175 0
M  V30 1431 H 141.724 -1.21375 -4.77 0
M  V30 1432 N 143.376 1.44774 -0.622745 0
M  V30 1433 C 144.326 2.2774 0.108889 0
M  V30 1434 C 145.31 1.38189 0.824175 0
M  V30 1435 O 146.502 1.62063 0.711664 0
M  V30 1436 C 143.631 3.25353 1.09546 0
M  V30 1437 C 142.717 4.22392 0.380232 0
M  V30 1438 N 143.108 5.02388 -0.586535 0
M  V30 1439 C 141.406 4.41588 0.625792 0
M  V30 1440 C 142.107 5.72894 -1.00834 0
M  V30 1441 N 141.083 5.42479 -0.348878 0
M  V30 1442 H 144.885 2.86993 -0.63341 0
M  V30 1443 H 142.399 1.5611 -0.447589 0
M  V30 1444 H 144.396 3.83538 1.63414 0
M  V30 1445 H 143.056 2.6766 1.83815 0
M  V30 1446 H 144.067 5.0885 -0.963975 0
M  V30 1447 H 140.744 3.95003 1.352 0
M  V30 1448 H 142.134 6.47158 -1.80656 0
M  V30 1449 N 144.854 0.36279 1.53368 0
M  V30 1450 C 145.802 -0.500155 2.27159 0
M  V30 1451 C 146.796 -1.08575 1.3003 0
M  V30 1452 O 148.002 -1.02927 1.47668 0
M  V30 1453 H 144.377 -0.180009 0.730138 0
M  V30 1454 H 146.348 0.14401 2.98052 0
M  V30 1455 C 145.097 -1.62937 3.07159 0
M  V30 1456 H 144.42 -1.18806 3.8174 0
M  V30 1457 H 145.86 -2.20795 3.61975 0
M  V30 1458 C 144.319 -2.57007 2.17829 0
M  V30 1459 O 144.849 -3.59752 1.78721 0
M  V30 1460 N 143.055 -2.26131 1.82518 0
M  V30 1461 H 142.602 -1.42616 2.14519 0
M  V30 1462 H 142.56 -2.89327 1.23034 0
M  V30 1463 N 146.332 -1.57332 0.0918853 0
M  V30 1464 C 147.295 -2.12708 -0.85369 0
M  V30 1465 C 148.295 -1.05561 -1.213 0
M  V30 1466 O 149.485 -1.31461 -1.14296 0
M  V30 1467 C 146.617 -2.64503 -2.15061 0
M  V30 1468 H 147.81 -2.97573 -0.3729 0
M  V30 1469 H 145.363 -1.55509 -0.157072 0
M  V30 1470 H 146.098 -1.83149 -2.67632 0
M  V30 1471 H 145.883 -3.4284 -1.90272 0
M  V30 1472 H 147.373 -3.07351 -2.82711 0
M  V30 1473 N 147.81 0.181792 -1.56548 0
M  V30 1474 C 149.038 0.915947 -1.85521 0
M  V30 1475 C 149.453 1.76282 -0.676016 0
M  V30 1476 O 148.81 1.79012 0.355077 0
M  V30 1477 C 148.861 1.80126 -3.13427 0
M  V30 1478 O 148.582 0.988562 -4.26801 0
M  V30 1479 C 150.083 2.64597 -3.55673 0
M  V30 1480 H 147.303 0.26661 -0.61576 0
M  V30 1481 H 149.847 0.185039 -2.03661 0
M  V30 1482 H 148.002 2.48563 -2.97145 0
M  V30 1483 H 148.416 1.59308 -4.99721 0
M  V30 1484 H 149.89 3.2235 -4.48101 0
M  V30 1485 H 150.367 3.38958 -2.79292 0
M  V30 1486 H 150.973 2.0151 -3.74532 0
M  V30 1487 N 149.288 1.51039 0.449983 0
M  V30 1488 C 150.535 1.63081 1.20045 0
M  V30 1489 C 150.863 0.341024 1.91487 0
M  V30 1490 O 150.118 -0.674276 1.83717 0
M  V30 1491 C 150.417 2.77556 2.25161 0
M  V30 1492 C 150.083 4.17289 1.70823 0
M  V30 1493 C 148.745 4.55305 1.55725 0
M  V30 1494 C 151.097 5.04536 1.3074 0
M  V30 1495 C 148.425 5.78287 0.989999 0
M  V30 1496 C 150.777 6.28085 0.754482 0
M  V30 1497 C 149.441 6.64885 0.590308 0
M  V30 1498 H 148.711 0.596755 0.439277 0
M  V30 1499 H 151.358 1.85037 0.49333 0
M  V30 1500 H 149.663 2.49771 3.01863 0
M  V30 1501 H 151.36 2.84073 2.83026 0
M  V30 1502 H 147.95 3.8731 1.83546 0
M  V30 1503 H 152.134 4.75782 1.41229 0
M  V30 1504 H 147.39 6.05456 0.850451 0
M  V30 1505 H 151.564 6.95038 0.435324 0
M  V30 1506 H 149.191 7.60055 0.14862 0
M  V30 1507 N 150.766 -0.704594 1.40972 0
M  V30 1508 C 152.177 -1.28418 1.3552 0
M  V30 1509 C 152.528 -1.96171 0.0339434 0
M  V30 1510 O 151.653 -1.98231 -0.867944 0
M  V30 1511 C 152.248 -2.33528 2.45459 0
M  V30 1512 C 150.807 -2.87085 2.43433 0
M  V30 1513 C 149.954 -1.61007 2.2577 0
M  V30 1514 H 152.905 -0.499963 1.50619 0
M  V30 1515 H 152.926 -3.14619 2.13998 0
M  V30 1516 H 152.438 -1.84187 3.41609 0
M  V30 1517 H 150.539 -3.40626 1.51013 0
M  V30 1518 H 150.652 -3.3813 3.39419 0
M  V30 1519 H 149.016 -1.86482 1.73483 0
M  V30 1520 H 149.799 -1.13675 3.23933 0
M  V30 1521 N 152.244 -1.26651 -0.937939 0
M  V30 1522 C 153.207 -1.08546 -2.01867 0
M  V30 1523 C 154.207 -0.0327327 -1.60767 0
M  V30 1524 O 155.397 -0.276427 -1.71993 0
M  V30 1525 C 152.529 -0.651711 -3.34613 0
M  V30 1526 H 153.722 -2.04502 -2.1936 0
M  V30 1527 H 151.275 -1.09294 -1.11734 0
M  V30 1528 H 152.01 0.309696 -3.22818 0
M  V30 1529 H 151.795 -1.41189 -3.65798 0
M  V30 1530 H 153.285 -0.546973 -4.14002 0
M  V30 1531 N 153.722 1.14298 -1.08507 0
M  V30 1532 C 155.138 1.37347 -0.812901 0
M  V30 1533 C 155.338 1.93052 0.577325 0
M  V30 1534 O 154.394 2.14389 1.33393 0
M  V30 1535 C 155.707 2.33359 -1.89642 0
M  V30 1536 C 157.255 2.46996 -1.92255 0
M  V30 1537 C 157.73 3.46309 -2.99724 0
M  V30 1538 N 159.221 3.53853 -2.98902 0
M  V30 1539 C 159.956 4.3055 -3.787 0
M  V30 1540 N 159.452 5.10482 -4.6838 0
M  V30 1541 N 161.245 4.25757 -3.66998 0
M  V30 1542 H 153.396 0.764867 -1.9815 0
M  V30 1543 H 155.659 0.398966 -0.859959 0
M  V30 1544 H 155.365 1.99565 -2.89597 0
M  V30 1545 H 155.239 3.33274 -1.76659 0
M  V30 1546 H 157.626 2.80081 -0.929445 0
M  V30 1547 H 157.707 1.47039 -2.09316 0
M  V30 1548 H 157.351 3.13957 -3.99241 0
M  V30 1549 H 157.281 4.46049 -2.79907 0
M  V30 1550 H 159.772 2.96812 -2.33904 0
M  V30 1551 H 160.085 5.66284 -5.25873 0
M  V30 1552 H 158.43 5.09747 -4.72422 0
M  V30 1553 H 161.621 3.62383 -2.96304 0
M  V30 1554 H 161.794 4.85279 -4.29427 0
M  V30 1555 N 155.201 0.870884 1.31352 0
M  V30 1556 C 156.426 0.495957 2.01383 0
M  V30 1557 C 156.851 -0.904324 1.64935 0
M  V30 1558 O 156.209 -1.59687 0.858466 0
M  V30 1559 C 156.257 0.661433 3.54482 0
M  V30 1560 O 155.361 -0.298851 4.11316 0
M  V30 1561 H 154.702 0.197158 0.634054 0
M  V30 1562 H 157.232 1.17455 1.67527 0
M  V30 1563 H 157.242 0.555072 4.04207 0
M  V30 1564 H 155.917 1.68246 3.8035 0
M  V30 1565 H 154.494 -0.147368 3.72609 0
M  V30 1566 N 156.679 -1.44442 0.630414 0
M  V30 1567 C 157.919 -2.03934 0.137919 0
M  V30 1568 C 158.283 -1.48509 -1.21692 0
M  V30 1569 O 159.484 -1.99499 -1.80149 0
M  V30 1570 C 157.755 -3.57187 0.123373 0
M  V30 1571 S 159.314 -4.37741 -0.304604 0
M  V30 1572 H 156.132 -0.708401 0.0607353 0
M  V30 1573 H 158.734 -1.76835 0.833643 0
M  V30 1574 H 157.438 -3.95032 1.11256 0
M  V30 1575 H 156.969 -3.88895 -0.59362 0
M  V30 1576 H 158.984 -4.71403 -1.54897 0
M  V30 1577 N 158.157 -0.370918 -1.53173 0
M  V30 1578 C 159.403 0.217423 -2.01631 0
M  V30 1579 C 159.736 1.47983 -1.25756 0
M  V30 1580 O 159.011 1.91274 -0.352764 0
M  V30 1581 C 159.294 0.503982 -3.56556 0
M  V30 1582 C 159.147 -0.77243 -4.43118 0
M  V30 1583 C 160.466 1.30234 -4.20389 0
M  V30 1584 H 157.585 0.0775486 -0.732909 0
M  V30 1585 H 160.227 -0.496863 -1.83388 0
M  V30 1586 H 158.377 1.11248 -3.72231 0
M  V30 1587 H 160.049 -1.4098 -4.39229 0
M  V30 1588 H 158.292 -1.39167 -4.10871 0
M  V30 1589 H 158.963 -0.526815 -5.4948 0
M  V30 1590 H 161.439 0.787546 -4.08579 0
M  V30 1591 H 160.315 1.47158 -5.28806 0
M  V30 1592 H 160.576 2.31237 -3.76805 0
M  V30 1593 N 159.635 1.57281 -0.100228 0
M  V30 1594 C 160.545 2.17833 0.870965 0
M  V30 1595 C 161.561 1.14921 1.30649 0
M  V30 1596 O 162.737 1.47313 1.37335 0
M  V30 1597 C 159.802 2.75085 2.1102 0
M  V30 1598 C 158.863 3.9297 1.72838 0
M  V30 1599 C 158.096 4.47482 2.90854 0
M  V30 1600 O 158.319 4.00922 4.05731 0
M  V30 1601 O 157.253 5.38433 2.69023 0
M  V30 1602 H 161.079 3.0124 0.38575 0
M  V30 1603 H 158.664 1.48881 0.124397 0
M  V30 1604 H 160.546 3.11656 2.83634 0
M  V30 1605 H 159.221 1.94721 2.58584 0
M  V30 1606 H 158.128 3.61201 0.973883 0
M  V30 1607 H 159.461 4.74713 1.30033 0
M  V30 1608 N 161.113 -0.173488 1.56642 0
M  V30 1609 C 162.359 -0.891784 1.8214 0
M  V30 1610 C 162.692 -1.8199 0.677736 0
M  V30 1611 O 161.967 -1.91842 -0.320446 0
M  V30 1612 C 162.25 -1.68933 3.18015 0
M  V30 1613 C 162.103 -0.784487 4.42906 0
M  V30 1614 C 163.422 -2.65748 3.50808 0
M  V30 1615 H 160.541 -0.322761 0.662567 0
M  V30 1616 H 163.183 -0.158095 1.89341 0
M  V30 1617 H 161.333 -2.31482 3.12007 0
M  V30 1618 H 163.005 -0.172046 4.60979 0
M  V30 1619 H 161.248 -0.0924117 4.33702 0
M  V30 1620 H 161.919 -1.37799 5.34524 0
M  V30 1621 H 164.395 -2.13327 3.57255 0
M  V30 1622 H 163.271 -3.18619 4.4696 0
M  V30 1623 H 163.532 -3.45842 2.75401 0
M  V30 1624 N 162.591 -1.51276 -0.441967 0
M  V30 1625 C 163.554 -1.7167 -1.51862 0
M  V30 1626 C 164.554 -0.586793 -1.49711 0
M  V30 1627 O 165.744 -0.854276 -1.51815 0
M  V30 1628 C 162.876 -1.76889 -2.91416 0
M  V30 1629 H 164.069 -2.67754 -1.35084 0
M  V30 1630 H 161.622 -1.41196 -0.670333 0
M  V30 1631 H 162.357 -0.826026 -3.13604 0
M  V30 1632 H 162.142 -2.59001 -2.94382 0
M  V30 1633 H 163.632 -1.94522 -3.69528 0
M  V30 1634 N 164.069 0.697108 -1.41344 0
M  V30 1635 C 165.485 1.00751 -1.2378 0
M  V30 1636 C 165.685 2.01105 -0.126066 0
M  V30 1637 O 164.741 2.47295 0.51004 0
M  V30 1638 C 166.054 1.53359 -2.58653 0
M  V30 1639 C 167.602 1.6525 -2.65822 0
M  V30 1640 C 168.077 2.2126 -4.01009 0
M  V30 1641 N 169.568 2.28622 -4.02847 0
M  V30 1642 C 170.303 2.72984 -5.04249 0
M  V30 1643 N 169.799 3.16962 -6.16041 0
M  V30 1644 N 171.592 2.72534 -4.91611 0
M  V30 1645 H 163.743 0.0322662 -2.12375 0
M  V30 1646 H 166.006 0.0768853 -0.944877 0
M  V30 1647 H 165.712 0.870773 -3.4075 0
M  V30 1648 H 165.586 2.51597 -2.81032 0
M  V30 1649 H 167.973 2.30644 -1.84086 0
M  V30 1650 H 168.054 0.655614 -2.47256 0
M  V30 1651 H 167.698 1.56482 -4.83193 0
M  V30 1652 H 167.628 3.21698 -4.16915 0
M  V30 1653 H 170.119 1.97585 -3.22131 0
M  V30 1654 H 170.432 3.49434 -6.89287 0
M  V30 1655 H 168.777 3.14875 -6.1958 0
M  V30 1656 H 171.968 2.37525 -4.0336 0
M  V30 1657 H 172.141 3.06789 -5.70775 0
M  V30 1658 N 165.547 1.27147 0.931209 0
M  V30 1659 C 166.477 1.12081 2.04842 0
M  V30 1660 C 167.458 0.0232364 1.70084 0
M  V30 1661 O 168.643 0.197085 1.93197 0
M  V30 1662 C 165.773 0.76354 3.38803 0
M  V30 1663 C 164.727 1.81396 3.87659 0
M  V30 1664 C 164.053 1.31075 5.18385 0
M  V30 1665 C 165.353 3.21739 4.11438 0
M  V30 1666 H 167.047 2.05537 2.17703 0
M  V30 1667 H 164.593 0.989603 1.04608 0
M  V30 1668 H 166.546 0.644982 4.16435 0
M  V30 1669 H 165.27 -0.206727 3.25945 0
M  V30 1670 H 163.929 1.92136 3.12217 0
M  V30 1671 H 163.577 0.330037 5.01916 0
M  V30 1672 H 163.277 2.013 5.52044 0
M  V30 1673 H 164.801 1.20506 5.98591 0
M  V30 1674 H 166.215 3.14019 4.79651 0
M  V30 1675 H 164.612 3.89644 4.56397 0
M  V30 1676 H 165.682 3.67054 3.16859 0
M  V30 1677 N 167.025 -1.13721 1.09112 0
M  V30 1678 C 168.436 -1.6648 0.845068 0
M  V30 1679 C 168.787 -1.85911 -0.62701 0
M  V30 1680 O 167.912 -1.57556 -1.48341 0
M  V30 1681 C 168.507 -3.02413 1.52748 0
M  V30 1682 C 167.066 -3.52176 1.32849 0
M  V30 1683 C 166.213 -2.27492 1.58564 0
M  V30 1684 H 169.164 -0.976872 1.25072 0
M  V30 1685 H 169.185 -3.68223 0.958752 0
M  V30 1686 H 168.697 -2.88238 2.59885 0
M  V30 1687 H 166.798 -3.7156 0.278137 0
M  V30 1688 H 166.911 -4.32499 2.0611 0
M  V30 1689 H 165.275 -2.33923 1.00758 0
M  V30 1690 H 166.058 -2.15886 2.66924 0
M  V30 1691 N 168.503 -0.877838 -1.30888 0
M  V30 1692 C 169.45 -0.337538 -2.28318 0
M  V30 1693 C 170.42 0.568346 -1.56074 0
M  V30 1694 O 171.605 0.498298 -1.84178 0
M  V30 1695 C 168.745 0.448142 -3.42178 0
M  V30 1696 C 167.858 -0.48615 -4.29256 0
M  V30 1697 C 166.993 0.314427 -5.30269 0
M  V30 1698 C 166.032 -0.615791 -6.08995 0
M  V30 1699 N 165.169 0.14902 -7.01942 0
M  V30 1700 H 170.009 -1.17356 -2.73919 0
M  V30 1701 H 167.546 -0.590094 -1.34745 0
M  V30 1702 H 169.504 0.919517 -4.06941 0
M  V30 1703 H 168.134 1.24879 -2.97666 0
M  V30 1704 H 167.186 -1.076 -3.64865 0
M  V30 1705 H 168.498 -1.19909 -4.84173 0
M  V30 1706 H 167.652 0.847969 -6.00745 0
M  V30 1707 H 166.391 1.06062 -4.76027 0
M  V30 1708 H 165.396 -1.16102 -5.37401 0
M  V30 1709 H 166.621 -1.36097 -6.65323 0
M  V30 1710 H 164.567 0.877884 -6.50099 0
M  V30 1711 H 164.484 -0.504433 -7.54315 0
M  V30 1712 H 165.752 0.663537 -7.76671 0
M  V30 1713 N 169.982 1.44106 -0.638065 0
M  V30 1714 C 171.259 1.95453 -0.0759321 0
M  V30 1715 C 171.639 1.57984 1.40015 0
M  V30 1716 O 170.987 0.857361 2.11806 0
M  V30 1717 C 171.197 3.47655 -0.306132 0
M  V30 1718 C 172.545 4.24114 -0.203008 0
M  V30 1719 O 173.569 3.55405 -0.237871 0
M  V30 1720 O 172.428 5.46381 -0.113827 0
M  V30 1721 H 169.522 0.826797 0.0183332 0
M  V30 1722 H 172.068 1.54122 -0.710251 0
M  V30 1723 H 170.84 3.68 -1.3301 0
M  V30 1724 H 170.463 3.95949 0.361991 0
M  V30 1725 N 171.46 0.379036 1.52974 0
M  V30 1726 C 172.706 -0.206727 2.01744 0
M  V30 1727 C 173.039 -1.47314 1.26539 0
M  V30 1728 O 172.314 -1.91084 0.362903 0
M  V30 1729 C 172.597 -0.485066 3.56818 0
M  V30 1730 C 172.45 0.795919 4.42702 0
M  V30 1731 C 173.769 -1.28003 4.21074 0
M  V30 1732 H 170.888 -0.0736607 0.73331 0
M  V30 1733 H 173.53 0.506581 1.83122 0
M  V30 1734 H 171.68 -1.09272 3.72816 0
M  V30 1735 H 173.352 1.43307 4.38476 0
M  V30 1736 H 171.595 1.41344 4.10127 0
M  V30 1737 H 172.266 0.555947 5.49193 0
M  V30 1738 H 174.742 -0.765867 4.08991 0
M  V30 1739 H 173.618 -1.44352 5.29579 0
M  V30 1740 H 173.879 -2.29236 3.78026 0
M  V30 1741 N 172.938 -1.57226 0.108567 0
M  V30 1742 C 173.885 -2.14756 -0.845481 0
M  V30 1743 C 174.855 -1.06971 -1.27068 0
M  V30 1744 O 176.04 -1.34827 -1.35005 0
M  V30 1745 C 173.18 -2.74298 -2.09415 0
M  V30 1746 C 172.293 -3.96358 -1.71826 0
M  V30 1747 C 171.428 -4.44021 -2.9158 0
M  V30 1748 C 170.467 -5.58637 -2.50181 0
M  V30 1749 N 169.604 -6.01091 -3.62814 0
M  V30 1750 H 174.444 -2.95961 -0.348035 0
M  V30 1751 H 171.981 -1.46226 -0.160106 0
M  V30 1752 H 173.939 -3.06945 -2.82561 0
M  V30 1753 H 172.569 -1.95801 -2.56636 0
M  V30 1754 H 171.621 -3.69939 -0.885947 0
M  V30 1755 H 172.933 -4.79504 -1.37394 0
M  V30 1756 H 172.087 -4.78522 -3.72963 0
M  V30 1757 H 170.826 -3.59803 -3.29231 0
M  V30 1758 H 169.831 -5.23751 -1.67228 0
M  V30 1759 H 171.056 -6.44613 -2.13659 0
M  V30 1760 H 169.002 -5.19817 -4.00158 0
M  V30 1761 H 168.919 -6.79066 -3.32273 0
M  V30 1762 H 170.187 -6.40227 -4.44668 0
M  V30 1763 N 174.416 0.165178 -1.56732 0
M  V30 1764 C 175.665 0.879143 -1.81532 0
M  V30 1765 C 175.978 1.83144 -0.686842 0
M  V30 1766 O 177.184 2.58823 -0.819944 0
M  V30 1767 C 175.64 1.61388 -3.21686 0
M  V30 1768 C 175.248 0.704904 -4.4242 0
M  V30 1769 C 176.992 2.3157 -3.55774 0
M  V30 1770 C 174.899 1.44022 -5.73595 0
M  V30 1771 H 173.829 0.332033 -0.676957 0
M  V30 1772 H 176.48 0.132008 -1.83025 0
M  V30 1773 H 174.862 2.40599 -3.14529 0
M  V30 1774 H 176.036 -0.0506815 -4.60772 0
M  V30 1775 H 174.351 0.112419 -4.16248 0
M  V30 1776 H 176.948 2.8719 -4.51028 0
M  V30 1777 H 177.291 3.07201 -2.8095 0
M  V30 1778 H 177.824 1.59297 -3.64513 0
M  V30 1779 H 174.563 0.72612 -6.51466 0
M  V30 1780 H 174.083 2.16898 -5.5921 0
M  V30 1781 H 175.762 1.98606 -6.15764 0
M  V30 1782 N 175.894 1.51508 0.433938 0
M  V30 1783 C 176.804 1.75917 1.5521 0
M  V30 1784 C 177.82 0.643545 1.61662 0
M  V30 1785 O 178.996 0.926183 1.7884 0
M  V30 1786 C 176.061 1.88213 2.91164 0
M  V30 1787 C 175.122 3.12074 2.94802 0
M  V30 1788 C 174.355 3.23774 4.24271 0
M  V30 1789 O 174.578 2.4133 5.16833 0
M  V30 1790 O 173.512 4.16774 4.34262 0
M  V30 1791 H 177.338 2.70777 1.37527 0
M  V30 1792 H 174.923 1.36051 0.617293 0
M  V30 1793 H 176.805 1.98267 3.71845 0
M  V30 1794 H 175.48 0.965413 3.08968 0
M  V30 1795 H 174.387 3.07497 2.13065 0
M  V30 1796 H 175.72 4.03446 2.81943 0
M  V30 1797 N 177.372 -0.689602 1.41712 0
M  V30 1798 C 178.621 -1.44534 1.40686 0
M  V30 1799 C 178.934 -1.95588 0.0213352 0
M  V30 1800 O 180.14 -2.71271 -0.111534 0
M  V30 1801 C 178.596 -2.61387 2.47396 0
M  V30 1802 C 178.204 -2.17094 3.91885 0
M  V30 1803 C 179.948 -3.38986 2.55517 0
M  V30 1804 C 177.855 -3.3094 4.90135 0
M  V30 1805 H 176.785 -0.542925 0.52321 0
M  V30 1806 H 179.436 -0.748054 1.6756 0
M  V30 1807 H 177.818 -3.33412 2.13664 0
M  V30 1808 H 178.992 -1.52318 4.34897 0
M  V30 1809 H 177.307 -1.52473 3.8748 0
M  V30 1810 H 179.904 -4.23747 3.26102 0
M  V30 1811 H 180.247 -3.84578 1.59391 0
M  V30 1812 H 180.78 -2.74021 2.8837 0
M  V30 1813 H 177.519 -2.90355 5.87685 0
M  V30 1814 H 177.039 -3.94546 4.51767 0
M  V30 1815 H 178.718 -3.9663 5.11169 0
M  V30 1816 N 178.85 -1.27639 -0.924453 0
M  V30 1817 C 179.76 -1.12466 -2.05885 0
M  V30 1818 C 180.776 -0.053869 -1.73917 0
M  V30 1819 O 181.952 -0.261012 -1.99702 0
M  V30 1820 C 179.017 -0.776768 -3.37886 0
M  V30 1821 C 178.078 -1.92878 -3.83532 0
M  V30 1822 C 177.311 -1.59739 -5.09234 0
M  V30 1823 O 177.534 -0.506782 -5.68144 0
M  V30 1824 O 176.468 -2.43761 -5.50331 0
M  V30 1825 H 180.294 -2.07671 -2.21599 0
M  V30 1826 H 177.879 -1.06857 -1.04413 0
M  V30 1827 H 179.761 -0.596229 -4.17161 0
M  V30 1828 H 178.436 0.145732 -3.23372 0
M  V30 1829 H 177.343 -2.1644 -3.0513 0
M  V30 1830 H 178.676 -2.8316 -4.02593 0
M  V30 1831 N 180.328 1.1314 -1.09713 0
M  V30 1832 C 181.291 2.16831 -0.742751 0
M  V30 1833 C 182.291 1.59159 0.229129 0
M  V30 1834 O 183.481 1.74199 0.00693237 0
M  V30 1835 C 180.613 3.40756 -0.0989168 0
M  V30 1836 H 181.806 2.49695 -1.66109 0
M  V30 1837 H 179.359 1.2802 -0.896699 0
M  V30 1838 H 180.094 3.13485 0.830514 0
M  V30 1839 H 179.879 3.83888 -0.798265 0
M  V30 1840 H 181.369 4.17386 0.133524 0
M  V30 1841 N 181.806 0.884767 1.30421 0
M  V30 1842 C 183.055 0.499164 1.95426 0
M  V30 1843 C 183.368 -0.95645 1.70621 0
M  V30 1844 O 184.574 -1.44889 2.29607 0
M  V30 1845 C 183.03 0.84177 3.49917 0
M  V30 1846 C 182.638 2.31514 3.83543 0
M  V30 1847 C 184.382 0.525355 4.21237 0
M  V30 1848 C 182.289 2.59939 5.31212 0
M  V30 1849 H 181.219 0.182944 0.73147 0
M  V30 1850 H 183.87 1.07971 1.48373 0
M  V30 1851 H 182.252 0.190311 3.95542 0
M  V30 1852 H 183.426 3.0109 3.48829 0
M  V30 1853 H 181.741 2.59907 3.25326 0
M  V30 1854 H 184.338 0.714762 5.29901 0
M  V30 1855 H 184.681 -0.535222 4.12845 0
M  V30 1856 H 185.214 1.134 3.81294 0
M  V30 1857 H 181.953 3.64736 5.44654 0
M  V30 1858 H 181.473 1.94972 5.67227 0
M  V30 1859 H 183.152 2.45429 5.98643 0
M  V30 1860 N 183.284 -1.43765 0.645699 0
M  V30 1861 C 184.247 -2.29163 -0.0409488 0
M  V30 1862 C 185.247 -1.41813 -0.757996 0
M  V30 1863 O 186.437 -1.63527 -0.600382 0
M  V30 1864 C 183.569 -3.23716 -1.06869 0
M  V30 1865 H 184.762 -2.91366 0.710345 0
M  V30 1866 H 182.315 -1.5092 0.406547 0
M  V30 1867 H 183.05 -2.66393 -1.84947 0
M  V30 1868 H 182.835 -3.88105 -0.558277 0
M  V30 1869 H 184.325 -3.87831 -1.54845 0
M  V30 1870 N 184.763 -0.387143 -1.52771 0
M  V30 1871 C 186.009 0.196025 -2.0185 0
M  V30 1872 C 186.342 1.46641 -1.27319 0
M  V30 1873 O 185.617 1.90889 -0.373032 0
M  V30 1874 C 185.9 0.466136 -3.5707 0
M  V30 1875 C 185.753 -0.819385 -4.42274 0
M  V30 1876 C 187.072 1.25768 -4.21747 0
M  V30 1877 H 184.191 0.0697708 -0.73369 0
M  V30 1878 H 186.833 -0.516286 -1.82851 0
M  V30 1879 H 184.983 1.07293 -3.7339 0
M  V30 1880 H 186.655 -1.4563 -4.37709 0
M  V30 1881 H 184.898 -1.43517 -4.09372 0
M  V30 1882 H 185.569 -0.585065 -5.48891 0
M  V30 1883 H 188.045 0.744167 -4.09391 0
M  V30 1884 H 186.921 1.41541 -5.30337 0
M  V30 1885 H 187.182 2.27228 -3.79236 0
M  V30 1886 N 186.241 1.57166 -0.116904 0
M  V30 1887 C 187.657 1.5779 0.239693 0
M  V30 1888 C 187.857 1.1295 1.66867 0
M  V30 1889 O 186.913 0.81592 2.38954 0
M  V30 1890 C 188.226 3.00699 0.00828202 0
M  V30 1891 C 189.774 3.12912 0.0743438 0
M  V30 1892 C 190.249 4.57817 -0.129348 0
M  V30 1893 N 191.74 4.63139 -0.075247 0
M  V30 1894 C 192.475 5.73023 -0.207788 0
M  V30 1895 N 191.971 6.91665 -0.396382 0
M  V30 1896 N 193.764 5.61906 -0.14751 0
M  V30 1897 H 185.915 1.84615 -1.05029 0
M  V30 1898 H 188.178 0.85311 -0.41341 0
M  V30 1899 H 187.884 3.37784 -0.979531 0
M  V30 1900 H 187.758 3.69848 0.741077 0
M  V30 1901 H 190.145 2.75686 1.05268 0
M  V30 1902 H 190.226 2.4631 -0.690297 0
M  V30 1903 H 189.87 4.95742 -1.10465 0
M  V30 1904 H 189.8 5.22507 0.655253 0
M  V30 1905 H 192.291 3.7784 0.0670898 0
M  V30 1906 H 192.604 7.71255 -0.488437 0
M  V30 1907 H 190.949 6.93654 -0.432329 0
M  V30 1908 H 194.14 4.681 -0.00115036 0
M  V30 1909 H 194.313 6.47501 -0.254247 0
M  V30 1910 N 187.719 -0.156864 1.56817 0
M  V30 1911 C 189.135 -0.50916 1.5126 0
M  V30 1912 C 189.335 -1.83897 0.823658 0
M  V30 1913 O 188.391 -2.49469 0.390055 0
M  V30 1914 C 189.704 -0.52857 2.96018 0
M  V30 1915 C 191.252 -0.614771 3.06903 0
M  V30 1916 C 191.727 -0.664938 4.53147 0
M  V30 1917 N 193.218 -0.727433 4.57452 0
M  V30 1918 C 193.953 -0.787067 5.67973 0
M  V30 1919 N 193.449 -0.806649 6.88088 0
M  V30 1920 N 195.242 -0.827195 5.5598 0
M  V30 1921 H 187.393 0.714935 2.00006 0
M  V30 1922 H 189.656 0.259526 0.911784 0
M  V30 1923 H 189.362 0.380154 3.49639 0
M  V30 1924 H 189.236 -1.36998 3.51442 0
M  V30 1925 H 191.623 -1.51392 2.53307 0
M  V30 1926 H 191.704 0.253597 2.5454 0
M  V30 1927 H 191.348 0.230011 5.07379 0
M  V30 1928 H 191.278 -1.54966 5.03282 0
M  V30 1929 H 193.769 -0.719998 3.70978 0
M  V30 1930 H 194.082 -0.853727 7.6807 0
M  V30 1931 H 192.427 -0.774687 6.90669 0
M  V30 1932 H 195.618 -0.808998 4.61056 0
M  V30 1933 H 195.791 -0.870206 6.4213 0
M  V30 1934 O 189.236 -1.58657 -0.301679 0
M  V30 1935 H 189.927 -1.6887 -0.948812 0
M  V30 END ATOM
M  V30 BEGIN BOND
M  V30 END BOND
M  V30 END CTAB
M  END
$$$$
