drugbank_target|P0AG59 30S ribosomal protein S14 (DB00560; DB00759; DB09093; DB12455; DB12615)
 OpenBabel12092120373D

  0  0  0     0  0            999 V3000
M  V30 BEGIN CTAB
M  V30 COUNTS 1669 1681 0 0 0
M  V30 BEGIN ATOM
M  V30 1 H -0.908 1.98254 -0.117106 0
M  V30 2 N 0 1.576 0 0
M  V30 3 C 0.933 2.03868 1.02534 0
M  V30 4 C 1.911 0.928543 1.3348 0
M  V30 5 O 3.095 1.19667 1.45644 0
M  V30 6 C 0.222 2.43627 2.35294 0
M  V30 7 C -0.732 3.65373 2.2001 0
M  V30 8 S 0.101 5.13292 1.52614 0
M  V30 9 C 1.257 5.56322 2.86805 0
M  V30 10 H 1.49 2.90518 0.631377 0
M  V30 11 H -0.977 1.52953 0.210867 0
M  V30 12 H 0.981 2.67203 3.11629 0
M  V30 13 H -0.358 1.57376 2.7183 0
M  V30 14 H -1.165 3.90944 3.18086 0
M  V30 15 H -1.563 3.418 1.51819 0
M  V30 16 H 0.729 5.58782 3.83104 0
M  V30 17 H 1.672 6.56266 2.65933 0
M  V30 18 H 2.08 4.83886 2.90714 0
M  V30 19 N 1.4781 -0.272755 1.55222 0
M  V30 20 C 2.4411 -1.32041 1.87344 0
M  V30 21 C 3.4411 -1.42342 0.74803 0
M  V30 22 O 4.6311 -1.41488 1.0162 0
M  V30 23 C 1.7631 -2.70173 2.07893 0
M  V30 24 H 2.9561 -1.04789 2.80997 0
M  V30 25 H 0.5091 -0.51083 1.47717 0
M  V30 26 H 1.2441 -3.02605 1.16622 0
M  V30 27 H 1.0291 -2.64082 2.89833 0
M  V30 28 H 2.5191 -3.45869 2.34017 0
M  V30 29 N 2.9562 -1.48159 -0.537278 0
M  V30 30 C 3.9032 -1.62138 -1.64256 0
M  V30 31 C 4.8732 -0.463668 -1.59497 0
M  V30 32 O 6.0582 -0.686241 -1.78032 0
M  V30 33 C 3.1982 -1.66028 -3.02537 0
M  V30 34 C 2.3112 -2.92855 -3.17585 0
M  V30 35 C 1.4462 -2.87952 -4.46382 0
M  V30 36 C 0.4852 -4.09516 -4.54932 0
M  V30 37 N -0.3778 -4.02733 -5.75109 0
M  V30 38 H 4.4622 -2.56529 -1.51647 0
M  V30 39 H 1.9992 -1.27224 -0.738414 0
M  V30 40 H 3.9572 -1.66265 -3.82638 0
M  V30 41 H 2.5872 -0.751331 -3.13934 0
M  V30 42 H 1.6392 -3.02395 -2.30784 0
M  V30 43 H 2.9512 -3.82822 -3.19764 0
M  V30 44 H 2.1052 -2.8655 -5.34765 0
M  V30 45 H 0.8442 -1.95702 -4.46712 0
M  V30 46 H -0.1508 -4.11201 -3.64957 0
M  V30 47 H 1.0742 -5.02917 -4.56346 0
M  V30 48 H -0.9798 -3.13299 -5.76351 0
M  V30 49 H -1.0628 -4.86397 -5.78752 0
M  V30 50 H 0.2052 -4.05379 -6.65799 0
M  V30 51 N 4.4343 0.785586 -1.36625 0
M  V30 52 C 5.3663 1.90711 -1.2713 0
M  V30 53 C 6.3793 1.61688 -0.189986 0
M  V30 54 O 7.5683 1.72864 -0.445014 0
M  V30 55 C 4.6683 3.25611 -0.939713 0
M  V30 56 C 3.8413 3.82385 -2.12369 0
M  V30 57 C 2.9003 4.95732 -1.76456 0
M  V30 58 O 1.9263 5.12047 -2.48589 0
M  V30 59 N 3.1283 5.76258 -0.700492 0
M  V30 60 H 5.8933 1.99376 -2.23762 0
M  V30 61 H 3.4543 0.964041 -1.30069 0
M  V30 62 H 5.4463 3.98937 -0.680554 0
M  V30 63 H 4.0163 3.12538 -0.0624074 0
M  V30 64 H 3.2363 3.01001 -2.54543 0
M  V30 65 H 4.5243 4.17047 -2.9146 0
M  V30 66 H 3.9223 5.65609 -0.101624 0
M  V30 67 H 2.4793 6.4987 -0.501165 0
M  V30 68 N 5.9124 1.20967 1.01018 0
M  V30 69 C 7.1374 1.0503 1.78839 0
M  V30 70 C 7.5624 -0.395752 1.8389 0
M  V30 71 O 6.9204 -1.28529 1.27867 0
M  V30 72 C 6.9684 1.64602 3.2084 0
M  V30 73 O 6.0724 0.887988 4.02726 0
M  V30 74 H 5.4134 0.369987 0.551367 0
M  V30 75 H 7.9434 1.60399 1.27018 0
M  V30 76 H 7.9534 1.68607 3.71532 0
M  V30 77 H 6.6284 2.69841 3.16479 0
M  V30 78 H 5.2054 0.922648 3.61305 0
M  V30 79 N 7.3905 -1.2043 1.01659 0
M  V30 80 C 8.3235 -2.21924 0.531521 0
M  V30 81 C 9.3015 -1.57054 -0.421032 0
M  V30 82 O 10.4855 -1.85389 -0.341035 0
M  V30 83 C 7.6125 -3.37942 -0.226496 0
M  V30 84 C 6.6585 -4.21115 0.67561 0
M  V30 85 S 7.4915 -4.90674 2.14475 0
M  V30 86 C 8.6475 -6.10113 1.3969 0
M  V30 87 H 8.8805 -2.62725 1.3915 0
M  V30 88 H 6.4135 -1.30481 0.825479 0
M  V30 89 H 8.3715 -4.05196 -0.657738 0
M  V30 90 H 7.0325 -2.956 -1.06205 0
M  V30 91 H 6.2255 -5.03918 0.091108 0
M  V30 92 H 5.8275 -3.59115 1.04463 0
M  V30 93 H 8.1195 -6.7411 0.676897 0
M  V30 94 H 9.0625 -6.73022 2.20107 0
M  V30 95 H 9.4705 -5.57283 0.899786 0
M  V30 96 N 8.8686 -0.792821 -1.36206 0
M  V30 97 C 9.8156 -0.191653 -2.30003 0
M  V30 98 C 10.7856 0.666453 -1.52143 0
M  V30 99 O 11.9706 0.61442 -1.80636 0
M  V30 100 C 9.1106 0.664848 -3.38635 0
M  V30 101 C 8.2236 -0.212175 -4.31479 0
M  V30 102 C 7.3586 0.651022 -5.27196 0
M  V30 103 C 6.3976 -0.227247 -6.11678 0
M  V30 104 N 5.5346 0.595127 -6.99573 0
M  V30 105 H 10.3746 -0.996978 -2.80828 0
M  V30 106 H 7.9116 -0.503206 -1.38225 0
M  V30 107 H 9.8696 1.17645 -4.00269 0
M  V30 108 H 8.4996 1.43557 -2.89122 0
M  V30 109 H 7.5516 -0.841777 -3.70969 0
M  V30 110 H 8.8636 -0.888751 -4.90818 0
M  V30 111 H 8.0176 1.2283 -5.94136 0
M  V30 112 H 6.7566 1.36121 -4.68319 0
M  V30 113 H 5.7616 -0.816904 -5.43697 0
M  V30 114 H 6.9866 -0.93509 -6.72631 0
M  V30 115 H 4.9326 1.28955 -6.432 0
M  V30 116 H 4.8496 -0.0236952 -7.55996 0
M  V30 117 H 6.1176 1.15613 -7.70879 0
M  V30 118 N 10.3467 1.47872 -0.545128 0
M  V30 119 C 11.3097 2.28337 0.198717 0
M  V30 120 C 12.3097 1.36255 0.853888 0
M  V30 121 O 13.4997 1.59003 0.711606 0
M  V30 122 C 10.6317 3.15585 1.28915 0
M  V30 123 H 11.8247 2.95567 -0.507941 0
M  V30 124 H 9.3777 1.53362 -0.301616 0
M  V30 125 H 10.1127 2.53019 2.02859 0
M  V30 126 H 9.8977 3.83337 0.824309 0
M  V30 127 H 11.3877 3.76243 1.81194 0
M  V30 128 N 11.8248 0.280983 1.55075 0
M  V30 129 C 13.2408 -0.0729964 1.59433 0
M  V30 130 C 13.4408 -1.5411 1.29817 0
M  V30 131 O 12.4968 -2.29086 1.06187 0
M  V30 132 C 13.8098 0.306921 2.9913 0
M  V30 133 C 15.3578 0.254023 3.11968 0
M  V30 134 C 15.8328 0.608467 4.5394 0
M  V30 135 N 17.3238 0.560241 4.59799 0
M  V30 136 C 18.0588 0.80722 5.6769 0
M  V30 137 N 17.5548 1.11912 6.83701 0
M  V30 138 N 19.3478 0.735623 5.57266 0
M  V30 139 H 11.4988 1.238 1.7259 0
M  V30 140 H 13.7618 0.500547 0.805082 0
M  V30 141 H 13.4678 1.32816 3.25657 0
M  V30 142 H 13.3418 -0.349363 3.75579 0
M  V30 143 H 15.7288 -0.75794 2.852 0
M  V30 144 H 15.8098 0.944649 2.37718 0
M  V30 145 H 15.4538 1.61814 4.81434 0
M  V30 146 H 15.3838 -0.104013 5.26497 0
M  V30 147 H 17.8748 0.329288 3.76463 0
M  V30 148 H 18.1878 1.29409 7.61888 0
M  V30 149 H 16.5328 1.15695 6.85303 0
M  V30 150 H 19.7238 0.491752 4.6551 0
M  V30 151 H 19.8968 0.931482 6.4127 0
M  V30 152 N 13.3029 -1.57598 0.00835791 0
M  V30 153 C 14.2129 -2.12385 -0.996487 0
M  V30 154 C 15.2289 -1.07108 -1.37127 0
M  V30 155 O 16.4049 -1.39055 -1.4569 0
M  V30 156 C 13.4699 -2.62314 -2.26699 0
M  V30 157 C 12.5309 -3.82225 -1.95456 0
M  V30 158 C 11.7639 -4.29763 -3.16449 0
M  V30 159 O 11.9869 -3.76584 -4.28416 0
M  V30 160 O 10.9209 -5.21832 -2.99958 0
M  V30 161 H 14.7469 -2.98479 -0.560725 0
M  V30 162 H 12.3319 -1.47903 -0.210987 0
M  V30 163 H 14.2139 -2.94589 -3.01322 0
M  V30 164 H 12.8889 -1.79313 -2.69497 0
M  V30 165 H 11.7959 -3.54909 -1.18282 0
M  V30 166 H 13.1289 -4.66324 -1.57489 0
M  V30 167 N 14.781 0.264519 -1.55364 0
M  V30 168 C 16.027 0.99646 -1.76631 0
M  V30 169 C 16.36 1.85632 -0.570478 0
M  V30 170 O 15.635 1.89647 0.43175 0
M  V30 171 C 15.918 1.87187 -3.07625 0
M  V30 172 C 15.771 1.04138 -4.37579 0
M  V30 173 C 17.09 2.85749 -3.34717 0
M  V30 174 H 14.209 0.360841 -0.642622 0
M  V30 175 H 16.851 0.268218 -1.88097 0
M  V30 176 H 15.001 2.49279 -2.9798 0
M  V30 177 H 16.673 0.440517 -4.59192 0
M  V30 178 H 14.916 0.345115 -4.32425 0
M  V30 179 H 15.587 1.68729 -5.2558 0
M  V30 180 H 18.063 2.33793 -3.4421 0
M  V30 181 H 16.939 3.44136 -4.27623 0
M  V30 182 H 17.2 3.61311 -2.54768 0
M  V30 183 N 16.2591 1.48442 0.529413 0
M  V30 184 C 17.2061 1.63007 1.63394 0
M  V30 185 C 18.1761 0.47212 1.59249 0
M  V30 186 O 19.3611 0.695673 1.77666 0
M  V30 187 C 16.5011 1.6763 3.01653 0
M  V30 188 C 15.6141 2.94535 3.16027 0
M  V30 189 C 14.7491 2.90316 4.44849 0
M  V30 190 C 13.7881 4.11923 4.52754 0
M  V30 191 N 12.9251 4.05777 5.72965 0
M  V30 192 H 17.7651 2.5733 1.50285 0
M  V30 193 H 15.3021 1.27613 0.731656 0
M  V30 194 H 17.2601 1.68292 3.81751 0
M  V30 195 H 15.8901 0.76797 3.13532 0
M  V30 196 H 14.9421 3.03615 2.29177 0
M  V30 197 H 16.2541 3.84512 3.17729 0
M  V30 198 H 15.4081 2.89382 5.33238 0
M  V30 199 H 14.1471 1.98068 4.45668 0
M  V30 200 H 13.1521 4.13131 3.62771 0
M  V30 201 H 14.3771 5.0533 4.53672 0
M  V30 202 H 12.3231 3.16351 5.74681 0
M  V30 203 H 12.2401 4.8946 5.76164 0
M  V30 204 H 13.5081 4.08904 6.6364 0
M  V30 205 N 17.7372 -0.778329 1.37039 0
M  V30 206 C 19.1532 -1.07796 1.17695 0
M  V30 207 C 19.3532 -2.01498 0.00860115 0
M  V30 208 O 18.4092 -2.43901 -0.653352 0
M  V30 209 C 19.7222 -1.68178 2.49272 0
M  V30 210 C 21.2702 -1.80467 2.55735 0
M  V30 211 C 21.7452 -2.44263 3.87427 0
M  V30 212 N 23.2362 -2.51721 3.88833 0
M  V30 213 C 23.9712 -3.01919 4.87476 0
M  V30 214 N 23.4672 -3.5234 5.96513 0
M  V30 215 N 25.2602 -3.00733 4.74885 0
M  V30 216 H 17.4112 -0.156032 2.11826 0
M  V30 217 H 19.6742 -0.131844 0.938787 0
M  V30 218 H 19.3802 -1.06796 3.35093 0
M  V30 219 H 19.2542 -2.67554 2.65885 0
M  V30 220 H 21.6412 -2.40984 1.70325 0
M  V30 221 H 21.7222 -0.798656 2.43013 0
M  V30 222 H 21.3662 -1.84388 4.73248 0
M  V30 223 H 21.2962 -3.45458 3.9745 0
M  V30 224 H 23.7872 -2.1603 3.10063 0
M  V30 225 H 24.1002 -3.89027 6.67741 0
M  V30 226 H 22.4452 -3.50462 6.00168 0
M  V30 227 H 25.6362 -2.60638 3.88826 0
M  V30 228 H 25.8092 -3.39545 5.51918 0
M  V30 229 N 19.2153 -1.21501 -1.00376 0
M  V30 230 C 20.4613 -1.03452 -1.74429 0
M  V30 231 C 20.7943 0.430764 -1.89362 0
M  V30 232 O 20.0693 1.31962 -1.42886 0
M  V30 233 C 20.3523 -1.73375 -3.15615 0
M  V30 234 C 20.2053 -3.27431 -3.08397 0
M  V30 235 C 21.5243 -1.47732 -4.14564 0
M  V30 236 H 18.6433 -0.377226 -0.633143 0
M  V30 237 H 21.2853 -1.49693 -1.17013 0
M  V30 238 H 19.4353 -1.34064 -3.64636 0
M  V30 239 H 21.1073 -3.76119 -2.67081 0
M  V30 240 H 19.3503 -3.5767 -2.45468 0
M  V30 241 H 20.0213 -3.71524 -4.08258 0
M  V30 242 H 22.4973 -1.8186 -3.74254 0
M  V30 243 H 21.3733 -1.99169 -5.11491 0
M  V30 244 H 21.6343 -0.407589 -4.40217 0
M  V30 245 N 20.6934 1.19889 -1.02296 0
M  V30 246 C 21.6564 2.21116 -0.603351 0
M  V30 247 C 22.6564 1.5738 0.329884 0
M  V30 248 O 23.8464 1.73802 0.117702 0
M  V30 249 C 20.9784 3.40696 0.117992 0
M  V30 250 H 22.1714 2.59754 -1.49893 0
M  V30 251 H 19.7244 1.33463 -0.813468 0
M  V30 252 H 20.4594 3.07569 1.0282 0
M  V30 253 H 20.2444 3.88188 -0.552511 0
M  V30 254 H 21.7344 4.15692 0.398696 0
M  V30 255 N 22.1715 0.800033 1.35784 0
M  V30 256 C 23.1015 0.220184 2.3246 0
M  V30 257 C 24.0825 -0.65073 1.57161 0
M  V30 258 O 25.2675 -0.582359 1.85263 0
M  V30 259 C 22.3975 -0.637353 3.41402 0
M  V30 260 C 21.3515 0.134531 4.27789 0
M  V30 261 C 20.6775 -0.844285 5.27992 0
M  V30 262 C 21.9775 1.32979 5.05088 0
M  V30 263 H 23.6715 1.02787 2.81203 0
M  V30 264 H 21.2175 0.495717 1.35199 0
M  V30 265 H 23.1705 -1.05302 4.08031 0
M  V30 266 H 21.8945 -1.47785 2.91251 0
M  V30 267 H 20.5535 0.531296 3.6273 0
M  V30 268 H 20.2015 -1.68011 4.74111 0
M  V30 269 H 19.9015 -0.332184 5.8666 0
M  V30 270 H 21.4255 -1.2583 5.97494 0
M  V30 271 H 22.8395 0.98934 5.64699 0
M  V30 272 H 21.2365 1.77593 5.7322 0
M  V30 273 H 22.3065 2.11978 4.36111 0
M  V30 274 N 23.6496 -1.47581 0.552962 0
M  V30 275 C 24.6126 -2.28439 -0.186605 0
M  V30 276 C 25.6126 -1.36706 -0.84665 0
M  V30 277 O 26.8026 -1.59378 -0.703164 0
M  V30 278 C 23.9346 -3.16264 -1.2724 0
M  V30 279 H 25.1276 -2.95294 0.523609 0
M  V30 280 H 22.6806 -1.532 0.309745 0
M  V30 281 H 23.4156 -2.54091 -2.01514 0
M  V30 282 H 23.2006 -3.83769 -0.803968 0
M  V30 283 H 24.6906 -3.77198 -1.79196 0
M  V30 284 N 25.1277 -0.289203 -1.54924 0
M  V30 285 C 26.4047 0.376032 -1.91951 0
M  V30 286 C 26.7847 1.72622 -1.21511 0
M  V30 287 O 26.1327 2.25853 -0.346767 0
M  V30 288 C 26.3427 0.502378 -3.45365 0
M  V30 289 C 27.6907 0.778741 -4.17398 0
M  V30 290 O 28.7147 0.586647 -3.51336 0
M  V30 291 O 27.5737 1.14698 -5.34328 0
M  V30 292 H 24.6677 0.208167 -0.800372 0
M  V30 293 H 27.2137 -0.336394 -1.66332 0
M  V30 294 H 25.9857 -0.447255 -3.88736 0
M  V30 295 H 25.6087 1.26373 -3.76982 0
M  V30 296 N 26.6058 1.57591 -0.0167156 0
M  V30 297 C 27.5528 2.09462 0.969251 0
M  V30 298 C 28.5228 0.99381 1.33089 0
M  V30 299 O 29.7078 1.26726 1.42636 0
M  V30 300 C 26.8478 2.61622 2.25051 0
M  V30 301 C 25.9608 3.85666 1.94642 0
M  V30 302 C 25.0958 4.26266 3.16972 0
M  V30 303 C 24.1348 5.43101 2.82326 0
M  V30 304 N 23.2718 5.78915 3.97243 0
M  V30 305 H 28.1118 2.93428 0.519997 0
M  V30 306 H 25.6488 1.45044 0.245087 0
M  V30 307 H 27.6068 2.89949 2.99976 0
M  V30 308 H 26.2368 1.80505 2.67615 0
M  V30 309 H 25.2888 3.64145 1.10013 0
M  V30 310 H 26.6008 4.70678 1.65117 0
M  V30 311 H 25.7548 4.55963 4.00228 0
M  V30 312 H 24.4938 3.39996 3.49648 0
M  V30 313 H 23.4988 5.1311 1.97479 0
M  V30 314 H 24.7238 6.3106 2.50879 0
M  V30 315 H 22.6698 4.95602 4.29785 0
M  V30 316 H 22.5868 6.58539 3.71299 0
M  V30 317 H 23.8548 6.13212 4.81239 0
M  V30 318 N 28.0839 -0.256276 1.55502 0
M  V30 319 C 29.3139 -1.00196 1.80677 0
M  V30 320 C 29.7219 -1.79805 0.588797 0
M  V30 321 O 29.0649 -1.78055 -0.451883 0
M  V30 322 C 29.1269 -1.99515 2.99055 0
M  V30 323 C 28.7909 -1.38688 4.35448 0
M  V30 324 C 29.7879 -0.794079 5.138 0
M  V30 325 C 27.4729 -1.40906 4.82132 0
M  V30 326 C 29.4669 -0.231562 6.36979 0
M  V30 327 C 27.1539 -0.842684 6.05262 0
M  V30 328 C 28.1519 -0.254953 6.82524 0
M  V30 329 O 27.8399 0.3027 8.0333 0
M  V30 330 H 27.5719 -0.300919 0.60533 0
M  V30 331 H 30.1259 -0.287307 2.03381 0
M  V30 332 H 28.3559 -2.74785 2.72084 0
M  V30 333 H 30.0449 -2.60349 3.11405 0
M  V30 334 H 30.8109 -0.769519 4.78856 0
M  V30 335 H 26.6899 -1.85591 4.21992 0
M  V30 336 H 30.2339 0.227816 6.97228 0
M  V30 337 H 26.1309 -0.86454 6.39684 0
M  V30 338 H 26.8989 0.193662 8.18271 0
M  V30 339 N 29.562 -1.4872 -0.521534 0
M  V30 340 C 30.809 -1.57168 -1.27689 0
M  V30 341 C 31.137 -0.249275 -1.92896 0
M  V30 342 O 30.392 0.761162 -1.80291 0
M  V30 343 C 30.691 -2.66497 -2.38148 0
M  V30 344 C 30.357 -4.08664 -1.90538 0
M  V30 345 C 29.019 -4.47357 -1.77271 0
M  V30 346 C 31.371 -4.97724 -1.54663 0
M  V30 347 C 28.699 -5.72905 -1.26478 0
M  V30 348 C 31.051 -6.2377 -1.05329 0
M  V30 349 C 29.715 -6.61311 -0.906861 0
M  V30 350 H 28.985 -0.575117 -0.467249 0
M  V30 351 H 31.632 -1.82472 -0.581051 0
M  V30 352 H 29.937 -2.35085 -3.13437 0
M  V30 353 H 31.634 -2.70246 -2.96257 0
M  V30 354 H 28.224 -3.78111 -2.01816 0
M  V30 355 H 32.408 -4.68501 -1.63768 0
M  V30 356 H 27.664 -6.00709 -1.13835 0
M  V30 357 H 31.838 -6.9217 -0.76644 0
M  V30 358 H 29.465 -7.5848 -0.511083 0
M  V30 359 N 31.0401 0.771051 -1.3745 0
M  V30 360 C 32.0031 1.86598 -1.33093 0
M  V30 361 C 33.0031 1.59076 -0.234845 0
M  V30 362 O 34.1931 1.67145 -0.490732 0
M  V30 363 C 31.3251 3.23747 -1.06773 0
M  V30 364 H 32.5181 1.91873 -2.30488 0
M  V30 365 H 30.0711 0.970876 -1.2249 0
M  V30 366 H 30.8061 3.24148 -0.099129 0
M  V30 367 H 30.5911 3.45115 -1.86112 0
M  V30 368 H 32.0811 4.03824 -1.06377 0
M  V30 369 N 32.5182 1.22032 0.997298 0
M  V30 370 C 33.4652 0.986467 2.08656 0
M  V30 371 C 34.4352 -0.0902671 1.65855 0
M  V30 372 O 35.6202 0.0584294 1.90711 0
M  V30 373 C 32.7602 0.565569 3.40434 0
M  V30 374 C 31.8732 1.71259 3.96604 0
M  V30 375 C 31.0082 1.24011 5.16522 0
M  V30 376 C 30.0472 2.35896 5.64818 0
M  V30 377 N 29.1842 1.89726 6.7598 0
M  V30 378 H 34.0242 1.91892 2.27994 0
M  V30 379 H 31.5612 0.956199 1.11782 0
M  V30 380 H 33.5192 0.302738 4.161 0
M  V30 381 H 32.1492 -0.329879 3.2111 0
M  V30 382 H 31.2012 2.08986 3.17851 0
M  V30 383 H 32.5132 2.55436 4.28432 0
M  V30 384 H 31.6672 0.934395 5.99461 0
M  V30 385 H 30.4062 0.368487 4.86306 0
M  V30 386 H 29.4112 2.67261 4.8047 0
M  V30 387 H 30.6362 3.23567 5.97061 0
M  V30 388 H 28.5822 1.0492 6.47555 0
M  V30 389 H 28.4992 2.67471 7.07103 0
M  V30 390 H 29.7672 1.62211 7.62435 0
M  V30 391 N 33.9963 -1.19345 1.0293 0
M  V30 392 C 35.4123 -1.41069 0.746446 0
M  V30 393 C 35.6123 -1.90078 -0.668776 0
M  V30 394 O 34.6683 -2.0778 -1.4347 0
M  V30 395 C 35.9813 -2.42141 1.78292 0
M  V30 396 C 37.5293 -2.55887 1.80252 0
M  V30 397 C 38.0043 -3.60214 2.8286 0
M  V30 398 N 39.4953 -3.67711 2.81679 0
M  V30 399 C 40.2303 -4.48128 3.57727 0
M  V30 400 N 39.7263 -5.32248 4.43491 0
M  V30 401 N 41.5193 -4.42782 3.46267 0
M  V30 402 H 33.6703 -0.858536 1.94275 0
M  V30 403 H 35.9333 -0.439541 0.839945 0
M  V30 404 H 35.6393 -2.13155 2.79746 0
M  V30 405 H 35.5133 -3.41323 1.60557 0
M  V30 406 H 37.9003 -2.84196 0.794757 0
M  V30 407 H 37.9813 -1.56858 2.02062 0
M  V30 408 H 37.6253 -3.32647 3.83807 0
M  V30 409 H 37.5553 -4.58895 2.58307 0
M  V30 410 H 40.0463 -3.07634 2.19476 0
M  V30 411 H 40.3593 -5.90729 4.98256 0
M  V30 412 H 38.7043 -5.31707 4.47564 0
M  V30 413 H 41.8953 -3.76107 2.78677 0
M  V30 414 H 42.0683 -5.05215 4.05785 0
M  V30 415 N 35.4744 -0.807222 -1.35358 0
M  V30 416 C 36.4374 -0.223665 -2.28106 0
M  V30 417 C 37.4374 0.589354 -1.4961 0
M  V30 418 O 38.6274 0.407745 -1.69361 0
M  V30 419 C 35.7594 0.688149 -3.33882 0
M  V30 420 H 36.9524 -1.04169 -2.81227 0
M  V30 421 H 34.5054 -0.577921 -1.45223 0
M  V30 422 H 35.2404 1.52984 -2.85948 0
M  V30 423 H 35.0254 0.10687 -3.91954 0
M  V30 424 H 36.5154 1.09075 -4.03104 0
M  V30 425 N 36.9525 1.47285 -0.560781 0
M  V30 426 C 37.8625 2.33846 0.187954 0
M  V30 427 C 38.8785 1.48412 0.908293 0
M  V30 428 O 40.0545 1.81332 0.876388 0
M  V30 429 C 37.1195 3.25178 1.2025 0
M  V30 430 C 36.1805 4.26504 0.489208 0
M  V30 431 C 35.4135 5.13472 1.45542 0
M  V30 432 O 35.6365 5.02959 2.6905 0
M  V30 433 O 34.5705 5.93902 0.977963 0
M  V30 434 H 38.3965 2.99177 -0.522177 0
M  V30 435 H 35.9815 1.45903 -0.321364 0
M  V30 436 H 37.8635 3.81584 1.78805 0
M  V30 437 H 36.5385 2.6247 1.89449 0
M  V30 438 H 35.4455 3.73847 -0.137627 0
M  V30 439 H 36.7785 4.91935 -0.161399 0
M  V30 440 N 38.4306 0.297415 1.54768 0
M  V30 441 C 39.3606 -0.573494 2.26348 0
M  V30 442 C 40.3416 -1.14085 1.26169 0
M  V30 443 O 41.5266 -1.17086 1.54934 0
M  V30 444 C 38.6566 -1.74716 3.00153 0
M  V30 445 C 37.6106 -1.31032 4.07449 0
M  V30 446 C 36.9366 -2.56887 4.68949 0
M  V30 447 C 38.2366 -0.444183 5.20408 0
M  V30 448 H 39.9306 0.0235131 2.99391 0
M  V30 449 H 37.4766 0.0127488 1.43994 0
M  V30 450 H 39.4296 -2.3625 3.48947 0
M  V30 451 H 38.1536 -2.37035 2.24682 0
M  V30 452 H 36.8126 -0.718066 3.59499 0
M  V30 453 H 36.4606 -3.17512 3.90122 0
M  V30 454 H 36.1606 -2.2836 5.41411 0
M  V30 455 H 37.6846 -3.19229 5.20505 0
M  V30 456 H 39.0986 -0.9651 5.65118 0
M  V30 457 H 37.4956 -0.252846 5.99567 0
M  V30 458 H 38.5656 0.531609 4.81977 0
M  V30 459 N 39.9087 -1.5758 0.0250728 0
M  V30 460 C 40.8557 -2.09973 -0.958129 0
M  V30 461 C 41.8257 -1.00085 -1.3256 0
M  V30 462 O 43.0107 -1.27481 -1.41962 0
M  V30 463 C 40.1507 -2.62812 -2.2366 0
M  V30 464 C 39.2637 -3.86693 -1.92594 0
M  V30 465 C 38.3987 -4.27941 -3.14707 0
M  V30 466 C 37.4377 -5.44591 -2.79442 0
M  V30 467 N 36.5747 -5.81014 -3.94167 0
M  V30 468 H 41.4147 -2.937 -0.504428 0
M  V30 469 H 38.9517 -1.45172 -0.237392 0
M  V30 470 H 40.9097 -2.91536 -2.98434 0
M  V30 471 H 39.5397 -1.81922 -2.66654 0
M  V30 472 H 38.5917 -3.64723 -1.0808 0
M  V30 473 H 39.9037 -4.71547 -1.62619 0
M  V30 474 H 39.0577 -4.58079 -3.97804 0
M  V30 475 H 37.7967 -3.41845 -3.4784 0
M  V30 476 H 36.8017 -5.1415 -1.94755 0
M  V30 477 H 38.0267 -6.32382 -2.47528 0
M  V30 478 H 35.9727 -4.97874 -4.2715 0
M  V30 479 H 35.8897 -6.60498 -3.67801 0
M  V30 480 H 37.1577 -6.15756 -4.7798 0
M  V30 481 N 41.3868 0.248026 -1.55636 0
M  V30 482 C 42.3498 1.29044 -1.89421 0
M  V30 483 C 43.3498 1.41134 -0.770581 0
M  V30 484 O 44.5398 1.39854 -1.03858 0
M  V30 485 C 41.6718 2.66831 -2.12165 0
M  V30 486 H 42.8648 1.00305 -2.82629 0
M  V30 487 H 40.4178 0.487265 -1.48511 0
M  V30 488 H 41.1528 3.00711 -1.21422 0
M  V30 489 H 40.9378 2.59438 -2.93997 0
M  V30 490 H 42.4278 3.42103 -2.3949 0
M  V30 491 N 42.8649 1.48995 0.513639 0
M  V30 492 C 44.1139 1.57093 1.2651 0
M  V30 493 C 44.4269 0.257091 1.93903 0
M  V30 494 O 45.6329 0.216478 2.70636 0
M  V30 495 C 44.0889 2.77118 2.29638 0
M  V30 496 C 43.6969 4.15209 1.68241 0
M  V30 497 C 45.4409 2.94538 3.05692 0
M  V30 498 C 43.3479 5.26474 2.69406 0
M  V30 499 H 42.2779 0.584876 0.475854 0
M  V30 500 H 44.9289 1.7536 0.540487 0
M  V30 501 H 43.3109 2.52319 3.05207 0
M  V30 502 H 44.4849 4.50094 0.987505 0
M  V30 503 H 42.7999 4.03042 1.04623 0
M  V30 504 H 45.3969 3.74832 3.8132 0
M  V30 505 H 45.7399 2.04614 3.62545 0
M  V30 506 H 46.2729 3.19316 2.37238 0
M  V30 507 H 43.0119 6.18417 2.17351 0
M  V30 508 H 42.5319 4.96058 3.37175 0
M  V30 509 H 44.2109 5.55277 3.32078 0
M  V30 510 N 44.343 -0.763751 1.37857 0
M  V30 511 C 45.592 -1.51789 1.32827 0
M  V30 512 C 45.905 -1.95426 -0.0823719 0
M  V30 513 O 47.111 -2.70298 -0.255172 0
M  V30 514 C 45.567 -2.74133 2.33193 0
M  V30 515 C 45.175 -2.37562 3.79827 0
M  V30 516 C 46.919 -3.52054 2.37188 0
M  V30 517 C 44.826 -3.56456 4.71904 0
M  V30 518 H 43.756 -0.569896 0.493695 0
M  V30 519 H 46.407 -0.835822 1.63359 0
M  V30 520 H 44.789 -3.4427 1.9569 0
M  V30 521 H 45.963 -1.75157 4.26212 0
M  V30 522 H 44.278 -1.72798 3.78853 0
M  V30 523 H 46.875 -4.40437 3.03182 0
M  V30 524 H 47.218 -3.92486 1.38782 0
M  V30 525 H 47.751 -2.88921 2.7344 0
M  V30 526 H 44.49 -3.21099 5.71468 0
M  V30 527 H 44.01 -4.17938 4.30218 0
M  V30 528 H 45.689 -4.23168 4.89426 0
M  V30 529 N 45.8211 -1.22559 -0.990812 0
M  V30 530 C 47.0461 -1.07862 -1.77145 0
M  V30 531 C 47.4711 0.366447 -1.84496 0
M  V30 532 O 46.8291 1.26478 -1.29896 0
M  V30 533 C 46.8771 -1.69686 -3.18181 0
M  V30 534 O 45.9811 -0.951946 -4.01263 0
M  V30 535 H 45.3221 -0.378712 -0.545411 0
M  V30 536 H 47.8521 -1.62399 -1.2445 0
M  V30 537 H 47.8621 -1.74496 -3.68802 0
M  V30 538 H 46.5371 -2.74841 -3.12146 0
M  V30 539 H 45.1141 -0.980011 -3.59792 0
M  V30 540 N 47.2992 1.18797 -1.03562 0
M  V30 541 C 48.5762 1.84469 -0.650434 0
M  V30 542 C 48.9562 1.92319 0.870433 0
M  V30 543 O 48.3042 1.44528 1.76986 0
M  V30 544 C 48.5142 3.2306 -1.32036 0
M  V30 545 C 49.8622 3.9915 -1.44792 0
M  V30 546 O 50.8862 3.32481 -1.27806 0
M  V30 547 O 49.7452 5.18587 -1.72423 0
M  V30 548 H 46.8392 0.795251 -0.226946 0
M  V30 549 H 49.3852 1.26231 -1.13419 0
M  V30 550 H 48.1572 3.1222 -2.3587 0
M  V30 551 H 47.7802 3.88949 -0.8249 0
M  V30 552 N 48.7773 0.814389 1.34928 0
M  V30 553 C 50.0233 0.399013 1.98836 0
M  V30 554 C 50.3563 -1.03314 1.64438 0
M  V30 555 O 49.6313 -1.71811 0.911659 0
M  V30 556 C 49.9143 0.591629 3.55207 0
M  V30 557 C 49.7673 2.06928 3.99376 0
M  V30 558 C 51.0863 0.022199 4.40094 0
M  V30 559 H 48.2053 0.146451 0.722303 0
M  V30 560 H 50.8473 1.02537 1.59957 0
M  V30 561 H 48.9973 0.0584441 3.88456 0
M  V30 562 H 50.6693 2.66544 3.76499 0
M  V30 563 H 48.9123 2.56287 3.49999 0
M  V30 564 H 49.5833 2.1549 5.08201 0
M  V30 565 H 52.0593 0.477643 4.13349 0
M  V30 566 H 50.9353 0.186832 5.48582 0
M  V30 567 H 51.1963 -1.07215 4.28902 0
M  V30 568 N 50.2554 -1.46986 0.568584 0
M  V30 569 C 51.2034 -2.31858 -0.185649 0
M  V30 570 C 52.1974 -1.43624 -0.898249 0
M  V30 571 O 53.4034 -1.60327 -0.818242 0
M  V30 572 H 49.7784 -0.747866 -0.0787399 0
M  V30 573 H 51.7494 -2.93303 0.549191 0
M  V30 574 C 50.4984 -3.26513 -1.19519 0
M  V30 575 H 49.8214 -3.94377 -0.656285 0
M  V30 576 H 51.2614 -3.88707 -1.6936 0
M  V30 577 C 49.7204 -2.50847 -2.24894 0
M  V30 578 O 50.2504 -2.26119 -3.32014 0
M  V30 579 N 48.4564 -2.11656 -1.99124 0
M  V30 580 H 48.0034 -2.31966 -1.12024 0
M  V30 581 H 47.9614 -1.61347 -2.69842 0
M  V30 582 N 51.7335 -0.305618 -1.54608 0
M  V30 583 C 52.6965 0.555591 -2.22364 0
M  V30 584 C 53.6965 1.05768 -1.21119 0
M  V30 585 O 54.8865 0.952972 -1.45822 0
M  V30 586 C 52.0185 1.76974 -2.91364 0
M  V30 587 H 53.2115 -0.0364572 -2.99878 0
M  V30 588 H 50.7645 -0.0565007 -1.56198 0
M  V30 589 H 51.4995 2.40151 -2.17941 0
M  V30 590 H 51.2845 1.41732 -3.65588 0
M  V30 591 H 52.7745 2.38148 -3.43038 0
M  V30 592 N 53.2116 1.57565 -0.0334293 0
M  V30 593 C 54.4366 1.96689 0.657895 0
M  V30 594 C 54.8616 0.910057 1.64619 0
M  V30 595 O 54.2196 -0.128598 1.80843 0
M  V30 596 C 54.2676 3.34905 1.33683 0
M  V30 597 O 53.3716 3.31574 2.45219 0
M  V30 598 H 52.7126 0.641205 0.172489 0
M  V30 599 H 55.2426 2.04372 -0.0965621 0
M  V30 600 H 55.2526 3.71234 1.69262 0
M  V30 601 H 53.9276 4.11366 0.612411 0
M  V30 602 H 52.5046 3.06968 2.11719 0
M  V30 603 N 54.6897 -0.239769 1.55765 0
M  V30 604 C 55.9667 -0.990056 1.68693 0
M  V30 605 C 56.3467 -2.03107 0.5754 0
M  V30 606 O 55.6947 -2.24604 -0.42017 0
M  V30 607 C 55.9047 -1.61696 3.09282 0
M  V30 608 C 57.2527 -2.11613 3.6811 0
M  V30 609 O 58.2767 -1.71624 3.12127 0
M  V30 610 O 57.1357 -2.85057 4.66267 0
M  V30 611 H 54.2297 -0.461299 0.686391 0
M  V30 612 H 56.7757 -0.232991 1.68093 0
M  V30 613 H 55.5477 -0.864357 3.81634 0
M  V30 614 H 55.1707 -2.44005 3.13923 0
M  V30 615 N 56.1678 -1.49265 -0.50573 0
M  V30 616 C 57.0778 -1.68312 -1.63427 0
M  V30 617 C 58.0938 -0.565682 -1.64548 0
M  V30 618 O 59.2698 -0.839801 -1.83055 0
M  V30 619 C 56.3348 -1.74107 -2.99813 0
M  V30 620 C 55.3958 -2.97653 -3.09356 0
M  V30 621 C 54.6288 -3.03163 -4.39236 0
M  V30 622 O 54.8518 -2.16396 -5.27758 0
M  V30 623 O 53.7858 -3.9558 -4.53652 0
M  V30 624 H 57.6118 -2.63907 -1.50289 0
M  V30 625 H 55.1968 -1.32951 -0.681502 0
M  V30 626 H 57.0788 -1.803 -3.80881 0
M  V30 627 H 55.7538 -0.816901 -3.13223 0
M  V30 628 H 54.6608 -2.96981 -2.27493 0
M  V30 629 H 55.9938 -3.89535 -3.00871 0
M  V30 630 N 57.6459 0.756429 -1.3826 0
M  V30 631 C 58.9229 1.50584 -1.24835 0
M  V30 632 C 59.3029 2.10556 0.151485 0
M  V30 633 O 58.6509 1.96825 1.1607 0
M  V30 634 C 58.8609 2.57448 -2.3563 0
M  V30 635 C 60.2089 3.24429 -2.73917 0
M  V30 636 O 61.2329 2.67751 -2.34921 0
M  V30 637 O 60.0919 4.26937 -3.41156 0
M  V30 638 H 57.1859 0.667664 -0.48801 0
M  V30 639 H 59.7319 0.792083 -1.5008 0
M  V30 640 H 58.5039 2.11362 -3.29305 0
M  V30 641 H 58.1269 3.36408 -2.11933 0
M  V30 642 N 59.124 1.23083 0.984299 0
M  V30 643 C 60.54 0.992637 1.24975 0
M  V30 644 C 60.74 -0.308618 1.99123 0
M  V30 645 O 59.796 -1.02905 2.30579 0
M  V30 646 C 61.109 2.19698 2.05312 0
M  V30 647 C 62.657 2.24147 2.18465 0
M  V30 648 C 63.132 3.44157 3.02192 0
M  V30 649 N 64.623 3.44372 3.09777 0
M  V30 650 C 65.358 4.33886 3.74874 0
M  V30 651 N 64.854 5.3363 4.41827 0
M  V30 652 N 66.647 4.21639 3.71721 0
M  V30 653 H 58.798 2.06731 0.487453 0
M  V30 654 H 61.061 0.906339 0.277944 0
M  V30 655 H 60.767 3.1411 1.58201 0
M  V30 656 H 60.641 2.20465 3.06064 0
M  V30 657 H 63.028 1.30277 2.64786 0
M  V30 658 H 63.109 2.27415 1.17115 0
M  V30 659 H 62.753 4.38332 2.56568 0
M  V30 660 H 62.683 3.3813 4.03702 0
M  V30 661 H 65.174 2.72201 2.62135 0
M  V30 662 H 65.487 5.98196 4.89266 0
M  V30 663 H 63.832 5.37534 4.40548 0
M  V30 664 H 67.023 3.42962 3.18582 0
M  V30 665 H 67.196 4.91604 4.22173 0
M  V30 666 N 60.6021 -1.18246 1.0419 0
M  V30 667 C 61.8481 -1.88793 0.75689 0
M  V30 668 C 62.2031 -1.78909 -0.707767 0
M  V30 669 O 61.4961 -1.1794 -1.50999 0
M  V30 670 C 61.6901 -3.38082 1.15911 0
M  V30 671 C 61.5191 -3.62496 2.66133 0
M  V30 672 C 60.2891 -3.7979 3.33298 0
M  V30 673 C 62.4871 -3.62976 3.64353 0
M  V30 674 N 60.4691 -3.91955 4.72487 0
M  V30 675 C 61.8401 -3.80869 4.89222 0
M  V30 676 C 63.8951 -3.46071 3.57965 0
M  V30 677 C 62.5981 -3.83608 6.08471 0
M  V30 678 C 64.6241 -3.50093 4.76643 0
M  V30 679 C 63.9861 -3.68484 6.00332 0
M  V30 680 H 60.0851 -0.709406 0.32904 0
M  V30 681 H 62.6691 -1.42022 1.33183 0
M  V30 682 H 60.8401 -3.83544 0.612238 0
M  V30 683 H 62.5721 -3.96202 0.824989 0
M  V30 684 H 59.3271 -3.79224 2.83701 0
M  V30 685 H 59.7511 -4.01857 5.44831 0
M  V30 686 H 64.3931 -3.30797 2.63311 0
M  V30 687 H 62.1111 -3.97669 7.0348 0
M  V30 688 H 65.6971 -3.38285 4.73344 0
M  V30 689 H 64.5771 -3.71488 6.90627 0
M  V30 690 N 62.0802 -0.821533 -1.34494 0
M  V30 691 C 63.0282 -0.230702 -2.31453 0
M  V30 692 C 64.0222 0.627793 -1.57338 0
M  V30 693 O 65.2282 0.519288 -1.72347 0
M  V30 694 H 61.6032 -0.0558577 -0.749923 0
M  V30 695 H 63.5742 -1.06332 -2.78812 0
M  V30 696 C 62.3232 0.59391 -3.4259 0
M  V30 697 H 61.6462 -0.0573588 -3.99759 0
M  V30 698 H 63.0862 0.973446 -4.12674 0
M  V30 699 C 61.5452 1.76568 -2.86924 0
M  V30 700 O 62.0752 2.8638 -2.81691 0
M  V30 701 N 60.2812 1.58198 -2.43766 0
M  V30 702 H 59.8282 0.68872 -2.48222 0
M  V30 703 H 59.7862 2.36752 -2.06871 0
M  V30 704 N 63.5583 1.46682 -0.576371 0
M  V30 705 C 64.5213 2.28707 0.150239 0
M  V30 706 C 65.5213 1.38035 0.824794 0
M  V30 707 O 66.7113 1.60476 0.677719 0
M  V30 708 C 63.8433 3.18248 1.22192 0
M  V30 709 H 65.0363 2.94423 -0.570521 0
M  V30 710 H 62.5893 1.52688 -0.334078 0
M  V30 711 H 63.3243 2.57265 1.97447 0
M  V30 712 H 63.1093 3.85 0.742812 0
M  V30 713 H 64.5993 3.80001 1.73172 0
M  V30 714 N 65.0364 0.313813 1.54444 0
M  V30 715 C 66.2824 -0.292108 2.00685 0
M  V30 716 C 66.6154 -1.52548 1.20177 0
M  V30 717 O 65.8904 -1.92452 0.281531 0
M  V30 718 C 66.1734 -0.635968 3.5444 0
M  V30 719 C 66.0264 0.607437 4.4568 0
M  V30 720 C 67.3454 -1.45747 4.15266 0
M  V30 721 H 64.4644 -0.104697 0.729526 0
M  V30 722 H 67.1064 0.428457 1.85106 0
M  V30 723 H 65.2564 -1.24986 3.67846 0
M  V30 724 H 66.9284 1.24581 4.44159 0
M  V30 725 H 65.1714 1.23822 4.15753 0
M  V30 726 H 65.8424 0.322515 5.51057 0
M  V30 727 H 68.3184 -0.938645 4.05375 0
M  V30 728 H 67.1944 -1.66683 5.2298 0
M  V30 729 H 67.4554 -2.45063 3.67963 0
M  V30 730 N 66.5145 -1.57545 0.0417849 0
M  V30 731 C 67.4445 -2.14009 -0.933929 0
M  V30 732 C 68.4255 -1.05938 -1.33083 0
M  V30 733 O 69.6105 -1.33833 -1.40721 0
M  V30 734 C 66.7405 -2.67747 -2.21199 0
M  V30 735 C 65.6945 -3.80718 -1.95544 0
M  V30 736 C 65.0205 -4.20935 -3.29724 0
M  V30 737 C 66.3205 -5.06258 -1.28452 0
M  V30 738 H 68.0145 -2.95788 -0.463645 0
M  V30 739 H 65.5605 -1.42285 -0.221573 0
M  V30 740 H 67.5135 -3.05886 -2.89848 0
M  V30 741 H 66.2375 -1.83147 -2.70416 0
M  V30 742 H 64.8965 -3.43037 -1.2931 0
M  V30 743 H 64.5445 -3.33298 -3.76724 0
M  V30 744 H 64.2445 -4.9707 -3.13361 0
M  V30 745 H 65.7685 -4.61666 -3.9962 0
M  V30 746 H 67.1825 -5.41903 -1.8712 0
M  V30 747 H 65.5795 -5.87475 -1.22445 0
M  V30 748 H 66.6495 -4.84207 -0.259219 0
M  V30 749 N 67.9926 0.231505 -1.5589 0
M  V30 750 C 68.9396 1.28682 -1.91598 0
M  V30 751 C 69.9096 1.47071 -0.771974 0
M  V30 752 O 71.0946 1.60802 -1.027 0
M  V30 753 C 68.2346 2.6342 -2.22944 0
M  V30 754 C 67.3476 2.52912 -3.50228 0
M  V30 755 C 66.4826 3.80106 -3.7107 0
M  V30 756 C 65.5216 3.64279 -4.91902 0
M  V30 757 N 64.6586 4.834 -5.09184 0
M  V30 758 H 69.4986 0.975305 -2.81588 0
M  V30 759 H 67.0356 0.470299 -1.39379 0
M  V30 760 H 68.9936 3.41869 -2.39126 0
M  V30 761 H 67.6236 2.92687 -1.36139 0
M  V30 762 H 66.6756 1.6595 -3.42294 0
M  V30 763 H 67.9876 2.37133 -4.38827 0
M  V30 764 H 67.1416 4.66999 -3.87295 0
M  V30 765 H 65.8806 3.98799 -2.80733 0
M  V30 766 H 64.8856 2.7577 -4.75637 0
M  V30 767 H 66.1106 3.47067 -5.83714 0
M  V30 768 H 64.0566 5.02425 -4.21788 0
M  V30 769 H 63.9736 4.70311 -5.91898 0
M  V30 770 H 65.2416 5.71747 -5.29835 0
M  V30 771 N 69.4707 1.49531 0.497807 0
M  V30 772 C 70.4007 1.6935 1.60757 0
M  V30 773 C 71.3817 0.542218 1.61227 0
M  V30 774 O 72.5667 0.778417 1.77917 0
M  V30 775 C 69.6967 1.76298 2.99226 0
M  V30 776 C 68.6507 2.91248 3.13622 0
M  V30 777 C 67.9767 2.83312 4.53474 0
M  V30 778 C 69.2767 4.3214 2.93346 0
M  V30 779 H 70.9707 2.62263 1.44425 0
M  V30 780 H 68.5167 1.26208 0.693367 0
M  V30 781 H 70.4697 1.88749 3.76765 0
M  V30 782 H 69.1937 0.799871 3.16654 0
M  V30 783 H 67.8527 2.78404 2.38509 0
M  V30 784 H 67.5007 1.84902 4.67782 0
M  V30 785 H 67.2007 3.60465 4.64046 0
M  V30 786 H 68.7247 2.97775 5.33069 0
M  V30 787 H 70.1387 4.45649 3.60652 0
M  V30 788 H 68.5357 5.1054 3.15387 0
M  V30 789 H 69.6057 4.46363 1.89441 0
M  V30 790 N 70.9488 -0.749086 1.3866 0
M  V30 791 C 71.8808 -1.87273 1.32142 0
M  V30 792 C 72.8938 -1.61127 0.232787 0
M  V30 793 O 74.0828 -1.71623 0.49069 0
M  V30 794 C 71.1828 -3.23005 1.02571 0
M  V30 795 C 70.3558 -3.7662 2.22433 0
M  V30 796 C 69.4148 -4.90879 1.89537 0
M  V30 797 O 68.4408 -5.05276 2.62078 0
M  V30 798 N 69.6428 -5.74198 0.853031 0
M  V30 799 H 72.4078 -1.93373 2.28969 0
M  V30 800 H 69.9688 -0.929216 1.32579 0
M  V30 801 H 71.9608 -3.96992 0.786085 0
M  V30 802 H 70.5308 -3.12262 0.145249 0
M  V30 803 H 69.7508 -2.94147 2.62434 0
M  V30 804 H 71.0388 -4.09173 3.02415 0
M  V30 805 H 70.4368 -5.6514 0.25155 0
M  V30 806 H 68.9938 -6.48313 0.67329 0
M  V30 807 N 72.4269 -1.23603 -0.977757 0
M  V30 808 C 73.6549 -1.09646 -1.75458 0
M  V30 809 C 74.0699 0.351859 -1.85492 0
M  V30 810 O 73.4269 1.24327 -1.336 0
M  V30 811 C 73.4779 -1.71895 -3.18016 0
M  V30 812 O 73.1989 -3.11063 -3.08498 0
M  V30 813 C 74.6999 -1.63415 -4.12081 0
M  V30 814 H 71.9199 -0.38359 -0.550545 0
M  V30 815 H 74.4639 -1.63507 -1.22824 0
M  V30 816 H 72.6189 -1.22061 -3.67668 0
M  V30 817 H 73.0329 -3.41305 -3.9826 0
M  V30 818 H 74.5069 -2.11669 -5.09804 0
M  V30 819 H 74.9839 -0.593462 -4.35172 0
M  V30 820 H 75.5899 -2.12628 -3.68334 0
M  V30 821 N 73.905 1.17692 -1.04816 0
M  V30 822 C 74.835 2.23777 -0.666791 0
M  V30 823 C 75.816 1.66796 0.33361 0
M  V30 824 O 77.001 1.93039 0.212042 0
M  V30 825 C 74.131 3.47281 -0.0367933 0
M  V30 826 C 73.085 4.17059 -0.961546 0
M  V30 827 C 72.411 5.34342 -0.195626 0
M  V30 828 C 73.711 4.69713 -2.28402 0
M  V30 829 H 75.405 2.55933 -1.55367 0
M  V30 830 H 72.951 1.23019 -0.748484 0
M  V30 831 H 74.904 4.20706 0.241775 0
M  V30 832 H 73.628 3.14381 0.885004 0
M  V30 833 H 72.287 3.45541 -1.22462 0
M  V30 834 H 71.935 4.97692 0.728816 0
M  V30 835 H 71.635 5.81966 -0.811775 0
M  V30 836 H 73.159 6.10553 0.0757473 0
M  V30 837 H 74.573 5.34794 -2.06563 0
M  V30 838 H 72.97 5.279 -2.8538 0
M  V30 839 H 74.04 3.86726 -2.92525 0
M  V30 840 N 75.3831 0.828654 1.34056 0
M  V30 841 C 76.7941 0.477534 1.8049 0
M  V30 842 C 77.1451 -1.00258 1.6865 0
M  V30 843 O 76.2701 -1.78057 1.22982 0
M  V30 844 C 76.8651 0.860018 3.27703 0
M  V30 845 C 75.4241 0.561185 3.72193 0
M  V30 846 C 74.5711 1.07385 2.55663 0
M  V30 847 H 77.5221 1.0183 1.21722 0
M  V30 848 H 77.5431 0.166038 3.80138 0
M  V30 849 H 77.0551 1.93731 3.36288 0
M  V30 850 H 75.1561 -0.506465 3.69142 0
M  V30 851 H 75.2691 1.10926 4.66082 0
M  V30 852 H 73.6331 0.495149 2.49841 0
M  V30 853 H 74.4161 2.15771 2.67016 0
M  V30 854 N 76.8612 -1.46375 0.584142 0
M  V30 855 C 78.2772 -1.57694 0.245929 0
M  V30 856 C 78.4772 -1.57903 -1.25175 0
M  V30 857 O 77.5332 -1.49676 -2.03355 0
M  V30 858 C 78.8462 -2.87028 0.896402 0
M  V30 859 C 80.3942 -3.00662 0.870127 0
M  V30 860 C 80.8692 -4.32734 1.50017 0
M  V30 861 N 82.3602 -4.39436 1.46458 0
M  V30 862 C 83.0952 -5.40248 1.92144 0
M  V30 863 N 82.5912 -6.47726 2.4581 0
M  V30 864 N 84.3842 -5.31459 1.83052 0
M  V30 865 H 76.5352 -1.44483 1.55687 0
M  V30 866 H 78.7982 -0.689291 0.650831 0
M  V30 867 H 78.5042 -2.9269 1.95002 0
M  V30 868 H 78.3782 -3.75014 0.405486 0
M  V30 869 H 80.7652 -2.94581 -0.174871 0
M  V30 870 H 80.8462 -2.14148 1.39908 0
M  V30 871 H 80.4902 -4.39573 2.54437 0
M  V30 872 H 80.4202 -5.18025 0.946432 0
M  V30 873 H 82.9112 -3.62367 1.07231 0
M  V30 874 H 83.2242 -7.20863 2.78525 0
M  V30 875 H 81.5692 -6.48542 2.49836 0
M  V30 876 H 84.7602 -4.46396 1.40883 0
M  V30 877 H 84.9332 -6.09881 2.18973 0
M  V30 878 N 78.3393 -0.321999 -1.54275 0
M  V30 879 C 79.6163 0.335232 -1.92706 0
M  V30 880 C 79.9963 1.70006 -1.25145 0
M  V30 881 O 79.3443 2.25067 -0.394596 0
M  V30 882 C 79.5543 0.429008 -3.46353 0
M  V30 883 C 80.9023 0.690029 -4.18956 0
M  V30 884 O 81.9263 0.511992 -3.52501 0
M  V30 885 O 80.7853 1.03338 -5.36641 0
M  V30 886 H 77.8793 0.191143 -0.804608 0
M  V30 887 H 80.4253 -0.3716 -1.65581 0
M  V30 888 H 79.1973 -0.529611 -3.87699 0
M  V30 889 H 78.8203 1.18348 -3.79578 0
M  V30 890 N 79.8174 1.5752 -0.0501392 0
M  V30 891 C 81.0424 1.97376 0.636997 0
M  V30 892 C 81.4674 0.927466 1.63645 0
M  V30 893 O 80.8254 -0.10941 1.8097 0
M  V30 894 C 80.8734 3.36304 1.30123 0
M  V30 895 O 79.9774 3.34156 2.41689 0
M  V30 896 H 79.3184 0.642998 0.165679 0
M  V30 897 H 81.8484 2.04258 -0.118233 0
M  V30 898 H 81.8584 3.73008 1.65315 0
M  V30 899 H 80.5334 4.11993 0.568746 0
M  V30 900 H 79.1104 3.09196 2.08451 0
M  V30 901 N 81.2955 -0.223234 1.56011 0
M  V30 902 C 82.5205 -0.968978 1.83373 0
M  V30 903 C 82.9455 -1.77227 0.630254 0
M  V30 904 O 82.3035 -1.76345 -0.420959 0
M  V30 905 C 82.3515 -1.86363 3.08709 0
M  V30 906 O 81.4555 -2.95873 2.87285 0
M  V30 907 H 80.7965 -0.274461 0.604622 0
M  V30 908 H 83.3265 -0.237056 2.03222 0
M  V30 909 H 83.3365 -2.27376 3.38768 0
M  V30 910 H 82.0115 -1.27319 3.95933 0
M  V30 911 H 80.5885 -2.58818 2.68454 0
M  V30 912 N 82.7736 -1.49793 -0.48987 0
M  V30 913 C 84.1846 -1.52914 -1.07118 0
M  V30 914 C 84.5356 -0.321738 -1.93544 0
M  V30 915 O 83.6606 0.567338 -2.08831 0
M  V30 916 C 84.2556 -2.771 -1.94938 0
M  V30 917 C 82.8146 -2.82963 -2.48212 0
M  V30 918 C 81.9616 -2.46972 -1.26096 0
M  V30 919 H 84.9126 -1.56329 -0.273289 0
M  V30 920 H 84.9336 -2.57892 -2.79771 0
M  V30 921 H 84.4456 -3.64959 -1.32009 0
M  V30 922 H 82.5466 -1.99411 -3.14748 0
M  V30 923 H 82.6596 -3.85406 -2.84603 0
M  V30 924 H 81.0236 -1.98994 -1.58976 0
M  V30 925 H 81.8066 -3.37118 -0.648581 0
M  V30 926 N 84.2517 0.741722 -1.39055 0
M  V30 927 C 85.4767 1.53607 -1.39354 0
M  V30 928 C 85.9017 1.88096 0.0116905 0
M  V30 929 O 85.2597 1.5143 0.996924 0
M  V30 930 C 85.3077 2.80441 -2.26682 0
M  V30 931 O 84.4117 3.76088 -1.69208 0
M  V30 932 H 83.7527 0.464142 -0.474835 0
M  V30 933 H 86.2827 0.915665 -1.82967 0
M  V30 934 H 86.2927 3.29246 -2.40959 0
M  V30 935 H 84.9677 2.5467 -3.2881 0
M  V30 936 H 83.5447 3.34833 -1.64138 0
M  V30 937 N 85.7298 1.2412 0.971189 0
M  V30 938 C 87.1458 1.00584 1.23916 0
M  V30 939 C 87.3458 -0.287481 1.99439 0
M  V30 940 O 86.4018 -1.00454 2.31658 0
M  V30 941 C 87.7148 2.21864 2.0297 0
M  V30 942 C 89.2628 2.26452 2.16076 0
M  V30 943 C 89.7378 3.47343 2.98524 0
M  V30 944 N 91.2288 3.47639 3.06107 0
M  V30 945 C 91.9638 4.37837 3.70251 0
M  V30 946 N 91.4598 5.38286 4.36142 0
M  V30 947 N 93.2528 4.25558 3.67228 0
M  V30 948 H 85.4038 2.07236 0.465499 0
M  V30 949 H 87.6668 0.909236 0.268315 0
M  V30 950 H 87.3728 3.15771 1.54861 0
M  V30 951 H 87.2468 2.23698 3.03709 0
M  V30 952 H 89.6338 1.33078 2.6339 0
M  V30 953 H 89.7148 2.28645 1.14696 0
M  V30 954 H 89.3588 4.41029 2.51905 0
M  V30 955 H 89.2888 3.42393 4.00093 0
M  V30 956 H 91.7798 2.74966 2.59233 0
M  V30 957 H 92.0928 6.03352 4.82894 0
M  V30 958 H 90.4378 5.42176 4.34822 0
M  V30 959 H 93.6288 3.46322 3.14927 0
M  V30 960 H 93.8018 4.96054 4.16935 0
M  V30 961 N 87.2079 -1.17134 1.05439 0
M  V30 962 C 88.1399 -2.2078 0.615539 0
M  V30 963 C 89.1529 -1.59584 -0.322001 0
M  V30 964 O 90.3419 -1.78133 -0.114344 0
M  V30 965 C 87.4419 -3.38691 -0.118938 0
M  V30 966 C 86.6149 -4.29454 0.829924 0
M  V30 967 C 85.6739 -5.26024 0.136258 0
M  V30 968 O 84.6999 -5.63952 0.77115 0
M  V30 969 N 85.9019 -5.69487 -1.1254 0
M  V30 970 H 88.6669 -2.59052 1.50705 0
M  V30 971 H 86.2279 -1.32058 0.936603 0
M  V30 972 H 88.2199 -4.00329 -0.593179 0
M  V30 973 H 86.7899 -2.98996 -0.91215 0
M  V30 974 H 86.0099 -3.65211 1.48373 0
M  V30 975 H 87.2979 -4.86984 1.47392 0
M  V30 976 H 86.6959 -5.4075 -1.6615 0
M  V30 977 H 85.2529 -6.33257 -1.54366 0
M  V30 978 N 88.686 -0.835752 -1.33615 0
M  V30 979 C 90.102 -0.523139 -1.50783 0
M  V30 980 C 90.302 0.950171 -1.77691 0
M  V30 981 O 89.358 1.73411 -1.83534 0
M  V30 982 C 90.671 -1.39378 -2.66448 0
M  V30 983 C 92.219 -1.39223 -2.80332 0
M  V30 984 C 92.694 -2.24765 -3.99055 0
M  V30 985 N 94.185 -2.22458 -4.06284 0
M  V30 986 C 94.92 -2.85386 -4.97336 0
M  V30 987 N 94.416 -3.57354 -5.93523 0
M  V30 988 N 96.209 -2.74872 -4.90308 0
M  V30 989 H 88.36 -1.78952 -1.14411 0
M  V30 990 H 90.623 -0.763297 -0.562212 0
M  V30 991 H 90.329 -2.44061 -2.53234 0
M  V30 992 H 90.203 -1.0676 -3.61776 0
M  V30 993 H 92.59 -0.353136 -2.92979 0
M  V30 994 H 92.671 -1.75846 -1.85773 0
M  V30 995 H 92.315 -3.28732 -3.87167 0
M  V30 996 H 92.245 -1.85485 -4.92852 0
M  V30 997 H 94.736 -1.70119 -3.37443 0
M  V30 998 H 95.049 -4.02584 -6.59656 0
M  V30 999 H 93.394 -3.61461 -5.93608 0
M  V30 1000 H 96.585 -2.18213 -4.14126 0
M  V30 1001 H 96.758 -3.24199 -5.61069 0
M  V30 1002 N 90.1641 1.46063 -0.591896 0
M  V30 1003 C 91.1121 2.32124 0.148739 0
M  V30 1004 C 92.1061 1.45035 0.875286 0
M  V30 1005 O 93.3121 1.61609 0.792632 0
M  V30 1006 H 89.6871 0.749024 0.066832 0
M  V30 1007 H 91.6581 2.92392 -0.595783 0
M  V30 1008 C 90.4071 3.28373 1.1431 0
M  V30 1009 H 89.7301 3.95371 0.59346 0
M  V30 1010 H 91.1701 3.91352 1.63155 0
M  V30 1011 C 89.6291 2.54393 2.20875 0
M  V30 1012 O 90.1591 2.31373 3.28374 0
M  V30 1013 N 88.3651 2.14797 1.95731 0
M  V30 1014 H 87.9121 2.33719 1.08319 0
M  V30 1015 H 87.8701 1.65619 2.67241 0
M  V30 1016 N 91.6422 0.330177 1.54103 0
M  V30 1017 C 93.0582 -0.0222371 1.59585 0
M  V30 1018 C 93.2582 -1.49902 1.34654 0
M  V30 1019 O 92.3142 -2.25592 1.13421 0
M  V30 1020 C 93.6272 0.401932 2.98002 0
M  V30 1021 C 95.1752 0.353145 3.11001 0
M  V30 1022 C 95.6502 0.752576 4.51775 0
M  V30 1023 N 97.1412 0.706239 4.57784 0
M  V30 1024 C 97.8762 0.987417 5.64834 0
M  V30 1025 N 97.3722 1.33607 6.79795 0
M  V30 1026 N 99.1652 0.91254 5.54643 0
M  V30 1027 H 91.3162 1.29228 1.68564 0
M  V30 1028 H 93.5792 0.525906 0.78875 0
M  V30 1029 H 93.2852 1.4311 3.21267 0
M  V30 1030 H 93.1592 -0.229699 3.765 0
M  V30 1031 H 95.5462 -0.666822 2.87467 0
M  V30 1032 H 95.6272 1.0198 2.34593 0
M  V30 1033 H 95.2712 1.77049 4.76042 0
M  V30 1034 H 95.2012 0.0635409 5.26562 0
M  V30 1035 H 97.6922 0.44889 3.75224 0
M  V30 1036 H 98.0052 1.53582 7.57385 0
M  V30 1037 H 96.3502 1.37439 6.81275 0
M  V30 1038 H 99.5412 0.639601 4.6371 0
M  V30 1039 H 99.7142 1.13503 6.37982 0
M  V30 1040 N 93.1203 -1.57491 0.0584922 0
M  V30 1041 C 94.3603 -1.94851 -0.617458 0
M  V30 1042 C 94.7243 -0.937165 -1.67575 0
M  V30 1043 O 95.9253 -1.19795 -2.40629 0
M  V30 1044 C 94.1963 -3.36955 -1.19147 0
M  V30 1045 S 95.7553 -3.96277 -1.8844 0
M  V30 1046 H 92.5733 -0.681539 -0.202547 0
M  V30 1047 H 95.1753 -1.95073 0.129176 0
M  V30 1048 H 93.8793 -4.08355 -0.409215 0
M  V30 1049 H 93.4103 -3.40245 -1.97476 0
M  V30 1050 H 95.4253 -3.82099 -3.16568 0
M  V30 1051 N 94.5984 0.214957 -1.56127 0
M  V30 1052 C 96.0144 0.564948 -1.49267 0
M  V30 1053 C 96.2144 1.86827 -0.754838 0
M  V30 1054 O 95.2704 2.50745 -0.297198 0
M  V30 1055 C 96.5834 0.638071 -2.93852 0
M  V30 1056 C 98.1314 0.728253 -3.0441 0
M  V30 1057 C 98.6064 0.832663 -4.50367 0
M  V30 1058 N 100.097 0.896712 -4.54437 0
M  V30 1059 C 100.832 0.997324 -5.6466 0
M  V30 1060 N 100.328 1.06147 -6.8462 0
M  V30 1061 N 102.121 1.03297 -5.52527 0
M  V30 1062 H 94.2724 -0.640211 -2.02522 0
M  V30 1063 H 96.5354 -0.225507 -0.920788 0
M  V30 1064 H 96.2414 -0.250126 -3.50809 0
M  V30 1065 H 96.1154 1.49947 -3.46115 0
M  V30 1066 H 98.5024 1.60689 -2.47514 0
M  V30 1067 H 98.5834 -0.158952 -2.55306 0
M  V30 1068 H 98.2274 -0.0415417 -5.07883 0
M  V30 1069 H 98.1574 1.73538 -4.97184 0
M  V30 1070 H 100.648 0.857188 -3.6805 0
M  V30 1071 H 100.961 1.1382 -7.64372 0
M  V30 1072 H 99.3064 1.03049 -6.87318 0
M  V30 1073 H 102.497 0.979558 -4.57736 0
M  V30 1074 H 102.67 1.10793 -6.38458 0
M  V30 1075 N 96.0765 1.50051 0.48192 0
M  V30 1076 C 97.0085 1.64263 1.59844 0
M  V30 1077 C 98.0215 0.52451 1.54119 0
M  V30 1078 O 99.2105 0.797293 1.59704 0
M  V30 1079 C 96.3105 1.60102 2.98698 0
M  V30 1080 C 95.4835 2.87767 3.29407 0
M  V30 1081 C 94.5425 2.76397 4.47762 0
M  V30 1082 O 93.5685 3.50348 4.48603 0
M  V30 1083 N 94.7705 1.89222 5.48794 0
M  V30 1084 H 97.5355 2.60566 1.48073 0
M  V30 1085 H 95.0965 1.47379 0.670149 0
M  V30 1086 H 97.0885 1.50123 3.75826 0
M  V30 1087 H 95.6585 0.715798 3.04294 0
M  V30 1088 H 94.8785 3.11954 2.40994 0
M  V30 1089 H 96.1665 3.72365 3.4673 0
M  V30 1090 H 95.5645 1.28434 5.50928 0
M  V30 1091 H 94.1215 1.85154 6.24949 0
M  V30 1092 N 97.5546 -0.734337 1.39446 0
M  V30 1093 C 98.7826 -1.52358 1.39981 0
M  V30 1094 C 99.1976 -1.88799 -0.0054975 0
M  V30 1095 O 98.5546 -1.54146 -0.976998 0
M  V30 1096 C 98.6056 -2.81072 2.27333 0
M  V30 1097 O 98.3266 -2.46178 3.62392 0
M  V30 1098 C 99.8276 -3.75096 2.36259 0
M  V30 1099 H 97.0476 -0.470806 0.478103 0
M  V30 1100 H 99.5916 -0.907339 1.83269 0
M  V30 1101 H 97.7466 -3.39026 1.87457 0
M  V30 1102 H 98.1606 -3.28866 4.08592 0
M  V30 1103 H 99.6346 -4.62305 3.01626 0
M  V30 1104 H 100.112 -4.16892 1.38194 0
M  V30 1105 H 100.718 -3.23061 2.76608 0
M  V30 1106 N 99.0327 -1.24633 -0.964593 0
M  V30 1107 C 100.281 -1.08573 -1.70459 0
M  V30 1108 C 100.602 0.375655 -1.91347 0
M  V30 1109 O 99.8717 1.26779 -1.49345 0
M  V30 1110 H 98.4517 -0.398784 -0.631649 0
M  V30 1111 H 101.114 -1.56601 -1.16026 0
M  V30 1112 H 100.21 -1.58623 -2.68785 0
M  V30 1113 N 100.511 1.16574 -1.06058 0
M  V30 1114 C 101.927 1.3904 -0.783585 0
M  V30 1115 C 102.127 1.91784 0.618145 0
M  V30 1116 O 101.183 2.11511 1.37911 0
M  V30 1117 C 102.496 2.37329 -1.84649 0
M  V30 1118 C 104.044 2.51018 -1.86973 0
M  V30 1119 C 104.519 3.52588 -2.92311 0
M  V30 1120 N 106.01 3.60113 -2.91329 0
M  V30 1121 C 106.745 4.38486 -3.69482 0
M  V30 1122 N 106.241 5.20302 -4.57447 0
M  V30 1123 N 108.034 4.33446 -3.57885 0
M  V30 1124 H 100.185 0.806725 -1.96483 0
M  V30 1125 H 102.448 0.417117 -0.851303 0
M  V30 1126 H 102.154 2.05663 -2.85299 0
M  V30 1127 H 102.028 3.36946 -1.6955 0
M  V30 1128 H 104.415 2.81989 -0.869827 0
M  V30 1129 H 104.496 1.51445 -2.0615 0
M  V30 1130 H 104.14 3.22354 -3.92492 0
M  V30 1131 H 104.07 4.51886 -2.70383 0
M  V30 1132 H 106.561 3.01707 -2.27555 0
M  V30 1133 H 106.874 5.77311 -5.13743 0
M  V30 1134 H 105.219 5.19653 -4.61503 0
M  V30 1135 H 108.41 3.68586 -2.88551 0
M  V30 1136 H 108.583 4.94279 -4.19037 0
M  V30 1137 N 101.989 0.842826 1.3317 0
M  V30 1138 C 103.4 0.496651 1.79973 0
M  V30 1139 C 103.751 -0.984641 1.69703 0
M  V30 1140 O 102.876 -1.76743 1.24863 0
M  V30 1141 C 103.471 0.894727 3.26772 0
M  V30 1142 C 102.03 0.600629 3.71577 0
M  V30 1143 C 101.177 1.10091 2.5451 0
M  V30 1144 H 104.128 1.03116 1.20635 0
M  V30 1145 H 104.149 0.206347 3.7994 0
M  V30 1146 H 103.661 1.97287 3.34215 0
M  V30 1147 H 101.762 -0.467284 3.69658 0
M  V30 1148 H 101.875 1.15863 4.64879 0
M  V30 1149 H 100.239 0.52162 2.49301 0
M  V30 1150 H 101.022 2.18591 2.64713 0
M  V30 1151 N 103.467 -1.45747 0.599634 0
M  V30 1152 C 104.417 -2.27538 -0.145107 0
M  V30 1153 C 105.401 -1.3686 -0.846055 0
M  V30 1154 O 106.593 -1.6091 -0.737357 0
M  V30 1155 C 103.722 -3.23569 -1.14708 0
M  V30 1156 C 102.808 -4.21734 -0.447383 0
M  V30 1157 N 103.199 -5.03257 0.506535 0
M  V30 1158 C 101.497 -4.40536 -0.695966 0
M  V30 1159 C 102.198 -5.74426 0.917068 0
M  V30 1160 N 101.174 -5.42966 0.26253 0
M  V30 1161 H 104.976 -2.87965 0.587672 0
M  V30 1162 H 102.49 -1.56803 0.422697 0
M  V30 1163 H 104.487 -3.8089 -1.69495 0
M  V30 1164 H 103.147 -2.64702 -1.8805 0
M  V30 1165 H 104.158 -5.10319 0.882899 0
M  V30 1166 H 100.835 -3.92802 -1.41467 0
M  V30 1167 H 102.225 -6.4995 1.70338 0
M  V30 1168 N 104.945 -0.338344 -1.53925 0
M  V30 1169 C 106.193 0.259245 -2.0043 0
M  V30 1170 C 106.514 1.51484 -1.22791 0
M  V30 1171 O 105.784 1.93037 -0.33368 0
M  V30 1172 H 104.364 0.0987845 -0.740439 0
M  V30 1173 H 107.026 -0.458302 -1.89435 0
M  V30 1174 H 106.122 0.505334 -3.07982 0
M  V30 1175 N 106.423 1.57458 -0.0668435 0
M  V30 1176 C 107.67 1.93301 0.603406 0
M  V30 1177 C 107.998 0.946486 1.69917 0
M  V30 1178 O 107.253 -0.0387021 1.95662 0
M  V30 1179 C 107.552 3.35784 1.22409 0
M  V30 1180 C 107.218 4.50179 0.254955 0
M  V30 1181 C 105.88 4.81199 -0.0116746 0
M  V30 1182 C 108.232 5.19598 -0.408338 0
M  V30 1183 C 105.56 5.78978 -0.94877 0
M  V30 1184 C 107.912 6.18381 -1.33372 0
M  V30 1185 C 106.576 6.47821 -1.60887 0
M  V30 1186 H 105.846 0.707338 0.220802 0
M  V30 1187 H 108.493 1.91012 -0.136665 0
M  V30 1188 H 106.798 3.34515 2.03978 0
M  V30 1189 H 108.495 3.60804 1.74989 0
M  V30 1190 H 105.085 4.25983 0.472954 0
M  V30 1191 H 109.269 4.95832 -0.215456 0
M  V30 1192 H 104.525 6.00115 -1.16925 0
M  V30 1193 H 108.699 6.71277 -1.85367 0
M  V30 1194 H 106.326 7.23399 -2.33661 0
M  V30 1195 N 107.901 -0.206675 1.56239 0
M  V30 1196 C 108.831 -1.25909 1.96645 0
M  V30 1197 C 109.812 -1.48097 0.836734 0
M  V30 1198 O 110.997 -1.6003 1.10019 0
M  V30 1199 C 108.127 -2.6058 2.29599 0
M  V30 1200 C 107.081 -2.53024 3.452 0
M  V30 1201 C 106.407 -3.91861 3.63798 0
M  V30 1202 C 107.707 -2.06524 4.79734 0
M  V30 1203 H 109.401 -0.923369 2.84806 0
M  V30 1204 H 106.947 -0.442735 1.37025 0
M  V30 1205 H 108.9 -3.34375 2.56459 0
M  V30 1206 H 107.624 -2.95869 1.38307 0
M  V30 1207 H 106.283 -1.81684 3.18412 0
M  V30 1208 H 105.931 -4.24483 2.69857 0
M  V30 1209 H 105.631 -3.87683 4.4156 0
M  V30 1210 H 107.155 -4.67296 3.93022 0
M  V30 1211 H 108.569 -2.70072 5.05702 0
M  V30 1212 H 106.966 -2.13374 5.60885 0
M  V30 1213 H 108.036 -1.01802 4.74093 0
M  V30 1214 N 109.379 -1.50304 -0.473955 0
M  V30 1215 C 110.795 -1.37667 -0.807466 0
M  V30 1216 C 110.995 -0.430555 -1.96846 0
M  V30 1217 O 110.051 0.127874 -2.52176 0
M  V30 1218 C 111.364 -2.78974 -1.12223 0
M  V30 1219 C 112.912 -2.87868 -1.22885 0
M  V30 1220 C 113.387 -4.30003 -1.57676 0
M  V30 1221 N 114.878 -4.3294 -1.64673 0
M  V30 1222 C 115.613 -5.3991 -1.93091 0
M  V30 1223 N 115.109 -6.57092 -2.1955 0
M  V30 1224 N 116.902 -5.27351 -1.94569 0
M  V30 1225 H 109.053 -2.10394 0.291212 0
M  V30 1226 H 111.316 -0.945575 0.0677609 0
M  V30 1227 H 111.022 -3.50031 -0.342229 0
M  V30 1228 H 110.896 -3.16038 -2.05913 0
M  V30 1229 H 113.283 -2.17032 -1.99953 0
M  V30 1230 H 113.364 -2.54352 -0.271814 0
M  V30 1231 H 113.008 -5.01375 -0.81149 0
M  V30 1232 H 112.938 -4.61004 -2.54525 0
M  V30 1233 H 115.429 -3.48441 -1.46277 0
M  V30 1234 H 115.742 -7.34425 -2.405 0
M  V30 1235 H 114.087 -6.60272 -2.16948 0
M  V30 1236 H 117.278 -4.34801 -1.73394 0
M  V30 1237 H 117.451 -6.10805 -2.16381 0
M  V30 1238 N 110.857 0.726932 -1.39834 0
M  V30 1239 C 111.804 1.841 -1.39197 0
M  V30 1240 C 112.774 1.642 -0.250502 0
M  V30 1241 O 113.959 1.85494 -0.446846 0
M  V30 1242 C 111.099 3.21697 -1.24919 0
M  V30 1243 C 110.212 3.53247 -2.48678 0
M  V30 1244 C 109.347 4.80289 -2.26928 0
M  V30 1245 C 108.386 5.04707 -3.4632 0
M  V30 1246 N 107.523 6.22956 -3.23836 0
M  V30 1247 H 112.363 1.83979 -2.34427 0
M  V30 1248 H 109.9 0.898876 -1.16442 0
M  V30 1249 H 111.858 4.01137 -1.1465 0
M  V30 1250 H 110.488 3.21076 -0.333153 0
M  V30 1251 H 109.54 2.68447 -2.69519 0
M  V30 1252 H 110.852 3.67205 -3.37582 0
M  V30 1253 H 110.006 5.67725 -2.13947 0
M  V30 1254 H 108.745 4.68519 -1.35431 0
M  V30 1255 H 107.75 4.1573 -3.5979 0
M  V30 1256 H 108.975 5.18357 -4.38729 0
M  V30 1257 H 106.921 6.12459 -2.35011 0
M  V30 1258 H 106.838 6.37539 -4.063 0
M  V30 1259 H 108.106 7.1321 -3.14566 0
M  V30 1260 N 112.336 1.25143 0.95797 0
M  V30 1261 C 113.583 1.09692 1.70217 0
M  V30 1262 C 113.911 -0.362654 1.91089 0
M  V30 1263 O 113.166 -1.28386 1.47701 0
M  V30 1264 C 113.465 1.79272 3.09187 0
M  V30 1265 C 113.131 3.29196 3.08125 0
M  V30 1266 C 111.793 3.70096 3.07543 0
M  V30 1267 C 114.145 4.24995 3.0171 0
M  V30 1268 C 111.473 5.05213 2.9829 0
M  V30 1269 C 113.825 5.60132 2.93999 0
M  V30 1270 C 112.489 6.00365 2.9175 0
M  V30 1271 H 111.759 0.401393 0.622868 0
M  V30 1272 H 114.406 1.55372 1.11945 0
M  V30 1273 H 112.711 1.26014 3.70982 0
M  V30 1274 H 114.408 1.64773 3.65583 0
M  V30 1275 H 110.998 2.96651 3.09348 0
M  V30 1276 H 115.182 3.9439 3.01281 0
M  V30 1277 H 110.438 5.35569 2.94916 0
M  V30 1278 H 114.612 6.3406 2.87996 0
M  V30 1279 H 112.239 7.05023 2.84336 0
M  V30 1280 N 113.814 -1.1601 1.06675 0
M  V30 1281 C 115.062 -1.86264 0.784229 0
M  V30 1282 C 115.383 -1.82328 -0.691488 0
M  V30 1283 O 114.653 -1.25947 -1.50047 0
M  V30 1284 H 113.233 -0.689621 0.28711 0
M  V30 1285 H 115.895 -1.40664 1.34906 0
M  V30 1286 H 114.991 -2.91595 1.11259 0
M  V30 1287 N 115.292 -0.849877 -1.32721 0
M  V30 1288 C 116.222 -0.306308 -2.31482 0
M  V30 1289 C 117.203 0.591952 -1.59468 0
M  V30 1290 O 118.388 0.513199 -1.87296 0
M  V30 1291 C 115.518 0.510204 -3.43532 0
M  V30 1292 C 114.472 -0.293209 -4.26994 0
M  V30 1293 C 113.798 0.647743 -5.30762 0
M  V30 1294 C 115.098 -1.51634 -4.99804 0
M  V30 1295 H 116.792 -1.13153 -2.77195 0
M  V30 1296 H 114.338 -0.545553 -1.33266 0
M  V30 1297 H 116.291 0.900856 -4.11658 0
M  V30 1298 H 115.015 1.36874 -2.96535 0
M  V30 1299 H 113.674 -0.665555 -3.60508 0
M  V30 1300 H 113.322 1.50299 -4.8002 0
M  V30 1301 H 113.022 0.11422 -5.87489 0
M  V30 1302 H 114.546 1.03567 -6.01753 0
M  V30 1303 H 115.96 -1.19824 -5.60638 0
M  V30 1304 H 114.357 -1.98745 -5.66234 0
M  V30 1305 H 115.427 -2.28018 -4.27943 0
M  V30 1306 N 116.77 1.45427 -0.607355 0
M  V30 1307 C 117.995 2.07124 -0.107006 0
M  V30 1308 C 118.42 1.44906 1.19933 0
M  V30 1309 O 117.778 0.541687 1.73019 0
M  V30 1310 C 117.826 3.60595 0.0194119 0
M  V30 1311 O 116.93 3.98285 1.0697 0
M  V30 1312 H 116.271 0.659868 -0.0739597 0
M  V30 1313 H 118.801 1.86683 -0.837297 0
M  V30 1314 H 118.811 4.07419 0.2177 0
M  V30 1315 H 117.486 4.05266 -0.934453 0
M  V30 1316 H 116.063 3.63133 0.847889 0
M  V30 1317 N 118.248 0.346503 1.53744 0
M  V30 1318 C 119.664 -0.00530975 1.59599 0
M  V30 1319 C 119.864 -1.48465 1.36236 0
M  V30 1320 O 118.92 -2.24376 1.15808 0
M  V30 1321 C 120.233 0.433516 2.97559 0
M  V30 1322 C 121.781 0.386111 3.10609 0
M  V30 1323 C 122.256 0.800451 4.50951 0
M  V30 1324 N 123.747 0.754753 4.5701 0
M  V30 1325 C 124.482 1.04727 5.63755 0
M  V30 1326 N 123.978 1.4081 6.7834 0
M  V30 1327 N 125.771 0.971316 5.53644 0
M  V30 1328 H 117.922 1.31009 1.67184 0
M  V30 1329 H 120.185 0.534242 0.783128 0
M  V30 1330 H 119.891 1.46509 3.19731 0
M  V30 1331 H 119.765 -0.189753 3.76722 0
M  V30 1332 H 122.152 -0.636295 2.88158 0
M  V30 1333 H 122.233 1.04462 2.33498 0
M  V30 1334 H 121.877 1.82088 4.74137 0
M  V30 1335 H 121.807 0.119386 5.26465 0
M  V30 1336 H 124.298 0.488662 3.74727 0
M  V30 1337 H 124.611 1.61607 7.55714 0
M  V30 1338 H 122.956 1.44657 6.79779 0
M  V30 1339 H 126.147 0.688748 4.63005 0
M  V30 1340 H 126.32 1.20263 6.36742 0
M  V30 1341 N 119.726 -1.57421 0.075193 0
M  V30 1342 C 120.975 -1.92794 -0.592731 0
M  V30 1343 C 121.288 -0.957478 -1.70563 0
M  V30 1344 O 122.494 -1.20417 -2.43335 0
M  V30 1345 C 120.95 -3.42495 -1.10569 0
M  V30 1346 C 120.558 -4.47994 -0.0236121 0
M  V30 1347 C 122.302 -3.86864 -1.74748 0
M  V30 1348 C 120.209 -5.88829 -0.550803 0
M  V30 1349 H 119.139 -0.719591 -0.225177 0
M  V30 1350 H 121.79 -1.82902 0.147978 0
M  V30 1351 H 120.172 -3.47471 -1.89947 0
M  V30 1352 H 121.346 -4.54637 0.751099 0
M  V30 1353 H 119.661 -4.13113 0.522159 0
M  V30 1354 H 122.258 -4.8947 -2.15229 0
M  V30 1355 H 122.601 -3.24417 -2.60882 0
M  V30 1356 H 123.134 -3.84504 -1.01986 0
M  V30 1357 H 119.873 -6.54929 0.273457 0
M  V30 1358 H 119.393 -5.85698 -1.29296 0
M  V30 1359 H 121.072 -6.38811 -1.02613 0
M  V30 1360 N 121.204 0.198386 -1.56346 0
M  V30 1361 C 122.151 1.24589 -1.94284 0
M  V30 1362 C 123.121 1.454 -0.802997 0
M  V30 1363 O 124.306 1.58588 -1.06087 0
M  V30 1364 C 121.446 2.58631 -2.28482 0
M  V30 1365 C 120.559 2.45426 -3.55514 0
M  V30 1366 C 119.694 3.7215 -3.79049 0
M  V30 1367 C 118.733 3.53763 -4.99518 0
M  V30 1368 N 117.87 4.72491 -5.19323 0
M  V30 1369 H 122.71 0.915356 -2.83593 0
M  V30 1370 H 120.247 0.440629 -1.40346 0
M  V30 1371 H 122.205 3.3672 -2.46324 0
M  V30 1372 H 120.835 2.89734 -1.42317 0
M  V30 1373 H 119.887 1.58652 -3.45737 0
M  V30 1374 H 121.199 2.27772 -4.43758 0
M  V30 1375 H 120.353 4.58679 -3.97113 0
M  V30 1376 H 119.092 3.92754 -2.89129 0
M  V30 1377 H 118.097 2.65619 -4.8138 0
M  V30 1378 H 119.322 3.34607 -5.90944 0
M  V30 1379 H 117.268 4.93365 -4.3235 0
M  V30 1380 H 117.185 4.5765 -6.01741 0
M  V30 1381 H 118.453 5.6038 -5.41843 0
M  V30 1382 N 122.682 1.50554 0.465978 0
M  V30 1383 C 123.928 1.62038 1.21949 0
M  V30 1384 C 124.261 0.322116 1.9151 0
M  V30 1385 O 123.536 -0.676723 1.82348 0
M  V30 1386 C 123.819 2.80421 2.25912 0
M  V30 1387 C 123.672 4.20144 1.60622 0
M  V30 1388 C 124.991 2.94354 3.27176 0
M  V30 1389 H 122.11 0.589752 0.441998 0
M  V30 1390 H 124.752 1.82956 0.51257 0
M  V30 1391 H 122.902 2.62717 2.86203 0
M  V30 1392 H 124.574 4.49449 1.03889 0
M  V30 1393 H 122.817 4.24165 0.909211 0
M  V30 1394 H 123.488 4.98914 2.36196 0
M  V30 1395 H 125.964 3.10578 2.76913 0
M  V30 1396 H 124.84 3.788 3.97242 0
M  V30 1397 H 125.101 2.05186 3.916 0
M  V30 1398 N 124.16 -0.719506 1.40217 0
M  V30 1399 C 125.576 -1.02707 1.22161 0
M  V30 1400 C 125.776 -2.0128 0.0940557 0
M  V30 1401 O 124.832 -2.46452 -0.549318 0
M  V30 1402 C 126.145 -1.57454 2.56181 0
M  V30 1403 C 127.693 -1.69458 2.63159 0
M  V30 1404 C 128.168 -2.27611 3.97438 0
M  V30 1405 N 129.659 -2.35002 3.99159 0
M  V30 1406 C 130.394 -2.80972 4.99842 0
M  V30 1407 N 129.89 -3.26723 6.10921 0
M  V30 1408 N 131.683 -2.80321 4.87213 0
M  V30 1409 H 123.834 -0.0660492 2.12297 0
M  V30 1410 H 126.097 -0.0919077 0.943534 0
M  V30 1411 H 125.803 -0.924873 3.39321 0
M  V30 1412 H 125.677 -2.56036 2.76993 0
M  V30 1413 H 128.064 -2.33543 1.80393 0
M  V30 1414 H 128.145 -0.694867 2.46181 0
M  V30 1415 H 127.789 -1.6415 4.80643 0
M  V30 1416 H 127.719 -3.2829 4.11744 0
M  V30 1417 H 130.21 -2.02685 3.18947 0
M  V30 1418 H 130.523 -3.60355 6.8364 0
M  V30 1419 H 128.868 -3.24692 6.14492 0
M  V30 1420 H 132.059 -2.43912 3.9953 0
M  V30 1421 H 132.232 -3.15831 5.65822 0
M  V30 1422 N 125.638 -1.25649 -0.95132 0
M  V30 1423 C 126.548 -1.08073 -2.08224 0
M  V30 1424 C 127.564 -0.0169666 -1.73992 0
M  V30 1425 O 128.74 -0.218593 -2.0021 0
M  V30 1426 C 125.805 -0.704922 -3.39458 0
M  V30 1427 C 124.866 -1.84699 -3.87537 0
M  V30 1428 C 124.099 -1.48902 -5.12508 0
M  V30 1429 O 124.322 -0.386156 -5.69091 0
M  V30 1430 O 123.256 -2.32033 -5.55378 0
M  V30 1431 H 127.082 -2.02924 -2.25954 0
M  V30 1432 H 124.667 -1.04618 -1.06656 0
M  V30 1433 H 126.549 -0.507609 -4.18332 0
M  V30 1434 H 125.224 0.214291 -3.2299 0
M  V30 1435 H 124.131 -2.09919 -3.09653 0
M  V30 1436 H 125.464 -2.74557 -4.08509 0
M  V30 1437 N 127.117 1.15442 -1.07289 0
M  V30 1438 C 128.08 2.18358 -0.696591 0
M  V30 1439 C 129.08 1.58637 0.262837 0
M  V30 1440 O 130.27 1.74145 0.0438809 0
M  V30 1441 C 127.402 3.4089 -0.0266151 0
M  V30 1442 H 128.595 2.53162 -1.60776 0
M  V30 1443 H 126.148 1.29893 -0.869342 0
M  V30 1444 H 126.883 3.11653 0.896822 0
M  V30 1445 H 126.668 3.85495 -0.716657 0
M  V30 1446 H 128.158 4.17009 0.222028 0
M  V30 1447 N 128.595 0.856903 1.32268 0
M  V30 1448 C 129.558 0.308171 2.27119 0
M  V30 1449 C 130.558 -0.533421 1.51695 0
M  V30 1450 O 131.748 -0.344607 1.70757 0
M  V30 1451 C 128.88 -0.563757 3.36206 0
M  V30 1452 H 130.073 1.14535 2.77167 0
M  V30 1453 H 127.626 0.631421 1.42978 0
M  V30 1454 H 128.361 -1.42266 2.91429 0
M  V30 1455 H 128.146 0.0386749 3.92081 0
M  V30 1456 H 129.636 -0.940386 4.06874 0
M  V30 1457 N 130.073 -1.45103 0.615059 0
M  V30 1458 C 131.006 -2.27717 -0.148408 0
M  V30 1459 C 131.984 -1.37584 -0.866572 0
M  V30 1460 O 133.168 -1.67017 -0.87393 0
M  V30 1461 C 130.295 -3.16136 -1.21557 0
M  V30 1462 C 129.341 -4.22263 -0.599712 0
M  V30 1463 S 130.174 -5.3215 0.598081 0
M  V30 1464 C 131.33 -6.24137 -0.469484 0
M  V30 1465 H 131.563 -2.92121 0.552483 0
M  V30 1466 H 129.096 -1.49054 0.402778 0
M  V30 1467 H 131.054 -3.67633 -1.82638 0
M  V30 1468 H 129.715 -2.50982 -1.88857 0
M  V30 1469 H 128.908 -4.84081 -1.4029 0
M  V30 1470 H 128.51 -3.73945 -0.063876 0
M  V30 1471 H 130.802 -6.63984 -1.34652 0
M  V30 1472 H 131.745 -7.0801 0.112725 0
M  V30 1473 H 132.153 -5.58971 -0.788168 0
M  V30 1474 N 131.551 -0.354651 -1.53558 0
M  V30 1475 C 132.967 -0.00315426 -1.596 0
M  V30 1476 C 133.167 1.47741 -1.37021 0
M  V30 1477 O 132.223 2.23759 -1.16996 0
M  V30 1478 C 133.536 -0.44929 -2.97325 0
M  V30 1479 C 135.084 -0.402578 -3.104 0
M  V30 1480 C 135.559 -0.824355 -4.5052 0
M  V30 1481 N 137.05 -0.778979 -4.56603 0
M  V30 1482 C 137.785 -1.07715 -5.63192 0
M  V30 1483 N 137.281 -1.44405 -6.77583 0
M  V30 1484 N 139.074 -1.00066 -5.53121 0
M  V30 1485 H 131.225 -1.31893 -1.66487 0
M  V30 1486 H 133.488 -0.538388 -0.780284 0
M  V30 1487 H 133.194 -1.48202 -3.1895 0
M  V30 1488 H 133.068 0.169772 -3.76818 0
M  V30 1489 H 135.455 0.621004 -2.88492 0
M  V30 1490 H 135.536 -1.05699 -2.32941 0
M  V30 1491 H 135.18 -1.846 -4.73165 0
M  V30 1492 H 135.11 -0.147304 -5.26394 0
M  V30 1493 H 137.601 -0.508528 -3.74463 0
M  V30 1494 H 137.914 -1.65612 -7.54846 0
M  V30 1495 H 136.259 -1.4826 -6.79002 0
M  V30 1496 H 139.45 -0.713293 -4.62633 0
M  V30 1497 H 139.623 -1.23638 -6.36096 0
M  V30 1498 N 133.029 1.57378 -0.0835403 0
M  V30 1499 C 134.277 1.93547 0.581718 0
M  V30 1500 C 134.598 0.96524 1.69435 0
M  V30 1501 O 133.868 0.0153369 1.95894 0
M  V30 1502 H 132.448 0.714521 0.217874 0
M  V30 1503 H 135.11 1.94366 -0.144158 0
M  V30 1504 H 134.206 2.95665 0.999423 0
M  V30 1505 N 134.507 -0.190092 1.56449 0
M  V30 1506 C 135.417 -1.25591 1.98152 0
M  V30 1507 C 136.433 -1.49519 0.889944 0
M  V30 1508 O 137.609 -1.62036 1.19609 0
M  V30 1509 C 134.674 -2.57916 2.3169 0
M  V30 1510 C 133.735 -2.42015 3.5458 0
M  V30 1511 C 132.968 -3.6803 3.8651 0
M  V30 1512 O 133.191 -4.72413 3.1966 0
M  V30 1513 O 132.125 -3.6326 4.79923 0
M  V30 1514 H 135.951 -0.931988 2.89046 0
M  V30 1515 H 133.536 -0.395488 1.4407 0
M  V30 1516 H 135.418 -3.36008 2.54316 0
M  V30 1517 H 134.093 -2.89925 1.43963 0
M  V30 1518 H 133 -1.62017 3.37196 0
M  V30 1519 H 134.333 -2.14937 4.4279 0
M  V30 1520 N 135.985 -1.50799 -0.457987 0
M  V30 1521 C 137.234 -1.6168 -1.20593 0
M  V30 1522 C 137.547 -0.32888 -1.92815 0
M  V30 1523 O 138.753 -0.316773 -2.69646 0
M  V30 1524 C 137.209 -2.8545 -2.19195 0
M  V30 1525 C 136.817 -4.21168 -1.52715 0
M  V30 1526 C 138.561 -3.05681 -2.94549 0
M  V30 1527 C 136.468 -5.3611 -2.4968 0
M  V30 1528 H 135.398 -0.602134 -0.453818 0
M  V30 1529 H 138.049 -1.77245 -0.475031 0
M  V30 1530 H 136.431 -2.63472 -2.95632 0
M  V30 1531 H 137.605 -4.53449 -0.819775 0
M  V30 1532 H 135.92 -4.06648 -0.895922 0
M  V30 1533 H 138.517 -3.88727 -3.67145 0
M  V30 1534 H 138.86 -2.17929 -3.54701 0
M  V30 1535 H 139.393 -3.27901 -2.25223 0
M  V30 1536 H 136.132 -6.26057 -1.94249 0
M  V30 1537 H 135.652 -5.0823 -3.18532 0
M  V30 1538 H 137.331 -5.6722 -3.11241 0
M  V30 1539 N 137.463 0.71206 -1.40597 0
M  V30 1540 C 138.874 1.29135 -1.34837 0
M  V30 1541 C 139.225 1.96186 -0.0235395 0
M  V30 1542 O 138.35 1.97768 0.878444 0
M  V30 1543 C 138.945 2.34827 -2.44217 0
M  V30 1544 C 137.504 2.88371 -2.41907 0
M  V30 1545 C 136.651 1.62202 -2.24913 0
M  V30 1546 H 139.602 0.507944 -1.50352 0
M  V30 1547 H 139.623 3.15749 -2.12327 0
M  V30 1548 H 139.135 1.85996 -3.40627 0
M  V30 1549 H 137.236 3.41422 -1.49204 0
M  V30 1550 H 137.349 3.39925 -3.37621 0
M  V30 1551 H 135.713 1.874 -1.72492 0
M  V30 1552 H 136.496 1.15391 -3.23326 0
M  V30 1553 N 138.941 1.26152 0.944643 0
M  V30 1554 C 140.189 1.11271 1.6871 0
M  V30 1555 C 140.51 -0.345166 1.91921 0
M  V30 1556 O 139.78 -1.24387 1.51343 0
M  V30 1557 H 138.36 0.408783 0.625224 0
M  V30 1558 H 141.022 1.58427 1.1352 0
M  V30 1559 H 140.118 1.62879 2.66227 0
M  V30 1560 N 140.419 -1.14872 1.07899 0
M  V30 1561 C 141.349 -2.2193 0.725887 0
M  V30 1562 C 142.33 -1.67622 -0.28927 0
M  V30 1563 O 143.515 -1.93533 -0.160787 0
M  V30 1564 C 140.645 -3.47061 0.128856 0
M  V30 1565 C 139.599 -4.14363 1.07178 0
M  V30 1566 C 138.925 -5.33636 0.337229 0
M  V30 1567 C 140.225 -4.63492 2.40775 0
M  V30 1568 H 141.919 -2.51724 1.62097 0
M  V30 1569 H 139.465 -1.20991 0.780838 0
M  V30 1570 H 141.418 -4.21199 -0.130147 0
M  V30 1571 H 140.142 -3.16617 -0.80134 0
M  V30 1572 H 138.801 -3.42173 1.3158 0
M  V30 1573 H 138.449 -4.99449 -0.596606 0
M  V30 1574 H 138.149 -5.79609 0.965788 0
M  V30 1575 H 139.673 -6.10539 0.0861567 0
M  V30 1576 H 141.087 -5.2913 2.20669 0
M  V30 1577 H 139.484 -5.20148 2.99276 0
M  V30 1578 H 140.554 -3.78834 3.02676 0
M  V30 1579 N 141.898 -0.863906 -1.31812 0
M  V30 1580 C 142.845 -0.313303 -2.28664 0
M  V30 1581 C 143.815 0.584868 -1.55462 0
M  V30 1582 O 145 0.517805 -1.83639 0
M  V30 1583 C 142.14 0.48441 -3.41683 0
M  V30 1584 C 141.253 -0.440594 -4.29747 0
M  V30 1585 C 140.388 0.370652 -5.29905 0
M  V30 1586 C 139.427 -0.551164 -6.09613 0
M  V30 1587 N 138.564 0.223462 -7.01744 0
M  V30 1588 H 143.404 -1.14444 -2.75148 0
M  V30 1589 H 140.941 -0.575769 -1.35364 0
M  V30 1590 H 142.899 0.962627 -4.05943 0
M  V30 1591 H 141.529 1.28029 -2.96325 0
M  V30 1592 H 140.581 -1.03724 -3.65986 0
M  V30 1593 H 141.893 -1.14767 -4.85417 0
M  V30 1594 H 141.047 0.911638 -5.99812 0
M  V30 1595 H 139.786 1.11105 -4.74876 0
M  V30 1596 H 138.791 -1.10396 -5.38603 0
M  V30 1597 H 140.016 -1.29032 -6.66729 0
M  V30 1598 H 137.962 0.946787 -6.49132 0
M  V30 1599 H 137.879 -0.424399 -7.54808 0
M  V30 1600 H 139.147 0.745876 -7.75923 0
M  V30 1601 N 143.376 1.44774 -0.622745 0
M  V30 1602 C 144.323 2.30635 0.0871679 0
M  V30 1603 C 145.293 1.42994 0.845097 0
M  V30 1604 O 146.478 1.71907 0.827812 0
M  V30 1605 C 143.618 3.28144 1.06844 0
M  V30 1606 C 142.731 4.30888 0.309809 0
M  V30 1607 C 141.866 5.15494 1.28215 0
M  V30 1608 C 140.905 6.09953 0.512198 0
M  V30 1609 N 140.042 6.87287 1.43458 0
M  V30 1610 H 144.882 2.90803 -0.650974 0
M  V30 1611 H 142.419 1.43286 -0.33281 0
M  V30 1612 H 144.377 3.83157 1.65066 0
M  V30 1613 H 143.007 2.69695 1.77382 0
M  V30 1614 H 142.059 3.78414 -0.388181 0
M  V30 1615 H 143.371 4.97955 -0.290254 0
M  V30 1616 H 142.525 5.74983 1.93596 0
M  V30 1617 H 141.264 4.48481 1.91614 0
M  V30 1618 H 140.269 5.49581 -0.155151 0
M  V30 1619 H 141.494 6.78999 -0.116958 0
M  V30 1620 H 139.44 6.2295 2.05594 0
M  V30 1621 H 139.357 7.50763 0.888335 0
M  V30 1622 H 140.625 7.51306 2.07749 0
M  V30 1623 N 144.854 0.36279 1.53368 0
M  V30 1624 C 145.817 -0.472679 2.24273 0
M  V30 1625 C 146.817 -1.012 1.24961 0
M  V30 1626 O 148.007 -0.898194 1.49259 0
M  V30 1627 C 145.139 -1.66039 2.97731 0
M  V30 1628 H 146.332 0.14773 2.99536 0
M  V30 1629 H 143.885 0.114434 1.55881 0
M  V30 1630 H 144.62 -2.31896 2.26704 0
M  V30 1631 H 144.405 -1.28066 3.70596 0
M  V30 1632 H 145.895 -2.25252 3.51641 0
M  V30 1633 N 146.332 -1.57332 0.0918853 0
M  V30 1634 C 147.557 -1.98995 -0.584442 0
M  V30 1635 C 147.982 -0.970528 -1.61128 0
M  V30 1636 O 147.34 0.0613904 -1.81196 0
M  V30 1637 C 147.388 -3.39636 -1.21161 0
M  V30 1638 O 146.492 -3.40447 -2.32744 0
M  V30 1639 H 145.833 -0.647165 -0.148572 0
M  V30 1640 H 148.363 -2.03873 0.172347 0
M  V30 1641 H 148.373 -3.7726 -1.55367 0
M  V30 1642 H 147.048 -4.13356 -0.459313 0
M  V30 1643 H 145.625 -3.14614 -2.0018 0
M  V30 1644 N 147.81 0.181792 -1.56548 0
M  V30 1645 C 149.056 0.896803 -1.82562 0
M  V30 1646 C 149.411 1.80324 -0.670908 0
M  V30 1647 O 148.704 1.8868 0.333235 0
M  V30 1648 C 148.898 1.73728 -3.12335 0
M  V30 1649 C 148.727 0.913714 -4.4032 0
M  V30 1650 C 147.497 0.592903 -5.01809 0
M  V30 1651 C 149.695 0.260164 -5.13642 0
M  V30 1652 N 147.677 -0.247901 -6.13399 0
M  V30 1653 C 149.048 -0.442256 -6.18421 0
M  V30 1654 C 151.103 0.177253 -4.97584 0
M  V30 1655 C 149.806 -1.21971 -7.08883 0
M  V30 1656 C 151.832 -0.586839 -5.88481 0
M  V30 1657 C 151.194 -1.27766 -6.92716 0
M  V30 1658 H 147.293 0.307122 -0.719166 0
M  V30 1659 H 149.877 0.164535 -1.94004 0
M  V30 1660 H 148.048 2.44105 -3.02105 0
M  V30 1661 H 149.78 2.39279 -3.26386 0
M  V30 1662 H 146.535 0.920502 -4.64568 0
M  V30 1663 H 146.959 -0.658304 -6.73792 0
M  V30 1664 H 151.601 0.696993 -4.17015 0
M  V30 1665 H 149.319 -1.75083 -7.88905 0
M  V30 1666 H 152.905 -0.652522 -5.78129 0
M  V30 1667 H 151.785 -1.85943 -7.61836 0
M  V30 1668 O 149.327 1.58157 0.326881 0
M  V30 1669 H 150.018 1.6734 0.975558 0
M  V30 END ATOM
M  V30 BEGIN BOND
M  V30 END BOND
M  V30 END CTAB
M  END
$$$$
