drugbank_target|P0AG16 Amidophosphoribosyltransferase (DB01972; DB03942; DB04296)
 OpenBabel12092120033D

  0  0  0     0  0            999 V3000
M  V30 BEGIN CTAB
M  V30 COUNTS 7894 7963 0 0 0
M  V30 BEGIN ATOM
M  V30 1 H -0.908 1.98254 -0.117106 0
M  V30 2 N 0 1.576 0 0
M  V30 3 C 0.933 2.03868 1.02534 0
M  V30 4 C 1.911 0.928543 1.3348 0
M  V30 5 O 3.095 1.19667 1.45644 0
M  V30 6 C 0.222 2.43627 2.35294 0
M  V30 7 C -0.732 3.65373 2.2001 0
M  V30 8 S 0.101 5.13292 1.52614 0
M  V30 9 C 1.257 5.56322 2.86805 0
M  V30 10 H 1.49 2.90518 0.631377 0
M  V30 11 H -0.977 1.52953 0.210867 0
M  V30 12 H 0.981 2.67203 3.11629 0
M  V30 13 H -0.358 1.57376 2.7183 0
M  V30 14 H -1.165 3.90944 3.18086 0
M  V30 15 H -1.563 3.418 1.51819 0
M  V30 16 H 0.729 5.58782 3.83104 0
M  V30 17 H 1.672 6.56266 2.65933 0
M  V30 18 H 2.08 4.83886 2.90714 0
M  V30 19 N 1.4781 -0.272755 1.55222 0
M  V30 20 C 2.7181 -1.01197 1.77591 0
M  V30 21 C 3.0821 -1.8349 0.565294 0
M  V30 22 O 4.2831 -2.60387 0.667242 0
M  V30 23 C 2.5541 -1.87096 3.04516 0
M  V30 24 S 4.1131 -2.67279 3.48004 0
M  V30 25 H 0.9311 -0.340836 0.62398 0
M  V30 26 H 3.5331 -0.282374 1.9345 0
M  V30 27 H 2.2371 -1.25565 3.90719 0
M  V30 28 H 1.7681 -2.64376 2.91323 0
M  V30 29 H 3.7831 -3.89593 3.07297 0
M  V30 30 N 2.9562 -1.48159 -0.537278 0
M  V30 31 C 4.2042 -1.55497 -1.29094 0
M  V30 32 C 4.5252 -0.227454 -1.93669 0
M  V30 33 O 3.7952 0.750386 -1.80959 0
M  V30 34 H 2.3752 -0.572832 -0.47945 0
M  V30 35 H 5.0372 -1.84579 -0.625818 0
M  V30 36 H 4.1332 -2.33216 -2.07405 0
M  V30 37 N 4.4343 0.785586 -1.36625 0
M  V30 38 C 5.6833 1.53883 -1.30396 0
M  V30 39 C 5.9963 1.95271 0.113452 0
M  V30 40 O 7.2023 2.69858 0.298142 0
M  V30 41 C 5.6583 2.77808 -2.28802 0
M  V30 42 C 5.2663 2.43574 -3.75999 0
M  V30 43 C 7.0103 3.55783 -2.31558 0
M  V30 44 C 4.9173 3.63919 -4.66173 0
M  V30 45 H 3.8473 0.577678 -0.484566 0
M  V30 46 H 6.4983 0.861705 -1.62009 0
M  V30 47 H 4.8803 3.47339 -1.90188 0
M  V30 48 H 6.0543 1.81916 -4.23371 0
M  V30 49 H 4.3693 1.78803 -3.76056 0
M  V30 50 H 6.9663 4.45205 -2.96137 0
M  V30 51 H 7.3093 3.94644 -1.3252 0
M  V30 52 H 7.8423 2.93235 -2.68809 0
M  V30 53 H 4.5813 3.3015 -5.66287 0
M  V30 54 H 4.1013 4.2473 -4.23515 0
M  V30 55 H 5.7803 4.30901 -4.82632 0
M  V30 56 N 5.9124 1.20967 1.01018 0
M  V30 57 C 7.1584 1.02526 1.74975 0
M  V30 58 C 7.4914 -0.4408 1.89131 0
M  V30 59 O 6.7664 -1.32718 1.42184 0
M  V30 60 C 7.0494 1.71699 3.1653 0
M  V30 61 C 6.9024 3.25791 3.10129 0
M  V30 62 C 8.2214 1.45531 4.15342 0
M  V30 63 H 5.3404 0.373863 0.635134 0
M  V30 64 H 7.9824 1.49071 1.17805 0
M  V30 65 H 6.1324 1.32128 3.65341 0
M  V30 66 H 7.8044 3.74697 2.69072 0
M  V30 67 H 6.0474 3.56363 2.47362 0
M  V30 68 H 6.7184 3.69353 4.10222 0
M  V30 69 H 9.1944 1.79872 3.75213 0
M  V30 70 H 8.0704 1.96453 5.1254 0
M  V30 71 H 8.3314 0.384237 4.40427 0
M  V30 72 N 7.3905 -1.2043 1.01659 0
M  V30 73 C 8.6385 -1.89423 0.704522 0
M  V30 74 C 8.9595 -1.79231 -0.768197 0
M  V30 75 O 8.2295 -1.1947 -1.55254 0
M  V30 76 H 6.8095 -0.701178 0.257602 0
M  V30 77 H 9.4715 -1.4626 1.28818 0
M  V30 78 H 8.5675 -2.96052 0.987916 0
M  V30 79 N 8.8686 -0.792821 -1.36206 0
M  V30 80 C 10.1176 -0.363353 -1.984 0
M  V30 81 C 10.4306 1.07172 -1.63626 0
M  V30 82 O 11.6366 1.60362 -2.19081 0
M  V30 83 C 10.0926 -0.59872 -3.54885 0
M  V30 84 C 9.7006 -2.04543 -3.9858 0
M  V30 85 C 11.4446 -0.233926 -4.23855 0
M  V30 86 C 9.3516 -2.22727 -5.47856 0
M  V30 87 H 8.2816 -0.13212 -0.742334 0
M  V30 88 H 10.9326 -0.974935 -1.55458 0
M  V30 89 H 9.3146 0.0826222 -3.95914 0
M  V30 90 H 10.4886 -2.76345 -3.68741 0
M  V30 91 H 8.8036 -2.36879 -3.42458 0
M  V30 92 H 11.4006 -0.348027 -5.33566 0
M  V30 93 H 11.7436 0.818351 -4.08177 0
M  V30 94 H 12.2766 -0.868639 -3.882 0
M  V30 95 H 9.0156 -3.2635 -5.68486 0
M  V30 96 H 8.5356 -1.55434 -5.7931 0
M  V30 97 H 10.2146 -2.03607 -6.14128 0
M  V30 98 N 10.3467 1.47872 -0.545128 0
M  V30 99 C 11.3097 2.28337 0.198717 0
M  V30 100 C 12.3097 1.36255 0.853888 0
M  V30 101 O 13.4997 1.59003 0.711606 0
M  V30 102 C 10.6317 3.15585 1.28915 0
M  V30 103 H 11.8247 2.95567 -0.507941 0
M  V30 104 H 9.3777 1.53362 -0.301616 0
M  V30 105 H 10.1127 2.53019 2.02859 0
M  V30 106 H 9.8977 3.83337 0.824309 0
M  V30 107 H 11.3877 3.76243 1.81194 0
M  V30 108 N 11.8248 0.280983 1.55075 0
M  V30 109 C 13.0728 -0.333455 1.9933 0
M  V30 110 C 13.3938 -1.55937 1.17085 0
M  V30 111 O 12.6638 -1.94143 0.261805 0
M  V30 112 H 11.2438 -0.126197 0.736263 0
M  V30 113 H 13.9058 0.387678 1.91005 0
M  V30 114 H 13.0018 -0.619292 3.05894 0
M  V30 115 N 13.3029 -1.57598 0.00835791 0
M  V30 116 C 14.5489 -1.91211 -0.675732 0
M  V30 117 C 14.8819 -0.883139 -1.72958 0
M  V30 118 O 14.1569 0.097016 -1.94258 0
M  V30 119 C 14.4399 -3.35379 -1.31123 0
M  V30 120 C 14.2929 -4.48999 -0.268356 0
M  V30 121 C 15.6119 -3.7912 -2.23508 0
M  V30 122 H 12.7309 -0.695374 -0.244179 0
M  V30 123 H 15.3729 -1.89901 0.0613655 0
M  V30 124 H 13.5229 -3.36626 -1.93946 0
M  V30 125 H 15.1949 -4.59887 0.360844 0
M  V30 126 H 13.4379 -4.31873 0.408482 0
M  V30 127 H 14.1089 -5.46851 -0.752218 0
M  V30 128 H 16.5849 -3.79477 -1.70693 0
M  V30 129 H 15.4609 -4.80729 -2.64936 0
M  V30 130 H 15.7219 -3.13455 -3.11766 0
M  V30 131 N 14.781 0.264519 -1.55364 0
M  V30 132 C 15.714 1.35297 -1.83766 0
M  V30 133 C 16.692 1.47171 -0.691336 0
M  V30 134 O 17.876 1.63663 -0.935238 0
M  V30 135 C 15.003 2.72847 -2.00679 0
M  V30 136 C 14.049 2.78214 -3.23263 0
M  V30 137 S 14.882 2.36601 -4.80396 0
M  V30 138 C 16.038 3.7611 -5.00292 0
M  V30 139 H 16.271 1.11003 -2.758 0
M  V30 140 H 13.804 0.464596 -1.47244 0
M  V30 141 H 15.762 3.52057 -2.11108 0
M  V30 142 H 14.423 2.94388 -1.09518 0
M  V30 143 H 13.616 3.7919 -3.3201 0
M  V30 144 H 13.218 2.07034 -3.11469 0
M  V30 145 H 15.51 4.71457 -4.86554 0
M  V30 146 H 16.453 3.7231 -6.02321 0
M  V30 147 H 16.861 3.67806 -4.28228 0
M  V30 148 N 16.2591 1.48442 0.529413 0
M  V30 149 C 17.6701 1.5002 1.11134 0
M  V30 150 C 18.0211 0.27031 1.94329 0
M  V30 151 O 17.1461 -0.622507 2.07253 0
M  V30 152 C 17.7411 2.71834 2.02217 0
M  V30 153 C 16.3001 2.76283 2.55627 0
M  V30 154 C 15.4471 2.43542 1.326 0
M  V30 155 H 18.3981 1.5555 0.314641 0
M  V30 156 H 18.4191 2.50384 2.8651 0
M  V30 157 H 17.9311 3.61331 1.41639 0
M  V30 158 H 16.0321 1.90995 3.19924 0
M  V30 159 H 16.1451 3.77725 2.94721 0
M  V30 160 H 14.5091 1.94709 1.64196 0
M  V30 161 H 15.2921 3.3528 0.737734 0
M  V30 162 N 17.7372 -0.778329 1.37039 0
M  V30 163 C 18.9832 -1.53892 1.32079 0
M  V30 164 C 19.3162 -1.9396 -0.0965386 0
M  V30 165 O 18.5912 -1.63568 -1.05242 0
M  V30 166 C 18.8742 -2.80847 2.25382 0
M  V30 167 C 18.7272 -2.47076 3.75864 0
M  V30 168 C 20.0462 -3.82741 2.1725 0
M  V30 169 H 17.1652 -0.558303 0.48111 0
M  V30 170 H 19.8072 -0.893397 1.67685 0
M  V30 171 H 17.9572 -3.35931 1.95148 0
M  V30 172 H 19.6292 -1.97957 4.16666 0
M  V30 173 H 17.8722 -1.79863 3.94755 0
M  V30 174 H 18.5432 -3.37798 4.36574 0
M  V30 175 H 21.0192 -3.37133 2.43887 0
M  V30 176 H 19.8952 -4.69303 2.84686 0
M  V30 177 H 20.1562 -4.2652 1.16331 0
M  V30 178 N 19.2153 -1.21501 -1.00376 0
M  V30 179 C 20.1633 -0.972442 -2.11297 0
M  V30 180 C 21.1573 0.080731 -1.69208 0
M  V30 181 O 22.3633 -0.0707666 -1.79861 0
M  V30 182 H 18.7383 -0.297218 -0.690772 0
M  V30 183 H 20.7093 -1.91394 -2.28934 0
M  V30 184 C 19.4583 -0.555065 -3.43241 0
M  V30 185 H 18.7813 -1.35709 -3.76062 0
M  V30 186 H 20.2213 -0.424664 -4.21868 0
M  V30 187 C 18.6803 0.734147 -3.28804 0
M  V30 188 O 19.2103 1.78937 -3.59645 0
M  V30 189 N 17.4163 0.701133 -2.82015 0
M  V30 190 H 16.9633 -0.157874 -2.57116 0
M  V30 191 H 16.9213 1.56403 -2.72737 0
M  V30 192 N 20.6934 1.19889 -1.02296 0
M  V30 193 C 21.6254 2.22334 -0.556787 0
M  V30 194 C 22.6384 1.58674 0.364199 0
M  V30 195 O 23.8274 1.77768 0.161533 0
M  V30 196 C 20.9274 3.38257 0.208694 0
M  V30 197 C 20.1004 4.31504 -0.71577 0
M  V30 198 C 19.1594 5.262 0.00325597 0
M  V30 199 O 18.1854 5.65798 -0.621357 0
M  V30 200 N 19.3874 5.66303 1.27599 0
M  V30 201 H 22.1524 2.62957 -1.43784 0
M  V30 202 H 19.7134 1.34495 -0.901261 0
M  V30 203 H 21.7054 3.98616 0.699111 0
M  V30 204 H 20.2754 2.96472 0.991102 0
M  V30 205 H 19.4954 3.69016 -1.38638 0
M  V30 206 H 20.7834 4.9072 -1.34428 0
M  V30 207 H 20.1814 5.36155 1.80429 0
M  V30 208 H 18.7384 6.28942 1.71102 0
M  V30 209 N 22.1715 0.800033 1.35784 0
M  V30 210 C 23.3965 0.388511 2.03729 0
M  V30 211 C 23.8215 -0.990481 1.5991 0
M  V30 212 O 23.1795 -1.64013 0.772612 0
M  V30 213 C 23.2275 0.4726 3.5749 0
M  V30 214 O 22.3315 -0.51646 4.09153 0
M  V30 215 H 21.6725 0.163271 0.643614 0
M  V30 216 H 24.2025 1.0841 1.73518 0
M  V30 217 H 24.2125 0.34003 4.06581 0
M  V30 218 H 22.8875 1.47848 3.88734 0
M  V30 219 H 21.4645 -0.344673 3.71304 0
M  V30 220 N 23.6496 -1.47581 0.552962 0
M  V30 221 C 24.8986 -2.01684 0.0251995 0
M  V30 222 C 25.2116 -1.43317 -1.33115 0
M  V30 223 O 26.4176 -1.89057 -1.94858 0
M  V30 224 C 24.8736 -3.599 -0.00542052 0
M  V30 225 C 24.4816 -4.27257 1.34742 0
M  V30 226 C 26.2256 -4.21768 -0.4808 0
M  V30 227 C 24.1326 -5.77467 1.27614 0
M  V30 228 H 23.0626 -0.753979 0.00565033 0
M  V30 229 H 25.7136 -1.69616 0.70018 0
M  V30 230 H 24.0956 -3.88911 -0.745961 0
M  V30 231 H 25.2696 -4.09893 2.10534 0
M  V30 232 H 23.5846 -3.77358 1.76039 0
M  V30 233 H 26.1816 -5.31838 -0.55246 0
M  V30 234 H 26.5246 -3.88651 -1.49184 0
M  V30 235 H 27.0576 -3.97273 0.204752 0
M  V30 236 H 23.7966 -6.15196 2.26304 0
M  V30 237 H 23.3166 -5.9718 0.55996 0
M  V30 238 H 24.9956 -6.3959 0.976421 0
M  V30 239 N 25.1277 -0.289203 -1.54924 0
M  V30 240 C 26.3577 0.325989 -2.04012 0
M  V30 241 C 26.7657 1.48961 -1.1665 0
M  V30 242 O 26.1087 1.82794 -0.1822 0
M  V30 243 C 26.1707 0.856112 -3.49158 0
M  V30 244 C 25.8347 -0.180697 -4.56643 0
M  V30 245 C 26.8317 -1.0051 -5.10092 0
M  V30 246 C 24.5167 -0.318998 -5.01286 0
M  V30 247 C 26.5107 -1.95385 -6.06715 0
M  V30 248 C 24.1977 -1.27121 -5.97732 0
M  V30 249 C 25.1957 -2.08713 -6.50329 0
M  V30 250 O 24.8837 -3.02322 -7.44887 0
M  V30 251 H 24.6157 0.0765276 -0.671654 0
M  V30 252 H 27.1697 -0.423254 -2.00992 0
M  V30 253 H 25.3997 1.65567 -3.49463 0
M  V30 254 H 27.0887 1.38591 -3.81507 0
M  V30 255 H 27.8547 -0.90906 -4.76404 0
M  V30 256 H 23.7337 0.306108 -4.59983 0
M  V30 257 H 27.2777 -2.59111 -6.47694 0
M  V30 258 H 23.1747 -1.36801 -6.30837 0
M  V30 259 H 23.9427 -2.97165 -7.6265 0
M  V30 260 N 26.6058 1.57591 -0.0167156 0
M  V30 261 C 27.8828 1.82547 0.702564 0
M  V30 262 C 28.2628 0.898018 1.91047 0
M  V30 263 O 27.6108 -0.0493456 2.28447 0
M  V30 264 C 27.8208 3.31459 1.09251 0
M  V30 265 C 29.1688 3.97622 1.48937 0
M  V30 266 O 30.1928 3.35881 1.18584 0
M  V30 267 O 29.0518 5.06415 2.05442 0
M  V30 268 H 26.1458 0.752268 0.343544 0
M  V30 269 H 28.6918 1.69644 -0.0434495 0
M  V30 270 H 27.4638 3.9061 0.23227 0
M  V30 271 H 27.0868 3.49422 1.89709 0
M  V30 272 N 28.0839 -0.256276 1.55502 0
M  V30 273 C 29.0469 -1.30047 1.88734 0
M  V30 274 C 30.0469 -1.4154 0.763086 0
M  V30 275 O 31.2369 -1.40403 1.03115 0
M  V30 276 C 28.3689 -2.67953 2.10747 0
M  V30 277 H 29.5619 -1.01802 2.82093 0
M  V30 278 H 27.1149 -0.495134 1.4825 0
M  V30 279 H 27.8499 -3.01351 1.19825 0
M  V30 280 H 27.6349 -2.60993 2.92617 0
M  V30 281 H 29.1249 -3.43368 2.37673 0
M  V30 282 N 29.562 -1.4872 -0.521534 0
M  V30 283 C 30.492 -1.66771 -1.63431 0
M  V30 284 C 31.473 -0.516499 -1.62069 0
M  V30 285 O 32.658 -0.750013 -1.79132 0
M  V30 286 C 29.788 -1.71515 -3.01993 0
M  V30 287 C 28.742 -2.86222 -3.18216 0
M  V30 288 C 28.068 -2.76061 -4.57924 0
M  V30 289 C 29.368 -4.27419 -3.00184 0
M  V30 290 H 31.062 -2.59932 -1.48579 0
M  V30 291 H 28.608 -1.25089 -0.713358 0
M  V30 292 H 30.561 -1.82731 -3.7972 0
M  V30 293 H 29.285 -0.749393 -3.17886 0
M  V30 294 H 27.944 -2.74575 -2.42908 0
M  V30 295 H 27.592 -1.77437 -4.70665 0
M  V30 296 H 27.292 -3.53037 -4.69722 0
M  V30 297 H 28.816 -2.89256 -5.37739 0
M  V30 298 H 30.23 -4.39855 -3.67697 0
M  V30 299 H 28.627 -5.05458 -3.2347 0
M  V30 300 H 29.697 -4.43293 -1.96518 0
M  V30 301 N 31.0401 0.771051 -1.3745 0
M  V30 302 C 32.2681 1.56015 -1.35893 0
M  V30 303 C 32.6831 1.88718 0.0555523 0
M  V30 304 O 32.0401 1.51502 1.01752 0
M  V30 305 C 32.0911 2.87001 -2.19801 0
M  V30 306 O 31.8121 2.557 -3.55738 0
M  V30 307 C 33.3131 3.81228 -2.26231 0
M  V30 308 H 30.5331 0.483317 -0.465453 0
M  V30 309 H 33.0771 0.955611 -1.80799 0
M  V30 310 H 31.2321 3.43877 -1.78402 0
M  V30 311 H 31.6461 3.39584 -3.99729 0
M  V30 312 H 33.1201 4.70139 -2.89263 0
M  V30 313 H 33.5971 4.20409 -1.27093 0
M  V30 314 H 34.2031 3.30281 -2.67945 0
M  V30 315 N 32.5182 1.22032 0.997298 0
M  V30 316 C 33.7642 1.04376 1.73878 0
M  V30 317 C 34.0972 -0.420716 1.89588 0
M  V30 318 O 33.3722 -1.31202 1.43583 0
M  V30 319 C 33.6552 1.75047 3.14691 0
M  V30 320 C 33.5082 3.29062 3.06656 0
M  V30 321 C 34.8272 1.49928 4.13775 0
M  V30 322 H 31.9462 0.380578 0.631133 0
M  V30 323 H 34.5882 1.50312 1.16217 0
M  V30 324 H 32.7382 1.35996 3.63919 0
M  V30 325 H 34.4102 3.7753 2.65083 0
M  V30 326 H 32.6532 3.58967 2.43568 0
M  V30 327 H 33.3242 3.73683 4.06282 0
M  V30 328 H 35.8002 1.83842 3.73285 0
M  V30 329 H 34.6762 2.01878 5.10428 0
M  V30 330 H 34.9372 0.430929 4.39995 0
M  V30 331 N 33.9963 -1.19345 1.0293 0
M  V30 332 C 34.9263 -2.2481 0.631105 0
M  V30 333 C 35.9073 -1.66245 -0.360104 0
M  V30 334 O 37.0923 -1.92677 -0.242726 0
M  V30 335 C 34.2223 -3.47295 -0.0184607 0
M  V30 336 C 33.1763 -4.18536 0.895073 0
M  V30 337 C 32.5023 -5.34586 0.110592 0
M  V30 338 C 33.8023 -4.73287 2.209 0
M  V30 339 H 35.4963 -2.58372 1.51275 0
M  V30 340 H 33.0423 -1.24194 0.728818 0
M  V30 341 H 34.9953 -4.20268 -0.308675 0
M  V30 342 H 33.7193 -3.12933 -0.934907 0
M  V30 343 H 32.3783 -3.47446 1.16949 0
M  V30 344 H 32.0263 -4.96469 -0.807902 0
M  V30 345 H 31.7263 -5.83183 0.719087 0
M  V30 346 H 33.2503 -6.10355 -0.172871 0
M  V30 347 H 34.6643 -5.38013 1.98028 0
M  V30 348 H 33.0613 -5.32373 2.76946 0
M  V30 349 H 34.1313 -3.91331 2.86336 0
M  V30 350 N 35.4744 -0.807222 -1.35358 0
M  V30 351 C 36.4064 -0.175717 -2.28525 0
M  V30 352 C 37.4194 0.625354 -1.5031 0
M  V30 353 O 38.6084 0.457611 -1.72535 0
M  V30 354 C 35.7084 0.773471 -3.29956 0
M  V30 355 C 34.8814 0.0186296 -4.37396 0
M  V30 356 C 33.9404 0.886395 -5.18681 0
M  V30 357 O 32.9664 0.337106 -5.68201 0
M  V30 358 N 34.1684 2.20839 -5.36852 0
M  V30 359 H 36.9334 -0.976091 -2.83359 0
M  V30 360 H 34.4944 -0.662737 -1.47714 0
M  V30 361 H 36.4864 1.35824 -3.81227 0
M  V30 362 H 35.0564 1.47465 -2.75632 0
M  V30 363 H 34.2764 -0.747349 -3.87051 0
M  V30 364 H 35.5644 -0.501577 -5.06322 0
M  V30 365 H 34.9624 2.67858 -4.98265 0
M  V30 366 H 33.5194 2.74237 -5.91301 0
M  V30 367 N 36.9525 1.47285 -0.560781 0
M  V30 368 C 37.9025 2.27073 0.205384 0
M  V30 369 C 38.8865 1.34569 0.882044 0
M  V30 370 O 40.0785 1.58899 0.77976 0
M  V30 371 C 37.2075 3.20414 1.23247 0
M  V30 372 C 36.2935 4.20399 0.559041 0
M  V30 373 N 36.6845 5.04423 -0.372927 0
M  V30 374 C 34.9825 4.38536 0.812522 0
M  V30 375 C 35.6835 5.76655 -0.764446 0
M  V30 376 N 34.6595 5.43471 -0.11848 0
M  V30 377 H 38.4615 2.89422 -0.511117 0
M  V30 378 H 35.9755 1.57868 -0.380975 0
M  V30 379 H 37.9725 3.76262 1.79534 0
M  V30 380 H 36.6325 2.59623 1.95002 0
M  V30 381 H 37.6435 5.1248 -0.747287 0
M  V30 382 H 34.3205 3.88913 1.51832 0
M  V30 383 H 35.7105 6.54238 -1.53045 0
M  V30 384 N 38.4306 0.297415 1.54768 0
M  V30 385 C 39.8466 -0.0560823 1.59501 0
M  V30 386 C 40.0466 -1.52725 1.31444 0
M  V30 387 O 39.1026 -2.27947 1.08611 0
M  V30 388 C 40.4156 0.338631 2.98787 0
M  V30 389 C 41.9636 0.287097 3.11681 0
M  V30 390 C 42.4386 0.656579 4.53269 0
M  V30 391 N 43.9296 0.608977 4.59179 0
M  V30 392 C 44.6646 0.867385 5.66802 0
M  V30 393 N 44.1606 1.19157 6.82476 0
M  V30 394 N 45.9536 0.794687 5.56454 0
M  V30 395 H 38.1046 1.25624 1.71267 0
M  V30 396 H 40.3676 0.509057 0.799728 0
M  V30 397 H 40.0736 1.36263 3.2423 0
M  V30 398 H 39.9476 -0.309508 3.75928 0
M  V30 399 H 42.3346 -0.727649 2.85988 0
M  V30 400 H 42.4156 0.969809 2.36703 0
M  V30 401 H 42.0596 1.66912 4.7969 0
M  V30 402 H 41.9896 -0.0481649 5.26578 0
M  V30 403 H 44.4806 0.369198 3.76092 0
M  V30 404 H 44.7936 1.37482 7.60473 0
M  V30 405 H 43.1386 1.22958 6.84037 0
M  V30 406 H 46.3296 0.541098 4.64962 0
M  V30 407 H 46.5026 0.999445 6.40246 0
M  V30 408 N 39.9087 -1.5758 0.0250728 0
M  V30 409 C 41.1567 -1.91255 -0.653151 0
M  V30 410 C 41.4777 -0.901691 -1.729 0
M  V30 411 O 40.7477 0.0573785 -1.95816 0
M  V30 412 H 39.3277 -0.705942 -0.244243 0
M  V30 413 H 41.9897 -1.94767 0.0719209 0
M  V30 414 H 41.0857 -2.91752 -1.10847 0
M  V30 415 N 41.3868 0.248026 -1.55636 0
M  V30 416 C 42.3188 1.32993 -1.8667 0
M  V30 417 C 43.3318 1.44345 -0.752877 0
M  V30 418 O 44.5208 1.45715 -1.03098 0
M  V30 419 C 41.6208 2.70863 -2.03682 0
M  V30 420 C 40.7938 2.81792 -3.34532 0
M  V30 421 C 39.8528 4.005 -3.41301 0
M  V30 422 O 38.8788 3.9008 -4.14519 0
M  V30 423 N 40.0808 5.13618 -2.70512 0
M  V30 424 H 42.8458 1.06707 -2.8006 0
M  V30 425 H 40.4068 0.438129 -1.55859 0
M  V30 426 H 42.3988 3.48612 -2.05553 0
M  V30 427 H 40.9688 2.89862 -1.17041 0
M  V30 428 H 40.1888 1.90729 -3.44987 0
M  V30 429 H 41.4768 2.86043 -4.20781 0
M  V30 430 H 40.8748 5.24975 -2.10755 0
M  V30 431 H 39.4318 5.89505 -2.78077 0
M  V30 432 N 42.8649 1.48995 0.513639 0
M  V30 433 C 44.1419 1.48338 1.27495 0
M  V30 434 C 44.5219 0.204065 2.10111 0
M  V30 435 O 43.8699 -0.813881 2.13514 0
M  V30 436 C 44.0799 2.75498 2.14247 0
M  V30 437 C 45.4279 3.24484 2.73852 0
M  V30 438 O 46.4519 2.76528 2.24523 0
M  V30 439 O 45.3109 4.07974 3.6362 0
M  V30 440 H 42.4049 0.593149 0.576284 0
M  V30 441 H 44.9509 1.61246 0.528948 0
M  V30 442 H 43.7229 3.60109 1.53092 0
M  V30 443 H 43.3459 2.6539 2.96064 0
M  V30 444 N 44.343 -0.763751 1.37857 0
M  V30 445 C 45.306 -1.85889 1.34081 0
M  V30 446 C 46.306 -1.58949 0.243277 0
M  V30 447 O 47.496 -1.66882 0.499589 0
M  V30 448 C 44.628 -3.23176 1.08489 0
M  V30 449 H 45.821 -1.90648 2.31502 0
M  V30 450 H 43.374 -0.964367 1.23003 0
M  V30 451 H 44.109 -3.24091 0.116318 0
M  V30 452 H 43.894 -3.44124 1.8794 0
M  V30 453 H 45.384 -4.03254 1.08517 0
M  V30 454 N 45.8211 -1.22559 -0.990812 0
M  V30 455 C 46.7841 -0.998863 -2.0629 0
M  V30 456 C 47.7841 0.0354834 -1.60761 0
M  V30 457 O 48.9741 -0.203231 -1.7301 0
M  V30 458 C 46.1061 -0.509203 -3.37076 0
M  V30 459 H 47.2991 -1.95014 -2.27837 0
M  V30 460 H 44.8521 -1.04456 -1.16269 0
M  V30 461 H 45.5871 0.446335 -3.21214 0
M  V30 462 H 45.3721 -1.25547 -3.71457 0
M  V30 463 H 46.8621 -0.370888 -4.1595 0
M  V30 464 N 47.2992 1.18797 -1.03562 0
M  V30 465 C 48.5472 1.88278 -0.734569 0
M  V30 466 C 48.8682 1.8043 0.739586 0
M  V30 467 O 48.1382 1.21925 1.53333 0
M  V30 468 H 46.7182 0.696991 -0.268725 0
M  V30 469 H 49.3802 1.44192 -1.31129 0
M  V30 470 H 48.4762 2.94443 -1.03489 0
M  V30 471 N 48.7773 0.814389 1.34928 0
M  V30 472 C 50.0263 0.394871 1.97797 0
M  V30 473 C 50.3393 -1.04555 1.65311 0
M  V30 474 O 51.5453 -1.56856 2.21604 0
M  V30 475 C 50.0013 0.655103 3.53888 0
M  V30 476 C 49.6093 2.10858 3.95276 0
M  V30 477 C 51.3533 0.301329 4.23429 0
M  V30 478 C 49.2603 2.31415 5.44244 0
M  V30 479 H 48.1903 0.143913 0.740139 0
M  V30 480 H 50.8413 0.999544 1.53888 0
M  V30 481 H 49.2233 -0.0196253 3.95995 0
M  V30 482 H 50.3973 2.82176 3.64298 0
M  V30 483 H 48.7123 2.42297 3.38646 0
M  V30 484 H 51.3093 0.432869 5.32945 0
M  V30 485 H 51.6523 -0.75331 4.09428 0
M  V30 486 H 52.1853 0.930288 3.86769 0
M  V30 487 H 48.9243 3.35353 5.63222 0
M  V30 488 H 48.4443 1.6463 5.76764 0
M  V30 489 H 50.1233 2.13352 6.10811 0
M  V30 490 N 50.2554 -1.46986 0.568584 0
M  V30 491 C 51.5044 -2.01646 0.0465894 0
M  V30 492 C 51.8174 -1.44721 -1.31587 0
M  V30 493 O 53.0234 -1.91113 -1.92842 0
M  V30 494 C 51.4794 -3.59885 0.032752 0
M  V30 495 C 51.0874 -4.25804 1.39266 0
M  V30 496 C 52.8314 -4.22255 -0.436038 0
M  V30 497 C 50.7384 -5.76081 1.33732 0
M  V30 498 H 49.6684 -0.753876 0.013647 0
M  V30 499 H 52.3194 -1.68864 0.718131 0
M  V30 500 H 50.7014 -3.8968 -0.704669 0
M  V30 501 H 51.8754 -4.07637 2.1487 0
M  V30 502 H 50.1904 -3.7547 1.80032 0
M  V30 503 H 52.7874 -5.32394 -0.49602 0
M  V30 504 H 53.1304 -3.90212 -1.45053 0
M  V30 505 H 53.6634 -3.97033 0.246877 0
M  V30 506 H 50.4024 -6.12761 2.32817 0
M  V30 507 H 49.9224 -5.96553 0.623267 0
M  V30 508 H 51.6014 -6.38518 1.0442 0
M  V30 509 N 51.7335 -0.305618 -1.54608 0
M  V30 510 C 52.9615 0.304775 -2.04643 0
M  V30 511 C 53.3765 1.47167 -1.18268 0
M  V30 512 O 52.7335 1.81296 -0.209328 0
M  V30 513 C 52.7845 0.756564 -3.53495 0
M  V30 514 O 52.5055 -0.36389 -4.36586 0
M  V30 515 C 54.0065 1.43163 -4.19546 0
M  V30 516 H 51.2265 0.0655481 -0.667791 0
M  V30 517 H 53.7705 -0.446592 -1.99564 0
M  V30 518 H 51.9255 1.45794 -3.58919 0
M  V30 519 H 52.3395 -0.0113121 -5.24499 0
M  V30 520 H 53.8135 1.69886 -5.25207 0
M  V30 521 H 54.2905 2.37318 -3.69563 0
M  V30 522 H 54.8965 0.773307 -4.18211 0
M  V30 523 N 53.2116 1.57565 -0.0334293 0
M  V30 524 C 54.4606 1.91155 0.643639 0
M  V30 525 C 54.7736 0.91192 1.73042 0
M  V30 526 O 55.9796 1.13923 2.46442 0
M  V30 527 C 54.4356 3.39443 1.1961 0
M  V30 528 C 54.0436 4.47774 0.142381 0
M  V30 529 C 55.7876 3.82094 1.84944 0
M  V30 530 C 53.6946 5.87162 0.706727 0
M  V30 531 H 52.6246 0.713368 0.244176 0
M  V30 532 H 55.2756 1.8323 -0.0994323 0
M  V30 533 H 53.6576 3.42313 1.99092 0
M  V30 534 H 54.8316 4.56469 -0.630296 0
M  V30 535 H 53.1466 4.14352 -0.412446 0
M  V30 536 H 55.7436 4.83591 2.2813 0
M  V30 537 H 56.0866 3.17386 2.69392 0
M  V30 538 H 56.6196 3.81665 1.12145 0
M  V30 539 H 53.3586 6.55424 -0.0997178 0
M  V30 540 H 52.8786 5.82064 1.44779 0
M  V30 541 H 54.5576 6.35866 1.19514 0
M  V30 542 N 54.6897 -0.239769 1.55765 0
M  V30 543 C 55.9667 -0.990056 1.68693 0
M  V30 544 C 56.3467 -2.03107 0.5754 0
M  V30 545 O 55.6947 -2.24604 -0.42017 0
M  V30 546 C 55.9047 -1.61696 3.09282 0
M  V30 547 C 57.2527 -2.11613 3.6811 0
M  V30 548 O 58.2767 -1.71624 3.12127 0
M  V30 549 O 57.1357 -2.85057 4.66267 0
M  V30 550 H 54.2297 -0.461299 0.686391 0
M  V30 551 H 56.7757 -0.232991 1.68093 0
M  V30 552 H 55.5477 -0.864357 3.81634 0
M  V30 553 H 55.1707 -2.44005 3.13923 0
M  V30 554 N 56.1678 -1.49265 -0.50573 0
M  V30 555 C 57.1308 -1.65075 -1.59006 0
M  V30 556 C 58.1308 -0.522768 -1.52065 0
M  V30 557 O 59.3208 -0.789117 -1.55302 0
M  V30 558 C 56.4528 -1.64369 -2.98656 0
M  V30 559 H 57.6458 -2.61784 -1.46319 0
M  V30 560 H 55.1988 -1.38226 -0.729616 0
M  V30 561 H 55.9338 -0.692272 -3.16825 0
M  V30 562 H 55.7188 -2.46282 -3.05103 0
M  V30 563 H 57.2088 -1.78674 -3.77446 0
M  V30 564 N 57.6459 0.756429 -1.3826 0
M  V30 565 C 58.5939 1.89149 -1.35372 0
M  V30 566 C 59.5879 1.67691 -0.24004 0
M  V30 567 O 60.7939 1.75294 -0.408919 0
M  V30 568 H 57.1689 0.622271 -0.422236 0
M  V30 569 H 59.1399 1.88701 -2.31159 0
M  V30 570 C 57.8889 3.26599 -1.19284 0
M  V30 571 H 57.2119 3.43695 -2.0424 0
M  V30 572 H 58.6519 4.06274 -1.21316 0
M  V30 573 C 57.1109 3.3675 0.100454 0
M  V30 574 O 57.6409 3.86951 1.07851 0
M  V30 575 N 55.8469 2.90179 0.15633 0
M  V30 576 H 55.3939 2.49517 -0.640253 0
M  V30 577 H 55.3519 2.97352 1.02123 0
M  V30 578 N 59.124 1.23083 0.984299 0
M  V30 579 C 60.072 1.00593 2.09723 0
M  V30 580 C 61.066 -0.0538014 1.69315 0
M  V30 581 O 62.272 0.0993719 1.79725 0
M  V30 582 H 58.647 0.30817 0.685956 0
M  V30 583 H 60.618 1.95012 2.2586 0
M  V30 584 C 59.367 0.609601 3.42314 0
M  V30 585 H 58.69 1.41675 3.73856 0
M  V30 586 H 60.13 0.491726 4.21139 0
M  V30 587 C 58.589 -0.681745 3.2993 0
M  V30 588 O 59.119 -1.73192 3.62446 0
M  V30 589 N 57.325 -0.656178 2.83095 0
M  V30 590 H 56.872 0.198759 2.56832 0
M  V30 591 H 56.83 -1.52044 2.75191 0
M  V30 592 N 60.6021 -1.18246 1.0419 0
M  V30 593 C 61.8421 -1.89948 0.754916 0
M  V30 594 C 62.2061 -1.78608 -0.70451 0
M  V30 595 O 63.4071 -2.4503 -1.10516 0
M  V30 596 C 61.6781 -3.36305 1.20969 0
M  V30 597 S 63.2371 -4.26088 1.04854 0
M  V30 598 H 60.0551 -0.655897 0.274446 0
M  V30 599 H 62.6571 -1.42873 1.33445 0
M  V30 600 H 61.3611 -3.42089 2.26722 0
M  V30 601 H 60.8921 -3.8842 0.624004 0
M  V30 602 H 62.9071 -4.96189 -0.0332896 0
M  V30 603 N 62.0802 -0.821533 -1.34494 0
M  V30 604 C 63.3272 -0.408946 -1.98328 0
M  V30 605 C 63.6552 1.02764 -1.65136 0
M  V30 606 O 62.9102 1.73026 -0.914349 0
M  V30 607 C 63.2092 -0.556512 -3.53041 0
M  V30 608 C 62.8752 -1.95861 -4.0614 0
M  V30 609 C 61.5372 -2.34217 -4.20352 0
M  V30 610 C 63.8892 -2.87523 -4.34718 0
M  V30 611 C 61.2172 -3.63572 -4.6047 0
M  V30 612 C 63.5692 -4.1634 -4.76281 0
M  V30 613 C 62.2332 -4.54675 -4.88699 0
M  V30 614 H 61.5032 -0.149644 -0.725732 0
M  V30 615 H 64.1502 -1.04521 -1.6046 0
M  V30 616 H 62.4552 0.163148 -3.9146 0
M  V30 617 H 64.1522 -0.217826 -4.00408 0
M  V30 618 H 60.7422 -1.65066 -3.95539 0
M  V30 619 H 64.9262 -2.59133 -4.23277 0
M  V30 620 H 60.1822 -3.93101 -4.68275 0
M  V30 621 H 64.3562 -4.87455 -4.97354 0
M  V30 622 H 61.9832 -5.54959 -5.19542 0
M  V30 623 N 63.5583 1.46682 -0.576371 0
M  V30 624 C 64.9743 1.57822 -0.237562 0
M  V30 625 C 65.1743 1.57237 1.26011 0
M  V30 626 O 64.2303 1.48596 2.04146 0
M  V30 627 C 65.5433 2.87499 -0.881168 0
M  V30 628 C 67.0913 3.01119 -0.85417 0
M  V30 629 C 67.5663 4.33524 -1.4772 0
M  V30 630 N 69.0573 4.40207 -1.44125 0
M  V30 631 C 69.7923 5.4126 -1.89276 0
M  V30 632 N 69.2883 6.49021 -2.42371 0
M  V30 633 N 71.0813 5.32422 -1.80231 0
M  V30 634 H 63.2323 1.45306 -1.54919 0
M  V30 635 H 65.4953 0.692733 -0.647167 0
M  V30 636 H 65.2013 2.9372 -1.93447 0
M  V30 637 H 65.0753 3.75224 -0.385592 0
M  V30 638 H 67.4623 2.94485 0.190491 0
M  V30 639 H 67.5433 2.14887 -1.3877 0
M  V30 640 H 67.1873 4.40916 -2.52103 0
M  V30 641 H 67.1173 5.1852 -0.918947 0
M  V30 642 H 69.6083 3.62931 -1.05307 0
M  V30 643 H 69.9213 7.2233 -2.74698 0
M  V30 644 H 68.2663 6.49858 -2.46393 0
M  V30 645 H 71.4573 4.47137 -1.38514 0
M  V30 646 H 71.6303 6.11034 -2.15735 0
M  V30 647 N 65.0364 0.313813 1.54444 0
M  V30 648 C 65.9664 -0.549454 2.26943 0
M  V30 649 C 66.9474 -1.12741 1.27372 0
M  V30 650 O 68.1324 -1.15436 1.56167 0
M  V30 651 C 65.2624 -1.71523 3.01989 0
M  V30 652 C 64.2164 -1.26703 4.08816 0
M  V30 653 C 63.5424 -2.51898 4.71647 0
M  V30 654 C 64.8424 -0.388962 5.2085 0
M  V30 655 H 66.5364 0.0552661 2.99349 0
M  V30 656 H 64.0824 0.0280207 1.43973 0
M  V30 657 H 66.0354 -2.32535 3.51433 0
M  V30 658 H 64.7594 -2.34639 2.27183 0
M  V30 659 H 63.4184 -0.679896 3.6024 0
M  V30 660 H 63.0664 -3.13356 3.93468 0
M  V30 661 H 62.7664 -2.22605 5.43802 0
M  V30 662 H 64.2904 -3.1369 5.23861 0
M  V30 663 H 65.7044 -0.905107 5.6611 0
M  V30 664 H 64.1014 -0.18924 5.99802 0
M  V30 665 H 65.1714 0.582699 4.81386 0
M  V30 666 N 66.5145 -1.57545 0.0417849 0
M  V30 667 C 67.9305 -1.56467 -0.314704 0
M  V30 668 C 68.1305 -1.04859 -1.72066 0
M  V30 669 O 67.1865 -0.700983 -2.42575 0
M  V30 670 C 68.4995 -3.00317 -0.15174 0
M  V30 671 C 70.0475 -3.12201 -0.223553 0
M  V30 672 C 70.5225 -4.57913 -0.0892295 0
M  V30 673 N 72.0135 -4.6297 -0.145808 0
M  V30 674 C 72.7485 -5.73362 -0.0658459 0
M  V30 675 N 72.2445 -6.92769 0.0659282 0
M  V30 676 N 74.0375 -5.6197 -0.12075 0
M  V30 677 H 66.1885 -1.89416 0.961014 0
M  V30 678 H 68.4515 -0.871862 0.372237 0
M  V30 679 H 68.1575 -3.42073 0.817254 0
M  V30 680 H 68.0315 -3.65892 -0.916692 0
M  V30 681 H 70.4185 -2.70349 -1.18301 0
M  V30 682 H 70.4995 -2.49323 0.571994 0
M  V30 683 H 70.1435 -5.00448 0.866867 0
M  V30 684 H 70.0735 -5.18786 -0.903802 0
M  V30 685 H 72.5645 -3.7709 -0.247286 0
M  V30 686 H 72.8775 -7.72707 0.119905 0
M  V30 687 H 71.2225 -6.94927 0.100885 0
M  V30 688 H 74.4135 -4.67572 -0.222187 0
M  V30 689 H 74.5865 -6.47977 -0.0549735 0
M  V30 690 N 67.9926 0.231505 -1.5589 0
M  V30 691 C 68.9396 1.28682 -1.91598 0
M  V30 692 C 69.9096 1.47071 -0.771974 0
M  V30 693 O 71.0946 1.60802 -1.027 0
M  V30 694 C 68.2346 2.6342 -2.22944 0
M  V30 695 C 67.3476 2.52912 -3.50228 0
M  V30 696 C 66.4826 3.80106 -3.7107 0
M  V30 697 C 65.5216 3.64279 -4.91902 0
M  V30 698 N 64.6586 4.834 -5.09184 0
M  V30 699 H 69.4986 0.975305 -2.81588 0
M  V30 700 H 67.0356 0.470299 -1.39379 0
M  V30 701 H 68.9936 3.41869 -2.39126 0
M  V30 702 H 67.6236 2.92687 -1.36139 0
M  V30 703 H 66.6756 1.6595 -3.42294 0
M  V30 704 H 67.9876 2.37133 -4.38827 0
M  V30 705 H 67.1416 4.66999 -3.87295 0
M  V30 706 H 65.8806 3.98799 -2.80733 0
M  V30 707 H 64.8856 2.7577 -4.75637 0
M  V30 708 H 66.1106 3.47067 -5.83714 0
M  V30 709 H 64.0566 5.02425 -4.21788 0
M  V30 710 H 63.9736 4.70311 -5.91898 0
M  V30 711 H 65.2416 5.71747 -5.29835 0
M  V30 712 N 69.4707 1.49531 0.497807 0
M  V30 713 C 70.4337 1.65916 1.58128 0
M  V30 714 C 71.4337 0.530825 1.51786 0
M  V30 715 O 72.6237 0.797342 1.54881 0
M  V30 716 C 69.7557 1.65951 2.9778 0
M  V30 717 H 70.9487 2.62556 1.44929 0
M  V30 718 H 68.5017 1.38611 0.722275 0
M  V30 719 H 69.2367 0.709065 3.16453 0
M  V30 720 H 69.0217 2.47897 3.03792 0
M  V30 721 H 70.5117 1.80673 3.76493 0
M  V30 722 N 70.9488 -0.749086 1.3866 0
M  V30 723 C 71.8968 -1.88428 1.36373 0
M  V30 724 C 72.8908 -1.67561 0.248929 0
M  V30 725 O 74.0968 -1.75074 0.41821 0
M  V30 726 H 70.4718 -0.620023 0.42553 0
M  V30 727 H 72.4428 -1.87473 2.32156 0
M  V30 728 C 71.1918 -3.25961 1.21014 0
M  V30 729 H 70.5148 -3.42607 2.06059 0
M  V30 730 H 71.9548 -4.05625 1.23469 0
M  V30 731 C 70.4138 -3.36799 -0.0825941 0
M  V30 732 O 70.9438 -3.87517 -1.05797 0
M  V30 733 N 69.1498 -2.90258 -0.140939 0
M  V30 734 H 68.6968 -2.49174 0.653477 0
M  V30 735 H 68.6548 -2.97889 -1.00545 0
M  V30 736 N 72.4269 -1.23603 -0.977757 0
M  V30 737 C 73.6749 -1.06759 -1.71601 0
M  V30 738 C 73.9959 0.395929 -1.90938 0
M  V30 739 O 73.2659 1.28356 -1.47992 0
M  V30 740 H 71.8459 -0.392062 -0.635843 0
M  V30 741 H 74.5079 -1.55362 -1.1768 0
M  V30 742 H 73.6039 -1.55763 -2.70452 0
M  V30 743 N 73.905 1.17692 -1.04816 0
M  V30 744 C 74.835 2.23777 -0.666791 0
M  V30 745 C 75.816 1.66796 0.33361 0
M  V30 746 O 77.001 1.93039 0.212042 0
M  V30 747 C 74.131 3.47281 -0.0367933 0
M  V30 748 C 73.085 4.17059 -0.961546 0
M  V30 749 C 72.411 5.34342 -0.195626 0
M  V30 750 C 73.711 4.69713 -2.28402 0
M  V30 751 H 75.405 2.55933 -1.55367 0
M  V30 752 H 72.951 1.23019 -0.748484 0
M  V30 753 H 74.904 4.20706 0.241775 0
M  V30 754 H 73.628 3.14381 0.885004 0
M  V30 755 H 72.287 3.45541 -1.22462 0
M  V30 756 H 71.935 4.97692 0.728816 0
M  V30 757 H 71.635 5.81966 -0.811775 0
M  V30 758 H 73.159 6.10553 0.0757473 0
M  V30 759 H 74.573 5.34794 -2.06563 0
M  V30 760 H 72.97 5.279 -2.8538 0
M  V30 761 H 74.04 3.86726 -2.92525 0
M  V30 762 N 75.3831 0.828654 1.34056 0
M  V30 763 C 76.6291 0.42008 1.98402 0
M  V30 764 C 76.9621 -1.01564 1.65525 0
M  V30 765 O 76.2371 -1.70834 0.929831 0
M  V30 766 C 76.5201 0.62927 3.54559 0
M  V30 767 C 76.3731 2.11152 3.97159 0
M  V30 768 C 77.6921 0.0688756 4.40046 0
M  V30 769 H 74.8111 0.154104 0.720709 0
M  V30 770 H 77.4531 1.04228 1.5886 0
M  V30 771 H 75.6031 0.0996418 3.88372 0
M  V30 772 H 77.2751 2.70522 3.73651 0
M  V30 773 H 75.5181 2.59985 3.47261 0
M  V30 774 H 76.1891 2.20868 5.05887 0
M  V30 775 H 78.6651 0.521458 4.1282 0
M  V30 776 H 77.5411 0.245006 5.48353 0
M  V30 777 H 77.8021 -1.0266 4.30015 0
M  V30 778 N 76.8612 -1.46375 0.584142 0
M  V30 779 C 78.0862 -2.07268 0.0740405 0
M  V30 780 C 78.5112 -1.42979 -1.22223 0
M  V30 781 O 77.8692 -0.514092 -1.73859 0
M  V30 782 C 77.9172 -3.60518 -0.0767769 0
M  V30 783 O 77.0212 -3.96533 -1.13292 0
M  V30 784 H 76.3622 -0.660961 0.0634524 0
M  V30 785 H 78.8922 -1.87991 0.807492 0
M  V30 786 H 78.9022 -4.07021 -0.282489 0
M  V30 787 H 77.5772 -4.06702 0.86986 0
M  V30 788 H 76.1542 -3.61738 -0.905553 0
M  V30 789 N 78.3393 -0.321999 -1.54275 0
M  V30 790 C 79.6163 0.335232 -1.92706 0
M  V30 791 C 79.9963 1.70006 -1.25145 0
M  V30 792 O 79.3443 2.25067 -0.394596 0
M  V30 793 C 79.5543 0.429008 -3.46353 0
M  V30 794 C 80.9023 0.690029 -4.18956 0
M  V30 795 O 81.9263 0.511992 -3.52501 0
M  V30 796 O 80.7853 1.03338 -5.36641 0
M  V30 797 H 77.8793 0.191143 -0.804608 0
M  V30 798 H 80.4253 -0.3716 -1.65581 0
M  V30 799 H 79.1973 -0.529611 -3.87699 0
M  V30 800 H 78.8203 1.18348 -3.79578 0
M  V30 801 N 79.8174 1.5752 -0.0501392 0
M  V30 802 C 81.0634 1.92936 0.624798 0
M  V30 803 C 81.3964 0.928685 1.70555 0
M  V30 804 O 80.6714 -0.0454779 1.94447 0
M  V30 805 C 80.9544 3.38737 1.22185 0
M  V30 806 C 80.8074 4.49552 0.149218 0
M  V30 807 C 82.1264 3.84913 2.13378 0
M  V30 808 H 79.2454 0.701604 0.225657 0
M  V30 809 H 81.8874 1.89671 -0.111693 0
M  V30 810 H 80.0374 3.4165 1.84953 0
M  V30 811 H 81.7094 4.58768 -0.482648 0
M  V30 812 H 79.9524 4.30638 -0.522841 0
M  V30 813 H 80.6234 5.48653 0.606966 0
M  V30 814 H 83.0994 3.8387 1.60572 0
M  V30 815 H 81.9754 4.87584 2.52097 0
M  V30 816 H 82.2364 3.21611 3.03346 0
M  V30 817 N 81.2955 -0.223234 1.56011 0
M  V30 818 C 82.5425 -0.947875 1.78946 0
M  V30 819 C 82.8705 -1.844 0.618608 0
M  V30 820 O 82.1255 -1.91629 -0.397093 0
M  V30 821 C 82.4245 -1.81948 3.0762 0
M  V30 822 C 82.0905 -1.07672 4.37856 0
M  V30 823 C 80.7525 -0.871544 4.73242 0
M  V30 824 C 83.1045 -0.552081 5.18268 0
M  V30 825 C 80.4325 -0.129791 5.86556 0
M  V30 826 C 82.7845 0.17632 6.32354 0
M  V30 827 C 81.4485 0.39277 6.66343 0
M  V30 828 H 80.7185 -0.346852 0.654809 0
M  V30 829 H 83.3655 -0.216171 1.90276 0
M  V30 830 H 81.6705 -2.61899 2.91404 0
M  V30 831 H 83.3675 -2.38227 3.22566 0
M  V30 832 H 79.9575 -1.24662 4.1007 0
M  V30 833 H 84.1415 -0.698076 4.91366 0
M  V30 834 H 79.3975 0.048153 6.11381 0
M  V30 835 H 83.5715 0.590367 6.93893 0
M  V30 836 H 81.1985 0.969466 7.53993 0
M  V30 837 N 82.7736 -1.49793 -0.48987 0
M  V30 838 C 83.6836 -1.70036 -1.61632 0
M  V30 839 C 84.6996 -0.583102 -1.63939 0
M  V30 840 O 85.8756 -0.859169 -1.82154 0
M  V30 841 C 82.9406 -1.77277 -2.97949 0
M  V30 842 C 82.0016 -3.00918 -3.06181 0
M  V30 843 C 81.2346 -3.07804 -4.35996 0
M  V30 844 O 81.4576 -2.21982 -5.25433 0
M  V30 845 O 80.3916 -4.00369 -4.49431 0
M  V30 846 H 84.2176 -2.65486 -1.47482 0
M  V30 847 H 81.8026 -1.33666 -0.667362 0
M  V30 848 H 83.6846 -1.84329 -3.78947 0
M  V30 849 H 82.3596 -0.850076 -3.12339 0
M  V30 850 H 81.2666 -2.99377 -2.2433 0
M  V30 851 H 82.5996 -3.92704 -2.96723 0
M  V30 852 N 84.2517 0.741722 -1.39055 0
M  V30 853 C 85.2147 1.83733 -1.37021 0
M  V30 854 C 86.2147 1.58542 -0.268534 0
M  V30 855 O 87.4047 1.66067 -0.526076 0
M  V30 856 C 84.5367 3.2141 -1.13617 0
M  V30 857 H 85.7297 1.86941 -2.34506 0
M  V30 858 H 83.2827 0.944676 -1.24521 0
M  V30 859 H 84.0177 3.23865 -0.167863 0
M  V30 860 H 83.8027 3.4109 -1.93391 0
M  V30 861 H 85.2927 4.01477 -1.14918 0
M  V30 862 N 85.7298 1.2412 0.971189 0
M  V30 863 C 87.1458 1.00584 1.23916 0
M  V30 864 C 87.3458 -0.287481 1.99439 0
M  V30 865 O 86.4018 -1.00454 2.31658 0
M  V30 866 C 87.7148 2.21864 2.0297 0
M  V30 867 C 89.2628 2.26452 2.16076 0
M  V30 868 C 89.7378 3.47343 2.98524 0
M  V30 869 N 91.2288 3.47639 3.06107 0
M  V30 870 C 91.9638 4.37837 3.70251 0
M  V30 871 N 91.4598 5.38286 4.36142 0
M  V30 872 N 93.2528 4.25558 3.67228 0
M  V30 873 H 85.4038 2.07236 0.465499 0
M  V30 874 H 87.6668 0.909236 0.268315 0
M  V30 875 H 87.3728 3.15771 1.54861 0
M  V30 876 H 87.2468 2.23698 3.03709 0
M  V30 877 H 89.6338 1.33078 2.6339 0
M  V30 878 H 89.7148 2.28645 1.14696 0
M  V30 879 H 89.3588 4.41029 2.51905 0
M  V30 880 H 89.2888 3.42393 4.00093 0
M  V30 881 H 91.7798 2.74966 2.59233 0
M  V30 882 H 92.0928 6.03352 4.82894 0
M  V30 883 H 90.4378 5.42176 4.34822 0
M  V30 884 H 93.6288 3.46322 3.14927 0
M  V30 885 H 93.8018 4.96054 4.16935 0
M  V30 886 N 87.2079 -1.17134 1.05439 0
M  V30 887 C 88.1579 -2.1919 0.627675 0
M  V30 888 C 89.1419 -1.57328 -0.337147 0
M  V30 889 O 90.3339 -1.76329 -0.153976 0
M  V30 890 C 87.4629 -3.43299 0.00651435 0
M  V30 891 C 86.5489 -4.12255 0.995312 0
M  V30 892 N 86.9399 -4.56997 2.16765 0
M  V30 893 C 85.2379 -4.38316 0.824336 0
M  V30 894 C 85.9389 -5.10239 2.7934 0
M  V30 895 N 84.9149 -5.02595 2.07122 0
M  V30 896 H 88.7169 -2.5149 1.52086 0
M  V30 897 H 86.2309 -1.33491 0.924868 0
M  V30 898 H 88.2279 -4.15693 -0.316965 0
M  V30 899 H 86.8879 -3.1249 -0.882033 0
M  V30 900 H 87.8989 -4.51006 2.54587 0
M  V30 901 H 84.5759 -4.17498 -0.0129526 0
M  V30 902 H 85.9659 -5.54961 3.78772 0
M  V30 903 N 88.686 -0.835752 -1.33615 0
M  V30 904 C 89.619 -0.211815 -2.27215 0
M  V30 905 C 90.597 0.639249 -1.49507 0
M  V30 906 O 91.781 0.600193 -1.78689 0
M  V30 907 C 88.908 0.702893 -3.31326 0
M  V30 908 C 87.954 -0.0723049 -4.26439 0
M  V30 909 S 88.787 -1.42811 -5.16106 0
M  V30 910 C 89.943 -0.518613 -6.23748 0
M  V30 911 H 90.176 -1.00533 -2.79786 0
M  V30 912 H 87.709 -0.632336 -1.40858 0
M  V30 913 H 89.667 1.22505 -3.91794 0
M  V30 914 H 88.328 1.47004 -2.77576 0
M  V30 915 H 87.521 0.62359 -5.00127 0
M  V30 916 H 87.123 -0.525424 -3.70291 0
M  V30 917 H 89.415 0.284778 -6.76901 0
M  V30 918 H 90.358 -1.22556 -6.97413 0
M  V30 919 H 90.766 -0.101344 -5.64409 0
M  V30 920 N 90.1641 1.46063 -0.591896 0
M  V30 921 C 91.0961 2.28539 0.174001 0
M  V30 922 C 92.1091 1.39047 0.846753 0
M  V30 923 O 93.2981 1.63564 0.714774 0
M  V30 924 C 90.3981 3.14347 1.26645 0
M  V30 925 C 89.5711 4.32021 0.683856 0
M  V30 926 C 88.6301 4.99157 1.66518 0
M  V30 927 O 87.6561 5.56458 1.19763 0
M  V30 928 N 88.8581 4.97005 2.99943 0
M  V30 929 H 91.6231 2.94911 -0.533633 0
M  V30 930 H 89.1841 1.56077 -0.430294 0
M  V30 931 H 91.1761 3.56125 1.92242 0
M  V30 932 H 89.7461 2.49988 1.87682 0
M  V30 933 H 88.9661 3.93915 -0.1498 0
M  V30 934 H 90.2541 5.08059 0.274567 0
M  V30 935 H 89.6521 4.51714 3.40545 0
M  V30 936 H 88.2091 5.42696 3.61004 0
M  V30 937 N 91.6422 0.330177 1.54103 0
M  V30 938 C 93.0582 -0.0222371 1.59585 0
M  V30 939 C 93.2582 -1.49902 1.34654 0
M  V30 940 O 92.3142 -2.25592 1.13421 0
M  V30 941 C 93.6272 0.401932 2.98002 0
M  V30 942 C 95.1752 0.353145 3.11001 0
M  V30 943 C 95.6502 0.752576 4.51775 0
M  V30 944 N 97.1412 0.706239 4.57784 0
M  V30 945 C 97.8762 0.987417 5.64834 0
M  V30 946 N 97.3722 1.33607 6.79795 0
M  V30 947 N 99.1652 0.91254 5.54643 0
M  V30 948 H 91.3162 1.29228 1.68564 0
M  V30 949 H 93.5792 0.525906 0.78875 0
M  V30 950 H 93.2852 1.4311 3.21267 0
M  V30 951 H 93.1592 -0.229699 3.765 0
M  V30 952 H 95.5462 -0.666822 2.87467 0
M  V30 953 H 95.6272 1.0198 2.34593 0
M  V30 954 H 95.2712 1.77049 4.76042 0
M  V30 955 H 95.2012 0.0635409 5.26562 0
M  V30 956 H 97.6922 0.44889 3.75224 0
M  V30 957 H 98.0052 1.53582 7.57385 0
M  V30 958 H 96.3502 1.37439 6.81275 0
M  V30 959 H 99.5412 0.639601 4.6371 0
M  V30 960 H 99.7142 1.13503 6.37982 0
M  V30 961 N 93.1203 -1.57491 0.0584922 0
M  V30 962 C 94.0503 -2.14988 -0.911178 0
M  V30 963 C 95.0313 -1.07343 -1.31952 0
M  V30 964 O 96.2163 -1.35318 -1.39294 0
M  V30 965 C 93.3463 -2.70078 -2.18347 0
M  V30 966 C 92.3003 -3.82771 -1.91495 0
M  V30 967 C 91.6263 -4.24408 -3.25241 0
M  V30 968 C 92.9263 -5.07592 -1.23075 0
M  V30 969 H 94.6203 -2.96263 -0.432246 0
M  V30 970 H 92.1663 -1.42512 -0.206469 0
M  V30 971 H 94.1193 -3.08943 -2.86587 0
M  V30 972 H 92.8433 -1.86005 -2.68458 0
M  V30 973 H 91.5023 -3.44389 -1.25664 0
M  V30 974 H 91.1503 -3.37275 -3.73168 0
M  V30 975 H 90.8503 -5.00366 -3.08071 0
M  V30 976 H 92.3743 -4.65879 -3.94701 0
M  V30 977 H 93.7883 -5.43857 -1.81362 0
M  V30 978 H 92.1853 -5.88741 -1.16207 0
M  V30 979 H 93.2553 -4.84454 -0.207847 0
M  V30 980 N 94.5984 0.214957 -1.56127 0
M  V30 981 C 95.5304 1.29004 -1.89448 0
M  V30 982 C 96.5434 1.42716 -0.783326 0
M  V30 983 O 97.7324 1.43496 -1.06166 0
M  V30 984 C 94.8324 2.66482 -2.09381 0
M  V30 985 C 94.0054 2.74633 -3.40434 0
M  V30 986 C 93.0644 3.9317 -3.49719 0
M  V30 987 O 92.0904 3.812 -4.227 0
M  V30 988 N 93.2924 5.07765 -2.81346 0
M  V30 989 H 96.0574 1.00743 -2.82261 0
M  V30 990 H 93.6184 0.40497 -1.56753 0
M  V30 991 H 95.6104 3.44173 -2.12901 0
M  V30 992 H 94.1804 2.87314 -1.23163 0
M  V30 993 H 93.4004 1.83368 -3.48955 0
M  V30 994 H 94.6884 2.77054 -4.26754 0
M  V30 995 H 94.0864 5.20386 -2.21843 0
M  V30 996 H 92.6434 5.83474 -2.90519 0
M  V30 997 N 96.0765 1.50051 0.48192 0
M  V30 998 C 97.3245 1.60181 1.23234 0
M  V30 999 C 97.6455 0.299176 1.92691 0
M  V30 1000 O 96.9155 -0.682708 1.83619 0
M  V30 1001 H 95.4955 0.590232 0.457859 0
M  V30 1002 H 98.1575 1.86775 0.556881 0
M  V30 1003 H 97.2535 2.40753 1.98607 0
M  V30 1004 N 97.5546 -0.734337 1.39446 0
M  V30 1005 C 98.5026 -1.86971 1.38364 0
M  V30 1006 C 99.4966 -1.67288 0.266687 0
M  V30 1007 O 100.703 -1.74621 0.436755 0
M  V30 1008 H 97.0776 -0.615474 0.432082 0
M  V30 1009 H 99.0486 -1.85 2.34132 0
M  V30 1010 C 97.7976 -3.2466 1.24465 0
M  V30 1011 H 97.1206 -3.40402 2.09682 0
M  V30 1012 H 98.5606 -4.04292 1.27764 0
M  V30 1013 C 97.0196 -3.36867 -0.0468674 0
M  V30 1014 O 97.5496 -3.88618 -1.01681 0
M  V30 1015 N 95.7556 -2.90391 -0.110145 0
M  V30 1016 H 95.3026 -2.48466 0.679868 0
M  V30 1017 H 95.2606 -2.98939 -0.973799 0
M  V30 1018 N 99.0327 -1.24633 -0.964593 0
M  V30 1019 C 99.9657 -0.984662 -2.05863 0
M  V30 1020 C 100.944 0.0826554 -1.6239 0
M  V30 1021 O 102.128 -0.0549296 -1.8842 0
M  V30 1022 C 99.2547 -0.486529 -3.35187 0
M  V30 1023 C 98.3007 -1.54286 -3.97615 0
M  V30 1024 S 99.1337 -3.12513 -4.34851 0
M  V30 1025 C 100.29 -2.6441 -5.67308 0
M  V30 1026 H 100.523 -1.91104 -2.27743 0
M  V30 1027 H 98.0557 -1.08052 -1.10291 0
M  V30 1028 H 100.014 -0.205757 -4.09984 0
M  V30 1029 H 98.6747 0.419186 -3.1129 0
M  V30 1030 H 97.8677 -1.14481 -4.90826 0
M  V30 1031 H 97.4697 -1.7738 -3.2926 0
M  V30 1032 H 99.7617 -2.07416 -6.44969 0
M  V30 1033 H 100.705 -3.56222 -6.11973 0
M  V30 1034 H 101.113 -2.04734 -5.26065 0
M  V30 1035 N 100.511 1.16574 -1.06058 0
M  V30 1036 C 101.759 1.86677 -0.77434 0
M  V30 1037 C 102.08 1.81959 0.701147 0
M  V30 1038 O 101.35 1.2515 1.50713 0
M  V30 1039 H 99.9298 0.691134 -0.283449 0
M  V30 1040 H 102.592 1.41378 -1.34158 0
M  V30 1041 H 101.688 2.92181 -1.09711 0
M  V30 1042 N 101.989 0.842826 1.3317 0
M  V30 1043 C 103.238 0.436738 1.96915 0
M  V30 1044 C 103.551 -1.01025 1.67491 0
M  V30 1045 O 104.757 -1.5212 2.24881 0
M  V30 1046 C 103.213 0.730021 3.52418 0
M  V30 1047 C 102.821 2.19195 3.90714 0
M  V30 1048 C 104.565 0.391076 4.22695 0
M  V30 1049 C 102.472 2.42907 5.39212 0
M  V30 1050 H 101.402 0.15958 0.736919 0
M  V30 1051 H 104.053 1.03196 1.51733 0
M  V30 1052 H 102.435 0.0643755 3.95948 0
M  V30 1053 H 103.609 2.8984 3.58231 0
M  V30 1054 H 101.924 2.49425 3.33431 0
M  V30 1055 H 104.521 0.545817 5.31907 0
M  V30 1056 H 104.864 -0.666294 4.10933 0
M  V30 1057 H 105.397 1.01212 3.84709 0
M  V30 1058 H 102.136 3.47224 5.55982 0
M  V30 1059 H 101.656 1.76827 5.73142 0
M  V30 1060 H 103.335 2.2626 6.06148 0
M  V30 1061 N 103.467 -1.45747 0.599634 0
M  V30 1062 C 104.715 -2.01893 0.0915472 0
M  V30 1063 C 105.036 -1.47155 -1.27946 0
M  V30 1064 O 104.306 -0.66273 -1.84349 0
M  V30 1065 H 102.886 -0.746363 0.0308524 0
M  V30 1066 H 105.548 -1.78645 0.779237 0
M  V30 1067 H 104.644 -3.1208 0.0353086 0
M  V30 1068 N 104.945 -0.338344 -1.53925 0
M  V30 1069 C 105.895 0.536712 -2.21593 0
M  V30 1070 C 106.879 1.07015 -1.20153 0
M  V30 1071 O 108.071 1.00471 -1.45721 0
M  V30 1072 C 105.2 1.68977 -2.98834 0
M  V30 1073 C 104.286 1.17052 -4.07627 0
M  V30 1074 N 104.677 0.372085 -5.0443 0
M  V30 1075 C 102.975 1.44789 -4.21844 0
M  V30 1076 C 103.676 0.0909171 -5.81629 0
M  V30 1077 N 102.652 0.681131 -5.39316 0
M  V30 1078 H 106.454 -0.0804298 -2.9379 0
M  V30 1079 H 103.968 -0.144943 -1.61752 0
M  V30 1080 H 105.965 2.32857 -3.45808 0
M  V30 1081 H 104.625 2.31024 -2.28162 0
M  V30 1082 H 105.636 0.0136217 -5.17898 0
M  V30 1083 H 102.313 2.07313 -3.62391 0
M  V30 1084 H 103.703 -0.552817 -6.69622 0
M  V30 1085 N 106.423 1.57458 -0.0668435 0
M  V30 1086 C 107.669 1.93587 0.6043 0
M  V30 1087 C 108.002 0.946722 1.69561 0
M  V30 1088 O 107.277 -0.0248516 1.94484 0
M  V30 1089 C 107.56 3.40014 1.18585 0
M  V30 1090 C 107.413 4.49685 0.101529 0
M  V30 1091 C 108.732 3.87154 2.09284 0
M  V30 1092 H 105.851 0.703958 0.218202 0
M  V30 1093 H 108.493 1.89542 -0.131804 0
M  V30 1094 H 106.643 3.43592 1.81319 0
M  V30 1095 H 108.315 4.5823 -0.531279 0
M  V30 1096 H 106.558 4.30059 -0.568487 0
M  V30 1097 H 107.229 5.49266 0.54874 0
M  V30 1098 H 109.705 3.85551 1.56491 0
M  V30 1099 H 108.581 4.90231 2.46911 0
M  V30 1100 H 108.842 3.2481 2.99918 0
M  V30 1101 N 107.901 -0.206675 1.56239 0
M  V30 1102 C 109.317 -0.557025 1.49564 0
M  V30 1103 C 109.517 -1.86424 0.764735 0
M  V30 1104 O 108.573 -2.50584 0.310491 0
M  V30 1105 C 109.886 -0.622478 2.94186 0
M  V30 1106 C 111.434 -0.712099 3.04792 0
M  V30 1107 C 111.909 -0.808767 4.50803 0
M  V30 1108 N 113.4 -0.8726 4.54907 0
M  V30 1109 C 114.135 -0.967365 5.65181 0
M  V30 1110 N 113.631 -1.02515 6.85173 0
M  V30 1111 N 115.424 -1.00366 5.53067 0
M  V30 1112 H 107.575 0.650943 2.02179 0
M  V30 1113 H 109.838 0.230387 0.919579 0
M  V30 1114 H 109.544 0.268727 3.50672 0
M  V30 1115 H 109.418 -1.4811 3.46905 0
M  V30 1116 H 111.805 -1.59374 2.48363 0
M  V30 1117 H 111.886 0.172489 2.55218 0
M  V30 1118 H 111.53 0.0684754 5.07854 0
M  V30 1119 H 111.46 -1.70899 4.98098 0
M  V30 1120 H 113.951 -0.837657 3.68499 0
M  V30 1121 H 114.264 -1.09765 7.64965 0
M  V30 1122 H 112.609 -0.994026 6.87855 0
M  V30 1123 H 115.8 -0.95527 4.58249 0
M  V30 1124 H 115.973 -1.07405 6.39037 0
M  V30 1125 N 109.379 -1.50304 -0.473955 0
M  V30 1126 C 110.609 -1.64663 -1.24778 0
M  V30 1127 C 111.017 -0.328174 -1.86332 0
M  V30 1128 O 110.36 0.699536 -1.69859 0
M  V30 1129 C 110.422 -2.6778 -2.39863 0
M  V30 1130 C 110.086 -4.11413 -1.98969 0
M  V30 1131 C 111.083 -4.97372 -1.51385 0
M  V30 1132 C 108.768 -4.57312 -2.07777 0
M  V30 1133 C 110.762 -6.27277 -1.13148 0
M  V30 1134 C 108.449 -5.87223 -1.69152 0
M  V30 1135 C 109.447 -6.72031 -1.21915 0
M  V30 1136 O 109.135 -7.99518 -0.838237 0
M  V30 1137 H 108.867 -0.556602 -0.383627 0
M  V30 1138 H 111.421 -1.9726 -0.572491 0
M  V30 1139 H 109.651 -2.30419 -3.10554 0
M  V30 1140 H 111.34 -2.71388 -3.01833 0
M  V30 1141 H 112.106 -4.63128 -1.44004 0
M  V30 1142 H 107.985 -3.91449 -2.43493 0
M  V30 1143 H 111.529 -6.93425 -0.762077 0
M  V30 1144 H 107.426 -6.20989 -1.76191 0
M  V30 1145 H 108.194 -8.12764 -0.967339 0
M  V30 1146 N 110.857 0.726932 -1.39834 0
M  V30 1147 C 112.268 1.30558 -1.3346 0
M  V30 1148 C 112.619 1.962 -0.00273003 0
M  V30 1149 O 111.744 1.96826 0.899371 0
M  V30 1150 C 112.339 2.37404 -2.41713 0
M  V30 1151 C 110.898 2.90921 -2.38835 0
M  V30 1152 C 110.045 1.64578 -2.2318 0
M  V30 1153 H 112.996 0.523862 -1.49804 0
M  V30 1154 H 113.017 3.17984 -2.08966 0
M  V30 1155 H 112.529 1.89599 -3.38635 0
M  V30 1156 H 110.63 3.42985 -1.45575 0
M  V30 1157 H 110.743 3.43487 -3.33997 0
M  V30 1158 H 109.107 1.89219 -1.70494 0
M  V30 1159 H 109.89 1.18814 -3.22084 0
M  V30 1160 N 112.336 1.25143 0.95797 0
M  V30 1161 C 113.564 1.12424 1.73691 0
M  V30 1162 C 113.979 -0.322304 1.86029 0
M  V30 1163 O 113.336 -1.22186 1.35561 0
M  V30 1164 C 113.387 1.76933 3.15241 0
M  V30 1165 O 113.108 3.15932 3.03511 0
M  V30 1166 C 114.609 1.6995 4.09429 0
M  V30 1167 H 111.829 0.3923 0.544373 0
M  V30 1168 H 114.373 1.6544 1.20207 0
M  V30 1169 H 112.528 1.27895 3.6568 0
M  V30 1170 H 112.942 3.47598 3.9278 0
M  V30 1171 H 114.416 2.19753 5.06372 0
M  V30 1172 H 114.893 0.662619 4.34173 0
M  V30 1173 H 115.499 2.18461 3.64904 0
M  V30 1174 N 113.814 -1.1601 1.06675 0
M  V30 1175 C 114.777 -2.18724 0.685001 0
M  V30 1176 C 115.777 -1.58496 -0.271246 0
M  V30 1177 O 116.967 -1.74119 -0.0531156 0
M  V30 1178 C 114.099 -3.40899 0.00853648 0
M  V30 1179 H 115.292 -2.54011 1.59431 0
M  V30 1180 H 112.845 -1.30352 0.862441 0
M  V30 1181 H 113.58 -3.11173 -0.913337 0
M  V30 1182 H 113.365 -3.8587 0.696204 0
M  V30 1183 H 114.855 -4.16886 -0.24414 0
M  V30 1184 N 115.292 -0.849877 -1.32721 0
M  V30 1185 C 116.54 -0.450032 -1.97026 0
M  V30 1186 C 116.861 0.996604 -1.67609 0
M  V30 1187 O 116.131 1.6958 -0.980786 0
M  V30 1188 H 114.711 -0.163426 -0.728904 0
M  V30 1189 H 117.373 -1.08526 -1.6189 0
M  V30 1190 H 116.469 -0.591146 -3.0645 0
M  V30 1191 N 116.77 1.45427 -0.607355 0
M  V30 1192 C 117.995 2.07124 -0.107006 0
M  V30 1193 C 118.42 1.44906 1.19933 0
M  V30 1194 O 117.778 0.541687 1.73019 0
M  V30 1195 C 117.826 3.60595 0.0194119 0
M  V30 1196 O 116.93 3.98285 1.0697 0
M  V30 1197 H 116.271 0.659868 -0.0739597 0
M  V30 1198 H 118.801 1.86683 -0.837297 0
M  V30 1199 H 118.811 4.07419 0.2177 0
M  V30 1200 H 117.486 4.05266 -0.934453 0
M  V30 1201 H 116.063 3.63133 0.847889 0
M  V30 1202 N 118.248 0.346503 1.53744 0
M  V30 1203 C 119.473 -0.253074 2.0585 0
M  V30 1204 C 119.898 -1.43202 1.21962 0
M  V30 1205 O 119.256 -1.79783 0.234073 0
M  V30 1206 C 119.304 -0.643193 3.54817 0
M  V30 1207 O 118.408 -1.74286 3.73762 0
M  V30 1208 H 117.749 -0.0413583 0.662711 0
M  V30 1209 H 120.279 0.501574 1.98357 0
M  V30 1210 H 120.289 -0.919526 3.97503 0
M  V30 1211 H 118.964 0.218966 4.15323 0
M  V30 1212 H 117.541 -1.46356 3.42979 0
M  V30 1213 N 119.726 -1.57421 0.075193 0
M  V30 1214 C 120.951 -1.98364 -0.605515 0
M  V30 1215 C 121.376 -0.953383 -1.62149 0
M  V30 1216 O 120.734 0.0806053 -1.81121 0
M  V30 1217 C 120.782 -3.38332 -1.24756 0
M  V30 1218 O 119.886 -3.37959 -2.36342 0
M  V30 1219 H 119.227 -0.645553 -0.155428 0
M  V30 1220 H 121.757 -2.04044 0.150714 0
M  V30 1221 H 121.767 -3.75591 -1.5936 0
M  V30 1222 H 120.442 -4.12846 -0.503129 0
M  V30 1223 H 119.019 -3.12474 -2.03506 0
M  V30 1224 N 121.204 0.198386 -1.56346 0
M  V30 1225 C 122.167 1.22952 -1.93431 0
M  V30 1226 C 123.167 1.38611 -0.815092 0
M  V30 1227 O 124.357 1.36479 -1.08255 0
M  V30 1228 C 121.489 2.59946 -2.20546 0
M  V30 1229 H 122.682 0.912626 -2.85677 0
M  V30 1230 H 120.235 0.43977 -1.49986 0
M  V30 1231 H 120.97 2.96696 -1.30927 0
M  V30 1232 H 120.755 2.49953 -3.02102 0
M  V30 1233 H 122.245 3.3431 -2.50253 0
M  V30 1234 N 122.682 1.50554 0.465978 0
M  V30 1235 C 123.907 1.65838 1.24549 0
M  V30 1236 C 124.332 0.343486 1.84937 0
M  V30 1237 O 123.69 -0.69324 1.67523 0
M  V30 1238 C 123.738 2.75533 2.32624 0
M  V30 1239 O 122.842 2.37142 3.37398 0
M  V30 1240 H 122.183 0.553893 0.366194 0
M  V30 1241 H 124.713 1.96959 0.553927 0
M  V30 1242 H 124.723 2.98763 2.77857 0
M  V30 1243 H 123.398 3.70962 1.88043 0
M  V30 1244 H 121.975 2.24377 2.97841 0
M  V30 1245 N 124.16 -0.719506 1.40217 0
M  V30 1246 C 125.07 -1.86378 1.42479 0
M  V30 1247 C 126.086 -1.71073 0.317834 0
M  V30 1248 O 127.262 -1.93406 0.561794 0
M  V30 1249 C 124.327 -3.22136 1.28178 0
M  V30 1250 C 123.388 -3.49723 2.48982 0
M  V30 1251 C 122.621 -4.79004 2.35353 0
M  V30 1252 O 122.844 -5.53821 1.36524 0
M  V30 1253 O 121.778 -5.06839 3.2465 0
M  V30 1254 H 125.604 -1.87425 2.38968 0
M  V30 1255 H 123.189 -0.869405 1.21498 0
M  V30 1256 H 125.071 -4.03234 1.22395 0
M  V30 1257 H 123.746 -3.21825 0.347934 0
M  V30 1258 H 122.653 -2.6865 2.60342 0
M  V30 1259 H 123.986 -3.54828 3.41113 0
M  V30 1260 N 125.638 -1.25649 -0.95132 0
M  V30 1261 C 126.601 -1.06399 -2.03007 0
M  V30 1262 C 127.601 -0.0156794 -1.60792 0
M  V30 1263 O 128.791 -0.25817 -1.72276 0
M  V30 1264 C 125.923 -0.616184 -3.35285 0
M  V30 1265 H 127.116 -2.02164 -2.21517 0
M  V30 1266 H 124.669 -1.08103 -1.12887 0
M  V30 1267 H 125.404 0.343917 -3.22471 0
M  V30 1268 H 125.189 -1.37301 -3.67275 0
M  V30 1269 H 126.679 -0.503032 -4.14559 0
M  V30 1270 N 127.117 1.15442 -1.07289 0
M  V30 1271 C 128.049 2.19773 -0.650585 0
M  V30 1272 C 129.062 1.60076 0.296572 0
M  V30 1273 O 130.251 1.78293 0.0859905 0
M  V30 1274 C 127.351 3.38838 0.0650398 0
M  V30 1275 C 126.524 4.2808 -0.898141 0
M  V30 1276 C 125.583 5.2574 -0.219926 0
M  V30 1277 O 124.609 5.62654 -0.860773 0
M  V30 1278 N 125.811 5.71205 1.03466 0
M  V30 1279 H 128.576 2.56622 -1.54808 0
M  V30 1280 H 126.137 1.30551 -0.957494 0
M  V30 1281 H 128.129 4.01222 0.529415 0
M  V30 1282 H 126.699 3.00409 0.864466 0
M  V30 1283 H 125.919 3.62804 -1.54165 0
M  V30 1284 H 127.207 4.84577 -1.5512 0
M  V30 1285 H 126.605 5.43325 1.57526 0
M  V30 1286 H 125.162 6.35633 1.44272 0
M  V30 1287 N 128.595 0.856903 1.32268 0
M  V30 1288 C 130.006 0.515711 1.79436 0
M  V30 1289 C 130.357 -0.966586 1.70738 0
M  V30 1290 O 129.482 -1.75409 1.26731 0
M  V30 1291 C 130.077 0.929335 3.25805 0
M  V30 1292 C 128.636 0.640006 3.70919 0
M  V30 1293 C 127.783 1.12784 2.53328 0
M  V30 1294 H 130.734 1.04389 1.19535 0
M  V30 1295 H 130.755 0.246633 3.797 0
M  V30 1296 H 130.267 2.00821 3.32103 0
M  V30 1297 H 128.368 -0.428051 3.70133 0
M  V30 1298 H 128.481 1.20788 4.63624 0
M  V30 1299 H 126.845 0.548033 2.48734 0
M  V30 1300 H 127.628 2.21387 2.62379 0
M  V30 1301 N 130.073 -1.45103 0.615059 0
M  V30 1302 C 131.32 -2.02183 0.113179 0
M  V30 1303 C 131.648 -1.48249 -1.25906 0
M  V30 1304 O 130.903 -0.650265 -1.84581 0
M  V30 1305 C 131.202 -3.57386 0.0318797 0
M  V30 1306 C 130.868 -4.30505 1.34077 0
M  V30 1307 C 129.53 -4.50197 1.69929 0
M  V30 1308 C 131.882 -4.72238 2.20546 0
M  V30 1309 C 129.21 -5.08881 2.91988 0
M  V30 1310 C 131.562 -5.32272 3.41861 0
M  V30 1311 C 130.226 -5.50187 3.77956 0
M  V30 1312 H 129.496 -0.739842 0.0414151 0
M  V30 1313 H 132.143 -1.74073 0.798168 0
M  V30 1314 H 130.448 -3.84817 -0.736409 0
M  V30 1315 H 132.145 -3.99264 -0.372712 0
M  V30 1316 H 128.735 -4.15496 1.05173 0
M  V30 1317 H 132.919 -4.56751 1.94146 0
M  V30 1318 H 128.175 -5.20939 3.2005 0
M  V30 1319 H 132.349 -5.63563 4.09109 0
M  V30 1320 H 129.976 -5.95427 4.72622 0
M  V30 1321 N 131.551 -0.354651 -1.53558 0
M  V30 1322 C 132.781 0.239167 -2.05211 0
M  V30 1323 C 133.189 1.43879 -1.22863 0
M  V30 1324 O 132.532 1.81857 -0.259565 0
M  V30 1325 C 132.594 0.707251 -3.52474 0
M  V30 1326 C 132.258 -0.374212 -4.55465 0
M  V30 1327 C 133.255 -1.22054 -5.0537 0
M  V30 1328 C 130.94 -0.531323 -4.99482 0
M  V30 1329 C 132.934 -2.20942 -5.97882 0
M  V30 1330 C 130.621 -1.52358 -5.91802 0
M  V30 1331 C 131.619 -2.36108 -6.40892 0
M  V30 1332 O 131.307 -3.33643 -7.31394 0
M  V30 1333 H 131.039 0.0479716 -0.674296 0
M  V30 1334 H 133.593 -0.508121 -1.99016 0
M  V30 1335 H 131.823 1.50596 -3.56171 0
M  V30 1336 H 133.512 1.22285 -3.87042 0
M  V30 1337 H 134.278 -1.1103 -4.7212 0
M  V30 1338 H 130.157 0.110738 -4.60867 0
M  V30 1339 H 133.701 -2.86348 -6.36121 0
M  V30 1340 H 129.598 -1.63434 -6.24467 0
M  V30 1341 H 130.366 -3.29244 -7.4936 0
M  V30 1342 N 133.029 1.57378 -0.0835403 0
M  V30 1343 C 134.275 1.94217 0.583733 0
M  V30 1344 C 134.608 0.964653 1.68547 0
M  V30 1345 O 133.883 -0.00422258 1.945 0
M  V30 1346 C 134.166 3.41253 1.14972 0
M  V30 1347 C 134.019 4.49768 0.0538277 0
M  V30 1348 C 135.338 3.89352 2.05166 0
M  V30 1349 H 132.457 0.706233 0.210724 0
M  V30 1350 H 135.099 1.89392 -0.1519 0
M  V30 1351 H 133.249 3.45496 1.77665 0
M  V30 1352 H 134.921 4.57641 -0.579851 0
M  V30 1353 H 133.164 4.29432 -0.614068 0
M  V30 1354 H 133.835 5.49817 0.490452 0
M  V30 1355 H 136.311 3.87189 1.52393 0
M  V30 1356 H 135.187 4.92822 2.41698 0
M  V30 1357 H 135.448 3.27973 2.96456 0
M  V30 1358 N 134.507 -0.190092 1.56449 0
M  V30 1359 C 135.455 -1.25501 1.95837 0
M  V30 1360 C 136.449 -1.4685 0.844485 0
M  V30 1361 O 137.655 -1.47651 1.02952 0
M  V30 1362 H 134.03 -0.421447 0.622805 0
M  V30 1363 H 136.001 -0.895821 2.84636 0
M  V30 1364 C 134.75 -2.59124 2.31841 0
M  V30 1365 H 134.073 -2.43514 3.17082 0
M  V30 1366 H 135.513 -3.32371 2.6326 0
M  V30 1367 C 133.972 -3.16488 1.15486 0
M  V30 1368 O 134.502 -3.99365 0.432535 0
M  V30 1369 N 132.708 -2.75305 0.930349 0
M  V30 1370 H 132.255 -2.08013 1.51948 0
M  V30 1371 H 132.213 -3.14024 0.153634 0
M  V30 1372 N 135.985 -1.50799 -0.457987 0
M  V30 1373 C 137.21 -1.66496 -1.23668 0
M  V30 1374 C 137.635 -0.353288 -1.84752 0
M  V30 1375 O 136.993 0.684346 -1.67888 0
M  V30 1376 C 137.041 -2.76763 -2.3116 0
M  V30 1377 O 136.145 -2.38928 -3.36136 0
M  V30 1378 H 135.486 -0.555828 -0.363252 0
M  V30 1379 H 138.016 -1.9725 -0.543474 0
M  V30 1380 H 138.026 -3.00232 -2.76269 0
M  V30 1381 H 136.701 -3.71954 -1.86073 0
M  V30 1382 H 135.278 -2.25953 -2.96647 0
M  V30 1383 N 137.463 0.71206 -1.40597 0
M  V30 1384 C 138.874 1.29135 -1.34837 0
M  V30 1385 C 139.225 1.96186 -0.0235395 0
M  V30 1386 O 138.35 1.97768 0.878444 0
M  V30 1387 C 138.945 2.34827 -2.44217 0
M  V30 1388 C 137.504 2.88371 -2.41907 0
M  V30 1389 C 136.651 1.62202 -2.24913 0
M  V30 1390 H 139.602 0.507944 -1.50352 0
M  V30 1391 H 139.623 3.15749 -2.12327 0
M  V30 1392 H 139.135 1.85996 -3.40627 0
M  V30 1393 H 137.236 3.41422 -1.49204 0
M  V30 1394 H 137.349 3.39925 -3.37621 0
M  V30 1395 H 135.713 1.874 -1.72492 0
M  V30 1396 H 136.496 1.15391 -3.23326 0
M  V30 1397 N 138.941 1.26152 0.944643 0
M  V30 1398 C 140.171 1.14094 1.72239 0
M  V30 1399 C 140.579 -0.306931 1.86694 0
M  V30 1400 O 139.922 -1.22222 1.3714 0
M  V30 1401 C 139.984 1.73316 3.14963 0
M  V30 1402 C 139.648 3.2239 3.23904 0
M  V30 1403 C 140.645 4.19252 3.07447 0
M  V30 1404 C 138.33 3.62788 3.47405 0
M  V30 1405 C 140.324 5.54491 3.14353 0
M  V30 1406 C 138.011 4.98162 3.53947 0
M  V30 1407 C 139.009 5.93823 3.37436 0
M  V30 1408 O 138.697 7.26732 3.43679 0
M  V30 1409 H 138.429 0.398292 0.546205 0
M  V30 1410 H 140.983 1.67201 1.19301 0
M  V30 1411 H 139.213 1.14667 3.69308 0
M  V30 1412 H 140.902 1.56214 3.74636 0
M  V30 1413 H 141.668 3.8938 2.8915 0
M  V30 1414 H 137.547 2.88816 3.59313 0
M  V30 1415 H 141.091 6.29137 3.01384 0
M  V30 1416 H 136.988 5.27695 3.71763 0
M  V30 1417 H 137.756 7.3496 3.60245 0
M  V30 1418 N 140.419 -1.14872 1.07899 0
M  V30 1419 C 141.667 -1.85422 0.803941 0
M  V30 1420 C 141.988 -1.83051 -0.67211 0
M  V30 1421 O 141.258 -1.27532 -1.48703 0
M  V30 1422 H 139.838 -0.686537 0.294408 0
M  V30 1423 H 142.5 -1.39226 1.3639 0
M  V30 1424 H 141.596 -2.90399 1.14346 0
M  V30 1425 N 141.898 -0.863906 -1.31812 0
M  V30 1426 C 143.147 -0.46801 -1.96195 0
M  V30 1427 C 143.46 0.983474 -1.69077 0
M  V30 1428 O 144.666 1.48523 -2.27273 0
M  V30 1429 C 143.122 -0.785995 -3.51212 0
M  V30 1430 C 142.73 -2.25383 -3.87178 0
M  V30 1431 C 144.474 -0.458274 -4.22019 0
M  V30 1432 C 142.381 -2.51455 -5.3528 0
M  V30 1433 H 141.311 -0.171283 -0.734287 0
M  V30 1434 H 143.962 -1.05597 -1.50072 0
M  V30 1435 H 142.344 -0.127359 -3.95795 0
M  V30 1436 H 143.518 -2.95502 -3.53575 0
M  V30 1437 H 141.833 -2.54698 -3.2942 0
M  V30 1438 H 144.43 -0.630369 -5.30971 0
M  V30 1439 H 144.773 0.600834 -4.11941 0
M  V30 1440 H 145.306 -1.07319 -3.8305 0
M  V30 1441 H 142.045 -3.56025 -5.50387 0
M  V30 1442 H 141.565 -1.85923 -5.70257 0
M  V30 1443 H 143.244 -2.35874 -6.02472 0
M  V30 1444 N 143.376 1.44774 -0.622745 0
M  V30 1445 C 144.604 2.06487 -0.130722 0
M  V30 1446 C 145.019 1.46476 1.19123 0
M  V30 1447 O 144.376 0.584502 1.72887 0
M  V30 1448 C 144.427 3.615 -0.000807207 0
M  V30 1449 O 144.148 4.19274 -1.27048 0
M  V30 1450 C 145.649 4.40229 0.520898 0
M  V30 1451 H 142.869 0.666704 -0.0758106 0
M  V30 1452 H 145.413 1.85779 -0.854774 0
M  V30 1453 H 143.568 3.81498 0.673643 0
M  V30 1454 H 143.982 5.12622 -1.1099 0
M  V30 1455 H 145.456 5.49144 0.560838 0
M  V30 1456 H 145.933 4.1108 1.54627 0
M  V30 1457 H 146.539 4.25131 -0.120018 0
M  V30 1458 N 144.854 0.36279 1.53368 0
M  V30 1459 C 145.784 -0.476976 2.28576 0
M  V30 1460 C 146.765 -1.08631 1.30894 0
M  V30 1461 O 147.95 -1.10409 1.59761 0
M  V30 1462 C 145.08 -1.61828 3.07293 0
M  V30 1463 C 144.034 -1.13633 4.1264 0
M  V30 1464 C 143.36 -2.36766 4.79423 0
M  V30 1465 C 144.66 -0.223061 5.21823 0
M  V30 1466 H 146.354 0.150474 2.99022 0
M  V30 1467 H 143.9 0.0738103 1.43811 0
M  V30 1468 H 145.853 -2.21237 3.58653 0
M  V30 1469 H 144.577 -2.27292 2.34533 0
M  V30 1470 H 143.236 -0.564945 3.62221 0
M  V30 1471 H 142.884 -3.0068 4.03238 0
M  V30 1472 H 142.584 -2.05192 5.50609 0
M  V30 1473 H 144.108 -2.96865 5.33576 0
M  V30 1474 H 145.522 -0.724545 5.68703 0
M  V30 1475 H 143.919 0.001678 6.001 0
M  V30 1476 H 144.989 0.735553 4.79289 0
M  V30 1477 N 146.332 -1.57332 0.0918853 0
M  V30 1478 C 147.295 -2.12708 -0.85369 0
M  V30 1479 C 148.295 -1.05561 -1.213 0
M  V30 1480 O 149.485 -1.31461 -1.14296 0
M  V30 1481 C 146.617 -2.64503 -2.15061 0
M  V30 1482 H 147.81 -2.97573 -0.3729 0
M  V30 1483 H 145.363 -1.55509 -0.157072 0
M  V30 1484 H 146.098 -1.83149 -2.67632 0
M  V30 1485 H 145.883 -3.4284 -1.90272 0
M  V30 1486 H 147.373 -3.07351 -2.82711 0
M  V30 1487 N 147.81 0.181792 -1.56548 0
M  V30 1488 C 148.76 1.22961 -1.92002 0
M  V30 1489 C 149.744 1.40331 -0.787146 0
M  V30 1490 O 150.936 1.42478 -1.05019 0
M  V30 1491 C 148.065 2.57144 -2.27446 0
M  V30 1492 C 147.151 2.43512 -3.47222 0
M  V30 1493 N 147.542 1.99577 -4.64761 0
M  V30 1494 C 145.84 2.74368 -3.51622 0
M  V30 1495 C 146.541 1.98156 -5.46909 0
M  V30 1496 N 145.517 2.40164 -4.8767 0
M  V30 1497 H 149.319 0.881462 -2.8037 0
M  V30 1498 H 146.833 0.390141 -1.57644 0
M  V30 1499 H 148.83 3.32847 -2.51035 0
M  V30 1500 H 147.49 2.92771 -1.40411 0
M  V30 1501 H 148.501 1.70078 -4.89177 0
M  V30 1502 H 145.178 3.14102 -2.75038 0
M  V30 1503 H 146.568 1.65975 -6.51077 0
M  V30 1504 N 149.288 1.51039 0.449983 0
M  V30 1505 C 150.236 1.71995 1.5659 0
M  V30 1506 C 151.23 0.586029 1.5894 0
M  V30 1507 O 152.436 0.76709 1.62837 0
M  V30 1508 H 148.811 0.543233 0.520001 0
M  V30 1509 H 150.782 2.65562 1.36085 0
M  V30 1510 C 149.531 1.8506 2.9436 0
M  V30 1511 H 148.854 2.71712 2.93279 0
M  V30 1512 H 150.294 2.0374 3.71842 0
M  V30 1513 C 148.753 0.607277 3.31382 0
M  V30 1514 O 149.283 -0.243903 4.00959 0
M  V30 1515 N 147.489 0.455073 2.87015 0
M  V30 1516 H 147.036 1.14879 2.30566 0
M  V30 1517 H 146.994 -0.375611 3.12148 0
M  V30 1518 N 150.766 -0.704594 1.40972 0
M  V30 1519 C 152.014 -1.46169 1.39568 0
M  V30 1520 C 152.335 -1.95 0.00253745 0
M  V30 1521 O 151.605 -1.71095 -0.954114 0
M  V30 1522 H 150.185 -0.542326 0.513704 0
M  V30 1523 H 152.847 -0.834553 1.76128 0
M  V30 1524 H 151.943 -2.32922 2.07735 0
M  V30 1525 N 152.244 -1.26651 -0.937939 0
M  V30 1526 C 153.192 -1.08308 -2.05845 0
M  V30 1527 C 154.186 -0.0090757 -1.69398 0
M  V30 1528 O 155.392 -0.166007 -1.79233 0
M  V30 1529 H 151.767 -0.333416 -0.674046 0
M  V30 1530 H 153.738 -2.03261 -2.18467 0
M  V30 1531 C 152.487 -0.736229 -3.39816 0
M  V30 1532 H 151.81 -1.55453 -3.6834 0
M  V30 1533 H 153.25 -0.64769 -4.19024 0
M  V30 1534 C 151.709 0.558824 -3.32233 0
M  V30 1535 O 152.239 1.59621 -3.68624 0
M  V30 1536 N 150.445 0.550657 -2.85335 0
M  V30 1537 H 149.992 -0.293943 -2.55917 0
M  V30 1538 H 149.95 1.41726 -2.80644 0
M  V30 1539 N 153.722 1.14298 -1.08507 0
M  V30 1540 C 154.652 2.21542 -0.737646 0
M  V30 1541 C 155.633 1.67773 0.280377 0
M  V30 1542 O 156.818 1.93616 0.150521 0
M  V30 1543 C 153.948 3.46988 -0.147259 0
M  V30 1544 C 152.902 4.13789 -1.09374 0
M  V30 1545 C 152.228 5.33449 -0.365524 0
M  V30 1546 C 153.528 4.62208 -2.4323 0
M  V30 1547 H 155.222 2.5086 -1.6343 0
M  V30 1548 H 152.768 1.20576 -0.787243 0
M  V30 1549 H 154.721 4.21262 0.107808 0
M  V30 1550 H 153.445 3.17037 0.784538 0
M  V30 1551 H 152.104 3.4147 -1.33393 0
M  V30 1552 H 151.752 4.99759 0.57011 0
M  V30 1553 H 151.452 5.79088 -0.996512 0
M  V30 1554 H 152.976 6.10485 -0.118534 0
M  V30 1555 H 154.39 5.27952 -2.23472 0
M  V30 1556 H 152.787 5.18553 -3.02031 0
M  V30 1557 H 153.857 3.77224 -3.04681 0
M  V30 1558 N 155.201 0.870884 1.31352 0
M  V30 1559 C 156.429 0.49677 2.00848 0
M  V30 1560 C 156.844 -0.910998 1.65367 0
M  V30 1561 O 156.201 -1.59696 0.883374 0
M  V30 1562 C 156.252 0.645308 3.55694 0
M  V30 1563 O 155.973 1.99764 3.89905 0
M  V30 1564 C 157.474 0.272326 4.42463 0
M  V30 1565 H 154.694 0.193462 0.642506 0
M  V30 1566 H 157.238 1.1723 1.67563 0
M  V30 1567 H 155.393 0.0173176 3.87396 0
M  V30 1568 H 155.807 2.00607 4.84621 0
M  V30 1569 H 157.281 0.427208 5.50344 0
M  V30 1570 H 157.758 -0.788587 4.32062 0
M  V30 1571 H 158.364 0.876054 4.1618 0
M  V30 1572 N 156.679 -1.44442 0.630414 0
M  V30 1573 C 157.627 -2.32437 -0.0871428 0
M  V30 1574 C 158.621 -1.47304 -0.836525 0
M  V30 1575 O 159.827 -1.63653 -0.749506 0
M  V30 1576 H 156.202 -0.750533 -0.0469495 0
M  V30 1577 H 158.173 -2.90709 0.673096 0
M  V30 1578 C 156.922 -3.31288 -1.05563 0
M  V30 1579 H 156.245 -3.96805 -0.488426 0
M  V30 1580 H 157.685 -3.9554 -1.52721 0
M  V30 1581 C 156.144 -2.6016 -2.14052 0
M  V30 1582 O 156.674 -2.39997 -3.22124 0
M  V30 1583 N 154.88 -2.19911 -1.89967 0
M  V30 1584 H 154.427 -2.36509 -1.02085 0
M  V30 1585 H 154.385 -1.72646 -2.62756 0
M  V30 1586 N 158.157 -0.370918 -1.53173 0
M  V30 1587 C 159.12 0.460778 -2.24521 0
M  V30 1588 C 160.12 1.00536 -1.25496 0
M  V30 1589 O 161.31 0.890266 -1.49733 0
M  V30 1590 C 158.442 1.64457 -2.98608 0
M  V30 1591 H 159.635 -0.163613 -2.99453 0
M  V30 1592 H 157.188 -0.122699 -1.55818 0
M  V30 1593 H 157.923 2.30691 -2.2793 0
M  V30 1594 H 157.708 1.26099 -3.7127 0
M  V30 1595 H 159.198 2.23384 -3.5283 0
M  V30 1596 N 159.635 1.57281 -0.100228 0
M  V30 1597 C 160.585 2.10848 0.86759 0
M  V30 1598 C 161.569 1.02473 1.24049 0
M  V30 1599 O 162.761 1.28739 1.21471 0
M  V30 1600 C 159.89 2.69648 2.12474 0
M  V30 1601 C 158.976 3.85074 1.77704 0
M  V30 1602 N 159.367 4.92897 1.13518 0
M  V30 1603 C 157.665 3.94905 2.07282 0
M  V30 1604 C 158.366 5.73475 0.974735 0
M  V30 1605 N 157.342 5.22675 1.4937 0
M  V30 1606 H 161.144 2.91594 0.367471 0
M  V30 1607 H 158.658 1.62074 0.102829 0
M  V30 1608 H 160.655 3.06356 2.82757 0
M  V30 1609 H 159.315 1.90359 2.63047 0
M  V30 1610 H 160.326 5.11662 0.801381 0
M  V30 1611 H 157.003 3.26633 2.60033 0
M  V30 1612 H 158.393 6.70238 0.472364 0
M  V30 1613 N 161.113 -0.173488 1.56642 0
M  V30 1614 C 162.023 -1.23482 1.99473 0
M  V30 1615 C 163.039 -1.48567 0.905752 0
M  V30 1616 O 164.215 -1.60758 1.21321 0
M  V30 1617 C 161.28 -2.55444 2.34413 0
M  V30 1618 C 160.341 -2.38241 3.57127 0
M  V30 1619 C 159.574 -3.63909 3.90392 0
M  V30 1620 O 159.797 -4.68996 3.24653 0
M  V30 1621 O 158.731 -3.58149 4.83749 0
M  V30 1622 H 162.557 -0.901279 2.90018 0
M  V30 1623 H 160.142 -0.380185 1.44482 0
M  V30 1624 H 162.024 -3.33292 2.57865 0
M  V30 1625 H 160.699 -2.88382 1.4703 0
M  V30 1626 H 159.606 -1.58431 3.38896 0
M  V30 1627 H 160.939 -2.10228 4.45045 0
M  V30 1628 N 162.591 -1.51276 -0.441967 0
M  V30 1629 C 163.521 -1.752 -1.54361 0
M  V30 1630 C 164.502 -0.601682 -1.59103 0
M  V30 1631 O 165.687 -0.843913 -1.74905 0
M  V30 1632 C 162.817 -1.87282 -2.92477 0
M  V30 1633 C 161.771 -3.02687 -3.02596 0
M  V30 1634 C 161.097 -2.99947 -4.42647 0
M  V30 1635 C 162.397 -4.4273 -2.77106 0
M  V30 1636 H 164.091 -2.67442 -1.34592 0
M  V30 1637 H 161.637 -1.28694 -0.646048 0
M  V30 1638 H 163.59 -2.02602 -3.695 0
M  V30 1639 H 162.314 -0.916844 -3.13467 0
M  V30 1640 H 160.973 -2.87065 -2.28012 0
M  V30 1641 H 160.621 -2.02136 -4.60597 0
M  V30 1642 H 160.321 -3.77439 -4.50348 0
M  V30 1643 H 161.845 -3.17354 -5.2165 0
M  V30 1644 H 163.259 -4.58727 -3.43864 0
M  V30 1645 H 161.656 -5.21893 -2.96222 0
M  V30 1646 H 162.726 -4.53087 -1.72744 0
M  V30 1647 N 164.069 0.697108 -1.41344 0
M  V30 1648 C 165.485 1.00751 -1.2378 0
M  V30 1649 C 165.685 2.01105 -0.126066 0
M  V30 1650 O 164.741 2.47295 0.51004 0
M  V30 1651 C 166.054 1.53359 -2.58653 0
M  V30 1652 C 167.602 1.6525 -2.65822 0
M  V30 1653 C 168.077 2.2126 -4.01009 0
M  V30 1654 N 169.568 2.28622 -4.02847 0
M  V30 1655 C 170.303 2.72984 -5.04249 0
M  V30 1656 N 169.799 3.16962 -6.16041 0
M  V30 1657 N 171.592 2.72534 -4.91611 0
M  V30 1658 H 163.743 0.0322662 -2.12375 0
M  V30 1659 H 166.006 0.0768853 -0.944877 0
M  V30 1660 H 165.712 0.870773 -3.4075 0
M  V30 1661 H 165.586 2.51597 -2.81032 0
M  V30 1662 H 167.973 2.30644 -1.84086 0
M  V30 1663 H 168.054 0.655614 -2.47256 0
M  V30 1664 H 167.698 1.56482 -4.83193 0
M  V30 1665 H 167.628 3.21698 -4.16915 0
M  V30 1666 H 170.119 1.97585 -3.22131 0
M  V30 1667 H 170.432 3.49434 -6.89287 0
M  V30 1668 H 168.777 3.14875 -6.1958 0
M  V30 1669 H 171.968 2.37525 -4.0336 0
M  V30 1670 H 172.141 3.06789 -5.70775 0
M  V30 1671 N 165.547 1.27147 0.931209 0
M  V30 1672 C 166.494 1.09568 2.03134 0
M  V30 1673 C 167.464 -0.00222433 1.661 0
M  V30 1674 O 168.649 0.159439 1.90133 0
M  V30 1675 C 165.789 0.745231 3.36957 0
M  V30 1676 C 164.902 1.92041 3.86968 0
M  V30 1677 C 164.037 1.51216 5.09222 0
M  V30 1678 C 163.076 2.65504 5.5152 0
M  V30 1679 N 162.213 2.25291 6.64972 0
M  V30 1680 H 167.053 2.03708 2.17502 0
M  V30 1681 H 164.59 1.01411 1.06556 0
M  V30 1682 H 166.548 0.522878 4.1391 0
M  V30 1683 H 165.178 -0.159202 3.22407 0
M  V30 1684 H 164.23 2.25541 3.06326 0
M  V30 1685 H 165.542 2.77787 4.1429 0
M  V30 1686 H 164.696 1.25084 5.93666 0
M  V30 1687 H 163.435 0.625749 4.83669 0
M  V30 1688 H 162.44 2.92354 4.65628 0
M  V30 1689 H 163.665 3.54761 5.7907 0
M  V30 1690 H 161.611 1.39098 6.41083 0
M  V30 1691 H 161.528 3.04577 6.91931 0
M  V30 1692 H 162.796 2.02398 7.52765 0
M  V30 1693 N 167.025 -1.13721 1.09112 0
M  V30 1694 C 167.972 -2.19031 0.727591 0
M  V30 1695 C 168.942 -1.63555 -0.289656 0
M  V30 1696 O 170.127 -1.90023 -0.172026 0
M  V30 1697 C 167.267 -3.4477 0.15082 0
M  V30 1698 C 166.38 -4.14365 1.22172 0
M  V30 1699 C 165.515 -5.27709 0.608042 0
M  V30 1700 C 164.554 -5.89147 1.66047 0
M  V30 1701 N 163.691 -6.93929 1.06806 0
M  V30 1702 H 168.531 -2.49475 1.62991 0
M  V30 1703 H 166.068 -1.22499 0.81439 0
M  V30 1704 H 168.026 -4.16714 -0.201358 0
M  V30 1705 H 166.656 -3.14787 -0.714783 0
M  V30 1706 H 165.708 -3.40737 1.69122 0
M  V30 1707 H 167.02 -4.56114 2.01895 0
M  V30 1708 H 166.174 -6.06355 0.204523 0
M  V30 1709 H 164.913 -4.872 -0.220769 0
M  V30 1710 H 163.918 -5.09198 2.07357 0
M  V30 1711 H 165.143 -6.31729 2.49189 0
M  V30 1712 H 163.089 -6.55483 0.260476 0
M  V30 1713 H 163.006 -7.34202 1.8023 0
M  V30 1714 H 164.274 -7.76434 0.690644 0
M  V30 1715 N 168.503 -0.877838 -1.30888 0
M  V30 1716 C 169.433 -0.35534 -2.3078 0
M  V30 1717 C 170.414 0.557994 -1.60687 0
M  V30 1718 O 171.599 0.473355 -1.88343 0
M  V30 1719 C 168.729 0.437221 -3.44537 0
M  V30 1720 C 167.683 -0.383715 -4.26276 0
M  V30 1721 C 167.009 0.535014 -5.32017 0
M  V30 1722 C 168.309 -1.62201 -4.96476 0
M  V30 1723 H 170.003 -1.19007 -2.74732 0
M  V30 1724 H 167.549 -0.573698 -1.32078 0
M  V30 1725 H 169.502 0.813334 -4.13477 0
M  V30 1726 H 168.226 1.30553 -2.99372 0
M  V30 1727 H 166.885 -0.741874 -3.59015 0
M  V30 1728 H 166.533 1.40083 -4.831 0
M  V30 1729 H 166.233 -0.0104211 -5.87599 0
M  V30 1730 H 167.757 0.907799 -6.03814 0
M  V30 1731 H 169.171 -1.31689 -5.5797 0
M  V30 1732 H 167.568 -2.10711 -5.61891 0
M  V30 1733 H 168.638 -2.37044 -4.23011 0
M  V30 1734 N 169.982 1.44106 -0.638065 0
M  V30 1735 C 171.229 2.01978 -0.14533 0
M  V30 1736 C 171.557 1.50234 1.23532 0
M  V30 1737 O 170.812 0.679548 1.83523 0
M  V30 1738 C 171.111 3.5729 -0.0887327 0
M  V30 1739 C 170.777 4.28317 -1.40909 0
M  V30 1740 C 169.439 4.47437 -1.77069 0
M  V30 1741 C 171.791 4.6867 -2.28031 0
M  V30 1742 C 169.119 5.04171 -3.00047 0
M  V30 1743 C 171.471 5.26766 -3.50286 0
M  V30 1744 C 170.135 5.44104 -3.86661 0
M  V30 1745 H 169.405 0.739089 -0.0531801 0
M  V30 1746 H 172.052 1.72781 -0.825761 0
M  V30 1747 H 170.357 3.8594 0.675095 0
M  V30 1748 H 172.054 3.99807 0.309145 0
M  V30 1749 H 168.644 4.1377 -1.1177 0
M  V30 1750 H 172.828 4.53604 -2.01388 0
M  V30 1751 H 168.084 5.15782 -3.28298 0
M  V30 1752 H 172.258 5.56983 -4.18023 0
M  V30 1753 H 169.885 5.87832 -4.82034 0
M  V30 1754 N 171.46 0.379036 1.52974 0
M  V30 1755 C 172.37 -0.468639 2.29872 0
M  V30 1756 C 173.386 -1.08067 1.36373 0
M  V30 1757 O 174.562 -1.08871 1.69438 0
M  V30 1758 C 171.627 -1.58594 3.083 0
M  V30 1759 C 170.688 -1.00007 4.17489 0
M  V30 1760 C 169.921 -2.06413 4.92168 0
M  V30 1761 O 170.144 -3.27751 4.66835 0
M  V30 1762 O 169.078 -1.68717 5.7777 0
M  V30 1763 H 172.904 0.157508 3.03291 0
M  V30 1764 H 170.489 0.143035 1.48714 0
M  V30 1765 H 172.371 -2.23525 3.57232 0
M  V30 1766 H 171.046 -2.19724 2.37703 0
M  V30 1767 H 169.953 -0.314299 3.72777 0
M  V30 1768 H 171.286 -0.433135 4.90291 0
M  V30 1769 N 172.938 -1.57226 0.108567 0
M  V30 1770 C 173.848 -2.18292 -0.859401 0
M  V30 1771 C 174.864 -1.15612 -1.30038 0
M  V30 1772 O 176.04 -1.48039 -1.36552 0
M  V30 1773 C 173.105 -2.762 -2.09558 0
M  V30 1774 C 172.166 -3.93881 -1.70752 0
M  V30 1775 C 171.399 -4.49018 -2.88477 0
M  V30 1776 O 171.622 -4.03068 -4.036 0
M  V30 1777 O 170.556 -5.39852 -2.66164 0
M  V30 1778 H 174.382 -3.01441 -0.369769 0
M  V30 1779 H 171.967 -1.48945 -0.1165 0
M  V30 1780 H 173.849 -3.13156 -2.81978 0
M  V30 1781 H 172.524 -1.96089 -2.57548 0
M  V30 1782 H 171.431 -3.61713 -0.954714 0
M  V30 1783 H 172.764 -4.75396 -1.27513 0
M  V30 1784 N 174.416 0.165178 -1.56732 0
M  V30 1785 C 175.363 1.2044 -1.96883 0
M  V30 1786 C 176.333 1.43664 -0.833657 0
M  V30 1787 O 177.518 1.56302 -1.09427 0
M  V30 1788 C 174.658 2.53727 -2.33916 0
M  V30 1789 C 173.771 2.3783 -3.6064 0
M  V30 1790 C 172.906 3.64026 -3.86857 0
M  V30 1791 C 171.945 3.43088 -5.06909 0
M  V30 1792 N 171.082 4.61369 -5.29229 0
M  V30 1793 H 175.922 0.854996 -2.85471 0
M  V30 1794 H 173.459 0.41076 -1.41249 0
M  V30 1795 H 175.417 3.31419 -2.53411 0
M  V30 1796 H 174.047 2.8665 -1.48431 0
M  V30 1797 H 173.099 1.51282 -3.49024 0
M  V30 1798 H 174.411 2.18308 -4.4849 0
M  V30 1799 H 173.565 4.50152 -4.06753 0
M  V30 1800 H 172.304 3.86533 -2.97394 0
M  V30 1801 H 171.309 2.55349 -4.86906 0
M  V30 1802 H 172.534 3.21997 -5.97909 0
M  V30 1803 H 170.48 4.84084 -4.42718 0
M  V30 1804 H 170.397 4.44783 -6.11313 0
M  V30 1805 H 171.665 5.48761 -5.53608 0
M  V30 1806 N 175.894 1.51508 0.433938 0
M  V30 1807 C 177.31 1.39759 0.770682 0
M  V30 1808 C 177.51 0.482594 1.95636 0
M  V30 1809 O 176.566 -0.0609691 2.52426 0
M  V30 1810 C 177.879 2.81851 1.04787 0
M  V30 1811 C 179.427 2.91025 1.1521 0
M  V30 1812 C 179.902 4.34032 1.46219 0
M  V30 1813 N 181.393 4.37154 1.53136 0
M  V30 1814 C 182.128 5.4484 1.78709 0
M  V30 1815 N 181.624 6.62682 2.02051 0
M  V30 1816 N 183.417 5.32324 1.80519 0
M  V30 1817 H 175.568 2.09548 -0.346892 0
M  V30 1818 H 177.831 0.943446 -0.0928074 0
M  V30 1819 H 177.537 3.50815 0.249304 0
M  V30 1820 H 177.411 3.21386 1.97461 0
M  V30 1821 H 179.798 2.22257 1.94128 0
M  V30 1822 H 179.879 2.54983 0.204281 0
M  V30 1823 H 179.523 5.03351 0.678274 0
M  V30 1824 H 179.453 4.6759 2.42212 0
M  V30 1825 H 181.944 3.52197 1.36987 0
M  V30 1826 H 182.257 7.40543 2.20943 0
M  V30 1827 H 180.602 6.65791 1.99366 0
M  V30 1828 H 183.793 4.39246 1.61805 0
M  V30 1829 H 183.966 6.16328 2.00111 0
M  V30 1830 N 177.372 -0.689602 1.41712 0
M  V30 1831 C 178.788 -1.00093 1.24312 0
M  V30 1832 C 178.988 -2.01036 0.136729 0
M  V30 1833 O 178.044 -2.47562 -0.496918 0
M  V30 1834 C 179.357 -1.51985 2.59463 0
M  V30 1835 C 180.905 -1.63838 2.66695 0
M  V30 1836 C 181.38 -2.1913 4.02177 0
M  V30 1837 N 182.871 -2.26483 4.04054 0
M  V30 1838 C 183.606 -2.70306 5.0569 0
M  V30 1839 N 183.102 -3.13691 6.17713 0
M  V30 1840 N 184.895 -2.69923 4.9305 0
M  V30 1841 H 177.046 -0.0210029 2.1239 0
M  V30 1842 H 179.309 -0.0718733 0.945272 0
M  V30 1843 H 179.015 -0.85269 3.41207 0
M  V30 1844 H 178.889 -2.50103 2.82362 0
M  V30 1845 H 181.276 -2.29664 1.85306 0
M  V30 1846 H 181.357 -0.642492 2.476 0
M  V30 1847 H 181.001 -1.53918 4.84016 0
M  V30 1848 H 180.931 -3.19482 4.18615 0
M  V30 1849 H 183.422 -1.95874 3.23174 0
M  V30 1850 H 183.735 -3.45773 6.9113 0
M  V30 1851 H 182.08 -3.11585 6.21241 0
M  V30 1852 H 185.271 -2.35382 4.04614 0
M  V30 1853 H 185.444 -3.03758 5.72394 0
M  V30 1854 N 178.85 -1.27639 -0.924453 0
M  V30 1855 C 179.8 -1.07295 -2.01176 0
M  V30 1856 C 180.784 5.77352e-05 -1.609 0
M  V30 1857 O 181.976 -0.218855 -1.75642 0
M  V30 1858 C 179.105 -0.725592 -3.35544 0
M  V30 1859 C 178.191 -1.83691 -3.82254 0
M  V30 1860 N 178.582 -3.07697 -4.01443 0
M  V30 1861 C 176.88 -1.72433 -4.11319 0
M  V30 1862 C 177.581 -3.80037 -4.40394 0
M  V30 1863 N 176.557 -3.0782 -4.48049 0
M  V30 1864 H 180.359 -2.01399 -2.14046 0
M  V30 1865 H 177.873 -1.18401 -1.11153 0
M  V30 1866 H 179.87 -0.560959 -4.13109 0
M  V30 1867 H 178.53 0.207782 -3.24034 0
M  V30 1868 H 179.541 -3.43424 -3.8766 0
M  V30 1869 H 176.218 -0.862005 -4.08504 0
M  V30 1870 H 177.608 -4.86632 -4.63291 0
M  V30 1871 N 180.328 1.1314 -1.09713 0
M  V30 1872 C 181.577 1.83838 -0.829851 0
M  V30 1873 C 181.89 1.84599 0.646728 0
M  V30 1874 O 183.096 2.51218 1.02965 0
M  V30 1875 C 181.552 3.30069 -1.43466 0
M  V30 1876 C 181.16 3.37688 -2.94399 0
M  V30 1877 C 182.904 4.05788 -1.24645 0
M  V30 1878 C 180.811 4.78209 -3.47952 0
M  V30 1879 H 179.741 0.68877 -0.306777 0
M  V30 1880 H 182.392 1.27448 -1.3202 0
M  V30 1881 H 180.774 3.8628 -0.871996 0
M  V30 1882 H 181.948 2.91456 -3.56918 0
M  V30 1883 H 180.263 2.75436 -3.12289 0
M  V30 1884 H 182.86 5.09535 -1.62107 0
M  V30 1885 H 183.203 4.15878 -0.187357 0
M  V30 1886 H 183.736 3.55915 -1.77678 0
M  V30 1887 H 180.475 4.73311 -4.53495 0
M  V30 1888 H 179.995 5.24924 -2.90198 0
M  V30 1889 H 181.674 5.47133 -3.45332 0
M  V30 1890 N 181.806 0.884767 1.30421 0
M  V30 1891 C 182.754 0.340869 2.30089 0
M  V30 1892 C 183.748 -0.55201 1.60154 0
M  V30 1893 O 184.954 -0.436467 1.74628 0
M  V30 1894 H 181.329 0.0915739 0.746404 0
M  V30 1895 H 183.3 1.19513 2.73421 0
M  V30 1896 C 182.049 -0.429779 3.45034 0
M  V30 1897 H 181.372 0.248024 3.9903 0
M  V30 1898 H 182.812 -0.775445 4.16849 0
M  V30 1899 C 181.271 -1.62677 2.95022 0
M  V30 1900 O 181.801 -2.72614 2.95033 0
M  V30 1901 N 180.007 -1.46387 2.51036 0
M  V30 1902 H 179.554 -0.569506 2.51226 0
M  V30 1903 H 179.512 -2.26612 2.17932 0
M  V30 1904 N 183.284 -1.43765 0.645699 0
M  V30 1905 C 184.512 -2.06253 0.163556 0
M  V30 1906 C 184.927 -1.48352 -1.16778 0
M  V30 1907 O 184.284 -0.611932 -1.71935 0
M  V30 1908 C 184.335 -3.61453 0.0583186 0
M  V30 1909 O 184.056 -4.172 1.33702 0
M  V30 1910 C 185.557 -4.41002 -0.450795 0
M  V30 1911 H 182.777 -0.665413 0.0864077 0
M  V30 1912 H 185.321 -1.84396 0.884222 0
M  V30 1913 H 183.476 -3.82522 -0.612865 0
M  V30 1914 H 183.89 -5.10791 1.19131 0
M  V30 1915 H 185.364 -5.49966 -0.473403 0
M  V30 1916 H 185.841 -4.13488 -1.48068 0
M  V30 1917 H 186.447 -4.24886 0.187637 0
M  V30 1918 N 184.763 -0.387143 -1.52771 0
M  V30 1919 C 185.991 0.195869 -2.05971 0
M  V30 1920 C 186.406 1.40691 -1.25903 0
M  V30 1921 O 185.763 1.79931 -0.305134 0
M  V30 1922 C 185.814 0.56812 -3.57008 0
M  V30 1923 O 185.535 -0.594803 -4.34043 0
M  V30 1924 C 187.036 1.20723 -4.26545 0
M  V30 1925 H 184.256 0.0300578 -0.670326 0
M  V30 1926 H 186.8 -0.551749 -1.96916 0
M  V30 1927 H 184.955 1.26564 -3.66143 0
M  V30 1928 H 185.369 -0.289322 -5.23701 0
M  V30 1929 H 186.843 1.41807 -5.33474 0
M  V30 1930 H 187.32 2.17395 -3.81623 0
M  V30 1931 H 187.926 0.550535 -4.21722 0
M  V30 1932 N 186.241 1.57166 -0.116904 0
M  V30 1933 C 187.466 1.999 0.55271 0
M  V30 1934 C 187.891 0.996039 1.59564 0
M  V30 1935 O 187.249 -0.032556 1.81271 0
M  V30 1936 C 187.297 3.4152 1.15742 0
M  V30 1937 O 186.401 3.44106 2.27299 0
M  V30 1938 H 185.742 0.649447 0.138258 0
M  V30 1939 H 188.272 2.03573 -0.204759 0
M  V30 1940 H 188.282 3.79684 1.49346 0
M  V30 1941 H 186.957 4.14034 0.393493 0
M  V30 1942 H 185.534 3.17759 1.9515 0
M  V30 1943 N 187.719 -0.156864 1.56817 0
M  V30 1944 C 188.996 -0.899244 1.73704 0
M  V30 1945 C 189.376 -1.99771 0.682254 0
M  V30 1946 O 188.724 -2.26515 -0.300522 0
M  V30 1947 C 188.934 -1.45075 3.17418 0
M  V30 1948 C 190.282 -1.91802 3.7881 0
M  V30 1949 O 191.306 -1.54838 3.20786 0
M  V30 1950 O 190.165 -2.5994 4.80722 0
M  V30 1951 H 187.259 -0.424267 0.709878 0
M  V30 1952 H 189.805 -0.143561 1.69092 0
M  V30 1953 H 188.577 -0.660846 3.85679 0
M  V30 1954 H 188.2 -2.27021 3.26416 0
M  V30 1955 N 189.197 -1.51736 -0.425897 0
M  V30 1956 C 190.422 -1.69082 -1.20108 0
M  V30 1957 C 190.847 -0.392398 -1.83962 0
M  V30 1958 O 190.205 0.64858 -1.69302 0
M  V30 1959 C 190.253 -2.81604 -2.25237 0
M  V30 1960 O 189.357 -2.46004 -3.30992 0
M  V30 1961 H 188.698 -0.563408 -0.35138 0
M  V30 1962 H 191.228 -1.98358 -0.501512 0
M  V30 1963 H 191.238 -3.06025 -2.69838 0
M  V30 1964 H 189.913 -3.75817 -1.78142 0
M  V30 1965 H 188.49 -2.32195 -2.91787 0
M  V30 1966 N 190.675 0.682077 -1.42076 0
M  V30 1967 C 191.585 1.82535 -1.47371 0
M  V30 1968 C 192.601 1.7017 -0.363079 0
M  V30 1969 O 193.777 1.91848 -0.612875 0
M  V30 1970 C 190.842 3.18624 -1.36674 0
M  V30 1971 C 189.903 3.42999 -2.58167 0
M  V30 1972 C 189.136 4.72595 -2.4797 0
M  V30 1973 O 189.359 5.50006 -1.5116 0
M  V30 1974 O 188.293 4.98054 -3.37974 0
M  V30 1975 H 192.119 1.81023 -2.43853 0
M  V30 1976 H 189.704 0.836887 -1.2376 0
M  V30 1977 H 191.586 3.99847 -1.33043 0
M  V30 1978 H 190.261 3.20789 -0.433138 0
M  V30 1979 H 189.168 2.61653 -2.67373 0
M  V30 1980 H 190.501 3.45659 -3.50401 0
M  V30 1981 N 192.153 1.28127 0.917671 0
M  V30 1982 C 193.402 1.14432 1.66097 0
M  V30 1983 C 193.715 -0.307247 1.93172 0
M  V30 1984 O 194.921 -0.565259 2.65551 0
M  V30 1985 C 193.377 2.00015 2.99202 0
M  V30 1986 C 192.985 3.49889 2.79789 0
M  V30 1987 C 194.729 1.94996 3.77064 0
M  V30 1988 C 192.636 4.27636 4.08511 0
M  V30 1989 H 191.566 0.424662 0.62304 0
M  V30 1990 H 194.217 1.52628 1.01868 0
M  V30 1991 H 192.599 1.54672 3.64544 0
M  V30 1992 H 193.773 4.03162 2.23152 0
M  V30 1993 H 192.088 3.56392 2.15345 0
M  V30 1994 H 194.685 2.50354 4.72469 0
M  V30 1995 H 195.028 0.925819 4.05875 0
M  V30 1996 H 195.561 2.38287 3.18534 0
M  V30 1997 H 192.3 5.30615 3.84874 0
M  V30 1998 H 191.82 3.79137 4.64774 0
M  V30 1999 H 193.499 4.37346 4.76799 0
M  V30 2000 N 193.631 -1.12557 1.10312 0
M  V30 2001 C 194.561 -2.20341 0.772798 0
M  V30 2002 C 195.542 -1.68198 -0.25365 0
M  V30 2003 O 196.727 -1.93831 -0.119699 0
M  V30 2004 C 193.857 -3.46709 0.202443 0
M  V30 2005 C 192.811 -4.11996 1.15943 0
M  V30 2006 C 192.137 -5.328 0.450345 0
M  V30 2007 C 193.437 -4.5828 2.50552 0
M  V30 2008 H 195.131 -2.48229 1.674 0
M  V30 2009 H 192.677 -1.19308 0.806326 0
M  V30 2010 H 194.63 -4.2138 -0.0407752 0
M  V30 2011 H 193.354 -3.18245 -0.734001 0
M  V30 2012 H 192.013 -3.39305 1.38808 0
M  V30 2013 H 191.661 -5.00602 -0.490531 0
M  V30 2014 H 191.361 -5.7743 1.08851 0
M  V30 2015 H 192.885 -6.10219 0.215642 0
M  V30 2016 H 194.299 -5.2433 2.31843 0
M  V30 2017 H 192.696 -5.13683 3.10242 0
M  V30 2018 H 193.766 -3.72329 3.10643 0
M  V30 2019 N 195.109 -0.891671 -1.2995 0
M  V30 2020 C 196.039 -0.379797 -2.30391 0
M  V30 2021 C 197.02 0.540919 -1.6127 0
M  V30 2022 O 198.205 0.453352 -1.88834 0
M  V30 2023 C 195.335 0.400654 -3.44981 0
M  V30 2024 C 194.289 -0.428905 -4.25846 0
M  V30 2025 C 193.615 0.478557 -5.32554 0
M  V30 2026 C 194.915 -1.67458 -4.94727 0
M  V30 2027 H 196.609 -1.21914 -2.73454 0
M  V30 2028 H 194.155 -0.587675 -1.31462 0
M  V30 2029 H 196.108 0.769434 -4.14316 0
M  V30 2030 H 194.832 1.27371 -3.0074 0
M  V30 2031 H 193.491 -0.779911 -3.58208 0
M  V30 2032 H 193.139 1.34951 -4.84559 0
M  V30 2033 H 192.839 -0.0727433 -5.87555 0
M  V30 2034 H 194.363 0.843705 -6.04743 0
M  V30 2035 H 195.777 -1.376 -5.56542 0
M  V30 2036 H 194.174 -2.16659 -5.59624 0
M  V30 2037 H 195.244 -2.41518 -4.20473 0
M  V30 2038 N 196.587 1.43421 -0.653314 0
M  V30 2039 C 197.535 2.32546 0.0501531 0
M  V30 2040 C 198.529 1.48617 0.812985 0
M  V30 2041 O 199.735 1.64825 0.723375 0
M  V30 2042 H 196.11 0.751185 0.0350032 0
M  V30 2043 H 198.081 2.89602 -0.719261 0
M  V30 2044 C 196.83 3.32925 1.00279 0
M  V30 2045 H 196.153 3.97532 0.425236 0
M  V30 2046 H 197.593 3.9792 1.46409 0
M  V30 2047 C 196.052 2.63532 2.09886 0
M  V30 2048 O 196.582 2.45092 3.18265 0
M  V30 2049 N 194.788 2.22905 1.86445 0
M  V30 2050 H 194.335 2.38103 0.98309 0
M  V30 2051 H 194.293 1.76805 2.59976 0
M  V30 2052 N 198.065 0.39524 1.52563 0
M  V30 2053 C 199.314 -0.186321 2.00838 0
M  V30 2054 C 199.627 -1.47402 1.28577 0
M  V30 2055 O 200.833 -2.13599 1.67593 0
M  V30 2056 C 199.289 -0.382595 3.57861 0
M  V30 2057 C 198.897 0.892202 4.39026 0
M  V30 2058 C 200.641 -0.9202 4.14406 0
M  V30 2059 C 198.548 0.66388 5.87662 0
M  V30 2060 H 197.478 -0.0734041 0.750418 0
M  V30 2061 H 200.129 0.518552 1.76021 0
M  V30 2062 H 198.511 -1.14946 3.7895 0
M  V30 2063 H 199.685 1.66414 4.29701 0
M  V30 2064 H 198 1.35519 3.9373 0
M  V30 2065 H 200.597 -1.10683 5.23119 0
M  V30 2066 H 200.94 -1.89096 3.70875 0
M  V30 2067 H 201.473 -0.212751 3.97231 0
M  V30 2068 H 198.212 1.6058 6.35527 0
M  V30 2069 H 197.732 -0.0690193 5.9976 0
M  V30 2070 H 199.411 0.300699 6.46301 0
M  V30 2071 N 199.544 -1.57102 0.125237 0
M  V30 2072 C 200.791 -1.95407 -0.531248 0
M  V30 2073 C 201.119 -1.0089 -1.66287 0
M  V30 2074 O 200.374 -0.0339431 -1.95671 0
M  V30 2075 C 200.673 -3.40096 -1.09862 0
M  V30 2076 C 200.339 -4.50815 -0.0876989 0
M  V30 2077 C 199.001 -4.80824 0.19026 0
M  V30 2078 C 201.353 -5.17724 0.600902 0
M  V30 2079 C 198.681 -5.75058 1.163 0
M  V30 2080 C 201.033 -6.13005 1.56231 0
M  V30 2081 C 199.697 -6.41403 1.8482 0
M  V30 2082 H 198.967 -0.715046 -0.194397 0
M  V30 2083 H 201.614 -1.90373 0.207463 0
M  V30 2084 H 199.919 -3.41855 -1.91422 0
M  V30 2085 H 201.616 -3.6705 -1.61478 0
M  V30 2086 H 198.206 -4.27444 -0.314528 0
M  V30 2087 H 202.39 -4.94691 0.399333 0
M  V30 2088 H 197.646 -5.95362 1.39117 0
M  V30 2089 H 201.82 -6.63934 2.10153 0
M  V30 2090 H 199.447 -7.14229 2.60349 0
M  V30 2091 N 201.022 0.148545 -1.56898 0
M  V30 2092 C 201.985 1.16736 -1.97244 0
M  V30 2093 C 202.985 1.35947 -0.858777 0
M  V30 2094 O 204.175 1.32966 -1.12542 0
M  V30 2095 C 201.307 2.52798 -2.28705 0
M  V30 2096 H 202.5 0.821279 -2.88435 0
M  V30 2097 H 200.053 0.391831 -1.51309 0
M  V30 2098 H 200.788 2.92381 -1.403 0
M  V30 2099 H 200.573 2.40216 -3.09901 0
M  V30 2100 H 202.063 3.26179 -2.60762 0
M  V30 2101 N 202.5 1.5196 0.417844 0
M  V30 2102 C 203.725 1.69717 1.1921 0
M  V30 2103 C 204.15 0.402148 1.83751 0
M  V30 2104 O 203.508 -0.639593 1.69643 0
M  V30 2105 C 203.556 2.82794 2.2374 0
M  V30 2106 O 202.66 2.47756 3.29683 0
M  V30 2107 H 202.001 0.565263 0.348387 0
M  V30 2108 H 204.531 1.98621 0.490985 0
M  V30 2109 H 204.541 3.07452 2.68212 0
M  V30 2110 H 203.216 3.76756 1.76146 0
M  V30 2111 H 201.793 2.33739 2.90552 0
M  V30 2112 N 203.978 -0.674533 1.42435 0
M  V30 2113 C 204.888 -1.81751 1.48337 0
M  V30 2114 C 205.904 -1.69975 0.372099 0
M  V30 2115 O 207.08 -1.91521 0.62304 0
M  V30 2116 C 204.145 -3.17895 1.38361 0
M  V30 2117 C 203.206 -3.41625 2.59982 0
M  V30 2118 C 202.439 -4.71274 2.50473 0
M  V30 2119 O 202.662 -5.49197 1.54075 0
M  V30 2120 O 201.596 -4.96254 3.4061 0
M  V30 2121 H 205.422 -1.79728 2.44809 0
M  V30 2122 H 203.007 -0.830312 1.24202 0
M  V30 2123 H 204.889 -3.99136 1.35161 0
M  V30 2124 H 203.564 -3.20555 0.450144 0
M  V30 2125 H 202.471 -2.60231 2.68757 0
M  V30 2126 H 203.804 -3.43796 3.52229 0
M  V30 2127 N 205.456 -1.28612 -0.910864 0
M  V30 2128 C 206.386 -1.15326 -2.03032 0
M  V30 2129 C 207.367 -0.0502924 -1.70026 0
M  V30 2130 O 208.552 -0.227797 -1.92859 0
M  V30 2131 C 205.682 -0.817343 -3.37545 0
M  V30 2132 C 204.636 -1.8754 -3.84724 0
M  V30 2133 C 203.962 -1.39305 -5.16235 0
M  V30 2134 C 205.262 -3.28244 -4.06267 0
M  V30 2135 H 206.956 -2.08975 -2.14406 0
M  V30 2136 H 204.502 -1.00612 -1.03021 0
M  V30 2137 H 206.455 -0.711151 -4.15356 0
M  V30 2138 H 205.179 0.154846 -3.26233 0
M  V30 2139 H 203.838 -1.97079 -3.09121 0
M  V30 2140 H 203.486 -0.409846 -5.01328 0
M  V30 2141 H 203.186 -2.10057 -5.48771 0
M  V30 2142 H 204.71 -1.30014 -5.96598 0
M  V30 2143 H 206.124 -3.21611 -4.74594 0
M  V30 2144 H 204.521 -3.96855 -4.5014 0
M  V30 2145 H 205.591 -3.72048 -3.10979 0
M  V30 2146 N 206.934 1.1197 -1.10907 0
M  V30 2147 C 208.211 1.79959 -0.766432 0
M  V30 2148 C 208.591 1.97466 0.746363 0
M  V30 2149 O 207.939 1.55491 1.67436 0
M  V30 2150 C 208.149 3.14009 -1.52314 0
M  V30 2151 C 209.497 3.89134 -1.69883 0
M  V30 2152 O 210.521 3.2368 -1.48692 0
M  V30 2153 O 209.38 5.06572 -2.05054 0
M  V30 2154 H 206.474 0.779208 -0.277062 0
M  V30 2155 H 209.02 1.18762 -1.21217 0
M  V30 2156 H 207.792 2.96587 -2.55249 0
M  V30 2157 H 207.415 3.82915 -1.07059 0
M  V30 2158 N 208.412 0.89855 1.29475 0
M  V30 2159 C 209.36 0.365253 2.29714 0
M  V30 2160 C 210.354 -0.534993 1.6073 0
M  V30 2161 O 211.56 -0.417921 1.75081 0
M  V30 2162 H 207.935 0.0994853 0.74539 0
M  V30 2163 H 209.906 1.22406 2.72138 0
M  V30 2164 C 208.655 -0.393159 3.4547 0
M  V30 2165 H 207.978 0.290332 3.98744 0
M  V30 2166 H 209.418 -0.731189 4.17648 0
M  V30 2167 C 207.877 -1.59539 2.9673 0
M  V30 2168 O 208.407 -2.69469 2.97908 0
M  V30 2169 N 206.613 -1.43716 2.52575 0
M  V30 2170 H 206.16 -0.542828 2.51816 0
M  V30 2171 H 206.118 -2.24288 2.20323 0
M  V30 2172 N 209.89 -1.43072 0.660911 0
M  V30 2173 C 211.137 -2.01721 0.177445 0
M  V30 2174 C 211.465 -1.5218 -1.21126 0
M  V30 2175 O 210.72 -0.708659 -1.82419 0
M  V30 2176 C 211.019 -3.57103 0.145563 0
M  V30 2177 C 210.685 -4.26021 1.47705 0
M  V30 2178 C 209.347 -4.44563 1.84165 0
M  V30 2179 C 211.699 -4.64983 2.35458 0
M  V30 2180 C 209.027 -4.99334 3.0803 0
M  V30 2181 C 211.379 -5.21127 3.58622 0
M  V30 2182 C 210.043 -5.37884 3.95268 0
M  V30 2183 H 209.313 -0.73815 0.0649317 0
M  V30 2184 H 211.96 -1.71446 0.853144 0
M  V30 2185 H 210.265 -3.86965 -0.61361 0
M  V30 2186 H 211.962 -4.00248 -0.2455 0
M  V30 2187 H 208.552 -4.11939 1.18339 0
M  V30 2188 H 212.736 -4.50343 2.08579 0
M  V30 2189 H 207.992 -5.10493 3.36462 0
M  V30 2190 H 212.166 -5.50262 4.26831 0
M  V30 2191 H 209.793 -5.80089 4.91325 0
M  V30 2192 N 211.368 -0.403325 -1.52352 0
M  V30 2193 C 212.784 -0.0539281 -1.59509 0
M  V30 2194 C 212.984 1.43307 -1.41652 0
M  V30 2195 O 212.04 2.19924 -1.24056 0
M  V30 2196 C 213.353 -0.543654 -2.95745 0
M  V30 2197 C 214.901 -0.501125 -3.08962 0
M  V30 2198 C 215.376 -0.967267 -4.47669 0
M  V30 2199 N 216.867 -0.923849 -4.53893 0
M  V30 2200 C 217.602 -1.25578 -5.5948 0
M  V30 2201 N 217.098 -1.65889 -6.72646 0
M  V30 2202 N 218.891 -1.17613 -5.49658 0
M  V30 2203 H 211.042 -1.37123 -1.62206 0
M  V30 2204 H 213.305 -0.56294 -0.76276 0
M  V30 2205 H 213.011 -1.58275 -3.14073 0
M  V30 2206 H 212.885 0.0498042 -3.77167 0
M  V30 2207 H 215.272 0.528909 -2.90321 0
M  V30 2208 H 215.353 -1.13056 -2.2946 0
M  V30 2209 H 214.997 -1.9956 -4.67053 0
M  V30 2210 H 214.927 -0.314698 -5.25659 0
M  V30 2211 H 217.418 -0.627403 -3.72655 0
M  V30 2212 H 217.731 -1.89543 -7.49195 0
M  V30 2213 H 216.076 -1.69787 -6.73942 0
M  V30 2214 H 219.267 -0.860115 -4.6013 0
M  V30 2215 H 219.44 -1.43812 -6.3184 0
M  V30 2216 N 212.846 1.57033 -0.133567 0
M  V30 2217 C 213.796 2.12641 0.822671 0
M  V30 2218 C 214.78 1.05081 1.21847 0
M  V30 2219 O 215.972 1.31287 1.18713 0
M  V30 2220 C 213.101 2.74094 2.06706 0
M  V30 2221 C 212.187 3.88757 1.69497 0
M  V30 2222 N 212.578 4.95194 1.03037 0
M  V30 2223 C 210.876 3.99213 1.98859 0
M  V30 2224 C 211.577 5.75414 0.852873 0
M  V30 2225 N 210.553 5.25726 1.3825 0
M  V30 2226 H 214.355 2.92308 0.305537 0
M  V30 2227 H 211.869 1.62256 0.0684276 0
M  V30 2228 H 213.866 3.12285 2.76195 0
M  V30 2229 H 212.526 1.95896 2.5895 0
M  V30 2230 H 213.537 5.13247 0.692669 0
M  V30 2231 H 210.214 3.32075 2.53047 0
M  V30 2232 H 211.604 6.71089 0.330091 0
M  V30 2233 N 214.325 -0.140222 1.56975 0
M  V30 2234 C 215.555 -0.865181 1.87612 0
M  V30 2235 C 215.963 -1.74942 0.72055 0
M  V30 2236 O 215.306 -1.80917 -0.318561 0
M  V30 2237 C 215.368 -1.76782 3.13031 0
M  V30 2238 C 215.032 -1.06005 4.44536 0
M  V30 2239 C 216.029 -0.410768 5.18275 0
M  V30 2240 C 213.714 -1.04754 4.91255 0
M  V30 2241 C 215.708 0.241572 6.36942 0
M  V30 2242 C 213.395 -0.391394 6.09845 0
M  V30 2243 C 214.393 0.252029 6.82535 0
M  V30 2244 O 214.081 0.897757 7.98871 0
M  V30 2245 H 213.813 -0.255188 0.625983 0
M  V30 2246 H 216.367 -0.135653 2.04952 0
M  V30 2247 H 214.597 -2.53846 2.91718 0
M  V30 2248 H 216.286 -2.36533 3.29859 0
M  V30 2249 H 217.052 -0.412195 4.83245 0
M  V30 2250 H 212.931 -1.53777 4.34596 0
M  V30 2251 H 216.475 0.744375 6.93617 0
M  V30 2252 H 212.372 -0.387656 6.44335 0
M  V30 2253 H 213.14 0.800102 8.1458 0
M  V30 2254 N 215.803 -1.52179 -0.40978 0
M  V30 2255 C 217.214 -1.58377 -0.988615 0
M  V30 2256 C 217.565 -0.423879 -1.91566 0
M  V30 2257 O 216.69 0.455844 -2.11544 0
M  V30 2258 C 217.285 -2.87044 -1.79976 0
M  V30 2259 C 215.844 -2.95722 -2.32863 0
M  V30 2260 C 214.991 -2.53309 -1.12828 0
M  V30 2261 H 217.942 -1.57558 -0.190039 0
M  V30 2262 H 217.963 -2.7236 -2.65707 0
M  V30 2263 H 217.475 -3.71444 -1.12478 0
M  V30 2264 H 215.576 -2.15814 -3.03735 0
M  V30 2265 H 215.689 -3.99951 -2.63773 0
M  V30 2266 H 214.053 -2.07142 -1.48204 0
M  V30 2267 H 214.836 -3.40082 -0.46897 0
M  V30 2268 N 217.281 0.66697 -1.42791 0
M  V30 2269 C 218.211 1.79218 -1.49677 0
M  V30 2270 C 219.192 1.66405 -0.352623 0
M  V30 2271 O 220.377 1.85708 -0.567993 0
M  V30 2272 C 217.507 3.17565 -1.40605 0
M  V30 2273 C 216.461 3.45124 -2.53127 0
M  V30 2274 C 215.787 4.83127 -2.29112 0
M  V30 2275 C 217.087 3.41236 -3.95418 0
M  V30 2276 H 218.781 1.73713 -2.43853 0
M  V30 2277 H 216.327 0.83432 -1.17367 0
M  V30 2278 H 218.28 3.96022 -1.44029 0
M  V30 2279 H 217.004 3.23767 -0.429271 0
M  V30 2280 H 215.663 2.69031 -2.49034 0
M  V30 2281 H 215.311 4.85988 -1.29709 0
M  V30 2282 H 215.011 5.02528 -3.04531 0
M  V30 2283 H 216.535 5.63859 -2.34297 0
M  V30 2284 H 217.949 4.09651 -4.01073 0
M  V30 2285 H 216.346 3.72173 -4.70752 0
M  V30 2286 H 217.416 2.39665 -4.21532 0
M  V30 2287 N 218.759 1.29093 0.90403 0
M  V30 2288 C 219.669 1.15727 2.0407 0
M  V30 2289 C 220.685 0.0815308 1.73809 0
M  V30 2290 O 221.861 0.292749 1.99261 0
M  V30 2291 C 218.926 0.830424 3.36608 0
M  V30 2292 C 217.987 1.98955 3.80415 0
M  V30 2293 C 217.22 1.6782 5.06628 0
M  V30 2294 O 217.443 0.597105 5.67266 0
M  V30 2295 O 216.377 2.52486 5.46383 0
M  V30 2296 H 220.203 2.11171 2.18267 0
M  V30 2297 H 217.788 1.08504 1.027 0
M  V30 2298 H 219.67 0.662521 4.16159 0
M  V30 2299 H 218.345 -0.0942678 3.23563 0
M  V30 2300 H 217.252 2.21267 3.01648 0
M  V30 2301 H 218.585 2.89529 3.98037 0
M  V30 2302 N 220.237 -1.11381 1.11499 0
M  V30 2303 C 221.2 -2.15622 0.777153 0
M  V30 2304 C 222.2 -1.59504 -0.203779 0
M  V30 2305 O 223.39 -1.74188 0.020782 0
M  V30 2306 C 220.522 -3.40556 0.153116 0
M  V30 2307 H 221.715 -2.47021 1.70061 0
M  V30 2308 H 219.268 -1.26577 0.916952 0
M  V30 2309 H 220.003 -3.14767 -0.780536 0
M  V30 2310 H 219.788 -3.8257 0.859238 0
M  V30 2311 H 221.278 -4.17546 -0.0671044 0
M  V30 2312 N 221.715 -0.905404 -1.28997 0
M  V30 2313 C 222.992 -0.453513 -1.9027 0
M  V30 2314 C 223.372 1.06721 -1.82137 0
M  V30 2315 O 222.72 1.91159 -1.25182 0
M  V30 2316 C 222.93 -0.974494 -3.35119 0
M  V30 2317 C 224.278 -1.0216 -4.12127 0
M  V30 2318 O 225.302 -0.922557 -3.44046 0
M  V30 2319 O 224.161 -1.17121 -5.33802 0
M  V30 2320 H 221.255 -0.142347 -0.814657 0
M  V30 2321 H 223.801 -0.995642 -1.37423 0
M  V30 2322 H 222.573 -2.01848 -3.35221 0
M  V30 2323 H 222.196 -0.412706 -3.95452 0
M  V30 2324 N 223.193 1.4272 -0.668489 0
M  V30 2325 C 224.141 2.32586 0.0254857 0
M  V30 2326 C 225.135 1.49471 0.797176 0
M  V30 2327 O 226.341 1.65583 0.705853 0
M  V30 2328 H 222.716 0.751514 0.0270339 0
M  V30 2329 H 224.687 2.88823 -0.749936 0
M  V30 2330 C 223.436 3.3397 0.967427 0
M  V30 2331 H 222.759 3.97961 0.383048 0
M  V30 2332 H 224.199 3.9945 1.42181 0
M  V30 2333 C 222.658 2.65744 2.0708 0
M  V30 2334 O 223.188 2.48454 3.15648 0
M  V30 2335 N 221.394 2.2487 1.8407 0
M  V30 2336 H 220.941 2.39132 0.95778 0
M  V30 2337 H 220.899 1.79552 2.58086 0
M  V30 2338 N 224.671 0.411399 1.52136 0
M  V30 2339 C 225.92 -0.165009 2.01024 0
M  V30 2340 C 226.233 -1.4603 1.30133 0
M  V30 2341 O 227.439 -2.1181 1.69849 0
M  V30 2342 C 225.895 -0.344618 3.58246 0
M  V30 2343 C 225.503 0.938716 4.38055 0
M  V30 2344 C 227.247 -0.876195 4.15359 0
M  V30 2345 C 225.154 0.726172 5.86925 0
M  V30 2346 H 224.084 -0.0654407 0.751155 0
M  V30 2347 H 226.735 0.537192 1.75461 0
M  V30 2348 H 225.117 -1.10921 3.80148 0
M  V30 2349 H 226.291 1.70963 4.27912 0
M  V30 2350 H 224.606 1.39688 3.92271 0
M  V30 2351 H 227.203 -1.05128 5.24263 0
M  V30 2352 H 227.546 -1.85152 3.7286 0
M  V30 2353 H 228.079 -0.170607 3.97434 0
M  V30 2354 H 224.818 1.67312 6.33788 0
M  V30 2355 H 224.338 -0.00540283 5.998 0
M  V30 2356 H 226.017 0.369231 6.45946 0
M  V30 2357 N 226.149 -1.5696 0.141893 0
M  V30 2358 C 227.396 -1.9596 -0.510492 0
M  V30 2359 C 227.724 -1.02648 -1.65208 0
M  V30 2360 O 226.979 -0.0546947 -1.95624 0
M  V30 2361 C 227.278 -3.41242 -1.06249 0
M  V30 2362 C 226.944 -4.50882 -0.0398791 0
M  V30 2363 C 225.606 -4.80595 0.241247 0
M  V30 2364 C 227.958 -5.17058 0.65578 0
M  V30 2365 C 225.286 -5.73792 1.22393 0
M  V30 2366 C 227.638 -6.11313 1.62724 0
M  V30 2367 C 226.302 -6.39407 1.91612 0
M  V30 2368 H 225.572 -0.717068 -0.186802 0
M  V30 2369 H 228.219 -1.90142 0.227643 0
M  V30 2370 H 226.524 -3.43866 -1.87785 0
M  V30 2371 H 228.221 -3.68742 -1.57576 0
M  V30 2372 H 224.811 -4.27754 -0.269174 0
M  V30 2373 H 228.995 -4.94239 0.451779 0
M  V30 2374 H 224.251 -5.93853 1.45424 0
M  V30 2375 H 228.425 -6.61668 2.17183 0
M  V30 2376 H 226.052 -7.11427 2.6791 0
M  V30 2377 N 227.627 0.131896 -1.57047 0
M  V30 2378 C 228.59 1.14638 -1.98471 0
M  V30 2379 C 229.59 1.35029 -0.873148 0
M  V30 2380 O 230.78 1.31764 -1.13946 0
M  V30 2381 C 227.912 2.50358 -2.31373 0
M  V30 2382 H 229.105 0.79064 -2.8929 0
M  V30 2383 H 226.658 0.375761 -1.51716 0
M  V30 2384 H 227.393 2.90876 -1.43393 0
M  V30 2385 H 227.178 2.36915 -3.12432 0
M  V30 2386 H 228.668 3.23395 -2.64207 0
M  V30 2387 N 229.106 1.52395 0.401703 0
M  V30 2388 C 230.069 1.75636 1.47257 0
M  V30 2389 C 231.069 0.62628 1.48103 0
M  V30 2390 O 232.259 0.894227 1.49497 0
M  V30 2391 C 229.391 1.84553 2.86624 0
M  V30 2392 H 230.584 2.71241 1.27938 0
M  V30 2393 H 228.137 1.42923 0.632662 0
M  V30 2394 H 228.872 0.908882 3.11303 0
M  V30 2395 H 228.657 2.66715 2.87412 0
M  V30 2396 H 230.147 2.04251 3.64241 0
M  V30 2397 N 230.584 -0.659388 1.43143 0
M  V30 2398 C 231.833 -1.41518 1.43721 0
M  V30 2399 C 232.146 -1.95499 0.0628176 0
M  V30 2400 O 233.352 -2.71446 -0.0539683 0
M  V30 2401 C 231.808 -2.5608 2.52885 0
M  V30 2402 C 231.416 -2.08733 3.96402 0
M  V30 2403 C 233.16 -3.3349 2.62649 0
M  V30 2404 C 231.067 -3.20469 4.97045 0
M  V30 2405 H 229.997 -0.531705 0.534608 0
M  V30 2406 H 232.648 -0.712343 1.69109 0
M  V30 2407 H 231.03 -3.28805 2.20688 0
M  V30 2408 H 232.204 -1.43059 4.3803 0
M  V30 2409 H 230.519 -1.44219 3.90627 0
M  V30 2410 H 233.116 -4.16734 3.35017 0
M  V30 2411 H 233.459 -3.8111 1.67513 0
M  V30 2412 H 233.992 -2.67842 2.94118 0
M  V30 2413 H 230.731 -2.77824 5.93712 0
M  V30 2414 H 230.251 -3.84874 4.60034 0
M  V30 2415 H 231.93 -3.85698 5.19467 0
M  V30 2416 N 232.062 -1.29571 -0.897171 0
M  V30 2417 C 233.025 -1.14913 -1.98312 0
M  V30 2418 C 234.025 -0.0838629 -1.60581 0
M  V30 2419 O 235.215 -0.331006 -1.71026 0
M  V30 2420 C 232.347 -0.757835 -3.3237 0
M  V30 2421 H 233.54 -2.11377 -2.12743 0
M  V30 2422 H 231.093 -1.12793 -1.08201 0
M  V30 2423 H 231.828 0.206837 -3.2364 0
M  V30 2424 H 231.613 -1.52755 -3.61121 0
M  V30 2425 H 233.103 -0.678408 -4.12053 0
M  V30 2426 N 233.54 1.10788 -1.12088 0
M  V30 2427 C 234.503 2.15207 -0.788577 0
M  V30 2428 C 235.503 1.59609 0.195317 0
M  V30 2429 O 236.693 1.74174 -0.0300193 0
M  V30 2430 C 233.825 3.4047 -0.171174 0
M  V30 2431 H 235.018 2.46116 -1.71368 0
M  V30 2432 H 232.571 1.26089 -0.923652 0
M  V30 2433 H 233.306 3.15176 0.763832 0
M  V30 2434 H 233.091 3.82109 -0.879514 0
M  V30 2435 H 234.581 4.17576 0.04496 0
M  V30 2436 N 235.018 0.912232 1.28515 0
M  V30 2437 C 236.246 0.560416 1.99166 0
M  V30 2438 C 236.661 -0.857927 1.68182 0
M  V30 2439 O 236.018 -1.56805 0.933733 0
M  V30 2440 C 236.069 0.758142 3.53461 0
M  V30 2441 O 235.79 2.12067 3.83352 0
M  V30 2442 C 237.291 0.412954 4.41372 0
M  V30 2443 H 234.511 0.213805 0.636026 0
M  V30 2444 H 237.055 1.22502 1.63749 0
M  V30 2445 H 235.21 0.140556 3.87145 0
M  V30 2446 H 235.624 2.15923 4.77993 0
M  V30 2447 H 237.098 0.60208 5.48707 0
M  V30 2448 H 237.575 -0.65073 4.34353 0
M  V30 2449 H 238.181 1.00802 4.13182 0
M  V30 2450 N 236.496 -1.42363 0.676048 0
M  V30 2451 C 237.444 -2.32596 -0.0131507 0
M  V30 2452 C 238.438 -1.49891 -0.789238 0
M  V30 2453 O 239.644 -1.65955 -0.697061 0
M  V30 2454 H 236.019 -0.751647 -0.0230481 0
M  V30 2455 H 237.99 -2.88421 0.765243 0
M  V30 2456 C 236.739 -3.34479 -0.949702 0
M  V30 2457 H 236.062 -3.98158 -0.361938 0
M  V30 2458 H 237.502 -4.00199 -1.4006 0
M  V30 2459 C 235.961 -2.66838 -2.05667 0
M  V30 2460 O 236.491 -2.50124 -3.14326 0
M  V30 2461 N 234.697 -2.25843 -1.82875 0
M  V30 2462 H 234.244 -2.39637 -0.945085 0
M  V30 2463 H 234.202 -1.80918 -2.5713 0
M  V30 2464 N 237.974 -0.419461 -1.51915 0
M  V30 2465 C 239.39 -0.0708431 -1.59443 0
M  V30 2466 C 239.59 1.41796 -1.43164 0
M  V30 2467 O 238.646 2.18596 -1.26381 0
M  V30 2468 C 239.959 -0.574991 -2.95151 0
M  V30 2469 C 241.507 -0.533867 -3.08413 0
M  V30 2470 C 241.982 -1.01469 -4.46618 0
M  V30 2471 N 243.473 -0.971939 -4.52888 0
M  V30 2472 C 244.208 -1.31505 -5.58116 0
M  V30 2473 N 243.704 -1.73014 -6.70849 0
M  V30 2474 N 245.497 -1.23436 -5.48379 0
M  V30 2475 H 237.648 -1.38836 -1.60743 0
M  V30 2476 H 239.911 -0.570998 -0.756747 0
M  V30 2477 H 239.617 -1.61597 -3.12377 0
M  V30 2478 H 239.491 0.00979777 -3.77199 0
M  V30 2479 H 241.878 0.498086 -2.90866 0
M  V30 2480 H 241.959 -1.15484 -2.28248 0
M  V30 2481 H 241.603 -2.04502 -4.6491 0
M  V30 2482 H 241.533 -0.370433 -5.25295 0
M  V30 2483 H 244.024 -0.666893 -3.71969 0
M  V30 2484 H 244.337 -1.97479 -7.47143 0
M  V30 2485 H 242.682 -1.76926 -6.72103 0
M  V30 2486 H 245.873 -0.908869 -4.59192 0
M  V30 2487 H 246.046 -1.50506 -6.30279 0
M  V30 2488 N 239.452 1.56882 -0.150215 0
M  V30 2489 C 240.382 2.19935 0.784284 0
M  V30 2490 C 241.363 1.14854 1.25469 0
M  V30 2491 O 242.548 1.43209 1.31168 0
M  V30 2492 C 239.678 2.82349 2.02229 0
M  V30 2493 C 238.632 3.93285 1.68853 0
M  V30 2494 C 237.958 4.42649 2.99944 0
M  V30 2495 C 239.258 5.13904 0.932714 0
M  V30 2496 H 240.952 2.9828 0.258781 0
M  V30 2497 H 238.498 1.43473 0.123029 0
M  V30 2498 H 240.451 3.25126 2.68088 0
M  V30 2499 H 239.175 2.0134 2.57157 0
M  V30 2500 H 237.834 3.5113 1.05371 0
M  V30 2501 H 237.482 3.58458 3.52869 0
M  V30 2502 H 237.182 5.17476 2.78374 0
M  V30 2503 H 238.706 4.88099 3.66868 0
M  V30 2504 H 240.12 5.53506 1.49345 0
M  V30 2505 H 238.517 5.94515 0.81684 0
M  V30 2506 H 239.587 4.84842 -0.0749568 0
M  V30 2507 N 240.93 -0.123565 1.57115 0
M  V30 2508 C 242.179 -0.830704 1.83799 0
M  V30 2509 C 242.492 -1.81259 0.735158 0
M  V30 2510 O 243.698 -2.56558 0.888278 0
M  V30 2511 C 242.154 -1.52802 3.25852 0
M  V30 2512 C 241.762 -0.587356 4.44133 0
M  V30 2513 C 243.506 -2.22056 3.61789 0
M  V30 2514 C 241.413 -1.28764 5.77212 0
M  V30 2515 H 240.343 -0.313967 0.685522 0
M  V30 2516 H 242.994 -0.0834359 1.8331 0
M  V30 2517 H 241.376 -2.32175 3.20797 0
M  V30 2518 H 242.55 0.172829 4.60476 0
M  V30 2519 H 240.865 -0.00201892 4.164 0
M  V30 2520 H 243.462 -2.75131 4.58483 0
M  V30 2521 H 243.805 -2.99644 2.88997 0
M  V30 2522 H 244.338 -1.49576 3.68608 0
M  V30 2523 H 241.077 -0.55314 6.53162 0
M  V30 2524 H 240.597 -2.01995 5.64764 0
M  V30 2525 H 242.276 -1.8221 6.20813 0
M  V30 2526 N 242.408 -1.52605 -0.393616 0
M  V30 2527 C 243.824 -1.41753 -0.733357 0
M  V30 2528 C 244.024 -0.534293 -1.94287 0
M  V30 2529 O 243.08 -0.0059787 -2.52499 0
M  V30 2530 C 244.393 -2.84531 -0.972772 0
M  V30 2531 C 245.941 -2.93978 -1.07453 0
M  V30 2532 C 246.416 -4.37756 -1.3466 0
M  V30 2533 N 247.907 -4.4106 -1.41492 0
M  V30 2534 C 248.642 -5.49387 -1.642 0
M  V30 2535 N 248.138 -6.67806 -1.8441 0
M  V30 2536 N 249.931 -5.36923 -1.66342 0
M  V30 2537 H 242.082 -2.08555 0.402328 0
M  V30 2538 H 244.345 -0.940654 0.117789 0
M  V30 2539 H 244.051 -3.51353 -0.156204 0
M  V30 2540 H 243.925 -3.26508 -1.88871 0
M  V30 2541 H 246.312 -2.27326 -1.88167 0
M  V30 2542 H 246.393 -2.55435 -0.136605 0
M  V30 2543 H 246.037 -5.04972 -0.544581 0
M  V30 2544 H 245.967 -4.73848 -2.2973 0
M  V30 2545 H 248.458 -3.55705 -1.27601 0
M  V30 2546 H 248.771 -7.46141 -2.01231 0
M  V30 2547 H 247.116 -6.70843 -1.81644 0
M  V30 2548 H 250.307 -4.43381 -1.50102 0
M  V30 2549 H 250.48 -6.21416 -1.837 0
M  V30 2550 N 243.887 0.651787 -1.4349 0
M  V30 2551 C 245.135 1.40888 -1.44897 0
M  V30 2552 C 245.456 1.94856 -0.0749086 0
M  V30 2553 O 244.726 1.74518 0.889956 0
M  V30 2554 H 243.306 0.522887 -0.533478 0
M  V30 2555 H 245.968 0.768609 -1.79104 0
M  V30 2556 H 245.064 2.25052 -2.16236 0
M  V30 2557 N 245.365 1.30045 0.890287 0
M  V30 2558 C 246.328 1.15963 1.977 0
M  V30 2559 C 247.328 0.0923777 1.60534 0
M  V30 2560 O 248.518 0.340071 1.70848 0
M  V30 2561 C 245.65 0.775451 3.31963 0
M  V30 2562 H 246.843 2.12502 2.11619 0
M  V30 2563 H 244.396 1.13366 1.07601 0
M  V30 2564 H 245.131 -0.189671 3.23745 0
M  V30 2565 H 244.916 1.54668 3.60306 0
M  V30 2566 H 246.406 0.700251 4.11687 0
M  V30 2567 N 246.843 -1.10192 1.12674 0
M  V30 2568 C 248.073 -1.85713 0.905213 0
M  V30 2569 C 248.481 -1.81056 -0.549108 0
M  V30 2570 O 247.824 -1.19927 -1.39151 0
M  V30 2571 C 247.886 -3.34972 1.30516 0
M  V30 2572 C 247.55 -3.63385 2.77129 0
M  V30 2573 C 248.547 -3.59772 3.75313 0
M  V30 2574 C 246.232 -3.91981 3.14096 0
M  V30 2575 C 248.226 -3.84354 5.08479 0
M  V30 2576 C 245.913 -4.16218 4.47443 0
M  V30 2577 C 246.911 -4.12395 5.44444 0
M  V30 2578 O 246.599 -4.36014 6.75387 0
M  V30 2579 H 246.331 -0.593719 0.323223 0
M  V30 2580 H 248.885 -1.40198 1.50112 0
M  V30 2581 H 247.115 -3.81156 0.652463 0
M  V30 2582 H 248.804 -3.91886 1.05736 0
M  V30 2583 H 249.57 -3.37716 3.48099 0
M  V30 2584 H 245.449 -3.94085 2.39202 0
M  V30 2585 H 248.993 -3.81285 5.84181 0
M  V30 2586 H 244.89 -4.37754 4.74386 0
M  V30 2587 H 245.658 -4.53516 6.8137 0
M  V30 2588 N 248.321 -0.919034 -1.28029 0
M  V30 2589 C 249.284 -0.416182 -2.2539 0
M  V30 2590 C 250.284 0.460438 -1.54067 0
M  V30 2591 O 251.474 0.262744 -1.72207 0
M  V30 2592 C 248.606 0.402707 -3.38513 0
M  V30 2593 H 249.799 -1.27629 -2.71387 0
M  V30 2594 H 247.352 -0.698919 -1.39803 0
M  V30 2595 H 248.087 1.282 -2.97885 0
M  V30 2596 H 247.872 -0.225698 -3.9145 0
M  V30 2597 H 249.362 0.745191 -4.10897 0
M  V30 2598 N 249.799 1.42003 -0.683588 0
M  V30 2599 C 251.039 2.03282 -0.213513 0
M  V30 2600 C 251.403 1.52924 1.16097 0
M  V30 2601 O 252.604 2.06048 1.7262 0
M  V30 2602 C 250.875 3.56483 -0.255856 0
M  V30 2603 S 252.434 4.3857 0.14193 0
M  V30 2604 H 249.252 0.705659 -0.0869853 0
M  V30 2605 H 251.854 1.73619 -0.8987 0
M  V30 2606 H 250.558 3.90631 -1.25841 0
M  V30 2607 H 250.089 3.90831 0.448875 0
M  V30 2608 H 252.104 4.76828 1.37295 0
M  V30 2609 N 251.277 0.427512 1.51691 0
M  V30 2610 C 252.523 -0.142439 2.02299 0
M  V30 2611 C 252.856 -1.43214 1.31162 0
M  V30 2612 O 252.131 -1.89833 0.423511 0
M  V30 2613 C 252.414 -0.371301 3.58181 0
M  V30 2614 C 252.267 0.936358 4.39946 0
M  V30 2615 C 253.586 -1.14542 4.24933 0
M  V30 2616 H 250.705 -0.0502937 0.735282 0
M  V30 2617 H 253.347 0.564584 1.81418 0
M  V30 2618 H 251.497 -0.973559 3.76104 0
M  V30 2619 H 253.169 1.57184 4.33694 0
M  V30 2620 H 251.412 1.5432 4.05423 0
M  V30 2621 H 252.083 0.730388 5.47147 0
M  V30 2622 H 254.559 -0.635362 4.11221 0
M  V30 2623 H 253.435 -1.27431 5.33903 0
M  V30 2624 H 253.696 -2.17093 3.85127 0
M  V30 2625 N 252.755 -1.56801 0.158532 0
M  V30 2626 C 253.718 -2.16138 -0.762705 0
M  V30 2627 C 254.718 -1.1061 -1.16713 0
M  V30 2628 O 255.908 -1.36191 -1.08617 0
M  V30 2629 C 253.04 -2.73386 -2.03649 0
M  V30 2630 H 254.233 -2.98886 -0.246354 0
M  V30 2631 H 251.786 -1.56035 -0.0909744 0
M  V30 2632 H 252.521 -1.94335 -2.59623 0
M  V30 2633 H 252.306 -3.50601 -1.75559 0
M  V30 2634 H 253.796 -3.19065 -2.6942 0
M  V30 2635 N 254.233 0.115231 -1.57178 0
M  V30 2636 C 255.166 1.17166 -1.95825 0
M  V30 2637 C 256.144 1.39912 -0.828463 0
M  V30 2638 O 257.328 1.54004 -1.08697 0
M  V30 2639 C 254.455 2.52478 -2.25771 0
M  V30 2640 C 253.501 2.46136 -3.48309 0
M  V30 2641 S 254.334 1.89736 -5.0076 0
M  V30 2642 C 255.49 3.26713 -5.33863 0
M  V30 2643 H 255.723 0.842103 -2.85124 0
M  V30 2644 H 253.256 0.322136 -1.51002 0
M  V30 2645 H 255.214 3.30332 -2.43702 0
M  V30 2646 H 253.875 2.82609 -1.37079 0
M  V30 2647 H 253.068 3.45819 -3.66641 0
M  V30 2648 H 252.67 1.76404 -3.29784 0
M  V30 2649 H 254.962 4.22935 -5.29275 0
M  V30 2650 H 255.905 3.13205 -6.35065 0
M  V30 2651 H 256.313 3.25316 -4.61335 0
M  V30 2652 N 255.711 1.52812 0.385517 0
M  V30 2653 C 256.96 1.67249 1.12741 0
M  V30 2654 C 257.273 0.4205 1.91027 0
M  V30 2655 O 258.479 0.445064 2.67827 0
M  V30 2656 C 256.935 2.95583 2.05326 0
M  V30 2657 C 256.543 4.27974 1.32447 0
M  V30 2658 C 258.287 3.19386 2.7963 0
M  V30 2659 C 256.194 5.47412 2.23818 0
M  V30 2660 H 255.124 0.6231 0.424573 0
M  V30 2661 H 257.775 1.79309 0.389924 0
M  V30 2662 H 256.157 2.77277 2.82725 0
M  V30 2663 H 257.331 4.56844 0.602495 0
M  V30 2664 H 255.646 4.10459 0.700885 0
M  V30 2665 H 258.243 4.05801 3.48181 0
M  V30 2666 H 258.586 2.34604 3.43899 0
M  V30 2667 H 259.119 3.38274 2.09322 0
M  V30 2668 H 255.858 6.34612 1.64157 0
M  V30 2669 H 255.378 5.22849 2.93921 0
M  V30 2670 H 257.057 5.81423 2.83824 0
M  V30 2671 N 257.189 -0.644168 1.43834 0
M  V30 2672 C 258.438 -1.39985 1.45214 0
M  V30 2673 C 258.751 -1.95421 0.0835494 0
M  V30 2674 O 259.957 -2.71488 -0.0251748 0
M  V30 2675 C 258.413 -2.53384 2.55587 0
M  V30 2676 C 258.021 -2.04517 3.98594 0
M  V30 2677 C 259.765 -3.30685 2.66172 0
M  V30 2678 C 257.672 -3.1518 5.00416 0
M  V30 2679 H 256.602 -0.526005 0.540218 0
M  V30 2680 H 259.253 -0.694367 1.69855 0
M  V30 2681 H 257.635 -3.26446 2.24163 0
M  V30 2682 H 258.809 -1.38405 4.39523 0
M  V30 2683 H 257.124 -1.40068 3.92135 0
M  V30 2684 H 259.721 -4.13158 3.39418 0
M  V30 2685 H 260.064 -3.79312 1.71546 0
M  V30 2686 H 260.597 -2.64708 2.96942 0
M  V30 2687 H 257.336 -2.71511 5.96625 0
M  V30 2688 H 256.856 -3.79974 4.64091 0
M  V30 2689 H 258.535 -3.80166 5.23529 0
M  V30 2690 N 258.668 -1.30515 -0.883378 0
M  V30 2691 C 259.916 -1.19194 -1.63209 0
M  V30 2692 C 260.237 0.253205 -1.93349 0
M  V30 2693 O 259.507 1.17025 -1.57105 0
M  V30 2694 H 258.087 -0.438148 -0.605009 0
M  V30 2695 H 260.749 -1.63663 -1.05832 0
M  V30 2696 H 259.845 -1.75396 -2.58153 0
M  V30 2697 N 260.146 1.09593 -1.13257 0
M  V30 2698 C 261.096 2.14345 -0.777179 0
M  V30 2699 C 262.08 1.59277 0.227966 0
M  V30 2700 O 263.272 1.76971 0.0321413 0
M  V30 2701 C 260.401 3.42439 -0.242991 0
M  V30 2702 C 259.487 4.04419 -1.27694 0
M  V30 2703 N 259.878 4.40979 -2.47732 0
M  V30 2704 C 258.176 4.31596 -1.12432 0
M  V30 2705 C 258.877 4.89784 -3.13826 0
M  V30 2706 N 257.853 4.87133 -2.41252 0
M  V30 2707 H 261.655 2.40415 -1.69049 0
M  V30 2708 H 259.169 1.26803 -1.01463 0
M  V30 2709 H 261.166 4.16889 0.0298496 0
M  V30 2710 H 259.826 3.17824 0.66467 0
M  V30 2711 H 260.837 4.32396 -2.85051 0
M  V30 2712 H 257.514 4.16595 -0.274684 0
M  V30 2713 H 258.904 5.2755 -4.16102 0
M  V30 2714 N 261.624 0.925811 1.2754 0
M  V30 2715 C 262.872 0.564138 1.94067 0
M  V30 2716 C 263.193 -0.897188 1.73134 0
M  V30 2717 O 262.463 -1.63573 1.07799 0
M  V30 2718 H 261.043 0.205645 0.718136 0
M  V30 2719 H 263.705 1.1778 1.55287 0
M  V30 2720 H 262.801 0.76881 3.02483 0
M  V30 2721 N 263.102 -1.41638 0.69111 0
M  V30 2722 C 264.035 -2.28183 -0.0274913 0
M  V30 2723 C 265.013 -1.41984 -0.792424 0
M  V30 2724 O 266.197 -1.71415 -0.784169 0
M  V30 2725 C 263.324 -3.22135 -1.04628 0
M  V30 2726 C 262.37 -4.24848 -0.375037 0
M  V30 2727 S 263.203 -5.28231 0.879321 0
M  V30 2728 C 264.359 -6.25748 -0.137983 0
M  V30 2729 H 264.592 -2.88782 0.706553 0
M  V30 2730 H 262.125 -1.46709 0.481222 0
M  V30 2731 H 264.083 -3.76797 -1.62894 0
M  V30 2732 H 262.744 -2.6064 -1.75287 0
M  V30 2733 H 261.937 -4.90837 -1.14433 0
M  V30 2734 H 261.539 -3.73758 0.134434 0
M  V30 2735 H 263.831 -6.70188 -0.992659 0
M  V30 2736 H 264.774 -7.06417 0.487867 0
M  V30 2737 H 265.182 -5.62363 -0.490762 0
M  V30 2738 N 264.58 -0.43555 -1.51462 0
M  V30 2739 C 265.826 0.131709 -2.02372 0
M  V30 2740 C 266.159 1.42516 -1.3192 0
M  V30 2741 O 265.434 1.89606 -0.433573 0
M  V30 2742 C 265.717 0.352301 -3.58373 0
M  V30 2743 C 265.57 -0.959676 -4.39443 0
M  V30 2744 C 266.889 1.12286 -4.25535 0
M  V30 2745 H 264.008 0.0463936 -0.735538 0
M  V30 2746 H 266.65 -0.574197 -1.81116 0
M  V30 2747 H 264.8 0.9536 -3.76615 0
M  V30 2748 H 266.472 -1.59482 -4.32855 0
M  V30 2749 H 264.715 -1.56468 -4.04599 0
M  V30 2750 H 265.386 -0.759394 -5.46752 0
M  V30 2751 H 267.862 0.613545 -4.11552 0
M  V30 2752 H 266.738 1.24598 -5.34571 0
M  V30 2753 H 266.999 2.15048 -3.86273 0
M  V30 2754 N 266.058 1.56714 -0.166846 0
M  V30 2755 C 267.021 2.16539 0.751232 0
M  V30 2756 C 268.021 1.11228 1.16125 0
M  V30 2757 O 269.211 1.36765 1.07894 0
M  V30 2758 C 266.343 2.74462 2.02196 0
M  V30 2759 H 267.536 2.99013 0.230499 0
M  V30 2760 H 265.089 1.56081 0.0826982 0
M  V30 2761 H 265.824 1.95709 2.58589 0
M  V30 2762 H 265.609 3.51527 1.73698 0
M  V30 2763 H 267.099 3.20489 2.67725 0
M  V30 2764 N 267.536 -0.106894 1.57237 0
M  V30 2765 C 268.783 -0.812526 1.85484 0
M  V30 2766 C 269.111 -1.79304 0.753687 0
M  V30 2767 O 268.366 -1.94047 -0.253853 0
M  V30 2768 C 268.665 -1.58628 3.20268 0
M  V30 2769 C 268.331 -0.748967 4.44636 0
M  V30 2770 C 266.993 -0.518104 4.78403 0
M  V30 2771 C 269.345 -0.166122 5.20935 0
M  V30 2772 C 266.673 0.305659 5.85903 0
M  V30 2773 C 269.025 0.644899 6.29304 0
M  V30 2774 C 267.689 0.885965 6.61594 0
M  V30 2775 H 266.959 -0.297324 0.678734 0
M  V30 2776 H 269.606 -0.0744332 1.91355 0
M  V30 2777 H 267.911 -2.39562 3.10028 0
M  V30 2778 H 269.608 -2.13643 3.39349 0
M  V30 2779 H 266.198 -0.939006 4.18187 0
M  V30 2780 H 270.382 -0.33167 4.95191 0
M  V30 2781 H 265.638 0.501528 6.0934 0
M  V30 2782 H 269.812 1.10345 6.87602 0
M  V30 2783 H 267.439 1.52609 7.44725 0
M  V30 2784 N 269.014 -1.53014 -0.377408 0
M  V30 2785 C 270.43 -1.42523 -0.718281 0
M  V30 2786 C 270.63 -0.55487 -1.9371 0
M  V30 2787 O 269.686 -0.0327593 -2.52479 0
M  V30 2788 C 270.999 -2.85546 -0.942539 0
M  V30 2789 C 272.547 -2.95101 -1.04329 0
M  V30 2790 C 273.022 -4.3916 -1.3001 0
M  V30 2791 N 274.513 -4.42536 -1.36806 0
M  V30 2792 C 275.248 -5.51097 -1.58364 0
M  V30 2793 N 274.744 -6.69724 -1.77317 0
M  V30 2794 N 276.537 -5.38657 -1.60638 0
M  V30 2795 H 268.688 -2.08116 0.424426 0
M  V30 2796 H 270.951 -0.939352 0.127759 0
M  V30 2797 H 270.657 -3.51499 -0.118929 0
M  V30 2798 H 270.531 -3.28493 -1.85397 0
M  V30 2799 H 272.918 -2.29309 -1.85745 0
M  V30 2800 H 272.999 -2.55566 -0.109505 0
M  V30 2801 H 272.643 -5.05521 -0.490991 0
M  V30 2802 H 272.573 -4.76258 -2.24691 0
M  V30 2803 H 275.064 -3.57039 -1.23821 0
M  V30 2804 H 275.377 -7.48233 -1.93306 0
M  V30 2805 H 273.722 -6.72732 -1.74518 0
M  V30 2806 H 276.913 -4.44948 -1.45391 0
M  V30 2807 H 277.086 -6.2333 -1.77098 0
M  V30 2808 N 270.492 0.636531 -1.44174 0
M  V30 2809 C 271.769 1.39463 -1.37148 0
M  V30 2810 C 272.149 2.11082 -0.027507 0
M  V30 2811 O 271.497 2.05954 0.989716 0
M  V30 2812 C 271.707 2.36552 -2.56601 0
M  V30 2813 C 273.055 3.00048 -3.00427 0
M  V30 2814 O 274.079 2.46878 -2.56767 0
M  V30 2815 O 272.938 3.96488 -3.76111 0
M  V30 2816 H 270.032 0.623903 -0.542839 0
M  V30 2817 H 272.578 0.662039 -1.56253 0
M  V30 2818 H 271.35 1.82692 -3.46034 0
M  V30 2819 H 270.973 3.17236 -2.39681 0
M  V30 2820 N 271.97 1.30982 0.876444 0
M  V30 2821 C 273.381 1.18277 1.44456 0
M  V30 2822 C 273.732 -0.213265 1.95037 0
M  V30 2823 O 272.857 -1.11057 1.85729 0
M  V30 2824 C 273.452 2.1411 2.62569 0
M  V30 2825 C 272.011 2.05358 3.15444 0
M  V30 2826 C 271.158 2.03706 1.88146 0
M  V30 2827 H 274.109 1.43127 0.685584 0
M  V30 2828 H 274.13 1.72692 3.39054 0
M  V30 2829 H 273.642 3.15706 2.25724 0
M  V30 2830 H 271.743 1.06934 3.56926 0
M  V30 2831 H 271.856 2.94156 3.78166 0
M  V30 2832 H 270.22 1.48629 2.06837 0
M  V30 2833 H 271.003 3.07047 1.53547 0
M  V30 2834 N 273.449 -1.08991 1.13837 0
M  V30 2835 C 274.397 -2.17841 0.815347 0
M  V30 2836 C 275.391 -1.68164 -0.204233 0
M  V30 2837 O 276.597 -1.79897 -0.0609304 0
M  V30 2838 H 272.972 -0.710654 0.245915 0
M  V30 2839 H 274.943 -2.42315 1.74143 0
M  V30 2840 C 273.692 -3.46381 0.302614 0
M  V30 2841 H 273.015 -3.84979 1.0785 0
M  V30 2842 H 274.455 -4.23844 0.115074 0
M  V30 2843 C 272.914 -3.22556 -0.972591 0
M  V30 2844 O 273.444 -3.45599 -2.04754 0
M  V30 2845 N 271.65 -2.76134 -0.905455 0
M  V30 2846 H 271.197 -2.57582 -0.0305421 0
M  V30 2847 H 271.155 -2.60571 -1.75926 0
M  V30 2848 N 274.927 -0.932562 -1.27047 0
M  V30 2849 C 276.175 -0.574422 -1.93765 0
M  V30 2850 C 276.496 0.887993 -1.73608 0
M  V30 2851 O 275.766 1.62999 -1.08665 0
M  V30 2852 H 274.346 -0.209451 -0.717035 0
M  V30 2853 H 277.008 -1.18601 -1.5466 0
M  V30 2854 H 276.104 -0.784841 -3.02071 0
M  V30 2855 N 276.405 1.4127 -0.698611 0
M  V30 2856 C 277.654 2.00408 -0.227949 0
M  V30 2857 C 277.967 1.55981 1.18023 0
M  V30 2858 O 279.173 2.07699 1.74852 0
M  V30 2859 C 277.629 3.58129 -0.356636 0
M  V30 2860 C 277.237 4.11536 -1.77037 0
M  V30 2861 C 278.981 4.24466 0.0540969 0
M  V30 2862 C 276.888 5.61701 -1.85055 0
M  V30 2863 H 275.818 0.749586 -0.0814657 0
M  V30 2864 H 278.469 1.61713 -0.867249 0
M  V30 2865 H 276.851 3.94442 0.350965 0
M  V30 2866 H 278.025 3.86636 -2.50698 0
M  V30 2867 H 276.34 3.57736 -2.13105 0
M  V30 2868 H 278.937 5.34698 0.0146723 0
M  V30 2869 H 279.28 4.01687 1.09332 0
M  V30 2870 H 279.813 3.93198 -0.603337 0
M  V30 2871 H 276.552 5.89312 -2.8704 0
M  V30 2872 H 276.072 5.88519 -1.15783 0
M  V30 2873 H 277.751 6.26524 -1.61484 0
M  V30 2874 N 277.883 0.443576 1.51229 0
M  V30 2875 C 279.299 0.0962001 1.5931 0
M  V30 2876 C 279.499 -1.39501 1.45402 0
M  V30 2877 O 278.555 -2.16557 1.29843 0
M  V30 2878 C 279.868 0.621875 2.94199 0
M  V30 2879 C 281.416 0.582865 3.07525 0
M  V30 2880 C 281.891 1.08562 4.44948 0
M  V30 2881 N 283.382 1.04387 4.51284 0
M  V30 2882 C 284.117 1.40368 5.55954 0
M  V30 2883 N 283.613 1.83664 6.68011 0
M  V30 2884 N 285.406 1.32145 5.46346 0
M  V30 2885 H 277.557 1.41376 1.58514 0
M  V30 2886 H 279.82 0.582965 0.747567 0
M  V30 2887 H 279.526 1.66546 3.09767 0
M  V30 2888 H 279.4 0.0502125 3.77167 0
M  V30 2889 H 281.787 -0.451749 2.91622 0
M  V30 2890 H 281.868 1.191 2.26382 0
M  V30 2891 H 281.512 2.11873 4.61598 0
M  V30 2892 H 281.442 0.453956 5.2464 0
M  V30 2893 H 283.933 0.725986 3.70861 0
M  V30 2894 H 284.246 2.0934 7.43906 0
M  V30 2895 H 282.591 1.87596 6.69203 0
M  V30 2896 H 285.782 0.981808 4.57688 0
M  V30 2897 H 285.955 1.60514 6.27805 0
M  V30 2898 N 279.361 -1.56624 0.175154 0
M  V30 2899 C 280.772 -1.83561 -0.340916 0
M  V30 2900 C 281.123 -1.09511 -1.62794 0
M  V30 2901 O 280.248 -0.349389 -2.13561 0
M  V30 2902 C 280.843 -3.32979 -0.625313 0
M  V30 2903 C 279.402 -3.60399 -1.08581 0
M  V30 2904 C 278.549 -2.77024 -0.123722 0
M  V30 2905 H 281.5 -1.53593 0.399344 0
M  V30 2906 H 281.521 -3.50666 -1.47694 0
M  V30 2907 H 281.033 -3.86847 0.311575 0
M  V30 2908 H 279.134 -3.11945 -2.03767 0
M  V30 2909 H 279.247 -4.68711 -0.992317 0
M  V30 2910 H 277.611 -2.46993 -0.621821 0
M  V30 2911 H 278.394 -3.33674 0.807256 0
M  V30 2912 N 280.839 0.0985539 -1.57292 0
M  V30 2913 C 281.769 1.12064 -2.04851 0
M  V30 2914 C 282.75 1.41981 -0.936767 0
M  V30 2915 O 283.935 1.52071 -1.20781 0
M  V30 2916 C 281.065 2.44144 -2.47004 0
M  V30 2917 C 280.019 2.28643 -3.6181 0
M  V30 2918 C 279.345 3.65869 -3.89929 0
M  V30 2919 C 280.645 1.72986 -4.92822 0
M  V30 2920 H 282.339 0.724979 -2.9049 0
M  V30 2921 H 279.885 0.34729 -1.39749 0
M  V30 2922 H 281.838 3.15914 -2.78884 0
M  V30 2923 H 280.562 2.85639 -1.5836 0
M  V30 2924 H 279.221 1.59318 -3.30172 0
M  V30 2925 H 278.869 4.04885 -2.98458 0
M  V30 2926 H 278.569 3.56344 -4.67218 0
M  V30 2927 H 280.093 4.39112 -4.2428 0
M  V30 2928 H 281.507 2.34593 -5.23105 0
M  V30 2929 H 279.904 1.74229 -5.74251 0
M  V30 2930 H 280.974 0.689007 -4.7998 0
M  V30 2931 N 282.317 1.53212 0.369288 0
M  V30 2932 C 283.563 1.69466 1.11397 0
M  V30 2933 C 283.896 0.443257 1.89074 0
M  V30 2934 O 283.171 -0.559386 1.86282 0
M  V30 2935 C 283.454 2.9422 2.07621 0
M  V30 2936 C 283.307 4.29508 1.33577 0
M  V30 2937 C 284.626 3.14565 3.07794 0
M  V30 2938 H 281.745 0.616667 0.403597 0
M  V30 2939 H 284.387 1.85845 0.395179 0
M  V30 2940 H 282.537 2.80387 2.68916 0
M  V30 2941 H 284.209 4.55147 0.750955 0
M  V30 2942 H 282.452 4.29088 0.637618 0
M  V30 2943 H 283.123 5.12926 2.03989 0
M  V30 2944 H 285.599 3.2756 2.56601 0
M  V30 2945 H 284.475 4.03297 3.72348 0
M  V30 2946 H 284.736 2.29675 3.77759 0
M  V30 2947 N 283.795 -0.628877 1.44509 0
M  V30 2948 C 284.725 -1.75187 1.54376 0
M  V30 2949 C 285.706 -1.65411 0.396618 0
M  V30 2950 O 286.891 -1.84137 0.617031 0
M  V30 2951 C 284.021 -3.13725 1.48976 0
M  V30 2952 C 282.975 -3.38291 2.62189 0
M  V30 2953 C 282.301 -4.76883 2.41841 0
M  V30 2954 C 283.601 -3.30632 4.04326 0
M  V30 2955 H 285.295 -1.67187 2.48373 0
M  V30 2956 H 282.841 -0.802909 1.19538 0
M  V30 2957 H 284.794 -3.92064 1.54478 0
M  V30 2958 H 283.518 -3.22515 0.514961 0
M  V30 2959 H 282.177 -2.62334 2.56079 0
M  V30 2960 H 281.825 -4.82378 1.42548 0
M  V30 2961 H 281.525 -4.94278 3.17747 0
M  V30 2962 H 283.049 -5.57449 2.49165 0
M  V30 2963 H 284.463 -3.98873 4.11793 0
M  V30 2964 H 282.86 -3.59561 4.80454 0
M  V30 2965 H 283.93 -2.28404 4.27738 0
M  V30 2966 N 285.273 -1.31445 -0.869486 0
M  V30 2967 C 286.521 -1.20918 -1.61936 0
M  V30 2968 C 286.842 0.232683 -1.93607 0
M  V30 2969 O 286.112 1.15352 -1.58338 0
M  V30 2970 H 284.692 -0.44454 -0.600328 0
M  V30 2971 H 287.354 -1.64776 -1.0409 0
M  V30 2972 H 286.45 -1.78124 -2.56278 0
M  V30 2973 N 286.751 1.08385 -1.14413 0
M  V30 2974 C 287.698 2.15311 -0.831265 0
M  V30 2975 C 288.668 1.64751 0.211292 0
M  V30 2976 O 289.853 1.90627 0.0811674 0
M  V30 2977 C 286.993 3.43658 -0.315143 0
M  V30 2978 C 286.106 4.08064 -1.41802 0
M  V30 2979 C 285.241 5.24207 -0.859126 0
M  V30 2980 C 284.28 5.80554 -1.93967 0
M  V30 2981 N 283.417 6.88042 -1.39793 0
M  V30 2982 H 288.257 2.41415 -1.74708 0
M  V30 2983 H 285.794 1.18474 -0.871909 0
M  V30 2984 H 287.752 4.172 0.00230884 0
M  V30 2985 H 286.382 3.17839 0.56378 0
M  V30 2986 H 285.434 3.3228 -1.85187 0
M  V30 2987 H 286.746 4.45962 -2.23427 0
M  V30 2988 H 285.9 6.04689 -0.49359 0
M  V30 2989 H 284.639 4.87699 -0.011932 0
M  V30 2990 H 283.644 4.98725 -2.31415 0
M  V30 2991 H 284.869 6.19121 -2.79046 0
M  V30 2992 H 282.815 6.53493 -0.572919 0
M  V30 2993 H 282.732 7.24767 -2.15054 0
M  V30 2994 H 284 7.72255 -1.0603 0
M  V30 2995 N 288.23 0.939286 1.26551 0
M  V30 2996 C 289.646 0.641304 1.46149 0
M  V30 2997 C 289.846 -0.805964 1.84679 0
M  V30 2998 O 288.902 -1.58278 1.96734 0
M  V30 2999 C 290.215 1.6011 2.54529 0
M  V30 3000 C 291.763 1.6106 2.68382 0
M  V30 3001 C 292.238 2.55765 3.79932 0
M  V30 3002 N 293.729 2.5404 3.87322 0
M  V30 3003 C 294.464 3.24004 4.73085 0
M  V30 3004 N 293.96 4.03388 5.63249 0
M  V30 3005 N 295.753 3.12965 4.66914 0
M  V30 3006 H 287.904 1.87478 0.998285 0
M  V30 3007 H 290.167 0.805559 0.499779 0
M  V30 3008 H 289.873 2.63412 2.33039 0
M  V30 3009 H 289.747 1.35171 3.52149 0
M  V30 3010 H 292.134 0.584835 2.89247 0
M  V30 3011 H 292.215 1.90053 1.71212 0
M  V30 3012 H 291.859 3.58458 3.5982 0
M  V30 3013 H 291.789 2.24063 4.76554 0
M  V30 3014 H 294.28 1.96396 3.22858 0
M  V30 3015 H 294.593 4.5373 6.25579 0
M  V30 3016 H 292.938 4.07489 5.63008 0
M  V30 3017 H 296.129 2.50432 3.95476 0
M  V30 3018 H 296.302 3.67759 5.33533 0
M  V30 3019 N 289.708 -1.40897 0.706093 0
M  V30 3020 C 290.985 -1.94868 0.169099 0
M  V30 3021 C 291.365 -1.64485 -1.32318 0
M  V30 3022 O 290.713 -0.95744 -2.07474 0
M  V30 3023 C 290.923 -3.45798 0.471654 0
M  V30 3024 C 292.271 -4.22663 0.405127 0
M  V30 3025 O 293.295 -3.53865 0.407168 0
M  V30 3026 O 292.154 -5.45216 0.374383 0
M  V30 3027 H 289.248 -0.82673 0.0211352 0
M  V30 3028 H 291.794 -1.50558 0.782976 0
M  V30 3029 H 290.566 -3.61235 1.50416 0
M  V30 3030 H 290.189 -3.97225 -0.172666 0
M  V30 3031 N 291.186 -0.45159 -1.50991 0
M  V30 3032 C 292.435 0.111653 -2.01391 0
M  V30 3033 C 292.748 1.42529 -1.33959 0
M  V30 3034 O 293.954 2.07232 -1.75405 0
M  V30 3035 C 292.41 0.249514 -3.59034 0
M  V30 3036 C 292.018 -1.05453 -4.35412 0
M  V30 3037 C 293.762 0.765762 -4.17536 0
M  V30 3038 C 291.669 -0.881529 -5.84793 0
M  V30 3039 H 290.599 0.0455022 -0.752626 0
M  V30 3040 H 293.25 -0.583524 -1.73975 0
M  V30 3041 H 291.632 1.00803 -3.82955 0
M  V30 3042 H 292.806 -1.82248 -4.23229 0
M  V30 3043 H 291.121 -1.50039 -3.88429 0
M  V30 3044 H 293.718 0.911913 -5.26866 0
M  V30 3045 H 294.061 1.75201 -3.77638 0
M  V30 3046 H 294.594 0.0651744 -3.97747 0
M  V30 3047 H 291.333 -1.84057 -6.29129 0
M  V30 3048 H 290.853 -0.153625 -5.99603 0
M  V30 3049 H 292.532 -0.540363 -6.4474 0
M  V30 3050 N 292.664 1.56529 -0.183458 0
M  V30 3051 C 293.941 1.88959 0.50536 0
M  V30 3052 C 294.321 1.09523 1.80466 0
M  V30 3053 O 293.669 0.19278 2.27685 0
M  V30 3054 C 293.879 3.41162 0.73547 0
M  V30 3055 C 295.227 4.11155 1.06005 0
M  V30 3056 O 296.251 3.46548 0.823594 0
M  V30 3057 O 295.11 5.25318 1.50675 0
M  V30 3058 H 292.204 0.78441 0.261973 0
M  V30 3059 H 294.75 1.68231 -0.222802 0
M  V30 3060 H 293.522 3.90874 -0.182561 0
M  V30 3061 H 293.145 3.67543 1.51651 0
M  V30 3062 N 294.142 -0.090211 1.57342 0
M  V30 3063 C 295.052 -1.12735 2.05738 0
M  V30 3064 C 296.068 -1.43557 0.983231 0
M  V30 3065 O 297.244 -1.54101 1.29672 0
M  V30 3066 C 294.309 -2.42659 2.47624 0
M  V30 3067 C 293.37 -2.18975 3.69254 0
M  V30 3068 C 292.603 -3.42704 4.09133 0
M  V30 3069 O 292.826 -4.51127 3.49057 0
M  V30 3070 O 291.76 -3.32003 5.02053 0
M  V30 3071 H 295.586 -0.746279 2.94388 0
M  V30 3072 H 293.171 -0.303064 1.46294 0
M  V30 3073 H 295.053 -3.19155 2.7517 0
M  V30 3074 H 293.728 -2.80182 1.62109 0
M  V30 3075 H 292.635 -1.40244 3.46818 0
M  V30 3076 H 293.968 -1.86342 4.55563 0
M  V30 3077 N 295.62 -1.53406 -0.361157 0
M  V30 3078 C 296.568 -1.80832 -1.46296 0
M  V30 3079 C 297.562 -0.677699 -1.55253 0
M  V30 3080 O 298.768 -0.860723 -1.58087 0
M  V30 3081 H 295.143 -0.572627 -0.487445 0
M  V30 3082 H 297.114 -2.73045 -1.20371 0
M  V30 3083 C 295.863 -2.01907 -2.8307 0
M  V30 3084 H 295.186 -2.88349 -2.76938 0
M  V30 3085 H 296.626 -2.25072 -3.59331 0
M  V30 3086 C 295.085 -0.799449 -3.27277 0
M  V30 3087 O 295.615 0.00971761 -4.01699 0
M  V30 3088 N 293.821 -0.621637 -2.83873 0
M  V30 3089 H 293.368 -1.28126 -2.23476 0
M  V30 3090 H 293.326 0.19298 -3.13807 0
M  V30 3091 N 297.098 0.621204 -1.44841 0
M  V30 3092 C 298.514 0.94048 -1.28946 0
M  V30 3093 C 298.714 2.00154 -0.23249 0
M  V30 3094 O 297.77 2.49651 0.378237 0
M  V30 3095 C 299.083 1.39433 -2.66419 0
M  V30 3096 C 300.631 1.50927 -2.74208 0
M  V30 3097 C 301.106 1.99692 -4.12174 0
M  V30 3098 N 302.597 2.06947 -4.144 0
M  V30 3099 C 303.332 2.45871 -5.1801 0
M  V30 3100 N 302.828 2.83862 -6.31977 0
M  V30 3101 N 304.621 2.46092 -5.05366 0
M  V30 3102 H 296.772 -0.0803548 -2.12248 0
M  V30 3103 H 299.035 0.0266913 -0.947624 0
M  V30 3104 H 298.741 0.688925 -3.44887 0
M  V30 3105 H 298.615 2.36347 -2.93973 0
M  V30 3106 H 301.002 2.20561 -1.96053 0
M  V30 3107 H 301.083 0.523627 -2.50383 0
M  V30 3108 H 300.727 1.30649 -4.90809 0
M  V30 3109 H 300.657 2.99146 -4.33381 0
M  V30 3110 H 303.148 1.80232 -3.32152 0
M  V30 3111 H 303.461 3.12405 -7.0684 0
M  V30 3112 H 301.806 2.8159 -6.35399 0
M  V30 3113 H 304.997 2.1581 -4.15384 0
M  V30 3114 H 305.17 2.76102 -5.86235 0
M  V30 3115 N 298.576 1.31904 0.862503 0
M  V30 3116 C 299.804 1.24998 1.64873 0
M  V30 3117 C 300.219 -0.183425 1.87907 0
M  V30 3118 O 299.576 -1.11794 1.44251 0
M  V30 3119 C 299.627 1.99829 3.01248 0
M  V30 3120 O 299.348 3.37575 2.79239 0
M  V30 3121 C 300.849 1.99852 3.95694 0
M  V30 3122 H 298.069 0.431599 0.513773 0
M  V30 3123 H 300.613 1.73901 1.07604 0
M  V30 3124 H 298.768 1.54668 3.55185 0
M  V30 3125 H 299.182 3.75776 3.65914 0
M  V30 3126 H 300.656 2.56709 4.88676 0
M  V30 3127 H 301.133 0.982852 4.28062 0
M  V30 3128 H 301.739 2.44926 3.47694 0
M  V30 3129 N 300.054 -1.07777 1.14986 0
M  V30 3130 C 300.964 -2.18404 0.856546 0
M  V30 3131 C 301.98 -1.73211 -0.165485 0
M  V30 3132 O 303.156 -2.01399 0.00755219 0
M  V30 3133 C 300.221 -3.44977 0.34526 0
M  V30 3134 C 299.282 -4.0476 1.43065 0
M  V30 3135 C 298.515 -5.25291 0.943663 0
M  V30 3136 O 298.738 -5.70004 -0.212426 0
M  V30 3137 O 297.672 -5.76638 1.72547 0
M  V30 3138 H 301.498 -2.45978 1.78125 0
M  V30 3139 H 299.083 -1.17033 0.928631 0
M  V30 3140 H 300.965 -4.21348 0.0663671 0
M  V30 3141 H 299.64 -3.18965 -0.551631 0
M  V30 3142 H 298.547 -3.29949 1.76309 0
M  V30 3143 H 299.88 -4.35035 2.30229 0
M  V30 3144 N 301.532 -0.945985 -1.26051 0
M  V30 3145 C 302.762 -0.612136 -1.97323 0
M  V30 3146 C 303.17 0.818171 -1.70595 0
M  V30 3147 O 302.513 1.55777 -0.973613 0
M  V30 3148 C 302.575 -0.780347 -3.50929 0
M  V30 3149 C 302.239 -2.18619 -4.01317 0
M  V30 3150 C 303.236 -3.16209 -4.12683 0
M  V30 3151 C 300.921 -2.50805 -4.35203 0
M  V30 3152 C 302.915 -4.44085 -4.57238 0
M  V30 3153 C 300.602 -3.78912 -4.79446 0
M  V30 3154 C 301.6 -4.75365 -4.90425 0
M  V30 3155 O 301.288 -6.01191 -5.3369 0
M  V30 3156 H 301.02 -0.229134 -0.635982 0
M  V30 3157 H 303.574 -1.27036 -1.61404 0
M  V30 3158 H 301.804 -0.0649864 -3.86645 0
M  V30 3159 H 303.493 -0.448842 -4.03411 0
M  V30 3160 H 304.259 -2.92668 -3.86744 0
M  V30 3161 H 300.138 -1.76463 -4.2589 0
M  V30 3162 H 303.682 -5.19373 -4.65723 0
M  V30 3163 H 299.579 -4.02265 -5.0483 0
M  V30 3164 H 300.347 -6.04442 -5.51899 0
M  V30 3165 N 303.011 1.40521 -0.713556 0
M  V30 3166 C 303.944 2.28198 -0.00881422 0
M  V30 3167 C 304.922 1.43227 0.769735 0
M  V30 3168 O 306.106 1.72641 0.756799 0
M  V30 3169 C 303.233 3.23758 0.994899 0
M  V30 3170 C 302.279 4.25391 0.3074 0
M  V30 3171 S 303.112 5.26765 -0.963247 0
M  V30 3172 C 304.268 6.25888 0.0384143 0
M  V30 3173 H 304.501 2.87622 -0.752407 0
M  V30 3174 H 302.034 1.45925 -0.504502 0
M  V30 3175 H 303.992 3.79341 1.56879 0
M  V30 3176 H 302.653 2.63396 1.71118 0
M  V30 3177 H 301.846 4.92596 1.0661 0
M  V30 3178 H 301.448 3.73497 -0.193879 0
M  V30 3179 H 303.74 6.71683 0.885912 0
M  V30 3180 H 304.683 7.05552 -0.60019 0
M  V30 3181 H 305.091 5.63072 0.401233 0
M  V30 3182 N 304.489 0.459591 1.5075 0
M  V30 3183 C 305.735 -0.0994966 2.02556 0
M  V30 3184 C 306.068 -1.40399 1.3417 0
M  V30 3185 O 305.343 -1.88892 0.463683 0
M  V30 3186 C 305.626 -0.295242 3.58888 0
M  V30 3187 C 305.479 1.02947 4.37861 0
M  V30 3188 C 306.798 -1.05502 4.27267 0
M  V30 3189 H 303.917 -0.034686 0.736183 0
M  V30 3190 H 306.559 0.602938 1.8018 0
M  V30 3191 H 304.709 -0.893563 3.78084 0
M  V30 3192 H 306.381 1.66348 4.30263 0
M  V30 3193 H 304.624 1.62885 4.02058 0
M  V30 3194 H 305.295 0.846281 5.45474 0
M  V30 3195 H 307.771 -0.547993 4.12476 0
M  V30 3196 H 306.647 -1.16077 5.36486 0
M  V30 3197 H 306.908 -2.08875 3.89645 0
M  V30 3198 N 305.967 -1.56429 0.191757 0
M  V30 3199 C 306.93 -2.17707 -0.716688 0
M  V30 3200 C 307.93 -1.13061 -1.14341 0
M  V30 3201 O 309.12 -1.38464 -1.05704 0
M  V30 3202 C 306.252 -2.77644 -1.97804 0
M  V30 3203 H 307.445 -2.99342 -0.1829 0
M  V30 3204 H 304.998 -1.56193 -0.0578566 0
M  V30 3205 H 305.733 -1.99799 -2.55443 0
M  V30 3206 H 305.518 -3.54246 -1.68083 0
M  V30 3207 H 307.008 -3.24708 -2.62592 0
M  V30 3208 N 307.445 0.0818655 -1.57387 0
M  V30 3209 C 308.67 0.799946 -1.91352 0
M  V30 3210 C 309.095 1.70833 -0.787258 0
M  V30 3211 O 308.453 1.79419 0.26048 0
M  V30 3212 C 308.501 1.57812 -3.24234 0
M  V30 3213 O 307.605 2.68806 -3.12757 0
M  V30 3214 H 306.946 0.21891 -0.626877 0
M  V30 3215 H 309.476 0.0531256 -2.04531 0
M  V30 3216 H 309.486 1.95952 -3.57864 0
M  V30 3217 H 308.161 0.911548 -4.05788 0
M  V30 3218 H 306.738 2.33597 -2.90666 0
M  V30 3219 N 308.923 1.53595 0.353017 0
M  V30 3220 C 309.833 1.83897 1.45667 0
M  V30 3221 C 310.849 0.728334 1.58023 0
M  V30 3222 O 312.025 1.01968 1.73679 0
M  V30 3223 C 309.09 2.03383 2.80778 0
M  V30 3224 C 308.151 3.27262 2.77845 0
M  V30 3225 C 307.384 3.45809 4.06512 0
M  V30 3226 O 307.607 2.68387 5.03314 0
M  V30 3227 O 306.541 4.39207 4.11559 0
M  V30 3228 H 310.367 2.77686 1.2298 0
M  V30 3229 H 307.952 1.39132 0.544308 0
M  V30 3230 H 309.834 2.17698 3.60812 0
M  V30 3231 H 308.509 1.12783 3.03417 0
M  V30 3232 H 307.416 3.18359 1.96465 0
M  V30 3233 H 308.749 4.17824 2.60161 0
M  V30 3234 N 310.401 -0.613514 1.45168 0
M  V30 3235 C 311.626 -1.40437 1.52618 0
M  V30 3236 C 312.051 -1.87438 0.157707 0
M  V30 3237 O 311.409 -1.59791 -0.856537 0
M  V30 3238 C 311.457 -2.58894 2.51011 0
M  V30 3239 O 310.561 -3.59326 2.02382 0
M  V30 3240 H 309.902 -0.419506 0.514695 0
M  V30 3241 H 312.432 -0.747215 1.90467 0
M  V30 3242 H 312.442 -3.06214 2.69624 0
M  V30 3243 H 311.117 -2.24032 3.50403 0
M  V30 3244 H 309.694 -3.18695 1.93618 0
M  V30 3245 N 311.879 -1.3236 -0.855495 0
M  V30 3246 C 313.125 -1.23054 -1.612 0
M  V30 3247 C 313.458 0.207404 -1.93089 0
M  V30 3248 O 312.733 1.14432 -1.57275 0
M  V30 3249 C 313.016 -2.08937 -2.93287 0
M  V30 3250 C 312.869 -3.61105 -2.68185 0
M  V30 3251 C 314.188 -1.94986 -3.94549 0
M  V30 3252 H 311.307 -0.448364 -0.584926 0
M  V30 3253 H 313.949 -1.62297 -0.987917 0
M  V30 3254 H 312.099 -1.75599 -3.46551 0
M  V30 3255 H 313.771 -4.04652 -2.21483 0
M  V30 3256 H 312.014 -3.83813 -2.02164 0
M  V30 3257 H 312.685 -4.16522 -3.62234 0
M  V30 3258 H 315.161 -2.24189 -3.5054 0
M  V30 3259 H 314.037 -2.57356 -4.84829 0
M  V30 3260 H 314.298 -0.917263 -4.3248 0
M  V30 3261 N 313.357 1.07166 -1.15556 0
M  V30 3262 C 314.32 2.12589 -0.856644 0
M  V30 3263 C 315.32 1.6015 0.14444 0
M  V30 3264 O 316.51 1.7399 -0.0854163 0
M  V30 3265 C 313.642 3.39753 -0.279405 0
M  V30 3266 H 314.835 2.40539 -1.79112 0
M  V30 3267 H 312.388 1.23086 -0.963298 0
M  V30 3268 H 313.123 3.17447 0.663174 0
M  V30 3269 H 312.908 3.79117 -1.00063 0
M  V30 3270 H 314.398 4.17507 -0.0879113 0
M  V30 3271 N 314.835 0.952656 1.25548 0
M  V30 3272 C 315.765 0.489287 2.28316 0
M  V30 3273 C 316.746 -0.463359 1.63667 0
M  V30 3274 O 317.931 -0.36274 1.90782 0
M  V30 3275 C 315.061 -0.235603 3.465 0
M  V30 3276 C 314.015 0.631593 4.23314 0
M  V30 3277 C 313.341 -0.223923 5.34231 0
M  V30 3278 C 314.641 1.90871 4.86174 0
M  V30 3279 H 316.335 1.34822 2.67326 0
M  V30 3280 H 313.881 0.649728 1.28509 0
M  V30 3281 H 315.834 -0.570882 4.17515 0
M  V30 3282 H 314.558 -1.12877 3.06474 0
M  V30 3283 H 313.217 0.949929 3.54079 0
M  V30 3284 H 312.865 -1.11678 4.90446 0
M  V30 3285 H 312.565 0.35299 5.86539 0
M  V30 3286 H 314.089 -0.554214 6.0808 0
M  V30 3287 H 315.503 1.63997 5.49343 0
M  V30 3288 H 313.9 2.43112 5.4865 0
M  V30 3289 H 314.97 2.61304 4.08471 0
M  V30 3290 N 316.313 -1.40141 0.720998 0
M  V30 3291 C 317.59 -1.94677 0.189757 0
M  V30 3292 C 317.97 -1.65879 -1.30566 0
M  V30 3293 O 317.318 -0.979391 -2.06447 0
M  V30 3294 C 317.528 -3.45279 0.508304 0
M  V30 3295 C 318.876 -4.22209 0.449934 0
M  V30 3296 O 319.9 -3.53413 0.444677 0
M  V30 3297 O 318.759 -5.44788 0.432189 0
M  V30 3298 H 315.853 -0.826459 0.0299026 0
M  V30 3299 H 318.399 -1.49719 0.7989 0
M  V30 3300 H 317.171 -3.59619 1.54239 0
M  V30 3301 H 316.794 -3.97386 -0.130525 0
M  V30 3302 N 317.792 -0.46758 -1.50504 0
M  V30 3303 C 319.02 0.0864133 -2.06719 0
M  V30 3304 C 319.435 1.33819 -1.33184 0
M  V30 3305 O 318.792 1.78061 -0.400083 0
M  V30 3306 C 318.843 0.378079 -3.59517 0
M  V30 3307 O 318.564 -0.824044 -4.3028 0
M  V30 3308 C 320.065 0.979426 -4.32345 0
M  V30 3309 H 317.285 -0.00551697 -0.670977 0
M  V30 3310 H 319.829 -0.655354 -1.93715 0
M  V30 3311 H 317.984 1.06977 -3.72337 0
M  V30 3312 H 318.398 -0.566518 -5.21432 0
M  V30 3313 H 319.872 1.1333 -5.40241 0
M  V30 3314 H 320.349 1.9686 -3.9261 0
M  V30 3315 H 320.955 0.326216 -4.24047 0
M  V30 3316 N 319.27 1.56325 -0.20005 0
M  V30 3317 C 320.2 2.22318 0.713916 0
M  V30 3318 C 321.181 1.18788 1.21752 0
M  V30 3319 O 322.366 1.47309 1.26545 0
M  V30 3320 C 319.496 2.88639 1.93144 0
M  V30 3321 C 318.45 3.98457 1.56255 0
M  V30 3322 C 317.776 4.51967 2.85709 0
M  V30 3323 C 319.076 5.16612 0.768747 0
M  V30 3324 H 320.77 2.98952 0.163755 0
M  V30 3325 H 318.316 1.43792 0.0773219 0
M  V30 3326 H 320.269 3.33491 2.57608 0
M  V30 3327 H 318.993 2.09419 2.50621 0
M  V30 3328 H 317.652 3.54305 0.941471 0
M  V30 3329 H 317.3 3.69503 3.41287 0
M  V30 3330 H 317 5.26071 2.6177 0
M  V30 3331 H 318.524 4.99523 3.51154 0
M  V30 3332 H 319.938 5.57977 1.3166 0
M  V30 3333 H 318.335 5.96812 0.627286 0
M  V30 3334 H 319.405 4.84358 -0.229168 0
M  V30 3335 N 320.748 -0.0735177 1.57428 0
M  V30 3336 C 321.996 -0.771472 1.86796 0
M  V30 3337 C 322.317 -1.78201 0.791804 0
M  V30 3338 O 321.587 -1.95074 -0.179718 0
M  V30 3339 H 320.167 -0.28791 0.689287 0
M  V30 3340 H 322.829 -0.0500161 1.94836 0
M  V30 3341 H 321.925 -1.28874 2.8425 0
M  V30 3342 N 322.226 -1.5378 -0.344866 0
M  V30 3343 C 323.473 -1.70963 -1.08526 0
M  V30 3344 C 323.801 -0.472126 -1.88683 0
M  V30 3345 O 323.056 0.546116 -1.87926 0
M  V30 3346 C 323.355 -2.92407 -2.05506 0
M  V30 3347 C 323.021 -4.28066 -1.41671 0
M  V30 3348 C 321.683 -4.64951 -1.2399 0
M  V30 3349 C 324.035 -5.12344 -0.956726 0
M  V30 3350 C 321.363 -5.83733 -0.589277 0
M  V30 3351 C 323.715 -6.3179 -0.320015 0
M  V30 3352 C 322.379 -6.67372 -0.130881 0
M  V30 3353 H 321.649 -0.625598 -0.397124 0
M  V30 3354 H 324.296 -1.87995 -0.36469 0
M  V30 3355 H 322.601 -2.69973 -2.8394 0
M  V30 3356 H 324.298 -3.02895 -2.62784 0
M  V30 3357 H 320.888 -3.99034 -1.56429 0
M  V30 3358 H 325.072 -4.8438 -1.08118 0
M  V30 3359 H 320.328 -6.09877 -0.431344 0
M  V30 3360 H 324.502 -6.96386 0.0445072 0
M  V30 3361 H 322.129 -7.59273 0.375318 0
M  V30 3362 N 323.704 0.605807 -1.45491 0
M  V30 3363 C 324.981 1.36522 -1.40075 0
M  V30 3364 C 325.361 2.10976 -0.0722744 0
M  V30 3365 O 324.709 2.08007 0.945808 0
M  V30 3366 C 324.919 2.31056 -2.61561 0
M  V30 3367 C 326.267 2.93608 -3.06724 0
M  V30 3368 O 327.291 2.41376 -2.61946 0
M  V30 3369 O 326.15 3.88421 -3.84437 0
M  V30 3370 H 323.244 0.612248 -0.555951 0
M  V30 3371 H 325.79 0.628747 -1.57623 0
M  V30 3372 H 324.562 1.75311 -3.49831 0
M  V30 3373 H 324.185 3.12081 -2.46356 0
M  V30 3374 N 325.182 1.32811 0.848464 0
M  V30 3375 C 326.429 1.23724 1.60308 0
M  V30 3376 C 326.757 -0.1994 1.93475 0
M  V30 3377 O 326.012 -1.15406 1.5805 0
M  V30 3378 C 326.311 2.04831 2.92881 0
M  V30 3379 C 325.977 3.54125 2.79117 0
M  V30 3380 C 324.639 3.94829 2.7507 0
M  V30 3381 C 326.991 4.49036 2.64606 0
M  V30 3382 C 324.319 5.28675 2.544 0
M  V30 3383 C 326.671 5.83033 2.4547 0
M  V30 3384 C 325.335 6.22931 2.39819 0
M  V30 3385 H 324.605 0.452737 0.586609 0
M  V30 3386 H 327.252 1.64301 0.983743 0
M  V30 3387 H 325.557 1.57001 3.58968 0
M  V30 3388 H 327.254 1.95164 3.50303 0
M  V30 3389 H 323.844 3.21801 2.83094 0
M  V30 3390 H 328.028 4.18505 2.66772 0
M  V30 3391 H 323.284 5.58637 2.48465 0
M  V30 3392 H 327.458 6.56186 2.33222 0
M  V30 3393 H 325.085 7.26584 2.23562 0
M  V30 3394 N 326.66 -1.06551 1.16123 0
M  V30 3395 C 327.59 -2.15935 0.88851 0
M  V30 3396 C 328.571 -1.69306 -0.164135 0
M  V30 3397 O 329.756 -1.94193 -0.0167857 0
M  V30 3398 C 326.886 -3.45149 0.385942 0
M  V30 3399 C 325.84 -4.05271 1.3762 0
M  V30 3400 C 325.166 -5.29664 0.732137 0
M  V30 3401 C 326.466 -4.44355 2.74493 0
M  V30 3402 H 328.16 -2.39006 1.80323 0
M  V30 3403 H 325.706 -1.14866 0.868435 0
M  V30 3404 H 327.659 -4.21004 0.182647 0
M  V30 3405 H 326.383 -3.21689 -0.564274 0
M  V30 3406 H 325.042 -3.3147 1.56599 0
M  V30 3407 H 324.69 -5.02499 -0.224483 0
M  V30 3408 H 324.39 -5.70848 1.39307 0
M  V30 3409 H 325.914 -6.08218 0.538802 0
M  V30 3410 H 327.328 -5.11303 2.59311 0
M  V30 3411 H 325.725 -4.96515 3.37035 0
M  V30 3412 H 326.795 -3.55339 3.29943 0
M  V30 3413 N 328.138 -0.959301 -1.25041 0
M  V30 3414 C 329.554 -0.664474 -1.4511 0
M  V30 3415 C 329.754 0.776481 -1.85938 0
M  V30 3416 O 328.81 1.55128 -1.99227 0
M  V30 3417 C 330.123 -1.64139 -2.5195 0
M  V30 3418 C 331.671 -1.65309 -2.65786 0
M  V30 3419 C 332.146 -2.61777 -3.75815 0
M  V30 3420 N 333.637 -2.60169 -3.83231 0
M  V30 3421 C 334.372 -3.31489 -4.6787 0
M  V30 3422 N 333.868 -4.12298 -5.56761 0
M  V30 3423 N 335.661 -3.20354 -4.61876 0
M  V30 3424 H 327.812 -1.89043 -0.968332 0
M  V30 3425 H 330.075 -0.813408 -0.4869 0
M  V30 3426 H 329.781 -2.67086 -2.28819 0
M  V30 3427 H 329.655 -1.40756 -3.49954 0
M  V30 3428 H 332.042 -0.630778 -2.8828 0
M  V30 3429 H 332.123 -1.92753 -1.68167 0
M  V30 3430 H 331.767 -3.64137 -3.54071 0
M  V30 3431 H 331.697 -2.31616 -4.72929 0
M  V30 3432 H 334.188 -2.01507 -3.19692 0
M  V30 3433 H 334.501 -4.63625 -6.18281 0
M  V30 3434 H 332.846 -4.16395 -5.56454 0
M  V30 3435 H 336.037 -2.56692 -3.91442 0
M  V30 3436 H 336.21 -3.76201 -5.27614 0
M  V30 3437 N 329.616 1.39756 -0.72842 0
M  V30 3438 C 330.893 1.94574 -0.200079 0
M  V30 3439 C 331.273 1.66569 1.29684 0
M  V30 3440 O 330.621 0.990326 2.05924 0
M  V30 3441 C 330.831 3.45004 -0.526608 0
M  V30 3442 C 332.179 4.21965 -0.472318 0
M  V30 3443 O 333.203 3.53173 -0.463413 0
M  V30 3444 O 332.062 5.44552 -0.461075 0
M  V30 3445 H 329.156 0.826289 -0.0342851 0
M  V30 3446 H 331.702 1.49293 -0.806829 0
M  V30 3447 H 330.474 3.58796 -1.56144 0
M  V30 3448 H 330.097 3.97449 0.109449 0
M  V30 3449 N 331.094 0.475555 1.50254 0
M  V30 3450 C 332.34 -0.0780073 2.0265 0
M  V30 3451 C 332.673 -1.38968 1.35652 0
M  V30 3452 O 331.948 -1.8839 0.483691 0
M  V30 3453 C 332.231 -0.257161 3.59181 0
M  V30 3454 C 332.084 1.07585 4.36744 0
M  V30 3455 C 333.403 -1.00965 4.28362 0
M  V30 3456 H 330.522 -0.0268758 0.73651 0
M  V30 3457 H 333.164 0.622015 1.7953 0
M  V30 3458 H 331.314 -0.853412 3.79011 0
M  V30 3459 H 332.986 1.70902 4.28474 0
M  V30 3460 H 331.229 1.6714 4.00308 0
M  V30 3461 H 331.9 0.904088 5.44546 0
M  V30 3462 H 334.376 -0.504214 4.13034 0
M  V30 3463 H 333.252 -1.10381 5.37687 0
M  V30 3464 H 333.513 -2.04731 3.91839 0
M  V30 3465 N 332.573 -1.56217 0.208337 0
M  V30 3466 C 333.536 -2.18455 -0.693557 0
M  V30 3467 C 334.536 -1.14268 -1.13135 0
M  V30 3468 O 335.726 -1.39577 -1.0423 0
M  V30 3469 C 332.858 -2.79727 -1.94848 0
M  V30 3470 H 334.051 -2.99519 -0.15114 0
M  V30 3471 H 331.604 -1.56245 -0.041287 0
M  V30 3472 H 332.339 -2.02497 -2.53309 0
M  V30 3473 H 332.124 -3.56009 -1.64316 0
M  V30 3474 H 333.614 -3.27475 -2.59133 0
M  V30 3475 N 334.051 0.0651679 -1.57465 0
M  V30 3476 C 335.462 0.616213 -1.76238 0
M  V30 3477 C 335.813 1.7756 -0.834689 0
M  V30 3478 O 334.938 2.1639 -0.0204156 0
M  V30 3479 C 335.533 1.12462 -3.1959 0
M  V30 3480 C 334.092 1.62147 -3.39684 0
M  V30 3481 C 333.239 0.543739 -2.71917 0
M  V30 3482 H 336.19 -0.161022 -1.57881 0
M  V30 3483 H 336.211 1.99324 -3.24114 0
M  V30 3484 H 335.723 0.280592 -3.87084 0
M  V30 3485 H 333.824 2.48854 -2.77313 0
M  V30 3486 H 333.937 1.69385 -4.48158 0
M  V30 3487 H 332.301 0.990352 -2.34657 0
M  V30 3488 H 333.084 -0.290216 -3.42071 0
M  V30 3489 N 335.529 1.53961 0.336706 0
M  V30 3490 C 336.777 1.71197 1.07405 0
M  V30 3491 C 337.098 0.481475 1.88962 0
M  V30 3492 O 336.368 -0.504585 1.8929 0
M  V30 3493 H 334.948 0.631185 0.399517 0
M  V30 3494 H 337.61 1.91232 0.376323 0
M  V30 3495 H 336.706 2.58587 1.74755 0
M  V30 3496 N 337.007 -0.598083 1.45811 0
M  V30 3497 C 337.917 -1.73632 1.57763 0
M  V30 3498 C 338.933 -1.67763 0.461676 0
M  V30 3499 O 340.109 -1.87949 0.723685 0
M  V30 3500 C 337.174 -3.10114 1.55018 0
M  V30 3501 C 336.235 -3.27364 2.77726 0
M  V30 3502 C 335.468 -4.57334 2.75102 0
M  V30 3503 O 335.691 -5.40258 1.8297 0
M  V30 3504 O 334.625 -4.77502 3.66437 0
M  V30 3505 H 338.451 -1.66498 2.53992 0
M  V30 3506 H 336.036 -0.763308 1.28429 0
M  V30 3507 H 337.918 -3.9141 1.56129 0
M  V30 3508 H 336.593 -3.17718 0.619431 0
M  V30 3509 H 335.5 -2.45619 2.82174 0
M  V30 3510 H 336.833 -3.24641 3.69958 0
M  V30 3511 N 338.485 -1.33259 -0.841409 0
M  V30 3512 C 339.448 -1.23221 -1.9326 0
M  V30 3513 C 340.448 -0.151895 -1.60081 0
M  V30 3514 O 341.638 -0.403246 -1.69468 0
M  V30 3515 C 338.77 -0.898123 -3.28856 0
M  V30 3516 H 339.963 -2.2021 -2.03587 0
M  V30 3517 H 337.516 -1.17281 -1.03319 0
M  V30 3518 H 338.251 0.0693841 -3.24226 0
M  V30 3519 H 338.036 -1.67934 -3.54317 0
M  V30 3520 H 339.526 -0.852563 -4.08805 0
M  V30 3521 N 339.963 1.05934 -1.16686 0
M  V30 3522 C 341.212 1.78188 -0.945085 0
M  V30 3523 C 341.525 1.88338 0.528021 0
M  V30 3524 O 342.731 2.57258 0.867799 0
M  V30 3525 C 341.187 3.20277 -1.64167 0
M  V30 3526 C 340.795 3.18281 -3.15279 0
M  V30 3527 C 342.539 3.97039 -1.502 0
M  V30 3528 C 340.446 4.55112 -3.7766 0
M  V30 3529 H 339.376 0.667866 -0.349959 0
M  V30 3530 H 342.027 1.18794 -1.39858 0
M  V30 3531 H 340.409 3.79952 -1.11589 0
M  V30 3532 H 341.583 2.68167 -3.74731 0
M  V30 3533 H 339.898 2.55018 -3.29173 0
M  V30 3534 H 342.495 4.98194 -1.94183 0
M  V30 3535 H 342.838 4.13845 -0.451461 0
M  V30 3536 H 343.371 3.43894 -1.99954 0
M  V30 3537 H 340.11 4.43512 -4.82677 0
M  V30 3538 H 339.63 5.05406 -3.22994 0
M  V30 3539 H 341.309 5.24064 -3.79428 0
M  V30 3540 N 341.441 0.965919 1.2453 0
M  V30 3541 C 342.671 0.643451 1.96324 0
M  V30 3542 C 343.079 -0.790927 1.71875 0
M  V30 3543 O 342.422 -1.54208 0.998273 0
M  V30 3544 C 342.484 0.836078 3.49643 0
M  V30 3545 C 342.148 2.24975 3.97788 0
M  V30 3546 C 343.145 3.22735 4.07601 0
M  V30 3547 C 340.83 2.57697 4.31158 0
M  V30 3548 C 342.824 4.51303 4.50116 0
M  V30 3549 C 340.511 3.86492 4.73357 0
M  V30 3550 C 341.509 4.83107 4.828 0
M  V30 3551 O 341.197 6.09605 5.24058 0
M  V30 3552 H 340.929 0.239223 0.632257 0
M  V30 3553 H 343.483 1.29587 1.59362 0
M  V30 3554 H 341.713 0.12649 3.86493 0
M  V30 3555 H 343.402 0.512965 4.02646 0
M  V30 3556 H 344.168 2.98783 3.82039 0
M  V30 3557 H 340.047 1.83216 4.23028 0
M  V30 3558 H 343.591 5.26716 4.57401 0
M  V30 3559 H 339.488 4.10245 4.98366 0
M  V30 3560 H 340.256 6.13146 5.42213 0
M  V30 3561 N 342.919 -1.39368 0.735821 0
M  V30 3562 C 344.168 -1.99733 0.281004 0
M  V30 3563 C 344.481 -1.59055 -1.13846 0
M  V30 3564 O 345.687 -2.12262 -1.69284 0
M  V30 3565 C 344.143 -3.57057 0.451462 0
M  V30 3566 C 343.751 -4.06697 1.87886 0
M  V30 3567 C 345.495 -4.2446 0.0584616 0
M  V30 3568 C 343.402 -5.56598 1.99883 0
M  V30 3569 H 342.332 -0.747163 0.101311 0
M  V30 3570 H 344.983 -1.59357 0.909819 0
M  V30 3571 H 343.365 -3.95234 -0.246263 0
M  V30 3572 H 344.539 -3.79853 2.60861 0
M  V30 3573 H 342.854 -3.5196 2.22515 0
M  V30 3574 H 345.451 -5.34549 0.127099 0
M  V30 3575 H 345.794 -4.04444 -0.986433 0
M  V30 3576 H 346.327 -3.9146 0.707374 0
M  V30 3577 H 343.066 -5.81494 3.02564 0
M  V30 3578 H 342.586 -5.85242 1.31346 0
M  V30 3579 H 344.265 -6.22022 1.78039 0
M  V30 3580 N 344.397 -0.483516 -1.5 0
M  V30 3581 C 345.625 0.0644831 -2.06799 0
M  V30 3582 C 346.04 1.32399 -1.34596 0
M  V30 3583 O 345.397 1.77626 -0.418946 0
M  V30 3584 C 345.448 0.339927 -3.59898 0
M  V30 3585 O 345.169 -0.869635 -4.29382 0
M  V30 3586 C 346.67 0.933515 -4.33359 0
M  V30 3587 H 343.89 -0.0126333 -0.670881 0
M  V30 3588 H 346.434 -0.675864 -1.93009 0
M  V30 3589 H 344.589 1.03022 -3.7345 0
M  V30 3590 H 345.003 -0.62179 -5.20801 0
M  V30 3591 H 346.477 1.07593 -5.41413 0
M  V30 3592 H 346.954 1.92685 -3.94676 0
M  V30 3593 H 347.56 0.281221 -4.24369 0
M  V30 3594 N 345.875 1.56104 -0.216619 0
M  V30 3595 C 346.785 2.23694 0.706982 0
M  V30 3596 C 347.801 1.24295 1.21765 0
M  V30 3597 O 348.977 1.57094 1.2603 0
M  V30 3598 C 346.042 2.8998 1.90033 0
M  V30 3599 C 345.103 4.04708 1.43213 0
M  V30 3600 C 344.336 4.67824 2.56859 0
M  V30 3601 O 344.559 4.29913 3.74874 0
M  V30 3602 O 343.493 5.56905 2.28343 0
M  V30 3603 H 347.319 3.03272 0.161235 0
M  V30 3604 H 344.904 1.49394 0.0136177 0
M  V30 3605 H 346.786 3.31837 2.59735 0
M  V30 3606 H 345.461 2.13365 2.43428 0
M  V30 3607 H 344.368 3.6743 0.70327 0
M  V30 3608 H 345.701 4.83051 0.944615 0
M  V30 3609 N 347.353 -0.0568162 1.57498 0
M  V30 3610 C 348.263 -1.08346 2.08083 0
M  V30 3611 C 349.279 -1.41439 1.01346 0
M  V30 3612 O 350.455 -1.51316 1.32912 0
M  V30 3613 C 347.52 -2.37352 2.52715 0
M  V30 3614 C 346.581 -2.11093 3.73816 0
M  V30 3615 C 345.814 -3.33949 4.1631 0
M  V30 3616 O 346.037 -4.43622 3.58547 0
M  V30 3617 O 344.971 -3.21279 5.08983 0
M  V30 3618 H 348.797 -0.683667 2.95905 0
M  V30 3619 H 346.382 -0.271965 1.46904 0
M  V30 3620 H 348.264 -3.13246 2.81877 0
M  V30 3621 H 346.939 -2.76681 1.68016 0
M  V30 3622 H 345.846 -1.32856 3.49714 0
M  V30 3623 H 347.179 -1.76637 4.59413 0
M  V30 3624 N 348.832 -1.54138 -0.328536 0
M  V30 3625 C 350.08 -1.71765 -1.06496 0
M  V30 3626 C 350.401 -0.49149 -1.88704 0
M  V30 3627 O 349.671 0.494539 -1.89555 0
M  V30 3628 H 348.251 -0.633295 -0.396164 0
M  V30 3629 H 350.913 -1.91429 -0.366176 0
M  V30 3630 H 350.009 -2.5951 -1.73381 0
M  V30 3631 N 350.31 0.590341 -1.46126 0
M  V30 3632 C 351.242 1.71427 -1.52136 0
M  V30 3633 C 352.255 1.57542 -0.41042 0
M  V30 3634 O 353.444 1.65106 -0.678389 0
M  V30 3635 C 350.544 3.09605 -1.37834 0
M  V30 3636 C 349.717 3.49566 -2.62912 0
M  V30 3637 C 348.776 4.66773 -2.42918 0
M  V30 3638 O 347.802 4.73019 -3.1661 0
M  V30 3639 N 349.004 5.61161 -1.4859 0
M  V30 3640 H 351.769 1.66728 -2.49042 0
M  V30 3641 H 349.33 0.776113 -1.42085 0
M  V30 3642 H 351.322 3.85796 -1.22243 0
M  V30 3643 H 349.892 3.08714 -0.491393 0
M  V30 3644 H 349.112 2.63158 -2.93499 0
M  V30 3645 H 350.4 3.73028 -3.46017 0
M  V30 3646 H 349.798 5.58844 -0.87808 0
M  V30 3647 H 348.355 6.36814 -1.38965 0
M  V30 3648 N 351.788 1.33704 0.83433 0
M  V30 3649 C 352.718 1.26967 1.95963 0
M  V30 3650 C 353.699 0.149337 1.69443 0
M  V30 3651 O 354.884 0.339852 1.91203 0
M  V30 3652 C 352.014 1.01275 3.32206 0
M  V30 3653 C 350.968 2.09652 3.73136 0
M  V30 3654 C 350.294 1.69166 5.07235 0
M  V30 3655 C 351.594 3.51372 3.86439 0
M  V30 3656 H 353.288 2.2112 2.01857 0
M  V30 3657 H 350.834 1.06447 0.969793 0
M  V30 3658 H 352.787 0.952106 4.10503 0
M  V30 3659 H 351.511 0.0356203 3.26581 0
M  V30 3660 H 350.17 2.14766 2.97104 0
M  V30 3661 H 349.818 0.701437 4.98085 0
M  V30 3662 H 349.518 2.41694 5.35591 0
M  V30 3663 H 351.042 1.64576 5.88003 0
M  V30 3664 H 352.456 3.48734 4.55036 0
M  V30 3665 H 350.853 4.22425 4.26236 0
M  V30 3666 H 351.923 3.89546 2.88759 0
M  V30 3667 N 353.266 -1.05314 1.17247 0
M  V30 3668 C 354.513 -1.78293 0.960091 0
M  V30 3669 C 354.841 -1.87658 -0.51136 0
M  V30 3670 O 354.096 -1.3718 -1.39571 0
M  V30 3671 C 354.395 -3.2229 1.54479 0
M  V30 3672 C 354.061 -3.32987 3.04024 0
M  V30 3673 C 352.723 -3.35613 3.44844 0
M  V30 3674 C 355.075 -3.34102 4.00031 0
M  V30 3675 C 352.403 -3.36982 4.8027 0
M  V30 3676 C 354.755 -3.3701 5.35357 0
M  V30 3677 C 353.419 -3.37923 5.75642 0
M  V30 3678 H 352.689 -0.652422 0.351322 0
M  V30 3679 H 355.336 -1.23782 1.46117 0
M  V30 3680 H 353.641 -3.7972 0.965391 0
M  V30 3681 H 355.338 -3.77376 1.35603 0
M  V30 3682 H 351.928 -3.31655 2.71483 0
M  V30 3683 H 356.112 -3.31276 3.69554 0
M  V30 3684 H 351.368 -3.35999 5.10798 0
M  V30 3685 H 355.542 -3.36822 6.09528 0
M  V30 3686 H 353.169 -3.38738 6.80559 0
M  V30 3687 N 354.744 -0.972509 -1.24016 0
M  V30 3688 C 355.972 -0.654803 -1.96265 0
M  V30 3689 C 356.387 0.776708 -1.72083 0
M  V30 3690 O 355.744 1.52171 -1.00748 0
M  V30 3691 C 355.795 -0.92592 -3.49441 0
M  V30 3692 O 355.516 -2.30116 -3.72798 0
M  V30 3693 C 357.017 -0.623068 -4.38899 0
M  V30 3694 H 354.237 -0.243907 -0.6251 0
M  V30 3695 H 356.781 -1.30175 -1.57717 0
M  V30 3696 H 354.936 -0.325108 -3.86033 0
M  V30 3697 H 355.35 -2.38483 -4.67147 0
M  V30 3698 H 356.824 -0.863189 -5.45209 0
M  V30 3699 H 357.301 0.442754 -4.36963 0
M  V30 3700 H 357.907 -1.204 -4.07902 0
M  V30 3701 N 356.222 1.38976 -0.743202 0
M  V30 3702 C 357.638 1.53984 -0.419664 0
M  V30 3703 C 357.838 1.70837 1.0685 0
M  V30 3704 O 356.894 1.7135 1.8546 0
M  V30 3705 C 358.207 2.75287 -1.20985 0
M  V30 3706 C 359.755 2.89129 -1.19889 0
M  V30 3707 C 360.23 4.13381 -1.97181 0
M  V30 3708 N 361.721 4.20437 -1.94389 0
M  V30 3709 C 362.456 5.15547 -2.50996 0
M  V30 3710 N 361.952 6.16395 -3.16274 0
M  V30 3711 N 363.745 5.07822 -2.40984 0
M  V30 3712 H 355.896 1.26285 -1.7078 0
M  V30 3713 H 358.159 0.612689 -0.723406 0
M  V30 3714 H 357.865 2.69204 -2.26323 0
M  V30 3715 H 357.739 3.68184 -0.819759 0
M  V30 3716 H 360.126 2.947 -0.153606 0
M  V30 3717 H 360.207 1.97272 -1.62841 0
M  V30 3718 H 359.851 4.08572 -3.01714 0
M  V30 3719 H 359.781 5.04298 -1.51629 0
M  V30 3720 H 362.272 3.48205 -1.46839 0
M  V30 3721 H 362.585 6.85443 -3.56915 0
M  V30 3722 H 360.93 6.16758 -3.20367 0
M  V30 3723 H 364.121 4.27973 -1.89622 0
M  V30 3724 H 364.294 5.81767 -2.85397 0
M  V30 3725 N 357.7 0.491464 1.49741 0
M  V30 3726 C 358.632 -0.328609 2.26832 0
M  V30 3727 C 359.645 -0.939113 1.32983 0
M  V30 3728 O 360.834 -0.824067 1.58339 0
M  V30 3729 C 357.934 -1.47675 3.05033 0
M  V30 3730 C 357.107 -0.975305 4.26388 0
M  V30 3731 C 356.166 -1.99991 4.86714 0
M  V30 3732 O 355.192 -1.57229 5.47054 0
M  V30 3733 N 356.394 -3.32962 4.75517 0
M  V30 3734 H 359.159 0.332377 2.97851 0
M  V30 3735 H 356.72 0.323441 1.58636 0
M  V30 3736 H 358.712 -2.15954 3.42266 0
M  V30 3737 H 357.282 -2.04206 2.36683 0
M  V30 3738 H 356.502 -0.117723 3.94024 0
M  V30 3739 H 357.79 -0.618531 5.05026 0
M  V30 3740 H 357.188 -3.70399 4.27576 0
M  V30 3741 H 355.745 -3.96982 5.16961 0
M  V30 3742 N 359.178 -1.55987 0.224894 0
M  V30 3743 C 360.418 -2.00293 -0.407706 0
M  V30 3744 C 360.782 -1.1093 -1.56711 0
M  V30 3745 O 361.983 -1.44597 -2.26595 0
M  V30 3746 C 360.254 -3.47675 -0.82805 0
M  V30 3747 S 361.813 -4.14 -1.45429 0
M  V30 3748 H 358.631 -0.699152 -0.129256 0
M  V30 3749 H 361.233 -1.92609 0.334967 0
M  V30 3750 H 359.937 -4.10392 0.0253964 0
M  V30 3751 H 359.468 -3.59239 -1.60345 0
M  V30 3752 H 361.483 -4.13465 -2.74337 0
M  V30 3753 N 360.656 0.0484629 -1.57525 0
M  V30 3754 C 361.619 1.03956 -2.04269 0
M  V30 3755 C 362.619 1.30211 -0.943496 0
M  V30 3756 O 363.809 1.25539 -1.20771 0
M  V30 3757 C 360.941 2.37742 -2.44319 0
M  V30 3758 H 362.134 0.636182 -2.93075 0
M  V30 3759 H 359.687 0.294811 -1.53494 0
M  V30 3760 H 360.422 2.82866 -1.5861 0
M  V30 3761 H 360.207 2.20021 -3.24551 0
M  V30 3762 H 361.697 3.08936 -2.80978 0
M  V30 3763 N 362.134 1.5431 0.320358 0
M  V30 3764 C 363.411 1.63322 1.07635 0
M  V30 3765 C 363.791 0.46912 2.05821 0
M  V30 3766 O 363.139 -0.536274 2.22118 0
M  V30 3767 C 363.349 3.00465 1.77544 0
M  V30 3768 C 364.697 3.56621 2.30449 0
M  V30 3769 O 365.721 3.02791 1.87606 0
M  V30 3770 O 364.58 4.5083 3.08892 0
M  V30 3771 H 361.674 0.661502 0.496331 0
M  V30 3772 H 364.22 1.66656 0.319992 0
M  V30 3773 H 362.992 3.76629 1.06143 0
M  V30 3774 H 362.615 3.00824 2.59982 0
M  V30 3775 N 363.613 -0.582584 1.46437 0
M  V30 3776 C 364.561 -1.71272 1.5738 0
M  V30 3777 C 365.555 -1.63524 0.44229 0
M  V30 3778 O 366.761 -1.69016 0.619166 0
M  V30 3779 H 363.136 -0.566273 0.494813 0
M  V30 3780 H 365.107 -1.59174 2.52401 0
M  V30 3781 C 363.856 -3.09658 1.58136 0
M  V30 3782 H 363.179 -3.16291 2.44541 0
M  V30 3783 H 364.619 -3.88494 1.69847 0
M  V30 3784 C 363.078 -3.3547 0.310026 0
M  V30 3785 O 363.608 -3.97199 -0.599683 0
M  V30 3786 N 361.814 -2.89925 0.197901 0
M  V30 3787 H 361.361 -2.39873 0.93909 0
M  V30 3788 H 361.319 -3.07568 -0.65185 0
M  V30 3789 N 365.091 -1.34144 -0.827227 0
M  V30 3790 C 366.502 -1.23557 -1.39966 0
M  V30 3791 C 366.853 0.140731 -1.95695 0
M  V30 3792 O 365.978 1.04087 -1.89723 0
M  V30 3793 C 366.573 -2.23708 -2.54441 0
M  V30 3794 C 365.132 -2.16924 -3.07605 0
M  V30 3795 C 364.279 -2.10549 -1.80456 0
M  V30 3796 H 367.23 -1.45573 -0.631991 0
M  V30 3797 H 367.251 -1.85157 -3.32411 0
M  V30 3798 H 366.763 -3.23866 -2.13851 0
M  V30 3799 H 364.864 -1.20107 -3.52711 0
M  V30 3800 H 364.977 -3.07988 -3.66988 0
M  V30 3801 H 363.341 -1.56203 -2.01178 0
M  V30 3802 H 364.124 -3.12535 -1.42046 0
M  V30 3803 N 366.569 1.04691 -1.17803 0
M  V30 3804 C 367.815 1.78045 -0.970969 0
M  V30 3805 C 368.148 1.87686 0.498751 0
M  V30 3806 O 367.423 1.38035 1.37027 0
M  V30 3807 C 367.706 3.2166 -1.61884 0
M  V30 3808 C 367.559 3.20001 -3.161 0
M  V30 3809 C 368.878 4.1962 -1.3269 0
M  V30 3810 H 365.997 0.64633 -0.354155 0
M  V30 3811 H 368.639 1.22333 -1.45378 0
M  V30 3812 H 366.789 3.69232 -1.20831 0
M  V30 3813 H 368.461 2.80467 -3.66246 0
M  V30 3814 H 366.704 2.58203 -3.48588 0
M  V30 3815 H 367.375 4.21386 -3.56564 0
M  V30 3816 H 369.851 3.80567 -1.68249 0
M  V30 3817 H 368.727 5.18339 -1.80599 0
M  V30 3818 H 368.988 4.414 -0.248622 0
M  V30 3819 N 368.047 0.979072 1.23499 0
M  V30 3820 C 369.272 0.664845 1.96455 0
M  V30 3821 C 369.697 -0.761287 1.72006 0
M  V30 3822 O 369.055 -1.51837 0.990713 0
M  V30 3823 C 369.103 0.959479 3.47601 0
M  V30 3824 O 368.207 0.0508168 4.12369 0
M  V30 3825 H 367.548 0.250185 0.615064 0
M  V30 3826 H 370.078 1.31231 1.5697 0
M  V30 3827 H 370.088 0.895642 3.98048 0
M  V30 3828 H 368.763 1.99876 3.64723 0
M  V30 3829 H 367.34 0.16895 3.72517 0
M  V30 3830 N 369.525 -1.3858 0.750561 0
M  V30 3831 C 370.473 -2.32339 0.110162 0
M  V30 3832 C 371.467 -1.53864 -0.708674 0
M  V30 3833 O 372.673 -1.69417 -0.608112 0
M  V30 3834 H 369.048 -0.751812 0.0168275 0
M  V30 3835 H 371.019 -2.83959 0.917053 0
M  V30 3836 C 369.768 -3.39043 -0.771067 0
M  V30 3837 H 369.091 -3.99517 -0.150374 0
M  V30 3838 H 370.531 -4.07061 -1.1865 0
M  V30 3839 C 368.99 -2.77365 -1.91234 0
M  V30 3840 O 369.52 -2.66434 -3.00626 0
M  V30 3841 N 367.726 -2.35219 -1.70646 0
M  V30 3842 H 367.273 -2.4431 -0.81673 0
M  V30 3843 H 367.231 -1.94294 -2.47178 0
M  V30 3844 N 371.003 -0.499398 -1.49478 0
M  V30 3845 C 372.414 -0.051215 -1.8663 0
M  V30 3846 C 372.765 1.36238 -1.41186 0
M  V30 3847 O 371.89 2.01502 -0.789051 0
M  V30 3848 C 372.485 -0.0861651 -3.3869 0
M  V30 3849 C 371.044 0.30667 -3.75149 0
M  V30 3850 C 370.191 -0.459397 -2.73468 0
M  V30 3851 H 373.142 -0.712264 -1.41818 0
M  V30 3852 H 373.163 0.709507 -3.73826 0
M  V30 3853 H 372.675 -1.11512 -3.71735 0
M  V30 3854 H 370.776 1.33892 -3.47712 0
M  V30 3855 H 370.889 -0.0116669 -4.79099 0
M  V30 3856 H 369.253 0.0905645 -2.54539 0
M  V30 3857 H 370.036 -1.4884 -3.09357 0
M  V30 3858 N 372.481 1.55866 -0.233164 0
M  V30 3859 C 373.721 2.00506 0.397078 0
M  V30 3860 C 374.085 1.1176 1.56121 0
M  V30 3861 O 375.286 1.45796 2.25825 0
M  V30 3862 C 373.557 3.4811 0.809601 0
M  V30 3863 S 375.116 4.14765 1.43231 0
M  V30 3864 H 371.934 0.699828 0.125547 0
M  V30 3865 H 374.536 1.92429 -0.345177 0
M  V30 3866 H 373.24 4.10373 -0.0471601 0
M  V30 3867 H 372.771 3.60085 1.58438 0
M  V30 3868 H 374.786 4.14914 2.7214 0
M  V30 3869 N 373.959 -0.0401083 1.57549 0
M  V30 3870 C 374.889 -1.04384 2.08869 0
M  V30 3871 C 375.87 -1.38407 0.988817 0
M  V30 3872 O 377.055 -1.47483 1.26342 0
M  V30 3873 C 374.185 -2.34808 2.55895 0
M  V30 3874 C 373.139 -2.15057 3.70047 0
M  V30 3875 C 372.465 -3.51145 4.03239 0
M  V30 3876 C 373.765 -1.54576 4.98902 0
M  V30 3877 H 375.459 -0.616666 2.92981 0
M  V30 3878 H 373.005 -0.295184 1.40942 0
M  V30 3879 H 374.958 -3.05346 2.90417 0
M  V30 3880 H 373.682 -2.79565 1.68853 0
M  V30 3881 H 372.341 -1.46954 3.35857 0
M  V30 3882 H 371.989 -3.93529 3.13279 0
M  V30 3883 H 371.689 -3.38758 4.80122 0
M  V30 3884 H 373.213 -4.23062 4.40285 0
M  V30 3885 H 374.627 -2.15017 5.31451 0
M  V30 3886 H 373.024 -1.52796 5.80322 0
M  V30 3887 H 374.094 -0.51039 4.82206 0
M  V30 3888 N 375.437 -1.54477 -0.31217 0
M  V30 3889 C 376.684 -1.73227 -1.04875 0
M  V30 3890 C 377.012 -0.512042 -1.87639 0
M  V30 3891 O 376.267 0.506131 -1.89042 0
M  V30 3892 C 376.566 -2.967 -1.99258 0
M  V30 3893 C 376.232 -4.30974 -1.32559 0
M  V30 3894 C 374.894 -4.67477 -1.141 0
M  V30 3895 C 377.246 -5.14258 -0.847835 0
M  V30 3896 C 374.574 -5.84852 -0.465326 0
M  V30 3897 C 376.926 -6.32327 -0.185931 0
M  V30 3898 C 375.59 -6.67499 0.0107077 0
M  V30 3899 H 374.86 -0.633881 -0.383765 0
M  V30 3900 H 377.507 -1.88727 -0.324731 0
M  V30 3901 H 375.812 -2.75935 -2.7815 0
M  V30 3902 H 377.509 -3.08401 -2.563 0
M  V30 3903 H 374.099 -4.02262 -1.4793 0
M  V30 3904 H 378.283 -4.86565 -0.978192 0
M  V30 3905 H 373.539 -6.10654 -0.301883 0
M  V30 3906 H 377.713 -6.96135 0.192211 0
M  V30 3907 H 375.34 -7.58306 0.536287 0
M  V30 3908 N 376.915 0.57481 -1.46744 0
M  V30 3909 C 377.825 1.711 -1.60505 0
M  V30 3910 C 378.841 1.67008 -0.488307 0
M  V30 3911 O 380.017 1.86774 -0.753495 0
M  V30 3912 C 377.082 3.07608 -1.59932 0
M  V30 3913 C 376.143 3.22904 -2.82898 0
M  V30 3914 C 375.376 4.529 -2.82343 0
M  V30 3915 O 375.599 5.37278 -1.91542 0
M  V30 3916 O 374.533 4.71611 -3.73987 0
M  V30 3917 H 378.359 1.62436 -2.56609 0
M  V30 3918 H 375.944 0.742779 -1.29627 0
M  V30 3919 H 377.826 3.88877 -1.62336 0
M  V30 3920 H 376.501 3.16692 -0.669898 0
M  V30 3921 H 375.408 2.41099 -2.86046 0
M  V30 3922 H 376.741 3.18715 -3.75076 0
M  V30 3923 N 378.394 1.34581 0.820102 0
M  V30 3924 C 379.624 1.29991 1.6058 0
M  V30 3925 C 380.032 -0.127588 1.88769 0
M  V30 3926 O 379.375 -1.08595 1.48165 0
M  V30 3927 C 379.437 2.02548 2.9701 0
M  V30 3928 C 379.101 3.51794 2.91701 0
M  V30 3929 C 380.098 4.46647 2.66087 0
M  V30 3930 C 377.783 3.94249 3.11245 0
M  V30 3931 C 379.777 5.81929 2.60071 0
M  V30 3932 C 377.464 5.2963 3.04853 0
M  V30 3933 C 378.462 6.23282 2.793 0
M  V30 3934 O 378.15 7.56181 2.72847 0
M  V30 3935 H 377.882 0.448539 0.505756 0
M  V30 3936 H 380.436 1.77811 1.02822 0
M  V30 3937 H 378.666 1.49345 3.56697 0
M  V30 3938 H 380.355 1.91211 3.58041 0
M  V30 3939 H 381.121 4.15168 2.5072 0
M  V30 3940 H 377 3.21749 3.30149 0
M  V30 3941 H 380.544 6.54999 2.40046 0
M  V30 3942 H 376.441 5.60727 3.19774 0
M  V30 3943 H 377.209 7.6595 2.88553 0
M  V30 3944 N 379.872 -1.04064 1.18357 0
M  V30 3945 C 381.118 -1.77528 0.980397 0
M  V30 3946 C 381.451 -1.87948 -0.48879 0
M  V30 3947 O 380.726 -1.3876 -1.36293 0
M  V30 3948 C 381.009 -3.20797 1.63588 0
M  V30 3949 C 380.862 -3.1832 3.17793 0
M  V30 3950 C 382.181 -4.18911 1.34914 0
M  V30 3951 H 379.3 -0.644443 0.357578 0
M  V30 3952 H 381.942 -1.2156 1.46024 0
M  V30 3953 H 380.092 -3.68586 1.22788 0
M  V30 3954 H 381.764 -2.78521 3.67728 0
M  V30 3955 H 380.007 -2.56351 3.49952 0
M  V30 3956 H 380.678 -4.19489 3.58794 0
M  V30 3957 H 383.154 -3.7967 1.70265 0
M  V30 3958 H 382.03 -5.17374 1.83346 0
M  V30 3959 H 382.291 -4.41262 0.272027 0
M  V30 3960 N 381.35 -0.985608 -1.22978 0
M  V30 3961 C 382.58 -0.674603 -1.95276 0
M  V30 3962 C 382.988 0.763483 -1.73111 0
M  V30 3963 O 382.331 1.52601 -1.02268 0
M  V30 3964 C 382.393 -0.891597 -3.48268 0
M  V30 3965 C 382.057 -2.31275 -3.94158 0
M  V30 3966 C 383.054 -3.29179 -4.02415 0
M  V30 3967 C 380.739 -2.64524 -4.27004 0
M  V30 3968 C 382.733 -4.58407 -4.42879 0
M  V30 3969 C 380.42 -3.93974 -4.67149 0
M  V30 3970 C 381.418 -4.90727 -4.75053 0
M  V30 3971 O 381.106 -6.17865 -5.14294 0
M  V30 3972 H 380.838 -0.249251 -0.628371 0
M  V30 3973 H 383.392 -1.32106 -1.5728 0
M  V30 3974 H 381.622 -0.187962 -3.86243 0
M  V30 3975 H 383.311 -0.576957 -4.01779 0
M  V30 3976 H 384.077 -3.04823 -3.77237 0
M  V30 3977 H 379.956 -1.89923 -4.2006 0
M  V30 3978 H 383.5 -5.33926 -4.48964 0
M  V30 3979 H 379.397 -4.18122 -4.91777 0
M  V30 3980 H 380.165 -6.21694 -5.32389 0
M  V30 3981 N 382.828 1.3818 -0.7579 0
M  V30 3982 C 384.075 2.00019 -0.315985 0
M  V30 3983 C 384.403 1.60163 1.10355 0
M  V30 3984 O 383.658 0.83264 1.77103 0
M  V30 3985 C 383.957 3.55252 -0.391218 0
M  V30 3986 C 383.623 4.14834 -1.76702 0
M  V30 3987 C 382.285 4.30821 -2.14353 0
M  V30 3988 C 384.637 4.47658 -2.66931 0
M  V30 3989 C 381.965 4.76928 -3.41696 0
M  V30 3990 C 384.317 4.95184 -3.93669 0
M  V30 3991 C 382.981 5.09377 -4.31383 0
M  V30 3992 H 382.251 0.731923 -0.115627 0
M  V30 3993 H 384.898 1.65161 -0.969223 0
M  V30 3994 H 383.203 3.90273 0.34558 0
M  V30 3995 H 384.9 4.00988 -0.030805 0
M  V30 3996 H 381.49 4.02808 -1.46435 0
M  V30 3997 H 385.674 4.34904 -2.39106 0
M  V30 3998 H 380.93 4.86103 -3.70829 0
M  V30 3999 H 385.104 5.19551 -4.63724 0
M  V30 4000 H 382.731 5.44865 -5.30119 0
M  V30 4001 N 384.306 0.507319 1.49211 0
M  V30 4002 C 385.269 -0.256763 2.27757 0
M  V30 4003 C 386.269 -0.888287 1.34038 0
M  V30 4004 O 387.459 -0.751841 1.5714 0
M  V30 4005 C 384.591 -1.36905 3.12202 0
M  V30 4006 H 385.784 0.432557 2.96764 0
M  V30 4007 H 383.337 0.262488 1.5408 0
M  V30 4008 H 384.072 -2.09233 2.47775 0
M  V30 4009 H 383.857 -0.921599 3.81115 0
M  V30 4010 H 385.347 -1.9071 3.7151 0
M  V30 4011 N 385.784 -1.5574 0.241426 0
M  V30 4012 C 387.2 -1.59196 -0.113548 0
M  V30 4013 C 387.4 -1.25852 -1.57364 0
M  V30 4014 O 386.456 -1.00322 -2.31715 0
M  V30 4015 C 387.769 -2.99814 0.230695 0
M  V30 4016 C 389.317 -3.12513 0.174547 0
M  V30 4017 C 389.792 -4.55342 0.492744 0
M  V30 4018 N 391.283 -4.61076 0.443043 0
M  V30 4019 C 392.018 -5.6956 0.662484 0
M  V30 4020 N 391.514 -6.86328 0.944761 0
M  V30 4021 N 393.307 -5.58957 0.593564 0
M  V30 4022 H 385.458 -1.75685 1.19368 0
M  V30 4023 H 387.721 -0.81756 0.479896 0
M  V30 4024 H 387.427 -3.28932 1.24485 0
M  V30 4025 H 387.301 -3.74568 -0.444833 0
M  V30 4026 H 389.688 -2.83179 -0.830277 0
M  V30 4027 H 389.769 -2.40045 0.883845 0
M  V30 4028 H 389.413 -4.85396 1.4951 0
M  V30 4029 H 389.343 -5.26062 -0.23797 0
M  V30 4030 H 391.834 -3.77179 0.233374 0
M  V30 4031 H 392.147 -7.64935 1.09977 0
M  V30 4032 H 390.492 -6.88025 0.982175 0
M  V30 4033 H 393.683 -4.66611 0.373123 0
M  V30 4034 H 393.856 -6.43433 0.767981 0
M  V30 4035 N 387.262 0.0317525 -1.57568 0
M  V30 4036 C 388.673 0.578692 -1.77505 0
M  V30 4037 C 389.024 1.75749 -0.872164 0
M  V30 4038 O 388.149 2.16298 -0.0663106 0
M  V30 4039 C 388.744 1.05658 -3.21904 0
M  V30 4040 C 387.303 1.54906 -3.43047 0
M  V30 4041 C 386.45 0.485939 -2.73009 0
M  V30 4042 H 389.401 -0.194475 -1.57504 0
M  V30 4043 H 389.422 1.92404 -3.28269 0
M  V30 4044 H 388.934 0.198422 -3.87592 0
M  V30 4045 H 387.035 2.42915 -2.82529 0
M  V30 4046 H 387.148 1.59841 -4.5165 0
M  V30 4047 H 385.512 0.940354 -2.36705 0
M  V30 4048 H 386.295 -0.362709 -3.41379 0
M  V30 4049 N 388.74 1.54641 0.303973 0
M  V30 4050 C 390.017 1.64455 1.05896 0
M  V30 4051 C 390.397 0.490923 2.05312 0
M  V30 4052 O 389.745 -0.512685 2.22674 0
M  V30 4053 C 389.955 3.02331 1.74347 0
M  V30 4054 C 391.303 3.59045 2.26653 0
M  V30 4055 O 392.327 3.04764 1.84384 0
M  V30 4056 O 391.186 4.54081 3.04093 0
M  V30 4057 H 388.28 0.666729 0.489287 0
M  V30 4058 H 390.826 1.66986 0.302298 0
M  V30 4059 H 389.598 3.77734 1.02142 0
M  V30 4060 H 389.221 3.03565 2.56777 0
M  V30 4061 N 390.218 -0.567019 1.47046 0
M  V30 4062 C 391.443 -1.3551 1.57009 0
M  V30 4063 C 391.868 -1.86841 0.217259 0
M  V30 4064 O 391.226 -1.62435 -0.805268 0
M  V30 4065 C 391.274 -2.50777 2.5912 0
M  V30 4066 O 390.378 -3.52706 2.13711 0
M  V30 4067 H 389.719 -0.402919 0.52778 0
M  V30 4068 H 392.249 -0.686241 1.92748 0
M  V30 4069 H 392.259 -2.97481 2.79229 0
M  V30 4070 H 390.934 -2.12771 3.57353 0
M  V30 4071 H 389.511 -3.12374 2.03659 0
M  V30 4072 N 391.696 -1.35014 -0.812953 0
M  V30 4073 C 392.943 -1.27931 -1.56971 0
M  V30 4074 C 393.271 0.148034 -1.93936 0
M  V30 4075 O 392.526 1.11175 -1.61054 0
M  V30 4076 C 392.825 -2.12524 -2.87347 0
M  V30 4077 C 392.491 -3.61401 -2.6963 0
M  V30 4078 C 391.153 -4.01983 -2.64506 0
M  V30 4079 C 393.505 -4.55894 -2.52607 0
M  V30 4080 C 390.833 -5.35235 -2.40293 0
M  V30 4081 C 393.185 -5.89336 -2.29925 0
M  V30 4082 C 391.849 -6.2907 -2.23219 0
M  V30 4083 H 391.119 -0.468131 -0.574399 0
M  V30 4084 H 393.766 -1.66851 -0.939836 0
M  V30 4085 H 392.071 -1.66463 -3.54679 0
M  V30 4086 H 393.768 -2.04383 -3.45005 0
M  V30 4087 H 390.358 -3.29193 -2.74463 0
M  V30 4088 H 394.542 -4.25431 -2.55583 0
M  V30 4089 H 389.798 -5.65028 -2.33566 0
M  V30 4090 H 393.972 -6.62139 -2.15743 0
M  V30 4091 H 391.599 -7.32256 -2.04219 0
M  V30 4092 N 393.175 1.03435 -1.18907 0
M  V30 4093 C 394.424 1.76143 -0.982669 0
M  V30 4094 C 394.737 1.89416 0.487953 0
M  V30 4095 O 395.943 2.59041 0.813036 0
M  V30 4096 C 394.399 3.16722 -1.70924 0
M  V30 4097 C 394.007 3.11522 -3.21959 0
M  V30 4098 C 395.751 3.93764 -1.58588 0
M  V30 4099 C 393.658 4.46999 -3.87228 0
M  V30 4100 H 392.588 0.660292 -0.364047 0
M  V30 4101 H 395.239 1.158 -1.42347 0
M  V30 4102 H 393.621 3.775 -1.19623 0
M  V30 4103 H 394.795 2.60158 -3.80335 0
M  V30 4104 H 393.11 2.47978 -3.34508 0
M  V30 4105 H 395.707 4.93963 -2.04707 0
M  V30 4106 H 396.05 4.12794 -0.539142 0
M  V30 4107 H 396.583 3.39576 -2.07203 0
M  V30 4108 H 393.322 4.33174 -4.91976 0
M  V30 4109 H 392.842 4.98441 -3.33642 0
M  V30 4110 H 394.521 5.15898 -3.90459 0
M  V30 4111 N 394.653 0.992116 1.22453 0
M  V30 4112 C 395.93 0.583508 1.86694 0
M  V30 4113 C 396.31 -0.9392 1.89056 0
M  V30 4114 O 395.658 -1.82081 1.38053 0
M  V30 4115 C 395.868 1.20304 3.2761 0
M  V30 4116 C 397.216 1.30308 4.0411 0
M  V30 4117 O 398.24 1.15737 3.36873 0
M  V30 4118 O 397.099 1.53615 5.24466 0
M  V30 4119 H 394.193 0.198129 0.802916 0
M  V30 4120 H 396.739 1.08794 1.30238 0
M  V30 4121 H 395.511 2.24461 3.2052 0
M  V30 4122 H 395.134 0.684144 3.9167 0
M  V30 4123 N 396.131 -1.37776 0.765217 0
M  V30 4124 C 397.078 -2.30342 0.145274 0
M  V30 4125 C 398.048 -1.5077 -0.696971 0
M  V30 4126 O 399.233 -1.79362 -0.650689 0
M  V30 4127 C 396.373 -3.37227 -0.732939 0
M  V30 4128 C 395.486 -4.31819 0.125199 0
M  V30 4129 C 394.621 -5.25777 -0.757107 0
M  V30 4130 C 393.66 -6.12012 0.103963 0
M  V30 4131 N 392.797 -6.98232 -0.735953 0
M  V30 4132 H 397.637 -2.8278 0.940195 0
M  V30 4133 H 395.174 -1.39211 0.475255 0
M  V30 4134 H 397.132 -3.97818 -1.25686 0
M  V30 4135 H 395.762 -2.86171 -1.49353 0
M  V30 4136 H 394.814 -3.7259 0.766865 0
M  V30 4137 H 396.126 -4.92509 0.789683 0
M  V30 4138 H 395.28 -5.91541 -1.34776 0
M  V30 4139 H 394.019 -4.65481 -1.45529 0
M  V30 4140 H 393.024 -5.45233 0.707197 0
M  V30 4141 H 394.249 -6.74379 0.799381 0
M  V30 4142 H 392.195 -6.40472 -1.41887 0
M  V30 4143 H 392.112 -7.55891 -0.128624 0
M  V30 4144 H 393.38 -7.68393 -1.31121 0
M  V30 4145 N 397.609 -0.515225 -1.4894 0
M  V30 4146 C 398.858 0.0261361 -2.01683 0
M  V30 4147 C 399.171 1.36719 -1.39883 0
M  V30 4148 O 400.377 1.99606 -1.84037 0
M  V30 4149 C 398.833 0.0970111 -3.59769 0
M  V30 4150 C 398.441 -1.23825 -4.30548 0
M  V30 4151 C 400.185 0.587981 -4.20408 0
M  V30 4152 C 398.092 -1.12877 -5.80528 0
M  V30 4153 H 397.022 0.0135398 -0.753878 0
M  V30 4154 H 399.673 -0.656787 -1.71343 0
M  V30 4155 H 398.055 0.844694 -3.86886 0
M  V30 4156 H 399.229 -2.00034 -4.15118 0
M  V30 4157 H 397.544 -1.66379 -3.81716 0
M  V30 4158 H 400.141 0.68763 -5.3026 0
M  V30 4159 H 400.484 1.59026 -3.84729 0
M  V30 4160 H 401.017 -0.103582 -3.97665 0
M  V30 4161 H 397.756 -2.10575 -6.20756 0
M  V30 4162 H 397.276 -0.407799 -5.98412 0
M  V30 4163 H 398.955 -0.813332 -6.41868 0
M  V30 4164 N 399.087 1.5561 -0.249682 0
M  V30 4165 C 400.312 2.03865 0.381305 0
M  V30 4166 C 400.737 1.12769 1.50548 0
M  V30 4167 O 400.095 0.121189 1.80895 0
M  V30 4168 C 400.143 3.50101 0.863816 0
M  V30 4169 O 399.247 3.62132 1.97318 0
M  V30 4170 H 398.588 0.658827 0.0827194 0
M  V30 4171 H 401.118 2.01105 -0.376552 0
M  V30 4172 H 401.128 3.90975 1.1663 0
M  V30 4173 H 399.803 4.1588 0.0411816 0
M  V30 4174 H 398.38 3.33155 1.67517 0
M  V30 4175 N 400.565 -0.0233959 1.57583 0
M  V30 4176 C 401.811 -0.714119 1.89811 0
M  V30 4177 C 402.144 -1.74702 0.848113 0
M  V30 4178 O 401.419 -1.94023 -0.136135 0
M  V30 4179 C 401.702 -1.37853 3.32669 0
M  V30 4180 C 401.555 -0.358764 4.48367 0
M  V30 4181 C 402.874 -2.31101 3.7454 0
M  V30 4182 H 399.993 -0.25814 0.690314 0
M  V30 4183 H 402.635 0.0230927 1.89986 0
M  V30 4184 H 400.785 -2.00689 3.3265 0
M  V30 4185 H 402.457 0.268115 4.6052 0
M  V30 4186 H 400.7 0.321387 4.32608 0
M  V30 4187 H 401.371 -0.862242 5.45224 0
M  V30 4188 H 403.847 -1.78304 3.75961 0
M  V30 4189 H 402.723 -2.74567 4.75294 0
M  V30 4190 H 402.984 -3.18018 3.0711 0
M  V30 4191 N 402.043 -1.548 -0.295768 0
M  V30 4192 C 403.273 -1.78069 -1.04762 0
M  V30 4193 C 403.681 -0.542847 -1.81245 0
M  V30 4194 O 403.024 0.497051 -1.76848 0
M  V30 4195 C 403.086 -2.93881 -2.07061 0
M  V30 4196 C 402.75 -4.31777 -1.49725 0
M  V30 4197 C 403.747 -5.11613 -0.924581 0
M  V30 4198 C 401.432 -4.78389 -1.5313 0
M  V30 4199 C 403.426 -6.36184 -0.393594 0
M  V30 4200 C 401.113 -6.02921 -0.996447 0
M  V30 4201 C 402.111 -6.81654 -0.428569 0
M  V30 4202 O 401.799 -8.0384 0.0981593 0
M  V30 4203 H 401.531 -0.597475 -0.316226 0
M  V30 4204 H 404.085 -2.02584 -0.338973 0
M  V30 4205 H 402.315 -2.65003 -2.81621 0
M  V30 4206 H 404.004 -3.04679 -2.6819 0
M  V30 4207 H 404.77 -4.76743 -0.891136 0
M  V30 4208 H 400.649 -4.17132 -1.9627 0
M  V30 4209 H 404.193 -6.97582 0.0503014 0
M  V30 4210 H 400.09 -6.37277 -1.02706 0
M  V30 4211 H 400.858 -8.18499 -0.0146455 0
M  V30 4212 N 403.521 0.559213 -1.47345 0
M  V30 4213 C 404.746 1.34676 -1.57725 0
M  V30 4214 C 405.171 1.86723 -0.227164 0
M  V30 4215 O 404.529 1.6286 0.796642 0
M  V30 4216 C 404.577 2.49399 -2.60447 0
M  V30 4217 O 403.681 3.51567 -2.15578 0
M  V30 4218 H 403.022 0.400115 -0.52991 0
M  V30 4219 H 405.552 0.676009 -1.93109 0
M  V30 4220 H 405.562 2.95996 -2.80803 0
M  V30 4221 H 404.237 2.10873 -3.58477 0
M  V30 4222 H 402.814 3.11289 -2.05313 0
M  V30 4223 N 404.999 1.35443 0.805782 0
M  V30 4224 C 405.962 1.28301 1.89925 0
M  V30 4225 C 406.962 0.194285 1.59622 0
M  V30 4226 O 408.152 0.448036 1.6834 0
M  V30 4227 C 405.284 0.984997 3.2636 0
M  V30 4228 H 406.477 2.2553 1.97677 0
M  V30 4229 H 404.03 1.19979 1.00173 0
M  V30 4230 H 404.765 0.016603 3.24296 0
M  V30 4231 H 404.55 1.77269 3.4974 0
M  V30 4232 H 406.04 0.960651 4.064 0
M  V30 4233 N 406.477 -1.02803 1.19454 0
M  V30 4234 C 407.893 -1.28473 0.946937 0
M  V30 4235 C 408.093 -1.97881 -0.380202 0
M  V30 4236 O 407.149 -2.26719 -1.11151 0
M  V30 4237 C 408.462 -2.13099 2.12154 0
M  V30 4238 C 410.01 -2.26404 2.16126 0
M  V30 4239 C 410.485 -3.14402 3.33039 0
M  V30 4240 N 411.976 -3.21991 3.32981 0
M  V30 4241 C 412.711 -3.90272 4.20089 0
M  V30 4242 N 412.207 -4.60777 5.17355 0
M  V30 4243 N 414 -3.8668 4.07964 0
M  V30 4244 H 406.151 -0.561665 2.04839 0
M  V30 4245 H 408.414 -0.310438 0.89573 0
M  V30 4246 H 408.12 -1.69422 3.08203 0
M  V30 4247 H 407.994 -3.13813 2.09287 0
M  V30 4248 H 410.381 -2.69311 1.20647 0
M  V30 4249 H 410.462 -1.25237 2.23045 0
M  V30 4250 H 410.106 -2.72204 4.28798 0
M  V30 4251 H 410.036 -4.1563 3.23356 0
M  V30 4252 H 412.527 -2.71778 2.62574 0
M  V30 4253 H 412.84 -5.10513 5.80169 0
M  V30 4254 H 411.185 -4.5964 5.21302 0
M  V30 4255 H 414.376 -3.30739 3.31254 0
M  V30 4256 H 414.549 -4.39621 4.76064 0
M  V30 4257 N 407.956 -0.998596 -1.21925 0
M  V30 4258 C 409.202 -0.678667 -1.91107 0
M  V30 4259 C 409.535 0.78791 -1.77498 0
M  V30 4260 O 408.81 1.57043 -1.1475 0
M  V30 4261 C 409.093 -1.09245 -3.43129 0
M  V30 4262 C 408.946 -2.61801 -3.6576 0
M  V30 4263 C 410.265 -0.649984 -4.35274 0
M  V30 4264 H 407.384 -0.248025 -0.694012 0
M  V30 4265 H 410.026 -1.24314 -1.43688 0
M  V30 4266 H 408.176 -0.612171 -3.83647 0
M  V30 4267 H 409.848 -3.17543 -3.34611 0
M  V30 4268 H 408.091 -3.03609 -3.09845 0
M  V30 4269 H 408.762 -2.85804 -4.7225 0
M  V30 4270 H 411.238 -1.0626 -4.02303 0
M  V30 4271 H 410.114 -0.967743 -5.40302 0
M  V30 4272 H 410.375 0.449139 -4.39813 0
M  V30 4273 N 409.434 1.37368 -0.772513 0
M  V30 4274 C 410.382 2.32134 -0.147111 0
M  V30 4275 C 411.376 1.54972 0.684106 0
M  V30 4276 O 412.582 1.70363 0.581083 0
M  V30 4277 H 408.957 0.751449 -0.028786 0
M  V30 4278 H 410.928 2.82464 -0.962112 0
M  V30 4279 C 409.677 3.40226 0.71703 0
M  V30 4280 H 409 3.99706 0.0867951 0
M  V30 4281 H 410.44 4.08897 1.12159 0
M  V30 4282 C 408.899 2.80372 1.86797 0
M  V30 4283 O 409.429 2.71183 2.96349 0
M  V30 4284 N 407.635 2.37904 1.66883 0
M  V30 4285 H 407.182 2.45578 0.777759 0
M  V30 4286 H 407.14 1.98202 2.44056 0
M  V30 4287 N 410.912 0.523116 1.48665 0
M  V30 4288 C 411.845 -0.290518 2.26343 0
M  V30 4289 C 412.823 -0.950913 1.31895 0
M  V30 4290 O 414.007 -0.976662 1.61225 0
M  V30 4291 C 411.134 -1.41088 3.07915 0
M  V30 4292 C 410.18 -0.862597 4.17686 0
M  V30 4293 S 411.013 0.264135 5.34848 0
M  V30 4294 C 412.169 -0.858864 6.19979 0
M  V30 4295 H 412.402 0.368726 2.95005 0
M  V30 4296 H 409.935 0.30878 1.51281 0
M  V30 4297 H 411.893 -2.0527 3.55492 0
M  V30 4298 H 410.554 -2.04182 2.38681 0
M  V30 4299 H 409.747 -1.70287 4.74361 0
M  V30 4300 H 409.349 -0.297595 3.72814 0
M  V30 4301 H 411.641 -1.7591 6.54264 0
M  V30 4302 H 412.584 -0.330244 7.07329 0
M  V30 4303 H 412.992 -1.13617 5.52948 0
M  V30 4304 N 412.39 -1.55475 0.257931 0
M  V30 4305 C 413.638 -1.98813 -0.363009 0
M  V30 4306 C 413.959 -1.14757 -1.57657 0
M  V30 4307 O 413.229 -0.232956 -1.9451 0
M  V30 4308 H 411.809 -0.734308 -0.137113 0
M  V30 4309 H 414.471 -1.9156 0.359281 0
M  V30 4310 H 413.567 -3.04941 -0.664634 0
M  V30 4311 N 413.868 0.0150385 -1.57593 0
M  V30 4312 C 415.096 0.714395 -1.94175 0
M  V30 4313 C 415.511 1.68135 -0.858841 0
M  V30 4314 O 414.868 1.81766 0.163567 0
M  V30 4315 C 414.919 1.45933 -3.30735 0
M  V30 4316 O 414.64 0.531167 -4.34868 0
M  V30 4317 C 416.141 2.25456 -3.81686 0
M  V30 4318 H 413.361 0.199923 -0.640525 0
M  V30 4319 H 415.905 -0.0316096 -2.04476 0
M  V30 4320 H 414.06 2.15709 -3.21789 0
M  V30 4321 H 414.474 1.05509 -5.13778 0
M  V30 4322 H 415.948 2.731 -4.79709 0
M  V30 4323 H 416.425 3.07485 -3.13607 0
M  V30 4324 H 417.031 1.60727 -3.9376 0
M  V30 4325 N 415.346 1.54954 0.287554 0
M  V30 4326 C 416.293 1.86834 1.35505 0
M  V30 4327 C 417.263 0.718452 1.49758 0
M  V30 4328 O 418.448 0.968358 1.644 0
M  V30 4329 C 415.588 2.13303 2.71286 0
M  V30 4330 C 414.701 3.40883 2.65373 0
M  V30 4331 C 413.836 3.57125 3.93236 0
M  V30 4332 C 412.875 4.78449 3.81776 0
M  V30 4333 N 412.012 4.91426 5.01443 0
M  V30 4334 H 416.852 2.77889 1.07619 0
M  V30 4335 H 414.389 1.37593 0.520241 0
M  V30 4336 H 416.347 2.26646 3.50267 0
M  V30 4337 H 414.977 1.25499 2.97405 0
M  V30 4338 H 414.029 3.36088 1.78182 0
M  V30 4339 H 415.341 4.29993 2.52799 0
M  V30 4340 H 414.495 3.70207 4.80658 0
M  V30 4341 H 413.234 2.66173 4.0866 0
M  V30 4342 H 412.239 4.65386 2.92738 0
M  V30 4343 H 413.464 5.70822 3.67884 0
M  V30 4344 H 411.41 4.03401 5.17304 0
M  V30 4345 H 411.327 5.74559 4.91343 0
M  V30 4346 H 412.595 5.08879 5.90477 0
M  V30 4347 N 416.824 -0.551391 1.4764 0
M  V30 4348 C 417.754 -1.66757 1.63445 0
M  V30 4349 C 418.735 -1.63077 0.483742 0
M  V30 4350 O 419.92 -1.80607 0.71377 0
M  V30 4351 C 417.05 -3.05387 1.65396 0
M  V30 4352 C 416.004 -3.23918 2.79752 0
M  V30 4353 C 415.33 -4.63393 2.66779 0
M  V30 4354 C 416.63 -3.08735 4.21284 0
M  V30 4355 H 418.324 -1.53786 2.56886 0
M  V30 4356 H 415.87 -0.738415 1.23626 0
M  V30 4357 H 417.823 -3.83325 1.75043 0
M  V30 4358 H 416.547 -3.19332 0.685195 0
M  V30 4359 H 415.206 -2.48391 2.69625 0
M  V30 4360 H 414.854 -4.74144 1.67918 0
M  V30 4361 H 414.554 -4.7674 3.43501 0
M  V30 4362 H 416.078 -5.43458 2.78364 0
M  V30 4363 H 417.492 -3.76484 4.32357 0
M  V30 4364 H 415.889 -3.33588 4.98838 0
M  V30 4365 H 416.959 -2.0541 4.39243 0
M  V30 4366 N 418.302 -1.35869 -0.798587 0
M  V30 4367 C 419.55 -1.29332 -1.55298 0
M  V30 4368 C 419.871 0.129729 -1.94568 0
M  V30 4369 O 419.141 1.06796 -1.6423 0
M  V30 4370 H 417.721 -0.475737 -0.57592 0
M  V30 4371 H 420.383 -1.70062 -0.952093 0
M  V30 4372 H 419.479 -1.91458 -2.46476 0
M  V30 4373 N 419.78 1.02168 -1.19998 0
M  V30 4374 C 420.69 2.14069 -0.959774 0
M  V30 4375 C 421.706 1.73804 0.082655 0
M  V30 4376 O 422.882 2.01133 -0.103633 0
M  V30 4377 C 419.947 3.42936 -0.509459 0
M  V30 4378 C 419.008 3.97474 -1.62213 0
M  V30 4379 C 418.241 5.2019 -1.19321 0
M  V30 4380 O 418.464 5.70369 -0.0597726 0
M  V30 4381 O 417.398 5.67749 -1.99863 0
M  V30 4382 H 421.224 2.37199 -1.89658 0
M  V30 4383 H 418.809 1.12469 -0.983411 0
M  V30 4384 H 420.691 4.20551 -0.267322 0
M  V30 4385 H 419.366 3.21234 0.398821 0
M  V30 4386 H 418.273 3.21161 -1.9185 0
M  V30 4387 H 419.606 4.23555 -2.50723 0
M  V30 4388 N 421.258 1.00505 1.21394 0
M  V30 4389 C 422.205 0.565496 2.23765 0
M  V30 4390 C 423.175 -0.408466 1.60999 0
M  V30 4391 O 424.36 -0.310503 1.88257 0
M  V30 4392 C 421.5 -0.101667 3.4495 0
M  V30 4393 C 420.613 0.915479 4.22188 0
M  V30 4394 C 419.748 0.220574 5.30742 0
M  V30 4395 C 418.787 1.22527 5.99711 0
M  V30 4396 N 417.924 0.557831 6.9988 0
M  V30 4397 H 422.764 1.44314 2.60725 0
M  V30 4398 H 420.301 0.722643 1.28126 0
M  V30 4399 H 422.259 -0.505504 4.14126 0
M  V30 4400 H 420.889 -0.94303 3.08718 0
M  V30 4401 H 419.941 1.43756 3.52191 0
M  V30 4402 H 421.253 1.68005 4.69655 0
M  V30 4403 H 420.407 -0.239368 6.06228 0
M  V30 4404 H 419.146 -0.576401 4.84282 0
M  V30 4405 H 418.151 1.69571 5.22997 0
M  V30 4406 H 419.376 2.02332 6.48258 0
M  V30 4407 H 417.322 -0.219486 6.55633 0
M  V30 4408 H 417.239 1.26065 7.45415 0
M  V30 4409 H 418.507 0.121095 7.79406 0
M  V30 4410 N 422.737 -1.36956 0.779787 0
M  V30 4411 C 423.986 -1.98738 0.344405 0
M  V30 4412 C 424.299 -1.62596 -1.08728 0
M  V30 4413 O 425.505 -2.1754 -1.62445 0
M  V30 4414 C 423.961 -3.5544 0.564829 0
M  V30 4415 C 423.569 -4.00514 2.0073 0
M  V30 4416 C 425.313 -4.24059 0.193471 0
M  V30 4417 C 423.22 -5.49957 2.17489 0
M  V30 4418 H 422.15 -0.743561 0.12503 0
M  V30 4419 H 424.801 -1.56381 0.960057 0
M  V30 4420 H 423.183 -3.95817 -0.120397 0
M  V30 4421 H 424.357 -3.71362 2.72814 0
M  V30 4422 H 422.672 -3.44703 2.336 0
M  V30 4423 H 425.269 -5.33874 0.297097 0
M  V30 4424 H 425.612 -4.07378 -0.857263 0
M  V30 4425 H 426.145 -3.89012 0.831556 0
M  V30 4426 H 422.884 -5.71574 3.2091 0
M  V30 4427 H 422.404 -5.80767 1.49899 0
M  V30 4428 H 424.083 -6.16043 1.97738 0
M  V30 4429 N 424.215 -0.530993 -1.48385 0
M  V30 4430 C 425.178 0.220497 -2.28137 0
M  V30 4431 C 426.178 0.866851 -1.35434 0
M  V30 4432 O 427.368 0.726746 -1.58316 0
M  V30 4433 C 424.5 1.31921 -3.1434 0
M  V30 4434 H 425.693 -0.479714 -2.96038 0
M  V30 4435 H 423.246 -0.286968 -1.53643 0
M  V30 4436 H 423.981 2.05264 -2.51072 0
M  V30 4437 H 423.766 0.86085 -3.82533 0
M  V30 4438 H 425.256 1.84776 -3.74497 0
M  V30 4439 N 425.693 1.55336 -0.266172 0
M  V30 4440 C 427.109 1.59356 0.0882065 0
M  V30 4441 C 427.309 1.2834 1.55342 0
M  V30 4442 O 426.365 1.03996 2.30089 0
M  V30 4443 C 427.678 2.99409 -0.278364 0
M  V30 4444 C 429.226 3.12196 -0.224243 0
M  V30 4445 C 429.701 4.545 -0.565123 0
M  V30 4446 N 431.192 4.60313 -0.51634 0
M  V30 4447 C 431.927 5.68434 -0.753013 0
M  V30 4448 N 431.423 6.84738 -1.05383 0
M  V30 4449 N 433.216 5.57942 -0.682414 0
M  V30 4450 H 425.367 1.73764 -1.22147 0
M  V30 4451 H 427.63 0.809822 -0.492841 0
M  V30 4452 H 427.336 3.2691 -1.29703 0
M  V30 4453 H 427.21 3.75228 0.385186 0
M  V30 4454 H 429.597 2.84464 0.78512 0
M  V30 4455 H 429.678 2.38609 -0.921922 0
M  V30 4456 H 429.322 4.82956 -1.57213 0
M  V30 4457 H 429.252 5.26374 0.154248 0
M  V30 4458 H 431.743 3.7676 -0.29335 0
M  V30 4459 H 432.056 7.63088 -1.22133 0
M  V30 4460 H 430.401 6.86375 -1.09151 0
M  V30 4461 H 433.592 4.65958 -0.44731 0
M  V30 4462 H 433.765 6.4213 -0.870248 0
M  V30 4463 N 427.171 -0.0066808 1.57599 0
M  V30 4464 C 428.081 -1.01671 2.11424 0
M  V30 4465 C 429.097 -1.38143 1.05795 0
M  V30 4466 O 430.273 -1.47011 1.37658 0
M  V30 4467 C 427.338 -2.29192 2.60139 0
M  V30 4468 C 426.399 -1.99094 3.80342 0
M  V30 4469 C 425.632 -3.20535 4.26724 0
M  V30 4470 O 425.855 -4.3199 3.72479 0
M  V30 4471 O 424.789 -3.04924 5.18946 0
M  V30 4472 H 428.615 -0.589181 2.9793 0
M  V30 4473 H 426.2 -0.225091 1.47695 0
M  V30 4474 H 428.082 -3.0412 2.917 0
M  V30 4475 H 426.757 -2.71195 1.76733 0
M  V30 4476 H 425.664 -1.21663 3.53764 0
M  V30 4477 H 426.997 -1.61931 4.648 0
M  V30 4478 N 428.649 -1.55105 -0.279332 0
M  V30 4479 C 429.895 -1.76597 -1.00921 0
M  V30 4480 C 430.25 -0.556831 -1.84166 0
M  V30 4481 O 429.543 0.450573 -1.86227 0
M  V30 4482 C 429.737 -3.0086 -1.92919 0
M  V30 4483 C 429.566 -4.33744 -1.18728 0
M  V30 4484 C 428.336 -4.9712 -0.905545 0
M  V30 4485 C 430.534 -5.11009 -0.580857 0
M  V30 4486 N 428.516 -6.13749 -0.136169 0
M  V30 4487 C 429.887 -6.19976 0.0546661 0
M  V30 4488 C 431.942 -4.95502 -0.488067 0
M  V30 4489 C 430.645 -7.15123 0.774028 0
M  V30 4490 C 432.671 -5.90999 0.217688 0
M  V30 4491 C 432.033 -6.9935 0.841975 0
M  V30 4492 H 428.132 -0.698553 -0.351493 0
M  V30 4493 H 430.716 -1.92595 -0.285531 0
M  V30 4494 H 428.887 -2.86249 -2.62519 0
M  V30 4495 H 430.619 -3.10784 -2.59221 0
M  V30 4496 H 427.374 -4.57903 -1.20921 0
M  V30 4497 H 427.798 -6.7659 0.235665 0
M  V30 4498 H 432.44 -4.11841 -0.956406 0
M  V30 4499 H 430.158 -7.9831 1.25407 0
M  V30 4500 H 433.744 -5.81078 0.289717 0
M  V30 4501 H 432.624 -7.71973 1.37939 0
M  V30 4502 N 430.127 0.543554 -1.4793 0
M  V30 4503 C 431.037 1.67657 -1.64098 0
M  V30 4504 C 432.053 1.65934 -0.523622 0
M  V30 4505 O 433.229 1.85133 -0.792943 0
M  V30 4506 C 430.294 3.04146 -1.66421 0
M  V30 4507 C 429.355 3.16831 -2.89684 0
M  V30 4508 C 428.588 4.46809 -2.91886 0
M  V30 4509 O 428.811 5.33095 -2.02895 0
M  V30 4510 O 427.745 4.63573 -3.83906 0
M  V30 4511 H 431.571 1.56957 -2.59997 0
M  V30 4512 H 429.156 0.715116 -1.31173 0
M  V30 4513 H 431.038 3.85346 -1.70548 0
M  V30 4514 H 429.713 3.152 -0.736923 0
M  V30 4515 H 428.62 2.34977 -2.91095 0
M  V30 4516 H 429.953 3.10687 -3.81752 0
M  V30 4517 N 431.605 1.3629 0.791371 0
M  V30 4518 C 432.882 1.20962 1.53712 0
M  V30 4519 C 433.262 -0.205021 2.10102 0
M  V30 4520 O 432.61 -1.21042 1.93807 0
M  V30 4521 C 432.82 2.29002 2.63361 0
M  V30 4522 C 434.168 2.65572 3.31295 0
M  V30 4523 O 435.192 2.2803 2.73643 0
M  V30 4524 O 434.051 3.3018 4.35481 0
M  V30 4525 H 431.145 0.47086 0.679867 0
M  V30 4526 H 433.691 1.48016 0.830021 0
M  V30 4527 H 432.463 3.2382 2.19674 0
M  V30 4528 H 432.086 2.03303 3.41692 0
M  V30 4529 N 433.083 -1.0153 1.20538 0
M  V30 4530 C 434.013 -2.11972 0.979295 0
M  V30 4531 C 434.994 -1.6985 -0.0921787 0
M  V30 4532 O 436.179 -1.94089 0.0655932 0
M  V30 4533 C 433.309 -3.43201 0.531984 0
M  V30 4534 C 432.263 -3.9907 1.54685 0
M  V30 4535 C 431.589 -5.26082 0.956127 0
M  V30 4536 C 432.889 -4.32313 2.93092 0
M  V30 4537 H 434.583 -2.31143 1.90298 0
M  V30 4538 H 432.129 -1.11079 0.916372 0
M  V30 4539 H 434.082 -4.1985 0.361044 0
M  V30 4540 H 432.806 -3.23792 -0.427327 0
M  V30 4541 H 431.465 -3.2453 1.70517 0
M  V30 4542 H 431.113 -5.02999 -0.0111538 0
M  V30 4543 H 430.813 -5.64426 1.63393 0
M  V30 4544 H 432.337 -6.05386 0.796284 0
M  V30 4545 H 433.751 -4.99845 2.80763 0
M  V30 4546 H 432.148 -4.81774 3.57791 0
M  V30 4547 H 433.218 -3.41025 3.44717 0
M  V30 4548 N 434.561 -1.01147 -1.20859 0
M  V30 4549 C 435.838 -0.613136 -1.85742 0
M  V30 4550 C 436.218 0.909004 -1.90526 0
M  V30 4551 O 435.566 1.79862 -1.40932 0
M  V30 4552 C 435.776 -1.255 -3.25654 0
M  V30 4553 C 437.124 -1.3672 -4.01986 0
M  V30 4554 O 438.148 -1.21082 -3.34989 0
M  V30 4555 O 437.007 -1.6194 -5.21956 0
M  V30 4556 H 434.101 -0.210878 -0.799662 0
M  V30 4557 H 436.647 -1.10853 -1.2849 0
M  V30 4558 H 435.419 -2.29532 -3.16908 0
M  V30 4559 H 435.042 -0.746369 -3.90532 0
M  V30 4560 N 436.039 1.36541 -0.78704 0
M  V30 4561 C 437.288 1.98552 -0.35494 0
M  V30 4562 C 437.601 1.63171 1.07864 0
M  V30 4563 O 438.807 2.18399 1.61289 0
M  V30 4564 C 437.263 3.55136 -0.583671 0
M  V30 4565 C 436.871 3.99444 -2.02851 0
M  V30 4566 C 438.615 4.2395 -0.215957 0
M  V30 4567 C 436.522 5.48796 -2.20403 0
M  V30 4568 H 435.452 0.742888 -0.128972 0
M  V30 4569 H 438.103 1.5587 -0.968337 0
M  V30 4570 H 436.485 3.95875 0.0994046 0
M  V30 4571 H 437.659 3.6991 -2.74779 0
M  V30 4572 H 435.974 3.43459 -2.35425 0
M  V30 4573 H 438.571 5.33709 -0.325405 0
M  V30 4574 H 438.914 4.07827 0.835646 0
M  V30 4575 H 439.447 3.88565 -0.852175 0
M  V30 4576 H 436.186 5.69864 -3.23937 0
M  V30 4577 H 435.706 5.79964 -1.52977 0
M  V30 4578 H 437.385 6.14986 -2.01002 0
M  V30 4579 N 437.518 0.538854 1.48102 0
M  V30 4580 C 438.795 -0.0568108 1.95517 0
M  V30 4581 C 439.175 -1.50408 1.48124 0
M  V30 4582 O 438.523 -2.17133 0.711727 0
M  V30 4583 C 438.733 0.0696262 3.48931 0
M  V30 4584 C 440.081 -0.0851202 4.24515 0
M  V30 4585 O 441.105 -0.0037347 3.562 0
M  V30 4586 O 439.964 -0.257025 5.45895 0
M  V30 4587 H 437.058 -0.0743695 0.823649 0
M  V30 4588 H 439.604 0.604081 1.58584 0
M  V30 4589 H 438.376 1.07744 3.76174 0
M  V30 4590 H 437.999 -0.629714 3.92582 0
M  V30 4591 N 438.996 -1.55193 0.274407 0
M  V30 4592 C 440.242 -1.99877 -0.343086 0
M  V30 4593 C 440.575 -1.16256 -1.55558 0
M  V30 4594 O 439.85 -0.232462 -1.93106 0
M  V30 4595 C 440.133 -3.52706 -0.725965 0
M  V30 4596 C 439.986 -4.47081 0.493818 0
M  V30 4597 C 441.305 -4.11422 -1.56268 0
M  V30 4598 H 438.424 -0.726625 -0.123229 0
M  V30 4599 H 441.066 -1.86136 0.38121 0
M  V30 4600 H 439.216 -3.64546 -1.34307 0
M  V30 4601 H 440.888 -4.47186 1.13237 0
M  V30 4602 H 439.131 -4.1877 1.13201 0
M  V30 4603 H 439.802 -5.51699 0.18217 0
M  V30 4604 H 442.278 -4.02855 -1.04151 0
M  V30 4605 H 441.154 -5.18568 -1.79939 0
M  V30 4606 H 441.415 -3.61607 -2.54348 0
M  V30 4607 N 440.474 -0.00167713 -1.576 0
M  V30 4608 C 441.72 0.683832 -1.90923 0
M  V30 4609 C 442.053 1.7333 -0.875799 0
M  V30 4610 O 441.328 1.94215 0.10525 0
M  V30 4611 C 441.611 1.32543 -3.3482 0
M  V30 4612 C 441.464 0.287387 -4.48881 0
M  V30 4613 C 442.783 2.25114 -3.78169 0
M  V30 4614 H 439.902 0.247125 -0.694333 0
M  V30 4615 H 442.544 -0.0533149 -1.89925 0
M  V30 4616 H 440.694 1.95372 -3.35801 0
M  V30 4617 H 442.366 -0.341346 -4.60035 0
M  V30 4618 H 440.609 -0.39017 -4.32042 0
M  V30 4619 H 441.28 0.775393 -5.46527 0
M  V30 4620 H 443.756 1.723 -3.7875 0
M  V30 4621 H 442.632 2.66971 -4.79602 0
M  V30 4622 H 442.893 3.13092 -3.12131 0
M  V30 4623 N 441.952 1.55251 0.271103 0
M  V30 4624 C 443.201 1.75151 1.00025 0
M  V30 4625 C 443.514 0.561041 1.87381 0
M  V30 4626 O 444.72 0.642506 2.63788 0
M  V30 4627 C 443.176 3.09999 1.82835 0
M  V30 4628 C 442.784 4.3662 1.00336 0
M  V30 4629 C 444.528 3.39249 2.55168 0
M  V30 4630 C 442.435 5.62506 1.82595 0
M  V30 4631 H 441.365 0.652877 0.377183 0
M  V30 4632 H 444.016 1.81708 0.255843 0
M  V30 4633 H 442.398 2.97485 2.61378 0
M  V30 4634 H 443.572 4.60055 0.261959 0
M  V30 4635 H 441.887 4.14527 0.394486 0
M  V30 4636 H 444.484 4.3051 3.1712 0
M  V30 4637 H 444.827 2.59467 3.2555 0
M  V30 4638 H 445.36 3.52869 1.83653 0
M  V30 4639 H 442.099 6.45041 1.16631 0
M  V30 4640 H 441.619 5.43211 2.54327 0
M  V30 4641 H 443.298 6.00875 2.39913 0
M  V30 4642 N 443.43 -0.535701 1.48216 0
M  V30 4643 C 444.841 -1.11769 1.49548 0
M  V30 4644 C 445.192 -1.94442 0.26207 0
M  V30 4645 O 444.317 -2.06987 -0.631287 0
M  V30 4646 C 444.912 -2.03367 2.70975 0
M  V30 4647 C 443.471 -2.56795 2.75196 0
M  V30 4648 C 442.618 -1.33631 2.42977 0
M  V30 4649 H 445.569 -0.321232 1.55415 0
M  V30 4650 H 445.59 -2.87569 2.49167 0
M  V30 4651 H 445.102 -1.43169 3.60727 0
M  V30 4652 H 443.203 -3.20731 1.89638 0
M  V30 4653 H 443.316 -2.9632 3.76472 0
M  V30 4654 H 441.68 -1.6502 1.94012 0
M  V30 4655 H 442.463 -0.75194 3.34964 0
M  V30 4656 N 444.908 -1.36708 -0.784132 0
M  V30 4657 C 446.157 -1.30559 -1.53744 0
M  V30 4658 C 446.47 0.111374 -1.95283 0
M  V30 4659 O 447.676 0.29527 -2.6989 0
M  V30 4660 C 446.132 -2.29098 -2.77565 0
M  V30 4661 C 445.74 -3.76258 -2.43174 0
M  V30 4662 C 447.484 -2.31936 -3.55536 0
M  V30 4663 C 445.391 -4.6656 -3.63422 0
M  V30 4664 H 444.321 -0.48518 -0.577162 0
M  V30 4665 H 446.972 -1.62101 -0.859981 0
M  V30 4666 H 445.354 -1.90557 -3.47137 0
M  V30 4667 H 446.528 -4.23565 -1.81465 0
M  V30 4668 H 444.843 -3.76246 -1.78403 0
M  V30 4669 H 447.44 -2.9661 -4.44889 0
M  V30 4670 H 447.783 -1.3294 -3.94503 0
M  V30 4671 H 448.316 -2.6912 -2.92949 0
M  V30 4672 H 445.055 -5.66638 -3.29547 0
M  V30 4673 H 444.575 -4.23966 -4.24279 0
M  V30 4674 H 446.254 -4.8309 -4.30387 0
M  V30 4675 N 446.386 1.0089 -1.21074 0
M  V30 4676 C 447.797 1.56056 -1.02486 0
M  V30 4677 C 448.148 1.91728 0.416506 0
M  V30 4678 O 447.273 1.73066 1.29912 0
M  V30 4679 C 447.868 2.83563 -1.85411 0
M  V30 4680 C 446.427 3.3523 -1.71166 0
M  V30 4681 C 445.574 2.0846 -1.82865 0
M  V30 4682 H 448.525 0.831818 -1.35154 0
M  V30 4683 H 448.546 3.55286 -1.36205 0
M  V30 4684 H 448.058 2.57569 -2.9031 0
M  V30 4685 H 446.159 3.66167 -0.689361 0
M  V30 4686 H 446.272 4.06913 -2.52901 0
M  V30 4687 H 444.636 2.21275 -1.26132 0
M  V30 4688 H 445.419 1.84883 -2.89263 0
M  V30 4689 N 447.864 1.01787 1.20321 0
M  V30 4690 C 448.774 0.598898 2.26827 0
M  V30 4691 C 449.79 -0.36418 1.70146 0
M  V30 4692 O 450.966 -0.224812 2.00141 0
M  V30 4693 C 448.031 -0.0549769 3.46656 0
M  V30 4694 C 447.092 0.954205 4.18561 0
M  V30 4695 C 446.325 0.331439 5.3267 0
M  V30 4696 O 446.548 -0.86851 5.63749 0
M  V30 4697 O 445.482 1.0488 5.92692 0
M  V30 4698 H 449.308 1.48562 2.64883 0
M  V30 4699 H 446.893 0.787434 1.26964 0
M  V30 4700 H 448.775 -0.420102 4.19301 0
M  V30 4701 H 447.45 -0.915876 3.10473 0
M  V30 4702 H 446.357 1.37072 3.48083 0
M  V30 4703 H 447.69 1.78511 4.58688 0
M  V30 4704 N 449.342 -1.36122 0.79427 0
M  V30 4705 C 450.57 -2.03362 0.380989 0
M  V30 4706 C 450.985 -1.59881 -1.00416 0
M  V30 4707 O 450.342 -0.790515 -1.6449 0
M  V30 4708 C 450.393 -3.58804 0.440649 0
M  V30 4709 O 450.114 -4.007 1.77118 0
M  V30 4710 C 451.615 -4.43296 0.0186117 0
M  V30 4711 H 448.835 -0.652526 0.156367 0
M  V30 4712 H 451.379 -1.73998 1.07447 0
M  V30 4713 H 449.534 -3.8686 -0.204458 0
M  V30 4714 H 449.948 -4.95309 1.72538 0
M  V30 4715 H 451.422 -5.51887 0.111488 0
M  V30 4716 H 451.899 -4.2684 -1.03461 0
M  V30 4717 H 452.505 -4.20512 0.636395 0
M  V30 4718 N 450.82 -0.546701 -1.47814 0
M  V30 4719 C 452.045 -0.021268 -2.07389 0
M  V30 4720 C 452.47 1.25822 -1.39822 0
M  V30 4721 O 451.828 1.75111 -0.46968 0
M  V30 4722 C 451.876 0.168502 -3.60206 0
M  V30 4723 O 450.98 1.23347 -3.93522 0
M  V30 4724 H 450.321 -0.0466108 -0.662362 0
M  V30 4725 H 452.851 -0.759387 -1.89985 0
M  V30 4726 H 452.861 0.385982 -4.0617 0
M  V30 4727 H 451.536 -0.766075 -4.08784 0
M  V30 4728 H 450.113 0.997319 -3.59316 0
M  V30 4729 N 452.299 1.55045 -0.282633 0
M  V30 4730 C 453.539 2.01668 0.333088 0
M  V30 4731 C 453.903 1.1667 1.52486 0
M  V30 4732 O 455.104 1.52907 2.21072 0
M  V30 4733 C 453.375 3.50509 0.698442 0
M  V30 4734 S 454.934 4.19112 1.29963 0
M  V30 4735 H 451.752 0.703468 0.103219 0
M  V30 4736 H 454.354 1.91233 -0.406222 0
M  V30 4737 H 453.058 4.10015 -0.177693 0
M  V30 4738 H 452.589 3.64943 1.46902 0
M  V30 4739 H 454.604 4.23362 2.58803 0
M  V30 4740 N 453.777 0.010035 1.57597 0
M  V30 4741 C 455.054 -0.710296 1.82248 0
M  V30 4742 C 455.434 -1.91426 0.889911 0
M  V30 4743 O 454.782 -2.28424 -0.0590292 0
M  V30 4744 C 454.992 -1.10655 3.30993 0
M  V30 4745 C 456.34 -1.50621 3.96987 0
M  V30 4746 O 457.364 -1.20007 3.35375 0
M  V30 4747 O 456.223 -2.07587 5.05539 0
M  V30 4748 H 453.317 -0.34673 0.750804 0
M  V30 4749 H 455.863 0.0362578 1.69661 0
M  V30 4750 H 454.635 -0.248826 3.90508 0
M  V30 4751 H 454.258 -1.91189 3.48615 0
M  V30 4752 N 455.255 -1.55392 -0.262866 0
M  V30 4753 C 456.504 -1.75679 -0.990943 0
M  V30 4754 C 456.817 -0.57097 -1.87081 0
M  V30 4755 O 458.023 -0.656486 -2.63444 0
M  V30 4756 C 456.479 -3.10964 -1.81188 0
M  V30 4757 C 456.087 -4.37146 -0.980188 0
M  V30 4758 C 457.831 -3.40597 -2.53365 0
M  V30 4759 C 455.738 -5.63466 -1.7961 0
M  V30 4760 H 454.668 -0.654868 -0.373716 0
M  V30 4761 H 457.319 -1.81841 -0.246203 0
M  V30 4762 H 455.701 -2.98867 -2.59797 0
M  V30 4763 H 456.875 -4.60187 -0.237558 0
M  V30 4764 H 455.19 -4.14731 -0.372497 0
M  V30 4765 H 457.787 -4.32186 -3.14833 0
M  V30 4766 H 458.13 -2.6119 -3.24169 0
M  V30 4767 H 458.663 -3.53838 -1.81779 0
M  V30 4768 H 455.402 -6.4565 -1.13209 0
M  V30 4769 H 454.922 -5.44552 -2.51443 0
M  V30 4770 H 456.601 -6.02139 -2.36723 0
M  V30 4771 N 456.733 0.527833 -1.48498 0
M  V30 4772 C 457.696 1.61439 -1.62696 0
M  V30 4773 C 458.696 1.52824 -0.500136 0
M  V30 4774 O 459.886 1.56456 -0.765976 0
M  V30 4775 C 457.018 3.01063 -1.59918 0
M  V30 4776 H 458.211 1.50189 -2.59583 0
M  V30 4777 H 455.764 0.750055 -1.37127 0
M  V30 4778 H 456.499 3.17818 -0.645163 0
M  V30 4779 H 456.284 3.08725 -2.41726 0
M  V30 4780 H 457.774 3.80057 -1.73051 0
M  V30 4781 N 458.211 1.37122 0.776871 0
M  V30 4782 C 459.141 1.35164 1.90402 0
M  V30 4783 C 460.122 0.221069 1.68657 0
M  V30 4784 O 461.307 0.420642 1.8959 0
M  V30 4785 C 458.437 1.15274 3.27611 0
M  V30 4786 C 457.391 2.25289 3.63908 0
M  V30 4787 C 456.717 1.90527 4.99603 0
M  V30 4788 C 458.017 3.67446 3.71188 0
M  V30 4789 H 459.711 2.29482 1.92297 0
M  V30 4790 H 457.257 1.10465 0.923773 0
M  V30 4791 H 459.21 1.12536 4.06096 0
M  V30 4792 H 457.934 0.174102 3.26136 0
M  V30 4793 H 456.593 2.27174 2.87728 0
M  V30 4794 H 456.241 0.91206 4.94662 0
M  V30 4795 H 455.941 2.64193 5.24858 0
M  V30 4796 H 457.465 1.89367 5.80493 0
M  V30 4797 H 458.879 3.67719 4.39836 0
M  V30 4798 H 457.276 4.40123 4.07936 0
M  V30 4799 H 458.346 4.01443 2.71977 0
M  V30 4800 N 459.689 -1.00246 1.21608 0
M  V30 4801 C 460.599 -2.12515 0.993709 0
M  V30 4802 C 461.615 -1.73913 -0.0549939 0
M  V30 4803 O 462.791 -2.00943 0.135619 0
M  V30 4804 C 459.856 -3.42083 0.563953 0
M  V30 4805 C 458.917 -3.94843 1.68516 0
M  V30 4806 C 458.15 -5.18226 1.27582 0
M  V30 4807 O 458.373 -5.70201 0.150506 0
M  V30 4808 O 457.307 -5.64497 2.0887 0
M  V30 4809 H 461.133 -2.34152 1.93407 0
M  V30 4810 H 458.718 -1.10891 1.00118 0
M  V30 4811 H 460.6 -4.20073 0.334194 0
M  V30 4812 H 459.275 -3.21828 -0.347665 0
M  V30 4813 H 458.182 -3.18068 1.96935 0
M  V30 4814 H 459.515 -4.19512 2.5743 0
M  V30 4815 N 461.167 -1.02423 -1.1978 0
M  V30 4816 C 462.416 -0.713265 -1.88667 0
M  V30 4817 C 462.729 0.7609 -1.80193 0
M  V30 4818 O 463.935 1.18473 -2.44288 0
M  V30 4819 C 462.391 -1.22545 -3.38394 0
M  V30 4820 C 461.999 -2.72706 -3.55437 0
M  V30 4821 C 463.743 -0.990257 -4.12788 0
M  V30 4822 C 461.65 -3.17367 -4.99031 0
M  V30 4823 H 460.58 -0.263105 -0.706606 0
M  V30 4824 H 463.231 -1.23792 -1.35454 0
M  V30 4825 H 461.613 -0.628732 -3.90977 0
M  V30 4826 H 462.787 -3.37993 -3.13205 0
M  V30 4827 H 461.102 -2.94453 -2.94425 0
M  V30 4828 H 463.699 -1.29926 -5.18675 0
M  V30 4829 H 464.042 0.0730761 -4.16236 0
M  V30 4830 H 464.575 -1.55074 -3.66329 0
M  V30 4831 H 461.314 -4.23009 -5.00743 0
M  V30 4832 H 460.834 -2.56805 -5.42044 0
M  V30 4833 H 462.513 -3.10441 -5.67658 0
M  V30 4834 N 462.645 1.35699 -0.801477 0
M  V30 4835 C 463.608 2.28199 -0.213994 0
M  V30 4836 C 464.608 1.49359 0.595691 0
M  V30 4837 O 465.798 1.69186 0.414921 0
M  V30 4838 C 462.93 3.33587 0.702297 0
M  V30 4839 H 464.123 2.81666 -1.02976 0
M  V30 4840 H 461.676 1.45467 -0.571759 0
M  V30 4841 H 462.411 2.85297 1.54195 0
M  V30 4842 H 462.196 3.91906 0.123484 0
M  V30 4843 H 463.686 4.02638 1.10783 0
M  V30 4844 N 464.123 0.554532 1.47522 0
M  V30 4845 C 465.539 0.214107 1.58157 0
M  V30 4846 C 465.739 -1.28331 1.55349 0
M  V30 4847 O 464.795 -2.06329 1.45549 0
M  V30 4848 C 466.108 0.838391 2.88776 0
M  V30 4849 C 467.656 0.809374 3.02354 0
M  V30 4850 C 468.131 1.41268 4.35669 0
M  V30 4851 N 469.622 1.37574 4.42298 0
M  V30 4852 C 470.357 1.8122 5.4401 0
M  V30 4853 N 469.853 2.3271 6.52547 0
M  V30 4854 N 471.646 1.72307 5.35039 0
M  V30 4855 H 463.797 1.52744 1.4759 0
M  V30 4856 H 466.06 0.636812 0.702264 0
M  V30 4857 H 465.766 1.89065 2.96559 0
M  V30 4858 H 465.64 0.329847 3.75755 0
M  V30 4859 H 468.027 -0.234187 2.94169 0
M  V30 4860 H 468.108 1.35565 2.16924 0
M  V30 4861 H 467.752 2.45529 4.4461 0
M  V30 4862 H 467.682 0.841871 5.19827 0
M  V30 4863 H 470.173 0.999081 3.64454 0
M  V30 4864 H 470.486 2.63944 7.26329 0
M  V30 4865 H 468.831 2.36719 6.53444 0
M  V30 4866 H 472.022 1.3186 4.49144 0
M  V30 4867 H 472.195 2.06641 6.14169 0
M  V30 4868 N 465.601 -1.54893 0.290851 0
M  V30 4869 C 466.85 -1.99111 -0.322113 0
M  V30 4870 C 467.163 -1.18283 -1.55784 0
M  V30 4871 O 468.369 -1.5272 -2.24475 0
M  V30 4872 C 466.825 -3.54442 -0.624438 0
M  V30 4873 C 466.433 -4.44066 0.592373 0
M  V30 4874 C 468.177 -4.07211 -1.19916 0
M  V30 4875 C 466.084 -5.90812 0.263762 0
M  V30 4876 H 465.014 -0.743712 -0.124133 0
M  V30 4877 H 467.665 -1.79132 0.39797 0
M  V30 4878 H 466.047 -3.70281 -1.40384 0
M  V30 4879 H 467.221 -4.39999 1.36886 0
M  V30 4880 H 465.536 -4.02015 1.08502 0
M  V30 4881 H 468.133 -5.14407 -1.45909 0
M  V30 4882 H 468.476 -3.57196 -2.13815 0
M  V30 4883 H 469.009 -3.94873 -0.481687 0
M  V30 4884 H 465.748 -6.44955 1.17105 0
M  V30 4885 H 465.268 -5.97911 -0.475655 0
M  V30 4886 H 466.947 -6.46852 -0.138354 0
M  V30 4887 N 467.08 -0.0183926 -1.57589 0
M  V30 4888 C 468.01 0.965596 -2.12599 0
M  V30 4889 C 468.991 1.34641 -1.0395 0
M  V30 4890 O 470.176 1.42693 -1.31729 0
M  V30 4891 C 467.306 2.25149 -2.64434 0
M  V30 4892 C 466.26 2.01175 -3.77773 0
M  V30 4893 C 465.586 3.35937 -4.15994 0
M  V30 4894 C 466.886 1.35953 -5.04296 0
M  V30 4895 H 468.58 0.507504 -2.95067 0
M  V30 4896 H 466.126 0.242671 -1.41941 0
M  V30 4897 H 468.079 2.94357 -3.01549 0
M  V30 4898 H 466.803 2.73105 -1.79112 0
M  V30 4899 H 465.462 1.34388 -3.4108 0
M  V30 4900 H 465.11 3.81631 -3.27669 0
M  V30 4901 H 464.81 3.20705 -4.92364 0
M  V30 4902 H 466.334 4.0643 -4.55683 0
M  V30 4903 H 467.748 1.95144 -5.39065 0
M  V30 4904 H 466.145 1.31152 -5.85593 0
M  V30 4905 H 467.215 0.331071 -4.83768 0
M  V30 4906 N 468.558 1.5553 0.254621 0
M  V30 4907 C 469.806 1.7665 0.981793 0
M  V30 4908 C 470.127 0.580963 1.86145 0
M  V30 4909 O 469.397 -0.403537 1.91699 0
M  V30 4910 H 467.977 0.651475 0.365498 0
M  V30 4911 H 470.639 1.92958 0.274426 0
M  V30 4912 H 469.735 2.67486 1.60802 0
M  V30 4913 N 470.036 -0.519951 1.48776 0
M  V30 4914 C 470.983 -1.62352 1.64044 0
M  V30 4915 C 471.953 -1.58945 0.482251 0
M  V30 4916 O 473.138 -1.77219 0.706971 0
M  V30 4917 C 470.278 -3.00579 1.69547 0
M  V30 4918 C 469.391 -3.14145 2.96541 0
M  V30 4919 C 468.526 -4.42991 2.93142 0
M  V30 4920 C 467.565 -4.50122 4.14797 0
M  V30 4921 N 466.702 -5.7037 4.09418 0
M  V30 4922 H 471.542 -1.48643 2.58281 0
M  V30 4923 H 469.079 -0.723516 1.28077 0
M  V30 4924 H 471.037 -3.80671 1.70719 0
M  V30 4925 H 469.667 -3.13036 0.787918 0
M  V30 4926 H 468.719 -2.27239 3.05068 0
M  V30 4927 H 470.031 -3.15275 3.86527 0
M  V30 4928 H 469.185 -5.31385 2.92772 0
M  V30 4929 H 467.924 -4.44398 2.00902 0
M  V30 4930 H 466.929 -3.60133 4.15433 0
M  V30 4931 H 468.154 -4.50445 5.08208 0
M  V30 4932 H 466.1 -5.72655 3.20004 0
M  V30 4933 H 466.017 -5.73036 4.93119 0
M  V30 4934 H 467.285 -6.61023 4.13121 0
M  V30 4935 N 471.514 -1.37532 -0.769588 0
M  V30 4936 C 472.925 -1.29382 -1.346 0
M  V30 4937 C 473.276 0.0576039 -1.96115 0
M  V30 4938 O 472.401 0.95947 -1.93967 0
M  V30 4939 C 472.996 -2.34298 -2.44724 0
M  V30 4940 C 471.555 -2.29776 -2.98128 0
M  V30 4941 C 470.702 -2.18013 -1.71364 0
M  V30 4942 H 473.653 -1.48123 -0.56968 0
M  V30 4943 H 473.674 -1.99089 -3.24259 0
M  V30 4944 H 473.186 -3.32645 -1.99922 0
M  V30 4945 H 471.287 -1.34959 -3.47299 0
M  V30 4946 H 471.4 -3.23276 -3.53595 0
M  V30 4947 H 469.764 -1.64595 -1.94372 0
M  V30 4948 H 470.547 -3.18278 -1.28662 0
M  V30 4949 N 472.992 0.995999 -1.22138 0
M  V30 4950 C 474.222 1.76809 -1.06874 0
M  V30 4951 C 474.63 1.85265 0.383866 0
M  V30 4952 O 473.973 1.31969 1.27789 0
M  V30 4953 C 474.035 3.2186 -1.60144 0
M  V30 4954 C 473.699 3.36958 -3.0872 0
M  V30 4955 C 474.696 3.2452 -4.0618 0
M  V30 4956 C 472.381 3.62109 -3.48112 0
M  V30 4957 C 474.375 3.37013 -5.41019 0
M  V30 4958 C 472.062 3.74243 -4.831 0
M  V30 4959 C 473.06 3.61702 -5.79362 0
M  V30 4960 O 472.748 3.73436 -7.119 0
M  V30 4961 H 472.48 0.562207 -0.375365 0
M  V30 4962 H 475.034 1.26113 -1.62125 0
M  V30 4963 H 473.264 3.73734 -0.992981 0
M  V30 4964 H 474.953 3.80775 -1.40589 0
M  V30 4965 H 475.719 3.05004 -3.77091 0
M  V30 4966 H 471.598 3.70949 -2.73712 0
M  V30 4967 H 475.142 3.27141 -6.16137 0
M  V30 4968 H 471.039 3.93266 -5.11872 0
M  V30 4969 H 471.807 3.90328 -7.19435 0
M  V30 4970 N 474.47 1.03057 1.19235 0
M  V30 4971 C 475.886 0.747947 1.40989 0
M  V30 4972 C 476.086 -0.666752 1.90149 0
M  V30 4973 O 475.142 -1.43249 2.07933 0
M  V30 4974 C 476.455 1.7855 2.41951 0
M  V30 4975 C 478.003 1.80524 2.55695 0
M  V30 4976 C 478.478 2.83243 3.59913 0
M  V30 4977 N 479.969 2.8207 3.67411 0
M  V30 4978 C 480.704 3.58204 4.47747 0
M  V30 4979 N 480.2 4.44057 5.31775 0
M  V30 4980 N 481.993 3.46738 4.42413 0
M  V30 4981 H 474.144 1.94367 0.856468 0
M  V30 4982 H 476.407 0.840412 0.438647 0
M  V30 4983 H 476.113 2.79973 2.12857 0
M  V30 4984 H 475.987 1.6092 3.41152 0
M  V30 4985 H 478.374 0.79778 2.84112 0
M  V30 4986 H 478.455 2.02229 1.56643 0
M  V30 4987 H 478.099 3.84161 3.32239 0
M  V30 4988 H 478.029 2.58795 4.5862 0
M  V30 4989 H 480.52 2.19803 3.074 0
M  V30 4990 H 480.833 4.98884 5.90199 0
M  V30 4991 H 479.178 4.48129 5.3123 0
M  V30 4992 H 482.369 2.79077 3.75811 0
M  V30 4993 H 482.542 4.06322 5.04783 0
M  V30 4994 N 475.948 -1.35272 0.808662 0
M  V30 4995 C 476.88 -2.28507 0.178149 0
M  V30 4996 C 477.893 -1.50377 -0.623754 0
M  V30 4997 O 479.082 -1.72583 -0.455774 0
M  V30 4998 C 476.182 -3.30038 -0.769959 0
M  V30 4999 C 475.355 -4.37398 -0.0139749 0
M  V30 5000 C 474.414 -5.18775 -0.880875 0
M  V30 5001 O 473.44 -5.68236 -0.331059 0
M  V30 5002 N 474.642 -5.37087 -2.20267 0
M  V30 5003 H 477.407 -2.83255 0.979106 0
M  V30 5004 H 474.968 -1.47643 0.664308 0
M  V30 5005 H 476.96 -3.81371 -1.35418 0
M  V30 5006 H 475.53 -2.75789 -1.47171 0
M  V30 5007 H 474.75 -3.86971 0.751468 0
M  V30 5008 H 476.038 -5.06268 0.506965 0
M  V30 5009 H 475.436 -4.9855 -2.67328 0
M  V30 5010 H 473.993 -5.91593 -2.73608 0
M  V30 5011 N 477.426 -0.562348 -1.47226 0
M  V30 5012 C 478.674 -0.0401371 -2.0206 0
M  V30 5013 C 478.995 1.3165 -1.43852 0
M  V30 5014 O 478.265 1.85976 -0.615599 0
M  V30 5015 H 476.845 -0.0118479 -0.746906 0
M  V30 5016 H 479.507 -0.73352 -1.8057 0
M  V30 5017 H 478.603 0.0441254 -3.12069 0
M  V30 5018 N 478.904 1.54736 -0.299062 0
M  V30 5019 C 480.151 2.00101 0.310784 0
M  V30 5020 C 480.479 1.18746 1.54045 0
M  V30 5021 O 479.734 0.251198 1.94081 0
M  V30 5022 C 480.033 3.50199 0.713835 0
M  V30 5023 C 479.699 4.48997 -0.413873 0
M  V30 5024 C 478.361 4.7573 -0.723462 0
M  V30 5025 C 480.713 5.07839 -1.17257 0
M  V30 5026 C 478.041 5.5857 -1.79491 0
M  V30 5027 C 480.393 5.91844 -2.23392 0
M  V30 5028 C 479.057 6.16889 -2.54959 0
M  V30 5029 H 478.327 0.732221 0.113724 0
M  V30 5030 H 480.974 1.86888 -0.417756 0
M  V30 5031 H 479.279 3.61012 1.52243 0
M  V30 5032 H 480.976 3.82723 1.19684 0
M  V30 5033 H 477.566 4.28292 -0.162476 0
M  V30 5034 H 481.75 4.87188 -0.946651 0
M  V30 5035 H 477.006 5.76213 -2.04423 0
M  V30 5036 H 481.18 6.36465 -2.8264 0
M  V30 5037 H 478.807 6.80869 -3.38114 0
M  V30 5038 N 480.382 0.0267497 1.57577 0
M  V30 5039 C 481.628 -0.653371 1.91987 0
M  V30 5040 C 481.961 -1.71915 0.903263 0
M  V30 5041 O 481.236 -1.94358 -0.0743387 0
M  V30 5042 C 481.519 -1.272 3.36886 0
M  V30 5043 C 481.372 -0.215938 4.49281 0
M  V30 5044 C 482.691 -2.19069 3.81703 0
M  V30 5045 H 479.81 -0.236047 0.698177 0
M  V30 5046 H 482.452 0.0835236 1.89816 0
M  V30 5047 H 480.602 -1.90005 3.38866 0
M  V30 5048 H 482.274 0.41449 4.59434 0
M  V30 5049 H 480.517 0.458855 4.31366 0
M  V30 5050 H 481.188 -0.688347 5.47691 0
M  V30 5051 H 483.664 -1.66253 3.81444 0
M  V30 5052 H 482.54 -2.59307 4.83788 0
M  V30 5053 H 482.801 -3.08087 3.17072 0
M  V30 5054 N 481.861 -1.55662 -0.24637 0
M  V30 5055 C 482.808 -1.90361 -1.30504 0
M  V30 5056 C 483.778 -0.757905 -1.47801 0
M  V30 5057 O 484.963 -1.01161 -1.61775 0
M  V30 5058 C 482.103 -2.2042 -2.65535 0
M  V30 5059 C 481.216 -3.47799 -2.56242 0
M  V30 5060 C 480.351 -3.67426 -3.8363 0
M  V30 5061 C 479.39 -4.88403 -3.68956 0
M  V30 5062 N 478.527 -5.04548 -4.88237 0
M  V30 5063 H 483.367 -2.80645 -1.00213 0
M  V30 5064 H 480.904 -1.38924 -0.483577 0
M  V30 5065 H 482.862 -2.35853 -3.44135 0
M  V30 5066 H 481.492 -1.3334 -2.93973 0
M  V30 5067 H 480.544 -3.40694 -1.69208 0
M  V30 5068 H 481.856 -4.36544 -2.4131 0
M  V30 5069 H 481.01 -3.82821 -4.70673 0
M  V30 5070 H 479.749 -2.76914 -4.01459 0
M  V30 5071 H 478.754 -4.72984 -2.80296 0
M  V30 5072 H 479.979 -5.80375 -3.52621 0
M  V30 5073 H 477.925 -4.16974 -5.06427 0
M  V30 5074 H 477.842 -5.87384 -4.75937 0
M  V30 5075 H 479.11 -5.24355 -5.76777 0
M  V30 5076 N 483.339 0.512053 -1.4905 0
M  V30 5077 C 484.287 1.63568 -1.65373 0
M  V30 5078 C 485.281 1.61228 -0.519806 0
M  V30 5079 O 486.487 1.65869 -0.699101 0
M  V30 5080 H 482.862 0.542019 -0.521267 0
M  V30 5081 H 484.833 1.4695 -2.59708 0
M  V30 5082 C 483.582 3.01761 -1.7273 0
M  V30 5083 H 482.905 3.04263 -2.59353 0
M  V30 5084 H 484.345 3.79948 -1.8819 0
M  V30 5085 C 482.804 3.33609 -0.46973 0
M  V30 5086 O 483.334 3.99607 0.409492 0
M  V30 5087 N 481.54 2.88651 -0.336003 0
M  V30 5088 H 481.087 2.35119 -1.05247 0
M  V30 5089 H 481.045 3.10328 0.504363 0
M  V30 5090 N 484.817 1.37938 0.762283 0
M  V30 5091 C 486.233 1.18945 1.06415 0
M  V30 5092 C 486.433 0.0321163 2.01474 0
M  V30 5093 O 485.489 -0.624844 2.44647 0
M  V30 5094 C 486.802 2.51218 1.65258 0
M  V30 5095 C 488.35 2.57824 1.7747 0
M  V30 5096 C 488.825 3.90251 2.39725 0
M  V30 5097 N 490.316 3.91744 2.47166 0
M  V30 5098 C 491.051 4.90966 2.96209 0
M  V30 5099 N 490.547 6.00585 3.45354 0
M  V30 5100 N 492.34 4.78363 2.9517 0
M  V30 5101 H 484.491 2.11994 0.131301 0
M  V30 5102 H 486.754 0.940262 0.120879 0
M  V30 5103 H 486.46 3.36317 1.02878 0
M  V30 5104 H 486.334 2.68989 2.64433 0
M  V30 5105 H 488.721 1.73126 2.3898 0
M  V30 5106 H 488.802 2.43928 0.770241 0
M  V30 5107 H 488.446 4.75368 1.78852 0
M  V30 5108 H 488.376 4.01454 3.40796 0
M  V30 5109 H 490.867 3.12563 2.12397 0
M  V30 5110 H 491.18 6.72236 3.81207 0
M  V30 5111 H 489.525 6.04217 3.43434 0
M  V30 5112 H 492.716 3.91841 2.56082 0
M  V30 5113 H 492.889 5.55843 3.33081 0
M  V30 5114 N 486.295 -0.989507 1.22664 0
M  V30 5115 C 487.525 -1.7624 1.0781 0
M  V30 5116 C 487.933 -1.85466 -0.374036 0
M  V30 5117 O 487.276 -1.32645 -1.27087 0
M  V30 5118 C 487.338 -3.21007 1.61849 0
M  V30 5119 C 487.002 -3.35316 3.10503 0
M  V30 5120 C 487.999 -3.22362 4.07896 0
M  V30 5121 C 485.684 -3.60258 3.50028 0
M  V30 5122 C 487.678 -3.34139 5.42798 0
M  V30 5123 C 485.365 -3.71676 4.85078 0
M  V30 5124 C 486.363 -3.58625 5.81272 0
M  V30 5125 O 486.051 -3.69655 7.1387 0
M  V30 5126 H 485.783 -0.560209 0.378341 0
M  V30 5127 H 488.337 -1.25252 1.62792 0
M  V30 5128 H 486.567 -3.73202 1.01279 0
M  V30 5129 H 488.256 -3.80024 1.42606 0
M  V30 5130 H 489.022 -3.03 3.78703 0
M  V30 5131 H 484.901 -3.69492 2.75675 0
M  V30 5132 H 488.445 -3.23869 6.17863 0
M  V30 5133 H 484.342 -3.90545 5.1395 0
M  V30 5134 H 485.11 -3.86507 7.21495 0
M  V30 5135 N 487.773 -1.03688 -1.18687 0
M  V30 5136 C 489.019 -0.739123 -1.88851 0
M  V30 5137 C 489.352 0.731042 -1.79915 0
M  V30 5138 O 488.627 1.53313 -1.19688 0
M  V30 5139 C 488.91 -1.20106 -3.3948 0
M  V30 5140 C 488.763 -2.73304 -3.57246 0
M  V30 5141 C 490.082 -0.788134 -4.32986 0
M  V30 5142 H 487.201 -0.269978 -0.68577 0
M  V30 5143 H 489.843 -1.28822 -1.3966 0
M  V30 5144 H 487.993 -0.733915 -3.81505 0
M  V30 5145 H 489.665 -3.28027 -3.24339 0
M  V30 5146 H 487.908 -3.13313 -3.00029 0
M  V30 5147 H 488.579 -3.00684 -4.62918 0
M  V30 5148 H 491.055 -1.19005 -3.98719 0
M  V30 5149 H 489.931 -1.13915 -5.36949 0
M  V30 5150 H 490.192 0.308988 -4.41019 0
M  V30 5151 N 489.251 1.34841 -0.815825 0
M  V30 5152 C 490.499 1.98107 -0.399744 0
M  V30 5153 C 490.82 1.65019 1.03894 0
M  V30 5154 O 490.09 0.937311 1.72021 0
M  V30 5155 H 488.67 0.732827 -0.144823 0
M  V30 5156 H 491.332 1.64599 -1.0437 0
M  V30 5157 H 490.428 3.07856 -0.512965 0
M  V30 5158 N 490.729 0.570148 1.46925 0
M  V30 5159 C 492.145 0.23087 1.57921 0
M  V30 5160 C 492.345 -1.26676 1.56702 0
M  V30 5161 O 491.401 -2.04774 1.47729 0
M  V30 5162 C 492.714 0.868973 2.8787 0
M  V30 5163 C 494.262 0.841397 3.01479 0
M  V30 5164 C 494.737 1.45881 4.34146 0
M  V30 5165 N 496.228 1.42258 4.40814 0
M  V30 5166 C 496.963 1.8698 5.42057 0
M  V30 5167 N 496.459 2.39618 6.50042 0
M  V30 5168 N 498.252 1.77972 5.33181 0
M  V30 5169 H 490.403 1.54301 1.45962 0
M  V30 5170 H 492.666 0.644224 0.69547 0
M  V30 5171 H 492.372 1.922 2.94537 0
M  V30 5172 H 492.246 0.369682 3.75384 0
M  V30 5173 H 494.633 -0.202973 2.94401 0
M  V30 5174 H 494.714 1.37858 2.15474 0
M  V30 5175 H 494.358 2.50231 4.4198 0
M  V30 5176 H 494.288 0.896958 5.18905 0
M  V30 5177 H 496.779 1.03768 3.63374 0
M  V30 5178 H 497.092 2.71633 7.23488 0
M  V30 5179 H 495.437 2.43636 6.50897 0
M  V30 5180 H 498.628 1.36617 4.4772 0
M  V30 5181 H 498.801 2.13143 6.11943 0
M  V30 5182 N 492.207 -1.54576 0.307264 0
M  V30 5183 C 493.435 -2.04675 -0.302597 0
M  V30 5184 C 493.85 -1.18425 -1.47041 0
M  V30 5185 O 493.207 -0.211257 -1.81273 0
M  V30 5186 C 493.258 -3.53575 -0.752801 0
M  V30 5187 O 492.979 -4.36547 0.368536 0
M  V30 5188 C 494.48 -4.19699 -1.42717 0
M  V30 5189 H 491.7 -0.66786 -0.0648374 0
M  V30 5190 H 494.244 -1.99516 0.448716 0
M  V30 5191 H 492.399 -3.59074 -1.45412 0
M  V30 5192 H 492.813 -5.24497 0.0168937 0
M  V30 5193 H 494.287 -5.25388 -1.69327 0
M  V30 5194 H 494.764 -3.69815 -2.36925 0
M  V30 5195 H 495.37 -4.18293 -0.768856 0
M  V30 5196 N 493.685 -0.035106 -1.57561 0
M  V30 5197 C 494.932 0.642229 -1.92046 0
M  V30 5198 C 495.26 1.7179 -0.91206 0
M  V30 5199 O 494.515 1.95544 0.0781153 0
M  V30 5200 C 494.814 1.29149 -3.3325 0
M  V30 5201 C 494.48 0.345604 -4.49574 0
M  V30 5202 C 493.142 0.0852775 -4.81124 0
M  V30 5203 C 495.494 -0.303569 -5.20315 0
M  V30 5204 C 492.822 -0.831927 -5.80772 0
M  V30 5205 C 495.174 -1.20886 -6.20942 0
M  V30 5206 C 493.838 -1.47802 -6.50931 0
M  V30 5207 H 493.108 0.235008 -0.702746 0
M  V30 5208 H 495.755 -0.0981529 -1.91248 0
M  V30 5209 H 494.06 2.10676 -3.30337 0
M  V30 5210 H 495.757 1.82223 -3.57205 0
M  V30 5211 H 492.347 0.558683 -4.24943 0
M  V30 5212 H 496.531 -0.115515 -4.96166 0
M  V30 5213 H 491.787 -1.0481 -6.02349 0
M  V30 5214 H 495.961 -1.71804 -6.74875 0
M  V30 5215 H 493.588 -2.19039 -7.2796 0
M  V30 5216 N 495.163 1.55791 0.238111 0
M  V30 5217 C 496.412 1.77234 0.962868 0
M  V30 5218 C 496.725 0.600661 1.86149 0
M  V30 5219 O 497.931 0.698315 2.62366 0
M  V30 5220 C 496.387 3.13808 1.76218 0
M  V30 5221 C 495.995 4.3865 0.910518 0
M  V30 5222 C 497.739 3.44585 2.47914 0
M  V30 5223 C 495.646 5.66252 1.70623 0
M  V30 5224 H 494.576 0.660731 0.36325 0
M  V30 5225 H 497.227 1.8221 0.217242 0
M  V30 5226 H 495.609 3.02963 2.55009 0
M  V30 5227 H 496.783 4.60507 0.164316 0
M  V30 5228 H 495.098 4.15271 0.30647 0
M  V30 5229 H 497.695 4.3714 3.07917 0
M  V30 5230 H 498.038 2.66314 3.19973 0
M  V30 5231 H 498.571 3.56685 1.76127 0
M  V30 5232 H 495.31 6.47369 1.02923 0
M  V30 5233 H 494.83 5.48483 2.42748 0
M  V30 5234 H 496.509 6.05829 2.27114 0
M  V30 5235 N 496.642 -0.504142 1.49319 0
M  V30 5236 C 497.575 -1.62361 1.60356 0
M  V30 5237 C 498.553 -1.56169 0.45277 0
M  V30 5238 O 499.737 -1.76271 0.667892 0
M  V30 5239 C 496.864 -3.00864 1.55559 0
M  V30 5240 C 495.91 -3.25328 2.75797 0
M  V30 5241 S 496.743 -3.08791 4.37503 0
M  V30 5242 C 497.899 -4.49695 4.35345 0
M  V30 5243 H 498.132 -1.52753 2.55056 0
M  V30 5244 H 495.665 -0.689065 1.38171 0
M  V30 5245 H 497.623 -3.8073 1.53477 0
M  V30 5246 H 496.284 -3.0789 0.621515 0
M  V30 5247 H 495.477 -4.2643 2.68651 0
M  V30 5248 H 495.079 -2.53179 2.75275 0
M  V30 5249 H 497.371 -5.41721 4.06871 0
M  V30 5250 H 498.314 -4.61891 5.36714 0
M  V30 5251 H 498.722 -4.30227 3.65465 0
M  V30 5252 N 498.12 -1.38341 -0.754957 0
M  V30 5253 C 499.531 -1.30803 -1.3322 0
M  V30 5254 C 499.882 0.0368 -1.96165 0
M  V30 5255 O 499.007 0.938844 -1.94974 0
M  V30 5256 C 499.602 -2.3688 -2.42225 0
M  V30 5257 C 498.161 -2.32925 -2.95674 0
M  V30 5258 C 497.308 -2.19819 -1.69042 0
M  V30 5259 H 500.259 -1.48719 -0.553937 0
M  V30 5260 H 500.28 -2.02517 -3.22129 0
M  V30 5261 H 499.792 -3.34747 -1.96383 0
M  V30 5262 H 497.893 -1.38635 -3.45848 0
M  V30 5263 H 498.006 -3.27008 -3.50146 0
M  V30 5264 H 496.37 -1.66648 -1.92615 0
M  V30 5265 H 497.153 -3.19625 -1.25279 0
M  V30 5266 N 499.598 0.982988 -1.23187 0
M  V30 5267 C 500.846 1.72052 -1.06031 0
M  V30 5268 C 501.167 1.90769 0.404019 0
M  V30 5269 O 500.437 1.47446 1.28982 0
M  V30 5270 H 499.017 0.637499 -0.389363 0
M  V30 5271 H 501.679 1.18338 -1.54862 0
M  V30 5272 H 500.775 2.7111 -1.54615 0
M  V30 5273 N 501.076 1.04316 1.18135 0
M  V30 5274 C 502.008 0.594444 2.21357 0
M  V30 5275 C 503.021 -0.337215 1.59269 0
M  V30 5276 O 504.21 -0.131337 1.78016 0
M  V30 5277 C 501.31 -0.151251 3.38562 0
M  V30 5278 C 500.483 0.788907 4.30227 0
M  V30 5279 C 499.542 0.0860572 5.2613 0
M  V30 5280 O 498.568 0.717302 5.64662 0
M  V30 5281 N 499.77 -1.17969 5.68387 0
M  V30 5282 H 502.535 1.48227 2.60478 0
M  V30 5283 H 500.096 0.92396 1.32946 0
M  V30 5284 H 502.088 -0.631352 3.99745 0
M  V30 5285 H 500.658 -0.940639 2.98112 0
M  V30 5286 H 499.878 1.44882 3.6661 0
M  V30 5287 H 501.166 1.42738 4.88368 0
M  V30 5288 H 500.564 -1.71302 5.3914 0
M  V30 5289 H 499.121 -1.60402 6.31755 0
M  V30 5290 N 502.554 -1.34406 0.822964 0
M  V30 5291 C 503.486 -2.28305 0.202375 0
M  V30 5292 C 504.499 -1.5103 -0.60777 0
M  V30 5293 O 505.688 -1.73057 -0.437444 0
M  V30 5294 C 502.788 -3.30836 -0.734911 0
M  V30 5295 C 501.961 -4.37388 0.0324177 0
M  V30 5296 C 501.02 -5.1968 -0.825803 0
M  V30 5297 O 500.046 -5.68556 -0.270771 0
M  V30 5298 N 501.248 -5.39393 -2.14558 0
M  V30 5299 H 504.013 -2.82201 1.00909 0
M  V30 5300 H 501.574 -1.4693 0.67993 0
M  V30 5301 H 503.566 -3.82786 -1.31365 0
M  V30 5302 H 502.136 -2.77334 -1.44238 0
M  V30 5303 H 501.356 -3.86152 0.792469 0
M  V30 5304 H 502.644 -5.05702 0.560633 0
M  V30 5305 H 502.042 -5.01357 -2.62025 0
M  V30 5306 H 500.599 -5.94461 -2.67318 0
M  V30 5307 N 504.032 -0.577932 -1.46621 0
M  V30 5308 C 504.962 0.145917 -2.33044 0
M  V30 5309 C 505.943 0.888412 -1.45056 0
M  V30 5310 O 507.128 0.864812 -1.73881 0
M  V30 5311 C 504.258 1.16322 -3.27241 0
M  V30 5312 C 503.212 0.535868 -4.24632 0
M  V30 5313 C 502.538 1.65929 -5.08303 0
M  V30 5314 C 503.838 -0.523861 -5.19666 0
M  V30 5315 H 505.532 -0.575636 -2.93814 0
M  V30 5316 H 503.078 -0.278272 -1.41286 0
M  V30 5317 H 505.031 1.67793 -3.86553 0
M  V30 5318 H 503.755 1.91498 -2.64567 0
M  V30 5319 H 502.414 0.0422759 -3.66576 0
M  V30 5320 H 502.062 2.40061 -4.42018 0
M  V30 5321 H 501.762 1.2452 -5.74255 0
M  V30 5322 H 503.286 2.17686 -5.70478 0
M  V30 5323 H 504.7 -0.0944059 -5.73222 0
M  V30 5324 H 503.097 -0.858 -5.93935 0
M  V30 5325 H 504.167 -1.41197 -4.63887 0
M  V30 5326 N 505.51 1.54411 -0.315457 0
M  V30 5327 C 506.926 1.59556 0.037464 0
M  V30 5328 C 507.126 1.33217 1.5118 0
M  V30 5329 O 506.182 1.11264 2.26664 0
M  V30 5330 C 507.495 2.98372 -0.373477 0
M  V30 5331 C 509.043 3.11324 -0.323452 0
M  V30 5332 C 509.518 4.52472 -0.709433 0
M  V30 5333 N 511.009 4.58437 -0.662524 0
M  V30 5334 C 511.744 5.65751 -0.933474 0
M  V30 5335 N 511.24 6.81039 -1.27114 0
M  V30 5336 N 513.033 5.55489 -0.859573 0
M  V30 5337 H 505.184 1.6979 -1.27614 0
M  V30 5338 H 507.447 0.793732 -0.518356 0
M  V30 5339 H 507.153 3.22618 -1.40037 0
M  V30 5340 H 507.027 3.76264 0.265615 0
M  V30 5341 H 509.414 2.86818 0.694223 0
M  V30 5342 H 509.495 2.35555 -0.997367 0
M  V30 5343 H 509.139 4.7771 -1.72498 0
M  V30 5344 H 509.069 5.26598 -0.0132923 0
M  V30 5345 H 511.56 3.75636 -0.413065 0
M  V30 5346 H 511.873 7.58816 -1.46348 0
M  V30 5347 H 510.218 6.82555 -1.30932 0
M  V30 5348 H 513.409 4.64299 -0.595324 0
M  V30 5349 H 513.582 6.39036 -1.0741 0
M  V30 5350 N 506.988 0.0434614 1.5754 0
M  V30 5351 C 508.404 -0.313039 1.565 0
M  V30 5352 C 508.604 -1.71954 1.05043 0
M  V30 5353 O 507.66 -2.425 0.703564 0
M  V30 5354 C 508.973 -0.148544 3.00333 0
M  V30 5355 C 510.521 -0.220231 3.12224 0
M  V30 5356 C 510.996 -0.0843565 4.57922 0
M  V30 5357 N 512.487 -0.140881 4.62986 0
M  V30 5358 C 513.222 -0.0597443 5.73369 0
M  V30 5359 N 512.718 0.0733004 6.92761 0
M  V30 5360 N 514.511 -0.11477 5.61983 0
M  V30 5361 H 506.662 0.96303 1.89313 0
M  V30 5362 H 508.925 0.373164 0.871466 0
M  V30 5363 H 508.631 0.820894 3.41986 0
M  V30 5364 H 508.505 -0.912798 3.65989 0
M  V30 5365 H 510.892 -1.18014 2.70475 0
M  V30 5366 H 510.973 0.574646 2.49262 0
M  V30 5367 H 510.617 0.872192 5.00355 0
M  V30 5368 H 510.547 -0.898281 5.18882 0
M  V30 5369 H 513.038 -0.243273 3.77116 0
M  V30 5370 H 513.351 0.128128 7.72694 0
M  V30 5371 H 511.696 0.10828 6.94916 0
M  V30 5372 H 514.887 -0.217212 4.67596 0
M  V30 5373 H 515.06 -0.0480779 6.47982 0
M  V30 5374 N 508.466 -1.55915 -0.229846 0
M  V30 5375 C 509.413 -1.91734 -1.28478 0
M  V30 5376 C 510.383 -0.773539 -1.46988 0
M  V30 5377 O 511.568 -1.02871 -1.60693 0
M  V30 5378 C 508.708 -2.23224 -2.63182 0
M  V30 5379 C 507.821 -3.50497 -2.52539 0
M  V30 5380 C 506.956 -3.71474 -3.79711 0
M  V30 5381 C 505.995 -4.92289 -3.63755 0
M  V30 5382 N 505.132 -5.09698 -4.82858 0
M  V30 5383 H 509.972 -2.81692 -0.972308 0
M  V30 5384 H 507.509 -1.39429 -0.468815 0
M  V30 5385 H 509.467 -2.3949 -3.41614 0
M  V30 5386 H 508.097 -1.36451 -2.92542 0
M  V30 5387 H 507.149 -3.4247 -1.65585 0
M  V30 5388 H 508.461 -4.39079 -2.36666 0
M  V30 5389 H 507.615 -3.87791 -4.66586 0
M  V30 5390 H 506.354 -2.81157 -3.985 0
M  V30 5391 H 505.359 -4.7593 -2.75264 0
M  V30 5392 H 506.584 -5.84083 -3.46445 0
M  V30 5393 H 504.53 -4.22322 -5.01976 0
M  V30 5394 H 504.447 -5.92399 -4.69681 0
M  V30 5395 H 505.715 -5.30443 -5.71183 0
M  V30 5396 N 509.944 0.496216 -1.49584 0
M  V30 5397 C 511.169 1.27865 -1.63295 0
M  V30 5398 C 511.594 1.85592 -0.306156 0
M  V30 5399 O 510.952 1.66092 0.726851 0
M  V30 5400 C 511 2.38128 -2.7079 0
M  V30 5401 O 510.104 3.42108 -2.30296 0
M  V30 5402 H 509.445 0.377279 -0.546403 0
M  V30 5403 H 511.975 0.593497 -1.95803 0
M  V30 5404 H 511.985 2.8382 -2.93104 0
M  V30 5405 H 510.66 1.95479 -3.67098 0
M  V30 5406 H 509.237 3.02301 -2.18331 0
M  V30 5407 N 511.423 1.38739 0.74761 0
M  V30 5408 C 512.669 1.35475 1.50912 0
M  V30 5409 C 513.002 -0.0533093 1.94127 0
M  V30 5410 O 512.277 -1.01572 1.65871 0
M  V30 5411 C 512.56 2.31582 2.75757 0
M  V30 5412 C 512.413 3.81274 2.38642 0
M  V30 5413 C 513.732 2.25722 3.77806 0
M  V30 5414 H 510.851 0.493427 0.547447 0
M  V30 5415 H 513.493 1.69634 0.855823 0
M  V30 5416 H 511.643 2.02582 3.31501 0
M  V30 5417 H 513.315 4.20972 1.88626 0
M  V30 5418 H 511.558 3.98664 1.71025 0
M  V30 5419 H 512.229 4.4399 3.27989 0
M  V30 5420 H 514.705 2.51336 3.31616 0
M  V30 5421 H 513.581 2.95069 4.62845 0
M  V30 5422 H 513.842 1.25803 4.23823 0
M  V30 5423 N 512.901 -0.976442 1.23707 0
M  V30 5424 C 514.317 -1.24341 1.00058 0
M  V30 5425 C 514.517 -1.99315 -0.295932 0
M  V30 5426 O 513.573 -2.3123 -1.01435 0
M  V30 5427 C 514.886 -2.03909 2.21001 0
M  V30 5428 C 516.434 -2.17034 2.25534 0
M  V30 5429 C 516.909 -2.99994 3.46075 0
M  V30 5430 N 518.4 -3.07578 3.46338 0
M  V30 5431 C 519.135 -3.72104 4.36264 0
M  V30 5432 N 518.631 -4.3842 5.36432 0
M  V30 5433 N 520.424 -3.69029 4.23998 0
M  V30 5434 H 512.575 -0.47428 2.07037 0
M  V30 5435 H 514.838 -0.272167 0.908091 0
M  V30 5436 H 514.544 -1.56198 3.15111 0
M  V30 5437 H 514.418 -3.04654 2.22409 0
M  V30 5438 H 516.805 -2.63951 1.31961 0
M  V30 5439 H 516.886 -1.15664 2.28156 0
M  V30 5440 H 516.53 -2.53772 4.39957 0
M  V30 5441 H 516.46 -4.01541 3.40694 0
M  V30 5442 H 518.951 -2.60397 2.73865 0
M  V30 5443 H 519.264 -4.85447 6.013 0
M  V30 5444 H 517.609 -4.37116 5.40328 0
M  V30 5445 H 520.8 -3.16392 3.44984 0
M  V30 5446 H 520.973 -4.19034 4.94282 0
M  V30 5447 N 514.379 -1.04941 -1.1758 0
M  V30 5448 C 515.795 -0.770282 -1.39781 0
M  V30 5449 C 515.995 0.636417 -1.91186 0
M  V30 5450 O 515.051 1.39923 -2.10185 0
M  V30 5451 C 516.364 -1.82376 -2.3908 0
M  V30 5452 C 517.912 -1.84569 -2.52791 0
M  V30 5453 C 518.387 -2.88933 -3.55361 0
M  V30 5454 N 519.878 -2.8788 -3.62877 0
M  V30 5455 C 520.613 -3.65282 -4.41992 0
M  V30 5456 N 520.109 -4.52461 -5.24643 0
M  V30 5457 N 521.902 -3.53732 -4.36841 0
M  V30 5458 H 514.053 -1.95705 -0.825438 0
M  V30 5459 H 516.316 -0.847284 -0.425222 0
M  V30 5460 H 516.022 -2.83323 -2.08376 0
M  V30 5461 H 515.896 -1.66327 -3.38549 0
M  V30 5462 H 518.283 -0.842879 -2.82807 0
M  V30 5463 H 518.364 -2.04696 -1.53406 0
M  V30 5464 H 518.008 -3.89398 -3.26085 0
M  V30 5465 H 517.938 -2.66059 -4.54445 0
M  V30 5466 H 520.429 -2.24666 -3.03864 0
M  V30 5467 H 520.742 -5.08211 -5.82187 0
M  V30 5468 H 519.087 -4.56524 -5.24033 0
M  V30 5469 H 522.278 -2.85021 -3.71323 0
M  V30 5470 H 522.451 -4.14302 -4.98255 0
M  V30 5471 N 515.857 1.33968 -0.830081 0
M  V30 5472 C 516.804 2.29387 -0.255008 0
M  V30 5473 C 517.774 1.53923 0.624243 0
M  V30 5474 O 518.959 1.82262 0.564372 0
M  V30 5475 C 516.099 3.4034 0.571209 0
M  V30 5476 C 515.212 4.30729 -0.331083 0
M  V30 5477 C 514.347 5.2879 0.505389 0
M  V30 5478 C 513.386 6.10819 -0.395843 0
M  V30 5479 N 512.523 7.00948 0.401979 0
M  V30 5480 H 517.363 2.77972 -1.07404 0
M  V30 5481 H 514.9 1.36785 -0.541133 0
M  V30 5482 H 516.858 4.03361 1.06562 0
M  V30 5483 H 515.488 2.9297 1.35529 0
M  V30 5484 H 514.54 3.68507 -0.943759 0
M  V30 5485 H 515.852 4.88181 -1.02377 0
M  V30 5486 H 515.006 5.97297 1.06399 0
M  V30 5487 H 513.745 4.71894 1.23155 0
M  V30 5488 H 512.75 5.41238 -0.966529 0
M  V30 5489 H 513.975 6.69797 -1.12023 0
M  V30 5490 H 511.921 6.46512 1.11168 0
M  V30 5491 H 511.838 7.55643 -0.232167 0
M  V30 5492 H 513.106 7.73774 0.943102 0
M  V30 5493 N 517.335 0.585699 1.46312 0
M  V30 5494 C 518.265 -0.133556 2.33118 0
M  V30 5495 C 519.246 -0.880707 1.45525 0
M  V30 5496 O 520.431 -0.855579 1.74337 0
M  V30 5497 C 517.561 -1.14585 3.27853 0
M  V30 5498 C 516.515 -0.513341 4.2491 0
M  V30 5499 C 515.841 -1.63231 5.09175 0
M  V30 5500 C 517.141 0.551413 5.19381 0
M  V30 5501 H 518.835 0.59121 2.93505 0
M  V30 5502 H 516.381 0.285761 1.41136 0
M  V30 5503 H 518.334 -1.65741 3.87438 0
M  V30 5504 H 517.058 -1.90093 2.65579 0
M  V30 5505 H 515.717 -0.0228349 3.66593 0
M  V30 5506 H 515.365 -2.37713 4.43285 0
M  V30 5507 H 515.065 -1.21473 5.74907 0
M  V30 5508 H 516.589 -2.14658 5.71624 0
M  V30 5509 H 518.003 0.124804 5.73164 0
M  V30 5510 H 516.4 0.889486 5.93471 0
M  V30 5511 H 517.47 1.43655 4.63132 0
M  V30 5512 N 518.813 -1.54241 0.323641 0
M  V30 5513 C 519.761 -2.25813 -0.557804 0
M  V30 5514 C 520.755 -1.27225 -1.11849 0
M  V30 5515 O 521.961 -1.45001 -1.06652 0
M  V30 5516 H 518.336 -0.72532 -0.198532 0
M  V30 5517 H 520.307 -2.98322 0.0681112 0
M  V30 5518 C 519.056 -3.02913 -1.70701 0
M  V30 5519 H 518.379 -3.78593 -1.28482 0
M  V30 5520 H 519.819 -3.56238 -2.29935 0
M  V30 5521 C 518.278 -2.11217 -2.62467 0
M  V30 5522 O 518.808 -1.69508 -3.64184 0
M  V30 5523 N 517.014 -1.76704 -2.30703 0
M  V30 5524 H 516.561 -2.1082 -1.48029 0
M  V30 5525 H 516.519 -1.15631 -2.92364 0
M  V30 5526 N 520.291 -0.0518155 -1.57515 0
M  V30 5527 C 521.254 0.907547 -2.10467 0
M  V30 5528 C 522.254 1.23947 -1.02439 0
M  V30 5529 O 523.444 1.17604 -1.2851 0
M  V30 5530 C 520.576 2.21723 -2.58944 0
M  V30 5531 H 521.769 0.44851 -2.96527 0
M  V30 5532 H 519.322 0.196598 -1.55059 0
M  V30 5533 H 520.057 2.72206 -1.76279 0
M  V30 5534 H 519.842 1.98935 -3.37886 0
M  V30 5535 H 521.332 2.90441 -3.00056 0
M  V30 5536 N 521.769 1.56035 0.221574 0
M  V30 5537 C 522.717 1.93269 1.29421 0
M  V30 5538 C 523.711 0.814727 1.48521 0
M  V30 5539 O 524.917 0.999559 1.49696 0
M  V30 5540 H 521.292 0.614188 0.43391 0
M  V30 5541 H 523.263 2.82773 0.952987 0
M  V30 5542 C 522.012 2.26573 2.63742 0
M  V30 5543 H 521.335 3.12112 2.49853 0
M  V30 5544 H 522.775 2.5651 3.37607 0
M  V30 5545 C 521.234 1.09086 3.1875 0
M  V30 5546 O 521.764 0.351985 4.00155 0
M  V30 5547 N 519.97 0.874693 2.77124 0
M  V30 5548 H 519.517 1.47726 2.11033 0
M  V30 5549 H 519.475 0.0903349 3.1427 0
M  V30 5550 N 523.247 -0.488276 1.49845 0
M  V30 5551 C 524.663 -0.820566 1.3689 0
M  V30 5552 C 524.863 -1.97248 0.411752 0
M  V30 5553 O 523.919 -2.52042 -0.151931 0
M  V30 5554 C 525.232 -1.1488 2.77891 0
M  V30 5555 C 526.78 -1.25626 2.86683 0
M  V30 5556 C 527.255 -1.61772 4.28479 0
M  V30 5557 N 528.746 -1.68797 4.31349 0
M  V30 5558 C 529.481 -1.98235 5.38043 0
M  V30 5559 N 528.977 -2.2581 6.54967 0
M  V30 5560 N 530.77 -1.99593 5.2547 0
M  V30 5561 H 522.921 0.271123 2.10662 0
M  V30 5562 H 525.184 0.058735 0.946179 0
M  V30 5563 H 524.89 -0.375614 3.49688 0
M  V30 5564 H 524.764 -2.08919 3.14058 0
M  V30 5565 H 527.151 -2.02014 2.15114 0
M  V30 5566 H 527.232 -0.296072 2.54081 0
M  V30 5567 H 526.876 -0.859295 5.00578 0
M  V30 5568 H 526.806 -2.58912 4.58554 0
M  V30 5569 H 529.297 -1.49595 3.4703 0
M  V30 5570 H 529.61 -2.47497 7.32096 0
M  V30 5571 H 527.955 -2.23239 6.58171 0
M  V30 5572 H 531.146 -1.77535 4.33127 0
M  V30 5573 H 531.319 -2.222 6.08713 0
M  V30 5574 N 524.725 -1.39134 -0.740242 0
M  V30 5575 C 525.688 -1.37217 -1.83587 0
M  V30 5576 C 526.688 -0.270221 -1.58513 0
M  V30 5577 O 527.878 -0.527843 -1.6601 0
M  V30 5578 C 525.01 -1.13959 -3.21288 0
M  V30 5579 H 526.203 -2.34705 -1.86691 0
M  V30 5580 H 523.756 -1.24622 -0.94335 0
M  V30 5581 H 524.491 -0.17131 -3.23847 0
M  V30 5582 H 524.276 -1.93754 -3.40884 0
M  V30 5583 H 525.766 -1.15346 -4.01354 0
M  V30 5584 N 526.204 0.969867 -1.24223 0
M  V30 5585 C 527.114 2.09806 -1.0497 0
M  V30 5586 C 528.13 1.73998 0.00886455 0
M  V30 5587 O 529.306 2.00513 -0.188848 0
M  V30 5588 C 526.371 3.40467 -0.654452 0
M  V30 5589 C 525.432 3.90236 -1.78926 0
M  V30 5590 C 524.665 5.14662 -1.41277 0
M  V30 5591 O 524.888 5.69602 -0.301632 0
M  V30 5592 O 523.822 5.58761 -2.23763 0
M  V30 5593 H 527.648 2.28942 -1.99548 0
M  V30 5594 H 525.233 1.08197 -1.03023 0
M  V30 5595 H 527.115 4.19039 -0.445452 0
M  V30 5596 H 525.79 3.22636 0.262216 0
M  V30 5597 H 524.697 3.12735 -2.05299 0
M  V30 5598 H 526.03 4.1254 -2.68462 0
M  V30 5599 N 527.682 1.05563 1.17022 0
M  V30 5600 C 528.929 0.767937 1.87374 0
M  V30 5601 C 529.257 -0.705224 1.81265 0
M  V30 5602 O 528.512 -1.5318 1.21796 0
M  V30 5603 C 528.811 1.19849 3.36706 0
M  V30 5604 C 528.477 2.6745 3.63017 0
M  V30 5605 C 527.139 3.0777 3.69907 0
M  V30 5606 C 529.491 3.62811 3.74189 0
M  V30 5607 C 526.819 4.42307 3.85463 0
M  V30 5608 C 529.171 4.97087 3.91264 0
M  V30 5609 C 527.835 5.37055 3.96394 0
M  V30 5610 H 527.105 0.281008 0.68565 0
M  V30 5611 H 529.752 1.32339 1.38415 0
M  V30 5612 H 528.057 0.562096 3.87747 0
M  V30 5613 H 529.754 0.953038 3.8951 0
M  V30 5614 H 526.344 2.35228 3.58282 0
M  V30 5615 H 530.528 3.32798 3.68183 0
M  V30 5616 H 525.784 4.72769 3.87684 0
M  V30 5617 H 529.958 5.70869 3.9885 0
M  V30 5618 H 527.585 6.41308 4.082 0
M  V30 5619 N 529.16 -1.33526 0.837174 0
M  V30 5620 C 530.576 -1.50727 0.524743 0
M  V30 5621 C 530.776 -1.77792 -0.948279 0
M  V30 5622 O 529.832 -1.83719 -1.73216 0
M  V30 5623 C 531.145 -2.66299 1.39661 0
M  V30 5624 C 532.693 -2.80183 1.39521 0
M  V30 5625 C 533.168 -3.98815 2.25189 0
M  V30 5626 N 534.659 -4.06047 2.2289 0
M  V30 5627 C 535.394 -4.97032 2.85915 0
M  V30 5628 N 534.89 -5.93143 3.57985 0
M  V30 5629 N 536.683 -4.90015 2.75394 0
M  V30 5630 H 528.834 -1.1422 1.79074 0
M  V30 5631 H 531.097 -0.561399 0.763894 0
M  V30 5632 H 530.803 -2.52974 2.4433 0
M  V30 5633 H 530.677 -3.61663 1.07145 0
M  V30 5634 H 533.064 -2.92942 0.356253 0
M  V30 5635 H 533.145 -1.85586 1.76044 0
M  V30 5636 H 532.789 -3.86817 3.29143 0
M  V30 5637 H 532.719 -4.92654 1.86009 0
M  V30 5638 H 535.21 -3.37262 1.70478 0
M  V30 5639 H 535.523 -6.59227 4.03286 0
M  V30 5640 H 533.868 -5.93223 3.62093 0
M  V30 5641 H 537.059 -4.13894 2.18654 0
M  V30 5642 H 537.232 -5.60724 3.24796 0
M  V30 5643 N 530.638 -0.59345 -1.46 0
M  V30 5644 C 531.915 -0.0157933 -1.95594 0
M  V30 5645 C 532.295 1.44807 -1.53604 0
M  V30 5646 O 531.643 2.14342 -0.791824 0
M  V30 5647 C 531.853 -0.199081 -3.48432 0
M  V30 5648 C 533.201 -0.0724943 -4.24538 0
M  V30 5649 O 534.225 -0.128469 -3.55968 0
M  V30 5650 O 533.084 0.0542426 -5.46473 0
M  V30 5651 H 530.178 0.043749 -0.825842 0
M  V30 5652 H 532.724 -0.662522 -1.56233 0
M  V30 5653 H 531.496 -1.21631 -3.71916 0
M  V30 5654 H 531.119 0.483576 -3.94648 0
M  V30 5655 N 532.116 1.54067 -0.331816 0
M  V30 5656 C 533.063 2.24623 0.530372 0
M  V30 5657 C 534.033 1.24009 1.10503 0
M  V30 5658 O 535.218 1.52712 1.14384 0
M  V30 5659 C 532.358 3.01374 1.68129 0
M  V30 5660 C 531.471 4.16821 1.13507 0
M  V30 5661 C 530.606 4.81085 2.25234 0
M  V30 5662 C 529.645 5.88621 1.67903 0
M  V30 5663 N 528.782 6.46713 2.73326 0
M  V30 5664 H 533.622 2.97898 -0.0778607 0
M  V30 5665 H 531.159 1.47014 -0.0501965 0
M  V30 5666 H 533.117 3.44125 2.35868 0
M  V30 5667 H 531.747 2.30419 2.26069 0
M  V30 5668 H 530.799 3.78796 0.348979 0
M  V30 5669 H 532.111 4.94203 0.675633 0
M  V30 5670 H 531.265 5.26846 3.00862 0
M  V30 5671 H 530.004 4.03102 2.74518 0
M  V30 5672 H 529.009 5.42254 0.907773 0
M  V30 5673 H 530.234 6.68506 1.19487 0
M  V30 5674 H 528.18 5.71599 3.21886 0
M  V30 5675 H 528.097 7.19532 2.3197 0
M  V30 5676 H 529.365 6.97129 3.48758 0
M  V30 5677 N 533.594 0.0601682 1.57485 0
M  V30 5678 C 534.542 -0.928899 2.13247 0
M  V30 5679 C 535.536 -1.31616 1.06647 0
M  V30 5680 O 536.742 -1.29476 1.25043 0
M  V30 5681 H 533.117 -0.317455 0.681708 0
M  V30 5682 H 535.088 -0.433566 2.95233 0
M  V30 5683 C 533.837 -2.19121 2.69965 0
M  V30 5684 H 533.16 -1.90204 3.51657 0
M  V30 5685 H 534.6 -2.86465 3.12592 0
M  V30 5686 C 533.059 -2.94195 1.64168 0
M  V30 5687 O 533.589 -3.87468 1.05978 0
M  V30 5688 N 531.795 -2.57089 1.35476 0
M  V30 5689 H 531.342 -1.81314 1.82984 0
M  V30 5690 H 531.3 -3.07624 0.649196 0
M  V30 5691 N 535.072 -1.5615 -0.213296 0
M  V30 5692 C 536.318 -1.79812 -0.937849 0
M  V30 5693 C 536.651 -0.631201 -1.83656 0
M  V30 5694 O 535.926 0.369165 -1.90964 0
M  V30 5695 C 536.209 -3.13613 -1.76972 0
M  V30 5696 C 536.062 -4.40766 -0.89695 0
M  V30 5697 C 537.381 -3.43931 -2.7459 0
M  V30 5698 H 534.5 -0.654138 -0.339518 0
M  V30 5699 H 537.142 -1.88877 -0.20623 0
M  V30 5700 H 535.292 -3.06015 -2.39347 0
M  V30 5701 H 536.964 -4.60392 -0.289306 0
M  V30 5702 H 535.207 -4.33326 -0.202756 0
M  V30 5703 H 535.878 -5.30843 -1.51358 0
M  V30 5704 H 538.354 -3.5171 -2.22349 0
M  V30 5705 H 537.23 -4.38706 -3.29891 0
M  V30 5706 H 537.491 -2.6651 -3.52739 0
M  V30 5707 N 536.55 0.480323 -1.50102 0
M  V30 5708 C 537.48 1.58769 -1.71215 0
M  V30 5709 C 538.461 1.60583 -0.560997 0
M  V30 5710 O 539.646 1.76996 -0.799127 0
M  V30 5711 C 536.776 2.97148 -1.79778 0
M  V30 5712 C 535.73 3.10201 -2.94888 0
M  V30 5713 C 535.056 4.50137 -2.88584 0
M  V30 5714 C 536.356 2.88283 -4.35534 0
M  V30 5715 H 538.05 1.41354 -2.6393 0
M  V30 5716 H 535.596 0.678591 -1.27008 0
M  V30 5717 H 537.549 3.74536 -1.93133 0
M  V30 5718 H 536.273 3.15699 -0.836772 0
M  V30 5719 H 534.932 2.35244 -2.81169 0
M  V30 5720 H 534.58 4.65593 -1.90349 0
M  V30 5721 H 534.28 4.59808 -3.65856 0
M  V30 5722 H 535.804 5.29558 -3.03976 0
M  V30 5723 H 537.218 3.55427 -4.49827 0
M  V30 5724 H 535.615 3.09408 -5.14186 0
M  V30 5725 H 536.685 1.84219 -4.48544 0
M  V30 5726 N 538.028 1.39524 0.732853 0
M  V30 5727 C 538.958 1.41153 1.86005 0
M  V30 5728 C 539.939 0.274614 1.67869 0
M  V30 5729 O 541.124 0.480745 1.88155 0
M  V30 5730 C 538.254 1.25638 3.23778 0
M  V30 5731 C 537.208 2.36752 3.56556 0
M  V30 5732 C 536.534 2.06326 4.93289 0
M  V30 5733 C 537.834 3.79069 3.5931 0
M  V30 5734 H 539.528 2.35484 1.84899 0
M  V30 5735 H 537.074 1.13348 0.888162 0
M  V30 5736 H 539.027 1.25398 4.0231 0
M  V30 5737 H 537.751 0.277772 3.25417 0
M  V30 5738 H 536.41 2.36213 2.80355 0
M  V30 5739 H 536.058 1.06897 4.9151 0
M  V30 5740 H 535.758 2.80757 5.16187 0
M  V30 5741 H 537.282 2.07739 5.74175 0
M  V30 5742 H 538.696 3.81526 4.27914 0
M  V30 5743 H 537.093 4.52878 3.93728 0
M  V30 5744 H 538.163 4.09893 2.59068 0
M  V30 5745 N 539.506 -0.963266 1.24736 0
M  V30 5746 C 540.752 -1.70933 1.09131 0
M  V30 5747 C 541.085 -1.90676 -0.368273 0
M  V30 5748 O 540.36 -1.47147 -1.27193 0
M  V30 5749 C 540.643 -3.09744 1.83658 0
M  V30 5750 C 540.496 -2.97465 3.37394 0
M  V30 5751 C 541.815 -4.09483 1.61282 0
M  V30 5752 H 538.934 -0.620398 0.397838 0
M  V30 5753 H 541.576 -1.12028 1.53459 0
M  V30 5754 H 539.726 -3.60031 1.4598 0
M  V30 5755 H 541.398 -2.54571 3.84696 0
M  V30 5756 H 539.641 -2.33576 3.65547 0
M  V30 5757 H 540.312 -3.95822 3.84745 0
M  V30 5758 H 542.788 -3.68073 1.94066 0
M  V30 5759 H 541.664 -5.04666 2.15878 0
M  V30 5760 H 541.925 -4.38639 0.552102 0
M  V30 5761 N 540.985 -1.06182 -1.16461 0
M  V30 5762 C 542.262 -0.691364 -1.82974 0
M  V30 5763 C 542.642 0.827377 -1.9421 0
M  V30 5764 O 541.99 1.73723 -1.48434 0
M  V30 5765 C 542.2 -1.39199 -3.20038 0
M  V30 5766 C 543.548 -1.53647 -3.95825 0
M  V30 5767 O 544.572 -1.35181 -3.29552 0
M  V30 5768 O 543.431 -1.83932 -5.14618 0
M  V30 5769 H 540.525 -0.244605 -0.789998 0
M  V30 5770 H 543.071 -1.16203 -1.23673 0
M  V30 5771 H 541.843 -2.42766 -3.06888 0
M  V30 5772 H 541.466 -0.911335 -3.87015 0
M  V30 5773 N 542.463 1.3308 -0.844243 0
M  V30 5774 C 543.74 1.92178 -0.364261 0
M  V30 5775 C 544.12 1.76961 1.15101 0
M  V30 5776 O 543.468 1.16128 1.9679 0
M  V30 5777 C 543.678 3.393 -0.817106 0
M  V30 5778 C 545.026 4.16444 -0.828236 0
M  V30 5779 O 546.05 3.47975 -0.761062 0
M  V30 5780 O 544.909 5.38685 -0.920926 0
M  V30 5781 H 542.003 0.820411 -0.10419 0
M  V30 5782 H 544.549 1.41918 -0.930453 0
M  V30 5783 H 543.321 3.44272 -1.85991 0
M  V30 5784 H 542.944 3.96947 -0.227785 0
M  V30 5785 N 543.941 0.601185 1.45683 0
M  V30 5786 C 545.166 0.0982245 2.07167 0
M  V30 5787 C 545.591 -1.20546 1.44396 0
M  V30 5788 O 544.949 -1.73247 0.534347 0
M  V30 5789 C 544.997 -0.0346976 3.60583 0
M  V30 5790 O 544.101 -1.08657 3.97828 0
M  V30 5791 H 543.442 0.0711618 0.660176 0
M  V30 5792 H 545.972 0.829376 1.87036 0
M  V30 5793 H 545.982 -0.234969 4.07323 0
M  V30 5794 H 544.657 0.917265 4.05659 0
M  V30 5795 H 543.234 -0.863275 3.6277 0
M  V30 5796 N 545.419 -1.53889 0.339982 0
M  V30 5797 C 546.668 -2.00035 -0.258604 0
M  V30 5798 C 546.981 -1.23179 -1.51942 0
M  V30 5799 O 548.187 -1.59784 -2.19503 0
M  V30 5800 C 546.643 -3.56249 -0.511359 0
M  V30 5801 C 546.251 -4.41957 0.733349 0
M  V30 5802 C 547.995 -4.1082 -1.069 0
M  V30 5803 C 545.902 -5.89673 0.451591 0
M  V30 5804 H 544.832 -0.747284 -0.10041 0
M  V30 5805 H 547.483 -1.77776 0.454758 0
M  V30 5806 H 545.865 -3.7456 -1.28533 0
M  V30 5807 H 547.039 -4.35421 1.50815 0
M  V30 5808 H 545.354 -3.9836 1.21237 0
M  V30 5809 H 547.951 -5.18789 -1.2947 0
M  V30 5810 H 548.294 -3.63817 -2.02343 0
M  V30 5811 H 548.827 -3.96205 -0.355817 0
M  V30 5812 H 545.566 -6.40903 1.37565 0
M  V30 5813 H 545.086 -5.99122 -0.285193 0
M  V30 5814 H 546.765 -6.46965 0.0675067 0
M  V30 5815 N 546.897 -0.0685191 -1.57451 0
M  V30 5816 C 548.143 0.602239 -1.93652 0
M  V30 5817 C 548.476 1.6946 -0.948526 0
M  V30 5818 O 547.751 1.94487 0.022782 0
M  V30 5819 C 548.034 1.18223 -3.4014 0
M  V30 5820 C 547.887 0.0967431 -4.49696 0
M  V30 5821 C 549.206 2.08872 -3.87377 0
M  V30 5822 H 546.325 0.217453 -0.70419 0
M  V30 5823 H 548.967 -0.133821 -1.89528 0
M  V30 5824 H 547.117 1.80953 -3.43785 0
M  V30 5825 H 548.789 -0.536155 -4.58174 0
M  V30 5826 H 547.032 -0.573063 -4.29998 0
M  V30 5827 H 547.703 0.542894 -5.49324 0
M  V30 5828 H 550.179 1.56081 -3.85717 0
M  V30 5829 H 549.055 2.46389 -4.90493 0
M  V30 5830 H 549.316 2.99572 -3.25129 0
M  V30 5831 N 548.375 1.56261 0.205012 0
M  V30 5832 C 549.791 1.49623 0.555433 0
M  V30 5833 C 549.991 0.766719 1.86343 0
M  V30 5834 O 549.047 0.313158 2.50551 0
M  V30 5835 C 550.36 2.94253 0.619347 0
M  V30 5836 C 551.908 3.04868 0.708855 0
M  V30 5837 C 552.383 4.50888 0.803969 0
M  V30 5838 N 553.874 4.54999 0.867758 0
M  V30 5839 C 554.609 5.65284 0.96135 0
M  V30 5840 N 554.105 6.85282 1.01786 0
M  V30 5841 N 555.898 5.53174 0.997771 0
M  V30 5842 H 548.049 2.0211 -0.653094 0
M  V30 5843 H 550.312 0.919333 -0.231366 0
M  V30 5844 H 550.018 3.50643 -0.272458 0
M  V30 5845 H 549.892 3.47063 1.47741 0
M  V30 5846 H 552.279 2.48532 1.5911 0
M  V30 5847 H 552.36 2.55199 -0.175205 0
M  V30 5848 H 552.004 5.07846 -0.0738798 0
M  V30 5849 H 551.934 4.98279 1.70369 0
M  V30 5850 H 554.425 3.68588 0.833735 0
M  V30 5851 H 554.738 7.65081 1.08951 0
M  V30 5852 H 553.083 6.8796 0.986706 0
M  V30 5853 H 556.274 4.5835 0.950392 0
M  V30 5854 H 556.447 6.39151 1.06725 0
M  V30 5855 N 549.853 -0.472356 1.50355 0
M  V30 5856 C 551.101 -1.22211 1.60962 0
M  V30 5857 C 551.422 -1.92497 0.311439 0
M  V30 5858 O 550.692 -1.8405 -0.671002 0
M  V30 5859 H 549.272 -0.454092 0.593135 0
M  V30 5860 H 551.934 -0.544977 1.87126 0
M  V30 5861 H 551.03 -1.9707 2.42012 0
M  V30 5862 N 551.331 -1.39911 -0.725443 0
M  V30 5863 C 552.559 -1.40949 -1.51463 0
M  V30 5864 C 552.974 -0.0065242 -1.88799 0
M  V30 5865 O 552.331 0.967163 -1.54765 0
M  V30 5866 C 552.382 -2.29119 -2.79619 0
M  V30 5867 O 552.103 -3.63952 -2.43866 0
M  V30 5868 C 553.604 -2.38642 -3.73584 0
M  V30 5869 H 550.824 -0.481091 -0.467752 0
M  V30 5870 H 553.368 -1.83843 -0.895651 0
M  V30 5871 H 551.523 -1.89612 -3.37826 0
M  V30 5872 H 551.937 -4.10677 -3.26258 0
M  V30 5873 H 553.411 -3.04563 -4.60375 0
M  V30 5874 H 553.888 -1.40846 -4.16004 0
M  V30 5875 H 554.494 -2.78659 -3.21293 0
M  V30 5876 N 552.809 0.956637 -1.25245 0
M  V30 5877 C 554.037 1.73571 -1.12608 0
M  V30 5878 C 554.452 1.86063 0.320324 0
M  V30 5879 O 553.809 1.35691 1.22042 0
M  V30 5880 C 553.86 3.15053 -1.77268 0
M  V30 5881 O 553.581 3.03174 -3.16255 0
M  V30 5882 C 555.082 4.09248 -1.70386 0
M  V30 5883 H 552.302 0.543955 -0.392879 0
M  V30 5884 H 554.846 1.20031 -1.65568 0
M  V30 5885 H 553.001 3.65543 -1.28284 0
M  V30 5886 H 553.415 3.9241 -3.48015 0
M  V30 5887 H 554.889 5.06138 -2.20291 0
M  V30 5888 H 555.366 4.34102 -0.667239 0
M  V30 5889 H 555.972 3.64672 -2.18849 0
M  V30 5890 N 554.287 1.06798 1.15896 0
M  V30 5891 C 555.512 0.808739 1.90982 0
M  V30 5892 C 555.937 -0.6316 1.77179 0
M  V30 5893 O 555.295 -1.4407 1.10061 0
M  V30 5894 C 555.343 1.21468 3.39526 0
M  V30 5895 O 554.447 0.356562 4.10856 0
M  V30 5896 H 553.788 0.29512 0.594811 0
M  V30 5897 H 556.318 1.42513 1.46804 0
M  V30 5898 H 556.328 1.18844 3.90308 0
M  V30 5899 H 555.003 2.26379 3.48891 0
M  V30 5900 H 553.58 0.444808 3.70238 0
M  V30 5901 N 555.766 -1.3263 0.851289 0
M  V30 5902 C 556.676 -2.32722 0.296268 0
M  V30 5903 C 557.692 -1.63901 -0.584162 0
M  V30 5904 O 558.868 -1.95465 -0.485334 0
M  V30 5905 C 555.933 -3.42942 -0.509103 0
M  V30 5906 C 554.994 -4.2746 0.397069 0
M  V30 5907 C 554.227 -5.32416 -0.36996 0
M  V30 5908 O 554.45 -5.47491 -1.6003 0
M  V30 5909 O 553.384 -6.01327 0.262493 0
M  V30 5910 H 557.21 -2.82078 1.12543 0
M  V30 5911 H 554.795 -1.36194 0.614135 0
M  V30 5912 H 556.677 -4.1017 -0.96634 0
M  V30 5913 H 555.352 -2.95781 -1.31512 0
M  V30 5914 H 554.259 -3.63053 0.902411 0
M  V30 5915 H 555.592 -4.78136 1.16818 0
M  V30 5916 N 557.244 -0.608902 -1.45362 0
M  V30 5917 C 558.176 0.147318 -2.28726 0
M  V30 5918 C 559.189 0.830468 -1.40025 0
M  V30 5919 O 560.378 0.695636 -1.64387 0
M  V30 5920 C 557.478 1.22968 -3.15804 0
M  V30 5921 C 556.651 0.633391 -4.3279 0
M  V30 5922 C 555.71 1.60682 -5.01067 0
M  V30 5923 O 554.736 1.13261 -5.57818 0
M  V30 5924 N 555.938 2.94123 -5.00472 0
M  V30 5925 H 558.703 -0.568014 -2.94268 0
M  V30 5926 H 556.264 -0.448479 -1.55564 0
M  V30 5927 H 558.256 1.88072 -3.58345 0
M  V30 5928 H 556.826 1.84752 -2.52162 0
M  V30 5929 H 556.046 -0.195762 -3.93714 0
M  V30 5930 H 557.334 0.215255 -5.08344 0
M  V30 5931 H 556.732 3.3525 -4.55657 0
M  V30 5932 H 555.289 3.54646 -5.46872 0
M  V30 5933 N 558.722 1.53707 -0.348139 0
M  V30 5934 C 559.971 2.0017 0.247992 0
M  V30 5935 C 560.284 1.23983 1.51286 0
M  V30 5936 O 561.49 1.60946 2.18652 0
M  V30 5937 C 559.946 3.56515 0.492459 0
M  V30 5938 C 559.554 4.41562 -0.756777 0
M  V30 5939 C 561.298 4.11381 1.0472 0
M  V30 5940 C 559.205 5.89426 -0.482856 0
M  V30 5941 H 558.135 0.747806 0.0964452 0
M  V30 5942 H 560.786 1.77532 -0.464179 0
M  V30 5943 H 559.168 3.75236 1.26545 0
M  V30 5944 H 560.342 4.34615 -1.53122 0
M  V30 5945 H 558.657 3.97711 -1.23348 0
M  V30 5946 H 561.254 5.19468 1.26717 0
M  V30 5947 H 561.597 3.64885 2.00411 0
M  V30 5948 H 562.13 3.96389 0.334801 0
M  V30 5949 H 558.869 6.40164 -1.40962 0
M  V30 5950 H 558.389 5.99264 0.253416 0
M  V30 5951 H 560.068 6.4692 -0.101816 0
M  V30 5952 N 560.2 0.0768682 1.57412 0
M  V30 5953 C 561.449 -0.590679 1.92857 0
M  V30 5954 C 561.762 -1.70461 0.959293 0
M  V30 5955 O 562.968 -2.43207 1.20675 0
M  V30 5956 C 561.424 -1.10204 3.42612 0
M  V30 5957 C 561.032 -0.0188447 4.47996 0
M  V30 5958 C 562.776 -1.74336 3.87049 0
M  V30 5959 C 560.683 -0.544536 5.88888 0
M  V30 5960 H 559.613 -0.224411 0.71983 0
M  V30 5961 H 562.264 0.149924 1.82887 0
M  V30 5962 H 560.646 -1.89577 3.47673 0
M  V30 5963 H 561.82 0.755936 4.54557 0
M  V30 5964 H 560.135 0.526555 4.13057 0
M  V30 5965 H 562.732 -2.14708 4.89699 0
M  V30 5966 H 563.075 -2.60537 3.24694 0
M  V30 5967 H 563.608 -1.01577 3.84613 0
M  V30 5968 H 560.347 0.280426 6.549 0
M  V30 5969 H 559.867 -1.28673 5.85836 0
M  V30 5970 H 561.546 -1.01933 6.3892 0
M  V30 5971 N 561.678 -1.56367 -0.196722 0
M  V30 5972 C 562.588 -1.97617 -1.2643 0
M  V30 5973 C 563.604 -0.883598 -1.49895 0
M  V30 5974 O 564.78 -1.18921 -1.62541 0
M  V30 5975 C 561.845 -2.30595 -2.58895 0
M  V30 5976 C 560.906 -3.53551 -2.43516 0
M  V30 5977 C 560.139 -3.84946 -3.69665 0
M  V30 5978 O 560.362 -3.17655 -4.73763 0
M  V30 5979 O 559.296 -4.78379 -3.65291 0
M  V30 5980 H 563.122 -2.88648 -0.944233 0
M  V30 5981 H 560.707 -1.43901 -0.401592 0
M  V30 5982 H 562.589 -2.52889 -3.37083 0
M  V30 5983 H 561.264 -1.42732 -2.90533 0
M  V30 5984 H 560.171 -3.36507 -1.63445 0
M  V30 5985 H 561.504 -4.41875 -2.16812 0
M  V30 5986 N 563.156 0.464375 -1.50603 0
M  V30 5987 C 564.089 1.58052 -1.64605 0
M  V30 5988 C 565.067 1.54914 -0.494016 0
M  V30 5989 O 566.251 1.74438 -0.714393 0
M  V30 5990 C 563.378 2.96634 -1.63481 0
M  V30 5991 C 562.424 3.17901 -2.84325 0
M  V30 5992 S 563.257 2.97083 -4.45536 0
M  V30 5993 C 564.413 4.37994 -4.47115 0
M  V30 5994 H 564.646 1.45937 -2.59017 0
M  V30 5995 H 562.179 0.652189 -1.39949 0
M  V30 5996 H 564.137 3.76527 -1.63517 0
M  V30 5997 H 562.798 3.06134 -0.702928 0
M  V30 5998 H 561.991 4.19158 -2.79862 0
M  V30 5999 H 561.593 2.45792 -2.81891 0
M  V30 6000 H 563.885 5.30743 -4.21091 0
M  V30 6001 H 564.828 4.47499 -5.48772 0
M  V30 6002 H 565.236 4.20386 -3.76743 0
M  V30 6003 N 564.634 1.40294 0.718013 0
M  V30 6004 C 565.597 1.4012 1.81381 0
M  V30 6005 C 566.597 0.295405 1.58063 0
M  V30 6006 O 567.787 0.554187 1.6515 0
M  V30 6007 C 564.919 1.19056 3.19435 0
M  V30 6008 H 566.112 2.37645 1.82933 0
M  V30 6009 H 563.665 1.26107 0.923405 0
M  V30 6010 H 564.4 0.222809 3.23534 0
M  V30 6011 H 564.185 1.99152 3.37758 0
M  V30 6012 H 565.675 1.21716 3.99468 0
M  V30 6013 N 566.112 -0.949982 1.2575 0
M  V30 6014 C 567.528 -1.22191 1.02672 0
M  V30 6015 C 567.728 -1.99898 -0.253588 0
M  V30 6016 O 566.784 -2.33329 -0.965076 0
M  V30 6017 C 568.097 -1.99175 2.25277 0
M  V30 6018 C 569.645 -2.12201 2.30087 0
M  V30 6019 C 570.12 -2.92586 3.5236 0
M  V30 6020 N 571.611 -3.00163 3.52784 0
M  V30 6021 C 572.346 -3.62766 4.44059 0
M  V30 6022 N 571.842 -4.26943 5.45611 0
M  V30 6023 N 573.635 -3.59953 4.3173 0
M  V30 6024 H 565.786 -0.430258 2.07996 0
M  V30 6025 H 568.049 -0.252844 0.91366 0
M  V30 6026 H 567.755 -1.49479 3.18354 0
M  V30 6027 H 567.629 -2.99868 2.28821 0
M  V30 6028 H 570.016 -2.61093 1.3753 0
M  V30 6029 H 570.097 -1.10799 2.30559 0
M  V30 6030 H 569.741 -2.44383 4.45241 0
M  V30 6031 H 569.671 -3.94224 3.49134 0
M  V30 6032 H 572.162 -2.54529 2.79327 0
M  V30 6033 H 572.475 -4.72583 6.11461 0
M  V30 6034 H 570.82 -4.25557 5.49478 0
M  V30 6035 H 574.011 -3.09003 3.51617 0
M  V30 6036 H 574.184 -4.08455 5.03059 0
M  V30 6037 N 567.59 -1.07411 -1.15328 0
M  V30 6038 C 568.5 -0.706438 -2.23711 0
M  V30 6039 C 569.516 0.282586 -1.7169 0
M  V30 6040 O 570.692 0.129066 -2.00986 0
M  V30 6041 C 567.757 -0.11048 -3.46524 0
M  V30 6042 C 566.818 -1.15282 -4.13532 0
M  V30 6043 C 566.051 -0.585205 -5.30482 0
M  V30 6044 O 566.274 0.598549 -5.67251 0
M  V30 6045 O 565.208 -1.33039 -5.87013 0
M  V30 6046 H 569.034 -1.61031 -2.57493 0
M  V30 6047 H 566.619 -0.847113 -1.23062 0
M  V30 6048 H 568.501 0.21957 -4.20828 0
M  V30 6049 H 567.176 0.766703 -3.14489 0
M  V30 6050 H 566.083 -1.53523 -3.41147 0
M  V30 6051 H 567.416 -2.00192 -4.49649 0
M  V30 6052 N 569.068 1.32177 -0.85831 0
M  V30 6053 C 570.031 2.27086 -0.310588 0
M  V30 6054 C 571.031 1.51751 0.531806 0
M  V30 6055 O 572.221 1.70794 0.34279 0
M  V30 6056 C 569.353 3.36266 0.560179 0
M  V30 6057 H 570.546 2.77045 -1.1483 0
M  V30 6058 H 568.099 1.42911 -0.632942 0
M  V30 6059 H 568.834 2.9158 1.41956 0
M  V30 6060 H 568.619 3.92077 -0.0428473 0
M  V30 6061 H 570.109 4.06974 0.936056 0
M  V30 6062 N 570.547 0.616602 1.45037 0
M  V30 6063 C 571.795 0.115103 2.01772 0
M  V30 6064 C 572.116 -1.2622 1.48639 0
M  V30 6065 O 571.386 -1.83563 0.684199 0
M  V30 6066 H 569.966 0.0395607 0.745952 0
M  V30 6067 H 572.628 0.800032 1.77723 0
M  V30 6068 H 571.724 0.0717274 3.12018 0
M  V30 6069 N 572.025 -1.5352 0.356285 0
M  V30 6070 C 572.988 -2.24071 -0.482182 0
M  V30 6071 C 573.988 -1.24531 -1.01729 0
M  V30 6072 O 575.178 -1.48876 -0.904513 0
M  V30 6073 C 572.31 -2.97025 -1.67299 0
M  V30 6074 H 573.503 -2.99596 0.135031 0
M  V30 6075 H 571.056 -1.55928 0.107825 0
M  V30 6076 H 571.791 -2.25719 -2.32855 0
M  V30 6077 H 571.576 -3.7005 -1.29636 0
M  V30 6078 H 573.066 -3.50683 -2.26741 0
M  V30 6079 N 573.503 -0.0852151 -1.57369 0
M  V30 6080 C 574.45 0.877268 -2.13478 0
M  V30 6081 C 575.42 1.28642 -1.05073 0
M  V30 6082 O 576.605 1.36992 -1.32808 0
M  V30 6083 C 573.745 2.13464 -2.71159 0
M  V30 6084 C 572.858 1.77691 -3.93764 0
M  V30 6085 C 571.993 2.98139 -4.39643 0
M  V30 6086 C 571.032 2.58447 -5.54862 0
M  V30 6087 N 570.169 3.71698 -5.95639 0
M  V30 6088 H 575.009 0.391933 -2.95411 0
M  V30 6089 H 572.546 0.181796 -1.45972 0
M  V30 6090 H 574.504 2.87086 -3.02717 0
M  V30 6091 H 573.134 2.59514 -1.91969 0
M  V30 6092 H 572.186 0.940768 -3.68583 0
M  V30 6093 H 573.498 1.44497 -4.77412 0
M  V30 6094 H 572.652 3.80026 -4.72933 0
M  V30 6095 H 571.391 3.34536 -3.54876 0
M  V30 6096 H 570.396 1.74984 -5.21211 0
M  V30 6097 H 571.621 2.23205 -6.41371 0
M  V30 6098 H 569.567 4.07831 -5.13819 0
M  V30 6099 H 569.484 3.42317 -6.74059 0
M  V30 6100 H 570.752 4.54123 -6.33555 0
M  V30 6101 N 574.981 1.5647 0.188427 0
M  V30 6102 C 575.928 1.95073 1.23349 0
M  V30 6103 C 576.898 0.812238 1.44886 0
M  V30 6104 O 578.083 1.07095 1.57909 0
M  V30 6105 C 575.223 2.30124 2.57171 0
M  V30 6106 C 574.336 3.57069 2.43157 0
M  V30 6107 C 573.471 3.81411 3.69729 0
M  V30 6108 C 572.51 5.0176 3.50575 0
M  V30 6109 N 571.647 5.22321 4.69175 0
M  V30 6110 H 576.487 2.84171 0.89728 0
M  V30 6111 H 574.024 1.40623 0.431683 0
M  V30 6112 H 575.982 2.48463 3.35145 0
M  V30 6113 H 574.612 1.44159 2.88822 0
M  V30 6114 H 573.664 3.4674 1.56447 0
M  V30 6115 H 574.976 4.452 2.24942 0
M  V30 6116 H 574.13 4.00026 4.56141 0
M  V30 6117 H 572.869 2.91624 3.90905 0
M  V30 6118 H 571.874 4.83061 2.62549 0
M  V30 6119 H 573.099 5.93063 3.30837 0
M  V30 6120 H 571.045 4.35483 4.90602 0
M  V30 6121 H 570.962 6.04643 4.53809 0
M  V30 6122 H 572.23 5.45401 5.56919 0
M  V30 6123 N 576.459 -0.456382 1.50847 0
M  V30 6124 C 577.705 -1.20914 1.62811 0
M  V30 6125 C 578.038 -1.91301 0.334304 0
M  V30 6126 O 577.313 -1.82775 -0.665098 0
M  V30 6127 C 577.596 -2.24122 2.81853 0
M  V30 6128 C 577.449 -1.57944 4.21158 0
M  V30 6129 C 578.768 -3.25295 2.96431 0
M  V30 6130 H 575.887 -0.438233 0.592554 0
M  V30 6131 H 578.529 -0.50091 1.83278 0
M  V30 6132 H 576.679 -2.84524 2.64534 0
M  V30 6133 H 578.351 -1.01025 4.50102 0
M  V30 6134 H 576.594 -0.882185 4.24735 0
M  V30 6135 H 577.265 -2.33014 5.00408 0
M  V30 6136 H 579.741 -2.7493 3.12335 0
M  V30 6137 H 578.617 -3.94822 3.81322 0
M  V30 6138 H 578.878 -3.90286 2.07676 0
M  V30 6139 N 577.937 -1.40673 -0.710563 0
M  V30 6140 C 579.167 -1.4234 -1.49742 0
M  V30 6141 C 579.575 -0.022821 -1.89186 0
M  V30 6142 O 578.918 0.964773 -1.56326 0
M  V30 6143 C 578.98 -2.25509 -2.79975 0
M  V30 6144 C 578.644 -3.73862 -2.62824 0
M  V30 6145 C 579.641 -4.66379 -2.29752 0
M  V30 6146 C 577.326 -4.17735 -2.78932 0
M  V30 6147 C 579.32 -6.00756 -2.13006 0
M  V30 6148 C 577.007 -5.5218 -2.61802 0
M  V30 6149 C 578.005 -6.43505 -2.28888 0
M  V30 6150 O 577.693 -7.75472 -2.11894 0
M  V30 6151 H 577.425 -0.487311 -0.468513 0
M  V30 6152 H 579.979 -1.8542 -0.883668 0
M  V30 6153 H 578.209 -1.77218 -3.43701 0
M  V30 6154 H 579.898 -2.19058 -3.41714 0
M  V30 6155 H 580.664 -4.33778 -2.16936 0
M  V30 6156 H 576.543 -3.46967 -3.03537 0
M  V30 6157 H 580.087 -6.72003 -1.87237 0
M  V30 6158 H 575.984 -5.84365 -2.74204 0
M  V30 6159 H 576.752 -7.86458 -2.26775 0
M  V30 6160 N 579.415 0.9433 -1.26252 0
M  V30 6161 C 580.345 2.05902 -1.10122 0
M  V30 6162 C 581.326 1.70099 -0.00700552 0
M  V30 6163 O 582.511 1.93377 -0.178641 0
M  V30 6164 C 579.641 3.39516 -0.731175 0
M  V30 6165 C 578.595 3.89372 -1.77688 0
M  V30 6166 C 577.921 5.19613 -1.26122 0
M  V30 6167 C 579.221 4.14489 -3.17799 0
M  V30 6168 H 580.915 2.19655 -2.03451 0
M  V30 6169 H 578.461 1.05548 -0.979576 0
M  V30 6170 H 580.414 4.17031 -0.605215 0
M  V30 6171 H 579.138 3.25733 0.23782 0
M  V30 6172 H 577.797 3.14036 -1.89148 0
M  V30 6173 H 577.445 5.02208 -0.282128 0
M  V30 6174 H 577.145 5.53939 -1.96023 0
M  V30 6175 H 578.669 5.99713 -1.14789 0
M  V30 6176 H 580.083 4.82625 -3.09428 0
M  V30 6177 H 578.48 4.60094 -3.85271 0
M  V30 6178 H 579.55 3.20347 -3.64014 0
M  V30 6179 N 580.893 1.08022 1.14757 0
M  V30 6180 C 581.856 0.71048 2.1791 0
M  V30 6181 C 582.856 -0.252731 1.58801 0
M  V30 6182 O 584.046 -0.0327915 1.74169 0
M  V30 6183 C 581.178 0.0483203 3.40866 0
M  V30 6184 H 582.371 1.62384 2.52134 0
M  V30 6185 H 579.924 0.877595 1.29337 0
M  V30 6186 H 580.659 -0.876959 3.12218 0
M  V30 6187 H 580.444 0.741189 3.85031 0
M  V30 6188 H 581.934 -0.195471 4.17142 0
M  V30 6189 N 582.371 -1.3172 0.865308 0
M  V30 6190 C 583.596 -2.01591 0.487415 0
M  V30 6191 C 584.021 -1.6455 -0.911307 0
M  V30 6192 O 583.379 -0.851689 -1.6005 0
M  V30 6193 C 583.427 -3.54759 0.646401 0
M  V30 6194 O 582.531 -4.11185 -0.316284 0
M  V30 6195 H 581.872 -0.634884 0.194468 0
M  V30 6196 H 584.402 -1.68024 1.16744 0
M  V30 6197 H 584.412 -4.04438 0.537932 0
M  V30 6198 H 583.087 -3.8106 1.66632 0
M  V30 6199 H 581.664 -3.72543 -0.163162 0
M  V30 6200 N 583.85 -0.624285 -1.44708 0
M  V30 6201 C 584.812 0.0749638 -2.29077 0
M  V30 6202 C 585.812 0.778965 -1.40673 0
M  V30 6203 O 587.003 0.624591 -1.62618 0
M  V30 6204 C 584.135 1.11663 -3.22094 0
M  V30 6205 H 585.327 -0.667013 -2.92388 0
M  V30 6206 H 582.88 -0.384098 -1.51507 0
M  V30 6207 H 583.615 1.88881 -2.63618 0
M  V30 6208 H 583.401 0.61583 -3.87234 0
M  V30 6209 H 584.891 1.60585 -3.8549 0
M  V30 6210 N 585.328 1.53329 -0.364422 0
M  V30 6211 C 586.291 2.24323 0.470292 0
M  V30 6212 C 587.291 1.25068 1.01067 0
M  V30 6213 O 588.481 1.49354 0.896605 0
M  V30 6214 C 585.613 2.97908 1.65722 0
M  V30 6215 H 586.806 2.9952 -0.150917 0
M  V30 6216 H 584.359 1.55868 -0.116092 0
M  V30 6217 H 585.094 2.2695 2.31655 0
M  V30 6218 H 584.879 3.70732 1.27671 0
M  V30 6219 H 586.369 3.5188 2.24878 0
M  V30 6220 N 586.806 0.0935595 1.57322 0
M  V30 6221 C 588.217 -0.435807 1.81542 0
M  V30 6222 C 588.568 -1.68263 1.00907 0
M  V30 6223 O 587.693 -2.15087 0.237983 0
M  V30 6224 C 588.288 -0.797436 3.29282 0
M  V30 6225 C 586.847 -1.27155 3.54272 0
M  V30 6226 C 585.994 -0.267455 2.76007 0
M  V30 6227 H 588.945 0.31902 1.5546 0
M  V30 6228 H 588.966 -1.6571 3.42521 0
M  V30 6229 H 588.478 0.110206 3.87943 0
M  V30 6230 H 586.579 -2.19696 3.00939 0
M  V30 6231 H 586.692 -1.23445 4.62923 0
M  V30 6232 H 585.056 -0.749282 2.43429 0
M  V30 6233 H 585.839 0.632839 3.37417 0
M  V30 6234 N 588.284 -1.56567 -0.180126 0
M  V30 6235 C 589.194 -1.98947 -1.24327 0
M  V30 6236 C 590.21 -0.899446 -1.4895 0
M  V30 6237 O 591.386 -1.20639 -1.61271 0
M  V30 6238 C 588.451 -2.33328 -2.56435 0
M  V30 6239 C 587.512 -3.56114 -2.39752 0
M  V30 6240 C 586.745 -3.88845 -3.65561 0
M  V30 6241 O 586.968 -3.22662 -4.70368 0
M  V30 6242 O 585.902 -4.82226 -3.60197 0
M  V30 6243 H 589.728 -2.89634 -0.913565 0
M  V30 6244 H 587.313 -1.44319 -0.386306 0
M  V30 6245 H 589.195 -2.5645 -3.34382 0
M  V30 6246 H 587.87 -1.45806 -2.89002 0
M  V30 6247 H 586.777 -3.38221 -1.59866 0
M  V30 6248 H 588.11 -4.4415 -2.12113 0
M  V30 6249 N 589.762 0.448376 -1.51087 0
M  V30 6250 C 591.011 1.19561 -1.62444 0
M  V30 6251 C 591.324 1.92602 -0.341151 0
M  V30 6252 O 592.53 2.69439 -0.333936 0
M  V30 6253 C 590.986 2.17373 -2.8684 0
M  V30 6254 C 590.594 1.5003 -4.22131 0
M  V30 6255 C 592.338 2.92597 -3.0755 0
M  V30 6256 C 590.245 2.46262 -5.37689 0
M  V30 6257 H 589.175 0.449975 -0.605011 0
M  V30 6258 H 591.826 0.463735 -1.77544 0
M  V30 6259 H 590.208 2.93948 -2.65349 0
M  V30 6260 H 591.382 0.790886 -4.53962 0
M  V30 6261 H 589.697 0.870011 -4.0721 0
M  V30 6262 H 592.294 3.64663 -3.91056 0
M  V30 6263 H 592.637 3.53306 -2.20183 0
M  V30 6264 H 593.17 2.23131 -3.29329 0
M  V30 6265 H 589.909 1.90258 -6.27281 0
M  V30 6266 H 589.429 3.15289 -5.10248 0
M  V30 6267 H 591.108 3.07623 -5.6919 0
M  V30 6268 N 591.24 1.41047 0.703093 0
M  V30 6269 C 592.656 1.23351 1.01275 0
M  V30 6270 C 592.856 0.11754 2.01157 0
M  V30 6271 O 591.912 -0.520518 2.47077 0
M  V30 6272 C 593.225 2.58001 1.54454 0
M  V30 6273 C 594.773 2.65119 1.66376 0
M  V30 6274 C 595.248 4.00067 2.22958 0
M  V30 6275 N 596.739 4.01875 2.30328 0
M  V30 6276 C 597.474 5.03087 2.75119 0
M  V30 6277 N 596.97 6.14692 3.19571 0
M  V30 6278 N 598.763 4.90451 2.74616 0
M  V30 6279 H 590.914 2.1236 0.0412686 0
M  V30 6280 H 593.177 0.944543 0.08089 0
M  V30 6281 H 592.883 3.40378 0.88521 0
M  V30 6282 H 592.757 2.79962 2.52786 0
M  V30 6283 H 595.144 1.83106 2.31422 0
M  V30 6284 H 595.225 2.46975 0.666089 0
M  V30 6285 H 594.869 4.82526 1.58529 0
M  V30 6286 H 594.799 4.15547 3.23462 0
M  V30 6287 H 597.29 3.21291 1.98949 0
M  V30 6288 H 597.603 6.87799 3.52352 0
M  V30 6289 H 595.948 6.18239 3.17498 0
M  V30 6290 H 599.139 4.0235 2.39233 0
M  V30 6291 H 599.312 5.6947 3.09206 0
M  V30 6292 N 592.718 -0.936591 1.26751 0
M  V30 6293 C 593.965 -1.68331 1.12566 0
M  V30 6294 C 594.293 -1.91677 -0.330168 0
M  V30 6295 O 593.548 -1.49859 -1.2586 0
M  V30 6296 C 593.847 -3.06099 1.84494 0
M  V30 6297 C 593.513 -3.02493 3.34378 0
M  V30 6298 C 592.175 -3.01217 3.75262 0
M  V30 6299 C 594.527 -2.94453 4.30055 0
M  V30 6300 C 591.855 -2.89672 5.10203 0
M  V30 6301 C 594.207 -2.84449 5.65041 0
M  V30 6302 C 592.871 -2.81518 6.0523 0
M  V30 6303 H 592.141 -0.615965 0.411907 0
M  V30 6304 H 594.788 -1.09292 1.5725 0
M  V30 6305 H 593.093 -3.6879 1.32292 0
M  V30 6306 H 594.79 -3.62733 1.70955 0
M  V30 6307 H 591.38 -3.04269 3.01858 0
M  V30 6308 H 595.564 -2.94544 3.99447 0
M  V30 6309 H 590.82 -2.85783 5.40498 0
M  V30 6310 H 594.994 -2.77192 6.38856 0
M  V30 6311 H 592.621 -2.72329 7.09747 0
M  V30 6312 N 594.196 -1.08629 -1.14182 0
M  V30 6313 C 595.607 -0.838003 -1.66836 0
M  V30 6314 C 595.958 0.634885 -1.85644 0
M  V30 6315 O 595.083 1.49008 -1.56926 0
M  V30 6316 C 595.678 -1.51465 -3.03058 0
M  V30 6317 C 594.237 -1.31355 -3.52736 0
M  V30 6318 C 593.384 -1.57599 -2.28162 0
M  V30 6319 H 596.335 -1.24656 -0.982165 0
M  V30 6320 H 596.356 -0.943134 -3.68626 0
M  V30 6321 H 595.868 -2.58661 -2.89337 0
M  V30 6322 H 593.969 -0.262384 -3.71675 0
M  V30 6323 H 594.082 -2.04275 -4.33369 0
M  V30 6324 H 592.446 -0.997659 -2.34348 0
M  V30 6325 H 593.229 -2.66006 -2.17015 0
M  V30 6326 N 595.674 1.31259 -0.872281 0
M  V30 6327 C 596.622 2.30404 -0.318897 0
M  V30 6328 C 597.616 1.5962 0.567267 0
M  V30 6329 O 598.822 1.74204 0.453111 0
M  V30 6330 H 595.197 0.747243 -0.0844474 0
M  V30 6331 H 597.168 2.74549 -1.16899 0
M  V30 6332 C 595.917 3.44608 0.462683 0
M  V30 6333 H 595.24 3.99248 -0.209936 0
M  V30 6334 H 596.68 4.1609 0.815187 0
M  V30 6335 C 595.139 2.93456 1.65485 0
M  V30 6336 O 595.669 2.92418 2.75417 0
M  V30 6337 N 593.875 2.49628 1.48776 0
M  V30 6338 H 593.422 2.50671 0.593452 0
M  V30 6339 H 593.38 2.15759 2.28682 0
M  V30 6340 N 597.152 0.631951 1.44375 0
M  V30 6341 C 598.398 0.13697 2.02337 0
M  V30 6342 C 598.731 -1.23826 1.49602 0
M  V30 6343 O 598.006 -1.8221 0.680415 0
M  V30 6344 C 598.289 0.124536 3.59885 0
M  V30 6345 C 598.142 1.53217 4.229 0
M  V30 6346 C 599.461 -0.550481 4.36644 0
M  V30 6347 H 596.58 0.051247 0.735216 0
M  V30 6348 H 599.222 0.808581 1.71936 0
M  V30 6349 H 597.372 -0.44737 3.85916 0
M  V30 6350 H 599.044 2.15303 4.07973 0
M  V30 6351 H 597.287 2.0858 3.80364 0
M  V30 6352 H 597.958 1.4755 5.31914 0
M  V30 6353 H 600.434 -0.0641154 4.16051 0
M  V30 6354 H 599.31 -0.528371 5.46351 0
M  V30 6355 H 599.571 -1.62097 4.11311 0
M  V30 6356 N 598.631 -1.53133 0.372548 0
M  V30 6357 C 599.861 -2.05476 -0.215202 0
M  V30 6358 C 600.269 -1.24534 -1.42436 0
M  V30 6359 O 599.612 -0.280771 -1.81542 0
M  V30 6360 C 599.674 -3.53276 -0.666068 0
M  V30 6361 C 599.338 -4.54998 0.427342 0
M  V30 6362 C 600.335 -5.03911 1.27944 0
M  V30 6363 C 598.02 -4.98828 0.589579 0
M  V30 6364 C 600.014 -5.95263 2.27905 0
M  V30 6365 C 597.701 -5.89984 1.59255 0
M  V30 6366 C 598.699 -6.38093 2.43571 0
M  V30 6367 O 598.387 -7.27451 3.42156 0
M  V30 6368 H 598.119 -0.67481 -0.040099 0
M  V30 6369 H 600.673 -1.98409 0.531312 0
M  V30 6370 H 598.903 -3.57904 -1.4643 0
M  V30 6371 H 600.592 -3.88442 -1.1776 0
M  V30 6372 H 601.358 -4.70792 1.16532 0
M  V30 6373 H 597.237 -4.60965 -0.0569456 0
M  V30 6374 H 600.781 -6.32736 2.93753 0
M  V30 6375 H 596.678 -6.22518 1.70711 0
M  V30 6376 H 597.446 -7.45467 3.37967 0
M  V30 6377 N 600.109 -0.101901 -1.5727 0
M  V30 6378 C 601.357 0.559091 -1.94213 0
M  V30 6379 C 601.678 1.68297 -0.984948 0
M  V30 6380 O 600.948 1.95863 -0.0381975 0
M  V30 6381 H 599.528 0.20952 -0.717015 0
M  V30 6382 H 602.19 -0.166831 -1.94185 0
M  V30 6383 H 601.286 0.96485 -2.96811 0
M  V30 6384 N 601.587 1.56661 0.17182 0
M  V30 6385 C 602.836 1.81158 0.886831 0
M  V30 6386 C 603.149 0.679072 1.83434 0
M  V30 6387 O 604.355 0.808964 2.59168 0
M  V30 6388 C 602.811 3.20999 1.6275 0
M  V30 6389 C 602.419 4.42117 0.723652 0
M  V30 6390 C 604.163 3.5479 2.33076 0
M  V30 6391 C 602.07 5.7298 1.46452 0
M  V30 6392 H 601 0.675543 0.334899 0
M  V30 6393 H 603.651 1.82967 0.139765 0
M  V30 6394 H 602.033 3.13506 2.4193 0
M  V30 6395 H 603.207 4.60789 -0.0311485 0
M  V30 6396 H 601.522 4.16197 0.130063 0
M  V30 6397 H 604.119 4.49806 2.89099 0
M  V30 6398 H 604.462 2.79646 3.08389 0
M  V30 6399 H 604.995 3.63834 1.6084 0
M  V30 6400 H 601.734 6.51152 0.753729 0
M  V30 6401 H 601.254 5.58285 2.19266 0
M  V30 6402 H 602.933 6.14916 2.01214 0
M  V30 6403 N 603.065 -0.440357 1.51323 0
M  V30 6404 C 604.342 -1.20109 1.5438 0
M  V30 6405 C 604.722 -2.08866 0.306303 0
M  V30 6406 O 604.07 -2.1723 -0.708773 0
M  V30 6407 C 604.28 -2.00555 2.8562 0
M  V30 6408 C 605.628 -2.577 3.37455 0
M  V30 6409 O 606.652 -2.10769 2.8715 0
M  V30 6410 O 605.511 -3.43289 4.25224 0
M  V30 6411 H 602.605 -0.546668 0.620551 0
M  V30 6412 H 605.151 -0.449672 1.63634 0
M  V30 6413 H 603.923 -1.35346 3.67147 0
M  V30 6414 H 603.546 -2.82768 2.79514 0
M  V30 6415 N 604.543 -1.41418 -0.695603 0
M  V30 6416 C 605.476 -1.3768 -1.81988 0
M  V30 6417 C 606.454 -0.244061 -1.60758 0
M  V30 6418 O 607.638 -0.430965 -1.83507 0
M  V30 6419 C 604.765 -1.1476 -3.18666 0
M  V30 6420 C 603.811 -2.30752 -3.58686 0
M  V30 6421 S 604.644 -3.9323 -3.63498 0
M  V30 6422 C 605.8 -3.72613 -5.02902 0
M  V30 6423 H 606.033 -2.32822 -1.84882 0
M  V30 6424 H 603.566 -1.27942 -0.86431 0
M  V30 6425 H 605.524 -1.02223 -3.97569 0
M  V30 6426 H 604.185 -0.212385 -3.13381 0
M  V30 6427 H 603.378 -2.10409 -4.57978 0
M  V30 6428 H 602.98 -2.39696 -2.87092 0
M  V30 6429 H 605.272 -3.32317 -5.904 0
M  V30 6430 H 606.215 -4.71507 -5.28286 0
M  V30 6431 H 606.623 -3.0589 -4.74438 0
M  V30 6432 N 606.021 0.929856 -1.27246 0
M  V30 6433 C 607.432 1.49223 -1.12203 0
M  V30 6434 C 607.783 1.93989 0.293731 0
M  V30 6435 O 606.908 1.80978 1.18642 0
M  V30 6436 C 607.503 2.71198 -2.0307 0
M  V30 6437 C 606.062 3.23666 -1.92139 0
M  V30 6438 C 605.209 1.96409 -1.95752 0
M  V30 6439 H 608.16 0.744181 -1.4017 0
M  V30 6440 H 608.181 3.45905 -1.58524 0
M  V30 6441 H 607.693 2.38585 -3.06102 0
M  V30 6442 H 605.794 3.61042 -0.920834 0
M  V30 6443 H 605.907 3.90006 -2.78267 0
M  V30 6444 H 604.271 2.12806 -1.39949 0
M  V30 6445 H 605.054 1.66113 -3.00436 0
M  V30 6446 N 607.499 1.09233 1.13605 0
M  V30 6447 C 608.724 0.849067 1.89224 0
M  V30 6448 C 609.149 -0.593875 1.78479 0
M  V30 6449 O 608.507 -1.41703 1.13092 0
M  V30 6450 C 608.555 1.28642 3.36873 0
M  V30 6451 O 607.659 0.44363 4.10007 0
M  V30 6452 H 607 0.30767 0.588417 0
M  V30 6453 H 609.53 1.45595 1.43748 0
M  V30 6454 H 609.54 1.27096 3.87699 0
M  V30 6455 H 608.215 2.33729 3.44011 0
M  V30 6456 H 606.792 0.523241 3.69211 0
M  V30 6457 N 608.977 -1.30795 0.87923 0
M  V30 6458 C 609.94 -2.26563 0.346676 0
M  V30 6459 C 610.94 -1.52578 -0.507597 0
M  V30 6460 O 612.13 -1.71318 -0.315575 0
M  V30 6461 C 609.262 -3.37115 -0.506611 0
M  V30 6462 H 610.455 -2.75183 1.19223 0
M  V30 6463 H 608.008 -1.41886 0.655598 0
M  V30 6464 H 608.743 -2.93802 -1.37299 0
M  V30 6465 H 608.528 -3.91959 0.105218 0
M  V30 6466 H 610.018 -4.08412 -0.871192 0
M  V30 6467 N 610.455 -0.639598 -1.44038 0
M  V30 6468 C 611.683 -0.154811 -2.0632 0
M  V30 6469 C 612.098 1.17406 -1.47856 0
M  V30 6470 O 611.455 1.72193 -0.604638 0
M  V30 6471 C 611.506 -0.0429958 -3.61474 0
M  V30 6472 O 611.227 -1.31932 -4.17763 0
M  V30 6473 C 612.728 0.469486 -4.40807 0
M  V30 6474 H 609.948 -0.0835862 -0.665773 0
M  V30 6475 H 612.492 -0.876397 -1.84769 0
M  V30 6476 H 610.647 0.629075 -3.82258 0
M  V30 6477 H 611.061 -1.16965 -5.11292 0
M  V30 6478 H 612.535 0.496712 -5.49761 0
M  V30 6479 H 613.012 1.49819 -4.12857 0
M  V30 6480 H 613.618 -0.169624 -4.24962 0
M  V30 6481 N 611.933 1.52934 -0.380664 0
M  V30 6482 C 612.843 2.29921 0.466192 0
M  V30 6483 C 613.859 1.36488 1.07922 0
M  V30 6484 O 615.035 1.69553 1.0869 0
M  V30 6485 C 612.1 3.08468 1.58266 0
M  V30 6486 C 611.161 4.17595 0.995627 0
M  V30 6487 C 610.394 4.92387 2.05889 0
M  V30 6488 O 610.617 4.67184 3.27254 0
M  V30 6489 O 609.551 5.77949 1.68102 0
M  V30 6490 H 613.377 3.03274 -0.160735 0
M  V30 6491 H 610.962 1.48698 -0.144617 0
M  V30 6492 H 612.844 3.57469 2.23145 0
M  V30 6493 H 611.519 2.37937 2.19471 0
M  V30 6494 H 610.426 3.72811 0.310332 0
M  V30 6495 H 611.759 4.90336 0.427918 0
M  V30 6496 N 613.412 0.11024 1.57214 0
M  V30 6497 C 614.342 -0.840002 2.17867 0
M  V30 6498 C 615.323 -1.28352 1.11624 0
M  V30 6499 O 616.508 -1.3477 1.39824 0
M  V30 6500 C 613.638 -2.09349 2.77111 0
M  V30 6501 C 612.592 -1.78807 3.8886 0
M  V30 6502 C 611.918 -3.11112 4.34872 0
M  V30 6503 C 613.218 -1.0632 5.11364 0
M  V30 6504 H 614.912 -0.334608 2.97524 0
M  V30 6505 H 612.458 -0.159502 1.43114 0
M  V30 6506 H 614.411 -2.76275 3.18198 0
M  V30 6507 H 613.135 -2.62198 1.9473 0
M  V30 6508 H 611.794 -1.14273 3.48335 0
M  V30 6509 H 611.442 -3.61877 3.49362 0
M  V30 6510 H 611.142 -2.91453 5.10224 0
M  V30 6511 H 612.666 -3.79171 4.78604 0
M  V30 6512 H 614.08 -1.63383 5.49526 0
M  V30 6513 H 612.477 -0.967876 5.92243 0
M  V30 6514 H 613.547 -0.0484569 4.84876 0
M  V30 6515 N 614.89 -1.56749 -0.16351 0
M  V30 6516 C 616.139 -1.81626 -0.877211 0
M  V30 6517 C 616.452 -0.688791 -1.83071 0
M  V30 6518 O 617.658 -0.822697 -2.58735 0
M  V30 6519 C 616.114 -3.21858 -1.61045 0
M  V30 6520 C 615.722 -4.42494 -0.700195 0
M  V30 6521 C 617.466 -3.56021 -2.31192 0
M  V30 6522 C 615.373 -5.73748 -1.43412 0
M  V30 6523 H 614.303 -0.67731 -0.331312 0
M  V30 6524 H 616.954 -1.83039 -0.13006 0
M  V30 6525 H 615.336 -3.14784 -2.40264 0
M  V30 6526 H 616.51 -4.60766 0.0555849 0
M  V30 6527 H 614.825 -4.1626 -0.10799 0
M  V30 6528 H 617.422 -4.51333 -2.8671 0
M  V30 6529 H 617.765 -2.81277 -3.06902 0
M  V30 6530 H 618.298 -3.64682 -1.58909 0
M  V30 6531 H 615.037 -6.51543 -0.719186 0
M  V30 6532 H 614.557 -5.5944 -2.16302 0
M  V30 6533 H 616.236 -6.15975 -1.9795 0
M  V30 6534 N 616.368 0.432326 -1.51554 0
M  V30 6535 C 617.331 1.50765 -1.72634 0
M  V30 6536 C 618.331 1.49334 -0.596314 0
M  V30 6537 O 619.521 1.51268 -0.863925 0
M  V30 6538 C 616.653 2.90284 -1.7874 0
M  V30 6539 H 617.846 1.33377 -2.68609 0
M  V30 6540 H 615.399 0.661329 -1.4162 0
M  V30 6541 H 616.134 3.13071 -0.845977 0
M  V30 6542 H 615.919 2.92727 -2.6087 0
M  V30 6543 H 617.409 3.68282 -1.96871 0
M  V30 6544 N 617.846 1.41785 0.688094 0
M  V30 6545 C 618.796 1.40684 1.79421 0
M  V30 6546 C 619.78 0.280096 1.58443 0
M  V30 6547 O 620.972 0.521332 1.69148 0
M  V30 6548 C 618.101 1.29874 3.17785 0
M  V30 6549 C 617.187 2.47442 3.44432 0
M  V30 6550 N 617.578 3.72895 3.41736 0
M  V30 6551 C 615.876 2.41416 3.75013 0
M  V30 6552 C 616.577 4.50912 3.67496 0
M  V30 6553 N 615.553 3.81131 3.87608 0
M  V30 6554 H 619.355 2.35591 1.7571 0
M  V30 6555 H 616.869 1.35946 0.888393 0
M  V30 6556 H 618.866 1.27168 3.97031 0
M  V30 6557 H 617.526 0.359587 3.22703 0
M  V30 6558 H 618.537 4.05676 3.21943 0
M  V30 6559 H 615.214 1.56011 3.87256 0
M  V30 6560 H 616.604 5.59865 3.71484 0
M  V30 6561 N 619.324 -0.923095 1.27737 0
M  V30 6562 C 620.572 -1.66797 1.14119 0
M  V30 6563 C 620.893 -1.92479 -0.312541 0
M  V30 6564 O 620.163 -1.53432 -1.218 0
M  V30 6565 H 618.743 -0.618196 0.419336 0
M  V30 6566 H 621.405 -1.10815 1.60331 0
M  V30 6567 H 620.501 -2.63424 1.67374 0
M  V30 6568 N 620.802 -1.09834 -1.13024 0
M  V30 6569 C 622.218 -0.828875 -1.36388 0
M  V30 6570 C 622.418 0.554756 -1.93713 0
M  V30 6571 O 621.474 1.30882 -2.15931 0
M  V30 6572 C 622.787 -1.92352 -2.3113 0
M  V30 6573 C 624.335 -1.95124 -2.44735 0
M  V30 6574 C 624.81 -3.03745 -3.42787 0
M  V30 6575 N 626.301 -3.03012 -3.5034 0
M  V30 6576 C 627.036 -3.83699 -4.26101 0
M  V30 6577 N 626.532 -4.74306 -5.04981 0
M  V30 6578 N 628.325 -3.71942 -4.21445 0
M  V30 6579 H 620.476 -1.99029 -0.74169 0
M  V30 6580 H 622.739 -0.864557 -0.388903 0
M  V30 6581 H 622.445 -2.91906 -1.96172 0
M  V30 6582 H 622.319 -1.80536 -3.3119 0
M  V30 6583 H 624.706 -0.962069 -2.78977 0
M  V30 6584 H 624.787 -2.11018 -1.44586 0
M  V30 6585 H 624.431 -4.02878 -3.09276 0
M  V30 6586 H 624.361 -2.85094 -4.42752 0
M  V30 6587 H 626.852 -2.37352 -2.94062 0
M  V30 6588 H 627.165 -5.32446 -5.60108 0
M  V30 6589 H 625.51 -4.78339 -5.04199 0
M  V30 6590 H 628.701 -3.00513 -3.589 0
M  V30 6591 H 628.874 -4.35062 -4.80235 0
M  V30 6592 N 622.28 1.30327 -0.886154 0
M  V30 6593 C 623.19 2.31854 -0.357866 0
M  V30 6594 C 624.206 1.65392 0.540502 0
M  V30 6595 O 625.382 1.96683 0.433339 0
M  V30 6596 C 622.447 3.44171 0.417999 0
M  V30 6597 C 621.508 4.26257 -0.510263 0
M  V30 6598 C 620.741 5.3321 0.228669 0
M  V30 6599 O 620.964 5.51542 1.45458 0
M  V30 6600 O 619.898 6.0042 -0.421832 0
M  V30 6601 H 623.724 2.78995 -1.19982 0
M  V30 6602 H 621.309 1.34518 -0.650028 0
M  V30 6603 H 623.191 4.12588 0.857251 0
M  V30 6604 H 621.866 2.99164 1.23623 0
M  V30 6605 H 620.773 3.60533 -0.99835 0
M  V30 6606 H 622.106 4.74871 -1.29454 0
M  V30 6607 N 623.758 0.647228 1.43697 0
M  V30 6608 C 625.004 0.158422 2.0218 0
M  V30 6609 C 625.337 -1.22233 1.50907 0
M  V30 6610 O 624.612 -1.81478 0.699702 0
M  V30 6611 C 624.895 0.1627 3.59732 0
M  V30 6612 C 624.748 1.57694 4.21251 0
M  V30 6613 C 626.067 -0.504138 4.37203 0
M  V30 6614 H 623.186 0.059042 0.734631 0
M  V30 6615 H 625.828 0.826772 1.71069 0
M  V30 6616 H 623.978 -0.406414 3.86368 0
M  V30 6617 H 625.65 2.19618 4.05667 0
M  V30 6618 H 623.893 2.12603 3.7813 0
M  V30 6619 H 624.564 1.53183 5.3032 0
M  V30 6620 H 627.04 -0.0199841 4.16095 0
M  V30 6621 H 625.916 -0.470394 5.46881 0
M  V30 6622 H 626.177 -1.57726 4.13007 0
M  V30 6623 N 625.236 -1.5273 0.388769 0
M  V30 6624 C 626.513 -1.93981 -0.251133 0
M  V30 6625 C 626.893 -1.32418 -1.64404 0
M  V30 6626 O 626.241 -0.492074 -2.23139 0
M  V30 6627 C 626.451 -3.47891 -0.27802 0
M  V30 6628 C 627.799 -4.21559 -0.507229 0
M  V30 6629 O 628.823 -3.54394 -0.358252 0
M  V30 6630 O 627.682 -5.40626 -0.799094 0
M  V30 6631 H 624.776 -0.812157 -0.15598 0
M  V30 6632 H 627.322 -1.63809 0.443237 0
M  V30 6633 H 626.094 -3.8503 0.697669 0
M  V30 6634 H 625.717 -3.84364 -1.01733 0
M  V30 6635 N 626.714 -0.118576 -1.57153 0
M  V30 6636 C 627.624 0.845484 -2.18835 0
M  V30 6637 C 628.64 1.29299 -1.16438 0
M  V30 6638 O 629.816 1.35607 -1.48905 0
M  V30 6639 C 626.881 2.07795 -2.77529 0
M  V30 6640 C 625.942 1.6824 -3.9496 0
M  V30 6641 C 625.175 2.85612 -4.50845 0
M  V30 6642 O 625.398 4.01025 -4.05629 0
M  V30 6643 O 624.332 2.62721 -5.41536 0
M  V30 6644 H 628.158 0.350568 -3.0167 0
M  V30 6645 H 625.743 0.107013 -1.49016 0
M  V30 6646 H 627.625 2.79978 -3.14945 0
M  V30 6647 H 626.3 2.56294 -1.97725 0
M  V30 6648 H 625.207 0.931663 -3.62313 0
M  V30 6649 H 626.54 1.24484 -4.76198 0
M  V30 6650 N 628.193 1.56834 0.155195 0
M  V30 6651 C 629.442 1.82088 0.867567 0
M  V30 6652 C 629.755 0.69849 1.82703 0
M  V30 6653 O 630.961 0.836407 2.58295 0
M  V30 6654 C 629.417 3.22707 1.59336 0
M  V30 6655 C 629.025 4.42859 0.676719 0
M  V30 6656 C 630.769 3.57242 2.293 0
M  V30 6657 C 628.676 5.74501 1.40367 0
M  V30 6658 H 627.606 0.679057 0.327715 0
M  V30 6659 H 630.257 1.83105 0.120351 0
M  V30 6660 H 628.639 3.16054 2.38591 0
M  V30 6661 H 629.813 4.60731 -0.0800196 0
M  V30 6662 H 628.128 4.16311 0.0859129 0
M  V30 6663 H 630.725 4.52847 2.84312 0
M  V30 6664 H 631.068 2.82901 3.05406 0
M  V30 6665 H 631.601 3.6552 1.56972 0
M  V30 6666 H 628.34 6.51915 0.684623 0
M  V30 6667 H 627.86 5.60579 2.13332 0
M  V30 6668 H 629.539 6.17016 1.94681 0
M  V30 6669 N 629.671 -0.424282 1.51781 0
M  V30 6670 C 631.087 -0.761768 1.40247 0
M  V30 6671 C 631.287 -1.95324 0.495041 0
M  V30 6672 O 630.343 -2.5246 -0.0448949 0
M  V30 6673 C 631.656 -1.0299 2.82513 0
M  V30 6674 C 633.204 -1.13354 2.91753 0
M  V30 6675 C 633.679 -1.43453 4.34954 0
M  V30 6676 N 635.17 -1.5035 4.3812 0
M  V30 6677 C 635.905 -1.75236 5.45967 0
M  V30 6678 N 635.401 -1.97827 6.63955 0
M  V30 6679 N 637.194 -1.77126 5.33463 0
M  V30 6680 H 629.345 0.360228 2.09323 0
M  V30 6681 H 631.608 0.0988128 0.942836 0
M  V30 6682 H 631.314 -0.226961 3.50967 0
M  V30 6683 H 631.188 -1.95411 3.22637 0
M  V30 6684 H 633.575 -1.92709 2.23489 0
M  V30 6685 H 633.656 -0.188041 2.55108 0
M  V30 6686 H 633.3 -0.646209 5.03772 0
M  V30 6687 H 633.23 -2.3923 4.69123 0
M  V30 6688 H 635.721 -1.34742 3.53062 0
M  V30 6689 H 636.034 -2.16223 7.41935 0
M  V30 6690 H 634.379 -1.95123 6.67047 0
M  V30 6691 H 637.57 -1.59005 4.40267 0
M  V30 6692 H 637.743 -1.96182 6.17589 0
M  V30 6693 N 631.149 -1.42148 -0.680565 0
M  V30 6694 C 632.081 -1.41119 -1.80605 0
M  V30 6695 C 633.094 -0.311099 -1.598 0
M  V30 6696 O 634.283 -0.573813 -1.69026 0
M  V30 6697 C 631.383 -1.18204 -3.17618 0
M  V30 6698 C 630.556 -2.40537 -3.65322 0
M  V30 6699 C 629.615 -2.13254 -4.8105 0
M  V30 6700 O 628.641 -2.8641 -4.91892 0
M  V30 6701 N 629.843 -1.13208 -5.69354 0
M  V30 6702 H 632.608 -2.38128 -1.81975 0
M  V30 6703 H 630.169 -1.36953 -0.863446 0
M  V30 6704 H 632.161 -0.97878 -3.92686 0
M  V30 6705 H 630.731 -0.29738 -3.11182 0
M  V30 6706 H 629.951 -2.76468 -2.80996 0
M  V30 6707 H 631.239 -3.22012 -3.93936 0
M  V30 6708 H 630.637 -0.526893 -5.63241 0
M  V30 6709 H 629.194 -0.988699 -6.44258 0
M  V30 6710 N 632.627 0.916307 -1.28225 0
M  V30 6711 C 633.876 1.65975 -1.14608 0
M  V30 6712 C 634.189 1.93204 0.305191 0
M  V30 6713 O 635.395 2.65611 0.562432 0
M  V30 6714 C 633.851 2.98989 -2.00333 0
M  V30 6715 C 633.459 2.79417 -3.50186 0
M  V30 6716 C 635.203 3.76856 -1.95397 0
M  V30 6717 C 633.11 4.08056 -4.28071 0
M  V30 6718 H 632.04 0.622587 -0.425324 0
M  V30 6719 H 634.691 1.01705 -1.52736 0
M  V30 6720 H 633.073 3.6438 -1.5506 0
M  V30 6721 H 634.247 2.22723 -4.034 0
M  V30 6722 H 632.562 2.14966 -3.56621 0
M  V30 6723 H 635.159 4.72203 -2.50856 0
M  V30 6724 H 635.502 4.05776 -0.930137 0
M  V30 6725 H 636.035 3.1828 -2.38626 0
M  V30 6726 H 632.774 3.8431 -5.31024 0
M  V30 6727 H 632.294 4.64371 -3.79631 0
M  V30 6728 H 633.973 4.76333 -4.37854 0
M  V30 6729 N 634.105 1.10431 1.1244 0
M  V30 6730 C 635.354 0.841539 1.83306 0
M  V30 6731 C 635.667 -0.634961 1.85007 0
M  V30 6732 O 636.873 -1.01363 2.51869 0
M  V30 6733 C 635.329 1.45565 3.29149 0
M  V30 6734 C 634.937 2.96544 3.35806 0
M  V30 6735 C 636.681 1.27227 4.04986 0
M  V30 6736 C 634.588 3.5099 4.75983 0
M  V30 6737 H 633.518 0.311156 0.686803 0
M  V30 6738 H 636.169 1.32829 1.26604 0
M  V30 6739 H 634.551 0.896574 3.85717 0
M  V30 6740 H 635.725 3.58766 2.89177 0
M  V30 6741 H 634.04 3.14036 2.73442 0
M  V30 6742 H 636.637 1.65348 5.08492 0
M  V30 6743 H 636.98 0.213834 4.1575 0
M  V30 6744 H 637.513 1.79941 3.54776 0
M  V30 6745 H 634.252 4.56499 4.70413 0
M  V30 6746 H 633.772 2.93535 5.23065 0
M  V30 6747 H 635.451 3.48808 5.44924 0
M  V30 6748 N 635.583 -1.29855 0.893053 0
M  V30 6749 C 636.831 -1.9544 0.514566 0
M  V30 6750 C 637.152 -1.70795 -0.940959 0
M  V30 6751 O 636.422 -1.03601 -1.66264 0
M  V30 6752 H 635.002 -0.723137 0.187302 0
M  V30 6753 H 637.664 -1.58234 1.13789 0
M  V30 6754 H 636.76 -3.04341 0.691581 0
M  V30 6755 N 637.061 -0.65484 -1.43351 0
M  V30 6756 C 638.024 0.0263562 -2.29185 0
M  V30 6757 C 639.024 0.748951 -1.42293 0
M  V30 6758 O 640.214 0.589957 -1.63906 0
M  V30 6759 C 637.346 1.04806 -3.2439 0
M  V30 6760 H 638.539 -0.728883 -2.90908 0
M  V30 6761 H 636.092 -0.416149 -1.50658 0
M  V30 6762 H 636.827 1.83247 -2.67565 0
M  V30 6763 H 636.612 0.533554 -3.88453 0
M  V30 6764 H 638.102 1.52372 -3.88809 0
M  V30 6765 N 638.539 1.52521 -0.396863 0
M  V30 6766 C 639.816 1.94112 0.240842 0
M  V30 6767 C 640.196 1.33288 1.637 0
M  V30 6768 O 639.544 0.503901 2.22875 0
M  V30 6769 C 639.754 3.48033 0.259567 0
M  V30 6770 C 641.102 4.21822 0.484866 0
M  V30 6771 O 642.126 3.54579 0.339453 0
M  V30 6772 O 640.985 5.41042 0.770412 0
M  V30 6773 H 638.079 0.812973 0.151671 0
M  V30 6774 H 640.625 1.63572 -0.451918 0
M  V30 6775 H 639.397 3.84655 -0.718078 0
M  V30 6776 H 639.02 3.84899 0.996937 0
M  V30 6777 N 640.017 0.126909 1.57088 0
M  V30 6778 C 641.265 -0.528123 1.95078 0
M  V30 6779 C 641.586 -1.66708 1.0116 0
M  V30 6780 O 640.856 -1.95777 0.0693527 0
M  V30 6781 H 639.436 -0.198087 0.720257 0
M  V30 6782 H 642.098 0.197703 1.93895 0
M  V30 6783 H 641.194 -0.917507 2.98309 0
M  V30 6784 N 641.495 -1.56914 -0.146875 0
M  V30 6785 C 642.425 -2.01308 -1.1831 0
M  V30 6786 C 643.406 -0.892664 -1.44795 0
M  V30 6787 O 644.591 -1.16048 -1.55713 0
M  V30 6788 C 641.721 -2.3938 -2.51624 0
M  V30 6789 C 640.675 -3.54608 -2.3966 0
M  V30 6790 C 640.001 -3.78493 -3.77686 0
M  V30 6791 C 641.301 -4.87269 -1.88058 0
M  V30 6792 H 642.995 -2.88123 -0.813964 0
M  V30 6793 H 640.541 -1.38615 -0.3901 0
M  V30 6794 H 642.494 -2.69037 -3.24341 0
M  V30 6795 H 641.218 -1.49502 -2.90373 0
M  V30 6796 H 639.877 -3.25116 -1.69396 0
M  V30 6797 H 639.525 -2.85866 -4.13871 0
M  V30 6798 H 639.225 -4.56039 -3.70543 0
M  V30 6799 H 640.749 -4.10576 -4.51951 0
M  V30 6800 H 642.163 -5.15644 -2.50568 0
M  V30 6801 H 640.56 -5.68622 -1.91805 0
M  V30 6802 H 641.63 -4.77634 -0.836277 0
M  V30 6803 N 642.974 0.416227 -1.52004 0
M  V30 6804 C 644.223 1.16088 -1.64944 0
M  V30 6805 C 644.536 1.91835 -0.381928 0
M  V30 6806 O 645.742 2.6867 -0.391013 0
M  V30 6807 C 644.198 2.1124 -2.91386 0
M  V30 6808 C 643.806 1.41042 -4.25219 0
M  V30 6809 C 645.55 2.86008 -3.13688 0
M  V30 6810 C 643.457 2.34801 -5.42791 0
M  V30 6811 H 642.387 0.437041 -0.61442 0
M  V30 6812 H 645.038 0.425971 -1.78487 0
M  V30 6813 H 643.42 2.88254 -2.71525 0
M  V30 6814 H 644.594 0.694416 -4.55538 0
M  V30 6815 H 642.909 0.78344 -4.08964 0
M  V30 6816 H 645.506 3.56286 -3.98703 0
M  V30 6817 H 645.849 3.48556 -2.27628 0
M  V30 6818 H 646.382 2.16095 -3.33988 0
M  V30 6819 H 643.121 1.7691 -6.31176 0
M  V30 6820 H 642.641 3.04395 -5.16821 0
M  V30 6821 H 644.32 2.9548 -5.75587 0
M  V30 6822 N 644.452 1.42507 0.673017 0
M  V30 6823 C 645.699 1.43072 1.43306 0
M  V30 6824 C 646.027 0.0478004 1.94441 0
M  V30 6825 O 645.282 -0.944106 1.71421 0
M  V30 6826 C 645.581 2.40351 2.64511 0
M  V30 6827 C 645.247 3.8669 2.31908 0
M  V30 6828 C 643.909 4.26551 2.22728 0
M  V30 6829 C 646.261 4.78991 2.05467 0
M  V30 6830 C 643.589 5.56691 1.85234 0
M  V30 6831 C 645.941 6.09476 1.69477 0
M  V30 6832 C 644.605 6.48334 1.58808 0
M  V30 6833 H 643.875 0.523536 0.524395 0
M  V30 6834 H 646.522 1.75459 0.76723 0
M  V30 6835 H 644.827 2.01297 3.36135 0
M  V30 6836 H 646.524 2.38051 3.22696 0
M  V30 6837 H 643.114 3.55132 2.39956 0
M  V30 6838 H 647.298 4.48982 2.11492 0
M  V30 6839 H 642.554 5.85657 1.75545 0
M  V30 6840 H 646.728 6.80482 1.48043 0
M  V30 6841 H 644.355 7.49084 1.29525 0
M  V30 6842 N 645.93 -0.909495 1.28709 0
M  V30 6843 C 646.862 -2.01729 1.08804 0
M  V30 6844 C 647.875 -1.62755 0.0384739 0
M  V30 6845 O 649.064 -1.76259 0.281977 0
M  V30 6846 C 646.164 -3.32952 0.63217 0
M  V30 6847 C 645.337 -4.00512 1.75809 0
M  V30 6848 C 644.396 -5.10019 1.29488 0
M  V30 6849 O 643.422 -5.32986 1.99787 0
M  V30 6850 N 644.624 -5.80278 0.1604 0
M  V30 6851 H 647.389 -2.19362 2.04207 0
M  V30 6852 H 644.95 -1.08106 1.20518 0
M  V30 6853 H 646.942 -4.03543 0.305802 0
M  V30 6854 H 645.512 -3.11759 -0.229134 0
M  V30 6855 H 644.732 -3.23413 2.25383 0
M  V30 6856 H 646.02 -4.42395 2.51325 0
M  V30 6857 H 645.418 -5.64094 -0.425937 0
M  V30 6858 H 643.975 -6.51713 -0.106663 0
M  V30 6859 N 647.408 -1.11026 -1.11852 0
M  V30 6860 C 648.685 -0.768347 -1.79877 0
M  V30 6861 C 649.065 0.744261 -1.97545 0
M  V30 6862 O 648.413 1.67271 -1.55669 0
M  V30 6863 C 648.623 -1.52648 -3.13846 0
M  V30 6864 C 649.971 -1.70297 -3.88953 0
M  V30 6865 O 650.995 -1.49037 -3.23522 0
M  V30 6866 O 649.854 -2.05593 -5.06353 0
M  V30 6867 H 646.948 -0.277891 -0.778913 0
M  V30 6868 H 649.494 -1.21343 -1.18633 0
M  V30 6869 H 648.266 -2.55564 -2.96315 0
M  V30 6870 H 647.889 -1.07466 -3.82801 0
M  V30 6871 N 648.886 1.2938 -0.899927 0
M  V30 6872 C 649.816 2.30144 -0.39446 0
M  V30 6873 C 650.797 1.61611 0.530639 0
M  V30 6874 O 651.982 1.89119 0.441319 0
M  V30 6875 C 649.112 3.45229 0.37868 0
M  V30 6876 C 648.066 4.25564 -0.456012 0
M  V30 6877 C 647.392 5.32848 0.444637 0
M  V30 6878 C 648.692 4.93651 -1.70605 0
M  V30 6879 H 650.386 2.72673 -1.23653 0
M  V30 6880 H 647.932 1.31086 -0.596034 0
M  V30 6881 H 649.885 4.14797 0.743037 0
M  V30 6882 H 648.609 3.01545 1.25453 0
M  V30 6883 H 647.268 3.57704 -0.802704 0
M  V30 6884 H 646.916 4.85408 1.31863 0
M  V30 6885 H 646.616 5.87497 -0.110154 0
M  V30 6886 H 648.14 6.05268 0.805182 0
M  V30 6887 H 649.554 5.55655 -1.41141 0
M  V30 6888 H 647.951 5.58233 -2.20217 0
M  V30 6889 H 649.021 4.18926 -2.4419 0
M  V30 6890 N 650.364 0.662433 1.43002 0
M  V30 6891 C 651.312 -0.035345 2.32573 0
M  V30 6892 C 652.306 -0.803505 1.49131 0
M  V30 6893 O 653.512 -0.712865 1.65282 0
M  V30 6894 H 649.887 -0.0302194 0.751393 0
M  V30 6895 H 651.858 0.737686 2.89138 0
M  V30 6896 C 650.607 -0.981575 3.33557 0
M  V30 6897 H 649.93 -0.399914 3.97795 0
M  V30 6898 H 651.37 -1.43873 3.98844 0
M  V30 6899 C 649.829 -2.08204 2.64863 0
M  V30 6900 O 650.359 -3.16698 2.47113 0
M  V30 6901 N 648.565 -1.85022 2.24088 0
M  V30 6902 H 648.112 -0.967909 2.38724 0
M  V30 6903 H 648.07 -2.58845 1.78457 0
M  V30 6904 N 651.842 -1.52309 0.404946 0
M  V30 6905 C 653.119 -1.94237 -0.230544 0
M  V30 6906 C 653.499 -1.34154 -1.6299 0
M  V30 6907 O 652.847 -0.515713 -2.22604 0
M  V30 6908 C 653.057 -3.48166 -0.241106 0
M  V30 6909 C 654.405 -4.22074 -0.462488 0
M  V30 6910 O 655.429 -3.54754 -0.320644 0
M  V30 6911 O 654.288 -5.41443 -0.741708 0
M  V30 6912 H 651.382 -0.813766 -0.147358 0
M  V30 6913 H 653.928 -1.6333 0.460587 0
M  V30 6914 H 652.7 -3.84269 0.738467 0
M  V30 6915 H 652.323 -3.85422 -0.97651 0
M  V30 6916 N 653.32 -0.135238 -1.57019 0
M  V30 6917 C 654.25 0.805235 -2.19176 0
M  V30 6918 C 655.231 1.2656 -1.13651 0
M  V30 6919 O 656.416 1.32528 -1.4195 0
M  V30 6920 C 653.546 2.04914 -2.80406 0
M  V30 6921 C 652.5 1.72598 -3.91655 0
M  V30 6922 C 651.826 3.04154 -4.39766 0
M  V30 6923 C 653.126 0.981709 -5.12991 0
M  V30 6924 H 654.82 0.287232 -2.98019 0
M  V30 6925 H 652.366 0.136714 -1.4335 0
M  V30 6926 H 654.319 2.71178 -3.22553 0
M  V30 6927 H 653.043 2.59067 -1.98877 0
M  V30 6928 H 651.702 1.08717 -3.50109 0
M  V30 6929 H 651.35 3.56274 -3.55075 0
M  V30 6930 H 651.05 2.83299 -5.14796 0
M  V30 6931 H 652.574 3.71509 -4.84576 0
M  V30 6932 H 653.988 1.5462 -5.52056 0
M  V30 6933 H 652.385 0.873533 -5.93708 0
M  V30 6934 H 653.455 -0.0286887 -4.84892 0
M  V30 6935 N 654.798 1.5699 0.138552 0
M  V30 6936 C 656.047 1.82998 0.848205 0
M  V30 6937 C 656.36 0.717829 1.81952 0
M  V30 6938 O 657.566 0.863756 2.57394 0
M  V30 6939 C 656.022 3.24379 1.55904 0
M  V30 6940 C 655.63 4.43552 0.62971 0
M  V30 6941 C 657.374 3.59654 2.25498 0
M  V30 6942 C 655.281 5.75957 1.34266 0
M  V30 6943 H 654.211 0.682495 0.320495 0
M  V30 6944 H 656.862 1.83222 0.100924 0
M  V30 6945 H 655.244 3.18567 2.35226 0
M  V30 6946 H 656.418 4.6062 -0.128882 0
M  V30 6947 H 654.733 4.16379 0.0417526 0
M  V30 6948 H 657.33 4.55837 2.79493 0
M  V30 6949 H 657.673 2.86124 3.02388 0
M  V30 6950 H 658.206 3.67164 1.53087 0
M  V30 6951 H 654.945 6.52604 0.615441 0
M  V30 6952 H 654.465 5.62811 2.07375 0
M  V30 6953 H 656.144 6.19046 1.88126 0
M  V30 6954 N 656.276 -0.40816 1.52223 0
M  V30 6955 C 657.553 -1.16807 1.56893 0
M  V30 6956 C 657.933 -2.08169 0.350537 0
M  V30 6957 O 657.281 -2.18684 -0.662536 0
M  V30 6958 C 657.491 -1.94451 2.8981 0
M  V30 6959 C 658.839 -2.50484 3.42845 0
M  V30 6960 O 659.863 -2.0463 2.91556 0
M  V30 6961 O 658.722 -3.34192 4.3241 0
M  V30 6962 H 655.816 -0.533382 0.632007 0
M  V30 6963 H 658.362 -0.414862 1.64551 0
M  V30 6964 H 657.134 -1.27527 3.69936 0
M  V30 6965 H 656.757 -2.76775 2.85449 0
M  V30 6966 N 657.755 -1.42862 -0.66545 0
M  V30 6967 C 658.718 -1.46756 -1.76055 0
M  V30 6968 C 659.718 -0.353866 -1.56858 0
M  V30 6969 O 660.908 -0.615099 -1.62979 0
M  V30 6970 C 658.04 -1.30829 -3.14796 0
M  V30 6971 H 659.233 -2.44271 -1.73987 0
M  V30 6972 H 656.786 -1.29447 -0.875965 0
M  V30 6973 H 657.521 -0.342733 -3.22484 0
M  V30 6974 H 657.306 -2.11551 -3.30134 0
M  V30 6975 H 658.796 -1.36458 -3.94676 0
M  V30 6976 N 659.233 0.902656 -1.29189 0
M  V30 6977 C 660.479 1.65532 -1.17163 0
M  V30 6978 C 660.812 1.92216 0.276879 0
M  V30 6979 O 660.087 1.53048 1.20027 0
M  V30 6980 C 660.37 3.00629 -1.98228 0
M  V30 6981 C 660.223 2.81029 -3.51202 0
M  V30 6982 C 661.542 4.01321 -1.80635 0
M  V30 6983 H 658.661 0.60071 -0.426985 0
M  V30 6984 H 661.303 1.04578 -1.5863 0
M  V30 6985 H 659.453 3.52656 -1.62991 0
M  V30 6986 H 661.125 2.35927 -3.96404 0
M  V30 6987 H 659.368 2.1587 -3.76275 0
M  V30 6988 H 660.039 3.77014 -4.03192 0
M  V30 6989 H 662.515 3.58394 -2.11406 0
M  V30 6990 H 661.391 4.93792 -2.3971 0
M  V30 6991 H 661.652 4.35505 -0.760754 0
M  V30 6992 N 660.711 1.11618 1.11262 0
M  V30 6993 C 662.127 0.850468 1.35053 0
M  V30 6994 C 662.327 -0.523868 1.94571 0
M  V30 6995 O 661.383 -1.2743 2.17986 0
M  V30 6996 C 662.696 1.96005 2.28041 0
M  V30 6997 C 664.244 1.98993 2.416 0
M  V30 6998 C 664.719 3.0916 3.37911 0
M  V30 6999 N 666.21 3.08547 3.45475 0
M  V30 7000 C 666.945 3.9043 4.19943 0
M  V30 7001 N 666.441 4.8228 4.97371 0
M  V30 7002 N 668.234 3.786 4.15474 0
M  V30 7003 H 660.385 2.00184 0.709932 0
M  V30 7004 H 662.648 0.870635 0.375099 0
M  V30 7005 H 662.354 2.9499 1.91503 0
M  V30 7006 H 662.228 1.85782 3.28275 0
M  V30 7007 H 664.615 1.00633 2.77411 0
M  V30 7008 H 664.696 2.13292 1.4121 0
M  V30 7009 H 664.34 4.07748 3.02827 0
M  V30 7010 H 664.27 2.92102 4.3816 0
M  V30 7011 H 666.761 2.42 2.90249 0
M  V30 7012 H 667.074 5.41289 5.51567 0
M  V30 7013 H 665.419 4.863 4.96525 0
M  V30 7014 H 668.61 3.06185 3.54074 0
M  V30 7015 H 668.783 4.42647 4.73253 0
M  V30 7016 N 662.189 -1.289 0.906776 0
M  V30 7017 C 663.152 -2.25777 0.394656 0
M  V30 7018 C 664.152 -1.53621 -0.475119 0
M  V30 7019 O 665.342 -1.71949 -0.279165 0
M  V30 7020 C 662.474 -3.38113 -0.43499 0
M  V30 7021 H 663.667 -2.72592 1.25033 0
M  V30 7022 H 661.22 -1.40463 0.685547 0
M  V30 7023 H 661.955 -2.96648 -1.31036 0
M  V30 7024 H 661.74 -3.91647 0.188334 0
M  V30 7025 H 663.23 -4.10168 -0.784365 0
M  V30 7026 N 663.667 -0.670007 -1.42649 0
M  V30 7027 C 664.577 0.0114788 -2.34597 0
M  V30 7028 C 665.593 0.794055 -1.54825 0
M  V30 7029 O 666.769 0.737472 -1.87412 0
M  V30 7030 C 663.834 0.954436 -3.33304 0
M  V30 7031 C 662.895 0.166925 -4.28975 0
M  V30 7032 C 662.128 1.06497 -5.22967 0
M  V30 7033 O 662.351 2.30446 -5.21777 0
M  V30 7034 O 661.285 0.528347 -5.99577 0
M  V30 7035 H 665.111 -0.745794 -2.944 0
M  V30 7036 H 662.696 -0.430228 -1.43071 0
M  V30 7037 H 664.578 1.49589 -3.93956 0
M  V30 7038 H 663.253 1.69164 -2.7598 0
M  V30 7039 H 662.16 -0.418515 -3.71752 0
M  V30 7040 H 663.493 -0.531067 -4.89327 0
M  V30 7041 N 665.145 1.52092 -0.413018 0
M  V30 7042 C 666.093 2.28681 0.425199 0
M  V30 7043 C 667.087 1.3353 1.04241 0
M  V30 7044 O 668.293 1.50973 0.980166 0
M  V30 7045 H 664.668 0.735661 0.155906 0
M  V30 7046 H 666.639 2.97418 -0.241926 0
M  V30 7047 C 665.388 3.1235 1.5275 0
M  V30 7048 H 664.711 3.85439 1.06191 0
M  V30 7049 H 666.151 3.69038 2.08774 0
M  V30 7050 C 664.61 2.26161 2.49706 0
M  V30 7051 O 665.14 1.90452 3.53682 0
M  V30 7052 N 663.346 1.89854 2.20008 0
M  V30 7053 H 662.893 2.19092 1.35486 0
M  V30 7054 H 662.851 1.3248 2.85125 0
M  V30 7055 N 666.623 0.143563 1.56945 0
M  V30 7056 C 668.034 -0.37783 1.82837 0
M  V30 7057 C 668.385 -1.64967 1.06209 0
M  V30 7058 O 667.51 -2.14221 0.306291 0
M  V30 7059 C 668.105 -0.692274 3.31652 0
M  V30 7060 C 666.664 -1.1582 3.58138 0
M  V30 7061 C 665.811 -0.17951 2.76718 0
M  V30 7062 H 668.762 0.368317 1.54367 0
M  V30 7063 H 668.783 -1.54729 3.47619 0
M  V30 7064 H 668.295 0.233572 3.87397 0
M  V30 7065 H 666.396 -2.10011 3.07776 0
M  V30 7066 H 666.509 -1.08655 4.66616 0
M  V30 7067 H 664.873 -0.671458 2.4569 0
M  V30 7068 H 665.656 0.739865 3.35233 0
M  V30 7069 N 668.101 -1.57061 -0.130224 0
M  V30 7070 C 669.378 -1.75205 -0.869631 0
M  V30 7071 C 669.758 -0.716063 -1.98584 0
M  V30 7072 O 669.106 0.262032 -2.26993 0
M  V30 7073 C 669.316 -3.19835 -1.39666 0
M  V30 7074 C 670.664 -3.82011 -1.85345 0
M  V30 7075 O 671.688 -3.23368 -1.49371 0
M  V30 7076 O 670.547 -4.85064 -2.51744 0
M  V30 7077 H 667.641 -0.716977 -0.412157 0
M  V30 7078 H 670.187 -1.69311 -0.11484 0
M  V30 7079 H 668.959 -3.86745 -0.595288 0
M  V30 7080 H 668.582 -3.30222 -2.21448 0
M  V30 7081 N 669.579 0.400081 -1.52437 0
M  V30 7082 C 670.828 1.14332 -1.66166 0
M  V30 7083 C 671.141 1.91419 -0.402253 0
M  V30 7084 O 672.347 2.6824 -0.419487 0
M  V30 7085 C 670.803 2.08137 -2.9361 0
M  V30 7086 C 670.411 1.36524 -4.26691 0
M  V30 7087 C 672.155 2.82664 -3.16703 0
M  V30 7088 C 670.062 2.29031 -5.45251 0
M  V30 7089 H 668.992 0.430499 -0.61902 0
M  V30 7090 H 671.643 0.407017 -1.78929 0
M  V30 7091 H 670.025 2.85358 -2.74567 0
M  V30 7092 H 671.199 0.646061 -4.56249 0
M  V30 7093 H 669.514 0.74002 -4.09771 0
M  V30 7094 H 672.111 3.52037 -4.0246 0
M  V30 7095 H 672.454 3.46122 -2.31312 0
M  V30 7096 H 672.987 2.12541 -3.36261 0
M  V30 7097 H 669.726 1.70206 -6.33017 0
M  V30 7098 H 669.246 2.98896 -5.2002 0
M  V30 7099 H 670.925 2.89359 -5.78689 0
M  V30 7100 N 671.057 1.43213 0.657864 0
M  V30 7101 C 671.989 1.43974 1.78337 0
M  V30 7102 C 673.002 0.336482 1.59285 0
M  V30 7103 O 674.191 0.600631 1.68091 0
M  V30 7104 C 671.291 1.23242 3.15697 0
M  V30 7105 C 670.464 2.46319 3.61449 0
M  V30 7106 C 669.523 2.2088 4.77597 0
M  V30 7107 O 668.549 2.942 4.87273 0
M  V30 7108 N 669.751 1.22251 5.67481 0
M  V30 7109 H 672.516 2.40993 1.78164 0
M  V30 7110 H 670.077 1.3831 0.841549 0
M  V30 7111 H 672.069 1.04113 3.91079 0
M  V30 7112 H 670.639 0.346849 3.1067 0
M  V30 7113 H 669.859 2.80904 2.76563 0
M  V30 7114 H 671.147 3.28239 3.88763 0
M  V30 7115 H 670.545 0.616433 5.62331 0
M  V30 7116 H 669.102 1.09107 6.42603 0
M  V30 7117 N 672.536 -0.895792 1.29666 0
M  V30 7118 C 673.468 -2.00563 1.10937 0
M  V30 7119 C 674.481 -1.62705 0.055734 0
M  V30 7120 O 675.67 -1.7595 0.300656 0
M  V30 7121 C 672.77 -3.32262 0.667448 0
M  V30 7122 C 671.943 -3.98625 1.80047 0
M  V30 7123 C 671.002 -5.08617 1.3489 0
M  V30 7124 O 670.028 -5.30837 2.05429 0
M  V30 7125 N 671.23 -5.80076 0.221937 0
M  V30 7126 H 673.995 -2.17184 2.06522 0
M  V30 7127 H 671.556 -1.06822 1.21658 0
M  V30 7128 H 673.548 -4.03196 0.348586 0
M  V30 7129 H 672.118 -3.11985 -0.196055 0
M  V30 7130 H 671.338 -3.21005 2.28801 0
M  V30 7131 H 672.626 -4.39704 2.56003 0
M  V30 7132 H 672.024 -5.64514 -0.366084 0
M  V30 7133 H 670.581 -6.51789 -0.0375346 0
M  V30 7134 N 674.014 -1.12206 -1.10668 0
M  V30 7135 C 675.261 -0.875875 -1.82578 0
M  V30 7136 C 675.589 0.598342 -1.85068 0
M  V30 7137 O 674.844 1.45818 -1.3052 0
M  V30 7138 C 675.143 -1.39276 -3.29146 0
M  V30 7139 C 674.809 -2.8816 -3.46806 0
M  V30 7140 C 673.471 -3.28813 -3.51334 0
M  V30 7141 C 675.823 -3.8401 -3.52399 0
M  V30 7142 C 673.151 -4.64028 -3.59019 0
M  V30 7143 C 675.503 -5.19053 -3.61617 0
M  V30 7144 C 674.167 -5.59252 -3.64408 0
M  V30 7145 H 673.437 -0.320505 -0.6681 0
M  V30 7146 H 676.084 -1.40184 -1.30464 0
M  V30 7147 H 674.389 -0.787207 -3.8381 0
M  V30 7148 H 676.086 -1.17851 -3.83291 0
M  V30 7149 H 672.676 -2.55716 -3.43958 0
M  V30 7150 H 676.86 -3.53698 -3.48154 0
M  V30 7151 H 672.116 -4.94568 -3.59461 0
M  V30 7152 H 676.29 -5.93152 -3.64889 0
M  V30 7153 H 673.917 -6.64017 -3.70116 0
M  V30 7154 N 675.492 1.28418 -0.913599 0
M  V30 7155 C 676.402 2.31043 -0.406965 0
M  V30 7156 C 677.418 1.66501 0.505298 0
M  V30 7157 O 678.594 1.97558 0.391522 0
M  V30 7158 C 675.659 3.4498 0.344901 0
M  V30 7159 C 674.72 4.25078 -0.600563 0
M  V30 7160 C 673.953 5.33575 0.115516 0
M  V30 7161 O 674.176 5.54503 1.33727 0
M  V30 7162 O 673.11 5.9939 -0.549095 0
M  V30 7163 H 676.936 2.76387 -1.25873 0
M  V30 7164 H 674.521 1.33109 -0.678415 0
M  V30 7165 H 676.403 4.14314 0.769542 0
M  V30 7166 H 675.078 3.01719 1.1725 0
M  V30 7167 H 673.985 3.58334 -1.0746 0
M  V30 7168 H 675.318 4.72018 -1.39497 0
M  V30 7169 N 676.97 0.677563 1.42291 0
M  V30 7170 C 678.21 0.204894 2.0337 0
M  V30 7171 C 678.574 -1.16744 1.5243 0
M  V30 7172 O 679.775 -1.73492 2.05314 0
M  V30 7173 C 678.046 0.240742 3.56588 0
M  V30 7174 S 679.605 -0.16052 4.38506 0
M  V30 7175 H 676.423 0.0839932 0.706021 0
M  V30 7176 H 679.025 0.891332 1.73999 0
M  V30 7177 H 677.729 1.24184 3.91161 0
M  V30 7178 H 677.26 -0.465439 3.90637 0
M  V30 7179 H 679.275 -1.39315 4.76241 0
M  V30 7180 N 678.448 -1.51871 0.421078 0
M  V30 7181 C 679.673 -2.0684 -0.152371 0
M  V30 7182 C 680.098 -1.28802 -1.37083 0
M  V30 7183 O 679.456 -0.321482 -1.78427 0
M  V30 7184 C 679.504 -3.57532 -0.469368 0
M  V30 7185 O 678.608 -3.81818 -1.55848 0
M  V30 7186 H 677.949 -0.663939 -0.00898586 0
M  V30 7187 H 680.479 -1.95674 0.597724 0
M  V30 7188 H 680.489 -4.01515 -0.724553 0
M  V30 7189 H 679.164 -4.13761 0.421276 0
M  V30 7190 H 677.741 -3.49709 -1.29453 0
M  V30 7191 N 679.926 -0.151884 -1.56866 0
M  V30 7192 C 681.172 0.498742 -1.96572 0
M  V30 7193 C 681.505 1.64194 -1.03702 0
M  V30 7194 O 680.78 1.94334 -0.0803432 0
M  V30 7195 C 681.063 1.00027 -3.45929 0
M  V30 7196 C 680.916 -0.141767 -4.49577 0
M  V30 7197 C 682.235 1.88044 -3.97904 0
M  V30 7198 H 679.354 0.17982 -0.714726 0
M  V30 7199 H 681.996 -0.234097 -1.88552 0
M  V30 7200 H 680.146 1.62476 -3.52894 0
M  V30 7201 H 681.818 -0.778269 -4.54687 0
M  V30 7202 H 680.061 -0.80019 -4.26356 0
M  V30 7203 H 680.732 0.250947 -5.51429 0
M  V30 7204 H 683.208 1.35416 -3.93449 0
M  V30 7205 H 682.084 2.20043 -5.02864 0
M  V30 7206 H 682.345 2.81916 -3.40552 0
M  V30 7207 N 681.404 1.57128 0.121893 0
M  V30 7208 C 682.651 1.847 0.830188 0
M  V30 7209 C 682.979 0.736543 1.80015 0
M  V30 7210 O 682.234 -0.272358 1.93796 0
M  V30 7211 C 682.533 3.1874 1.61677 0
M  V30 7212 C 682.199 4.43901 0.791361 0
M  V30 7213 C 680.861 4.77887 0.563731 0
M  V30 7214 C 683.213 5.20753 0.215823 0
M  V30 7215 C 680.541 5.86168 -0.249737 0
M  V30 7216 C 682.893 6.29891 -0.584821 0
M  V30 7217 C 681.557 6.6241 -0.822794 0
M  V30 7218 H 680.827 0.675866 0.303787 0
M  V30 7219 H 683.474 1.91276 0.0926894 0
M  V30 7220 H 681.779 3.07728 2.42509 0
M  V30 7221 H 683.476 3.37295 2.16872 0
M  V30 7222 H 680.066 4.17272 0.978867 0
M  V30 7223 H 684.25 4.94851 0.378907 0
M  V30 7224 H 679.506 6.0979 -0.44336 0
M  V30 7225 H 683.68 6.88624 -1.03779 0
M  V30 7226 H 681.307 7.46147 -1.45496 0
M  V30 7227 N 682.882 -0.391992 1.52647 0
M  V30 7228 C 683.83 -1.4991 1.77848 0
M  V30 7229 C 684.824 -1.56587 0.646282 0
M  V30 7230 O 686.03 -1.59789 0.828698 0
M  V30 7231 H 682.405 -0.498883 0.56269 0
M  V30 7232 H 684.376 -1.25847 2.70564 0
M  V30 7233 C 683.125 -2.87081 1.96163 0
M  V30 7234 H 682.448 -2.82692 2.82711 0
M  V30 7235 H 683.888 -3.63792 2.17787 0
M  V30 7236 C 682.347 -3.28822 0.733348 0
M  V30 7237 O 682.877 -4.01598 -0.0906481 0
M  V30 7238 N 681.083 -2.85068 0.564317 0
M  V30 7239 H 680.63 -2.26012 1.23598 0
M  V30 7240 H 680.588 -3.13355 -0.256166 0
M  V30 7241 N 684.36 -1.4356 -0.65026 0
M  V30 7242 C 685.608 -1.45046 -1.40734 0
M  V30 7243 C 685.929 -0.0769822 -1.94848 0
M  V30 7244 O 685.199 0.888098 -1.74613 0
M  V30 7245 H 683.779 -0.534034 -0.522318 0
M  V30 7246 H 686.441 -1.79186 -0.766703 0
M  V30 7247 H 685.537 -2.16476 -2.24822 0
M  V30 7248 N 685.838 0.888903 -1.30139 0
M  V30 7249 C 687.084 1.6428 -1.18912 0
M  V30 7250 C 687.417 1.92499 0.256477 0
M  V30 7251 O 686.692 1.54312 1.18397 0
M  V30 7252 C 686.975 2.9851 -2.01405 0
M  V30 7253 C 686.828 2.77288 -3.54163 0
M  V30 7254 C 688.147 3.99383 -1.84882 0
M  V30 7255 H 685.266 0.596148 -0.433333 0
M  V30 7256 H 687.908 1.0289 -1.5973 0
M  V30 7257 H 686.058 3.50907 -1.66722 0
M  V30 7258 H 687.73 2.31709 -3.98884 0
M  V30 7259 H 685.973 2.11867 -3.78543 0
M  V30 7260 H 686.644 3.72717 -4.07168 0
M  V30 7261 H 689.12 3.56132 -2.15196 0
M  V30 7262 H 687.996 4.91222 -2.44934 0
M  V30 7263 H 688.257 4.34674 -0.806902 0
M  V30 7264 N 687.317 1.12792 1.10072 0
M  V30 7265 C 688.547 0.907189 1.85617 0
M  V30 7266 C 688.955 -0.547181 1.81115 0
M  V30 7267 O 688.298 -1.39024 1.20075 0
M  V30 7268 C 688.36 1.30872 3.34832 0
M  V30 7269 C 688.024 2.77516 3.6309 0
M  V30 7270 C 689.021 3.75696 3.59373 0
M  V30 7271 C 686.706 3.14513 3.91646 0
M  V30 7272 C 688.7 5.08888 3.83812 0
M  V30 7273 C 686.387 4.47886 4.15742 0
M  V30 7274 C 687.385 5.44882 4.11816 0
M  V30 7275 O 687.073 6.7585 4.35295 0
M  V30 7276 H 686.805 0.323855 0.593375 0
M  V30 7277 H 689.359 1.50262 1.40038 0
M  V30 7278 H 687.589 0.656518 3.81086 0
M  V30 7279 H 689.278 1.06153 3.91773 0
M  V30 7280 H 690.044 3.48458 3.37345 0
M  V30 7281 H 685.923 2.39622 3.93831 0
M  V30 7282 H 689.467 5.84586 3.80663 0
M  V30 7283 H 685.364 4.74851 4.37249 0
M  V30 7284 H 686.132 6.81853 4.52791 0
M  V30 7285 N 688.795 -1.27931 0.920396 0
M  V30 7286 C 690.041 -1.94977 0.557832 0
M  V30 7287 C 690.374 -1.72224 -0.897365 0
M  V30 7288 O 689.649 -1.04705 -1.63912 0
M  V30 7289 C 689.932 -3.49289 0.875741 0
M  V30 7290 C 689.785 -3.81416 2.38416 0
M  V30 7291 C 691.104 -4.38486 0.376517 0
M  V30 7292 H 688.223 -0.708164 0.20414 0
M  V30 7293 H 690.865 -1.5118 1.15085 0
M  V30 7294 H 689.015 -3.86724 0.371062 0
M  V30 7295 H 690.687 -3.53813 2.95997 0
M  V30 7296 H 688.93 -3.28225 2.83639 0
M  V30 7297 H 689.601 -4.89198 2.55713 0
M  V30 7298 H 692.077 -4.08161 0.808945 0
M  V30 7299 H 690.953 -5.45296 0.627976 0
M  V30 7300 H 691.214 -4.36143 -0.723293 0
M  V30 7301 N 690.273 -0.685099 -1.4193 0
M  V30 7302 C 691.501 -0.220372 -2.05723 0
M  V30 7303 C 691.916 1.12642 -1.51516 0
M  V30 7304 O 691.273 1.70182 -0.659114 0
M  V30 7305 C 691.324 -0.157974 -3.61155 0
M  V30 7306 O 691.045 -1.45156 -4.13354 0
M  V30 7307 C 692.546 0.329009 -4.42077 0
M  V30 7308 H 689.766 -0.104725 -0.662777 0
M  V30 7309 H 692.31 -0.934736 -1.81887 0
M  V30 7310 H 690.465 0.507144 -3.84066 0
M  V30 7311 H 690.879 -1.33172 -5.07312 0
M  V30 7312 H 692.353 0.321559 -5.51063 0
M  V30 7313 H 692.83 1.36608 -4.17414 0
M  V30 7314 H 693.436 -0.304737 -4.24207 0
M  V30 7315 N 691.751 1.51645 -0.429126 0
M  V30 7316 C 692.698 2.27542 0.386446 0
M  V30 7317 C 693.668 1.30786 1.02393 0
M  V30 7318 O 694.853 1.59678 1.0444 0
M  V30 7319 C 691.993 3.11457 1.48623 0
M  V30 7320 C 691.106 4.23196 0.867691 0
M  V30 7321 C 690.241 4.94435 1.94183 0
M  V30 7322 C 689.28 5.98108 1.30129 0
M  V30 7323 N 688.417 6.62786 2.31644 0
M  V30 7324 H 693.257 2.968 -0.267155 0
M  V30 7325 H 690.794 1.46397 -0.143591 0
M  V30 7326 H 692.752 3.58429 2.13506 0
M  V30 7327 H 691.382 2.44329 2.10957 0
M  V30 7328 H 690.434 3.80248 0.107373 0
M  V30 7329 H 691.746 4.97499 0.35997 0
M  V30 7330 H 690.9 5.44914 2.66747 0
M  V30 7331 H 689.639 4.19744 2.48326 0
M  V30 7332 H 688.644 5.4693 0.561082 0
M  V30 7333 H 689.869 6.74751 0.767303 0
M  V30 7334 H 687.815 5.90913 2.84883 0
M  V30 7335 H 687.732 7.32828 1.85741 0
M  V30 7336 H 689 7.17897 3.03717 0
M  V30 7337 N 693.229 0.160201 1.56784 0
M  V30 7338 C 694.506 -0.533355 1.88188 0
M  V30 7339 C 694.886 -1.82072 1.06831 0
M  V30 7340 O 694.234 -2.27946 0.158959 0
M  V30 7341 C 694.444 -0.786034 3.40033 0
M  V30 7342 C 695.792 -1.12097 4.09536 0
M  V30 7343 O 696.816 -0.874949 3.45287 0
M  V30 7344 O 695.675 -1.58457 5.23023 0
M  V30 7345 H 692.769 -0.273589 0.780434 0
M  V30 7346 H 695.315 0.197803 1.68543 0
M  V30 7347 H 694.087 0.124515 3.91102 0
M  V30 7348 H 693.71 -1.57091 3.65251 0
M  V30 7349 N 694.707 -1.5719 -0.113559 0
M  V30 7350 C 695.953 -1.85412 -0.821597 0
M  V30 7351 C 696.286 -0.746722 -1.7927 0
M  V30 7352 O 695.561 0.246971 -1.92926 0
M  V30 7353 C 695.844 -3.24233 -1.56669 0
M  V30 7354 C 695.697 -4.45578 -0.614823 0
M  V30 7355 C 697.016 -3.60697 -2.52161 0
M  V30 7356 H 694.135 -0.674406 -0.29723 0
M  V30 7357 H 696.777 -1.89807 -0.085694 0
M  V30 7358 H 694.927 -3.20617 -2.19401 0
M  V30 7359 H 696.599 -4.613 0.00407137 0
M  V30 7360 H 694.842 -4.33738 0.0732332 0
M  V30 7361 H 695.513 -5.39395 -1.17292 0
M  V30 7362 H 697.989 -3.65139 -1.99532 0
M  V30 7363 H 696.865 -4.58798 -3.01323 0
M  V30 7364 H 697.126 -2.88403 -3.35076 0
M  V30 7365 N 696.185 0.383891 -1.52853 0
M  V30 7366 C 697.462 1.14296 -1.58732 0
M  V30 7367 C 697.842 2.07585 -0.383611 0
M  V30 7368 O 697.19 2.1971 0.627661 0
M  V30 7369 C 697.4 1.89816 -2.92867 0
M  V30 7370 C 698.748 2.44998 -3.46787 0
M  V30 7371 O 699.772 1.99966 -2.94774 0
M  V30 7372 O 698.631 3.2727 -4.37672 0
M  V30 7373 H 695.725 0.52326 -0.640413 0
M  V30 7374 H 698.271 0.388631 -1.6519 0
M  V30 7375 H 697.043 1.21626 -3.71918 0
M  V30 7376 H 696.666 2.72199 -2.89816 0
M  V30 7377 N 697.663 1.43903 0.642637 0
M  V30 7378 C 698.595 1.45857 1.768 0
M  V30 7379 C 699.608 0.353358 1.58919 0
M  V30 7380 O 700.797 0.618426 1.67445 0
M  V30 7381 C 697.897 1.26583 3.14372 0
M  V30 7382 C 697.07 2.50139 3.58817 0
M  V30 7383 C 696.129 2.25933 4.75227 0
M  V30 7384 O 695.155 2.99351 4.84125 0
M  V30 7385 N 696.357 1.28263 5.66153 0
M  V30 7386 H 699.122 2.42869 1.75598 0
M  V30 7387 H 696.683 1.39194 0.826832 0
M  V30 7388 H 698.675 1.08255 3.89953 0
M  V30 7389 H 697.245 0.37978 3.10284 0
M  V30 7390 H 696.465 2.83821 2.73568 0
M  V30 7391 H 697.753 3.32344 3.8526 0
M  V30 7392 H 697.151 0.676041 5.61646 0
M  V30 7393 H 695.708 1.15916 6.4141 0
M  V30 7394 N 699.141 -0.881989 1.30609 0
M  V30 7395 C 700.389 -1.63082 1.19368 0
M  V30 7396 C 700.71 -1.93376 -0.251147 0
M  V30 7397 O 699.98 -1.5723 -1.16857 0
M  V30 7398 H 698.56 -0.604542 0.438791 0
M  V30 7399 H 701.222 -1.05658 1.63776 0
M  V30 7400 H 700.318 -2.57966 1.7567 0
M  V30 7401 N 700.619 -1.13374 -1.09472 0
M  V30 7402 C 701.849 -0.917019 -1.85133 0
M  V30 7403 C 702.257 0.537568 -1.81402 0
M  V30 7404 O 701.6 1.38385 -1.20811 0
M  V30 7405 C 701.662 -1.32646 -3.34134 0
M  V30 7406 C 701.326 -2.79437 -3.61613 0
M  V30 7407 C 702.323 -3.77596 -3.57375 0
M  V30 7408 C 700.008 -3.16586 -3.89973 0
M  V30 7409 C 702.002 -5.10916 -3.81108 0
M  V30 7410 C 699.689 -4.50085 -4.13361 0
M  V30 7411 C 700.687 -5.47059 -4.0892 0
M  V30 7412 O 700.375 -6.78149 -4.31705 0
M  V30 7413 H 700.107 -0.326997 -0.591649 0
M  V30 7414 H 702.661 -1.51002 -1.39239 0
M  V30 7415 H 700.891 -0.676719 -3.80733 0
M  V30 7416 H 702.58 -1.08229 -3.91205 0
M  V30 7417 H 703.346 -3.50242 -3.35493 0
M  V30 7418 H 699.225 -2.41707 -3.92554 0
M  V30 7419 H 702.769 -5.86597 -3.77558 0
M  V30 7420 H 698.666 -4.77163 -4.34724 0
M  V30 7421 H 699.434 -6.84244 -4.49168 0
M  V30 7422 N 702.098 1.27442 -0.927168 0
M  V30 7423 C 703.028 2.29256 -0.443188 0
M  V30 7424 C 704.009 1.62701 0.49624 0
M  V30 7425 O 705.194 1.90013 0.401105 0
M  V30 7426 C 702.324 3.45955 0.305366 0
M  V30 7427 C 701.278 4.24501 -0.546178 0
M  V30 7428 C 700.604 5.33671 0.331512 0
M  V30 7429 C 701.904 4.89921 -1.81037 0
M  V30 7430 H 703.598 2.69988 -1.29409 0
M  V30 7431 H 701.144 1.29792 -0.623705 0
M  V30 7432 H 703.097 4.1628 0.654885 0
M  V30 7433 H 701.821 3.04138 1.19029 0
M  V30 7434 H 700.48 3.55921 -0.878398 0
M  V30 7435 H 700.128 4.88096 1.21537 0
M  V30 7436 H 699.828 5.87131 -0.234746 0
M  V30 7437 H 701.352 6.0684 0.676614 0
M  V30 7438 H 702.766 5.52536 -1.52895 0
M  V30 7439 H 701.163 5.53436 -2.32009 0
M  V30 7440 H 702.233 4.13652 -2.53021 0
M  V30 7441 N 703.576 0.692616 1.41565 0
M  V30 7442 C 704.853 0.150496 1.9502 0
M  V30 7443 C 705.233 -1.33881 1.63215 0
M  V30 7444 O 704.581 -2.08378 0.937598 0
M  V30 7445 C 704.791 0.438636 3.46233 0
M  V30 7446 C 706.139 0.364777 4.2303 0
M  V30 7447 O 707.163 0.373383 3.54238 0
M  V30 7448 O 706.022 0.32234 5.45549 0
M  V30 7449 H 703.116 0.0132454 0.826894 0
M  V30 7450 H 705.662 0.768574 1.51298 0
M  V30 7451 H 704.434 1.46962 3.62654 0
M  V30 7452 H 704.057 -0.210562 3.97042 0
M  V30 7453 N 705.054 -1.51416 0.437162 0
M  V30 7454 C 706.301 -2.02086 -0.129364 0
M  V30 7455 C 706.629 -1.32133 -1.42728 0
M  V30 7456 O 705.884 -0.424916 -1.91031 0
M  V30 7457 C 706.183 -3.55203 -0.39564 0
M  V30 7458 C 705.849 -4.43447 0.81644 0
M  V30 7459 C 704.511 -4.67285 1.14884 0
M  V30 7460 C 706.863 -4.95219 1.62503 0
M  V30 7461 C 704.191 -5.40141 2.29052 0
M  V30 7462 C 706.543 -5.69327 2.7577 0
M  V30 7463 C 705.207 -5.91429 3.09464 0
M  V30 7464 H 704.477 -0.739486 -0.0473375 0
M  V30 7465 H 707.124 -1.82368 0.584321 0
M  V30 7466 H 705.429 -3.73252 -1.19121 0
M  V30 7467 H 707.126 -3.91944 -0.847399 0
M  V30 7468 H 703.716 -4.2509 0.547422 0
M  V30 7469 H 707.9 -4.76686 1.38144 0
M  V30 7470 H 703.156 -5.55468 2.55471 0
M  V30 7471 H 707.33 -6.08433 3.38795 0
M  V30 7472 H 704.957 -6.47662 3.98042 0
M  V30 7473 N 706.532 -0.168513 -1.56696 0
M  V30 7474 C 707.462 0.758563 -2.20835 0
M  V30 7475 C 708.443 1.24121 -1.1631 0
M  V30 7476 O 709.628 1.29487 -1.4473 0
M  V30 7477 C 706.758 1.9892 -2.8469 0
M  V30 7478 C 705.712 1.64252 -3.95228 0
M  V30 7479 C 705.038 2.94757 -4.46119 0
M  V30 7480 C 706.338 0.872675 -5.14958 0
M  V30 7481 H 708.032 0.223953 -2.98561 0
M  V30 7482 H 705.578 0.106277 -1.43607 0
M  V30 7483 H 707.531 2.64275 -3.28233 0
M  V30 7484 H 706.255 2.5479 -2.04327 0
M  V30 7485 H 704.914 1.01266 -3.52336 0
M  V30 7486 H 704.562 3.48662 -3.62552 0
M  V30 7487 H 704.262 2.72316 -5.2069 0
M  V30 7488 H 705.786 3.61147 -4.92347 0
M  V30 7489 H 707.2 1.42875 -5.55211 0
M  V30 7490 H 705.597 0.747402 -5.95428 0
M  V30 7491 H 706.667 -0.131535 -4.84722 0
M  V30 7492 N 708.01 1.57248 0.105221 0
M  V30 7493 C 709.287 1.76566 0.841647 0
M  V30 7494 C 709.667 0.747566 1.9742 0
M  V30 7495 O 709.015 -0.225886 2.27381 0
M  V30 7496 C 709.225 3.22016 1.3456 0
M  V30 7497 C 710.573 3.84911 1.79244 0
M  V30 7498 O 711.597 3.25703 1.44207 0
M  V30 7499 O 710.456 4.89008 2.43995 0
M  V30 7500 H 707.55 0.723443 0.400698 0
M  V30 7501 H 710.096 1.69472 0.0878893 0
M  V30 7502 H 708.868 3.87644 0.533685 0
M  V30 7503 H 708.491 3.33703 2.16167 0
M  V30 7504 N 709.488 -0.375779 1.53054 0
M  V30 7505 C 710.716 -1.14036 1.72637 0
M  V30 7506 C 711.131 -1.83342 0.450687 0
M  V30 7507 O 710.488 -1.7318 -0.575749 0
M  V30 7508 C 710.539 -2.17841 2.88492 0
M  V30 7509 O 710.26 -1.51358 4.11123 0
M  V30 7510 C 711.761 -3.06924 3.19863 0
M  V30 7511 H 708.981 -0.341386 0.577665 0
M  V30 7512 H 711.525 -0.437809 1.99759 0
M  V30 7513 H 709.68 -2.8371 2.63794 0
M  V30 7514 H 710.094 -2.20439 4.75928 0
M  V30 7515 H 711.568 -3.75763 4.04359 0
M  V30 7516 H 712.045 -3.71169 2.34798 0
M  V30 7517 H 712.651 -2.46684 3.46449 0
M  V30 7518 N 710.966 -1.44241 -0.634997 0
M  V30 7519 C 711.896 -1.53632 -1.7584 0
M  V30 7520 C 712.877 -0.389603 -1.65578 0
M  V30 7521 O 714.062 -0.609219 -1.84397 0
M  V30 7522 C 711.192 -1.47644 -3.14354 0
M  V30 7523 C 710.146 -2.60752 -3.394 0
M  V30 7524 C 709.472 -2.39817 -4.77904 0
M  V30 7525 C 710.772 -4.02921 -3.32343 0
M  V30 7526 H 712.466 -2.47662 -1.68238 0
M  V30 7527 H 710.012 -1.19197 -0.807969 0
M  V30 7528 H 711.965 -1.52815 -3.92716 0
M  V30 7529 H 710.689 -0.501284 -3.2273 0
M  V30 7530 H 709.348 -2.54965 -2.63417 0
M  V30 7531 H 708.996 -1.40502 -4.82978 0
M  V30 7532 H 708.696 -3.15649 -4.9562 0
M  V30 7533 H 710.22 -2.46799 -5.585 0
M  V30 7534 H 711.634 -4.10098 -4.00615 0
M  V30 7535 H 710.031 -4.78925 -3.61595 0
M  V30 7536 H 711.101 -4.26766 -2.30215 0
M  V30 7537 N 712.444 0.87505 -1.31075 0
M  V30 7538 C 713.86 1.15997 -1.09622 0
M  V30 7539 C 714.06 2.01036 0.136611 0
M  V30 7540 O 713.116 2.38559 0.827397 0
M  V30 7541 C 714.429 1.85702 -2.36506 0
M  V30 7542 C 715.977 1.98425 -2.42067 0
M  V30 7543 C 716.452 2.71544 -3.68819 0
M  V30 7544 N 717.943 2.79084 -3.69684 0
M  V30 7545 C 718.678 3.36259 -4.64454 0
M  V30 7546 N 718.174 3.94406 -5.69575 0
M  V30 7547 N 719.967 3.34169 -4.51982 0
M  V30 7548 H 712.118 0.308258 -2.10151 0
M  V30 7549 H 714.381 0.199145 -0.926847 0
M  V30 7550 H 714.087 1.30663 -3.26527 0
M  V30 7551 H 713.961 2.86017 -2.45915 0
M  V30 7552 H 716.348 2.5263 -1.52518 0
M  V30 7553 H 716.429 0.971682 -2.36626 0
M  V30 7554 H 716.073 2.18008 -4.58732 0
M  V30 7555 H 716.003 3.73198 -3.71525 0
M  V30 7556 H 718.494 2.3781 -2.93691 0
M  V30 7557 H 718.807 4.36129 -6.37974 0
M  V30 7558 H 717.152 3.92797 -5.73355 0
M  V30 7559 H 720.343 2.87977 -3.69035 0
M  V30 7560 H 720.516 3.78431 -5.26017 0
M  V30 7561 N 713.922 1.13953 1.08869 0
M  V30 7562 C 714.87 0.817664 2.17754 0
M  V30 7563 C 715.864 -0.202444 1.68186 0
M  V30 7564 O 717.07 -0.0590159 1.79903 0
M  V30 7565 H 713.445 0.246671 0.710392 0
M  V30 7566 H 715.416 1.74401 2.4213 0
M  V30 7567 C 714.165 0.3063 3.46348 0
M  V30 7568 H 713.488 1.08259 3.84864 0
M  V30 7569 H 714.928 0.119584 4.23831 0
M  V30 7570 C 713.387 -0.969158 3.22659 0
M  V30 7571 O 713.917 -2.04386 3.45817 0
M  V30 7572 N 712.123 -0.902516 2.7623 0
M  V30 7573 H 711.67 -0.027801 2.57585 0
M  V30 7574 H 711.628 -1.75649 2.60758 0
M  V30 7575 N 715.4 -1.26948 0.933913 0
M  V30 7576 C 716.677 -1.89212 0.495784 0
M  V30 7577 C 717.057 -1.84469 -1.02637 0
M  V30 7578 O 716.405 -1.29409 -1.88323 0
M  V30 7579 C 716.615 -3.32865 1.0489 0
M  V30 7580 C 717.963 -4.09749 1.11315 0
M  V30 7581 O 718.987 -3.41905 0.998966 0
M  V30 7582 O 717.846 -5.31061 1.28983 0
M  V30 7583 H 714.94 -0.811284 0.160459 0
M  V30 7584 H 717.486 -1.35171 1.02601 0
M  V30 7585 H 716.258 -3.30642 2.09265 0
M  V30 7586 H 715.881 -3.94435 0.500692 0
M  V30 7587 N 716.879 -0.700114 -1.41195 0
M  V30 7588 C 718.156 -0.160836 -1.94938 0
M  V30 7589 C 718.536 1.33014 -1.63922 0
M  V30 7590 O 717.884 2.07878 -0.948636 0
M  V30 7591 C 718.094 -0.456991 -3.45995 0
M  V30 7592 C 719.442 -0.387207 -4.22831 0
M  V30 7593 O 720.466 -0.392164 -3.54035 0
M  V30 7594 O 719.325 -0.351267 -5.4537 0
M  V30 7595 H 716.419 -0.0176304 -0.826812 0
M  V30 7596 H 718.965 -0.776586 -1.50888 0
M  V30 7597 H 717.737 -1.48884 -3.61869 0
M  V30 7598 H 717.36 0.189503 -3.97148 0
M  V30 7599 N 718.357 1.51182 -0.445186 0
M  V30 7600 C 719.32 2.26501 0.350722 0
M  V30 7601 C 720.32 1.3025 0.942952 0
M  V30 7602 O 721.51 1.53897 0.816175 0
M  V30 7603 C 718.642 3.06274 1.49697 0
M  V30 7604 H 719.835 2.98299 -0.309474 0
M  V30 7605 H 717.388 1.55034 -0.198551 0
M  V30 7606 H 718.123 2.38911 2.19299 0
M  V30 7607 H 717.908 3.76979 1.0784 0
M  V30 7608 H 719.398 3.63306 2.05909 0
M  V30 7609 N 719.835 0.176821 1.56605 0
M  V30 7610 C 720.782 -0.751312 2.18229 0
M  V30 7611 C 721.752 -1.22297 1.12395 0
M  V30 7612 O 722.937 -1.29015 1.40569 0
M  V30 7613 C 720.077 -1.97291 2.83143 0
M  V30 7614 C 719.19 -1.54431 4.03454 0
M  V30 7615 C 718.325 -2.72 4.56278 0
M  V30 7616 C 717.364 -2.25657 5.68986 0
M  V30 7617 N 716.501 -3.36338 6.16296 0
M  V30 7618 H 721.341 -0.219033 2.97194 0
M  V30 7619 H 718.878 -0.0963803 1.46784 0
M  V30 7620 H 720.836 -2.68949 3.1894 0
M  V30 7621 H 719.466 -2.4788 2.06773 0
M  V30 7622 H 718.518 -0.724273 3.73441 0
M  V30 7623 H 719.83 -1.16417 4.85024 0
M  V30 7624 H 718.984 -3.51806 4.94285 0
M  V30 7625 H 717.723 -3.13277 3.73777 0
M  V30 7626 H 716.728 -1.44299 5.30526 0
M  V30 7627 H 717.953 -1.85432 6.53293 0
M  V30 7628 H 715.899 -3.7718 5.36723 0
M  V30 7629 H 715.816 -3.02435 6.9287 0
M  V30 7630 H 717.084 -4.16413 6.58954 0
M  V30 7631 N 721.313 -1.57302 -0.09688 0
M  V30 7632 C 722.276 -2.00976 -1.10188 0
M  V30 7633 C 723.276 -0.903009 -1.3305 0
M  V30 7634 O 724.466 -1.16853 -1.29194 0
M  V30 7635 C 721.598 -2.36893 -2.45142 0
M  V30 7636 H 722.791 -2.9098 -0.726003 0
M  V30 7637 H 720.344 -1.52515 -0.341872 0
M  V30 7638 H 721.079 -1.49837 -2.8761 0
M  V30 7639 H 720.864 -3.17632 -2.29897 0
M  V30 7640 H 722.354 -2.71345 -3.1743 0
M  V30 7641 N 722.791 0.367657 -1.53252 0
M  V30 7642 C 724.037 1.11216 -1.69584 0
M  V30 7643 C 724.37 1.89026 -0.445269 0
M  V30 7644 O 723.645 1.86342 0.557404 0
M  V30 7645 C 723.928 2.07308 -2.94441 0
M  V30 7646 C 723.781 1.3312 -4.2965 0
M  V30 7647 C 725.1 3.07459 -3.14892 0
M  V30 7648 H 722.219 0.40294 -0.617096 0
M  V30 7649 H 724.861 0.393201 -1.85887 0
M  V30 7650 H 723.011 2.68617 -2.80673 0
M  V30 7651 H 724.683 0.746111 -4.55226 0
M  V30 7652 H 722.926 0.633051 -4.29156 0
M  V30 7653 H 723.597 2.03443 -5.13142 0
M  V30 7654 H 726.073 2.56252 -3.27832 0
M  V30 7655 H 724.949 3.71919 -4.03693 0
M  V30 7656 H 725.21 3.77514 -2.30077 0
M  V30 7657 N 724.269 1.44576 0.627338 0
M  V30 7658 C 725.201 1.47724 1.75243 0
M  V30 7659 C 726.214 0.370193 1.58535 0
M  V30 7660 O 727.403 0.636151 1.66779 0
M  V30 7661 C 724.503 1.2991 3.13012 0
M  V30 7662 C 723.676 2.5393 3.56143 0
M  V30 7663 C 722.735 2.30961 4.72804 0
M  V30 7664 O 721.761 3.04469 4.80923 0
M  V30 7665 N 722.963 1.34261 5.6476 0
M  V30 7666 H 725.728 2.44718 1.73012 0
M  V30 7667 H 723.289 1.40064 0.812022 0
M  V30 7668 H 725.281 1.12385 3.88782 0
M  V30 7669 H 723.851 0.412668 3.09864 0
M  V30 7670 H 723.071 2.86707 2.70542 0
M  V30 7671 H 724.359 3.36411 3.81713 0
M  V30 7672 H 723.757 0.735573 5.60897 0
M  V30 7673 H 722.314 1.22713 6.40144 0
M  V30 7674 N 725.747 -0.868086 1.31537 0
M  V30 7675 C 727.163 -1.15414 1.10235 0
M  V30 7676 C 727.363 -2.01106 -0.125947 0
M  V30 7677 O 726.419 -2.38994 -0.814734 0
M  V30 7678 C 727.732 -1.84445 2.37488 0
M  V30 7679 C 729.28 -1.97139 2.43116 0
M  V30 7680 C 729.755 -2.69585 3.70254 0
M  V30 7681 N 731.246 -2.77119 3.71159 0
M  V30 7682 C 731.981 -3.33791 4.6623 0
M  V30 7683 N 731.477 -3.9138 5.71659 0
M  V30 7684 N 733.27 -3.31767 4.53747 0
M  V30 7685 H 725.421 -0.297109 2.10312 0
M  V30 7686 H 727.684 -0.194227 0.92789 0
M  V30 7687 H 727.39 -1.2893 3.27215 0
M  V30 7688 H 727.264 -2.84709 2.47428 0
M  V30 7689 H 729.651 -2.51818 1.53856 0
M  V30 7690 H 729.732 -0.95912 2.37138 0
M  V30 7691 H 729.376 -2.15572 4.59881 0
M  V30 7692 H 729.306 -3.71223 3.73499 0
M  V30 7693 H 731.797 -2.3625 2.94948 0
M  V30 7694 H 732.11 -4.3274 6.40278 0
M  V30 7695 H 730.455 -3.8975 5.7543 0
M  V30 7696 H 733.646 -2.86016 3.70557 0
M  V30 7697 H 733.819 -3.75636 5.28017 0
M  V30 7698 N 727.225 -1.14528 -1.08264 0
M  V30 7699 C 728.157 -0.791325 -2.15106 0
M  V30 7700 C 729.17 0.192449 -1.61659 0
M  V30 7701 O 730.359 -0.0294704 -1.78476 0
M  V30 7702 C 727.459 -0.154183 -3.38549 0
M  V30 7703 C 726.632 -1.17305 -4.21377 0
M  V30 7704 C 725.691 -0.559401 -5.23218 0
M  V30 7705 O 724.717 -1.22277 -5.55911 0
M  V30 7706 N 725.919 0.663159 -5.767 0
M  V30 7707 H 728.684 -1.71076 -2.46075 0
M  V30 7708 H 726.245 -1.0399 -1.24087 0
M  V30 7709 H 728.237 0.268884 -4.03806 0
M  V30 7710 H 726.807 0.668418 -3.0537 0
M  V30 7711 H 726.027 -1.773 -3.52077 0
M  V30 7712 H 727.315 -1.86128 -4.73533 0
M  V30 7713 H 726.713 1.22066 -5.52373 0
M  V30 7714 H 725.27 1.02871 -6.43631 0
M  V30 7715 N 728.703 1.26451 -0.940633 0
M  V30 7716 C 729.651 2.28389 -0.440581 0
M  V30 7717 C 730.645 1.62402 0.481859 0
M  V30 7718 O 731.851 1.76361 0.360132 0
M  V30 7719 H 728.226 0.741716 -0.123938 0
M  V30 7720 H 730.197 2.67967 -1.31288 0
M  V30 7721 C 728.946 3.46576 0.279364 0
M  V30 7722 H 728.269 3.97574 -0.421274 0
M  V30 7723 H 729.709 4.19826 0.59348 0
M  V30 7724 C 728.168 3.01815 1.49697 0
M  V30 7725 O 728.698 3.06607 2.59529 0
M  V30 7726 N 726.904 2.57163 1.35334 0
M  V30 7727 H 726.451 2.53464 0.459743 0
M  V30 7728 H 726.409 2.27578 2.16923 0
M  V30 7729 N 730.181 0.707592 1.40822 0
M  V30 7730 C 731.091 0.0507246 2.34545 0
M  V30 7731 C 732.107 -0.752727 1.56876 0
M  V30 7732 O 733.283 -0.687524 1.89302 0
M  V30 7733 C 730.348 -0.865731 3.35717 0
M  V30 7734 C 729.409 -0.0531313 4.29267 0
M  V30 7735 C 728.642 -0.925939 5.25606 0
M  V30 7736 O 728.865 -2.16531 5.27703 0
M  V30 7737 O 727.799 -0.369194 6.00767 0
M  V30 7738 H 731.625 0.823587 2.9232 0
M  V30 7739 H 729.21 0.46801 1.4188 0
M  V30 7740 H 731.092 -1.39091 3.97783 0
M  V30 7741 H 729.767 -1.61788 2.80368 0
M  V30 7742 H 728.674 0.516931 3.70511 0
M  V30 7743 H 730.007 0.660617 4.87747 0
M  V30 7744 N 731.66 -1.50943 0.453197 0
M  V30 7745 C 732.906 -2.02512 -0.108082 0
M  V30 7746 C 733.239 -1.33574 -1.40967 0
M  V30 7747 O 732.514 -0.455671 -1.89087 0
M  V30 7748 C 732.797 -3.58759 -0.310453 0
M  V30 7749 C 732.65 -4.38293 1.0109 0
M  V30 7750 C 733.969 -4.26816 -1.07313 0
M  V30 7751 H 731.088 -0.73603 -0.0378064 0
M  V30 7752 H 733.73 -1.80433 0.595295 0
M  V30 7753 H 731.88 -3.77702 -0.909582 0
M  V30 7754 H 733.552 -4.30964 1.64523 0
M  V30 7755 H 731.795 -4.02745 1.61179 0
M  V30 7756 H 732.466 -5.45828 0.82315 0
M  V30 7757 H 734.942 -4.1224 -0.565473 0
M  V30 7758 H 733.818 -5.35989 -1.1835 0
M  V30 7759 H 734.079 -3.88757 -2.10525 0
M  V30 7760 N 733.138 -0.185124 -1.56509 0
M  V30 7761 C 734.048 0.751908 -2.22224 0
M  V30 7762 C 735.064 1.24244 -1.21817 0
M  V30 7763 O 736.24 1.29169 -1.54523 0
M  V30 7764 C 733.305 1.95837 -2.86092 0
M  V30 7765 C 732.366 1.51337 -4.01741 0
M  V30 7766 C 731.599 2.66233 -4.62554 0
M  V30 7767 O 731.822 3.8346 -4.22273 0
M  V30 7768 O 730.756 2.39517 -5.52191 0
M  V30 7769 H 734.582 0.222304 -3.02885 0
M  V30 7770 H 732.167 0.0437141 -1.49336 0
M  V30 7771 H 734.049 2.66368 -3.26536 0
M  V30 7772 H 732.724 2.47677 -2.08417 0
M  V30 7773 H 731.631 0.777155 -3.65939 0
M  V30 7774 H 732.964 1.04175 -4.81049 0
M  V30 7775 N 734.616 1.57351 0.0885366 0
M  V30 7776 C 735.564 2.03542 1.12576 0
M  V30 7777 C 736.558 0.937668 1.41082 0
M  V30 7778 O 737.764 1.12283 1.40686 0
M  V30 7779 H 734.139 0.648752 0.380296 0
M  V30 7780 H 736.11 2.89833 0.709906 0
M  V30 7781 C 734.859 2.4811 2.43591 0
M  V30 7782 H 734.182 3.32164 2.22502 0
M  V30 7783 H 735.622 2.842 3.14653 0
M  V30 7784 C 734.081 1.35708 3.08359 0
M  V30 7785 O 734.611 0.689852 3.95732 0
M  V30 7786 N 732.817 1.10641 2.68713 0
M  V30 7787 H 732.364 1.6508 1.97753 0
M  V30 7788 H 732.322 0.356355 3.12374 0
M  V30 7789 N 736.094 -0.359525 1.53444 0
M  V30 7790 C 737.024 -1.44662 1.8329 0
M  V30 7791 C 738.005 -1.55617 0.68683 0
M  V30 7792 O 739.19 -1.70086 0.93725 0
M  V30 7793 C 736.32 -2.81923 2.02822 0
M  V30 7794 C 735.274 -2.85787 3.18606 0
M  V30 7795 C 734.6 -4.25781 3.23442 0
M  V30 7796 C 735.9 -2.52762 4.57065 0
M  V30 7797 H 737.594 -1.19934 2.74329 0
M  V30 7798 H 735.14 -0.575517 1.31999 0
M  V30 7799 H 737.093 -3.58005 2.22285 0
M  V30 7800 H 735.817 -3.08051 1.085 0
M  V30 7801 H 734.476 -2.12157 2.98973 0
M  V30 7802 H 734.124 -4.48994 2.26745 0
M  V30 7803 H 733.824 -4.29281 4.01238 0
M  V30 7804 H 735.348 -5.03727 3.45096 0
M  V30 7805 H 736.762 -3.18557 4.76649 0
M  V30 7806 H 735.159 -2.67569 5.37147 0
M  V30 7807 H 736.229 -1.47993 4.61764 0
M  V30 7808 N 737.572 -1.44907 -0.619662 0
M  V30 7809 C 738.482 -1.55168 -1.75955 0
M  V30 7810 C 739.498 -0.43672 -1.6843 0
M  V30 7811 O 740.674 -0.695704 -1.89002 0
M  V30 7812 C 737.739 -1.50397 -3.12381 0
M  V30 7813 C 736.8 -2.72835 -3.31451 0
M  V30 7814 C 736.033 -2.68283 -4.61368 0
M  V30 7815 O 736.256 -1.74929 -5.42914 0
M  V30 7816 O 735.19 -3.59308 -4.82889 0
M  V30 7817 H 739.016 -2.51493 -1.7025 0
M  V30 7818 H 736.601 -1.27282 -0.782289 0
M  V30 7819 H 738.483 -1.50301 -3.93685 0
M  V30 7820 H 737.158 -0.572197 -3.18603 0
M  V30 7821 H 736.065 -2.78496 -2.49781 0
M  V30 7822 H 737.398 -3.65098 -3.30098 0
M  V30 7823 N 739.05 0.861098 -1.31996 0
M  V30 7824 C 739.983 1.97266 -1.14724 0
M  V30 7825 C 740.961 1.62528 -0.0483789 0
M  V30 7826 O 742.145 1.87366 -0.206478 0
M  V30 7827 C 739.272 3.30181 -0.754861 0
M  V30 7828 C 738.318 3.839 -1.85804 0
M  V30 7829 S 739.151 4.08274 -3.46515 0
M  V30 7830 C 740.307 5.44174 -3.09235 0
M  V30 7831 H 740.54 2.11614 -2.08822 0
M  V30 7832 H 738.073 1.01232 -1.16582 0
M  V30 7833 H 740.031 4.06996 -0.535232 0
M  V30 7834 H 738.692 3.13655 0.167155 0
M  V30 7835 H 737.885 4.80013 -1.53633 0
M  V30 7836 H 737.487 3.13907 -2.03318 0
M  V30 7837 H 739.779 6.26172 -2.58679 0
M  V30 7838 H 740.722 5.81301 -4.04345 0
M  V30 7839 H 741.13 5.0787 -2.46431 0
M  V30 7840 N 740.528 1.15101 1.07655 0
M  V30 7841 C 741.478 0.813448 2.12995 0
M  V30 7842 C 742.462 -0.200899 1.59641 0
M  V30 7843 O 743.654 -0.00209918 1.77 0
M  V30 7844 C 740.783 0.301078 3.41977 0
M  V30 7845 C 739.869 1.3454 4.02194 0
M  V30 7846 N 740.26 2.55181 4.36711 0
M  V30 7847 C 738.558 1.19742 4.29625 0
M  V30 7848 C 739.259 3.22094 4.84387 0
M  V30 7849 N 738.235 2.49486 4.82968 0
M  V30 7850 H 742.037 1.73105 2.37511 0
M  V30 7851 H 739.551 1.03601 1.25063 0
M  V30 7852 H 741.548 0.040914 4.1688 0
M  V30 7853 H 740.208 -0.610629 3.18907 0
M  V30 7854 H 741.219 2.92349 4.27496 0
M  V30 7855 H 737.896 0.345353 4.16069 0
M  V30 7856 H 739.286 4.24996 5.20411 0
M  V30 7857 N 742.006 -1.2595 0.947325 0
M  V30 7858 C 742.954 -2.28152 0.452687 0
M  V30 7859 C 743.948 -1.62655 -0.473239 0
M  V30 7860 O 745.154 -1.76549 -0.350774 0
M  V30 7861 H 741.529 -0.741049 0.12787 0
M  V30 7862 H 743.5 -2.67267 1.32707 0
M  V30 7863 C 742.249 -3.46719 -0.26098 0
M  V30 7864 H 741.572 -3.97345 0.442352 0
M  V30 7865 H 743.012 -4.20135 -0.571208 0
M  V30 7866 C 741.471 -3.02605 -1.48094 0
M  V30 7867 O 742.001 -3.07979 -2.57899 0
M  V30 7868 N 740.207 -2.57877 -1.33969 0
M  V30 7869 H 739.754 -2.53704 -0.446295 0
M  V30 7870 H 739.712 -2.28725 -2.15713 0
M  V30 7871 N 743.484 -0.715051 -1.40445 0
M  V30 7872 C 744.394 -0.0631624 -2.34515 0
M  V30 7873 C 745.41 0.744397 -1.57273 0
M  V30 7874 O 746.586 0.677475 -1.89663 0
M  V30 7875 C 743.651 0.847915 -3.36172 0
M  V30 7876 C 742.712 0.0303655 -4.29289 0
M  V30 7877 C 741.945 0.898051 -5.2609 0
M  V30 7878 O 742.168 2.13729 -5.28844 0
M  V30 7879 O 741.102 0.337328 -6.00954 0
M  V30 7880 H 744.928 -0.839078 -2.91879 0
M  V30 7881 H 742.513 -0.475527 -1.4163 0
M  V30 7882 H 744.395 1.3698 -3.98515 0
M  V30 7883 H 743.07 1.60299 -2.81222 0
M  V30 7884 H 741.977 -0.536573 -3.70232 0
M  V30 7885 H 743.31 -0.686474 -4.87389 0
M  V30 7886 N 744.962 1.50701 -0.461195 0
M  V30 7887 C 746.21 2.01867 0.0970051 0
M  V30 7888 C 746.531 1.34591 1.41104 0
M  V30 7889 O 745.801 0.488041 1.89723 0
M  V30 7890 H 744.381 0.74599 0.0388392 0
M  V30 7891 H 747.043 1.85129 -0.609357 0
M  V30 7892 H 746.139 3.11051 0.255688 0
M  V30 7893 O 746.479 0.334734 1.57993 0
M  V30 7894 H 747.17 -0.222689 1.92416 0
M  V30 END ATOM
M  V30 BEGIN BOND
M  V30 END BOND
M  V30 END CTAB
M  END
$$$$
