drugbank_target|P0AGE0 Single-stranded DNA-binding protein (DB04243)
 OpenBabel12092120033D

  0  0  0     0  0            999 V3000
M  V30 BEGIN CTAB
M  V30 COUNTS 7471 8020 0 0 0
M  V30 BEGIN ATOM
M  V30 1 H -1.547 9.37743 -1.21644 0
M  V30 2 O -1.44 8.89599 -0.40059 0
M  V30 3 P 0 8.91 0 0
M  V30 4 O 0.22 10.1746 0.733838 0
M  V30 5 O 0.79 8.73346 -1.23964 0
M  V30 6 O 0.25 7.66872 0.971405 0
M  V30 7 C -0.69 7.42405 2.04668 0
M  V30 8 C 0.04 6.86059 3.24661 0
M  V30 9 O 0.25 5.42934 3.03695 0
M  V30 10 C 1.44 7.41287 3.50796 0
M  V30 11 O 1.83 7.27073 4.86816 0
M  V30 12 C 2.32 6.5273 2.63741 0
M  V30 13 C 1.61 5.1842 2.73198 0
M  V30 14 N 1.66 4.38762 1.4784 0
M  V30 15 H -1.178 8.36899 2.3252 0
M  V30 16 H -1.45 6.70391 1.71179 0
M  V30 17 H -0.582 7.03638 4.13219 0
M  V30 18 H 2.073 4.59931 3.54016 0
M  V30 19 H 2.353 6.88995 1.59871 0
M  V30 20 H 3.344 6.4684 3.0373 0
M  V30 21 H 1.51 8.47002 3.20749 0
M  V30 22 P 3.37998 7.20834 5.23717 0
M  V30 23 O 3.59998 7.80006 6.57415 0
M  V30 24 O 4.16998 7.79416 4.13051 0
M  V30 25 O 3.62998 5.63315 5.29344 0
M  V30 26 C 2.68998 4.80318 6.01954 0
M  V30 27 C 3.41998 3.64202 6.65911 0
M  V30 28 O 3.62998 2.60736 5.64823 0
M  V30 29 C 4.81998 3.93521 7.19518 0
M  V30 30 O 5.20998 3.02071 8.21205 0
M  V30 31 C 5.69998 3.73047 5.97036 0
M  V30 32 C 4.98998 2.58828 5.25741 0
M  V30 33 N 5.03998 2.68068 3.77503 0
M  V30 34 C 4.95998 3.80474 2.99159 0
M  V30 35 N 5.02998 3.55622 1.71925 0
M  V30 36 C 5.17998 2.1832 1.65733 0
M  V30 37 C 5.30998 1.28842 0.572777 0
M  V30 38 N 5.31998 1.66875 -0.70098 0
M  V30 39 N 5.42998 -0.016788 0.859836 0
M  V30 40 C 5.41998 -0.398145 2.13316 0
M  V30 41 N 5.29998 0.328224 3.22333 0
M  V30 42 C 5.17998 1.62992 2.90383 0
M  V30 43 H 2.20198 5.40394 6.8003 0
M  V30 44 H 1.92998 4.41741 5.32532 0
M  V30 45 H 2.79798 3.26371 7.47889 0
M  V30 46 H 5.45298 1.64007 5.56746 0
M  V30 47 H 5.73298 4.63439 5.3432 0
M  V30 48 H 6.72398 3.44776 6.25925 0
M  V30 49 H 4.88998 4.96707 7.57347 0
M  V30 50 H 4.84898 4.8089 3.39924 0
M  V30 51 H 5.22998 2.66547 -0.941919 0
M  V30 52 H 5.41898 0.965341 -1.44766 0
M  V30 53 H 5.52698 -1.46427 2.29697 0
M  V30 54 P 6.75996 2.75334 8.47391 0
M  V30 55 O 6.97996 2.44571 9.90142 0
M  V30 56 O 7.54996 3.87688 7.92115 0
M  V30 57 O 7.00996 1.4459 7.59357 0
M  V30 58 C 6.06996 0.347608 7.69215 0
M  V30 59 C 6.79996 -0.96767 7.52806 0
M  V30 60 O 7.00996 -1.21036 6.1011 0
M  V30 61 C 8.19996 -1.04544 8.13308 0
M  V30 62 O 8.58996 -2.38311 8.41922 0
M  V30 63 C 9.07996 -0.491279 7.02284 0
M  V30 64 C 8.36996 -0.996264 5.77469 0
M  V30 65 N 8.41996 -0.0501916 4.62973 0
M  V30 66 H 5.58096 0.374722 8.67691 0
M  V30 67 H 5.31096 0.443485 6.90277 0
M  V30 68 H 6.17796 -1.75537 7.96793 0
M  V30 69 P 10.1399 -2.75334 8.47391 0
M  V30 70 O 10.3599 -3.84128 9.44797 0
M  V30 71 O 10.9299 -1.51947 8.68712 0
M  V30 72 O 10.3899 -3.29363 6.99321 0
M  V30 73 C 9.44994 -4.24011 6.4274 0
M  V30 74 C 10.1799 -5.20775 5.52155 0
M  V30 75 O 10.3899 -4.56534 4.22446 0
M  V30 76 C 11.5799 -5.62629 5.96531 0
M  V30 77 O 11.9699 -6.87667 5.41053 0
M  V30 78 C 12.4599 -4.52537 5.39283 0
M  V30 79 C 11.7499 -4.20027 4.08623 0
M  V30 80 N 11.7999 -2.76189 3.71603 0
M  V30 81 C 11.7199 -1.64862 4.52822 0
M  V30 82 N 11.7999 -0.512671 3.88633 0
M  V30 83 C 11.9399 -0.888083 2.54977 0
M  V30 84 C 12.0699 -0.094668 1.38677 0
M  V30 85 N 12.1899 -0.890102 0.232633 0
M  V30 86 C 12.1899 -2.26958 0.21772 0
M  V30 87 N 12.3199 -2.84626 -0.97925 0
M  V30 88 N 12.0599 -3.0178 1.31033 0
M  V30 89 C 11.9399 -2.26781 2.43843 0
M  V30 90 H 8.96094 -4.797 7.24003 0
M  V30 91 H 8.69094 -3.69856 5.84513 0
M  V30 92 H 9.55794 -6.10356 5.41441 0
M  V30 93 P 13.5199 -7.20834 5.23717 0
M  V30 94 O 13.7399 -8.66104 5.38572 0
M  V30 95 O 14.3099 -6.33544 6.1349 0
M  V30 96 O 13.7699 -6.7751 3.72168 0
M  V30 97 C 12.8299 -7.20825 2.7076 0
M  V30 98 C 13.5599 -7.45864 1.40599 0
M  V30 99 O 13.7699 -6.17651 0.734225 0
M  V30 100 C 14.9599 -8.05808 1.51899 0
M  V30 101 O 15.3499 -8.74358 0.335205 0
M  V30 102 C 15.8399 -6.83093 1.70294 0
M  V30 103 C 15.1299 -5.79992 0.836974 0
M  V30 104 N 15.1799 -4.41864 1.38293 0
M  V30 105 C 15.0999 -3.99538 2.69438 0
M  V30 106 N 15.1799 -2.69909 2.84277 0
M  V30 107 C 15.3199 -2.21719 1.5408 0
M  V30 108 C 15.4499 -0.891712 1.06628 0
M  V30 109 O 15.4699 0.161298 1.70137 0
M  V30 110 N 15.5699 -0.856846 -0.334985 0
M  V30 111 C 15.5699 -1.9641 -1.15789 0
M  V30 112 N 15.6999 -1.72708 -2.46522 0
M  V30 113 N 15.4399 -3.21165 -0.713741 0
M  V30 114 C 15.3199 -3.26797 0.639748 0
M  V30 115 H 12.3409 -8.13644 3.0377 0
M  V30 116 H 12.0709 -6.42788 2.55485 0
M  V30 117 H 12.9379 -8.12039 0.792769 0
M  V30 118 H 15.5929 -5.80061 -0.166416 0
M  V30 119 H 15.8719 -6.51287 2.75604 0
M  V30 120 H 16.8639 -7.01734 1.34462 0
M  V30 121 H 15.0299 -8.73674 2.38337 0
M  V30 122 H 14.9809 -4.68207 3.53221 0
M  V30 123 H 15.6629 0.0398818 -0.767965 0
M  V30 124 H 15.6999 -2.50995 -3.13503 0
M  V30 125 H 15.8009 -0.759148 -2.80716 0
M  V30 126 P 16.8999 -8.91 1.09116e-15 0
M  V30 127 O 17.1199 -10.1726 -0.733694 0
M  V30 128 O 17.6899 -8.73148 1.23936 0
M  V30 129 O 17.1499 -7.66872 -0.971405 0
M  V30 130 C 16.2099 -7.42309 -2.04641 0
M  V30 131 C 16.9399 -6.86059 -3.24661 0
M  V30 132 O 17.1499 -5.42847 -3.03646 0
M  V30 133 C 18.3399 -7.41196 -3.50753 0
M  V30 134 O 18.7299 -7.27073 -4.86816 0
M  V30 135 C 19.2199 -6.5273 -2.63741 0
M  V30 136 C 18.5099 -5.1842 -2.73198 0
M  V30 137 N 18.5599 -4.38762 -1.4784 0
M  V30 138 H 15.7209 -8.36803 -2.32493 0
M  V30 139 H 15.4509 -6.70197 -1.71129 0
M  V30 140 H 16.3179 -7.03551 -4.13168 0
M  V30 141 P 20.2799 -7.20834 -5.23717 0
M  V30 142 O 20.4999 -7.79853 -6.57286 0
M  V30 143 O 21.0699 -7.79239 -4.12957 0
M  V30 144 O 20.5299 -5.63315 -5.29344 0
M  V30 145 C 19.5899 -4.80255 -6.01876 0
M  V30 146 C 20.3199 -3.64202 -6.65911 0
M  V30 147 O 20.5299 -2.60694 -5.64732 0
M  V30 148 C 21.7199 -3.93473 -7.1943 0
M  V30 149 O 22.1099 -3.02071 -8.21205 0
M  V30 150 C 22.5999 -3.73047 -5.97036 0
M  V30 151 C 21.8899 -2.58828 -5.25741 0
M  V30 152 N 21.9399 -2.68068 -3.77503 0
M  V30 153 H 19.1009 -5.40332 -6.79951 0
M  V30 154 H 18.8309 -4.41613 -5.32378 0
M  V30 155 H 19.6979 -3.26331 -7.47797 0
M  V30 156 P 23.6599 -2.75334 -8.47391 0
M  V30 157 O 23.8799 -2.44571 -9.90142 0
M  V30 158 O 24.4499 -3.87688 -7.92115 0
M  V30 159 O 23.9099 -1.4459 -7.59357 0
M  V30 160 C 22.9699 -0.347608 -7.69215 0
M  V30 161 C 23.6999 0.96767 -7.52806 0
M  V30 162 O 23.9099 1.21036 -6.1011 0
M  V30 163 C 25.0999 1.04544 -8.13308 0
M  V30 164 O 25.4899 2.38311 -8.41922 0
M  V30 165 C 25.9799 0.491279 -7.02284 0
M  V30 166 C 25.2699 0.996264 -5.77469 0
M  V30 167 N 25.3199 0.0501916 -4.62973 0
M  V30 168 H 22.4809 -0.374722 -8.67691 0
M  V30 169 H 22.2109 -0.443485 -6.90277 0
M  V30 170 H 23.0779 1.75537 -7.96793 0
M  V30 171 P 27.0398 2.75334 -8.47391 0
M  V30 172 O 27.2598 3.84128 -9.44797 0
M  V30 173 O 27.8298 1.51947 -8.68712 0
M  V30 174 O 27.2898 3.29363 -6.99321 0
M  V30 175 C 26.3498 4.24011 -6.4274 0
M  V30 176 C 27.0798 5.20775 -5.52155 0
M  V30 177 O 27.2898 4.56534 -4.22446 0
M  V30 178 C 28.4798 5.62629 -5.96531 0
M  V30 179 O 28.8698 6.87667 -5.41053 0
M  V30 180 C 29.3598 4.52537 -5.39283 0
M  V30 181 C 28.6498 4.20027 -4.08623 0
M  V30 182 N 28.6998 2.76189 -3.71603 0
M  V30 183 H 25.8608 4.797 -7.24003 0
M  V30 184 H 25.5908 3.69856 -5.84513 0
M  V30 185 H 26.4578 6.10356 -5.41441 0
M  V30 186 P 30.4198 7.20834 -5.23717 0
M  V30 187 O 30.6398 8.66104 -5.38572 0
M  V30 188 O 31.2098 6.33544 -6.1349 0
M  V30 189 O 30.6698 6.7751 -3.72168 0
M  V30 190 C 29.7298 7.20825 -2.7076 0
M  V30 191 C 30.4598 7.45864 -1.40599 0
M  V30 192 O 30.6698 6.17651 -0.734225 0
M  V30 193 C 31.8598 8.05808 -1.51899 0
M  V30 194 O 32.2498 8.74358 -0.335205 0
M  V30 195 C 32.7398 6.83093 -1.70294 0
M  V30 196 C 32.0298 5.79992 -0.836974 0
M  V30 197 N 32.0798 4.41864 -1.38293 0
M  V30 198 H 29.2408 8.13644 -3.0377 0
M  V30 199 H 28.9708 6.42788 -2.55485 0
M  V30 200 H 29.8378 8.12039 -0.792769 0
M  V30 201 P 33.7998 8.91 -2.18232e-15 0
M  V30 202 O 34.0198 10.1726 0.733694 0
M  V30 203 O 34.5898 8.73148 -1.23936 0
M  V30 204 O 34.0498 7.66872 0.971405 0
M  V30 205 C 33.1098 7.42309 2.04641 0
M  V30 206 C 33.8398 6.86059 3.24661 0
M  V30 207 O 34.0498 5.42847 3.03646 0
M  V30 208 C 35.2398 7.41196 3.50753 0
M  V30 209 O 35.6298 7.27073 4.86816 0
M  V30 210 C 36.1198 6.5273 2.63741 0
M  V30 211 C 35.4098 5.1842 2.73198 0
M  V30 212 N 35.4598 4.38762 1.4784 0
M  V30 213 H 32.6208 8.36803 2.32493 0
M  V30 214 H 32.3508 6.70197 1.71129 0
M  V30 215 H 33.2178 7.03551 4.13168 0
M  V30 216 P 37.1798 7.20834 5.23717 0
M  V30 217 O 37.3998 7.79853 6.57286 0
M  V30 218 O 37.9698 7.79239 4.12957 0
M  V30 219 O 37.4298 5.63315 5.29344 0
M  V30 220 C 36.4898 4.80255 6.01876 0
M  V30 221 C 37.2198 3.64202 6.65911 0
M  V30 222 O 37.4298 2.60694 5.64732 0
M  V30 223 C 38.6198 3.93473 7.1943 0
M  V30 224 O 39.0098 3.02071 8.21205 0
M  V30 225 C 39.4998 3.73047 5.97036 0
M  V30 226 C 38.7898 2.58828 5.25741 0
M  V30 227 N 38.8398 2.68068 3.77503 0
M  V30 228 H 36.0008 5.40332 6.79951 0
M  V30 229 H 35.7308 4.41613 5.32378 0
M  V30 230 H 36.5978 3.26331 7.47797 0
M  V30 231 P 40.5598 2.75334 8.47391 0
M  V30 232 O 40.7798 2.44571 9.90142 0
M  V30 233 O 41.3498 3.87688 7.92115 0
M  V30 234 O 40.8098 1.4459 7.59357 0
M  V30 235 C 39.8698 0.347608 7.69215 0
M  V30 236 C 40.5998 -0.96767 7.52806 0
M  V30 237 O 40.8098 -1.21036 6.1011 0
M  V30 238 C 41.9998 -1.04544 8.13308 0
M  V30 239 O 42.3898 -2.38311 8.41922 0
M  V30 240 C 42.8798 -0.491279 7.02284 0
M  V30 241 C 42.1698 -0.996264 5.77469 0
M  V30 242 N 42.2198 -0.0501916 4.62973 0
M  V30 243 C 42.1398 1.32786 4.63244 0
M  V30 244 N 42.2198 1.86957 3.44545 0
M  V30 245 C 42.3598 0.780241 2.58481 0
M  V30 246 C 42.4898 0.738536 1.17757 0
M  V30 247 O 42.5098 1.66794 0.372349 0
M  V30 248 N 42.6098 -0.58337 0.711393 0
M  V30 249 C 42.6098 -1.70816 1.51017 0
M  V30 250 N 42.7398 -2.87826 0.880757 0
M  V30 251 N 42.4798 -1.67126 2.8339 0
M  V30 252 C 42.3598 -0.401421 3.30572 0
M  V30 253 H 39.3808 0.374722 8.67691 0
M  V30 254 H 39.1108 0.443485 6.90277 0
M  V30 255 H 39.9778 -1.75537 7.96793 0
M  V30 256 H 42.6328 -1.95076 5.46529 0
M  V30 257 H 42.9118 0.608565 7.04577 0
M  V30 258 H 43.9038 -0.889672 7.08939 0
M  V30 259 H 42.0698 -0.43308 9.04564 0
M  V30 260 H 42.0208 1.91249 5.54442 0
M  V30 261 H 42.7028 -0.718054 -0.275244 0
M  V30 262 H 42.7398 -3.75721 1.41832 0
M  V30 263 H 42.8408 -2.90436 -0.145468 0
M  V30 264 P 43.9397 -2.75334 8.47391 0
M  V30 265 O 44.1597 -3.84128 9.44797 0
M  V30 266 O 44.7297 -1.51947 8.68712 0
M  V30 267 O 44.1897 -3.29363 6.99321 0
M  V30 268 C 43.2497 -4.24011 6.4274 0
M  V30 269 C 43.9797 -5.20775 5.52155 0
M  V30 270 O 44.1897 -4.56534 4.22446 0
M  V30 271 C 45.3797 -5.62629 5.96531 0
M  V30 272 O 45.7697 -6.87667 5.41053 0
M  V30 273 C 46.2597 -4.52537 5.39283 0
M  V30 274 C 45.5497 -4.20027 4.08623 0
M  V30 275 N 45.5997 -2.76189 3.71603 0
M  V30 276 H 42.7607 -4.797 7.24003 0
M  V30 277 H 42.4907 -3.69856 5.84513 0
M  V30 278 H 43.3577 -6.10356 5.41441 0
M  V30 279 P 47.3197 -7.20834 5.23717 0
M  V30 280 O 47.5397 -8.66104 5.38572 0
M  V30 281 O 48.1097 -6.33544 6.1349 0
M  V30 282 O 47.5697 -6.7751 3.72168 0
M  V30 283 C 46.6297 -7.20825 2.7076 0
M  V30 284 C 47.3597 -7.45864 1.40599 0
M  V30 285 O 47.5697 -6.17651 0.734225 0
M  V30 286 C 48.7597 -8.05808 1.51899 0
M  V30 287 O 49.1497 -8.74358 0.335205 0
M  V30 288 C 49.6397 -6.83093 1.70294 0
M  V30 289 C 48.9297 -5.79992 0.836974 0
M  V30 290 N 48.9797 -4.41864 1.38293 0
M  V30 291 H 46.1407 -8.13644 3.0377 0
M  V30 292 H 45.8707 -6.42788 2.55485 0
M  V30 293 H 46.7377 -8.12039 0.792769 0
M  V30 294 P 50.6997 -8.91 3.27348e-15 0
M  V30 295 O 50.9197 -10.1726 -0.733694 0
M  V30 296 O 51.4897 -8.73148 1.23936 0
M  V30 297 O 50.9497 -7.66872 -0.971405 0
M  V30 298 C 50.0097 -7.42309 -2.04641 0
M  V30 299 C 50.7397 -6.86059 -3.24661 0
M  V30 300 O 50.9497 -5.42847 -3.03646 0
M  V30 301 C 52.1397 -7.41196 -3.50753 0
M  V30 302 O 52.5297 -7.27073 -4.86816 0
M  V30 303 C 53.0197 -6.5273 -2.63741 0
M  V30 304 C 52.3097 -5.1842 -2.73198 0
M  V30 305 N 52.3597 -4.38762 -1.4784 0
M  V30 306 C 52.2797 -4.81605 -0.168631 0
M  V30 307 N 52.3597 -3.85454 0.713363 0
M  V30 308 C 52.4997 -2.6994 -0.0566958 0
M  V30 309 C 52.6297 -1.34815 0.338502 0
M  V30 310 O 52.6497 -0.869548 1.47125 0
M  V30 311 N 52.7497 -0.496304 -0.77465 0
M  V30 312 C 52.7497 -0.908403 -2.09122 0
M  V30 313 N 52.8797 0.0517805 -3.00955 0
M  V30 314 N 52.6197 -2.17875 -2.46519 0
M  V30 315 C 52.4997 -3.01988 -1.4033 0
M  V30 316 H 49.5207 -8.36803 -2.32493 0
M  V30 317 H 49.2507 -6.70197 -1.71129 0
M  V30 318 H 50.1177 -7.03551 -4.13168 0
M  V30 319 H 52.7727 -4.59498 -3.54415 0
M  V30 320 H 53.0517 -6.88898 -1.59848 0
M  V30 321 H 54.0437 -6.46749 -3.03687 0
M  V30 322 H 52.2097 -8.46908 -3.20714 0
M  V30 323 H 52.1607 -5.86405 0.105564 0
M  V30 324 H 52.8427 0.483664 -0.597855 0
M  V30 325 H 52.8797 -0.187865 -4.0116 0
M  V30 326 H 52.9807 1.03585 -2.71726 0
M  V30 327 P 54.0797 -7.20834 -5.23717 0
M  V30 328 O 54.2997 -7.79853 -6.57286 0
M  V30 329 O 54.8697 -7.79239 -4.12957 0
M  V30 330 O 54.3297 -5.63315 -5.29344 0
M  V30 331 C 53.3897 -4.80255 -6.01876 0
M  V30 332 C 54.1197 -3.64202 -6.65911 0
M  V30 333 O 54.3297 -2.60694 -5.64732 0
M  V30 334 C 55.5197 -3.93473 -7.1943 0
M  V30 335 O 55.9097 -3.02071 -8.21205 0
M  V30 336 C 56.3997 -3.73047 -5.97036 0
M  V30 337 C 55.6897 -2.58828 -5.25741 0
M  V30 338 N 55.7397 -2.68068 -3.77503 0
M  V30 339 H 52.9007 -5.40332 -6.79951 0
M  V30 340 H 52.6307 -4.41613 -5.32378 0
M  V30 341 H 53.4977 -3.26331 -7.47797 0
M  V30 342 P 57.4597 -2.75334 -8.47391 0
M  V30 343 O 57.6797 -2.44571 -9.90142 0
M  V30 344 O 58.2497 -3.87688 -7.92115 0
M  V30 345 O 57.7097 -1.4459 -7.59357 0
M  V30 346 C 56.7697 -0.347608 -7.69215 0
M  V30 347 C 57.4997 0.96767 -7.52806 0
M  V30 348 O 57.7097 1.21036 -6.1011 0
M  V30 349 C 58.8997 1.04544 -8.13308 0
M  V30 350 O 59.2897 2.38311 -8.41922 0
M  V30 351 C 59.7797 0.491279 -7.02284 0
M  V30 352 C 59.0697 0.996264 -5.77469 0
M  V30 353 N 59.1197 0.0501916 -4.62973 0
M  V30 354 H 56.2807 -0.374722 -8.67691 0
M  V30 355 H 56.0107 -0.443485 -6.90277 0
M  V30 356 H 56.8777 1.75537 -7.96793 0
M  V30 357 P 60.8396 2.75334 -8.47391 0
M  V30 358 O 61.0596 3.84128 -9.44797 0
M  V30 359 O 61.6296 1.51947 -8.68712 0
M  V30 360 O 61.0896 3.29363 -6.99321 0
M  V30 361 C 60.1496 4.24011 -6.4274 0
M  V30 362 C 60.8796 5.20775 -5.52155 0
M  V30 363 O 61.0896 4.56534 -4.22446 0
M  V30 364 C 62.2796 5.62629 -5.96531 0
M  V30 365 O 62.6696 6.87667 -5.41053 0
M  V30 366 C 63.1596 4.52537 -5.39283 0
M  V30 367 C 62.4496 4.20027 -4.08623 0
M  V30 368 N 62.4996 2.76189 -3.71603 0
M  V30 369 H 59.6606 4.797 -7.24003 0
M  V30 370 H 59.3906 3.69856 -5.84513 0
M  V30 371 H 60.2576 6.10356 -5.41441 0
M  V30 372 P 64.2196 7.20834 -5.23717 0
M  V30 373 O 64.4396 8.66104 -5.38572 0
M  V30 374 O 65.0096 6.33544 -6.1349 0
M  V30 375 O 64.4696 6.7751 -3.72168 0
M  V30 376 C 63.5296 7.20825 -2.7076 0
M  V30 377 C 64.2596 7.45864 -1.40599 0
M  V30 378 O 64.4696 6.17651 -0.734225 0
M  V30 379 C 65.6596 8.05808 -1.51899 0
M  V30 380 O 66.0496 8.74358 -0.335205 0
M  V30 381 C 66.5396 6.83093 -1.70294 0
M  V30 382 C 65.8296 5.79992 -0.836974 0
M  V30 383 N 65.8796 4.41864 -1.38293 0
M  V30 384 H 63.0406 8.13644 -3.0377 0
M  V30 385 H 62.7706 6.42788 -2.55485 0
M  V30 386 H 63.6376 8.12039 -0.792769 0
M  V30 387 P 67.5996 8.91 -4.36464e-15 0
M  V30 388 O 67.8196 10.1726 0.733694 0
M  V30 389 O 68.3896 8.73148 -1.23936 0
M  V30 390 O 67.8496 7.66872 0.971405 0
M  V30 391 C 66.9096 7.42309 2.04641 0
M  V30 392 C 67.6396 6.86059 3.24661 0
M  V30 393 O 67.8496 5.42847 3.03646 0
M  V30 394 C 69.0396 7.41196 3.50753 0
M  V30 395 O 69.4296 7.27073 4.86816 0
M  V30 396 C 69.9196 6.5273 2.63741 0
M  V30 397 C 69.2096 5.1842 2.73198 0
M  V30 398 N 69.2596 4.38762 1.4784 0
M  V30 399 H 66.4206 8.36803 2.32493 0
M  V30 400 H 66.1506 6.70197 1.71129 0
M  V30 401 H 67.0176 7.03551 4.13168 0
M  V30 402 P 70.9796 7.20834 5.23717 0
M  V30 403 O 71.1996 7.79853 6.57286 0
M  V30 404 O 71.7696 7.79239 4.12957 0
M  V30 405 O 71.2296 5.63315 5.29344 0
M  V30 406 C 70.2896 4.80255 6.01876 0
M  V30 407 C 71.0196 3.64202 6.65911 0
M  V30 408 O 71.2296 2.60694 5.64732 0
M  V30 409 C 72.4196 3.93473 7.1943 0
M  V30 410 O 72.8096 3.02071 8.21205 0
M  V30 411 C 73.2996 3.73047 5.97036 0
M  V30 412 C 72.5896 2.58828 5.25741 0
M  V30 413 N 72.6396 2.68068 3.77503 0
M  V30 414 C 72.5596 3.79715 2.96723 0
M  V30 415 N 72.6396 3.5377 1.68852 0
M  V30 416 C 72.7796 2.15054 1.63254 0
M  V30 417 C 72.9096 1.28964 0.518571 0
M  V30 418 N 73.0296 -0.0538097 0.918425 0
M  V30 419 C 73.0296 -0.494275 2.22578 0
M  V30 420 N 73.1596 -1.81086 2.40434 0
M  V30 421 N 72.8996 0.313645 3.27502 0
M  V30 422 C 72.7796 1.61829 2.91033 0
M  V30 423 H 69.8006 5.40332 6.79951 0
M  V30 424 H 69.5306 4.41613 5.32378 0
M  V30 425 H 70.3976 3.26331 7.47797 0
M  V30 426 P 74.3596 2.75334 8.47391 0
M  V30 427 O 74.5796 2.44595 9.90239 0
M  V30 428 O 75.1496 3.87732 7.92204 0
M  V30 429 O 74.6096 1.4459 7.59357 0
M  V30 430 C 73.6696 0.347563 7.69115 0
M  V30 431 C 74.3996 -0.96767 7.52806 0
M  V30 432 O 74.6096 -1.21036 6.1011 0
M  V30 433 C 75.7996 -1.04544 8.13308 0
M  V30 434 O 76.1896 -2.38311 8.41922 0
M  V30 435 C 76.6796 -0.491279 7.02284 0
M  V30 436 C 75.9696 -0.996264 5.77469 0
M  V30 437 N 76.0196 -0.0501808 4.62873 0
M  V30 438 C 76.1696 -0.588177 3.36904 0
M  V30 439 O 76.2596 -1.78598 3.17173 0
M  V30 440 N 76.2096 0.329694 2.33686 0
M  V30 441 C 76.1196 1.6953 2.45079 0
M  V30 442 C 75.9696 2.16933 3.80505 0
M  V30 443 C 75.9196 1.30326 4.83752 0
M  V30 444 H 73.1796 0.374722 8.67691 0
M  V30 445 H 72.9106 0.443421 6.90177 0
M  V30 446 H 73.7776 -1.75537 7.96793 0
M  V30 447 H 76.4326 -1.94496 5.46629 0
M  V30 448 H 76.7116 0.608651 7.04676 0
M  V30 449 H 77.7036 -0.889672 7.08939 0
M  V30 450 H 75.8696 -0.43308 9.04564 0
M  V30 451 H 75.7986 1.68366 5.8516 0
M  V30 452 P 77.7395 -2.75334 8.47391 0
M  V30 453 O 77.9595 -3.84204 9.44982 0
M  V30 454 O 78.5295 -1.51982 8.68909 0
M  V30 455 O 77.9895 -3.29363 6.99321 0
M  V30 456 C 77.0495 -4.24066 6.42823 0
M  V30 457 C 77.7795 -5.20775 5.52155 0
M  V30 458 O 77.9895 -4.56607 4.22514 0
M  V30 459 C 79.1795 -5.62697 5.96604 0
M  V30 460 O 79.5695 -6.87667 5.41053 0
M  V30 461 C 80.0595 -4.52537 5.39283 0
M  V30 462 C 79.3495 -4.20027 4.08623 0
M  V30 463 N 79.3995 -2.76189 3.71603 0
M  V30 464 H 76.5615 -4.79756 7.24086 0
M  V30 465 H 76.2895 -3.69963 5.84682 0
M  V30 466 H 77.1575 -6.10431 5.41508 0
M  V30 467 H 79.8125 -4.78816 3.28024 0
M  V30 468 H 80.0925 -3.64957 6.05871 0
M  V30 469 H 81.0835 -4.88748 5.21323 0
M  V30 470 H 79.2495 -5.66789 7.0643 0
M  V30 471 P 81.1195 -7.20834 5.23717 0
M  V30 472 O 81.3395 -8.66104 5.38572 0
M  V30 473 O 81.9095 -6.33544 6.1349 0
M  V30 474 O 81.3695 -6.7751 3.72168 0
M  V30 475 C 80.4295 -7.20825 2.7076 0
M  V30 476 C 81.1595 -7.45864 1.40599 0
M  V30 477 O 81.3695 -6.17651 0.734225 0
M  V30 478 C 82.5595 -8.05808 1.51899 0
M  V30 479 O 82.9495 -8.74358 0.335205 0
M  V30 480 C 83.4395 -6.83093 1.70294 0
M  V30 481 C 82.7295 -5.79992 0.836974 0
M  V30 482 N 82.7795 -4.41864 1.38293 0
M  V30 483 H 79.9405 -8.13644 3.0377 0
M  V30 484 H 79.6705 -6.42788 2.55485 0
M  V30 485 H 80.5375 -8.12039 0.792769 0
M  V30 486 P 84.4995 -8.91 5.4558e-15 0
M  V30 487 O 84.7195 -10.1726 -0.733694 0
M  V30 488 O 85.2895 -8.73148 1.23936 0
M  V30 489 O 84.7495 -7.66872 -0.971405 0
M  V30 490 C 83.8095 -7.42309 -2.04641 0
M  V30 491 C 84.5395 -6.86059 -3.24661 0
M  V30 492 O 84.7495 -5.42847 -3.03646 0
M  V30 493 C 85.9395 -7.41196 -3.50753 0
M  V30 494 O 86.3295 -7.27073 -4.86816 0
M  V30 495 C 86.8195 -6.5273 -2.63741 0
M  V30 496 C 86.1095 -5.1842 -2.73198 0
M  V30 497 N 86.1595 -4.38762 -1.4784 0
M  V30 498 H 83.3205 -8.36803 -2.32493 0
M  V30 499 H 83.0505 -6.70197 -1.71129 0
M  V30 500 H 83.9175 -7.03551 -4.13168 0
M  V30 501 P 87.8795 -7.20834 -5.23717 0
M  V30 502 O 88.0995 -7.79853 -6.57286 0
M  V30 503 O 88.6695 -7.79239 -4.12957 0
M  V30 504 O 88.1295 -5.63315 -5.29344 0
M  V30 505 C 87.1895 -4.80255 -6.01876 0
M  V30 506 C 87.9195 -3.64202 -6.65911 0
M  V30 507 O 88.1295 -2.60694 -5.64732 0
M  V30 508 C 89.3195 -3.93473 -7.1943 0
M  V30 509 O 89.7095 -3.02071 -8.21205 0
M  V30 510 C 90.1995 -3.73047 -5.97036 0
M  V30 511 C 89.4895 -2.58828 -5.25741 0
M  V30 512 N 89.5395 -2.68068 -3.77503 0
M  V30 513 C 89.4595 -3.79715 -2.96723 0
M  V30 514 N 89.5395 -3.5377 -1.68852 0
M  V30 515 C 89.6795 -2.15054 -1.63254 0
M  V30 516 C 89.8095 -1.28964 -0.518571 0
M  V30 517 O 89.8295 -1.56826 0.679156 0
M  V30 518 N 89.9295 0.0538097 -0.918425 0
M  V30 519 C 89.9295 0.494275 -2.22578 0
M  V30 520 N 90.0595 1.81086 -2.40434 0
M  V30 521 N 89.7995 -0.313645 -3.27502 0
M  V30 522 C 89.6795 -1.61829 -2.91033 0
M  V30 523 H 86.7005 -5.40332 -6.79951 0
M  V30 524 H 86.4305 -4.41613 -5.32378 0
M  V30 525 H 87.2975 -3.26331 -7.47797 0
M  V30 526 H 89.9525 -1.63422 -5.56814 0
M  V30 527 H 90.2315 -4.63374 -5.34244 0
M  V30 528 H 91.2235 -3.44728 -6.25838 0
M  V30 529 H 89.3895 -4.96652 -7.57263 0
M  V30 530 H 89.3405 -4.80617 -3.3614 0
M  V30 531 H 90.0225 0.742702 -0.199384 0
M  V30 532 H 90.0595 2.20598 -3.35588 0
M  V30 533 H 90.1605 2.43518 -1.58945 0
M  V30 534 P 91.2595 -2.75334 -8.47391 0
M  V30 535 O 91.4795 -2.44571 -9.90142 0
M  V30 536 O 92.0495 -3.87688 -7.92115 0
M  V30 537 O 91.5095 -1.4459 -7.59357 0
M  V30 538 C 90.5695 -0.347608 -7.69215 0
M  V30 539 C 91.2995 0.96767 -7.52806 0
M  V30 540 O 91.5095 1.21036 -6.1011 0
M  V30 541 C 92.6995 1.04544 -8.13308 0
M  V30 542 O 93.0895 2.38311 -8.41922 0
M  V30 543 C 93.5795 0.491279 -7.02284 0
M  V30 544 C 92.8695 0.996264 -5.77469 0
M  V30 545 N 92.9195 0.0501916 -4.62973 0
M  V30 546 C 92.8395 -1.32786 -4.63244 0
M  V30 547 N 92.9195 -1.86957 -3.44545 0
M  V30 548 C 93.0595 -0.780241 -2.58481 0
M  V30 549 C 93.1895 -0.738536 -1.17757 0
M  V30 550 O 93.2095 -1.66794 -0.372349 0
M  V30 551 N 93.3095 0.58337 -0.711393 0
M  V30 552 C 93.3095 1.70816 -1.51017 0
M  V30 553 N 93.4395 2.87826 -0.880757 0
M  V30 554 N 93.1795 1.67126 -2.8339 0
M  V30 555 C 93.0595 0.401421 -3.30572 0
M  V30 556 H 90.0805 -0.374722 -8.67691 0
M  V30 557 H 89.8105 -0.443485 -6.90277 0
M  V30 558 H 90.6775 1.75537 -7.96793 0
M  V30 559 H 93.3325 1.95076 -5.46529 0
M  V30 560 H 93.6115 -0.608565 -7.04577 0
M  V30 561 H 94.6035 0.889672 -7.08939 0
M  V30 562 H 92.7695 0.43308 -9.04564 0
M  V30 563 H 92.7205 -1.91249 -5.54442 0
M  V30 564 H 93.4025 0.718054 0.275244 0
M  V30 565 H 93.4395 3.75721 -1.41832 0
M  V30 566 H 93.5405 2.90436 0.145468 0
M  V30 567 P 94.6394 2.75334 -8.47391 0
M  V30 568 O 94.8594 3.84204 -9.44982 0
M  V30 569 O 95.4294 1.51982 -8.68909 0
M  V30 570 O 94.8894 3.29363 -6.99321 0
M  V30 571 C 93.9494 4.24066 -6.42823 0
M  V30 572 C 94.6794 5.20775 -5.52155 0
M  V30 573 O 94.8894 4.56607 -4.22514 0
M  V30 574 C 96.0794 5.62697 -5.96604 0
M  V30 575 O 96.4694 6.87667 -5.41053 0
M  V30 576 C 96.9594 4.52537 -5.39283 0
M  V30 577 C 96.2494 4.20027 -4.08623 0
M  V30 578 N 96.2994 2.76189 -3.71603 0
M  V30 579 C 96.2194 1.66944 -4.54297 0
M  V30 580 N 96.2894 0.536169 -3.91344 0
M  V30 581 C 96.4394 0.901569 -2.58849 0
M  V30 582 C 96.5694 0.146599 -1.40236 0
M  V30 583 N 96.5794 -1.18234 -1.37046 0
M  V30 584 N 96.6894 0.822941 -0.249738 0
M  V30 585 C 96.6794 2.15179 -0.280525 0
M  V30 586 N 96.5594 2.96414 -1.30822 0
M  V30 587 C 96.4394 2.25804 -2.44748 0
M  V30 588 H 93.4614 4.79756 -7.24086 0
M  V30 589 H 93.1894 3.69963 -5.84682 0
M  V30 590 H 94.0574 6.10431 -5.41508 0
M  V30 591 H 96.7124 4.78816 -3.28024 0
M  V30 592 H 96.9924 3.64957 -6.05871 0
M  V30 593 H 97.9834 4.88748 -5.21323 0
M  V30 594 H 96.1494 5.66789 -7.0643 0
M  V30 595 H 96.1084 1.74684 -5.62396 0
M  V30 596 H 96.4894 -1.71949 -2.24394 0
M  V30 597 H 96.6784 -1.67511 -0.470742 0
M  V30 598 H 96.7864 2.63704 0.6828 0
M  V30 599 P 98.0194 7.20834 -5.23717 0
M  V30 600 O 98.2394 8.66104 -5.38572 0
M  V30 601 O 98.8094 6.33544 -6.1349 0
M  V30 602 O 98.2694 6.7751 -3.72168 0
M  V30 603 C 97.3294 7.20825 -2.7076 0
M  V30 604 C 98.0594 7.45864 -1.40599 0
M  V30 605 O 98.2694 6.17651 -0.734225 0
M  V30 606 C 99.4594 8.05808 -1.51899 0
M  V30 607 O 99.8494 8.74358 -0.335205 0
M  V30 608 C 100.339 6.83093 -1.70294 0
M  V30 609 C 99.6294 5.79992 -0.836974 0
M  V30 610 N 99.6794 4.41864 -1.38293 0
M  V30 611 H 96.8404 8.13644 -3.0377 0
M  V30 612 H 96.5704 6.42788 -2.55485 0
M  V30 613 H 97.4374 8.12039 -0.792769 0
M  V30 614 P 101.399 8.91 -6.54696e-15 0
M  V30 615 O 101.619 10.1746 0.733838 0
M  V30 616 O 102.189 8.73346 -1.23964 0
M  V30 617 O 101.649 7.66872 0.971405 0
M  V30 618 C 100.709 7.42405 2.04668 0
M  V30 619 C 101.439 6.86059 3.24661 0
M  V30 620 O 101.649 5.42934 3.03695 0
M  V30 621 C 102.839 7.41287 3.50796 0
M  V30 622 O 103.229 7.27073 4.86816 0
M  V30 623 C 103.719 6.5273 2.63741 0
M  V30 624 C 103.009 5.1842 2.73198 0
M  V30 625 N 103.059 4.38762 1.4784 0
M  V30 626 C 102.979 4.83651 0.183876 0
M  V30 627 N 103.049 3.88759 -0.699393 0
M  V30 628 C 103.199 2.7404 0.0575568 0
M  V30 629 C 103.329 1.37902 -0.293928 0
M  V30 630 N 103.339 0.938021 -1.54797 0
M  V30 631 N 103.449 0.491817 0.70549 0
M  V30 632 C 103.439 0.931735 1.95979 0
M  V30 633 N 103.319 2.16017 2.41481 0
M  V30 634 C 103.199 3.02547 1.39121 0
M  V30 635 H 100.221 8.36899 2.3252 0
M  V30 636 H 99.9494 6.70391 1.71179 0
M  V30 637 H 100.817 7.03638 4.13219 0
M  V30 638 H 103.472 4.59931 3.54016 0
M  V30 639 H 103.752 6.88995 1.59871 0
M  V30 640 H 104.743 6.4684 3.0373 0
M  V30 641 H 102.909 8.47002 3.20749 0
M  V30 642 H 102.868 5.8885 -0.0765548 0
M  V30 643 H 103.249 1.60276 -2.32875 0
M  V30 644 H 103.438 -0.0699355 -1.73859 0
M  V30 645 H 103.546 0.165507 2.71897 0
M  V30 646 P 104.779 7.20834 5.23717 0
M  V30 647 O 104.999 7.79853 6.57286 0
M  V30 648 O 105.569 7.79239 4.12957 0
M  V30 649 O 105.029 5.63315 5.29344 0
M  V30 650 C 104.089 4.80255 6.01876 0
M  V30 651 C 104.819 3.64202 6.65911 0
M  V30 652 O 105.029 2.60694 5.64732 0
M  V30 653 C 106.219 3.93473 7.1943 0
M  V30 654 O 106.609 3.02071 8.21205 0
M  V30 655 C 107.099 3.73047 5.97036 0
M  V30 656 C 106.389 2.58828 5.25741 0
M  V30 657 N 106.439 2.68068 3.77503 0
M  V30 658 H 103.6 5.40332 6.79951 0
M  V30 659 H 103.33 4.41613 5.32378 0
M  V30 660 H 104.197 3.26331 7.47797 0
M  V30 661 P 108.159 2.75334 8.47391 0
M  V30 662 O 108.379 2.44571 9.90142 0
M  V30 663 O 108.949 3.87688 7.92115 0
M  V30 664 O 108.409 1.4459 7.59357 0
M  V30 665 C 107.469 0.347608 7.69215 0
M  V30 666 C 108.199 -0.96767 7.52806 0
M  V30 667 O 108.409 -1.21036 6.1011 0
M  V30 668 C 109.599 -1.04544 8.13308 0
M  V30 669 O 109.989 -2.38311 8.41922 0
M  V30 670 C 110.479 -0.491279 7.02284 0
M  V30 671 C 109.769 -0.996264 5.77469 0
M  V30 672 N 109.819 -0.0501916 4.62973 0
M  V30 673 H 106.98 0.374722 8.67691 0
M  V30 674 H 106.71 0.443485 6.90277 0
M  V30 675 H 107.577 -1.75537 7.96793 0
M  V30 676 P 111.539 -2.75334 8.47391 0
M  V30 677 O 111.759 -3.84166 9.4489 0
M  V30 678 O 112.329 -1.51964 8.6881 0
M  V30 679 O 111.789 -3.29363 6.99321 0
M  V30 680 C 110.849 -4.23956 6.42656 0
M  V30 681 C 111.579 -5.20775 5.52155 0
M  V30 682 O 111.789 -4.56534 4.22446 0
M  V30 683 C 112.979 -5.62629 5.96531 0
M  V30 684 O 113.369 -6.87667 5.41053 0
M  V30 685 C 113.859 -4.52537 5.39283 0
M  V30 686 C 113.149 -4.20027 4.08623 0
M  V30 687 N 113.199 -2.7613 3.71522 0
M  V30 688 C 113.349 -2.45612 2.37989 0
M  V30 689 O 113.439 -3.30919 1.51621 0
M  V30 690 N 113.389 -1.10684 2.08435 0
M  V30 691 C 113.299 -0.0690084 2.9792 0
M  V30 692 O 113.349 1.10553 2.59426 0
M  V30 693 C 113.149 -0.481522 4.35345 0
M  V30 694 C 113.039 0.618778 5.36443 0
M  V30 695 C 113.099 -1.78906 4.67968 0
M  V30 696 H 110.359 -4.797 7.24003 0
M  V30 697 H 110.09 -3.69802 5.84429 0
M  V30 698 H 110.957 -6.10356 5.41441 0
M  V30 699 H 113.612 -4.78651 3.27911 0
M  V30 700 H 113.891 -3.64957 6.05871 0
M  V30 701 H 114.883 -4.8868 5.2125 0
M  V30 702 H 113.049 -5.66726 7.06352 0
M  V30 703 H 112.978 -2.07737 5.72367 0
M  V30 704 H 114.008 0.754375 5.86871 0
M  V30 705 H 112.271 0.359721 6.10641 0
M  V30 706 H 112.759 1.55533 4.8581 0
M  V30 707 H 113.495 -0.862651 1.12037 0
M  V30 708 P 114.919 -7.20834 5.23717 0
M  V30 709 O 115.139 -8.66104 5.38572 0
M  V30 710 O 115.709 -6.33544 6.1349 0
M  V30 711 O 115.169 -6.7751 3.72168 0
M  V30 712 C 114.229 -7.20825 2.7076 0
M  V30 713 C 114.959 -7.45864 1.40599 0
M  V30 714 O 115.169 -6.17651 0.734225 0
M  V30 715 C 116.359 -8.05808 1.51899 0
M  V30 716 O 116.749 -8.74358 0.335205 0
M  V30 717 C 117.239 -6.83093 1.70294 0
M  V30 718 C 116.529 -5.79992 0.836974 0
M  V30 719 N 116.579 -4.41864 1.38293 0
M  V30 720 H 113.74 -8.13644 3.0377 0
M  V30 721 H 113.47 -6.42788 2.55485 0
M  V30 722 H 114.337 -8.12039 0.792769 0
M  V30 723 P 118.299 -8.91 7.63812e-15 0
M  V30 724 O 118.519 -10.1746 -0.733838 0
M  V30 725 O 119.089 -8.73346 1.23964 0
M  V30 726 O 118.549 -7.66872 -0.971405 0
M  V30 727 C 117.609 -7.42405 -2.04668 0
M  V30 728 C 118.339 -6.86059 -3.24661 0
M  V30 729 O 118.549 -5.42934 -3.03695 0
M  V30 730 C 119.739 -7.41287 -3.50796 0
M  V30 731 O 120.129 -7.27073 -4.86816 0
M  V30 732 C 120.619 -6.5273 -2.63741 0
M  V30 733 C 119.909 -5.1842 -2.73198 0
M  V30 734 N 119.959 -4.38762 -1.4784 0
M  V30 735 C 119.879 -4.83651 -0.183876 0
M  V30 736 N 119.949 -3.88759 0.699393 0
M  V30 737 C 120.099 -2.7404 -0.0575568 0
M  V30 738 C 120.229 -1.37902 0.293928 0
M  V30 739 N 120.239 -0.938021 1.54797 0
M  V30 740 N 120.349 -0.491817 -0.70549 0
M  V30 741 C 120.339 -0.931735 -1.95979 0
M  V30 742 N 120.219 -2.16017 -2.41481 0
M  V30 743 C 120.099 -3.02547 -1.39121 0
M  V30 744 H 117.121 -8.36899 -2.3252 0
M  V30 745 H 116.849 -6.70391 -1.71179 0
M  V30 746 H 117.717 -7.03638 -4.13219 0
M  V30 747 H 120.372 -4.59931 -3.54016 0
M  V30 748 H 120.652 -6.88995 -1.59871 0
M  V30 749 H 121.643 -6.4684 -3.0373 0
M  V30 750 H 119.809 -8.47002 -3.20749 0
M  V30 751 H 119.768 -5.8885 0.0765548 0
M  V30 752 H 120.149 -1.60276 2.32875 0
M  V30 753 H 120.338 0.0699355 1.73859 0
M  V30 754 H 120.446 -0.165507 -2.71897 0
M  V30 755 P 121.679 -7.20834 -5.23717 0
M  V30 756 O 121.899 -7.7993 -6.57351 0
M  V30 757 O 122.469 -7.79328 -4.13004 0
M  V30 758 O 121.929 -5.63315 -5.29344 0
M  V30 759 C 120.989 -4.80193 -6.01798 0
M  V30 760 C 121.719 -3.64202 -6.65911 0
M  V30 761 O 121.929 -2.60694 -5.64732 0
M  V30 762 C 123.119 -3.93473 -7.1943 0
M  V30 763 O 123.509 -3.02071 -8.21205 0
M  V30 764 C 123.999 -3.73047 -5.97036 0
M  V30 765 C 123.289 -2.58828 -5.25741 0
M  V30 766 N 123.339 -2.6801 -3.77422 0
M  V30 767 C 123.489 -1.50443 -3.07133 0
M  V30 768 O 123.579 -0.419406 -3.61576 0
M  V30 769 N 123.529 -1.6403 -1.69677 0
M  V30 770 C 123.439 -2.81206 -0.986255 0
M  V30 771 O 123.489 -2.80892 0.249754 0
M  V30 772 C 123.289 -3.99158 -1.80325 0
M  V30 773 C 123.179 -5.29309 -1.06921 0
M  V30 774 C 123.239 -3.89779 -3.1476 0
M  V30 775 H 120.499 -5.40332 -6.79951 0
M  V30 776 H 120.23 -4.41549 -5.32301 0
M  V30 777 H 121.097 -3.26331 -7.47797 0
M  V30 778 H 123.752 -1.6395 -5.56554 0
M  V30 779 H 124.031 -4.63439 -5.3432 0
M  V30 780 H 125.023 -3.44728 -6.25838 0
M  V30 781 H 123.189 -4.96652 -7.57263 0
M  V30 782 H 123.118 -4.80159 -3.74441 0
M  V30 783 H 124.148 -5.81459 -1.09608 0
M  V30 784 H 122.411 -5.9187 -1.54487 0
M  V30 785 H 122.899 -5.10095 -0.0220288 0
M  V30 786 H 123.635 -0.798962 -1.16664 0
M  V30 787 P 125.059 -2.75334 -8.47391 0
M  V30 788 O 125.279 -2.44571 -9.90142 0
M  V30 789 O 125.849 -3.87688 -7.92115 0
M  V30 790 O 125.309 -1.4459 -7.59357 0
M  V30 791 C 124.369 -0.347608 -7.69215 0
M  V30 792 C 125.099 0.96767 -7.52806 0
M  V30 793 O 125.309 1.21036 -6.1011 0
M  V30 794 C 126.499 1.04544 -8.13308 0
M  V30 795 O 126.889 2.38311 -8.41922 0
M  V30 796 C 127.379 0.491279 -7.02284 0
M  V30 797 C 126.669 0.996264 -5.77469 0
M  V30 798 N 126.719 0.0501916 -4.62973 0
M  V30 799 H 123.88 -0.374722 -8.67691 0
M  V30 800 H 123.61 -0.443485 -6.90277 0
M  V30 801 H 124.477 1.75537 -7.96793 0
M  V30 802 P 128.439 2.75334 -8.47391 0
M  V30 803 O 128.659 3.84128 -9.44797 0
M  V30 804 O 129.229 1.51947 -8.68712 0
M  V30 805 O 128.689 3.29363 -6.99321 0
M  V30 806 C 127.749 4.24011 -6.4274 0
M  V30 807 C 128.479 5.20775 -5.52155 0
M  V30 808 O 128.689 4.56534 -4.22446 0
M  V30 809 C 129.879 5.62629 -5.96531 0
M  V30 810 O 130.269 6.87667 -5.41053 0
M  V30 811 C 130.759 4.52537 -5.39283 0
M  V30 812 C 130.049 4.20027 -4.08623 0
M  V30 813 N 130.099 2.76189 -3.71603 0
M  V30 814 H 127.26 4.797 -7.24003 0
M  V30 815 H 126.99 3.69856 -5.84513 0
M  V30 816 H 127.857 6.10356 -5.41441 0
M  V30 817 P 131.819 7.20834 -5.23717 0
M  V30 818 O 132.039 8.66104 -5.38572 0
M  V30 819 O 132.609 6.33544 -6.1349 0
M  V30 820 O 132.069 6.7751 -3.72168 0
M  V30 821 C 131.129 7.20825 -2.7076 0
M  V30 822 C 131.859 7.45864 -1.40599 0
M  V30 823 O 132.069 6.17651 -0.734225 0
M  V30 824 C 133.259 8.05808 -1.51899 0
M  V30 825 O 133.649 8.74358 -0.335205 0
M  V30 826 C 134.139 6.83093 -1.70294 0
M  V30 827 C 133.429 5.79992 -0.836974 0
M  V30 828 N 133.479 4.41864 -1.38293 0
M  V30 829 H 130.64 8.13644 -3.0377 0
M  V30 830 H 130.37 6.42788 -2.55485 0
M  V30 831 H 131.237 8.12039 -0.792769 0
M  V30 832 P 135.199 8.91 -8.72928e-15 0
M  V30 833 O 135.419 10.1746 0.733838 0
M  V30 834 O 135.989 8.73346 -1.23964 0
M  V30 835 O 135.449 7.66872 0.971405 0
M  V30 836 C 134.509 7.42405 2.04668 0
M  V30 837 C 135.239 6.86059 3.24661 0
M  V30 838 O 135.449 5.42934 3.03695 0
M  V30 839 C 136.639 7.41287 3.50796 0
M  V30 840 O 137.029 7.27073 4.86816 0
M  V30 841 C 137.519 6.5273 2.63741 0
M  V30 842 C 136.809 5.1842 2.73198 0
M  V30 843 N 136.859 4.38762 1.4784 0
M  V30 844 H 134.021 8.36899 2.3252 0
M  V30 845 H 133.749 6.70391 1.71179 0
M  V30 846 H 134.617 7.03638 4.13219 0
M  V30 847 H 137.272 4.59931 3.54016 0
M  V30 848 H 137.552 6.88995 1.59871 0
M  V30 849 H 138.543 6.4684 3.0373 0
M  V30 850 H 136.709 8.47002 3.20749 0
M  V30 851 P 138.579 7.20834 5.23717 0
M  V30 852 O 138.799 7.79853 6.57286 0
M  V30 853 O 139.369 7.79239 4.12957 0
M  V30 854 O 138.829 5.63315 5.29344 0
M  V30 855 C 137.889 4.80255 6.01876 0
M  V30 856 C 138.619 3.64202 6.65911 0
M  V30 857 O 138.829 2.60694 5.64732 0
M  V30 858 C 140.019 3.93473 7.1943 0
M  V30 859 O 140.409 3.02071 8.21205 0
M  V30 860 C 140.899 3.73047 5.97036 0
M  V30 861 C 140.189 2.58828 5.25741 0
M  V30 862 N 140.239 2.68068 3.77503 0
M  V30 863 C 140.159 3.79715 2.96723 0
M  V30 864 N 140.239 3.5377 1.68852 0
M  V30 865 C 140.379 2.15054 1.63254 0
M  V30 866 C 140.509 1.28964 0.518571 0
M  V30 867 N 140.629 -0.0538097 0.918425 0
M  V30 868 C 140.629 -0.494275 2.22578 0
M  V30 869 N 140.759 -1.81086 2.40434 0
M  V30 870 N 140.499 0.313645 3.27502 0
M  V30 871 C 140.379 1.61829 2.91033 0
M  V30 872 H 137.4 5.40332 6.79951 0
M  V30 873 H 137.13 4.41613 5.32378 0
M  V30 874 H 137.997 3.26331 7.47797 0
M  V30 875 P 141.959 2.75334 8.47391 0
M  V30 876 O 142.179 2.44571 9.90142 0
M  V30 877 O 142.749 3.87688 7.92115 0
M  V30 878 O 142.209 1.4459 7.59357 0
M  V30 879 C 141.269 0.347608 7.69215 0
M  V30 880 C 141.999 -0.96767 7.52806 0
M  V30 881 O 142.209 -1.21036 6.1011 0
M  V30 882 C 143.399 -1.04544 8.13308 0
M  V30 883 O 143.789 -2.38311 8.41922 0
M  V30 884 C 144.279 -0.491279 7.02284 0
M  V30 885 C 143.569 -0.996264 5.77469 0
M  V30 886 N 143.619 -0.0501916 4.62973 0
M  V30 887 H 140.78 0.374722 8.67691 0
M  V30 888 H 140.51 0.443485 6.90277 0
M  V30 889 H 141.377 -1.75537 7.96793 0
M  V30 890 P 145.339 -2.75334 8.47391 0
M  V30 891 O 145.559 -3.84128 9.44797 0
M  V30 892 O 146.129 -1.51947 8.68712 0
M  V30 893 O 145.589 -3.29363 6.99321 0
M  V30 894 C 144.649 -4.24011 6.4274 0
M  V30 895 C 145.379 -5.20775 5.52155 0
M  V30 896 O 145.589 -4.56534 4.22446 0
M  V30 897 C 146.779 -5.62629 5.96531 0
M  V30 898 O 147.169 -6.87667 5.41053 0
M  V30 899 C 147.659 -4.52537 5.39283 0
M  V30 900 C 146.949 -4.20027 4.08623 0
M  V30 901 N 146.999 -2.76189 3.71603 0
M  V30 902 H 144.16 -4.797 7.24003 0
M  V30 903 H 143.89 -3.69856 5.84513 0
M  V30 904 H 144.757 -6.10356 5.41441 0
M  V30 905 P 148.719 -7.20834 5.23717 0
M  V30 906 O 148.939 -8.66274 5.38678 0
M  V30 907 O 149.509 -6.33687 6.13629 0
M  V30 908 O 148.969 -6.7751 3.72168 0
M  V30 909 C 148.029 -7.20919 2.70795 0
M  V30 910 C 148.759 -7.45864 1.40599 0
M  V30 911 O 148.969 -6.17751 0.734343 0
M  V30 912 C 150.159 -8.05906 1.51917 0
M  V30 913 O 150.549 -8.74358 0.335205 0
M  V30 914 C 151.039 -6.83093 1.70294 0
M  V30 915 C 150.329 -5.79992 0.836974 0
M  V30 916 N 150.379 -4.41864 1.38293 0
M  V30 917 C 150.299 -4.02089 2.69407 0
M  V30 918 N 150.369 -2.73403 2.85089 0
M  V30 919 C 150.519 -2.25086 1.5642 0
M  V30 920 C 150.649 -0.942887 1.04836 0
M  V30 921 N 150.659 0.150999 1.80369 0
M  V30 922 N 150.769 -0.812565 -0.28167 0
M  V30 923 C 150.759 -1.90572 -1.03784 0
M  V30 924 N 150.639 -3.167 -0.683905 0
M  V30 925 C 150.519 -3.26538 0.652815 0
M  V30 926 H 147.541 -8.13738 3.03804 0
M  V30 927 H 147.269 -6.42974 2.55559 0
M  V30 928 H 148.137 -8.12139 0.792866 0
M  V30 929 H 150.792 -5.80178 -0.160643 0
M  V30 930 H 151.072 -6.51379 2.75643 0
M  V30 931 H 152.063 -7.01832 1.3448 0
M  V30 932 H 150.229 -8.73771 2.38364 0
M  V30 933 H 150.188 -4.7189 3.52311 0
M  V30 934 H 150.569 0.0721434 2.82608 0
M  V30 935 H 150.758 1.0785 1.36544 0
M  V30 936 H 150.866 -1.73207 -2.10241 0
M  V30 937 P 152.099 -8.91 9.82044e-15 0
M  V30 938 O 152.319 -10.1736 -0.733766 0
M  V30 939 O 152.889 -8.73247 1.2395 0
M  V30 940 O 152.349 -7.66872 -0.971405 0
M  V30 941 C 151.409 -7.42212 -2.04614 0
M  V30 942 C 152.139 -6.86059 -3.24661 0
M  V30 943 O 152.349 -5.42847 -3.03646 0
M  V30 944 C 153.539 -7.41196 -3.50753 0
M  V30 945 O 153.929 -7.27073 -4.86816 0
M  V30 946 C 154.419 -6.5273 -2.63741 0
M  V30 947 C 153.709 -5.1842 -2.73198 0
M  V30 948 N 153.759 -4.38668 -1.47808 0
M  V30 949 C 153.909 -3.02239 -1.60048 0
M  V30 950 O 153.999 -2.46459 -2.67869 0
M  V30 951 N 153.949 -2.32436 -0.408571 0
M  V30 952 C 153.859 -2.85471 0.854993 0
M  V30 953 O 153.909 -2.12566 1.8531 0
M  V30 954 C 153.709 -4.28918 0.887335 0
M  V30 955 C 153.599 -4.91066 2.24619 0
M  V30 956 C 153.659 -5.00349 -0.255399 0
M  V30 957 H 150.919 -8.36803 -2.32493 0
M  V30 958 H 150.65 -6.701 -1.71105 0
M  V30 959 H 151.517 -7.03551 -4.13168 0
M  V30 960 H 154.172 -4.59773 -3.53894 0
M  V30 961 H 154.451 -6.88995 -1.59871 0
M  V30 962 H 155.443 -6.46749 -3.03687 0
M  V30 963 H 153.609 -8.46908 -3.20714 0
M  V30 964 H 153.538 -6.08548 -0.206986 0
M  V30 965 H 154.568 -5.34836 2.53099 0
M  V30 966 H 152.831 -5.69638 2.2291 0
M  V30 967 H 153.319 -4.13971 2.98044 0
M  V30 968 H 154.055 -1.33211 -0.474216 0
M  V30 969 P 155.479 -7.20834 -5.23717 0
M  V30 970 O 155.699 -7.79853 -6.57286 0
M  V30 971 O 156.269 -7.79239 -4.12957 0
M  V30 972 O 155.729 -5.63315 -5.29344 0
M  V30 973 C 154.789 -4.80255 -6.01876 0
M  V30 974 C 155.519 -3.64202 -6.65911 0
M  V30 975 O 155.729 -2.60694 -5.64732 0
M  V30 976 C 156.919 -3.93473 -7.1943 0
M  V30 977 O 157.309 -3.02071 -8.21205 0
M  V30 978 C 157.799 -3.73047 -5.97036 0
M  V30 979 C 157.089 -2.58828 -5.25741 0
M  V30 980 N 157.139 -2.68068 -3.77503 0
M  V30 981 C 157.059 -3.79715 -2.96723 0
M  V30 982 N 157.139 -3.5377 -1.68852 0
M  V30 983 C 157.279 -2.15054 -1.63254 0
M  V30 984 C 157.409 -1.28964 -0.518571 0
M  V30 985 O 157.429 -1.56826 0.679156 0
M  V30 986 N 157.529 0.0538097 -0.918425 0
M  V30 987 C 157.529 0.494275 -2.22578 0
M  V30 988 N 157.659 1.81086 -2.40434 0
M  V30 989 N 157.399 -0.313645 -3.27502 0
M  V30 990 C 157.279 -1.61829 -2.91033 0
M  V30 991 H 154.3 -5.40332 -6.79951 0
M  V30 992 H 154.03 -4.41613 -5.32378 0
M  V30 993 H 154.897 -3.26331 -7.47797 0
M  V30 994 H 157.552 -1.63422 -5.56814 0
M  V30 995 H 157.831 -4.63374 -5.34244 0
M  V30 996 H 158.823 -3.44728 -6.25838 0
M  V30 997 H 156.989 -4.96652 -7.57263 0
M  V30 998 H 156.94 -4.80617 -3.3614 0
M  V30 999 H 157.622 0.742702 -0.199384 0
M  V30 1000 H 157.659 2.20598 -3.35588 0
M  V30 1001 H 157.76 2.43518 -1.58945 0
M  V30 1002 P 158.859 -2.75334 -8.47391 0
M  V30 1003 O 159.079 -2.44571 -9.90142 0
M  V30 1004 O 159.649 -3.87688 -7.92115 0
M  V30 1005 O 159.109 -1.4459 -7.59357 0
M  V30 1006 C 158.169 -0.347608 -7.69215 0
M  V30 1007 C 158.899 0.96767 -7.52806 0
M  V30 1008 O 159.109 1.21036 -6.1011 0
M  V30 1009 C 160.299 1.04544 -8.13308 0
M  V30 1010 O 160.689 2.38311 -8.41922 0
M  V30 1011 C 161.179 0.491279 -7.02284 0
M  V30 1012 C 160.469 0.996264 -5.77469 0
M  V30 1013 N 160.519 0.0501916 -4.62973 0
M  V30 1014 H 157.68 -0.374722 -8.67691 0
M  V30 1015 H 157.41 -0.443485 -6.90277 0
M  V30 1016 H 158.277 1.75537 -7.96793 0
M  V30 1017 P 162.239 2.75334 -8.47391 0
M  V30 1018 O 162.459 3.84204 -9.44982 0
M  V30 1019 O 163.029 1.51982 -8.68909 0
M  V30 1020 O 162.489 3.29363 -6.99321 0
M  V30 1021 C 161.549 4.24066 -6.42823 0
M  V30 1022 C 162.279 5.20775 -5.52155 0
M  V30 1023 O 162.489 4.56607 -4.22514 0
M  V30 1024 C 163.679 5.62697 -5.96604 0
M  V30 1025 O 164.069 6.87667 -5.41053 0
M  V30 1026 C 164.559 4.52537 -5.39283 0
M  V30 1027 C 163.849 4.20027 -4.08623 0
M  V30 1028 N 163.899 2.76189 -3.71603 0
M  V30 1029 H 161.061 4.79756 -7.24086 0
M  V30 1030 H 160.789 3.69963 -5.84682 0
M  V30 1031 H 161.657 6.10431 -5.41508 0
M  V30 1032 H 164.312 4.78816 -3.28024 0
M  V30 1033 H 164.592 3.64957 -6.05871 0
M  V30 1034 H 165.583 4.88748 -5.21323 0
M  V30 1035 H 163.749 5.66789 -7.0643 0
M  V30 1036 P 165.619 7.20834 -5.23717 0
M  V30 1037 O 165.839 8.66104 -5.38572 0
M  V30 1038 O 166.409 6.33544 -6.1349 0
M  V30 1039 O 165.869 6.7751 -3.72168 0
M  V30 1040 C 164.929 7.20825 -2.7076 0
M  V30 1041 C 165.659 7.45864 -1.40599 0
M  V30 1042 O 165.869 6.17651 -0.734225 0
M  V30 1043 C 167.059 8.05808 -1.51899 0
M  V30 1044 O 167.449 8.74358 -0.335205 0
M  V30 1045 C 167.939 6.83093 -1.70294 0
M  V30 1046 C 167.229 5.79992 -0.836974 0
M  V30 1047 N 167.279 4.41864 -1.38293 0
M  V30 1048 H 164.44 8.13644 -3.0377 0
M  V30 1049 H 164.17 6.42788 -2.55485 0
M  V30 1050 H 165.037 8.12039 -0.792769 0
M  V30 1051 P 168.999 8.91 -1.09116e-14 0
M  V30 1052 O 169.219 10.1726 0.733694 0
M  V30 1053 O 169.789 8.73148 -1.23936 0
M  V30 1054 O 169.249 7.66872 0.971405 0
M  V30 1055 C 168.309 7.42309 2.04641 0
M  V30 1056 C 169.039 6.86059 3.24661 0
M  V30 1057 O 169.249 5.42847 3.03646 0
M  V30 1058 C 170.439 7.41196 3.50753 0
M  V30 1059 O 170.829 7.27073 4.86816 0
M  V30 1060 C 171.319 6.5273 2.63741 0
M  V30 1061 C 170.609 5.1842 2.73198 0
M  V30 1062 N 170.659 4.38762 1.4784 0
M  V30 1063 H 167.82 8.36803 2.32493 0
M  V30 1064 H 167.55 6.70197 1.71129 0
M  V30 1065 H 168.417 7.03551 4.13168 0
M  V30 1066 P 172.379 7.20834 5.23717 0
M  V30 1067 O 172.599 7.79853 6.57286 0
M  V30 1068 O 173.169 7.79239 4.12957 0
M  V30 1069 O 172.629 5.63315 5.29344 0
M  V30 1070 C 171.689 4.80255 6.01876 0
M  V30 1071 C 172.419 3.64202 6.65911 0
M  V30 1072 O 172.629 2.60694 5.64732 0
M  V30 1073 C 173.819 3.93473 7.1943 0
M  V30 1074 O 174.209 3.02071 8.21205 0
M  V30 1075 C 174.699 3.73047 5.97036 0
M  V30 1076 C 173.989 2.58828 5.25741 0
M  V30 1077 N 174.039 2.68068 3.77503 0
M  V30 1078 H 171.2 5.40332 6.79951 0
M  V30 1079 H 170.93 4.41613 5.32378 0
M  V30 1080 H 171.797 3.26331 7.47797 0
M  V30 1081 P 175.759 2.75334 8.47391 0
M  V30 1082 O 175.979 2.44595 9.90239 0
M  V30 1083 O 176.549 3.87732 7.92204 0
M  V30 1084 O 176.009 1.4459 7.59357 0
M  V30 1085 C 175.069 0.347563 7.69115 0
M  V30 1086 C 175.799 -0.96767 7.52806 0
M  V30 1087 O 176.009 -1.21036 6.1011 0
M  V30 1088 C 177.199 -1.04544 8.13308 0
M  V30 1089 O 177.589 -2.38311 8.41922 0
M  V30 1090 C 178.079 -0.491279 7.02284 0
M  V30 1091 C 177.369 -0.996264 5.77469 0
M  V30 1092 N 177.419 -0.0501808 4.62873 0
M  V30 1093 C 177.569 -0.588177 3.36904 0
M  V30 1094 O 177.659 -1.78598 3.17173 0
M  V30 1095 N 177.609 0.329694 2.33686 0
M  V30 1096 C 177.519 1.6953 2.45079 0
M  V30 1097 O 177.569 2.41926 1.44899 0
M  V30 1098 C 177.369 2.16933 3.80505 0
M  V30 1099 C 177.259 3.65373 3.97621 0
M  V30 1100 C 177.319 1.30326 4.83752 0
M  V30 1101 H 174.579 0.374722 8.67691 0
M  V30 1102 H 174.31 0.443421 6.90177 0
M  V30 1103 H 175.177 -1.75537 7.96793 0
M  V30 1104 H 177.832 -1.94496 5.46629 0
M  V30 1105 H 178.111 0.608651 7.04676 0
M  V30 1106 H 179.103 -0.889672 7.08939 0
M  V30 1107 H 177.269 -0.43308 9.04564 0
M  V30 1108 H 177.198 1.68366 5.8516 0
M  V30 1109 H 178.228 4.05985 4.30448 0
M  V30 1110 H 176.491 3.88028 4.72875 0
M  V30 1111 H 176.979 4.11381 3.01609 0
M  V30 1112 H 177.715 -0.0393617 1.41345 0
M  V30 1113 P 179.139 -2.75334 8.47391 0
M  V30 1114 O 179.359 -3.84128 9.44797 0
M  V30 1115 O 179.929 -1.51947 8.68712 0
M  V30 1116 O 179.389 -3.29363 6.99321 0
M  V30 1117 C 178.449 -4.24011 6.4274 0
M  V30 1118 C 179.179 -5.20775 5.52155 0
M  V30 1119 O 179.389 -4.56534 4.22446 0
M  V30 1120 C 180.579 -5.62629 5.96531 0
M  V30 1121 O 180.969 -6.87667 5.41053 0
M  V30 1122 C 181.459 -4.52537 5.39283 0
M  V30 1123 C 180.749 -4.20027 4.08623 0
M  V30 1124 N 180.799 -2.76189 3.71603 0
M  V30 1125 H 177.96 -4.797 7.24003 0
M  V30 1126 H 177.69 -3.69856 5.84513 0
M  V30 1127 H 178.557 -6.10356 5.41441 0
M  V30 1128 P 182.519 -7.20834 5.23717 0
M  V30 1129 O 182.739 -8.66274 5.38678 0
M  V30 1130 O 183.309 -6.33687 6.13629 0
M  V30 1131 O 182.769 -6.7751 3.72168 0
M  V30 1132 C 181.829 -7.20919 2.70795 0
M  V30 1133 C 182.559 -7.45864 1.40599 0
M  V30 1134 O 182.769 -6.17751 0.734343 0
M  V30 1135 C 183.959 -8.05906 1.51917 0
M  V30 1136 O 184.349 -8.74358 0.335205 0
M  V30 1137 C 184.839 -6.83093 1.70294 0
M  V30 1138 C 184.129 -5.79992 0.836974 0
M  V30 1139 N 184.179 -4.41864 1.38293 0
M  V30 1140 H 181.341 -8.13738 3.03804 0
M  V30 1141 H 181.069 -6.42974 2.55559 0
M  V30 1142 H 181.937 -8.12139 0.792866 0
M  V30 1143 H 184.592 -5.80178 -0.160643 0
M  V30 1144 H 184.872 -6.51379 2.75643 0
M  V30 1145 H 185.863 -7.01832 1.3448 0
M  V30 1146 H 184.029 -8.73771 2.38364 0
M  V30 1147 P 185.899 -8.91 -8.29613e-14 0
M  V30 1148 O 186.119 -10.1746 -0.733838 0
M  V30 1149 O 186.689 -8.73346 1.23964 0
M  V30 1150 O 186.149 -7.66872 -0.971405 0
M  V30 1151 C 185.209 -7.42405 -2.04668 0
M  V30 1152 C 185.939 -6.86059 -3.24661 0
M  V30 1153 O 186.149 -5.42934 -3.03695 0
M  V30 1154 C 187.339 -7.41287 -3.50796 0
M  V30 1155 O 187.729 -7.27073 -4.86816 0
M  V30 1156 C 188.219 -6.5273 -2.63741 0
M  V30 1157 C 187.509 -5.1842 -2.73198 0
M  V30 1158 N 187.559 -4.38762 -1.4784 0
M  V30 1159 H 184.721 -8.36899 -2.3252 0
M  V30 1160 H 184.449 -6.70391 -1.71179 0
M  V30 1161 H 185.317 -7.03638 -4.13219 0
M  V30 1162 H 187.972 -4.59931 -3.54016 0
M  V30 1163 H 188.252 -6.88995 -1.59871 0
M  V30 1164 H 189.243 -6.4684 -3.0373 0
M  V30 1165 H 187.409 -8.47002 -3.20749 0
M  V30 1166 P 189.279 -7.20834 -5.23717 0
M  V30 1167 O 189.499 -7.79853 -6.57286 0
M  V30 1168 O 190.069 -7.79239 -4.12957 0
M  V30 1169 O 189.529 -5.63315 -5.29344 0
M  V30 1170 C 188.589 -4.80255 -6.01876 0
M  V30 1171 C 189.319 -3.64202 -6.65911 0
M  V30 1172 O 189.529 -2.60694 -5.64732 0
M  V30 1173 C 190.719 -3.93473 -7.1943 0
M  V30 1174 O 191.109 -3.02071 -8.21205 0
M  V30 1175 C 191.599 -3.73047 -5.97036 0
M  V30 1176 C 190.889 -2.58828 -5.25741 0
M  V30 1177 N 190.939 -2.68068 -3.77503 0
M  V30 1178 C 190.859 -3.79715 -2.96723 0
M  V30 1179 N 190.939 -3.5377 -1.68852 0
M  V30 1180 C 191.079 -2.15054 -1.63254 0
M  V30 1181 C 191.209 -1.28964 -0.518571 0
M  V30 1182 N 191.329 0.0538097 -0.918425 0
M  V30 1183 C 191.329 0.494275 -2.22578 0
M  V30 1184 N 191.459 1.81086 -2.40434 0
M  V30 1185 N 191.199 -0.313645 -3.27502 0
M  V30 1186 C 191.079 -1.61829 -2.91033 0
M  V30 1187 H 188.1 -5.40332 -6.79951 0
M  V30 1188 H 187.83 -4.41613 -5.32378 0
M  V30 1189 H 188.697 -3.26331 -7.47797 0
M  V30 1190 P 192.659 -2.75334 -8.47391 0
M  V30 1191 O 192.879 -2.44571 -9.90142 0
M  V30 1192 O 193.449 -3.87688 -7.92115 0
M  V30 1193 O 192.909 -1.4459 -7.59357 0
M  V30 1194 C 191.969 -0.347608 -7.69215 0
M  V30 1195 C 192.699 0.96767 -7.52806 0
M  V30 1196 O 192.909 1.21036 -6.1011 0
M  V30 1197 C 194.099 1.04544 -8.13308 0
M  V30 1198 O 194.489 2.38311 -8.41922 0
M  V30 1199 C 194.979 0.491279 -7.02284 0
M  V30 1200 C 194.269 0.996264 -5.77469 0
M  V30 1201 N 194.319 0.0501916 -4.62973 0
M  V30 1202 H 191.48 -0.374722 -8.67691 0
M  V30 1203 H 191.21 -0.443485 -6.90277 0
M  V30 1204 H 192.077 1.75537 -7.96793 0
M  V30 1205 P 196.039 2.75334 -8.47391 0
M  V30 1206 O 196.259 3.84128 -9.44797 0
M  V30 1207 O 196.829 1.51947 -8.68712 0
M  V30 1208 O 196.289 3.29363 -6.99321 0
M  V30 1209 C 195.349 4.24011 -6.4274 0
M  V30 1210 C 196.079 5.20775 -5.52155 0
M  V30 1211 O 196.289 4.56534 -4.22446 0
M  V30 1212 C 197.479 5.62629 -5.96531 0
M  V30 1213 O 197.869 6.87667 -5.41053 0
M  V30 1214 C 198.359 4.52537 -5.39283 0
M  V30 1215 C 197.649 4.20027 -4.08623 0
M  V30 1216 N 197.699 2.76189 -3.71603 0
M  V30 1217 H 194.86 4.797 -7.24003 0
M  V30 1218 H 194.59 3.69856 -5.84513 0
M  V30 1219 H 195.457 6.10356 -5.41441 0
M  V30 1220 P 199.419 7.20834 -5.23717 0
M  V30 1221 O 199.639 8.66104 -5.38572 0
M  V30 1222 O 200.209 6.33544 -6.1349 0
M  V30 1223 O 199.669 6.7751 -3.72168 0
M  V30 1224 C 198.729 7.20825 -2.7076 0
M  V30 1225 C 199.459 7.45864 -1.40599 0
M  V30 1226 O 199.669 6.17651 -0.734225 0
M  V30 1227 C 200.859 8.05808 -1.51899 0
M  V30 1228 O 201.249 8.74358 -0.335205 0
M  V30 1229 C 201.739 6.83093 -1.70294 0
M  V30 1230 C 201.029 5.79992 -0.836974 0
M  V30 1231 N 201.079 4.41864 -1.38293 0
M  V30 1232 H 198.24 8.13644 -3.0377 0
M  V30 1233 H 197.97 6.42788 -2.55485 0
M  V30 1234 H 198.837 8.12039 -0.792769 0
M  V30 1235 P 202.799 8.91 2.40144e-13 0
M  V30 1236 O 203.019 10.1726 0.733694 0
M  V30 1237 O 203.589 8.73148 -1.23936 0
M  V30 1238 O 203.049 7.66872 0.971405 0
M  V30 1239 C 202.109 7.42309 2.04641 0
M  V30 1240 C 202.839 6.86059 3.24661 0
M  V30 1241 O 203.049 5.42847 3.03646 0
M  V30 1242 C 204.239 7.41196 3.50753 0
M  V30 1243 O 204.629 7.27073 4.86816 0
M  V30 1244 C 205.119 6.5273 2.63741 0
M  V30 1245 C 204.409 5.1842 2.73198 0
M  V30 1246 N 204.459 4.38762 1.4784 0
M  V30 1247 H 201.62 8.36803 2.32493 0
M  V30 1248 H 201.35 6.70197 1.71129 0
M  V30 1249 H 202.217 7.03551 4.13168 0
M  V30 1250 P 206.179 7.20834 5.23717 0
M  V30 1251 O 206.399 7.79853 6.57286 0
M  V30 1252 O 206.969 7.79239 4.12957 0
M  V30 1253 O 206.429 5.63315 5.29344 0
M  V30 1254 C 205.489 4.80255 6.01876 0
M  V30 1255 C 206.219 3.64202 6.65911 0
M  V30 1256 O 206.429 2.60694 5.64732 0
M  V30 1257 C 207.619 3.93473 7.1943 0
M  V30 1258 O 208.009 3.02071 8.21205 0
M  V30 1259 C 208.499 3.73047 5.97036 0
M  V30 1260 C 207.789 2.58828 5.25741 0
M  V30 1261 N 207.839 2.68068 3.77503 0
M  V30 1262 C 207.759 3.79715 2.96723 0
M  V30 1263 N 207.839 3.5377 1.68852 0
M  V30 1264 C 207.979 2.15054 1.63254 0
M  V30 1265 C 208.109 1.28964 0.518571 0
M  V30 1266 O 208.129 1.56826 -0.679156 0
M  V30 1267 N 208.229 -0.0538097 0.918425 0
M  V30 1268 C 208.229 -0.494275 2.22578 0
M  V30 1269 N 208.359 -1.81086 2.40434 0
M  V30 1270 N 208.099 0.313645 3.27502 0
M  V30 1271 C 207.979 1.61829 2.91033 0
M  V30 1272 H 205 5.40332 6.79951 0
M  V30 1273 H 204.73 4.41613 5.32378 0
M  V30 1274 H 205.597 3.26331 7.47797 0
M  V30 1275 H 208.252 1.63422 5.56814 0
M  V30 1276 H 208.531 4.63374 5.34244 0
M  V30 1277 H 209.523 3.44728 6.25838 0
M  V30 1278 H 207.689 4.96652 7.57263 0
M  V30 1279 H 207.64 4.80617 3.3614 0
M  V30 1280 H 208.322 -0.742702 0.199384 0
M  V30 1281 H 208.359 -2.20598 3.35588 0
M  V30 1282 H 208.46 -2.43518 1.58945 0
M  V30 1283 P 209.559 2.75334 8.47391 0
M  V30 1284 O 209.779 2.44571 9.90142 0
M  V30 1285 O 210.349 3.87688 7.92115 0
M  V30 1286 O 209.809 1.4459 7.59357 0
M  V30 1287 C 208.869 0.347608 7.69215 0
M  V30 1288 C 209.599 -0.96767 7.52806 0
M  V30 1289 O 209.809 -1.21036 6.1011 0
M  V30 1290 C 210.999 -1.04544 8.13308 0
M  V30 1291 O 211.389 -2.38311 8.41922 0
M  V30 1292 C 211.879 -0.491279 7.02284 0
M  V30 1293 C 211.169 -0.996264 5.77469 0
M  V30 1294 N 211.219 -0.0501916 4.62973 0
M  V30 1295 H 208.38 0.374722 8.67691 0
M  V30 1296 H 208.11 0.443485 6.90277 0
M  V30 1297 H 208.977 -1.75537 7.96793 0
M  V30 1298 P 212.939 -2.75334 8.47391 0
M  V30 1299 O 213.159 -3.84128 9.44797 0
M  V30 1300 O 213.729 -1.51947 8.68712 0
M  V30 1301 O 213.189 -3.29363 6.99321 0
M  V30 1302 C 212.249 -4.24011 6.4274 0
M  V30 1303 C 212.979 -5.20775 5.52155 0
M  V30 1304 O 213.189 -4.56534 4.22446 0
M  V30 1305 C 214.379 -5.62629 5.96531 0
M  V30 1306 O 214.769 -6.87667 5.41053 0
M  V30 1307 C 215.259 -4.52537 5.39283 0
M  V30 1308 C 214.549 -4.20027 4.08623 0
M  V30 1309 N 214.599 -2.76189 3.71603 0
M  V30 1310 H 211.76 -4.797 7.24003 0
M  V30 1311 H 211.49 -3.69856 5.84513 0
M  V30 1312 H 212.357 -6.10356 5.41441 0
M  V30 1313 P 216.319 -7.20834 5.23717 0
M  V30 1314 O 216.539 -8.66274 5.38678 0
M  V30 1315 O 217.109 -6.33687 6.13629 0
M  V30 1316 O 216.569 -6.7751 3.72168 0
M  V30 1317 C 215.629 -7.20919 2.70795 0
M  V30 1318 C 216.359 -7.45864 1.40599 0
M  V30 1319 O 216.569 -6.17751 0.734343 0
M  V30 1320 C 217.759 -8.05906 1.51917 0
M  V30 1321 O 218.149 -8.74358 0.335205 0
M  V30 1322 C 218.639 -6.83093 1.70294 0
M  V30 1323 C 217.929 -5.79992 0.836974 0
M  V30 1324 N 217.979 -4.41864 1.38293 0
M  V30 1325 C 217.899 -4.02089 2.69407 0
M  V30 1326 N 217.969 -2.73403 2.85089 0
M  V30 1327 C 218.119 -2.25086 1.5642 0
M  V30 1328 C 218.249 -0.942887 1.04836 0
M  V30 1329 N 218.259 0.150999 1.80369 0
M  V30 1330 N 218.369 -0.812565 -0.28167 0
M  V30 1331 C 218.359 -1.90572 -1.03784 0
M  V30 1332 N 218.239 -3.167 -0.683905 0
M  V30 1333 C 218.119 -3.26538 0.652815 0
M  V30 1334 H 215.141 -8.13738 3.03804 0
M  V30 1335 H 214.869 -6.42974 2.55559 0
M  V30 1336 H 215.737 -8.12139 0.792866 0
M  V30 1337 H 218.392 -5.80178 -0.160643 0
M  V30 1338 H 218.672 -6.51379 2.75643 0
M  V30 1339 H 219.663 -7.01832 1.3448 0
M  V30 1340 H 217.829 -8.73771 2.38364 0
M  V30 1341 H 217.788 -4.7189 3.52311 0
M  V30 1342 H 218.169 0.0721434 2.82608 0
M  V30 1343 H 218.358 1.0785 1.36544 0
M  V30 1344 H 218.466 -1.73207 -2.10241 0
M  V30 1345 P 219.699 -8.91 -3.97326e-13 0
M  V30 1346 O 219.919 -10.1726 -0.733694 0
M  V30 1347 O 220.489 -8.73148 1.23936 0
M  V30 1348 O 219.949 -7.66872 -0.971405 0
M  V30 1349 C 219.009 -7.42309 -2.04641 0
M  V30 1350 C 219.739 -6.86059 -3.24661 0
M  V30 1351 O 219.949 -5.42847 -3.03646 0
M  V30 1352 C 221.139 -7.41196 -3.50753 0
M  V30 1353 O 221.529 -7.27073 -4.86816 0
M  V30 1354 C 222.019 -6.5273 -2.63741 0
M  V30 1355 C 221.309 -5.1842 -2.73198 0
M  V30 1356 N 221.359 -4.38762 -1.4784 0
M  V30 1357 H 218.52 -8.36803 -2.32493 0
M  V30 1358 H 218.25 -6.70197 -1.71129 0
M  V30 1359 H 219.117 -7.03551 -4.13168 0
M  V30 1360 P 223.079 -7.20834 -5.23717 0
M  V30 1361 O 223.299 -7.79853 -6.57286 0
M  V30 1362 O 223.869 -7.79239 -4.12957 0
M  V30 1363 O 223.329 -5.63315 -5.29344 0
M  V30 1364 C 222.389 -4.80255 -6.01876 0
M  V30 1365 C 223.119 -3.64202 -6.65911 0
M  V30 1366 O 223.329 -2.60694 -5.64732 0
M  V30 1367 C 224.519 -3.93473 -7.1943 0
M  V30 1368 O 224.909 -3.02071 -8.21205 0
M  V30 1369 C 225.399 -3.73047 -5.97036 0
M  V30 1370 C 224.689 -2.58828 -5.25741 0
M  V30 1371 N 224.739 -2.68068 -3.77503 0
M  V30 1372 H 221.9 -5.40332 -6.79951 0
M  V30 1373 H 221.63 -4.41613 -5.32378 0
M  V30 1374 H 222.497 -3.26331 -7.47797 0
M  V30 1375 P 226.459 -2.75334 -8.47391 0
M  V30 1376 O 226.679 -2.44619 -9.90336 0
M  V30 1377 O 227.249 -3.87776 -7.92294 0
M  V30 1378 O 226.709 -1.4459 -7.59357 0
M  V30 1379 C 225.769 -0.347653 -7.69315 0
M  V30 1380 C 226.499 0.96767 -7.52806 0
M  V30 1381 O 226.709 1.21055 -6.10208 0
M  V30 1382 C 227.899 1.04557 -8.13408 0
M  V30 1383 O 228.289 2.38311 -8.41922 0
M  V30 1384 C 228.779 0.491279 -7.02284 0
M  V30 1385 C 228.069 0.996264 -5.77469 0
M  V30 1386 N 228.119 0.0501916 -4.62973 0
M  V30 1387 C 228.039 -1.31969 -4.65661 0
M  V30 1388 N 228.109 -1.86649 -3.48119 0
M  V30 1389 C 228.259 -0.792089 -2.62406 0
M  V30 1390 C 228.389 -0.705684 -1.2207 0
M  V30 1391 N 228.399 -1.76207 -0.413762 0
M  V30 1392 N 228.509 0.518981 -0.685754 0
M  V30 1393 C 228.499 1.57595 -1.49174 0
M  V30 1394 N 228.379 1.62909 -2.80066 0
M  V30 1395 C 228.259 0.388195 -3.3073 0
M  V30 1396 H 225.281 -0.374765 -8.67791 0
M  V30 1397 H 225.009 -0.443613 -6.90476 0
M  V30 1398 H 225.877 1.75559 -7.96891 0
M  V30 1399 H 228.532 1.94563 -5.46818 0
M  V30 1400 H 228.812 -0.608651 -7.04676 0
M  V30 1401 H 229.803 0.889796 -7.09039 0
M  V30 1402 H 227.969 0.433128 -9.04664 0
M  V30 1403 H 227.928 -1.89246 -5.57664 0
M  V30 1404 H 228.309 -2.71005 -0.804694 0
M  V30 1405 H 228.498 -1.63189 0.603768 0
M  V30 1406 H 228.606 2.53475 -0.997614 0
M  V30 1407 P 229.839 2.75334 -8.47391 0
M  V30 1408 O 230.059 3.84128 -9.44797 0
M  V30 1409 O 230.629 1.51947 -8.68712 0
M  V30 1410 O 230.089 3.29363 -6.99321 0
M  V30 1411 C 229.149 4.24011 -6.4274 0
M  V30 1412 C 229.879 5.20775 -5.52155 0
M  V30 1413 O 230.089 4.56534 -4.22446 0
M  V30 1414 C 231.279 5.62629 -5.96531 0
M  V30 1415 O 231.669 6.87667 -5.41053 0
M  V30 1416 C 232.159 4.52537 -5.39283 0
M  V30 1417 C 231.449 4.20027 -4.08623 0
M  V30 1418 N 231.499 2.76189 -3.71603 0
M  V30 1419 H 228.66 4.797 -7.24003 0
M  V30 1420 H 228.39 3.69856 -5.84513 0
M  V30 1421 H 229.257 6.10356 -5.41441 0
M  V30 1422 P 233.219 7.20834 -5.23717 0
M  V30 1423 O 233.439 8.66104 -5.38572 0
M  V30 1424 O 234.009 6.33544 -6.1349 0
M  V30 1425 O 233.469 6.7751 -3.72168 0
M  V30 1426 C 232.529 7.20825 -2.7076 0
M  V30 1427 C 233.259 7.45864 -1.40599 0
M  V30 1428 O 233.469 6.17651 -0.734225 0
M  V30 1429 C 234.659 8.05808 -1.51899 0
M  V30 1430 O 235.049 8.74358 -0.335205 0
M  V30 1431 C 235.539 6.83093 -1.70294 0
M  V30 1432 C 234.829 5.79992 -0.836974 0
M  V30 1433 N 234.879 4.41864 -1.38293 0
M  V30 1434 H 232.04 8.13644 -3.0377 0
M  V30 1435 H 231.77 6.42788 -2.55485 0
M  V30 1436 H 232.637 8.12039 -0.792769 0
M  V30 1437 P 236.599 8.91 5.54508e-13 0
M  V30 1438 O 236.819 10.1736 0.733766 0
M  V30 1439 O 237.389 8.73247 -1.2395 0
M  V30 1440 O 236.849 7.66872 0.971405 0
M  V30 1441 C 235.909 7.42212 2.04614 0
M  V30 1442 C 236.639 6.86059 3.24661 0
M  V30 1443 O 236.849 5.42847 3.03646 0
M  V30 1444 C 238.039 7.41196 3.50753 0
M  V30 1445 O 238.429 7.27073 4.86816 0
M  V30 1446 C 238.919 6.5273 2.63741 0
M  V30 1447 C 238.209 5.1842 2.73198 0
M  V30 1448 N 238.259 4.38668 1.47808 0
M  V30 1449 C 238.409 3.02239 1.60048 0
M  V30 1450 O 238.499 2.46459 2.67869 0
M  V30 1451 N 238.449 2.32436 0.408571 0
M  V30 1452 C 238.359 2.85471 -0.854993 0
M  V30 1453 C 238.209 4.28918 -0.887335 0
M  V30 1454 C 238.159 5.00349 0.255399 0
M  V30 1455 H 235.419 8.36803 2.32493 0
M  V30 1456 H 235.15 6.701 1.71105 0
M  V30 1457 H 236.017 7.03551 4.13168 0
M  V30 1458 H 238.672 4.59773 3.53894 0
M  V30 1459 H 238.951 6.88995 1.59871 0
M  V30 1460 H 239.943 6.46749 3.03687 0
M  V30 1461 H 238.109 8.46908 3.20714 0
M  V30 1462 H 238.038 6.08548 0.206986 0
M  V30 1463 P 239.979 7.20834 5.23717 0
M  V30 1464 O 240.199 7.79853 6.57286 0
M  V30 1465 O 240.769 7.79239 4.12957 0
M  V30 1466 O 240.229 5.63315 5.29344 0
M  V30 1467 C 239.289 4.80255 6.01876 0
M  V30 1468 C 240.019 3.64202 6.65911 0
M  V30 1469 O 240.229 2.60694 5.64732 0
M  V30 1470 C 241.419 3.93473 7.1943 0
M  V30 1471 O 241.809 3.02071 8.21205 0
M  V30 1472 C 242.299 3.73047 5.97036 0
M  V30 1473 C 241.589 2.58828 5.25741 0
M  V30 1474 N 241.639 2.68068 3.77503 0
M  V30 1475 H 238.8 5.40332 6.79951 0
M  V30 1476 H 238.53 4.41613 5.32378 0
M  V30 1477 H 239.397 3.26331 7.47797 0
M  V30 1478 P 243.359 2.75334 8.47391 0
M  V30 1479 O 243.579 2.44571 9.90142 0
M  V30 1480 O 244.149 3.87688 7.92115 0
M  V30 1481 O 243.609 1.4459 7.59357 0
M  V30 1482 C 242.669 0.347608 7.69215 0
M  V30 1483 C 243.399 -0.96767 7.52806 0
M  V30 1484 O 243.609 -1.21036 6.1011 0
M  V30 1485 C 244.799 -1.04544 8.13308 0
M  V30 1486 O 245.189 -2.38311 8.41922 0
M  V30 1487 C 245.679 -0.491279 7.02284 0
M  V30 1488 C 244.969 -0.996264 5.77469 0
M  V30 1489 N 245.019 -0.0501916 4.62973 0
M  V30 1490 C 244.939 1.32786 4.63244 0
M  V30 1491 N 245.019 1.86957 3.44545 0
M  V30 1492 C 245.159 0.780241 2.58481 0
M  V30 1493 C 245.289 0.738536 1.17757 0
M  V30 1494 N 245.409 -0.58337 0.711393 0
M  V30 1495 C 245.409 -1.70816 1.51017 0
M  V30 1496 N 245.539 -2.87826 0.880757 0
M  V30 1497 N 245.279 -1.67126 2.8339 0
M  V30 1498 C 245.159 -0.401421 3.30572 0
M  V30 1499 H 242.18 0.374722 8.67691 0
M  V30 1500 H 241.91 0.443485 6.90277 0
M  V30 1501 H 242.777 -1.75537 7.96793 0
M  V30 1502 P 246.739 -2.75334 8.47391 0
M  V30 1503 O 246.959 -3.84128 9.44797 0
M  V30 1504 O 247.529 -1.51947 8.68712 0
M  V30 1505 O 246.989 -3.29363 6.99321 0
M  V30 1506 C 246.049 -4.24011 6.4274 0
M  V30 1507 C 246.779 -5.20775 5.52155 0
M  V30 1508 O 246.989 -4.56534 4.22446 0
M  V30 1509 C 248.179 -5.62629 5.96531 0
M  V30 1510 O 248.569 -6.87667 5.41053 0
M  V30 1511 C 249.059 -4.52537 5.39283 0
M  V30 1512 C 248.349 -4.20027 4.08623 0
M  V30 1513 N 248.399 -2.76189 3.71603 0
M  V30 1514 H 245.56 -4.797 7.24003 0
M  V30 1515 H 245.29 -3.69856 5.84513 0
M  V30 1516 H 246.157 -6.10356 5.41441 0
M  V30 1517 P 250.119 -7.20834 5.23717 0
M  V30 1518 O 250.339 -8.66104 5.38572 0
M  V30 1519 O 250.909 -6.33544 6.1349 0
M  V30 1520 O 250.369 -6.7751 3.72168 0
M  V30 1521 C 249.429 -7.20825 2.7076 0
M  V30 1522 C 250.159 -7.45864 1.40599 0
M  V30 1523 O 250.369 -6.17651 0.734225 0
M  V30 1524 C 251.559 -8.05808 1.51899 0
M  V30 1525 O 251.949 -8.74358 0.335205 0
M  V30 1526 C 252.439 -6.83093 1.70294 0
M  V30 1527 C 251.729 -5.79992 0.836974 0
M  V30 1528 N 251.779 -4.41864 1.38293 0
M  V30 1529 C 251.699 -3.99538 2.69438 0
M  V30 1530 N 251.779 -2.69909 2.84277 0
M  V30 1531 C 251.919 -2.21719 1.5408 0
M  V30 1532 C 252.049 -0.891712 1.06628 0
M  V30 1533 O 252.069 0.161298 1.70137 0
M  V30 1534 N 252.169 -0.856846 -0.334985 0
M  V30 1535 C 252.169 -1.9641 -1.15789 0
M  V30 1536 N 252.299 -1.72708 -2.46522 0
M  V30 1537 N 252.039 -3.21165 -0.713741 0
M  V30 1538 C 251.919 -3.26797 0.639748 0
M  V30 1539 H 248.94 -8.13644 3.0377 0
M  V30 1540 H 248.67 -6.42788 2.55485 0
M  V30 1541 H 249.537 -8.12039 0.792769 0
M  V30 1542 H 252.192 -5.80061 -0.166416 0
M  V30 1543 H 252.471 -6.51287 2.75604 0
M  V30 1544 H 253.463 -7.01734 1.34462 0
M  V30 1545 H 251.629 -8.73674 2.38337 0
M  V30 1546 H 251.58 -4.68207 3.53221 0
M  V30 1547 H 252.262 0.0398818 -0.767965 0
M  V30 1548 H 252.299 -2.50995 -3.13503 0
M  V30 1549 H 252.4 -0.759148 -2.80716 0
M  V30 1550 P 253.498 -8.91 -7.1169e-13 0
M  V30 1551 O 253.718 -10.1726 -0.733694 0
M  V30 1552 O 254.288 -8.73148 1.23936 0
M  V30 1553 O 253.748 -7.66872 -0.971405 0
M  V30 1554 C 252.808 -7.42309 -2.04641 0
M  V30 1555 C 253.538 -6.86059 -3.24661 0
M  V30 1556 O 253.748 -5.42847 -3.03646 0
M  V30 1557 C 254.938 -7.41196 -3.50753 0
M  V30 1558 O 255.328 -7.27073 -4.86816 0
M  V30 1559 C 255.818 -6.5273 -2.63741 0
M  V30 1560 C 255.108 -5.1842 -2.73198 0
M  V30 1561 N 255.158 -4.38762 -1.4784 0
M  V30 1562 H 252.319 -8.36803 -2.32493 0
M  V30 1563 H 252.049 -6.70197 -1.71129 0
M  V30 1564 H 252.916 -7.03551 -4.13168 0
M  V30 1565 P 256.878 -7.20834 -5.23717 0
M  V30 1566 O 257.098 -7.79853 -6.57286 0
M  V30 1567 O 257.668 -7.79239 -4.12957 0
M  V30 1568 O 257.128 -5.63315 -5.29344 0
M  V30 1569 C 256.188 -4.80255 -6.01876 0
M  V30 1570 C 256.918 -3.64202 -6.65911 0
M  V30 1571 O 257.128 -2.60694 -5.64732 0
M  V30 1572 C 258.318 -3.93473 -7.1943 0
M  V30 1573 O 258.708 -3.02071 -8.21205 0
M  V30 1574 C 259.198 -3.73047 -5.97036 0
M  V30 1575 C 258.488 -2.58828 -5.25741 0
M  V30 1576 N 258.538 -2.68068 -3.77503 0
M  V30 1577 H 255.699 -5.40332 -6.79951 0
M  V30 1578 H 255.429 -4.41613 -5.32378 0
M  V30 1579 H 256.296 -3.26331 -7.47797 0
M  V30 1580 P 260.258 -2.75334 -8.47391 0
M  V30 1581 O 260.478 -2.44571 -9.90142 0
M  V30 1582 O 261.048 -3.87688 -7.92115 0
M  V30 1583 O 260.508 -1.4459 -7.59357 0
M  V30 1584 C 259.568 -0.347608 -7.69215 0
M  V30 1585 C 260.298 0.96767 -7.52806 0
M  V30 1586 O 260.508 1.21036 -6.1011 0
M  V30 1587 C 261.698 1.04544 -8.13308 0
M  V30 1588 O 262.088 2.38311 -8.41922 0
M  V30 1589 C 262.578 0.491279 -7.02284 0
M  V30 1590 C 261.868 0.996264 -5.77469 0
M  V30 1591 N 261.918 0.0501916 -4.62973 0
M  V30 1592 H 259.079 -0.374722 -8.67691 0
M  V30 1593 H 258.809 -0.443485 -6.90277 0
M  V30 1594 H 259.676 1.75537 -7.96793 0
M  V30 1595 P 263.638 2.75334 -8.47391 0
M  V30 1596 O 263.858 3.84166 -9.4489 0
M  V30 1597 O 264.428 1.51964 -8.6881 0
M  V30 1598 O 263.888 3.29363 -6.99321 0
M  V30 1599 C 262.948 4.23956 -6.42656 0
M  V30 1600 C 263.678 5.20775 -5.52155 0
M  V30 1601 O 263.888 4.56534 -4.22446 0
M  V30 1602 C 265.078 5.62629 -5.96531 0
M  V30 1603 O 265.468 6.87667 -5.41053 0
M  V30 1604 C 265.958 4.52537 -5.39283 0
M  V30 1605 C 265.248 4.20027 -4.08623 0
M  V30 1606 N 265.298 2.7613 -3.71522 0
M  V30 1607 C 265.448 2.45612 -2.37989 0
M  V30 1608 O 265.538 3.30919 -1.51621 0
M  V30 1609 N 265.488 1.10684 -2.08435 0
M  V30 1610 C 265.398 0.0690084 -2.9792 0
M  V30 1611 C 265.248 0.481522 -4.35345 0
M  V30 1612 C 265.198 1.78906 -4.67968 0
M  V30 1613 H 262.458 4.797 -7.24003 0
M  V30 1614 H 262.189 3.69802 -5.84429 0
M  V30 1615 H 263.056 6.10356 -5.41441 0
M  V30 1616 H 265.711 4.78651 -3.27911 0
M  V30 1617 H 265.99 3.64957 -6.05871 0
M  V30 1618 H 266.982 4.8868 -5.2125 0
M  V30 1619 H 265.148 5.66726 -7.06352 0
M  V30 1620 H 265.077 2.07737 -5.72367 0
M  V30 1621 P 267.018 7.20834 -5.23717 0
M  V30 1622 O 267.238 8.66104 -5.38572 0
M  V30 1623 O 267.808 6.33544 -6.1349 0
M  V30 1624 O 267.268 6.7751 -3.72168 0
M  V30 1625 C 266.328 7.20825 -2.7076 0
M  V30 1626 C 267.058 7.45864 -1.40599 0
M  V30 1627 O 267.268 6.17651 -0.734225 0
M  V30 1628 C 268.458 8.05808 -1.51899 0
M  V30 1629 O 268.848 8.74358 -0.335205 0
M  V30 1630 C 269.338 6.83093 -1.70294 0
M  V30 1631 C 268.628 5.79992 -0.836974 0
M  V30 1632 N 268.678 4.41864 -1.38293 0
M  V30 1633 H 265.839 8.13644 -3.0377 0
M  V30 1634 H 265.569 6.42788 -2.55485 0
M  V30 1635 H 266.436 8.12039 -0.792769 0
M  V30 1636 P 270.398 8.91 8.68872e-13 0
M  V30 1637 O 270.618 10.1726 0.733694 0
M  V30 1638 O 271.188 8.73148 -1.23936 0
M  V30 1639 O 270.648 7.66872 0.971405 0
M  V30 1640 C 269.708 7.42309 2.04641 0
M  V30 1641 C 270.438 6.86059 3.24661 0
M  V30 1642 O 270.648 5.42847 3.03646 0
M  V30 1643 C 271.838 7.41196 3.50753 0
M  V30 1644 O 272.228 7.27073 4.86816 0
M  V30 1645 C 272.718 6.5273 2.63741 0
M  V30 1646 C 272.008 5.1842 2.73198 0
M  V30 1647 N 272.058 4.38762 1.4784 0
M  V30 1648 H 269.219 8.36803 2.32493 0
M  V30 1649 H 268.949 6.70197 1.71129 0
M  V30 1650 H 269.816 7.03551 4.13168 0
M  V30 1651 P 273.778 7.20834 5.23717 0
M  V30 1652 O 273.998 7.79853 6.57286 0
M  V30 1653 O 274.568 7.79239 4.12957 0
M  V30 1654 O 274.028 5.63315 5.29344 0
M  V30 1655 C 273.088 4.80255 6.01876 0
M  V30 1656 C 273.818 3.64202 6.65911 0
M  V30 1657 O 274.028 2.60694 5.64732 0
M  V30 1658 C 275.218 3.93473 7.1943 0
M  V30 1659 O 275.608 3.02071 8.21205 0
M  V30 1660 C 276.098 3.73047 5.97036 0
M  V30 1661 C 275.388 2.58828 5.25741 0
M  V30 1662 N 275.438 2.68068 3.77503 0
M  V30 1663 C 275.358 3.79715 2.96723 0
M  V30 1664 N 275.438 3.5377 1.68852 0
M  V30 1665 C 275.578 2.15054 1.63254 0
M  V30 1666 C 275.708 1.28964 0.518571 0
M  V30 1667 O 275.728 1.56826 -0.679156 0
M  V30 1668 N 275.828 -0.0538097 0.918425 0
M  V30 1669 C 275.828 -0.494275 2.22578 0
M  V30 1670 N 275.958 -1.81086 2.40434 0
M  V30 1671 N 275.698 0.313645 3.27502 0
M  V30 1672 C 275.578 1.61829 2.91033 0
M  V30 1673 H 272.599 5.40332 6.79951 0
M  V30 1674 H 272.329 4.41613 5.32378 0
M  V30 1675 H 273.196 3.26331 7.47797 0
M  V30 1676 H 275.851 1.63422 5.56814 0
M  V30 1677 H 276.13 4.63374 5.34244 0
M  V30 1678 H 277.122 3.44728 6.25838 0
M  V30 1679 H 275.288 4.96652 7.57263 0
M  V30 1680 H 275.239 4.80617 3.3614 0
M  V30 1681 H 275.921 -0.742702 0.199384 0
M  V30 1682 H 275.958 -2.20598 3.35588 0
M  V30 1683 H 276.059 -2.43518 1.58945 0
M  V30 1684 P 277.158 2.75334 8.47391 0
M  V30 1685 O 277.378 2.44571 9.90142 0
M  V30 1686 O 277.948 3.87688 7.92115 0
M  V30 1687 O 277.408 1.4459 7.59357 0
M  V30 1688 C 276.468 0.347608 7.69215 0
M  V30 1689 C 277.198 -0.96767 7.52806 0
M  V30 1690 O 277.408 -1.21036 6.1011 0
M  V30 1691 C 278.598 -1.04544 8.13308 0
M  V30 1692 O 278.988 -2.38311 8.41922 0
M  V30 1693 C 279.478 -0.491279 7.02284 0
M  V30 1694 C 278.768 -0.996264 5.77469 0
M  V30 1695 N 278.818 -0.0501916 4.62973 0
M  V30 1696 H 275.979 0.374722 8.67691 0
M  V30 1697 H 275.709 0.443485 6.90277 0
M  V30 1698 H 276.576 -1.75537 7.96793 0
M  V30 1699 P 280.538 -2.75334 8.47391 0
M  V30 1700 O 280.758 -3.84128 9.44797 0
M  V30 1701 O 281.328 -1.51947 8.68712 0
M  V30 1702 O 280.788 -3.29363 6.99321 0
M  V30 1703 C 279.848 -4.24011 6.4274 0
M  V30 1704 C 280.578 -5.20775 5.52155 0
M  V30 1705 O 280.788 -4.56534 4.22446 0
M  V30 1706 C 281.978 -5.62629 5.96531 0
M  V30 1707 O 282.368 -6.87667 5.41053 0
M  V30 1708 C 282.858 -4.52537 5.39283 0
M  V30 1709 C 282.148 -4.20027 4.08623 0
M  V30 1710 N 282.198 -2.76189 3.71603 0
M  V30 1711 H 279.359 -4.797 7.24003 0
M  V30 1712 H 279.089 -3.69856 5.84513 0
M  V30 1713 H 279.956 -6.10356 5.41441 0
M  V30 1714 P 283.918 -7.20834 5.23717 0
M  V30 1715 O 284.138 -8.66104 5.38572 0
M  V30 1716 O 284.708 -6.33544 6.1349 0
M  V30 1717 O 284.168 -6.7751 3.72168 0
M  V30 1718 C 283.228 -7.20825 2.7076 0
M  V30 1719 C 283.958 -7.45864 1.40599 0
M  V30 1720 O 284.168 -6.17651 0.734225 0
M  V30 1721 C 285.358 -8.05808 1.51899 0
M  V30 1722 O 285.748 -8.74358 0.335205 0
M  V30 1723 C 286.238 -6.83093 1.70294 0
M  V30 1724 C 285.528 -5.79992 0.836974 0
M  V30 1725 N 285.578 -4.41864 1.38293 0
M  V30 1726 C 285.498 -3.99538 2.69438 0
M  V30 1727 N 285.578 -2.69909 2.84277 0
M  V30 1728 C 285.718 -2.21719 1.5408 0
M  V30 1729 C 285.848 -0.891712 1.06628 0
M  V30 1730 N 285.968 -0.856846 -0.334985 0
M  V30 1731 C 285.968 -1.9641 -1.15789 0
M  V30 1732 N 286.098 -1.72708 -2.46522 0
M  V30 1733 N 285.838 -3.21165 -0.713741 0
M  V30 1734 C 285.718 -3.26797 0.639748 0
M  V30 1735 H 282.739 -8.13644 3.0377 0
M  V30 1736 H 282.469 -6.42788 2.55485 0
M  V30 1737 H 283.336 -8.12039 0.792769 0
M  V30 1738 P 287.298 -8.91 -1.02605e-12 0
M  V30 1739 O 287.518 -10.1736 -0.733766 0
M  V30 1740 O 288.088 -8.73247 1.2395 0
M  V30 1741 O 287.548 -7.66872 -0.971405 0
M  V30 1742 C 286.608 -7.42212 -2.04614 0
M  V30 1743 C 287.338 -6.86059 -3.24661 0
M  V30 1744 O 287.548 -5.42847 -3.03646 0
M  V30 1745 C 288.738 -7.41196 -3.50753 0
M  V30 1746 O 289.128 -7.27073 -4.86816 0
M  V30 1747 C 289.618 -6.5273 -2.63741 0
M  V30 1748 C 288.908 -5.1842 -2.73198 0
M  V30 1749 N 288.958 -4.38668 -1.47808 0
M  V30 1750 C 289.108 -3.02239 -1.60048 0
M  V30 1751 O 289.198 -2.46459 -2.67869 0
M  V30 1752 N 289.148 -2.32436 -0.408571 0
M  V30 1753 C 289.058 -2.85471 0.854993 0
M  V30 1754 O 289.108 -2.12566 1.8531 0
M  V30 1755 C 288.908 -4.28918 0.887335 0
M  V30 1756 C 288.798 -4.91066 2.24619 0
M  V30 1757 C 288.858 -5.00349 -0.255399 0
M  V30 1758 H 286.118 -8.36803 -2.32493 0
M  V30 1759 H 285.849 -6.701 -1.71105 0
M  V30 1760 H 286.716 -7.03551 -4.13168 0
M  V30 1761 H 289.371 -4.59773 -3.53894 0
M  V30 1762 H 289.65 -6.88995 -1.59871 0
M  V30 1763 H 290.642 -6.46749 -3.03687 0
M  V30 1764 H 288.808 -8.46908 -3.20714 0
M  V30 1765 H 288.737 -6.08548 -0.206986 0
M  V30 1766 H 289.767 -5.34836 2.53099 0
M  V30 1767 H 288.03 -5.69638 2.2291 0
M  V30 1768 H 288.518 -4.13971 2.98044 0
M  V30 1769 H 289.254 -1.33211 -0.474216 0
M  V30 1770 P 290.678 -7.20834 -5.23717 0
M  V30 1771 O 290.898 -7.79853 -6.57286 0
M  V30 1772 O 291.468 -7.79239 -4.12957 0
M  V30 1773 O 290.928 -5.63315 -5.29344 0
M  V30 1774 C 289.988 -4.80255 -6.01876 0
M  V30 1775 C 290.718 -3.64202 -6.65911 0
M  V30 1776 O 290.928 -2.60694 -5.64732 0
M  V30 1777 C 292.118 -3.93473 -7.1943 0
M  V30 1778 O 292.508 -3.02071 -8.21205 0
M  V30 1779 C 292.998 -3.73047 -5.97036 0
M  V30 1780 C 292.288 -2.58828 -5.25741 0
M  V30 1781 N 292.338 -2.68068 -3.77503 0
M  V30 1782 C 292.258 -3.79715 -2.96723 0
M  V30 1783 N 292.338 -3.5377 -1.68852 0
M  V30 1784 C 292.478 -2.15054 -1.63254 0
M  V30 1785 C 292.608 -1.28964 -0.518571 0
M  V30 1786 N 292.728 0.0538097 -0.918425 0
M  V30 1787 C 292.728 0.494275 -2.22578 0
M  V30 1788 N 292.858 1.81086 -2.40434 0
M  V30 1789 N 292.598 -0.313645 -3.27502 0
M  V30 1790 C 292.478 -1.61829 -2.91033 0
M  V30 1791 H 289.499 -5.40332 -6.79951 0
M  V30 1792 H 289.229 -4.41613 -5.32378 0
M  V30 1793 H 290.096 -3.26331 -7.47797 0
M  V30 1794 P 294.058 -2.75334 -8.47391 0
M  V30 1795 O 294.278 -2.44571 -9.90142 0
M  V30 1796 O 294.848 -3.87688 -7.92115 0
M  V30 1797 O 294.308 -1.4459 -7.59357 0
M  V30 1798 C 293.368 -0.347608 -7.69215 0
M  V30 1799 C 294.098 0.96767 -7.52806 0
M  V30 1800 O 294.308 1.21036 -6.1011 0
M  V30 1801 C 295.498 1.04544 -8.13308 0
M  V30 1802 O 295.888 2.38311 -8.41922 0
M  V30 1803 C 296.378 0.491279 -7.02284 0
M  V30 1804 C 295.668 0.996264 -5.77469 0
M  V30 1805 N 295.718 0.0501916 -4.62973 0
M  V30 1806 H 292.879 -0.374722 -8.67691 0
M  V30 1807 H 292.609 -0.443485 -6.90277 0
M  V30 1808 H 293.476 1.75537 -7.96793 0
M  V30 1809 P 297.438 2.75334 -8.47391 0
M  V30 1810 O 297.658 3.84204 -9.44982 0
M  V30 1811 O 298.228 1.51982 -8.68909 0
M  V30 1812 O 297.688 3.29363 -6.99321 0
M  V30 1813 C 296.748 4.24066 -6.42823 0
M  V30 1814 C 297.478 5.20775 -5.52155 0
M  V30 1815 O 297.688 4.56607 -4.22514 0
M  V30 1816 C 298.878 5.62697 -5.96604 0
M  V30 1817 O 299.268 6.87667 -5.41053 0
M  V30 1818 C 299.758 4.52537 -5.39283 0
M  V30 1819 C 299.048 4.20027 -4.08623 0
M  V30 1820 N 299.098 2.76189 -3.71603 0
M  V30 1821 H 296.26 4.79756 -7.24086 0
M  V30 1822 H 295.988 3.69963 -5.84682 0
M  V30 1823 H 296.856 6.10431 -5.41508 0
M  V30 1824 H 299.511 4.78816 -3.28024 0
M  V30 1825 H 299.791 3.64957 -6.05871 0
M  V30 1826 H 300.782 4.88748 -5.21323 0
M  V30 1827 H 298.948 5.66789 -7.0643 0
M  V30 1828 P 300.818 7.20834 -5.23717 0
M  V30 1829 O 301.038 8.66189 -5.38625 0
M  V30 1830 O 301.608 6.33615 -6.1356 0
M  V30 1831 O 301.068 6.7751 -3.72168 0
M  V30 1832 C 300.128 7.20732 -2.70725 0
M  V30 1833 C 300.858 7.45864 -1.40599 0
M  V30 1834 O 301.068 6.17651 -0.734225 0
M  V30 1835 C 302.258 8.05808 -1.51899 0
M  V30 1836 O 302.648 8.74358 -0.335205 0
M  V30 1837 C 303.138 6.83093 -1.70294 0
M  V30 1838 C 302.428 5.79992 -0.836974 0
M  V30 1839 N 302.478 4.41769 -1.38263 0
M  V30 1840 C 302.628 3.38591 -0.481702 0
M  V30 1841 O 302.718 3.56839 0.718452 0
M  V30 1842 N 302.668 2.1206 -1.03569 0
M  V30 1843 C 302.578 1.80696 -2.36966 0
M  V30 1844 O 302.628 0.630473 -2.74862 0
M  V30 1845 C 302.428 2.94845 -3.23898 0
M  V30 1846 C 302.318 2.65253 -4.70362 0
M  V30 1847 C 302.378 4.19803 -2.73435 0
M  V30 1848 H 299.638 8.13644 -3.0377 0
M  V30 1849 H 299.369 6.42695 -2.55448 0
M  V30 1850 H 300.236 8.12039 -0.792769 0
M  V30 1851 H 302.891 5.79978 0.160587 0
M  V30 1852 H 303.17 6.51379 -2.75643 0
M  V30 1853 H 304.162 7.01734 -1.34462 0
M  V30 1854 H 302.328 8.73674 -2.38337 0
M  V30 1855 H 302.257 5.04492 -3.4095 0
M  V30 1856 H 303.287 2.83924 -5.1913 0
M  V30 1857 H 301.55 3.29824 -5.15163 0
M  V30 1858 H 302.038 1.59723 -4.84449 0
M  V30 1859 H 302.774 1.35644 -0.399345 0
M  V30 1860 P 304.198 8.91 1.18324e-12 0
M  V30 1861 O 304.418 10.1726 0.733694 0
M  V30 1862 O 304.988 8.73148 -1.23936 0
M  V30 1863 O 304.448 7.66872 0.971405 0
M  V30 1864 C 303.508 7.42309 2.04641 0
M  V30 1865 C 304.238 6.86059 3.24661 0
M  V30 1866 O 304.448 5.42847 3.03646 0
M  V30 1867 C 305.638 7.41196 3.50753 0
M  V30 1868 O 306.028 7.27073 4.86816 0
M  V30 1869 C 306.518 6.5273 2.63741 0
M  V30 1870 C 305.808 5.1842 2.73198 0
M  V30 1871 N 305.858 4.38762 1.4784 0
M  V30 1872 H 303.019 8.36803 2.32493 0
M  V30 1873 H 302.749 6.70197 1.71129 0
M  V30 1874 H 303.616 7.03551 4.13168 0
M  V30 1875 P 307.578 7.20834 5.23717 0
M  V30 1876 O 307.798 7.79853 6.57286 0
M  V30 1877 O 308.368 7.79239 4.12957 0
M  V30 1878 O 307.828 5.63315 5.29344 0
M  V30 1879 C 306.888 4.80255 6.01876 0
M  V30 1880 C 307.618 3.64202 6.65911 0
M  V30 1881 O 307.828 2.60694 5.64732 0
M  V30 1882 C 309.018 3.93473 7.1943 0
M  V30 1883 O 309.408 3.02071 8.21205 0
M  V30 1884 C 309.898 3.73047 5.97036 0
M  V30 1885 C 309.188 2.58828 5.25741 0
M  V30 1886 N 309.238 2.68068 3.77503 0
M  V30 1887 H 306.399 5.40332 6.79951 0
M  V30 1888 H 306.129 4.41613 5.32378 0
M  V30 1889 H 306.996 3.26331 7.47797 0
M  V30 1890 P 310.958 2.75334 8.47391 0
M  V30 1891 O 311.178 2.44571 9.90142 0
M  V30 1892 O 311.748 3.87688 7.92115 0
M  V30 1893 O 311.208 1.4459 7.59357 0
M  V30 1894 C 310.268 0.347608 7.69215 0
M  V30 1895 C 310.998 -0.96767 7.52806 0
M  V30 1896 O 311.208 -1.21036 6.1011 0
M  V30 1897 C 312.398 -1.04544 8.13308 0
M  V30 1898 O 312.788 -2.38311 8.41922 0
M  V30 1899 C 313.278 -0.491279 7.02284 0
M  V30 1900 C 312.568 -0.996264 5.77469 0
M  V30 1901 N 312.618 -0.0501916 4.62973 0
M  V30 1902 H 309.779 0.374722 8.67691 0
M  V30 1903 H 309.509 0.443485 6.90277 0
M  V30 1904 H 310.376 -1.75537 7.96793 0
M  V30 1905 P 314.338 -2.75334 8.47391 0
M  V30 1906 O 314.558 -3.84128 9.44797 0
M  V30 1907 O 315.128 -1.51947 8.68712 0
M  V30 1908 O 314.588 -3.29363 6.99321 0
M  V30 1909 C 313.648 -4.24011 6.4274 0
M  V30 1910 C 314.378 -5.20775 5.52155 0
M  V30 1911 O 314.588 -4.56534 4.22446 0
M  V30 1912 C 315.778 -5.62629 5.96531 0
M  V30 1913 O 316.168 -6.87667 5.41053 0
M  V30 1914 C 316.658 -4.52537 5.39283 0
M  V30 1915 C 315.948 -4.20027 4.08623 0
M  V30 1916 N 315.998 -2.76189 3.71603 0
M  V30 1917 C 315.918 -1.64862 4.52822 0
M  V30 1918 N 315.998 -0.512671 3.88633 0
M  V30 1919 C 316.138 -0.888083 2.54977 0
M  V30 1920 C 316.268 -0.094668 1.38677 0
M  V30 1921 O 316.288 1.13053 1.28163 0
M  V30 1922 N 316.388 -0.890102 0.232633 0
M  V30 1923 C 316.388 -2.26958 0.21772 0
M  V30 1924 N 316.518 -2.84626 -0.97925 0
M  V30 1925 N 316.258 -3.0178 1.31033 0
M  V30 1926 C 316.138 -2.26781 2.43843 0
M  V30 1927 H 313.159 -4.797 7.24003 0
M  V30 1928 H 312.889 -3.69856 5.84513 0
M  V30 1929 H 313.756 -6.10356 5.41441 0
M  V30 1930 H 316.411 -4.79061 3.27488 0
M  V30 1931 H 316.69 -3.64906 6.05785 0
M  V30 1932 H 317.682 -4.8868 5.2125 0
M  V30 1933 H 315.848 -5.66726 7.06352 0
M  V30 1934 H 315.799 -1.71169 5.60966 0
M  V30 1935 H 316.481 -0.419134 -0.644739 0
M  V30 1936 H 316.518 -3.87332 -1.06098 0
M  V30 1937 H 316.619 -2.26417 -1.82483 0
M  V30 1938 P 317.718 -7.20834 5.23717 0
M  V30 1939 O 317.938 -8.66104 5.38572 0
M  V30 1940 O 318.508 -6.33544 6.1349 0
M  V30 1941 O 317.968 -6.7751 3.72168 0
M  V30 1942 C 317.028 -7.20825 2.7076 0
M  V30 1943 C 317.758 -7.45864 1.40599 0
M  V30 1944 O 317.968 -6.17651 0.734225 0
M  V30 1945 C 319.158 -8.05808 1.51899 0
M  V30 1946 O 319.548 -8.74358 0.335205 0
M  V30 1947 C 320.038 -6.83093 1.70294 0
M  V30 1948 C 319.328 -5.79992 0.836974 0
M  V30 1949 N 319.378 -4.41864 1.38293 0
M  V30 1950 H 316.539 -8.13644 3.0377 0
M  V30 1951 H 316.269 -6.42788 2.55485 0
M  V30 1952 H 317.136 -8.12039 0.792769 0
M  V30 1953 P 321.098 -8.91 -1.34042e-12 0
M  V30 1954 O 321.318 -10.1726 -0.733694 0
M  V30 1955 O 321.888 -8.73148 1.23936 0
M  V30 1956 O 321.348 -7.66872 -0.971405 0
M  V30 1957 C 320.408 -7.42309 -2.04641 0
M  V30 1958 C 321.138 -6.86059 -3.24661 0
M  V30 1959 O 321.348 -5.42847 -3.03646 0
M  V30 1960 C 322.538 -7.41196 -3.50753 0
M  V30 1961 O 322.928 -7.27073 -4.86816 0
M  V30 1962 C 323.418 -6.5273 -2.63741 0
M  V30 1963 C 322.708 -5.1842 -2.73198 0
M  V30 1964 N 322.758 -4.38762 -1.4784 0
M  V30 1965 H 319.919 -8.36803 -2.32493 0
M  V30 1966 H 319.649 -6.70197 -1.71129 0
M  V30 1967 H 320.516 -7.03551 -4.13168 0
M  V30 1968 P 324.478 -7.20834 -5.23717 0
M  V30 1969 O 324.698 -7.79853 -6.57286 0
M  V30 1970 O 325.268 -7.79239 -4.12957 0
M  V30 1971 O 324.728 -5.63315 -5.29344 0
M  V30 1972 C 323.788 -4.80255 -6.01876 0
M  V30 1973 C 324.518 -3.64202 -6.65911 0
M  V30 1974 O 324.728 -2.60694 -5.64732 0
M  V30 1975 C 325.918 -3.93473 -7.1943 0
M  V30 1976 O 326.308 -3.02071 -8.21205 0
M  V30 1977 C 326.798 -3.73047 -5.97036 0
M  V30 1978 C 326.088 -2.58828 -5.25741 0
M  V30 1979 N 326.138 -2.68068 -3.77503 0
M  V30 1980 C 326.058 -3.79715 -2.96723 0
M  V30 1981 N 326.138 -3.5377 -1.68852 0
M  V30 1982 C 326.278 -2.15054 -1.63254 0
M  V30 1983 C 326.408 -1.28964 -0.518571 0
M  V30 1984 N 326.528 0.0538097 -0.918425 0
M  V30 1985 C 326.528 0.494275 -2.22578 0
M  V30 1986 N 326.658 1.81086 -2.40434 0
M  V30 1987 N 326.398 -0.313645 -3.27502 0
M  V30 1988 C 326.278 -1.61829 -2.91033 0
M  V30 1989 H 323.299 -5.40332 -6.79951 0
M  V30 1990 H 323.029 -4.41613 -5.32378 0
M  V30 1991 H 323.896 -3.26331 -7.47797 0
M  V30 1992 P 327.858 -2.75334 -8.47391 0
M  V30 1993 O 328.078 -2.44595 -9.90239 0
M  V30 1994 O 328.648 -3.87732 -7.92204 0
M  V30 1995 O 328.108 -1.4459 -7.59357 0
M  V30 1996 C 327.168 -0.347563 -7.69115 0
M  V30 1997 C 327.898 0.96767 -7.52806 0
M  V30 1998 O 328.108 1.21036 -6.1011 0
M  V30 1999 C 329.298 1.04544 -8.13308 0
M  V30 2000 O 329.688 2.38311 -8.41922 0
M  V30 2001 C 330.178 0.491279 -7.02284 0
M  V30 2002 C 329.468 0.996264 -5.77469 0
M  V30 2003 N 329.518 0.0501808 -4.62873 0
M  V30 2004 C 329.668 0.588177 -3.36904 0
M  V30 2005 O 329.758 1.78598 -3.17173 0
M  V30 2006 N 329.708 -0.329694 -2.33686 0
M  V30 2007 C 329.618 -1.6953 -2.45079 0
M  V30 2008 C 329.468 -2.16933 -3.80505 0
M  V30 2009 C 329.418 -1.30326 -4.83752 0
M  V30 2010 H 326.678 -0.374722 -8.67691 0
M  V30 2011 H 326.409 -0.443421 -6.90177 0
M  V30 2012 H 327.276 1.75537 -7.96793 0
M  V30 2013 H 329.931 1.94496 -5.46629 0
M  V30 2014 H 330.21 -0.608651 -7.04676 0
M  V30 2015 H 331.202 0.889672 -7.08939 0
M  V30 2016 H 329.368 0.43308 -9.04564 0
M  V30 2017 H 329.297 -1.68366 -5.8516 0
M  V30 2018 P 331.238 2.75334 -8.47391 0
M  V30 2019 O 331.458 3.84166 -9.4489 0
M  V30 2020 O 332.028 1.51964 -8.6881 0
M  V30 2021 O 331.488 3.29363 -6.99321 0
M  V30 2022 C 330.548 4.23956 -6.42656 0
M  V30 2023 C 331.278 5.20775 -5.52155 0
M  V30 2024 O 331.488 4.56534 -4.22446 0
M  V30 2025 C 332.678 5.62629 -5.96531 0
M  V30 2026 O 333.068 6.87667 -5.41053 0
M  V30 2027 C 333.558 4.52537 -5.39283 0
M  V30 2028 C 332.848 4.20027 -4.08623 0
M  V30 2029 N 332.898 2.7613 -3.71522 0
M  V30 2030 C 333.048 2.45612 -2.37989 0
M  V30 2031 O 333.138 3.30919 -1.51621 0
M  V30 2032 N 333.088 1.10684 -2.08435 0
M  V30 2033 C 332.998 0.0690084 -2.9792 0
M  V30 2034 O 333.048 -1.10553 -2.59426 0
M  V30 2035 C 332.848 0.481522 -4.35345 0
M  V30 2036 C 332.738 -0.618778 -5.36443 0
M  V30 2037 C 332.798 1.78906 -4.67968 0
M  V30 2038 H 330.058 4.797 -7.24003 0
M  V30 2039 H 329.789 3.69802 -5.84429 0
M  V30 2040 H 330.656 6.10356 -5.41441 0
M  V30 2041 H 333.311 4.78651 -3.27911 0
M  V30 2042 H 333.59 3.64957 -6.05871 0
M  V30 2043 H 334.582 4.8868 -5.2125 0
M  V30 2044 H 332.748 5.66726 -7.06352 0
M  V30 2045 H 332.677 2.07737 -5.72367 0
M  V30 2046 H 333.707 -0.754375 -5.86871 0
M  V30 2047 H 331.97 -0.359721 -6.10641 0
M  V30 2048 H 332.458 -1.55533 -4.8581 0
M  V30 2049 H 333.194 0.862651 -1.12037 0
M  V30 2050 P 334.618 7.20834 -5.23717 0
M  V30 2051 O 334.838 8.66189 -5.38625 0
M  V30 2052 O 335.408 6.33615 -6.1356 0
M  V30 2053 O 334.868 6.7751 -3.72168 0
M  V30 2054 C 333.928 7.20732 -2.70725 0
M  V30 2055 C 334.658 7.45864 -1.40599 0
M  V30 2056 O 334.868 6.17651 -0.734225 0
M  V30 2057 C 336.058 8.05808 -1.51899 0
M  V30 2058 O 336.448 8.74358 -0.335205 0
M  V30 2059 C 336.938 6.83093 -1.70294 0
M  V30 2060 C 336.228 5.79992 -0.836974 0
M  V30 2061 N 336.278 4.41769 -1.38263 0
M  V30 2062 C 336.428 3.38591 -0.481702 0
M  V30 2063 O 336.518 3.56839 0.718452 0
M  V30 2064 N 336.468 2.1206 -1.03569 0
M  V30 2065 C 336.378 1.80696 -2.36966 0
M  V30 2066 O 336.428 0.630473 -2.74862 0
M  V30 2067 C 336.228 2.94845 -3.23898 0
M  V30 2068 C 336.118 2.65253 -4.70362 0
M  V30 2069 C 336.178 4.19803 -2.73435 0
M  V30 2070 H 333.438 8.13644 -3.0377 0
M  V30 2071 H 333.169 6.42695 -2.55448 0
M  V30 2072 H 334.036 8.12039 -0.792769 0
M  V30 2073 H 336.691 5.79978 0.160587 0
M  V30 2074 H 336.97 6.51379 -2.75643 0
M  V30 2075 H 337.962 7.01734 -1.34462 0
M  V30 2076 H 336.128 8.73674 -2.38337 0
M  V30 2077 H 336.057 5.04492 -3.4095 0
M  V30 2078 H 337.087 2.83924 -5.1913 0
M  V30 2079 H 335.35 3.29824 -5.15163 0
M  V30 2080 H 335.838 1.59723 -4.84449 0
M  V30 2081 H 336.574 1.35644 -0.399345 0
M  V30 2082 P 337.998 8.91 1.4976e-12 0
M  V30 2083 O 338.218 10.1726 0.733694 0
M  V30 2084 O 338.788 8.73148 -1.23936 0
M  V30 2085 O 338.248 7.66872 0.971405 0
M  V30 2086 C 337.308 7.42309 2.04641 0
M  V30 2087 C 338.038 6.86059 3.24661 0
M  V30 2088 O 338.248 5.42847 3.03646 0
M  V30 2089 C 339.438 7.41196 3.50753 0
M  V30 2090 O 339.828 7.27073 4.86816 0
M  V30 2091 C 340.318 6.5273 2.63741 0
M  V30 2092 C 339.608 5.1842 2.73198 0
M  V30 2093 N 339.658 4.38762 1.4784 0
M  V30 2094 H 336.819 8.36803 2.32493 0
M  V30 2095 H 336.549 6.70197 1.71129 0
M  V30 2096 H 337.416 7.03551 4.13168 0
M  V30 2097 P 341.378 7.20834 5.23717 0
M  V30 2098 O 341.598 7.79853 6.57286 0
M  V30 2099 O 342.168 7.79239 4.12957 0
M  V30 2100 O 341.628 5.63315 5.29344 0
M  V30 2101 C 340.688 4.80255 6.01876 0
M  V30 2102 C 341.418 3.64202 6.65911 0
M  V30 2103 O 341.628 2.60694 5.64732 0
M  V30 2104 C 342.818 3.93473 7.1943 0
M  V30 2105 O 343.208 3.02071 8.21205 0
M  V30 2106 C 343.698 3.73047 5.97036 0
M  V30 2107 C 342.988 2.58828 5.25741 0
M  V30 2108 N 343.038 2.68068 3.77503 0
M  V30 2109 H 340.199 5.40332 6.79951 0
M  V30 2110 H 339.929 4.41613 5.32378 0
M  V30 2111 H 340.796 3.26331 7.47797 0
M  V30 2112 P 344.758 2.75334 8.47391 0
M  V30 2113 O 344.978 2.44571 9.90142 0
M  V30 2114 O 345.548 3.87688 7.92115 0
M  V30 2115 O 345.008 1.4459 7.59357 0
M  V30 2116 C 344.068 0.347608 7.69215 0
M  V30 2117 C 344.798 -0.96767 7.52806 0
M  V30 2118 O 345.008 -1.21036 6.1011 0
M  V30 2119 C 346.198 -1.04544 8.13308 0
M  V30 2120 O 346.588 -2.38311 8.41922 0
M  V30 2121 C 347.078 -0.491279 7.02284 0
M  V30 2122 C 346.368 -0.996264 5.77469 0
M  V30 2123 N 346.418 -0.0501916 4.62973 0
M  V30 2124 H 343.579 0.374722 8.67691 0
M  V30 2125 H 343.309 0.443485 6.90277 0
M  V30 2126 H 344.176 -1.75537 7.96793 0
M  V30 2127 P 348.138 -2.75334 8.47391 0
M  V30 2128 O 348.358 -3.84128 9.44797 0
M  V30 2129 O 348.928 -1.51947 8.68712 0
M  V30 2130 O 348.388 -3.29363 6.99321 0
M  V30 2131 C 347.448 -4.24011 6.4274 0
M  V30 2132 C 348.178 -5.20775 5.52155 0
M  V30 2133 O 348.388 -4.56534 4.22446 0
M  V30 2134 C 349.578 -5.62629 5.96531 0
M  V30 2135 O 349.968 -6.87667 5.41053 0
M  V30 2136 C 350.458 -4.52537 5.39283 0
M  V30 2137 C 349.748 -4.20027 4.08623 0
M  V30 2138 N 349.798 -2.76189 3.71603 0
M  V30 2139 H 346.959 -4.797 7.24003 0
M  V30 2140 H 346.689 -3.69856 5.84513 0
M  V30 2141 H 347.556 -6.10356 5.41441 0
M  V30 2142 P 351.518 -7.20834 5.23717 0
M  V30 2143 O 351.738 -8.66104 5.38572 0
M  V30 2144 O 352.308 -6.33544 6.1349 0
M  V30 2145 O 351.768 -6.7751 3.72168 0
M  V30 2146 C 350.828 -7.20825 2.7076 0
M  V30 2147 C 351.558 -7.45864 1.40599 0
M  V30 2148 O 351.768 -6.17651 0.734225 0
M  V30 2149 C 352.958 -8.05808 1.51899 0
M  V30 2150 O 353.348 -8.74358 0.335205 0
M  V30 2151 C 353.838 -6.83093 1.70294 0
M  V30 2152 C 353.128 -5.79992 0.836974 0
M  V30 2153 N 353.178 -4.41864 1.38293 0
M  V30 2154 H 350.339 -8.13644 3.0377 0
M  V30 2155 H 350.069 -6.42788 2.55485 0
M  V30 2156 H 350.936 -8.12039 0.792769 0
M  V30 2157 P 354.898 -8.91 -1.65478e-12 0
M  V30 2158 O 355.118 -10.1726 -0.733694 0
M  V30 2159 O 355.688 -8.73148 1.23936 0
M  V30 2160 O 355.148 -7.66872 -0.971405 0
M  V30 2161 C 354.208 -7.42309 -2.04641 0
M  V30 2162 C 354.938 -6.86059 -3.24661 0
M  V30 2163 O 355.148 -5.42847 -3.03646 0
M  V30 2164 C 356.338 -7.41196 -3.50753 0
M  V30 2165 O 356.728 -7.27073 -4.86816 0
M  V30 2166 C 357.218 -6.5273 -2.63741 0
M  V30 2167 C 356.508 -5.1842 -2.73198 0
M  V30 2168 N 356.558 -4.38762 -1.4784 0
M  V30 2169 H 353.719 -8.36803 -2.32493 0
M  V30 2170 H 353.449 -6.70197 -1.71129 0
M  V30 2171 H 354.316 -7.03551 -4.13168 0
M  V30 2172 P 358.278 -7.20834 -5.23717 0
M  V30 2173 O 358.498 -7.79853 -6.57286 0
M  V30 2174 O 359.068 -7.79239 -4.12957 0
M  V30 2175 O 358.528 -5.63315 -5.29344 0
M  V30 2176 C 357.588 -4.80255 -6.01876 0
M  V30 2177 C 358.318 -3.64202 -6.65911 0
M  V30 2178 O 358.528 -2.60694 -5.64732 0
M  V30 2179 C 359.718 -3.93473 -7.1943 0
M  V30 2180 O 360.108 -3.02071 -8.21205 0
M  V30 2181 C 360.598 -3.73047 -5.97036 0
M  V30 2182 C 359.888 -2.58828 -5.25741 0
M  V30 2183 N 359.938 -2.68068 -3.77503 0
M  V30 2184 C 359.858 -3.79715 -2.96723 0
M  V30 2185 N 359.938 -3.5377 -1.68852 0
M  V30 2186 C 360.078 -2.15054 -1.63254 0
M  V30 2187 C 360.208 -1.28964 -0.518571 0
M  V30 2188 O 360.228 -1.56826 0.679156 0
M  V30 2189 N 360.328 0.0538097 -0.918425 0
M  V30 2190 C 360.328 0.494275 -2.22578 0
M  V30 2191 N 360.458 1.81086 -2.40434 0
M  V30 2192 N 360.198 -0.313645 -3.27502 0
M  V30 2193 C 360.078 -1.61829 -2.91033 0
M  V30 2194 H 357.099 -5.40332 -6.79951 0
M  V30 2195 H 356.829 -4.41613 -5.32378 0
M  V30 2196 H 357.696 -3.26331 -7.47797 0
M  V30 2197 H 360.351 -1.63422 -5.56814 0
M  V30 2198 H 360.63 -4.63374 -5.34244 0
M  V30 2199 H 361.622 -3.44728 -6.25838 0
M  V30 2200 H 359.788 -4.96652 -7.57263 0
M  V30 2201 H 359.739 -4.80617 -3.3614 0
M  V30 2202 H 360.421 0.742702 -0.199384 0
M  V30 2203 H 360.458 2.20598 -3.35588 0
M  V30 2204 H 360.559 2.43518 -1.58945 0
M  V30 2205 P 361.658 -2.75334 -8.47391 0
M  V30 2206 O 361.878 -2.44571 -9.90142 0
M  V30 2207 O 362.448 -3.87688 -7.92115 0
M  V30 2208 O 361.908 -1.4459 -7.59357 0
M  V30 2209 C 360.968 -0.347608 -7.69215 0
M  V30 2210 C 361.698 0.96767 -7.52806 0
M  V30 2211 O 361.908 1.21036 -6.1011 0
M  V30 2212 C 363.098 1.04544 -8.13308 0
M  V30 2213 O 363.488 2.38311 -8.41922 0
M  V30 2214 C 363.978 0.491279 -7.02284 0
M  V30 2215 C 363.268 0.996264 -5.77469 0
M  V30 2216 N 363.318 0.0501916 -4.62973 0
M  V30 2217 C 363.238 -1.32786 -4.63244 0
M  V30 2218 N 363.318 -1.86957 -3.44545 0
M  V30 2219 C 363.458 -0.780241 -2.58481 0
M  V30 2220 C 363.588 -0.738536 -1.17757 0
M  V30 2221 O 363.608 -1.66794 -0.372349 0
M  V30 2222 N 363.708 0.58337 -0.711393 0
M  V30 2223 C 363.708 1.70816 -1.51017 0
M  V30 2224 N 363.838 2.87826 -0.880757 0
M  V30 2225 N 363.578 1.67126 -2.8339 0
M  V30 2226 C 363.458 0.401421 -3.30572 0
M  V30 2227 H 360.479 -0.374722 -8.67691 0
M  V30 2228 H 360.209 -0.443485 -6.90277 0
M  V30 2229 H 361.076 1.75537 -7.96793 0
M  V30 2230 H 363.731 1.95076 -5.46529 0
M  V30 2231 H 364.01 -0.608565 -7.04577 0
M  V30 2232 H 365.002 0.889672 -7.08939 0
M  V30 2233 H 363.168 0.43308 -9.04564 0
M  V30 2234 H 363.119 -1.91249 -5.54442 0
M  V30 2235 H 363.801 0.718054 0.275244 0
M  V30 2236 H 363.838 3.75721 -1.41832 0
M  V30 2237 H 363.939 2.90436 0.145468 0
M  V30 2238 P 365.038 2.75334 -8.47391 0
M  V30 2239 O 365.258 3.84166 -9.4489 0
M  V30 2240 O 365.828 1.51964 -8.6881 0
M  V30 2241 O 365.288 3.29363 -6.99321 0
M  V30 2242 C 364.348 4.23956 -6.42656 0
M  V30 2243 C 365.078 5.20775 -5.52155 0
M  V30 2244 O 365.288 4.56534 -4.22446 0
M  V30 2245 C 366.478 5.62629 -5.96531 0
M  V30 2246 O 366.868 6.87667 -5.41053 0
M  V30 2247 C 367.358 4.52537 -5.39283 0
M  V30 2248 C 366.648 4.20027 -4.08623 0
M  V30 2249 N 366.698 2.7613 -3.71522 0
M  V30 2250 C 366.848 2.45612 -2.37989 0
M  V30 2251 O 366.938 3.30919 -1.51621 0
M  V30 2252 N 366.888 1.10684 -2.08435 0
M  V30 2253 C 366.798 0.0690084 -2.9792 0
M  V30 2254 O 366.848 -1.10553 -2.59426 0
M  V30 2255 C 366.648 0.481522 -4.35345 0
M  V30 2256 C 366.538 -0.618778 -5.36443 0
M  V30 2257 C 366.598 1.78906 -4.67968 0
M  V30 2258 H 363.858 4.797 -7.24003 0
M  V30 2259 H 363.589 3.69802 -5.84429 0
M  V30 2260 H 364.456 6.10356 -5.41441 0
M  V30 2261 H 367.111 4.78651 -3.27911 0
M  V30 2262 H 367.39 3.64957 -6.05871 0
M  V30 2263 H 368.382 4.8868 -5.2125 0
M  V30 2264 H 366.548 5.66726 -7.06352 0
M  V30 2265 H 366.477 2.07737 -5.72367 0
M  V30 2266 H 367.507 -0.754375 -5.86871 0
M  V30 2267 H 365.77 -0.359721 -6.10641 0
M  V30 2268 H 366.258 -1.55533 -4.8581 0
M  V30 2269 H 366.994 0.862651 -1.12037 0
M  V30 2270 P 368.418 7.20834 -5.23717 0
M  V30 2271 O 368.638 8.66274 -5.38678 0
M  V30 2272 O 369.208 6.33687 -6.13629 0
M  V30 2273 O 368.668 6.7751 -3.72168 0
M  V30 2274 C 367.728 7.20919 -2.70795 0
M  V30 2275 C 368.458 7.45864 -1.40599 0
M  V30 2276 O 368.668 6.17751 -0.734343 0
M  V30 2277 C 369.858 8.05906 -1.51917 0
M  V30 2278 O 370.248 8.74358 -0.335205 0
M  V30 2279 C 370.738 6.83093 -1.70294 0
M  V30 2280 C 370.028 5.79992 -0.836974 0
M  V30 2281 N 370.078 4.41864 -1.38293 0
M  V30 2282 H 367.24 8.13738 -3.03804 0
M  V30 2283 H 366.968 6.42974 -2.55559 0
M  V30 2284 H 367.836 8.12139 -0.792866 0
M  V30 2285 H 370.491 5.80178 0.160643 0
M  V30 2286 H 370.771 6.51379 -2.75643 0
M  V30 2287 H 371.762 7.01832 -1.3448 0
M  V30 2288 H 369.928 8.73771 -2.38364 0
M  V30 2289 P 371.798 8.91 1.81197e-12 0
M  V30 2290 O 372.018 10.1726 0.733694 0
M  V30 2291 O 372.588 8.73148 -1.23936 0
M  V30 2292 O 372.048 7.66872 0.971405 0
M  V30 2293 C 371.108 7.42309 2.04641 0
M  V30 2294 C 371.838 6.86059 3.24661 0
M  V30 2295 O 372.048 5.42847 3.03646 0
M  V30 2296 C 373.238 7.41196 3.50753 0
M  V30 2297 O 373.628 7.27073 4.86816 0
M  V30 2298 C 374.118 6.5273 2.63741 0
M  V30 2299 C 373.408 5.1842 2.73198 0
M  V30 2300 N 373.458 4.38762 1.4784 0
M  V30 2301 H 370.619 8.36803 2.32493 0
M  V30 2302 H 370.349 6.70197 1.71129 0
M  V30 2303 H 371.216 7.03551 4.13168 0
M  V30 2304 P 375.178 7.20834 5.23717 0
M  V30 2305 O 375.398 7.80006 6.57415 0
M  V30 2306 O 375.968 7.79416 4.13051 0
M  V30 2307 O 375.428 5.63315 5.29344 0
M  V30 2308 C 374.488 4.80318 6.01954 0
M  V30 2309 C 375.218 3.64202 6.65911 0
M  V30 2310 O 375.428 2.60736 5.64823 0
M  V30 2311 C 376.618 3.93521 7.19518 0
M  V30 2312 O 377.008 3.02071 8.21205 0
M  V30 2313 C 377.498 3.73047 5.97036 0
M  V30 2314 C 376.788 2.58828 5.25741 0
M  V30 2315 N 376.838 2.68068 3.77503 0
M  V30 2316 H 374 5.40394 6.8003 0
M  V30 2317 H 373.728 4.41741 5.32532 0
M  V30 2318 H 374.596 3.26371 7.47889 0
M  V30 2319 H 377.251 1.64007 5.56746 0
M  V30 2320 H 377.531 4.63439 5.3432 0
M  V30 2321 H 378.522 3.44776 6.25925 0
M  V30 2322 H 376.688 4.96707 7.57347 0
M  V30 2323 P 378.558 2.75334 8.47391 0
M  V30 2324 O 378.778 2.44571 9.90142 0
M  V30 2325 O 379.348 3.87688 7.92115 0
M  V30 2326 O 378.808 1.4459 7.59357 0
M  V30 2327 C 377.868 0.347608 7.69215 0
M  V30 2328 C 378.598 -0.96767 7.52806 0
M  V30 2329 O 378.808 -1.21036 6.1011 0
M  V30 2330 C 379.998 -1.04544 8.13308 0
M  V30 2331 O 380.388 -2.38311 8.41922 0
M  V30 2332 C 380.878 -0.491279 7.02284 0
M  V30 2333 C 380.168 -0.996264 5.77469 0
M  V30 2334 N 380.218 -0.0501916 4.62973 0
M  V30 2335 H 377.379 0.374722 8.67691 0
M  V30 2336 H 377.109 0.443485 6.90277 0
M  V30 2337 H 377.976 -1.75537 7.96793 0
M  V30 2338 P 381.938 -2.75334 8.47391 0
M  V30 2339 O 382.158 -3.84128 9.44797 0
M  V30 2340 O 382.728 -1.51947 8.68712 0
M  V30 2341 O 382.188 -3.29363 6.99321 0
M  V30 2342 C 381.248 -4.24011 6.4274 0
M  V30 2343 C 381.978 -5.20775 5.52155 0
M  V30 2344 O 382.188 -4.56534 4.22446 0
M  V30 2345 C 383.378 -5.62629 5.96531 0
M  V30 2346 O 383.768 -6.87667 5.41053 0
M  V30 2347 C 384.258 -4.52537 5.39283 0
M  V30 2348 C 383.548 -4.20027 4.08623 0
M  V30 2349 N 383.598 -2.76189 3.71603 0
M  V30 2350 C 383.518 -1.64862 4.52822 0
M  V30 2351 N 383.598 -0.512671 3.88633 0
M  V30 2352 C 383.738 -0.888083 2.54977 0
M  V30 2353 C 383.868 -0.094668 1.38677 0
M  V30 2354 O 383.888 1.13053 1.28163 0
M  V30 2355 N 383.988 -0.890102 0.232633 0
M  V30 2356 C 383.988 -2.26958 0.21772 0
M  V30 2357 N 384.118 -2.84626 -0.97925 0
M  V30 2358 N 383.858 -3.0178 1.31033 0
M  V30 2359 C 383.738 -2.26781 2.43843 0
M  V30 2360 H 380.759 -4.797 7.24003 0
M  V30 2361 H 380.489 -3.69856 5.84513 0
M  V30 2362 H 381.356 -6.10356 5.41441 0
M  V30 2363 H 384.011 -4.79061 3.27488 0
M  V30 2364 H 384.29 -3.64906 6.05785 0
M  V30 2365 H 385.282 -4.8868 5.2125 0
M  V30 2366 H 383.448 -5.66726 7.06352 0
M  V30 2367 H 383.399 -1.71169 5.60966 0
M  V30 2368 H 384.081 -0.419134 -0.644739 0
M  V30 2369 H 384.118 -3.87332 -1.06098 0
M  V30 2370 H 384.219 -2.26417 -1.82483 0
M  V30 2371 P 385.318 -7.20834 5.23717 0
M  V30 2372 O 385.538 -8.66104 5.38572 0
M  V30 2373 O 386.108 -6.33544 6.1349 0
M  V30 2374 O 385.568 -6.7751 3.72168 0
M  V30 2375 C 384.628 -7.20825 2.7076 0
M  V30 2376 C 385.358 -7.45864 1.40599 0
M  V30 2377 O 385.568 -6.17651 0.734225 0
M  V30 2378 C 386.758 -8.05808 1.51899 0
M  V30 2379 O 387.148 -8.74358 0.335205 0
M  V30 2380 C 387.638 -6.83093 1.70294 0
M  V30 2381 C 386.928 -5.79992 0.836974 0
M  V30 2382 N 386.978 -4.41864 1.38293 0
M  V30 2383 C 386.898 -3.99538 2.69438 0
M  V30 2384 N 386.978 -2.69909 2.84277 0
M  V30 2385 C 387.118 -2.21719 1.5408 0
M  V30 2386 C 387.248 -0.891712 1.06628 0
M  V30 2387 O 387.268 0.161298 1.70137 0
M  V30 2388 N 387.368 -0.856846 -0.334985 0
M  V30 2389 C 387.368 -1.9641 -1.15789 0
M  V30 2390 N 387.498 -1.72708 -2.46522 0
M  V30 2391 N 387.238 -3.21165 -0.713741 0
M  V30 2392 C 387.118 -3.26797 0.639748 0
M  V30 2393 H 384.139 -8.13644 3.0377 0
M  V30 2394 H 383.869 -6.42788 2.55485 0
M  V30 2395 H 384.736 -8.12039 0.792769 0
M  V30 2396 H 387.391 -5.80061 -0.166416 0
M  V30 2397 H 387.67 -6.51287 2.75604 0
M  V30 2398 H 388.662 -7.01734 1.34462 0
M  V30 2399 H 386.828 -8.73674 2.38337 0
M  V30 2400 H 386.779 -4.68207 3.53221 0
M  V30 2401 H 387.461 0.0398818 -0.767965 0
M  V30 2402 H 387.498 -2.50995 -3.13503 0
M  V30 2403 H 387.599 -0.759148 -2.80716 0
M  V30 2404 P 388.698 -8.91 -1.96915e-12 0
M  V30 2405 O 388.918 -10.1726 -0.733694 0
M  V30 2406 O 389.488 -8.73148 1.23936 0
M  V30 2407 O 388.948 -7.66872 -0.971405 0
M  V30 2408 C 388.008 -7.42309 -2.04641 0
M  V30 2409 C 388.738 -6.86059 -3.24661 0
M  V30 2410 O 388.948 -5.42847 -3.03646 0
M  V30 2411 C 390.138 -7.41196 -3.50753 0
M  V30 2412 O 390.528 -7.27073 -4.86816 0
M  V30 2413 C 391.018 -6.5273 -2.63741 0
M  V30 2414 C 390.308 -5.1842 -2.73198 0
M  V30 2415 N 390.358 -4.38762 -1.4784 0
M  V30 2416 C 390.278 -4.81605 -0.168631 0
M  V30 2417 N 390.358 -3.85454 0.713363 0
M  V30 2418 C 390.498 -2.6994 -0.0566958 0
M  V30 2419 C 390.628 -1.34815 0.338502 0
M  V30 2420 N 390.748 -0.496304 -0.77465 0
M  V30 2421 C 390.748 -0.908403 -2.09122 0
M  V30 2422 N 390.878 0.0517805 -3.00955 0
M  V30 2423 N 390.618 -2.17875 -2.46519 0
M  V30 2424 C 390.498 -3.01988 -1.4033 0
M  V30 2425 H 387.519 -8.36803 -2.32493 0
M  V30 2426 H 387.249 -6.70197 -1.71129 0
M  V30 2427 H 388.116 -7.03551 -4.13168 0
M  V30 2428 P 392.078 -7.20834 -5.23717 0
M  V30 2429 O 392.298 -7.79853 -6.57286 0
M  V30 2430 O 392.868 -7.79239 -4.12957 0
M  V30 2431 O 392.328 -5.63315 -5.29344 0
M  V30 2432 C 391.388 -4.80255 -6.01876 0
M  V30 2433 C 392.118 -3.64202 -6.65911 0
M  V30 2434 O 392.328 -2.60694 -5.64732 0
M  V30 2435 C 393.518 -3.93473 -7.1943 0
M  V30 2436 O 393.908 -3.02071 -8.21205 0
M  V30 2437 C 394.398 -3.73047 -5.97036 0
M  V30 2438 C 393.688 -2.58828 -5.25741 0
M  V30 2439 N 393.738 -2.68068 -3.77503 0
M  V30 2440 H 390.899 -5.40332 -6.79951 0
M  V30 2441 H 390.629 -4.41613 -5.32378 0
M  V30 2442 H 391.496 -3.26331 -7.47797 0
M  V30 2443 P 395.458 -2.75334 -8.47391 0
M  V30 2444 O 395.678 -2.44571 -9.90142 0
M  V30 2445 O 396.248 -3.87688 -7.92115 0
M  V30 2446 O 395.708 -1.4459 -7.59357 0
M  V30 2447 C 394.768 -0.347608 -7.69215 0
M  V30 2448 C 395.498 0.96767 -7.52806 0
M  V30 2449 O 395.708 1.21036 -6.1011 0
M  V30 2450 C 396.898 1.04544 -8.13308 0
M  V30 2451 O 397.288 2.38311 -8.41922 0
M  V30 2452 C 397.778 0.491279 -7.02284 0
M  V30 2453 C 397.068 0.996264 -5.77469 0
M  V30 2454 N 397.118 0.0501916 -4.62973 0
M  V30 2455 C 397.038 -1.32786 -4.63244 0
M  V30 2456 N 397.118 -1.86957 -3.44545 0
M  V30 2457 C 397.258 -0.780241 -2.58481 0
M  V30 2458 C 397.388 -0.738536 -1.17757 0
M  V30 2459 O 397.408 -1.66794 -0.372349 0
M  V30 2460 N 397.508 0.58337 -0.711393 0
M  V30 2461 C 397.508 1.70816 -1.51017 0
M  V30 2462 N 397.638 2.87826 -0.880757 0
M  V30 2463 N 397.378 1.67126 -2.8339 0
M  V30 2464 C 397.258 0.401421 -3.30572 0
M  V30 2465 H 394.279 -0.374722 -8.67691 0
M  V30 2466 H 394.009 -0.443485 -6.90277 0
M  V30 2467 H 394.876 1.75537 -7.96793 0
M  V30 2468 H 397.531 1.95076 -5.46529 0
M  V30 2469 H 397.81 -0.608565 -7.04577 0
M  V30 2470 H 398.802 0.889672 -7.08939 0
M  V30 2471 H 396.968 0.43308 -9.04564 0
M  V30 2472 H 396.919 -1.91249 -5.54442 0
M  V30 2473 H 397.601 0.718054 0.275244 0
M  V30 2474 H 397.638 3.75721 -1.41832 0
M  V30 2475 H 397.739 2.90436 0.145468 0
M  V30 2476 P 398.838 2.75334 -8.47391 0
M  V30 2477 O 399.058 3.84128 -9.44797 0
M  V30 2478 O 399.628 1.51947 -8.68712 0
M  V30 2479 O 399.088 3.29363 -6.99321 0
M  V30 2480 C 398.148 4.24011 -6.4274 0
M  V30 2481 C 398.878 5.20775 -5.52155 0
M  V30 2482 O 399.088 4.56534 -4.22446 0
M  V30 2483 C 400.278 5.62629 -5.96531 0
M  V30 2484 O 400.668 6.87667 -5.41053 0
M  V30 2485 C 401.158 4.52537 -5.39283 0
M  V30 2486 C 400.448 4.20027 -4.08623 0
M  V30 2487 N 400.498 2.76189 -3.71603 0
M  V30 2488 C 400.418 1.64862 -4.52822 0
M  V30 2489 N 400.498 0.512671 -3.88633 0
M  V30 2490 C 400.638 0.888083 -2.54977 0
M  V30 2491 C 400.768 0.094668 -1.38677 0
M  V30 2492 O 400.788 -1.13053 -1.28163 0
M  V30 2493 N 400.888 0.890102 -0.232633 0
M  V30 2494 C 400.888 2.26958 -0.21772 0
M  V30 2495 N 401.018 2.84626 0.97925 0
M  V30 2496 N 400.758 3.0178 -1.31033 0
M  V30 2497 C 400.638 2.26781 -2.43843 0
M  V30 2498 H 397.659 4.797 -7.24003 0
M  V30 2499 H 397.389 3.69856 -5.84513 0
M  V30 2500 H 398.256 6.10356 -5.41441 0
M  V30 2501 H 400.911 4.79061 -3.27488 0
M  V30 2502 H 401.19 3.64906 -6.05785 0
M  V30 2503 H 402.182 4.8868 -5.2125 0
M  V30 2504 H 400.348 5.66726 -7.06352 0
M  V30 2505 H 400.299 1.71169 -5.60966 0
M  V30 2506 H 400.981 0.419134 0.644739 0
M  V30 2507 H 401.018 3.87332 1.06098 0
M  V30 2508 H 401.119 2.26417 1.82483 0
M  V30 2509 P 402.218 7.20834 -5.23717 0
M  V30 2510 O 402.438 8.66104 -5.38572 0
M  V30 2511 O 403.008 6.33544 -6.1349 0
M  V30 2512 O 402.468 6.7751 -3.72168 0
M  V30 2513 C 401.528 7.20825 -2.7076 0
M  V30 2514 C 402.258 7.45864 -1.40599 0
M  V30 2515 O 402.468 6.17651 -0.734225 0
M  V30 2516 C 403.658 8.05808 -1.51899 0
M  V30 2517 O 404.048 8.74358 -0.335205 0
M  V30 2518 C 404.538 6.83093 -1.70294 0
M  V30 2519 C 403.828 5.79992 -0.836974 0
M  V30 2520 N 403.878 4.41864 -1.38293 0
M  V30 2521 C 403.798 3.99538 -2.69438 0
M  V30 2522 N 403.878 2.69909 -2.84277 0
M  V30 2523 C 404.018 2.21719 -1.5408 0
M  V30 2524 C 404.148 0.891712 -1.06628 0
M  V30 2525 O 404.168 -0.161298 -1.70137 0
M  V30 2526 N 404.268 0.856846 0.334985 0
M  V30 2527 C 404.268 1.9641 1.15789 0
M  V30 2528 N 404.398 1.72708 2.46522 0
M  V30 2529 N 404.138 3.21165 0.713741 0
M  V30 2530 C 404.018 3.26797 -0.639748 0
M  V30 2531 H 401.039 8.13644 -3.0377 0
M  V30 2532 H 400.769 6.42788 -2.55485 0
M  V30 2533 H 401.636 8.12039 -0.792769 0
M  V30 2534 H 404.291 5.80061 0.166416 0
M  V30 2535 H 404.57 6.51287 -2.75604 0
M  V30 2536 H 405.562 7.01734 -1.34462 0
M  V30 2537 H 403.728 8.73674 -2.38337 0
M  V30 2538 H 403.679 4.68207 -3.53221 0
M  V30 2539 H 404.361 -0.0398818 0.767965 0
M  V30 2540 H 404.398 2.50995 3.13503 0
M  V30 2541 H 404.499 0.759148 2.80716 0
M  V30 2542 P 405.598 8.91 2.12633e-12 0
M  V30 2543 O 405.818 10.1746 0.733838 0
M  V30 2544 O 406.388 8.73346 -1.23964 0
M  V30 2545 O 405.848 7.66872 0.971405 0
M  V30 2546 C 404.908 7.42405 2.04668 0
M  V30 2547 C 405.638 6.86059 3.24661 0
M  V30 2548 O 405.848 5.42934 3.03695 0
M  V30 2549 C 407.038 7.41287 3.50796 0
M  V30 2550 O 407.428 7.27073 4.86816 0
M  V30 2551 C 407.918 6.5273 2.63741 0
M  V30 2552 C 407.208 5.1842 2.73198 0
M  V30 2553 N 407.258 4.38762 1.4784 0
M  V30 2554 C 407.178 4.83651 0.183876 0
M  V30 2555 N 407.248 3.88759 -0.699393 0
M  V30 2556 C 407.398 2.7404 0.0575568 0
M  V30 2557 C 407.528 1.37902 -0.293928 0
M  V30 2558 N 407.538 0.938021 -1.54797 0
M  V30 2559 N 407.648 0.491817 0.70549 0
M  V30 2560 C 407.638 0.931735 1.95979 0
M  V30 2561 N 407.518 2.16017 2.41481 0
M  V30 2562 C 407.398 3.02547 1.39121 0
M  V30 2563 H 404.42 8.36899 2.3252 0
M  V30 2564 H 404.148 6.70391 1.71179 0
M  V30 2565 H 405.016 7.03638 4.13219 0
M  V30 2566 H 407.671 4.59931 3.54016 0
M  V30 2567 H 407.951 6.88995 1.59871 0
M  V30 2568 H 408.942 6.4684 3.0373 0
M  V30 2569 H 407.108 8.47002 3.20749 0
M  V30 2570 H 407.067 5.8885 -0.0765548 0
M  V30 2571 H 407.448 1.60276 -2.32875 0
M  V30 2572 H 407.637 -0.0699355 -1.73859 0
M  V30 2573 H 407.745 0.165507 2.71897 0
M  V30 2574 P 408.978 7.20834 5.23717 0
M  V30 2575 O 409.198 7.79853 6.57286 0
M  V30 2576 O 409.768 7.79239 4.12957 0
M  V30 2577 O 409.228 5.63315 5.29344 0
M  V30 2578 C 408.288 4.80255 6.01876 0
M  V30 2579 C 409.018 3.64202 6.65911 0
M  V30 2580 O 409.228 2.60694 5.64732 0
M  V30 2581 C 410.418 3.93473 7.1943 0
M  V30 2582 O 410.808 3.02071 8.21205 0
M  V30 2583 C 411.298 3.73047 5.97036 0
M  V30 2584 C 410.588 2.58828 5.25741 0
M  V30 2585 N 410.638 2.68068 3.77503 0
M  V30 2586 H 407.799 5.40332 6.79951 0
M  V30 2587 H 407.529 4.41613 5.32378 0
M  V30 2588 H 408.396 3.26331 7.47797 0
M  V30 2589 P 412.358 2.75334 8.47391 0
M  V30 2590 O 412.578 2.44619 9.90336 0
M  V30 2591 O 413.148 3.87776 7.92294 0
M  V30 2592 O 412.608 1.4459 7.59357 0
M  V30 2593 C 411.668 0.347653 7.69315 0
M  V30 2594 C 412.398 -0.96767 7.52806 0
M  V30 2595 O 412.608 -1.21055 6.10208 0
M  V30 2596 C 413.798 -1.04557 8.13408 0
M  V30 2597 O 414.188 -2.38311 8.41922 0
M  V30 2598 C 414.678 -0.491279 7.02284 0
M  V30 2599 C 413.968 -0.996264 5.77469 0
M  V30 2600 N 414.018 -0.0501916 4.62973 0
M  V30 2601 C 413.938 1.31969 4.65661 0
M  V30 2602 N 414.008 1.86649 3.48119 0
M  V30 2603 C 414.158 0.792089 2.62406 0
M  V30 2604 C 414.288 0.705684 1.2207 0
M  V30 2605 N 414.298 1.76207 0.413762 0
M  V30 2606 N 414.408 -0.518981 0.685754 0
M  V30 2607 C 414.398 -1.57595 1.49174 0
M  V30 2608 N 414.278 -1.62909 2.80066 0
M  V30 2609 C 414.158 -0.388195 3.3073 0
M  V30 2610 H 411.18 0.374765 8.67791 0
M  V30 2611 H 410.908 0.443613 6.90476 0
M  V30 2612 H 411.776 -1.75559 7.96891 0
M  V30 2613 H 414.431 -1.94563 5.46818 0
M  V30 2614 H 414.711 0.608651 7.04676 0
M  V30 2615 H 415.702 -0.889796 7.09039 0
M  V30 2616 H 413.868 -0.433128 9.04664 0
M  V30 2617 H 413.827 1.89246 5.57664 0
M  V30 2618 H 414.208 2.71005 0.804694 0
M  V30 2619 H 414.397 1.63189 -0.603768 0
M  V30 2620 H 414.505 -2.53475 0.997614 0
M  V30 2621 P 415.738 -2.75334 8.47391 0
M  V30 2622 O 415.958 -3.84128 9.44797 0
M  V30 2623 O 416.528 -1.51947 8.68712 0
M  V30 2624 O 415.988 -3.29363 6.99321 0
M  V30 2625 C 415.048 -4.24011 6.4274 0
M  V30 2626 C 415.778 -5.20775 5.52155 0
M  V30 2627 O 415.988 -4.56534 4.22446 0
M  V30 2628 C 417.178 -5.62629 5.96531 0
M  V30 2629 O 417.568 -6.87667 5.41053 0
M  V30 2630 C 418.058 -4.52537 5.39283 0
M  V30 2631 C 417.348 -4.20027 4.08623 0
M  V30 2632 N 417.398 -2.76189 3.71603 0
M  V30 2633 C 417.318 -1.64862 4.52822 0
M  V30 2634 N 417.398 -0.512671 3.88633 0
M  V30 2635 C 417.538 -0.888083 2.54977 0
M  V30 2636 C 417.668 -0.094668 1.38677 0
M  V30 2637 O 417.688 1.13053 1.28163 0
M  V30 2638 N 417.788 -0.890102 0.232633 0
M  V30 2639 C 417.788 -2.26958 0.21772 0
M  V30 2640 N 417.918 -2.84626 -0.97925 0
M  V30 2641 N 417.658 -3.0178 1.31033 0
M  V30 2642 C 417.538 -2.26781 2.43843 0
M  V30 2643 H 414.559 -4.797 7.24003 0
M  V30 2644 H 414.289 -3.69856 5.84513 0
M  V30 2645 H 415.156 -6.10356 5.41441 0
M  V30 2646 H 417.811 -4.79061 3.27488 0
M  V30 2647 H 418.09 -3.64906 6.05785 0
M  V30 2648 H 419.082 -4.8868 5.2125 0
M  V30 2649 H 417.248 -5.66726 7.06352 0
M  V30 2650 H 417.199 -1.71169 5.60966 0
M  V30 2651 H 417.881 -0.419134 -0.644739 0
M  V30 2652 H 417.918 -3.87332 -1.06098 0
M  V30 2653 H 418.019 -2.26417 -1.82483 0
M  V30 2654 P 419.118 -7.20834 5.23717 0
M  V30 2655 O 419.338 -8.66104 5.38572 0
M  V30 2656 O 419.908 -6.33544 6.1349 0
M  V30 2657 O 419.368 -6.7751 3.72168 0
M  V30 2658 C 418.428 -7.20825 2.7076 0
M  V30 2659 C 419.158 -7.45864 1.40599 0
M  V30 2660 O 419.368 -6.17651 0.734225 0
M  V30 2661 C 420.558 -8.05808 1.51899 0
M  V30 2662 O 420.948 -8.74358 0.335205 0
M  V30 2663 C 421.438 -6.83093 1.70294 0
M  V30 2664 C 420.728 -5.79992 0.836974 0
M  V30 2665 N 420.778 -4.41864 1.38293 0
M  V30 2666 C 420.698 -3.99538 2.69438 0
M  V30 2667 N 420.778 -2.69909 2.84277 0
M  V30 2668 C 420.918 -2.21719 1.5408 0
M  V30 2669 C 421.048 -0.891712 1.06628 0
M  V30 2670 O 421.068 0.161298 1.70137 0
M  V30 2671 N 421.168 -0.856846 -0.334985 0
M  V30 2672 C 421.168 -1.9641 -1.15789 0
M  V30 2673 N 421.298 -1.72708 -2.46522 0
M  V30 2674 N 421.038 -3.21165 -0.713741 0
M  V30 2675 C 420.918 -3.26797 0.639748 0
M  V30 2676 H 417.939 -8.13644 3.0377 0
M  V30 2677 H 417.669 -6.42788 2.55485 0
M  V30 2678 H 418.536 -8.12039 0.792769 0
M  V30 2679 H 421.191 -5.80061 -0.166416 0
M  V30 2680 H 421.47 -6.51287 2.75604 0
M  V30 2681 H 422.462 -7.01734 1.34462 0
M  V30 2682 H 420.628 -8.73674 2.38337 0
M  V30 2683 H 420.579 -4.68207 3.53221 0
M  V30 2684 H 421.261 0.0398818 -0.767965 0
M  V30 2685 H 421.298 -2.50995 -3.13503 0
M  V30 2686 H 421.399 -0.759148 -2.80716 0
M  V30 2687 P 422.497 -8.91 -2.28351e-12 0
M  V30 2688 O 422.717 -10.1726 -0.733694 0
M  V30 2689 O 423.287 -8.73148 1.23936 0
M  V30 2690 O 422.747 -7.66872 -0.971405 0
M  V30 2691 C 421.807 -7.42309 -2.04641 0
M  V30 2692 C 422.537 -6.86059 -3.24661 0
M  V30 2693 O 422.747 -5.42847 -3.03646 0
M  V30 2694 C 423.937 -7.41196 -3.50753 0
M  V30 2695 O 424.327 -7.27073 -4.86816 0
M  V30 2696 C 424.817 -6.5273 -2.63741 0
M  V30 2697 C 424.107 -5.1842 -2.73198 0
M  V30 2698 N 424.157 -4.38762 -1.4784 0
M  V30 2699 H 421.318 -8.36803 -2.32493 0
M  V30 2700 H 421.048 -6.70197 -1.71129 0
M  V30 2701 H 421.915 -7.03551 -4.13168 0
M  V30 2702 P 425.877 -7.20834 -5.23717 0
M  V30 2703 O 426.097 -7.79853 -6.57286 0
M  V30 2704 O 426.667 -7.79239 -4.12957 0
M  V30 2705 O 426.127 -5.63315 -5.29344 0
M  V30 2706 C 425.187 -4.80255 -6.01876 0
M  V30 2707 C 425.917 -3.64202 -6.65911 0
M  V30 2708 O 426.127 -2.60694 -5.64732 0
M  V30 2709 C 427.317 -3.93473 -7.1943 0
M  V30 2710 O 427.707 -3.02071 -8.21205 0
M  V30 2711 C 428.197 -3.73047 -5.97036 0
M  V30 2712 C 427.487 -2.58828 -5.25741 0
M  V30 2713 N 427.537 -2.68068 -3.77503 0
M  V30 2714 H 424.698 -5.40332 -6.79951 0
M  V30 2715 H 424.428 -4.41613 -5.32378 0
M  V30 2716 H 425.295 -3.26331 -7.47797 0
M  V30 2717 P 429.257 -2.75334 -8.47391 0
M  V30 2718 O 429.477 -2.44571 -9.90142 0
M  V30 2719 O 430.047 -3.87688 -7.92115 0
M  V30 2720 O 429.507 -1.4459 -7.59357 0
M  V30 2721 C 428.567 -0.347608 -7.69215 0
M  V30 2722 C 429.297 0.96767 -7.52806 0
M  V30 2723 O 429.507 1.21036 -6.1011 0
M  V30 2724 C 430.697 1.04544 -8.13308 0
M  V30 2725 O 431.087 2.38311 -8.41922 0
M  V30 2726 C 431.577 0.491279 -7.02284 0
M  V30 2727 C 430.867 0.996264 -5.77469 0
M  V30 2728 N 430.917 0.0501916 -4.62973 0
M  V30 2729 C 430.837 -1.32786 -4.63244 0
M  V30 2730 N 430.917 -1.86957 -3.44545 0
M  V30 2731 C 431.057 -0.780241 -2.58481 0
M  V30 2732 C 431.187 -0.738536 -1.17757 0
M  V30 2733 O 431.207 -1.66794 -0.372349 0
M  V30 2734 N 431.307 0.58337 -0.711393 0
M  V30 2735 C 431.307 1.70816 -1.51017 0
M  V30 2736 N 431.437 2.87826 -0.880757 0
M  V30 2737 N 431.177 1.67126 -2.8339 0
M  V30 2738 C 431.057 0.401421 -3.30572 0
M  V30 2739 H 428.078 -0.374722 -8.67691 0
M  V30 2740 H 427.808 -0.443485 -6.90277 0
M  V30 2741 H 428.675 1.75537 -7.96793 0
M  V30 2742 H 431.33 1.95076 -5.46529 0
M  V30 2743 H 431.609 -0.608565 -7.04577 0
M  V30 2744 H 432.601 0.889672 -7.08939 0
M  V30 2745 H 430.767 0.43308 -9.04564 0
M  V30 2746 H 430.718 -1.91249 -5.54442 0
M  V30 2747 H 431.4 0.718054 0.275244 0
M  V30 2748 H 431.437 3.75721 -1.41832 0
M  V30 2749 H 431.538 2.90436 0.145468 0
M  V30 2750 P 432.637 2.75334 -8.47391 0
M  V30 2751 O 432.857 3.84128 -9.44797 0
M  V30 2752 O 433.427 1.51947 -8.68712 0
M  V30 2753 O 432.887 3.29363 -6.99321 0
M  V30 2754 C 431.947 4.24011 -6.4274 0
M  V30 2755 C 432.677 5.20775 -5.52155 0
M  V30 2756 O 432.887 4.56534 -4.22446 0
M  V30 2757 C 434.077 5.62629 -5.96531 0
M  V30 2758 O 434.467 6.87667 -5.41053 0
M  V30 2759 C 434.957 4.52537 -5.39283 0
M  V30 2760 C 434.247 4.20027 -4.08623 0
M  V30 2761 N 434.297 2.76189 -3.71603 0
M  V30 2762 C 434.217 1.64862 -4.52822 0
M  V30 2763 N 434.297 0.512671 -3.88633 0
M  V30 2764 C 434.437 0.888083 -2.54977 0
M  V30 2765 C 434.567 0.094668 -1.38677 0
M  V30 2766 O 434.587 -1.13053 -1.28163 0
M  V30 2767 N 434.687 0.890102 -0.232633 0
M  V30 2768 C 434.687 2.26958 -0.21772 0
M  V30 2769 N 434.817 2.84626 0.97925 0
M  V30 2770 N 434.557 3.0178 -1.31033 0
M  V30 2771 C 434.437 2.26781 -2.43843 0
M  V30 2772 H 431.458 4.797 -7.24003 0
M  V30 2773 H 431.188 3.69856 -5.84513 0
M  V30 2774 H 432.055 6.10356 -5.41441 0
M  V30 2775 H 434.71 4.79061 -3.27488 0
M  V30 2776 H 434.989 3.64906 -6.05785 0
M  V30 2777 H 435.981 4.8868 -5.2125 0
M  V30 2778 H 434.147 5.66726 -7.06352 0
M  V30 2779 H 434.098 1.71169 -5.60966 0
M  V30 2780 H 434.78 0.419134 0.644739 0
M  V30 2781 H 434.817 3.87332 1.06098 0
M  V30 2782 H 434.918 2.26417 1.82483 0
M  V30 2783 P 436.017 7.20834 -5.23717 0
M  V30 2784 O 436.237 8.66104 -5.38572 0
M  V30 2785 O 436.807 6.33544 -6.1349 0
M  V30 2786 O 436.267 6.7751 -3.72168 0
M  V30 2787 C 435.327 7.20825 -2.7076 0
M  V30 2788 C 436.057 7.45864 -1.40599 0
M  V30 2789 O 436.267 6.17651 -0.734225 0
M  V30 2790 C 437.457 8.05808 -1.51899 0
M  V30 2791 O 437.847 8.74358 -0.335205 0
M  V30 2792 C 438.337 6.83093 -1.70294 0
M  V30 2793 C 437.627 5.79992 -0.836974 0
M  V30 2794 N 437.677 4.41864 -1.38293 0
M  V30 2795 C 437.597 3.99538 -2.69438 0
M  V30 2796 N 437.677 2.69909 -2.84277 0
M  V30 2797 C 437.817 2.21719 -1.5408 0
M  V30 2798 C 437.947 0.891712 -1.06628 0
M  V30 2799 O 437.967 -0.161298 -1.70137 0
M  V30 2800 N 438.067 0.856846 0.334985 0
M  V30 2801 C 438.067 1.9641 1.15789 0
M  V30 2802 N 438.197 1.72708 2.46522 0
M  V30 2803 N 437.937 3.21165 0.713741 0
M  V30 2804 C 437.817 3.26797 -0.639748 0
M  V30 2805 H 434.838 8.13644 -3.0377 0
M  V30 2806 H 434.568 6.42788 -2.55485 0
M  V30 2807 H 435.435 8.12039 -0.792769 0
M  V30 2808 H 438.09 5.80061 0.166416 0
M  V30 2809 H 438.369 6.51287 -2.75604 0
M  V30 2810 H 439.361 7.01734 -1.34462 0
M  V30 2811 H 437.527 8.73674 -2.38337 0
M  V30 2812 H 437.478 4.68207 -3.53221 0
M  V30 2813 H 438.16 -0.0398818 0.767965 0
M  V30 2814 H 438.197 2.50995 3.13503 0
M  V30 2815 H 438.298 0.759148 2.80716 0
M  V30 2816 P 439.397 8.91 2.44069e-12 0
M  V30 2817 O 439.617 10.1726 0.733694 0
M  V30 2818 O 440.187 8.73148 -1.23936 0
M  V30 2819 O 439.647 7.66872 0.971405 0
M  V30 2820 C 438.707 7.42309 2.04641 0
M  V30 2821 C 439.437 6.86059 3.24661 0
M  V30 2822 O 439.647 5.42847 3.03646 0
M  V30 2823 C 440.837 7.41196 3.50753 0
M  V30 2824 O 441.227 7.27073 4.86816 0
M  V30 2825 C 441.717 6.5273 2.63741 0
M  V30 2826 C 441.007 5.1842 2.73198 0
M  V30 2827 N 441.057 4.38762 1.4784 0
M  V30 2828 H 438.218 8.36803 2.32493 0
M  V30 2829 H 437.948 6.70197 1.71129 0
M  V30 2830 H 438.815 7.03551 4.13168 0
M  V30 2831 P 442.777 7.20834 5.23717 0
M  V30 2832 O 442.997 7.79853 6.57286 0
M  V30 2833 O 443.567 7.79239 4.12957 0
M  V30 2834 O 443.027 5.63315 5.29344 0
M  V30 2835 C 442.087 4.80255 6.01876 0
M  V30 2836 C 442.817 3.64202 6.65911 0
M  V30 2837 O 443.027 2.60694 5.64732 0
M  V30 2838 C 444.217 3.93473 7.1943 0
M  V30 2839 O 444.607 3.02071 8.21205 0
M  V30 2840 C 445.097 3.73047 5.97036 0
M  V30 2841 C 444.387 2.58828 5.25741 0
M  V30 2842 N 444.437 2.68068 3.77503 0
M  V30 2843 H 441.598 5.40332 6.79951 0
M  V30 2844 H 441.328 4.41613 5.32378 0
M  V30 2845 H 442.195 3.26331 7.47797 0
M  V30 2846 P 446.157 2.75334 8.47391 0
M  V30 2847 O 446.377 2.44571 9.90142 0
M  V30 2848 O 446.947 3.87688 7.92115 0
M  V30 2849 O 446.407 1.4459 7.59357 0
M  V30 2850 C 445.467 0.347608 7.69215 0
M  V30 2851 C 446.197 -0.96767 7.52806 0
M  V30 2852 O 446.407 -1.21036 6.1011 0
M  V30 2853 C 447.597 -1.04544 8.13308 0
M  V30 2854 O 447.987 -2.38311 8.41922 0
M  V30 2855 C 448.477 -0.491279 7.02284 0
M  V30 2856 C 447.767 -0.996264 5.77469 0
M  V30 2857 N 447.817 -0.0501916 4.62973 0
M  V30 2858 H 444.978 0.374722 8.67691 0
M  V30 2859 H 444.708 0.443485 6.90277 0
M  V30 2860 H 445.575 -1.75537 7.96793 0
M  V30 2861 P 449.537 -2.75334 8.47391 0
M  V30 2862 O 449.757 -3.84128 9.44797 0
M  V30 2863 O 450.327 -1.51947 8.68712 0
M  V30 2864 O 449.787 -3.29363 6.99321 0
M  V30 2865 C 448.847 -4.24011 6.4274 0
M  V30 2866 C 449.577 -5.20775 5.52155 0
M  V30 2867 O 449.787 -4.56534 4.22446 0
M  V30 2868 C 450.977 -5.62629 5.96531 0
M  V30 2869 O 451.367 -6.87667 5.41053 0
M  V30 2870 C 451.857 -4.52537 5.39283 0
M  V30 2871 C 451.147 -4.20027 4.08623 0
M  V30 2872 N 451.197 -2.76189 3.71603 0
M  V30 2873 C 451.117 -1.64862 4.52822 0
M  V30 2874 N 451.197 -0.512671 3.88633 0
M  V30 2875 C 451.337 -0.888083 2.54977 0
M  V30 2876 C 451.467 -0.094668 1.38677 0
M  V30 2877 O 451.487 1.13053 1.28163 0
M  V30 2878 N 451.587 -0.890102 0.232633 0
M  V30 2879 C 451.587 -2.26958 0.21772 0
M  V30 2880 N 451.717 -2.84626 -0.97925 0
M  V30 2881 N 451.457 -3.0178 1.31033 0
M  V30 2882 C 451.337 -2.26781 2.43843 0
M  V30 2883 H 448.358 -4.797 7.24003 0
M  V30 2884 H 448.088 -3.69856 5.84513 0
M  V30 2885 H 448.955 -6.10356 5.41441 0
M  V30 2886 H 451.61 -4.79061 3.27488 0
M  V30 2887 H 451.889 -3.64906 6.05785 0
M  V30 2888 H 452.881 -4.8868 5.2125 0
M  V30 2889 H 451.047 -5.66726 7.06352 0
M  V30 2890 H 450.998 -1.71169 5.60966 0
M  V30 2891 H 451.68 -0.419134 -0.644739 0
M  V30 2892 H 451.717 -3.87332 -1.06098 0
M  V30 2893 H 451.818 -2.26417 -1.82483 0
M  V30 2894 P 452.917 -7.20834 5.23717 0
M  V30 2895 O 453.137 -8.66104 5.38572 0
M  V30 2896 O 453.707 -6.33544 6.1349 0
M  V30 2897 O 453.167 -6.7751 3.72168 0
M  V30 2898 C 452.227 -7.20825 2.7076 0
M  V30 2899 C 452.957 -7.45864 1.40599 0
M  V30 2900 O 453.167 -6.17651 0.734225 0
M  V30 2901 C 454.357 -8.05808 1.51899 0
M  V30 2902 O 454.747 -8.74358 0.335205 0
M  V30 2903 C 455.237 -6.83093 1.70294 0
M  V30 2904 C 454.527 -5.79992 0.836974 0
M  V30 2905 N 454.577 -4.41864 1.38293 0
M  V30 2906 C 454.497 -3.99538 2.69438 0
M  V30 2907 N 454.577 -2.69909 2.84277 0
M  V30 2908 C 454.717 -2.21719 1.5408 0
M  V30 2909 C 454.847 -0.891712 1.06628 0
M  V30 2910 O 454.867 0.161298 1.70137 0
M  V30 2911 N 454.967 -0.856846 -0.334985 0
M  V30 2912 C 454.967 -1.9641 -1.15789 0
M  V30 2913 N 455.097 -1.72708 -2.46522 0
M  V30 2914 N 454.837 -3.21165 -0.713741 0
M  V30 2915 C 454.717 -3.26797 0.639748 0
M  V30 2916 H 451.738 -8.13644 3.0377 0
M  V30 2917 H 451.468 -6.42788 2.55485 0
M  V30 2918 H 452.335 -8.12039 0.792769 0
M  V30 2919 H 454.99 -5.80061 -0.166416 0
M  V30 2920 H 455.269 -6.51287 2.75604 0
M  V30 2921 H 456.261 -7.01734 1.34462 0
M  V30 2922 H 454.427 -8.73674 2.38337 0
M  V30 2923 H 454.378 -4.68207 3.53221 0
M  V30 2924 H 455.06 0.0398818 -0.767965 0
M  V30 2925 H 455.097 -2.50995 -3.13503 0
M  V30 2926 H 455.198 -0.759148 -2.80716 0
M  V30 2927 P 456.297 -8.91 -2.59788e-12 0
M  V30 2928 O 456.517 -10.1746 -0.733838 0
M  V30 2929 O 457.087 -8.73346 1.23964 0
M  V30 2930 O 456.547 -7.66872 -0.971405 0
M  V30 2931 C 455.607 -7.42405 -2.04668 0
M  V30 2932 C 456.337 -6.86059 -3.24661 0
M  V30 2933 O 456.547 -5.42934 -3.03695 0
M  V30 2934 C 457.737 -7.41287 -3.50796 0
M  V30 2935 O 458.127 -7.27073 -4.86816 0
M  V30 2936 C 458.617 -6.5273 -2.63741 0
M  V30 2937 C 457.907 -5.1842 -2.73198 0
M  V30 2938 N 457.957 -4.38762 -1.4784 0
M  V30 2939 H 455.119 -8.36899 -2.3252 0
M  V30 2940 H 454.847 -6.70391 -1.71179 0
M  V30 2941 H 455.715 -7.03638 -4.13219 0
M  V30 2942 H 458.37 -4.59931 -3.54016 0
M  V30 2943 H 458.65 -6.88995 -1.59871 0
M  V30 2944 H 459.641 -6.4684 -3.0373 0
M  V30 2945 H 457.807 -8.47002 -3.20749 0
M  V30 2946 P 459.677 -7.20834 -5.23717 0
M  V30 2947 O 459.897 -7.79853 -6.57286 0
M  V30 2948 O 460.467 -7.79239 -4.12957 0
M  V30 2949 O 459.927 -5.63315 -5.29344 0
M  V30 2950 C 458.987 -4.80255 -6.01876 0
M  V30 2951 C 459.717 -3.64202 -6.65911 0
M  V30 2952 O 459.927 -2.60694 -5.64732 0
M  V30 2953 C 461.117 -3.93473 -7.1943 0
M  V30 2954 O 461.507 -3.02071 -8.21205 0
M  V30 2955 C 461.997 -3.73047 -5.97036 0
M  V30 2956 C 461.287 -2.58828 -5.25741 0
M  V30 2957 N 461.337 -2.68068 -3.77503 0
M  V30 2958 C 461.257 -3.79715 -2.96723 0
M  V30 2959 N 461.337 -3.5377 -1.68852 0
M  V30 2960 C 461.477 -2.15054 -1.63254 0
M  V30 2961 C 461.607 -1.28964 -0.518571 0
M  V30 2962 O 461.627 -1.56826 0.679156 0
M  V30 2963 N 461.727 0.0538097 -0.918425 0
M  V30 2964 C 461.727 0.494275 -2.22578 0
M  V30 2965 N 461.857 1.81086 -2.40434 0
M  V30 2966 N 461.597 -0.313645 -3.27502 0
M  V30 2967 C 461.477 -1.61829 -2.91033 0
M  V30 2968 H 458.498 -5.40332 -6.79951 0
M  V30 2969 H 458.228 -4.41613 -5.32378 0
M  V30 2970 H 459.095 -3.26331 -7.47797 0
M  V30 2971 H 461.75 -1.63422 -5.56814 0
M  V30 2972 H 462.029 -4.63374 -5.34244 0
M  V30 2973 H 463.021 -3.44728 -6.25838 0
M  V30 2974 H 461.187 -4.96652 -7.57263 0
M  V30 2975 H 461.138 -4.80617 -3.3614 0
M  V30 2976 H 461.82 0.742702 -0.199384 0
M  V30 2977 H 461.857 2.20598 -3.35588 0
M  V30 2978 H 461.958 2.43518 -1.58945 0
M  V30 2979 P 463.057 -2.75334 -8.47391 0
M  V30 2980 O 463.277 -2.44571 -9.90142 0
M  V30 2981 O 463.847 -3.87688 -7.92115 0
M  V30 2982 O 463.307 -1.4459 -7.59357 0
M  V30 2983 C 462.367 -0.347608 -7.69215 0
M  V30 2984 C 463.097 0.96767 -7.52806 0
M  V30 2985 O 463.307 1.21036 -6.1011 0
M  V30 2986 C 464.497 1.04544 -8.13308 0
M  V30 2987 O 464.887 2.38311 -8.41922 0
M  V30 2988 C 465.377 0.491279 -7.02284 0
M  V30 2989 C 464.667 0.996264 -5.77469 0
M  V30 2990 N 464.717 0.0501916 -4.62973 0
M  V30 2991 H 461.878 -0.374722 -8.67691 0
M  V30 2992 H 461.608 -0.443485 -6.90277 0
M  V30 2993 H 462.475 1.75537 -7.96793 0
M  V30 2994 P 466.437 2.75334 -8.47391 0
M  V30 2995 O 466.657 3.84128 -9.44797 0
M  V30 2996 O 467.227 1.51947 -8.68712 0
M  V30 2997 O 466.687 3.29363 -6.99321 0
M  V30 2998 C 465.747 4.24011 -6.4274 0
M  V30 2999 C 466.477 5.20775 -5.52155 0
M  V30 3000 O 466.687 4.56534 -4.22446 0
M  V30 3001 C 467.877 5.62629 -5.96531 0
M  V30 3002 O 468.267 6.87667 -5.41053 0
M  V30 3003 C 468.757 4.52537 -5.39283 0
M  V30 3004 C 468.047 4.20027 -4.08623 0
M  V30 3005 N 468.097 2.76189 -3.71603 0
M  V30 3006 H 465.258 4.797 -7.24003 0
M  V30 3007 H 464.988 3.69856 -5.84513 0
M  V30 3008 H 465.855 6.10356 -5.41441 0
M  V30 3009 P 469.817 7.20834 -5.23717 0
M  V30 3010 O 470.037 8.66104 -5.38572 0
M  V30 3011 O 470.607 6.33544 -6.1349 0
M  V30 3012 O 470.067 6.7751 -3.72168 0
M  V30 3013 C 469.127 7.20825 -2.7076 0
M  V30 3014 C 469.857 7.45864 -1.40599 0
M  V30 3015 O 470.067 6.17651 -0.734225 0
M  V30 3016 C 471.257 8.05808 -1.51899 0
M  V30 3017 O 471.647 8.74358 -0.335205 0
M  V30 3018 C 472.137 6.83093 -1.70294 0
M  V30 3019 C 471.427 5.79992 -0.836974 0
M  V30 3020 N 471.477 4.41864 -1.38293 0
M  V30 3021 H 468.638 8.13644 -3.0377 0
M  V30 3022 H 468.368 6.42788 -2.55485 0
M  V30 3023 H 469.235 8.12039 -0.792769 0
M  V30 3024 P 473.197 8.91 2.75506e-12 0
M  V30 3025 O 473.417 10.1726 0.733694 0
M  V30 3026 O 473.987 8.73148 -1.23936 0
M  V30 3027 O 473.447 7.66872 0.971405 0
M  V30 3028 C 472.507 7.42309 2.04641 0
M  V30 3029 C 473.237 6.86059 3.24661 0
M  V30 3030 O 473.447 5.42847 3.03646 0
M  V30 3031 C 474.637 7.41196 3.50753 0
M  V30 3032 O 475.027 7.27073 4.86816 0
M  V30 3033 C 475.517 6.5273 2.63741 0
M  V30 3034 C 474.807 5.1842 2.73198 0
M  V30 3035 N 474.857 4.38762 1.4784 0
M  V30 3036 H 472.018 8.36803 2.32493 0
M  V30 3037 H 471.748 6.70197 1.71129 0
M  V30 3038 H 472.615 7.03551 4.13168 0
M  V30 3039 P 476.577 7.20834 5.23717 0
M  V30 3040 O 476.797 7.79853 6.57286 0
M  V30 3041 O 477.367 7.79239 4.12957 0
M  V30 3042 O 476.827 5.63315 5.29344 0
M  V30 3043 C 475.887 4.80255 6.01876 0
M  V30 3044 C 476.617 3.64202 6.65911 0
M  V30 3045 O 476.827 2.60694 5.64732 0
M  V30 3046 C 478.017 3.93473 7.1943 0
M  V30 3047 O 478.407 3.02071 8.21205 0
M  V30 3048 C 478.897 3.73047 5.97036 0
M  V30 3049 C 478.187 2.58828 5.25741 0
M  V30 3050 N 478.237 2.68068 3.77503 0
M  V30 3051 H 475.398 5.40332 6.79951 0
M  V30 3052 H 475.128 4.41613 5.32378 0
M  V30 3053 H 475.995 3.26331 7.47797 0
M  V30 3054 P 479.957 2.75334 8.47391 0
M  V30 3055 O 480.177 2.44571 9.90142 0
M  V30 3056 O 480.747 3.87688 7.92115 0
M  V30 3057 O 480.207 1.4459 7.59357 0
M  V30 3058 C 479.267 0.347608 7.69215 0
M  V30 3059 C 479.997 -0.96767 7.52806 0
M  V30 3060 O 480.207 -1.21036 6.1011 0
M  V30 3061 C 481.397 -1.04544 8.13308 0
M  V30 3062 O 481.787 -2.38311 8.41922 0
M  V30 3063 C 482.277 -0.491279 7.02284 0
M  V30 3064 C 481.567 -0.996264 5.77469 0
M  V30 3065 N 481.617 -0.0501916 4.62973 0
M  V30 3066 H 478.778 0.374722 8.67691 0
M  V30 3067 H 478.508 0.443485 6.90277 0
M  V30 3068 H 479.375 -1.75537 7.96793 0
M  V30 3069 P 483.337 -2.75334 8.47391 0
M  V30 3070 O 483.557 -3.84128 9.44797 0
M  V30 3071 O 484.127 -1.51947 8.68712 0
M  V30 3072 O 483.587 -3.29363 6.99321 0
M  V30 3073 C 482.647 -4.24011 6.4274 0
M  V30 3074 C 483.377 -5.20775 5.52155 0
M  V30 3075 O 483.587 -4.56534 4.22446 0
M  V30 3076 C 484.777 -5.62629 5.96531 0
M  V30 3077 O 485.167 -6.87667 5.41053 0
M  V30 3078 C 485.657 -4.52537 5.39283 0
M  V30 3079 C 484.947 -4.20027 4.08623 0
M  V30 3080 N 484.997 -2.76189 3.71603 0
M  V30 3081 C 484.917 -1.64862 4.52822 0
M  V30 3082 N 484.997 -0.512671 3.88633 0
M  V30 3083 C 485.137 -0.888083 2.54977 0
M  V30 3084 C 485.267 -0.094668 1.38677 0
M  V30 3085 O 485.287 1.13053 1.28163 0
M  V30 3086 N 485.387 -0.890102 0.232633 0
M  V30 3087 C 485.387 -2.26958 0.21772 0
M  V30 3088 N 485.517 -2.84626 -0.97925 0
M  V30 3089 N 485.257 -3.0178 1.31033 0
M  V30 3090 C 485.137 -2.26781 2.43843 0
M  V30 3091 H 482.158 -4.797 7.24003 0
M  V30 3092 H 481.888 -3.69856 5.84513 0
M  V30 3093 H 482.755 -6.10356 5.41441 0
M  V30 3094 H 485.41 -4.79061 3.27488 0
M  V30 3095 H 485.689 -3.64906 6.05785 0
M  V30 3096 H 486.681 -4.8868 5.2125 0
M  V30 3097 H 484.847 -5.66726 7.06352 0
M  V30 3098 H 484.798 -1.71169 5.60966 0
M  V30 3099 H 485.48 -0.419134 -0.644739 0
M  V30 3100 H 485.517 -3.87332 -1.06098 0
M  V30 3101 H 485.618 -2.26417 -1.82483 0
M  V30 3102 P 486.717 -7.20834 5.23717 0
M  V30 3103 O 486.937 -8.66104 5.38572 0
M  V30 3104 O 487.507 -6.33544 6.1349 0
M  V30 3105 O 486.967 -6.7751 3.72168 0
M  V30 3106 C 486.027 -7.20825 2.7076 0
M  V30 3107 C 486.757 -7.45864 1.40599 0
M  V30 3108 O 486.967 -6.17651 0.734225 0
M  V30 3109 C 488.157 -8.05808 1.51899 0
M  V30 3110 O 488.547 -8.74358 0.335205 0
M  V30 3111 C 489.037 -6.83093 1.70294 0
M  V30 3112 C 488.327 -5.79992 0.836974 0
M  V30 3113 N 488.377 -4.41864 1.38293 0
M  V30 3114 C 488.297 -3.99538 2.69438 0
M  V30 3115 N 488.377 -2.69909 2.84277 0
M  V30 3116 C 488.517 -2.21719 1.5408 0
M  V30 3117 C 488.647 -0.891712 1.06628 0
M  V30 3118 O 488.667 0.161298 1.70137 0
M  V30 3119 N 488.767 -0.856846 -0.334985 0
M  V30 3120 C 488.767 -1.9641 -1.15789 0
M  V30 3121 N 488.897 -1.72708 -2.46522 0
M  V30 3122 N 488.637 -3.21165 -0.713741 0
M  V30 3123 C 488.517 -3.26797 0.639748 0
M  V30 3124 H 485.538 -8.13644 3.0377 0
M  V30 3125 H 485.268 -6.42788 2.55485 0
M  V30 3126 H 486.135 -8.12039 0.792769 0
M  V30 3127 H 488.79 -5.80061 -0.166416 0
M  V30 3128 H 489.069 -6.51287 2.75604 0
M  V30 3129 H 490.061 -7.01734 1.34462 0
M  V30 3130 H 488.227 -8.73674 2.38337 0
M  V30 3131 H 488.178 -4.68207 3.53221 0
M  V30 3132 H 488.86 0.0398818 -0.767965 0
M  V30 3133 H 488.897 -2.50995 -3.13503 0
M  V30 3134 H 488.998 -0.759148 -2.80716 0
M  V30 3135 P 490.097 -8.91 -2.91224e-12 0
M  V30 3136 O 490.317 -10.1726 -0.733694 0
M  V30 3137 O 490.887 -8.73148 1.23936 0
M  V30 3138 O 490.347 -7.66872 -0.971405 0
M  V30 3139 C 489.407 -7.42309 -2.04641 0
M  V30 3140 C 490.137 -6.86059 -3.24661 0
M  V30 3141 O 490.347 -5.42847 -3.03646 0
M  V30 3142 C 491.537 -7.41196 -3.50753 0
M  V30 3143 O 491.927 -7.27073 -4.86816 0
M  V30 3144 C 492.417 -6.5273 -2.63741 0
M  V30 3145 C 491.707 -5.1842 -2.73198 0
M  V30 3146 N 491.757 -4.38762 -1.4784 0
M  V30 3147 H 488.918 -8.36803 -2.32493 0
M  V30 3148 H 488.648 -6.70197 -1.71129 0
M  V30 3149 H 489.515 -7.03551 -4.13168 0
M  V30 3150 P 493.477 -7.20834 -5.23717 0
M  V30 3151 O 493.697 -7.79853 -6.57286 0
M  V30 3152 O 494.267 -7.79239 -4.12957 0
M  V30 3153 O 493.727 -5.63315 -5.29344 0
M  V30 3154 C 492.787 -4.80255 -6.01876 0
M  V30 3155 C 493.517 -3.64202 -6.65911 0
M  V30 3156 O 493.727 -2.60694 -5.64732 0
M  V30 3157 C 494.917 -3.93473 -7.1943 0
M  V30 3158 O 495.307 -3.02071 -8.21205 0
M  V30 3159 C 495.797 -3.73047 -5.97036 0
M  V30 3160 C 495.087 -2.58828 -5.25741 0
M  V30 3161 N 495.137 -2.68068 -3.77503 0
M  V30 3162 H 492.298 -5.40332 -6.79951 0
M  V30 3163 H 492.028 -4.41613 -5.32378 0
M  V30 3164 H 492.895 -3.26331 -7.47797 0
M  V30 3165 P 496.857 -2.75334 -8.47391 0
M  V30 3166 O 497.077 -2.44571 -9.90142 0
M  V30 3167 O 497.647 -3.87688 -7.92115 0
M  V30 3168 O 497.107 -1.4459 -7.59357 0
M  V30 3169 C 496.167 -0.347608 -7.69215 0
M  V30 3170 C 496.897 0.96767 -7.52806 0
M  V30 3171 O 497.107 1.21036 -6.1011 0
M  V30 3172 C 498.297 1.04544 -8.13308 0
M  V30 3173 O 498.687 2.38311 -8.41922 0
M  V30 3174 C 499.177 0.491279 -7.02284 0
M  V30 3175 C 498.467 0.996264 -5.77469 0
M  V30 3176 N 498.517 0.0501916 -4.62973 0
M  V30 3177 H 495.678 -0.374722 -8.67691 0
M  V30 3178 H 495.408 -0.443485 -6.90277 0
M  V30 3179 H 496.275 1.75537 -7.96793 0
M  V30 3180 P 500.237 2.75334 -8.47391 0
M  V30 3181 O 500.457 3.84128 -9.44797 0
M  V30 3182 O 501.027 1.51947 -8.68712 0
M  V30 3183 O 500.487 3.29363 -6.99321 0
M  V30 3184 C 499.547 4.24011 -6.4274 0
M  V30 3185 C 500.277 5.20775 -5.52155 0
M  V30 3186 O 500.487 4.56534 -4.22446 0
M  V30 3187 C 501.677 5.62629 -5.96531 0
M  V30 3188 O 502.067 6.87667 -5.41053 0
M  V30 3189 C 502.557 4.52537 -5.39283 0
M  V30 3190 C 501.847 4.20027 -4.08623 0
M  V30 3191 N 501.897 2.76189 -3.71603 0
M  V30 3192 H 499.058 4.797 -7.24003 0
M  V30 3193 H 498.788 3.69856 -5.84513 0
M  V30 3194 H 499.655 6.10356 -5.41441 0
M  V30 3195 P 503.617 7.20834 -5.23717 0
M  V30 3196 O 503.837 8.66104 -5.38572 0
M  V30 3197 O 504.407 6.33544 -6.1349 0
M  V30 3198 O 503.867 6.7751 -3.72168 0
M  V30 3199 C 502.927 7.20825 -2.7076 0
M  V30 3200 C 503.657 7.45864 -1.40599 0
M  V30 3201 O 503.867 6.17651 -0.734225 0
M  V30 3202 C 505.057 8.05808 -1.51899 0
M  V30 3203 O 505.447 8.74358 -0.335205 0
M  V30 3204 C 505.937 6.83093 -1.70294 0
M  V30 3205 C 505.227 5.79992 -0.836974 0
M  V30 3206 N 505.277 4.41864 -1.38293 0
M  V30 3207 C 505.197 3.99538 -2.69438 0
M  V30 3208 N 505.277 2.69909 -2.84277 0
M  V30 3209 C 505.417 2.21719 -1.5408 0
M  V30 3210 C 505.547 0.891712 -1.06628 0
M  V30 3211 O 505.567 -0.161298 -1.70137 0
M  V30 3212 N 505.667 0.856846 0.334985 0
M  V30 3213 C 505.667 1.9641 1.15789 0
M  V30 3214 N 505.797 1.72708 2.46522 0
M  V30 3215 N 505.537 3.21165 0.713741 0
M  V30 3216 C 505.417 3.26797 -0.639748 0
M  V30 3217 H 502.438 8.13644 -3.0377 0
M  V30 3218 H 502.168 6.42788 -2.55485 0
M  V30 3219 H 503.035 8.12039 -0.792769 0
M  V30 3220 H 505.69 5.80061 0.166416 0
M  V30 3221 H 505.969 6.51287 -2.75604 0
M  V30 3222 H 506.961 7.01734 -1.34462 0
M  V30 3223 H 505.127 8.73674 -2.38337 0
M  V30 3224 H 505.078 4.68207 -3.53221 0
M  V30 3225 H 505.76 -0.0398818 0.767965 0
M  V30 3226 H 505.797 2.50995 3.13503 0
M  V30 3227 H 505.898 0.759148 2.80716 0
M  V30 3228 P 506.997 8.91 3.06942e-12 0
M  V30 3229 O 507.217 10.1726 0.733694 0
M  V30 3230 O 507.787 8.73148 -1.23936 0
M  V30 3231 O 507.247 7.66872 0.971405 0
M  V30 3232 C 506.307 7.42309 2.04641 0
M  V30 3233 C 507.037 6.86059 3.24661 0
M  V30 3234 O 507.247 5.42847 3.03646 0
M  V30 3235 C 508.437 7.41196 3.50753 0
M  V30 3236 O 508.827 7.27073 4.86816 0
M  V30 3237 C 509.317 6.5273 2.63741 0
M  V30 3238 C 508.607 5.1842 2.73198 0
M  V30 3239 N 508.657 4.38762 1.4784 0
M  V30 3240 C 508.577 4.81605 0.168631 0
M  V30 3241 N 508.657 3.85454 -0.713363 0
M  V30 3242 C 508.797 2.6994 0.0566958 0
M  V30 3243 C 508.927 1.34815 -0.338502 0
M  V30 3244 O 508.947 0.869548 -1.47125 0
M  V30 3245 N 509.047 0.496304 0.77465 0
M  V30 3246 C 509.047 0.908403 2.09122 0
M  V30 3247 N 509.177 -0.0517805 3.00955 0
M  V30 3248 N 508.917 2.17875 2.46519 0
M  V30 3249 C 508.797 3.01988 1.4033 0
M  V30 3250 H 505.818 8.36803 2.32493 0
M  V30 3251 H 505.548 6.70197 1.71129 0
M  V30 3252 H 506.415 7.03551 4.13168 0
M  V30 3253 H 509.07 4.59498 3.54415 0
M  V30 3254 H 509.349 6.88898 1.59848 0
M  V30 3255 H 510.341 6.46749 3.03687 0
M  V30 3256 H 508.507 8.46908 3.20714 0
M  V30 3257 H 508.458 5.86405 -0.105564 0
M  V30 3258 H 509.14 -0.483664 0.597855 0
M  V30 3259 H 509.177 0.187865 4.0116 0
M  V30 3260 H 509.278 -1.03585 2.71726 0
M  V30 3261 P 510.377 7.20834 5.23717 0
M  V30 3262 O 510.597 7.80006 6.57415 0
M  V30 3263 O 511.167 7.79416 4.13051 0
M  V30 3264 O 510.627 5.63315 5.29344 0
M  V30 3265 C 509.687 4.80318 6.01954 0
M  V30 3266 C 510.417 3.64202 6.65911 0
M  V30 3267 O 510.627 2.60736 5.64823 0
M  V30 3268 C 511.817 3.93521 7.19518 0
M  V30 3269 O 512.207 3.02071 8.21205 0
M  V30 3270 C 512.697 3.73047 5.97036 0
M  V30 3271 C 511.987 2.58828 5.25741 0
M  V30 3272 N 512.037 2.68068 3.77503 0
M  V30 3273 C 511.957 3.80474 2.99159 0
M  V30 3274 N 512.027 3.55622 1.71925 0
M  V30 3275 C 512.177 2.1832 1.65733 0
M  V30 3276 C 512.307 1.28842 0.572777 0
M  V30 3277 N 512.317 1.66875 -0.70098 0
M  V30 3278 N 512.427 -0.016788 0.859836 0
M  V30 3279 C 512.417 -0.398145 2.13316 0
M  V30 3280 N 512.297 0.328224 3.22333 0
M  V30 3281 C 512.177 1.62992 2.90383 0
M  V30 3282 H 509.199 5.40394 6.8003 0
M  V30 3283 H 508.927 4.41741 5.32532 0
M  V30 3284 H 509.795 3.26371 7.47889 0
M  V30 3285 H 512.45 1.64007 5.56746 0
M  V30 3286 H 512.73 4.63439 5.3432 0
M  V30 3287 H 513.721 3.44776 6.25925 0
M  V30 3288 H 511.887 4.96707 7.57347 0
M  V30 3289 H 511.846 4.8089 3.39924 0
M  V30 3290 H 512.227 2.66547 -0.941919 0
M  V30 3291 H 512.416 0.965341 -1.44766 0
M  V30 3292 H 512.524 -1.46427 2.29697 0
M  V30 3293 P 513.757 2.75334 8.47391 0
M  V30 3294 O 513.977 2.44571 9.90142 0
M  V30 3295 O 514.547 3.87688 7.92115 0
M  V30 3296 O 514.007 1.4459 7.59357 0
M  V30 3297 C 513.067 0.347608 7.69215 0
M  V30 3298 C 513.797 -0.96767 7.52806 0
M  V30 3299 O 514.007 -1.21036 6.1011 0
M  V30 3300 C 515.197 -1.04544 8.13308 0
M  V30 3301 O 515.587 -2.38311 8.41922 0
M  V30 3302 C 516.077 -0.491279 7.02284 0
M  V30 3303 C 515.367 -0.996264 5.77469 0
M  V30 3304 N 515.417 -0.0501916 4.62973 0
M  V30 3305 H 512.578 0.374722 8.67691 0
M  V30 3306 H 512.308 0.443485 6.90277 0
M  V30 3307 H 513.175 -1.75537 7.96793 0
M  V30 3308 P 517.137 -2.75334 8.47391 0
M  V30 3309 O 517.357 -3.84128 9.44797 0
M  V30 3310 O 517.927 -1.51947 8.68712 0
M  V30 3311 O 517.387 -3.29363 6.99321 0
M  V30 3312 C 516.447 -4.24011 6.4274 0
M  V30 3313 C 517.177 -5.20775 5.52155 0
M  V30 3314 O 517.387 -4.56534 4.22446 0
M  V30 3315 C 518.577 -5.62629 5.96531 0
M  V30 3316 O 518.967 -6.87667 5.41053 0
M  V30 3317 C 519.457 -4.52537 5.39283 0
M  V30 3318 C 518.747 -4.20027 4.08623 0
M  V30 3319 N 518.797 -2.76189 3.71603 0
M  V30 3320 H 515.958 -4.797 7.24003 0
M  V30 3321 H 515.688 -3.69856 5.84513 0
M  V30 3322 H 516.555 -6.10356 5.41441 0
M  V30 3323 P 520.517 -7.20834 5.23717 0
M  V30 3324 O 520.737 -8.66104 5.38572 0
M  V30 3325 O 521.307 -6.33544 6.1349 0
M  V30 3326 O 520.767 -6.7751 3.72168 0
M  V30 3327 C 519.827 -7.20825 2.7076 0
M  V30 3328 C 520.557 -7.45864 1.40599 0
M  V30 3329 O 520.767 -6.17651 0.734225 0
M  V30 3330 C 521.957 -8.05808 1.51899 0
M  V30 3331 O 522.347 -8.74358 0.335205 0
M  V30 3332 C 522.837 -6.83093 1.70294 0
M  V30 3333 C 522.127 -5.79992 0.836974 0
M  V30 3334 N 522.177 -4.41864 1.38293 0
M  V30 3335 C 522.097 -3.99538 2.69438 0
M  V30 3336 N 522.177 -2.69909 2.84277 0
M  V30 3337 C 522.317 -2.21719 1.5408 0
M  V30 3338 C 522.447 -0.891712 1.06628 0
M  V30 3339 N 522.567 -0.856846 -0.334985 0
M  V30 3340 C 522.567 -1.9641 -1.15789 0
M  V30 3341 N 522.697 -1.72708 -2.46522 0
M  V30 3342 N 522.437 -3.21165 -0.713741 0
M  V30 3343 C 522.317 -3.26797 0.639748 0
M  V30 3344 H 519.338 -8.13644 3.0377 0
M  V30 3345 H 519.068 -6.42788 2.55485 0
M  V30 3346 H 519.935 -8.12039 0.792769 0
M  V30 3347 P 523.897 -8.91 -3.22661e-12 0
M  V30 3348 O 524.117 -10.1726 -0.733694 0
M  V30 3349 O 524.687 -8.73148 1.23936 0
M  V30 3350 O 524.147 -7.66872 -0.971405 0
M  V30 3351 C 523.207 -7.42309 -2.04641 0
M  V30 3352 C 523.937 -6.86059 -3.24661 0
M  V30 3353 O 524.147 -5.42847 -3.03646 0
M  V30 3354 C 525.337 -7.41196 -3.50753 0
M  V30 3355 O 525.727 -7.27073 -4.86816 0
M  V30 3356 C 526.217 -6.5273 -2.63741 0
M  V30 3357 C 525.507 -5.1842 -2.73198 0
M  V30 3358 N 525.557 -4.38762 -1.4784 0
M  V30 3359 H 522.718 -8.36803 -2.32493 0
M  V30 3360 H 522.448 -6.70197 -1.71129 0
M  V30 3361 H 523.315 -7.03551 -4.13168 0
M  V30 3362 P 527.277 -7.20834 -5.23717 0
M  V30 3363 O 527.497 -7.79853 -6.57286 0
M  V30 3364 O 528.067 -7.79239 -4.12957 0
M  V30 3365 O 527.527 -5.63315 -5.29344 0
M  V30 3366 C 526.587 -4.80255 -6.01876 0
M  V30 3367 C 527.317 -3.64202 -6.65911 0
M  V30 3368 O 527.527 -2.60694 -5.64732 0
M  V30 3369 C 528.717 -3.93473 -7.1943 0
M  V30 3370 O 529.107 -3.02071 -8.21205 0
M  V30 3371 C 529.597 -3.73047 -5.97036 0
M  V30 3372 C 528.887 -2.58828 -5.25741 0
M  V30 3373 N 528.937 -2.68068 -3.77503 0
M  V30 3374 H 526.098 -5.40332 -6.79951 0
M  V30 3375 H 525.828 -4.41613 -5.32378 0
M  V30 3376 H 526.695 -3.26331 -7.47797 0
M  V30 3377 P 530.657 -2.75334 -8.47391 0
M  V30 3378 O 530.877 -2.44571 -9.90142 0
M  V30 3379 O 531.447 -3.87688 -7.92115 0
M  V30 3380 O 530.907 -1.4459 -7.59357 0
M  V30 3381 C 529.967 -0.347608 -7.69215 0
M  V30 3382 C 530.697 0.96767 -7.52806 0
M  V30 3383 O 530.907 1.21036 -6.1011 0
M  V30 3384 C 532.097 1.04544 -8.13308 0
M  V30 3385 O 532.487 2.38311 -8.41922 0
M  V30 3386 C 532.977 0.491279 -7.02284 0
M  V30 3387 C 532.267 0.996264 -5.77469 0
M  V30 3388 N 532.317 0.0501916 -4.62973 0
M  V30 3389 H 529.478 -0.374722 -8.67691 0
M  V30 3390 H 529.208 -0.443485 -6.90277 0
M  V30 3391 H 530.075 1.75537 -7.96793 0
M  V30 3392 P 534.037 2.75334 -8.47391 0
M  V30 3393 O 534.257 3.84128 -9.44797 0
M  V30 3394 O 534.827 1.51947 -8.68712 0
M  V30 3395 O 534.287 3.29363 -6.99321 0
M  V30 3396 C 533.347 4.24011 -6.4274 0
M  V30 3397 C 534.077 5.20775 -5.52155 0
M  V30 3398 O 534.287 4.56534 -4.22446 0
M  V30 3399 C 535.477 5.62629 -5.96531 0
M  V30 3400 O 535.867 6.87667 -5.41053 0
M  V30 3401 C 536.357 4.52537 -5.39283 0
M  V30 3402 C 535.647 4.20027 -4.08623 0
M  V30 3403 N 535.697 2.76189 -3.71603 0
M  V30 3404 H 532.858 4.797 -7.24003 0
M  V30 3405 H 532.588 3.69856 -5.84513 0
M  V30 3406 H 533.455 6.10356 -5.41441 0
M  V30 3407 P 537.417 7.20834 -5.23717 0
M  V30 3408 O 537.637 8.66274 -5.38678 0
M  V30 3409 O 538.207 6.33687 -6.13629 0
M  V30 3410 O 537.667 6.7751 -3.72168 0
M  V30 3411 C 536.727 7.20919 -2.70795 0
M  V30 3412 C 537.457 7.45864 -1.40599 0
M  V30 3413 O 537.667 6.17751 -0.734343 0
M  V30 3414 C 538.857 8.05906 -1.51917 0
M  V30 3415 O 539.247 8.74358 -0.335205 0
M  V30 3416 C 539.737 6.83093 -1.70294 0
M  V30 3417 C 539.027 5.79992 -0.836974 0
M  V30 3418 N 539.077 4.41864 -1.38293 0
M  V30 3419 C 538.997 4.02089 -2.69407 0
M  V30 3420 N 539.067 2.73403 -2.85089 0
M  V30 3421 C 539.217 2.25086 -1.5642 0
M  V30 3422 C 539.347 0.942887 -1.04836 0
M  V30 3423 N 539.357 -0.150999 -1.80369 0
M  V30 3424 N 539.467 0.812565 0.28167 0
M  V30 3425 C 539.457 1.90572 1.03784 0
M  V30 3426 N 539.337 3.167 0.683905 0
M  V30 3427 C 539.217 3.26538 -0.652815 0
M  V30 3428 H 536.239 8.13738 -3.03804 0
M  V30 3429 H 535.967 6.42974 -2.55559 0
M  V30 3430 H 536.835 8.12139 -0.792866 0
M  V30 3431 H 539.49 5.80178 0.160643 0
M  V30 3432 H 539.77 6.51379 -2.75643 0
M  V30 3433 H 540.761 7.01832 -1.3448 0
M  V30 3434 H 538.927 8.73771 -2.38364 0
M  V30 3435 H 538.886 4.7189 -3.52311 0
M  V30 3436 H 539.267 -0.0721434 -2.82608 0
M  V30 3437 H 539.456 -1.0785 -1.36544 0
M  V30 3438 H 539.564 1.73207 2.10241 0
M  V30 3439 P 540.797 8.91 3.38379e-12 0
M  V30 3440 O 541.017 10.1726 0.733694 0
M  V30 3441 O 541.587 8.73148 -1.23936 0
M  V30 3442 O 541.047 7.66872 0.971405 0
M  V30 3443 C 540.107 7.42309 2.04641 0
M  V30 3444 C 540.837 6.86059 3.24661 0
M  V30 3445 O 541.047 5.42847 3.03646 0
M  V30 3446 C 542.237 7.41196 3.50753 0
M  V30 3447 O 542.627 7.27073 4.86816 0
M  V30 3448 C 543.117 6.5273 2.63741 0
M  V30 3449 C 542.407 5.1842 2.73198 0
M  V30 3450 N 542.457 4.38762 1.4784 0
M  V30 3451 H 539.618 8.36803 2.32493 0
M  V30 3452 H 539.348 6.70197 1.71129 0
M  V30 3453 H 540.215 7.03551 4.13168 0
M  V30 3454 P 544.177 7.20834 5.23717 0
M  V30 3455 O 544.397 7.80006 6.57415 0
M  V30 3456 O 544.967 7.79416 4.13051 0
M  V30 3457 O 544.427 5.63315 5.29344 0
M  V30 3458 C 543.487 4.80318 6.01954 0
M  V30 3459 C 544.217 3.64202 6.65911 0
M  V30 3460 O 544.427 2.60736 5.64823 0
M  V30 3461 C 545.617 3.93521 7.19518 0
M  V30 3462 O 546.007 3.02071 8.21205 0
M  V30 3463 C 546.497 3.73047 5.97036 0
M  V30 3464 C 545.787 2.58828 5.25741 0
M  V30 3465 N 545.837 2.68068 3.77503 0
M  V30 3466 C 545.757 3.80474 2.99159 0
M  V30 3467 N 545.827 3.55622 1.71925 0
M  V30 3468 C 545.977 2.1832 1.65733 0
M  V30 3469 C 546.107 1.28842 0.572777 0
M  V30 3470 N 546.117 1.66875 -0.70098 0
M  V30 3471 N 546.227 -0.016788 0.859836 0
M  V30 3472 C 546.217 -0.398145 2.13316 0
M  V30 3473 N 546.097 0.328224 3.22333 0
M  V30 3474 C 545.977 1.62992 2.90383 0
M  V30 3475 H 542.999 5.40394 6.8003 0
M  V30 3476 H 542.727 4.41741 5.32532 0
M  V30 3477 H 543.595 3.26371 7.47889 0
M  V30 3478 H 546.25 1.64007 5.56746 0
M  V30 3479 H 546.53 4.63439 5.3432 0
M  V30 3480 H 547.521 3.44776 6.25925 0
M  V30 3481 H 545.687 4.96707 7.57347 0
M  V30 3482 H 545.646 4.8089 3.39924 0
M  V30 3483 H 546.027 2.66547 -0.941919 0
M  V30 3484 H 546.216 0.965341 -1.44766 0
M  V30 3485 H 546.324 -1.46427 2.29697 0
M  V30 3486 P 547.557 2.75334 8.47391 0
M  V30 3487 O 547.777 2.44619 9.90336 0
M  V30 3488 O 548.347 3.87776 7.92294 0
M  V30 3489 O 547.807 1.4459 7.59357 0
M  V30 3490 C 546.867 0.347653 7.69315 0
M  V30 3491 C 547.597 -0.96767 7.52806 0
M  V30 3492 O 547.807 -1.21055 6.10208 0
M  V30 3493 C 548.997 -1.04557 8.13408 0
M  V30 3494 O 549.387 -2.38311 8.41922 0
M  V30 3495 C 549.877 -0.491279 7.02284 0
M  V30 3496 C 549.167 -0.996264 5.77469 0
M  V30 3497 N 549.217 -0.0501916 4.62973 0
M  V30 3498 C 549.137 1.31969 4.65661 0
M  V30 3499 N 549.207 1.86649 3.48119 0
M  V30 3500 C 549.357 0.792089 2.62406 0
M  V30 3501 C 549.487 0.705684 1.2207 0
M  V30 3502 N 549.497 1.76207 0.413762 0
M  V30 3503 N 549.607 -0.518981 0.685754 0
M  V30 3504 C 549.597 -1.57595 1.49174 0
M  V30 3505 N 549.477 -1.62909 2.80066 0
M  V30 3506 C 549.357 -0.388195 3.3073 0
M  V30 3507 H 546.379 0.374765 8.67791 0
M  V30 3508 H 546.107 0.443613 6.90476 0
M  V30 3509 H 546.975 -1.75559 7.96891 0
M  V30 3510 H 549.63 -1.94563 5.46818 0
M  V30 3511 H 549.91 0.608651 7.04676 0
M  V30 3512 H 550.901 -0.889796 7.09039 0
M  V30 3513 H 549.067 -0.433128 9.04664 0
M  V30 3514 H 549.026 1.89246 5.57664 0
M  V30 3515 H 549.407 2.71005 0.804694 0
M  V30 3516 H 549.596 1.63189 -0.603768 0
M  V30 3517 H 549.704 -2.53475 0.997614 0
M  V30 3518 P 550.937 -2.75334 8.47391 0
M  V30 3519 O 551.157 -3.84128 9.44797 0
M  V30 3520 O 551.727 -1.51947 8.68712 0
M  V30 3521 O 551.187 -3.29363 6.99321 0
M  V30 3522 C 550.247 -4.24011 6.4274 0
M  V30 3523 C 550.977 -5.20775 5.52155 0
M  V30 3524 O 551.187 -4.56534 4.22446 0
M  V30 3525 C 552.377 -5.62629 5.96531 0
M  V30 3526 O 552.767 -6.87667 5.41053 0
M  V30 3527 C 553.257 -4.52537 5.39283 0
M  V30 3528 C 552.547 -4.20027 4.08623 0
M  V30 3529 N 552.597 -2.76189 3.71603 0
M  V30 3530 H 549.758 -4.797 7.24003 0
M  V30 3531 H 549.488 -3.69856 5.84513 0
M  V30 3532 H 550.355 -6.10356 5.41441 0
M  V30 3533 P 554.317 -7.20834 5.23717 0
M  V30 3534 O 554.537 -8.66104 5.38572 0
M  V30 3535 O 555.107 -6.33544 6.1349 0
M  V30 3536 O 554.567 -6.7751 3.72168 0
M  V30 3537 C 553.627 -7.20825 2.7076 0
M  V30 3538 C 554.357 -7.45864 1.40599 0
M  V30 3539 O 554.567 -6.17651 0.734225 0
M  V30 3540 C 555.757 -8.05808 1.51899 0
M  V30 3541 O 556.147 -8.74358 0.335205 0
M  V30 3542 C 556.637 -6.83093 1.70294 0
M  V30 3543 C 555.927 -5.79992 0.836974 0
M  V30 3544 N 555.977 -4.41864 1.38293 0
M  V30 3545 H 553.138 -8.13644 3.0377 0
M  V30 3546 H 552.868 -6.42788 2.55485 0
M  V30 3547 H 553.735 -8.12039 0.792769 0
M  V30 3548 P 557.697 -8.91 -3.54097e-12 0
M  V30 3549 O 557.917 -10.1726 -0.733694 0
M  V30 3550 O 558.487 -8.73148 1.23936 0
M  V30 3551 O 557.947 -7.66872 -0.971405 0
M  V30 3552 C 557.007 -7.42309 -2.04641 0
M  V30 3553 C 557.737 -6.86059 -3.24661 0
M  V30 3554 O 557.947 -5.42847 -3.03646 0
M  V30 3555 C 559.137 -7.41196 -3.50753 0
M  V30 3556 O 559.527 -7.27073 -4.86816 0
M  V30 3557 C 560.017 -6.5273 -2.63741 0
M  V30 3558 C 559.307 -5.1842 -2.73198 0
M  V30 3559 N 559.357 -4.38762 -1.4784 0
M  V30 3560 H 556.518 -8.36803 -2.32493 0
M  V30 3561 H 556.248 -6.70197 -1.71129 0
M  V30 3562 H 557.115 -7.03551 -4.13168 0
M  V30 3563 P 561.077 -7.20834 -5.23717 0
M  V30 3564 O 561.297 -7.79853 -6.57286 0
M  V30 3565 O 561.867 -7.79239 -4.12957 0
M  V30 3566 O 561.327 -5.63315 -5.29344 0
M  V30 3567 C 560.387 -4.80255 -6.01876 0
M  V30 3568 C 561.117 -3.64202 -6.65911 0
M  V30 3569 O 561.327 -2.60694 -5.64732 0
M  V30 3570 C 562.517 -3.93473 -7.1943 0
M  V30 3571 O 562.907 -3.02071 -8.21205 0
M  V30 3572 C 563.397 -3.73047 -5.97036 0
M  V30 3573 C 562.687 -2.58828 -5.25741 0
M  V30 3574 N 562.737 -2.68068 -3.77503 0
M  V30 3575 H 559.898 -5.40332 -6.79951 0
M  V30 3576 H 559.628 -4.41613 -5.32378 0
M  V30 3577 H 560.495 -3.26331 -7.47797 0
M  V30 3578 P 564.457 -2.75334 -8.47391 0
M  V30 3579 O 564.677 -2.44571 -9.90142 0
M  V30 3580 O 565.247 -3.87688 -7.92115 0
M  V30 3581 O 564.707 -1.4459 -7.59357 0
M  V30 3582 C 563.767 -0.347608 -7.69215 0
M  V30 3583 C 564.497 0.96767 -7.52806 0
M  V30 3584 O 564.707 1.21036 -6.1011 0
M  V30 3585 C 565.897 1.04544 -8.13308 0
M  V30 3586 O 566.287 2.38311 -8.41922 0
M  V30 3587 C 566.777 0.491279 -7.02284 0
M  V30 3588 C 566.067 0.996264 -5.77469 0
M  V30 3589 N 566.117 0.0501916 -4.62973 0
M  V30 3590 H 563.278 -0.374722 -8.67691 0
M  V30 3591 H 563.008 -0.443485 -6.90277 0
M  V30 3592 H 563.875 1.75537 -7.96793 0
M  V30 3593 P 567.837 2.75334 -8.47391 0
M  V30 3594 O 568.057 3.84128 -9.44797 0
M  V30 3595 O 568.627 1.51947 -8.68712 0
M  V30 3596 O 568.087 3.29363 -6.99321 0
M  V30 3597 C 567.147 4.24011 -6.4274 0
M  V30 3598 C 567.877 5.20775 -5.52155 0
M  V30 3599 O 568.087 4.56534 -4.22446 0
M  V30 3600 C 569.277 5.62629 -5.96531 0
M  V30 3601 O 569.667 6.87667 -5.41053 0
M  V30 3602 C 570.157 4.52537 -5.39283 0
M  V30 3603 C 569.447 4.20027 -4.08623 0
M  V30 3604 N 569.497 2.76189 -3.71603 0
M  V30 3605 H 566.658 4.797 -7.24003 0
M  V30 3606 H 566.388 3.69856 -5.84513 0
M  V30 3607 H 567.255 6.10356 -5.41441 0
M  V30 3608 P 571.217 7.20834 -5.23717 0
M  V30 3609 O 571.437 8.66274 -5.38678 0
M  V30 3610 O 572.007 6.33687 -6.13629 0
M  V30 3611 O 571.467 6.7751 -3.72168 0
M  V30 3612 C 570.527 7.20919 -2.70795 0
M  V30 3613 C 571.257 7.45864 -1.40599 0
M  V30 3614 O 571.467 6.17751 -0.734343 0
M  V30 3615 C 572.657 8.05906 -1.51917 0
M  V30 3616 O 573.047 8.74358 -0.335205 0
M  V30 3617 C 573.537 6.83093 -1.70294 0
M  V30 3618 C 572.827 5.79992 -0.836974 0
M  V30 3619 N 572.877 4.41864 -1.38293 0
M  V30 3620 H 570.039 8.13738 -3.03804 0
M  V30 3621 H 569.767 6.42974 -2.55559 0
M  V30 3622 H 570.635 8.12139 -0.792866 0
M  V30 3623 H 573.29 5.80178 0.160643 0
M  V30 3624 H 573.57 6.51379 -2.75643 0
M  V30 3625 H 574.561 7.01832 -1.3448 0
M  V30 3626 H 572.727 8.73771 -2.38364 0
M  V30 3627 P 574.597 8.91 3.69815e-12 0
M  V30 3628 O 574.817 10.1726 0.733694 0
M  V30 3629 O 575.387 8.73148 -1.23936 0
M  V30 3630 O 574.847 7.66872 0.971405 0
M  V30 3631 C 573.907 7.42309 2.04641 0
M  V30 3632 C 574.637 6.86059 3.24661 0
M  V30 3633 O 574.847 5.42847 3.03646 0
M  V30 3634 C 576.037 7.41196 3.50753 0
M  V30 3635 O 576.427 7.27073 4.86816 0
M  V30 3636 C 576.917 6.5273 2.63741 0
M  V30 3637 C 576.207 5.1842 2.73198 0
M  V30 3638 N 576.257 4.38762 1.4784 0
M  V30 3639 H 573.418 8.36803 2.32493 0
M  V30 3640 H 573.148 6.70197 1.71129 0
M  V30 3641 H 574.015 7.03551 4.13168 0
M  V30 3642 P 577.977 7.20834 5.23717 0
M  V30 3643 O 578.197 7.79853 6.57286 0
M  V30 3644 O 578.767 7.79239 4.12957 0
M  V30 3645 O 578.227 5.63315 5.29344 0
M  V30 3646 C 577.287 4.80255 6.01876 0
M  V30 3647 C 578.017 3.64202 6.65911 0
M  V30 3648 O 578.227 2.60694 5.64732 0
M  V30 3649 C 579.417 3.93473 7.1943 0
M  V30 3650 O 579.807 3.02071 8.21205 0
M  V30 3651 C 580.297 3.73047 5.97036 0
M  V30 3652 C 579.587 2.58828 5.25741 0
M  V30 3653 N 579.637 2.68068 3.77503 0
M  V30 3654 H 576.798 5.40332 6.79951 0
M  V30 3655 H 576.528 4.41613 5.32378 0
M  V30 3656 H 577.395 3.26331 7.47797 0
M  V30 3657 P 581.357 2.75334 8.47391 0
M  V30 3658 O 581.577 2.44571 9.90142 0
M  V30 3659 O 582.147 3.87688 7.92115 0
M  V30 3660 O 581.607 1.4459 7.59357 0
M  V30 3661 C 580.667 0.347608 7.69215 0
M  V30 3662 C 581.397 -0.96767 7.52806 0
M  V30 3663 O 581.607 -1.21036 6.1011 0
M  V30 3664 C 582.797 -1.04544 8.13308 0
M  V30 3665 O 583.187 -2.38311 8.41922 0
M  V30 3666 C 583.677 -0.491279 7.02284 0
M  V30 3667 C 582.967 -0.996264 5.77469 0
M  V30 3668 N 583.017 -0.0501916 4.62973 0
M  V30 3669 H 580.178 0.374722 8.67691 0
M  V30 3670 H 579.908 0.443485 6.90277 0
M  V30 3671 H 580.775 -1.75537 7.96793 0
M  V30 3672 P 584.737 -2.75334 8.47391 0
M  V30 3673 O 584.957 -3.84128 9.44797 0
M  V30 3674 O 585.527 -1.51947 8.68712 0
M  V30 3675 O 584.987 -3.29363 6.99321 0
M  V30 3676 C 584.047 -4.24011 6.4274 0
M  V30 3677 C 584.777 -5.20775 5.52155 0
M  V30 3678 O 584.987 -4.56534 4.22446 0
M  V30 3679 C 586.177 -5.62629 5.96531 0
M  V30 3680 O 586.567 -6.87667 5.41053 0
M  V30 3681 C 587.057 -4.52537 5.39283 0
M  V30 3682 C 586.347 -4.20027 4.08623 0
M  V30 3683 N 586.397 -2.76189 3.71603 0
M  V30 3684 H 583.558 -4.797 7.24003 0
M  V30 3685 H 583.288 -3.69856 5.84513 0
M  V30 3686 H 584.155 -6.10356 5.41441 0
M  V30 3687 P 588.117 -7.20834 5.23717 0
M  V30 3688 O 588.337 -8.66104 5.38572 0
M  V30 3689 O 588.907 -6.33544 6.1349 0
M  V30 3690 O 588.367 -6.7751 3.72168 0
M  V30 3691 C 587.427 -7.20825 2.7076 0
M  V30 3692 C 588.157 -7.45864 1.40599 0
M  V30 3693 O 588.367 -6.17651 0.734225 0
M  V30 3694 C 589.557 -8.05808 1.51899 0
M  V30 3695 O 589.947 -8.74358 0.335205 0
M  V30 3696 C 590.437 -6.83093 1.70294 0
M  V30 3697 C 589.727 -5.79992 0.836974 0
M  V30 3698 N 589.777 -4.41864 1.38293 0
M  V30 3699 H 586.938 -8.13644 3.0377 0
M  V30 3700 H 586.668 -6.42788 2.55485 0
M  V30 3701 H 587.535 -8.12039 0.792769 0
M  V30 3702 P 591.496 -8.91 -3.85533e-12 0
M  V30 3703 O 591.716 -10.1726 -0.733694 0
M  V30 3704 O 592.286 -8.73148 1.23936 0
M  V30 3705 O 591.746 -7.66872 -0.971405 0
M  V30 3706 C 590.806 -7.42309 -2.04641 0
M  V30 3707 C 591.536 -6.86059 -3.24661 0
M  V30 3708 O 591.746 -5.42847 -3.03646 0
M  V30 3709 C 592.937 -7.41196 -3.50753 0
M  V30 3710 O 593.327 -7.27073 -4.86816 0
M  V30 3711 C 593.817 -6.5273 -2.63741 0
M  V30 3712 C 593.106 -5.1842 -2.73198 0
M  V30 3713 N 593.156 -4.38762 -1.4784 0
M  V30 3714 H 590.317 -8.36803 -2.32493 0
M  V30 3715 H 590.048 -6.70197 -1.71129 0
M  V30 3716 H 590.914 -7.03551 -4.13168 0
M  V30 3717 P 594.876 -7.20834 -5.23717 0
M  V30 3718 O 595.096 -7.79853 -6.57286 0
M  V30 3719 O 595.666 -7.79239 -4.12957 0
M  V30 3720 O 595.126 -5.63315 -5.29344 0
M  V30 3721 C 594.186 -4.80255 -6.01876 0
M  V30 3722 C 594.916 -3.64202 -6.65911 0
M  V30 3723 O 595.126 -2.60694 -5.64732 0
M  V30 3724 C 596.316 -3.93473 -7.1943 0
M  V30 3725 O 596.706 -3.02071 -8.21205 0
M  V30 3726 C 597.196 -3.73047 -5.97036 0
M  V30 3727 C 596.486 -2.58828 -5.25741 0
M  V30 3728 N 596.536 -2.68068 -3.77503 0
M  V30 3729 H 593.697 -5.40332 -6.79951 0
M  V30 3730 H 593.427 -4.41613 -5.32378 0
M  V30 3731 H 594.294 -3.26331 -7.47797 0
M  V30 3732 P 598.256 -2.75334 -8.47391 0
M  V30 3733 O 598.476 -2.44571 -9.90142 0
M  V30 3734 O 599.046 -3.87688 -7.92115 0
M  V30 3735 O 598.506 -1.4459 -7.59357 0
M  V30 3736 C 597.566 -0.347608 -7.69215 0
M  V30 3737 C 598.296 0.96767 -7.52806 0
M  V30 3738 O 598.506 1.21036 -6.1011 0
M  V30 3739 C 599.696 1.04544 -8.13308 0
M  V30 3740 O 600.086 2.38311 -8.41922 0
M  V30 3741 C 600.576 0.491279 -7.02284 0
M  V30 3742 C 599.866 0.996264 -5.77469 0
M  V30 3743 N 599.916 0.0501916 -4.62973 0
M  V30 3744 H 597.077 -0.374722 -8.67691 0
M  V30 3745 H 596.807 -0.443485 -6.90277 0
M  V30 3746 H 597.674 1.75537 -7.96793 0
M  V30 3747 H 599.955 2.92663 -7.63961 0
M  V30 3748 H 603.977 0.0909867 9.51056 0
M  V30 3749 O 603.857 0.778697 8.86988 0
M  V30 3750 P 602.416 1.17771 8.83182 0
M  V30 3751 O 602.196 2.07206 9.98732 0
M  V30 3752 O 601.626 -0.0743816 8.81969 0
M  V30 3753 O 602.166 1.97652 7.47304 0
M  V30 3754 C 603.106 3.01133 7.08783 0
M  V30 3755 C 602.376 4.12613 6.37049 0
M  V30 3756 O 602.166 3.72827 4.97879 0
M  V30 3757 C 600.976 4.45085 6.88694 0
M  V30 3758 O 600.586 5.7877 6.5624 0
M  V30 3759 C 600.096 3.47817 6.12078 0
M  V30 3760 C 600.806 3.39414 4.77697 0
M  V30 3761 N 600.756 2.04615 4.15333 0
M  V30 3762 H 603.595 3.41248 7.98759 0
M  V30 3763 H 603.867 2.5837 6.41742 0
M  V30 3764 H 602.999 5.02657 6.42673 0
M  V30 3765 P 599.036 6.144 6.45285 0
M  V30 3766 O 598.816 7.54673 6.86199 0
M  V30 3767 O 598.246 5.12391 7.179 0
M  V30 3768 O 598.786 5.99158 4.88404 0
M  V30 3769 C 599.726 6.60234 3.96415 0
M  V30 3770 C 598.996 7.08259 2.72856 0
M  V30 3771 O 598.786 5.9427 1.83651 0
M  V30 3772 C 597.596 7.64886 2.9555 0
M  V30 3773 O 597.206 8.53963 1.90717 0
M  V30 3774 C 596.716 6.4116 2.90739 0
M  V30 3775 C 597.426 5.55375 1.86963 0
M  V30 3776 N 597.376 4.09664 2.15742 0
M  V30 3777 H 600.215 7.45574 4.45629 0
M  V30 3778 H 600.487 5.86232 3.67314 0
M  V30 3779 H 599.619 7.84412 2.24479 0
M  V30 3780 P 595.656 8.7635 1.60911 0
M  V30 3781 O 595.437 10.1388 1.11561 0
M  V30 3782 O 594.866 8.36503 2.79617 0
M  V30 3783 O 595.406 7.71806 0.42951 0
M  V30 3784 C 596.346 7.67148 -0.673689 0
M  V30 3785 C 595.616 7.33374 -1.95559 0
M  V30 3786 O 595.406 5.88721 -2.00726 0
M  V30 3787 C 594.216 7.92526 -2.10483 0
M  V30 3788 O 593.827 8.02971 -3.47653 0
M  V30 3789 C 593.337 6.89602 -1.41652 0
M  V30 3790 C 594.046 5.59201 -1.75185 0
M  V30 3791 N 593.996 4.58235 -0.662552 0
M  V30 3792 H 596.836 8.65116 -0.777161 0
M  V30 3793 H 597.107 6.90173 -0.474152 0
M  V30 3794 H 596.24 7.66548 -2.79458 0
M  V30 3795 P 592.277 8.03563 -3.84925 0
M  V30 3796 O 592.057 8.85821 -5.0569 0
M  V30 3797 O 591.487 8.41101 -2.65469 0
M  V30 3798 O 592.027 6.4965 -4.18908 0
M  V30 3799 C 592.967 5.81037 -5.05421 0
M  V30 3800 C 592.237 4.78366 -5.89277 0
M  V30 3801 O 592.027 3.58302 -5.08433 0
M  V30 3802 C 590.837 5.17448 -6.36119 0
M  V30 3803 O 590.447 4.45271 -7.53232 0
M  V30 3804 C 589.957 4.74639 -5.19936 0
M  V30 3805 C 590.667 3.49432 -4.70418 0
M  V30 3806 N 590.617 3.32099 -3.22613 0
M  V30 3807 H 593.456 6.54213 -5.71376 0
M  V30 3808 H 593.728 5.30936 -4.43503 0
M  V30 3809 H 592.86 4.55889 -6.76652 0
M  V30 3810 H 590.205 2.61715 -5.17932 0
M  V30 3811 H 589.925 5.52155 -4.41878 0
M  V30 3812 H 588.934 4.51981 -5.53374 0
M  V30 3813 H 590.768 6.25124 -6.55234 0
M  V30 3814 P 588.897 4.23843 -7.83734 0
M  V30 3815 O 588.677 4.19407 -9.29784 0
M  V30 3816 O 588.107 5.24426 -7.09156 0
M  V30 3817 O 588.647 2.7935 -7.20758 0
M  V30 3818 C 589.587 1.7299 -7.50419 0
M  V30 3819 C 588.857 0.406376 -7.57911 0
M  V30 3820 O 588.647 -0.0897726 -6.21935 0
M  V30 3821 C 587.457 0.447224 -8.1878 0
M  V30 3822 O 587.067 -0.825065 -8.71101 0
M  V30 3823 C 586.577 0.783801 -6.99623 0
M  V30 3824 C 587.287 0.0619192 -5.85967 0
M  V30 3825 N 587.237 0.790462 -4.56202 0
M  V30 3826 H 590.076 1.93423 -8.4679 0
M  V30 3827 H 590.348 1.68852 -6.70877 0
M  V30 3828 H 589.48 -0.289041 -8.15388 0
M  V30 3829 H 586.825 -0.927006 -5.72848 0
M  V30 3830 H 586.545 1.86973 -6.82036 0
M  V30 3831 H 585.554 0.403953 -7.13357 0
M  V30 3832 H 587.388 1.20599 -8.97534 0
M  V30 3833 P 585.517 -1.17771 -8.83182 0
M  V30 3834 O 585.297 -2.07206 -9.98732 0
M  V30 3835 O 584.727 0.0743816 -8.81969 0
M  V30 3836 O 585.267 -1.97652 -7.47304 0
M  V30 3837 C 586.207 -3.01133 -7.08783 0
M  V30 3838 C 585.477 -4.12613 -6.37049 0
M  V30 3839 O 585.267 -3.72827 -4.97879 0
M  V30 3840 C 584.077 -4.45085 -6.88694 0
M  V30 3841 O 583.687 -5.7877 -6.5624 0
M  V30 3842 C 583.197 -3.47817 -6.12078 0
M  V30 3843 C 583.907 -3.39414 -4.77697 0
M  V30 3844 N 583.857 -2.04199 -4.15538 0
M  V30 3845 H 586.696 -3.41248 -7.98759 0
M  V30 3846 H 586.968 -2.57728 -6.42 0
M  V30 3847 H 586.1 -5.02657 -6.42673 0
M  V30 3848 H 583.445 -4.11708 -4.08956 0
M  V30 3849 H 583.165 -2.49626 -6.61679 0
M  V30 3850 H 582.174 -3.8662 -6.00862 0
M  V30 3851 H 584.008 -4.29991 -7.97006 0
M  V30 3852 P 582.137 -6.144 -6.45285 0
M  V30 3853 O 581.917 -7.54673 -6.86199 0
M  V30 3854 O 581.347 -5.12391 -7.179 0
M  V30 3855 O 581.887 -5.99158 -4.88404 0
M  V30 3856 C 582.827 -6.60234 -3.96415 0
M  V30 3857 C 582.097 -7.08259 -2.72856 0
M  V30 3858 O 581.887 -5.9427 -1.83651 0
M  V30 3859 C 580.697 -7.64886 -2.9555 0
M  V30 3860 O 580.307 -8.53963 -1.90717 0
M  V30 3861 C 579.817 -6.4116 -2.90739 0
M  V30 3862 C 580.527 -5.55375 -1.86963 0
M  V30 3863 N 580.477 -4.09664 -2.15742 0
M  V30 3864 H 583.316 -7.45574 -4.45629 0
M  V30 3865 H 583.588 -5.86232 -3.67314 0
M  V30 3866 H 582.72 -7.84412 -2.24479 0
M  V30 3867 P 578.757 -8.7635 -1.60911 0
M  V30 3868 O 578.537 -10.1388 -1.11561 0
M  V30 3869 O 577.967 -8.36503 -2.79617 0
M  V30 3870 O 578.507 -7.71806 -0.42951 0
M  V30 3871 C 579.447 -7.67148 0.673689 0
M  V30 3872 C 578.717 -7.33374 1.95559 0
M  V30 3873 O 578.507 -5.88721 2.00726 0
M  V30 3874 C 577.317 -7.92526 2.10483 0
M  V30 3875 O 576.927 -8.02971 3.47653 0
M  V30 3876 C 576.437 -6.89602 1.41652 0
M  V30 3877 C 577.147 -5.59201 1.75185 0
M  V30 3878 N 577.097 -4.58301 0.657969 0
M  V30 3879 H 579.936 -8.65116 0.777161 0
M  V30 3880 H 580.208 -6.9022 0.46725 0
M  V30 3881 H 579.34 -7.66548 2.79458 0
M  V30 3882 H 576.685 -5.16165 2.65183 0
M  V30 3883 H 576.405 -7.06433 0.329384 0
M  V30 3884 H 575.414 -6.90926 1.82021 0
M  V30 3885 H 577.248 -8.90873 1.62657 0
M  V30 3886 P 575.377 -8.03563 3.84925 0
M  V30 3887 O 575.157 -8.85821 5.0569 0
M  V30 3888 O 574.587 -8.41101 2.65469 0
M  V30 3889 O 575.127 -6.4965 4.18908 0
M  V30 3890 C 576.067 -5.81037 5.05421 0
M  V30 3891 C 575.337 -4.78366 5.89277 0
M  V30 3892 O 575.127 -3.58302 5.08433 0
M  V30 3893 C 573.937 -5.17448 6.36119 0
M  V30 3894 O 573.547 -4.45271 7.53232 0
M  V30 3895 C 573.057 -4.74639 5.19936 0
M  V30 3896 C 573.767 -3.49432 4.70418 0
M  V30 3897 N 573.717 -3.31776 3.22945 0
M  V30 3898 H 576.556 -6.54213 5.71376 0
M  V30 3899 H 576.828 -5.30492 4.44033 0
M  V30 3900 H 575.96 -4.55889 6.76652 0
M  V30 3901 P 571.997 -4.23843 7.83734 0
M  V30 3902 O 571.777 -4.19407 9.29784 0
M  V30 3903 O 571.207 -5.24426 7.09156 0
M  V30 3904 O 571.747 -2.7935 7.20758 0
M  V30 3905 C 572.687 -1.7299 7.50419 0
M  V30 3906 C 571.957 -0.406376 7.57911 0
M  V30 3907 O 571.747 0.0897726 6.21935 0
M  V30 3908 C 570.557 -0.447224 8.1878 0
M  V30 3909 O 570.167 0.825065 8.71101 0
M  V30 3910 C 569.677 -0.783801 6.99623 0
M  V30 3911 C 570.387 -0.0619192 5.85967 0
M  V30 3912 N 570.337 -0.7859 4.56281 0
M  V30 3913 H 573.176 -1.93423 8.4679 0
M  V30 3914 H 573.448 -1.68181 6.71046 0
M  V30 3915 H 572.58 0.289041 8.15388 0
M  V30 3916 P 568.617 1.17771 8.83182 0
M  V30 3917 O 568.397 2.07206 9.98732 0
M  V30 3918 O 567.827 -0.0743816 8.81969 0
M  V30 3919 O 568.367 1.97652 7.47304 0
M  V30 3920 C 569.307 3.01133 7.08783 0
M  V30 3921 C 568.577 4.12613 6.37049 0
M  V30 3922 O 568.367 3.72827 4.97879 0
M  V30 3923 C 567.177 4.45085 6.88694 0
M  V30 3924 O 566.787 5.7877 6.5624 0
M  V30 3925 C 566.297 3.47817 6.12078 0
M  V30 3926 C 567.007 3.39414 4.77697 0
M  V30 3927 N 566.957 2.04615 4.15333 0
M  V30 3928 H 569.796 3.41248 7.98759 0
M  V30 3929 H 570.068 2.5837 6.41742 0
M  V30 3930 H 569.2 5.02657 6.42673 0
M  V30 3931 P 565.237 6.144 6.45285 0
M  V30 3932 O 565.017 7.54673 6.86199 0
M  V30 3933 O 564.447 5.12391 7.179 0
M  V30 3934 O 564.987 5.99158 4.88404 0
M  V30 3935 C 565.927 6.60234 3.96415 0
M  V30 3936 C 565.197 7.08259 2.72856 0
M  V30 3937 O 564.987 5.9427 1.83651 0
M  V30 3938 C 563.797 7.64886 2.9555 0
M  V30 3939 O 563.407 8.53963 1.90717 0
M  V30 3940 C 562.917 6.4116 2.90739 0
M  V30 3941 C 563.627 5.55375 1.86963 0
M  V30 3942 N 563.577 4.09664 2.15742 0
M  V30 3943 H 566.416 7.45574 4.45629 0
M  V30 3944 H 566.688 5.86232 3.67314 0
M  V30 3945 H 565.82 7.84412 2.24479 0
M  V30 3946 P 561.857 8.7635 1.60911 0
M  V30 3947 O 561.637 10.1388 1.11561 0
M  V30 3948 O 561.067 8.36503 2.79617 0
M  V30 3949 O 561.607 7.71806 0.42951 0
M  V30 3950 C 562.547 7.67148 -0.673689 0
M  V30 3951 C 561.817 7.33374 -1.95559 0
M  V30 3952 O 561.607 5.88721 -2.00726 0
M  V30 3953 C 560.417 7.92526 -2.10483 0
M  V30 3954 O 560.027 8.02971 -3.47653 0
M  V30 3955 C 559.537 6.89602 -1.41652 0
M  V30 3956 C 560.247 5.59201 -1.75185 0
M  V30 3957 N 560.197 4.58235 -0.662552 0
M  V30 3958 H 563.036 8.65116 -0.777161 0
M  V30 3959 H 563.308 6.90173 -0.474152 0
M  V30 3960 H 562.44 7.66548 -2.79458 0
M  V30 3961 P 558.477 8.03563 -3.84925 0
M  V30 3962 O 558.257 8.85821 -5.0569 0
M  V30 3963 O 557.687 8.41101 -2.65469 0
M  V30 3964 O 558.227 6.4965 -4.18908 0
M  V30 3965 C 559.167 5.81037 -5.05421 0
M  V30 3966 C 558.437 4.78366 -5.89277 0
M  V30 3967 O 558.227 3.58302 -5.08433 0
M  V30 3968 C 557.037 5.17448 -6.36119 0
M  V30 3969 O 556.647 4.45271 -7.53232 0
M  V30 3970 C 556.157 4.74639 -5.19936 0
M  V30 3971 C 556.867 3.49432 -4.70418 0
M  V30 3972 N 556.817 3.32099 -3.22613 0
M  V30 3973 H 559.656 6.54213 -5.71376 0
M  V30 3974 H 559.928 5.30936 -4.43503 0
M  V30 3975 H 559.06 4.55889 -6.76652 0
M  V30 3976 H 556.405 2.61715 -5.17932 0
M  V30 3977 H 556.125 5.52155 -4.41878 0
M  V30 3978 H 555.134 4.51981 -5.53374 0
M  V30 3979 H 556.968 6.25124 -6.55234 0
M  V30 3980 P 555.097 4.23843 -7.83734 0
M  V30 3981 O 554.877 4.19407 -9.29784 0
M  V30 3982 O 554.307 5.24426 -7.09156 0
M  V30 3983 O 554.847 2.7935 -7.20758 0
M  V30 3984 C 555.787 1.7299 -7.50419 0
M  V30 3985 C 555.057 0.406376 -7.57911 0
M  V30 3986 O 554.847 -0.0897726 -6.21935 0
M  V30 3987 C 553.657 0.447224 -8.1878 0
M  V30 3988 O 553.267 -0.825065 -8.71101 0
M  V30 3989 C 552.777 0.783801 -6.99623 0
M  V30 3990 C 553.487 0.0619192 -5.85967 0
M  V30 3991 N 553.437 0.7859 -4.56281 0
M  V30 3992 H 556.276 1.93423 -8.4679 0
M  V30 3993 H 556.548 1.68181 -6.71046 0
M  V30 3994 H 555.68 -0.289041 -8.15388 0
M  V30 3995 P 551.717 -1.17771 -8.83182 0
M  V30 3996 O 551.497 -2.07206 -9.98732 0
M  V30 3997 O 550.927 0.0743816 -8.81969 0
M  V30 3998 O 551.467 -1.97652 -7.47304 0
M  V30 3999 C 552.407 -3.01055 -7.08599 0
M  V30 4000 C 551.677 -4.12613 -6.37049 0
M  V30 4001 O 551.467 -3.72827 -4.97879 0
M  V30 4002 C 550.277 -4.45719 -6.88164 0
M  V30 4003 O 549.887 -5.7877 -6.5624 0
M  V30 4004 C 549.397 -3.47768 -6.11991 0
M  V30 4005 C 550.107 -3.39356 -4.77615 0
M  V30 4006 N 550.057 -2.04571 -4.15244 0
M  V30 4007 C 549.907 -1.98587 -2.78314 0
M  V30 4008 O 549.817 -2.98134 -2.08835 0
M  V30 4009 N 549.867 -0.714467 -2.24925 0
M  V30 4010 C 549.957 0.470001 -2.94169 0
M  V30 4011 O 549.907 1.55587 -2.35195 0
M  V30 4012 C 550.107 0.312541 -4.36783 0
M  V30 4013 C 550.217 1.57711 -5.16352 0
M  V30 4014 C 550.157 -0.914512 -4.92583 0
M  V30 4015 H 552.898 -3.41169 -7.98575 0
M  V30 4016 H 553.167 -2.58295 -6.41556 0
M  V30 4017 H 552.3 -5.02657 -6.42673 0
M  V30 4018 H 549.645 -4.11637 -4.08885 0
M  V30 4019 H 549.366 -2.49626 -6.61679 0
M  V30 4020 H 548.374 -3.86566 -6.00778 0
M  V30 4021 H 550.208 -4.29943 -7.96918 0
M  V30 4022 H 550.279 -1.00937 -6.00374 0
M  V30 4023 H 549.249 1.80153 -5.63503 0
M  V30 4024 H 550.986 1.4566 -5.94104 0
M  V30 4025 H 550.498 2.40664 -4.49645 0
M  V30 4026 H 549.762 -0.647622 -1.25697 0
M  V30 4027 P 548.337 -6.144 -6.45285 0
M  V30 4028 O 548.117 -7.54673 -6.86199 0
M  V30 4029 O 547.547 -5.12391 -7.179 0
M  V30 4030 O 548.087 -5.99158 -4.88404 0
M  V30 4031 C 549.027 -6.60062 -3.96313 0
M  V30 4032 C 548.297 -7.08259 -2.72856 0
M  V30 4033 O 548.087 -5.9427 -1.83651 0
M  V30 4034 C 546.897 -7.65087 -2.94749 0
M  V30 4035 O 546.507 -8.53963 -1.90717 0
M  V30 4036 C 546.017 -6.41069 -2.90698 0
M  V30 4037 C 546.727 -5.5528 -1.86931 0
M  V30 4038 N 546.677 -4.09575 -2.15696 0
M  V30 4039 C 546.527 -3.24249 -1.08435 0
M  V30 4040 O 546.437 -3.63946 0.0628747 0
M  V30 4041 N 546.487 -1.90009 -1.39973 0
M  V30 4042 C 546.577 -1.34884 -2.65614 0
M  V30 4043 O 546.527 -0.123716 -2.81728 0
M  V30 4044 C 546.727 -2.3145 -3.71736 0
M  V30 4045 C 546.837 -1.75913 -5.10438 0
M  V30 4046 C 546.777 -3.63518 -3.44754 0
M  V30 4047 H 549.518 -7.45402 -4.45526 0
M  V30 4048 H 549.787 -5.86062 -3.67208 0
M  V30 4049 H 548.92 -7.84412 -2.24479 0
M  V30 4050 H 546.265 -5.73358 -0.888409 0
M  V30 4051 H 545.986 -5.90877 -3.88583 0
M  V30 4052 H 544.994 -6.65867 -2.58821 0
M  V30 4053 H 546.828 -8.16248 -3.92006 0
M  V30 4054 H 546.899 -4.34551 -4.26383 0
M  V30 4055 H 545.869 -1.85471 -5.61775 0
M  V30 4056 H 547.606 -2.31364 -5.66257 0
M  V30 4057 H 547.118 -0.695936 -5.05229 0
M  V30 4058 H 546.382 -1.26277 -0.63625 0
M  V30 4059 P 544.957 -8.7635 -1.60911 0
M  V30 4060 O 544.737 -10.1388 -1.11561 0
M  V30 4061 O 544.167 -8.36503 -2.79617 0
M  V30 4062 O 544.707 -7.71806 -0.42951 0
M  V30 4063 C 545.647 -7.67148 0.673689 0
M  V30 4064 C 544.917 -7.33374 1.95559 0
M  V30 4065 O 544.707 -5.88721 2.00726 0
M  V30 4066 C 543.517 -7.92526 2.10483 0
M  V30 4067 O 543.127 -8.02971 3.47653 0
M  V30 4068 C 542.637 -6.89602 1.41652 0
M  V30 4069 C 543.347 -5.59201 1.75185 0
M  V30 4070 N 543.297 -4.58235 0.662552 0
M  V30 4071 H 546.136 -8.65116 0.777161 0
M  V30 4072 H 546.408 -6.90173 0.474152 0
M  V30 4073 H 545.54 -7.66548 2.79458 0
M  V30 4074 P 541.577 -8.03563 3.84925 0
M  V30 4075 O 541.357 -8.85821 5.0569 0
M  V30 4076 O 540.787 -8.41101 2.65469 0
M  V30 4077 O 541.327 -6.4965 4.18908 0
M  V30 4078 C 542.267 -5.80886 5.05289 0
M  V30 4079 C 541.537 -4.78366 5.89277 0
M  V30 4080 O 541.327 -3.58302 5.08433 0
M  V30 4081 C 540.137 -5.16748 6.36559 0
M  V30 4082 O 539.747 -4.45271 7.53232 0
M  V30 4083 C 539.257 -4.74572 5.19863 0
M  V30 4084 C 539.967 -3.49373 4.70338 0
M  V30 4085 N 539.917 -3.31704 3.22876 0
M  V30 4086 C 539.767 -2.03326 2.74871 0
M  V30 4087 O 539.677 -1.06486 3.48076 0
M  V30 4088 N 539.727 -1.91838 1.37456 0
M  V30 4089 C 539.817 -2.94295 0.462035 0
M  V30 4090 O 539.767 -2.71763 -0.752928 0
M  V30 4091 C 539.967 -4.25064 1.05249 0
M  V30 4092 C 540.077 -5.39815 0.095697 0
M  V30 4093 C 540.017 -4.40214 2.39192 0
M  V30 4094 H 542.758 -6.54063 5.71245 0
M  V30 4095 H 543.027 -5.30339 4.43905 0
M  V30 4096 H 542.16 -4.55889 6.76652 0
M  V30 4097 H 539.505 -2.6167 5.17842 0
M  V30 4098 H 539.226 -5.52155 4.41878 0
M  V30 4099 H 538.234 -4.51918 5.53297 0
M  V30 4100 H 540.068 -6.25055 6.55162 0
M  V30 4101 H 540.139 -5.39798 2.81523 0
M  V30 4102 H 539.109 -5.91593 0.0279582 0
M  V30 4103 H 540.846 -6.10038 0.450573 0
M  V30 4104 H 540.358 -5.02007 -0.89937 0
M  V30 4105 H 539.622 -0.995326 1.00435 0
M  V30 4106 P 538.197 -4.23843 7.83734 0
M  V30 4107 O 537.977 -4.19407 9.29784 0
M  V30 4108 O 537.407 -5.24426 7.09156 0
M  V30 4109 O 537.947 -2.7935 7.20758 0
M  V30 4110 C 538.887 -1.7299 7.50419 0
M  V30 4111 C 538.157 -0.406376 7.57911 0
M  V30 4112 O 537.947 0.0897726 6.21935 0
M  V30 4113 C 536.757 -0.447224 8.1878 0
M  V30 4114 O 536.367 0.825065 8.71101 0
M  V30 4115 C 535.877 -0.783801 6.99623 0
M  V30 4116 C 536.587 -0.0619192 5.85967 0
M  V30 4117 N 536.537 -0.790462 4.56202 0
M  V30 4118 H 539.376 -1.93423 8.4679 0
M  V30 4119 H 539.648 -1.68852 6.70877 0
M  V30 4120 H 538.78 0.289041 8.15388 0
M  V30 4121 H 536.125 0.927006 5.72848 0
M  V30 4122 H 535.845 -1.86973 6.82036 0
M  V30 4123 H 534.854 -0.403953 7.13357 0
M  V30 4124 H 536.688 -1.20599 8.97534 0
M  V30 4125 P 534.817 1.17771 8.83182 0
M  V30 4126 O 534.597 2.07206 9.98732 0
M  V30 4127 O 534.027 -0.0743816 8.81969 0
M  V30 4128 O 534.567 1.97652 7.47304 0
M  V30 4129 C 535.507 3.01133 7.08783 0
M  V30 4130 C 534.777 4.12613 6.37049 0
M  V30 4131 O 534.567 3.72827 4.97879 0
M  V30 4132 C 533.377 4.45085 6.88694 0
M  V30 4133 O 532.987 5.7877 6.5624 0
M  V30 4134 C 532.497 3.47817 6.12078 0
M  V30 4135 C 533.207 3.39414 4.77697 0
M  V30 4136 N 533.157 2.04615 4.15333 0
M  V30 4137 H 535.996 3.41248 7.98759 0
M  V30 4138 H 536.268 2.5837 6.41742 0
M  V30 4139 H 535.4 5.02657 6.42673 0
M  V30 4140 P 531.437 6.144 6.45285 0
M  V30 4141 O 531.217 7.54673 6.86199 0
M  V30 4142 O 530.647 5.12391 7.179 0
M  V30 4143 O 531.187 5.99158 4.88404 0
M  V30 4144 C 532.127 6.60234 3.96415 0
M  V30 4145 C 531.397 7.08259 2.72856 0
M  V30 4146 O 531.187 5.9427 1.83651 0
M  V30 4147 C 529.997 7.64886 2.9555 0
M  V30 4148 O 529.607 8.53963 1.90717 0
M  V30 4149 C 529.117 6.4116 2.90739 0
M  V30 4150 C 529.827 5.55375 1.86963 0
M  V30 4151 N 529.777 4.09664 2.15742 0
M  V30 4152 H 532.616 7.45574 4.45629 0
M  V30 4153 H 532.888 5.86232 3.67314 0
M  V30 4154 H 532.02 7.84412 2.24479 0
M  V30 4155 P 528.057 8.7635 1.60911 0
M  V30 4156 O 527.837 10.1388 1.11561 0
M  V30 4157 O 527.267 8.36503 2.79617 0
M  V30 4158 O 527.807 7.71806 0.42951 0
M  V30 4159 C 528.747 7.67148 -0.673689 0
M  V30 4160 C 528.017 7.33374 -1.95559 0
M  V30 4161 O 527.807 5.88721 -2.00726 0
M  V30 4162 C 526.617 7.92526 -2.10483 0
M  V30 4163 O 526.227 8.02971 -3.47653 0
M  V30 4164 C 525.737 6.89602 -1.41652 0
M  V30 4165 C 526.447 5.59201 -1.75185 0
M  V30 4166 N 526.397 4.58235 -0.662552 0
M  V30 4167 H 529.236 8.65116 -0.777161 0
M  V30 4168 H 529.508 6.90173 -0.474152 0
M  V30 4169 H 528.64 7.66548 -2.79458 0
M  V30 4170 P 524.677 8.03563 -3.84925 0
M  V30 4171 O 524.457 8.85821 -5.0569 0
M  V30 4172 O 523.887 8.41101 -2.65469 0
M  V30 4173 O 524.427 6.4965 -4.18908 0
M  V30 4174 C 525.367 5.80886 -5.05289 0
M  V30 4175 C 524.637 4.78366 -5.89277 0
M  V30 4176 O 524.427 3.58302 -5.08433 0
M  V30 4177 C 523.237 5.16748 -6.36559 0
M  V30 4178 O 522.847 4.45271 -7.53232 0
M  V30 4179 C 522.357 4.74572 -5.19863 0
M  V30 4180 C 523.067 3.49373 -4.70338 0
M  V30 4181 N 523.017 3.31704 -3.22876 0
M  V30 4182 C 522.867 2.03326 -2.74871 0
M  V30 4183 O 522.777 1.06486 -3.48076 0
M  V30 4184 N 522.827 1.91838 -1.37456 0
M  V30 4185 C 522.917 2.94295 -0.462035 0
M  V30 4186 C 523.067 4.25064 -1.05249 0
M  V30 4187 C 523.117 4.40214 -2.39192 0
M  V30 4188 H 525.858 6.54063 -5.71245 0
M  V30 4189 H 526.127 5.30339 -4.43905 0
M  V30 4190 H 525.26 4.55889 -6.76652 0
M  V30 4191 H 522.605 2.6167 -5.17842 0
M  V30 4192 H 522.326 5.52155 -4.41878 0
M  V30 4193 H 521.334 4.51918 -5.53297 0
M  V30 4194 H 523.168 6.25055 -6.55162 0
M  V30 4195 H 523.239 5.39798 -2.81523 0
M  V30 4196 P 521.297 4.23843 -7.83734 0
M  V30 4197 O 521.077 4.19407 -9.29784 0
M  V30 4198 O 520.507 5.24426 -7.09156 0
M  V30 4199 O 521.047 2.7935 -7.20758 0
M  V30 4200 C 521.987 1.7299 -7.50419 0
M  V30 4201 C 521.257 0.406376 -7.57911 0
M  V30 4202 O 521.047 -0.0897726 -6.21935 0
M  V30 4203 C 519.857 0.447224 -8.1878 0
M  V30 4204 O 519.467 -0.825065 -8.71101 0
M  V30 4205 C 518.977 0.783801 -6.99623 0
M  V30 4206 C 519.687 0.0619192 -5.85967 0
M  V30 4207 N 519.637 0.790462 -4.56202 0
M  V30 4208 H 522.476 1.93423 -8.4679 0
M  V30 4209 H 522.748 1.68852 -6.70877 0
M  V30 4210 H 521.88 -0.289041 -8.15388 0
M  V30 4211 H 519.225 -0.927006 -5.72848 0
M  V30 4212 H 518.945 1.86973 -6.82036 0
M  V30 4213 H 517.954 0.403953 -7.13357 0
M  V30 4214 H 519.788 1.20599 -8.97534 0
M  V30 4215 P 517.917 -1.17771 -8.83182 0
M  V30 4216 O 517.697 -2.07206 -9.98732 0
M  V30 4217 O 517.127 0.0743816 -8.81969 0
M  V30 4218 O 517.667 -1.97652 -7.47304 0
M  V30 4219 C 518.607 -3.01133 -7.08783 0
M  V30 4220 C 517.877 -4.12613 -6.37049 0
M  V30 4221 O 517.667 -3.72827 -4.97879 0
M  V30 4222 C 516.477 -4.45085 -6.88694 0
M  V30 4223 O 516.087 -5.7877 -6.5624 0
M  V30 4224 C 515.597 -3.47817 -6.12078 0
M  V30 4225 C 516.307 -3.39414 -4.77697 0
M  V30 4226 N 516.257 -2.04615 -4.15333 0
M  V30 4227 H 519.096 -3.41248 -7.98759 0
M  V30 4228 H 519.368 -2.5837 -6.41742 0
M  V30 4229 H 518.5 -5.02657 -6.42673 0
M  V30 4230 P 514.537 -6.144 -6.45285 0
M  V30 4231 O 514.317 -7.54673 -6.86199 0
M  V30 4232 O 513.747 -5.12391 -7.179 0
M  V30 4233 O 514.287 -5.99158 -4.88404 0
M  V30 4234 C 515.227 -6.60062 -3.96313 0
M  V30 4235 C 514.497 -7.08259 -2.72856 0
M  V30 4236 O 514.287 -5.9427 -1.83651 0
M  V30 4237 C 513.097 -7.65087 -2.94749 0
M  V30 4238 O 512.707 -8.53963 -1.90717 0
M  V30 4239 C 512.217 -6.41069 -2.90698 0
M  V30 4240 C 512.927 -5.5528 -1.86931 0
M  V30 4241 N 512.877 -4.09575 -2.15696 0
M  V30 4242 C 512.727 -3.24249 -1.08435 0
M  V30 4243 O 512.637 -3.63946 0.0628747 0
M  V30 4244 N 512.687 -1.90009 -1.39973 0
M  V30 4245 C 512.777 -1.34884 -2.65614 0
M  V30 4246 O 512.727 -0.123716 -2.81728 0
M  V30 4247 C 512.927 -2.3145 -3.71736 0
M  V30 4248 C 513.037 -1.75913 -5.10438 0
M  V30 4249 C 512.977 -3.63518 -3.44754 0
M  V30 4250 H 515.718 -7.45402 -4.45526 0
M  V30 4251 H 515.987 -5.86062 -3.67208 0
M  V30 4252 H 515.12 -7.84412 -2.24479 0
M  V30 4253 H 512.465 -5.73358 -0.888409 0
M  V30 4254 H 512.186 -5.90877 -3.88583 0
M  V30 4255 H 511.194 -6.65867 -2.58821 0
M  V30 4256 H 513.028 -8.16248 -3.92006 0
M  V30 4257 H 513.099 -4.34551 -4.26383 0
M  V30 4258 H 512.069 -1.85471 -5.61775 0
M  V30 4259 H 513.806 -2.31364 -5.66257 0
M  V30 4260 H 513.318 -0.695936 -5.05229 0
M  V30 4261 H 512.582 -1.26277 -0.63625 0
M  V30 4262 P 511.157 -8.7635 -1.60911 0
M  V30 4263 O 510.937 -10.1388 -1.11561 0
M  V30 4264 O 510.367 -8.36503 -2.79617 0
M  V30 4265 O 510.907 -7.71906 -0.429565 0
M  V30 4266 C 511.847 -7.67148 0.673689 0
M  V30 4267 C 511.117 -7.33666 1.94851 0
M  V30 4268 O 510.907 -5.88816 2.00759 0
M  V30 4269 C 509.717 -7.92526 2.10483 0
M  V30 4270 O 509.327 -8.03063 3.47693 0
M  V30 4271 C 508.837 -6.89602 1.41652 0
M  V30 4272 C 509.547 -5.59201 1.75185 0
M  V30 4273 N 509.497 -4.58235 0.662552 0
M  V30 4274 C 509.347 -3.24451 1.01643 0
M  V30 4275 O 509.257 -2.94958 2.21722 0
M  V30 4276 N 509.297 -2.30408 -0.165238 0
M  V30 4277 C 509.397 -2.66048 -1.25118 0
M  V30 4278 N 509.347 -1.70787 -2.16813 0
M  V30 4279 C 509.547 -4.02732 -1.64413 0
M  V30 4280 C 509.597 -4.9488 -0.63991 0
M  V30 4281 H 512.337 -8.65017 0.777072 0
M  V30 4282 H 512.607 -6.90173 0.474152 0
M  V30 4283 H 511.74 -7.66642 2.79492 0
M  V30 4284 H 509.085 -5.16254 2.65229 0
M  V30 4285 H 508.805 -7.06532 0.329431 0
M  V30 4286 H 507.814 -6.91023 1.82047 0
M  V30 4287 H 509.648 -8.90873 1.62657 0
M  V30 4288 H 509.72 -6.00104 -0.892197 0
M  V30 4289 H 509.618 -4.31733 -2.69229 0
M  V30 4290 H 509.23 -0.724835 -1.8844 0
M  V30 4291 H 509.426 -1.94716 -3.16734 0
M  V30 4292 P 507.777 -8.03563 3.84925 0
M  V30 4293 O 507.557 -8.85821 5.0569 0
M  V30 4294 O 506.987 -8.41101 2.65469 0
M  V30 4295 O 507.527 -6.49734 4.18962 0
M  V30 4296 C 508.467 -5.81037 5.05421 0
M  V30 4297 C 507.737 -4.79018 5.88876 0
M  V30 4298 O 507.527 -3.58359 5.08515 0
M  V30 4299 C 506.337 -5.17448 6.36119 0
M  V30 4300 O 505.947 -4.45322 7.53318 0
M  V30 4301 C 505.457 -4.74639 5.19936 0
M  V30 4302 C 506.167 -3.49432 4.70418 0
M  V30 4303 N 506.117 -3.31776 3.22945 0
M  V30 4304 C 505.967 -2.02742 2.72939 0
M  V30 4305 O 505.877 -1.08301 3.52749 0
M  V30 4306 N 505.917 -1.96117 1.22063 0
M  V30 4307 C 506.017 -2.8878 0.551566 0
M  V30 4308 N 505.967 -2.65609 -0.750198 0
M  V30 4309 C 506.167 -4.22457 1.03707 0
M  V30 4310 C 506.217 -4.37979 2.39113 0
M  V30 4311 H 508.957 -6.54138 5.7131 0
M  V30 4312 H 509.227 -5.30492 4.44033 0
M  V30 4313 H 508.36 -4.55945 6.76735 0
M  V30 4314 H 505.705 -2.6176 5.18021 0
M  V30 4315 H 505.425 -5.52233 4.41941 0
M  V30 4316 H 504.434 -4.52045 5.53452 0
M  V30 4317 H 506.268 -6.25124 6.55234 0
M  V30 4318 H 506.34 -5.37936 2.80552 0
M  V30 4319 H 506.238 -5.07528 0.359553 0
M  V30 4320 H 505.85 -1.69403 -1.09847 0
M  V30 4321 H 506.046 -3.43701 -1.41792 0
M  V30 4322 P 504.397 -4.23843 7.83734 0
M  V30 4323 O 504.177 -4.19407 9.29784 0
M  V30 4324 O 503.607 -5.24426 7.09156 0
M  V30 4325 O 504.147 -2.7935 7.20758 0
M  V30 4326 C 505.087 -1.7299 7.50419 0
M  V30 4327 C 504.357 -0.406376 7.57911 0
M  V30 4328 O 504.147 0.0897726 6.21935 0
M  V30 4329 C 502.957 -0.447224 8.1878 0
M  V30 4330 O 502.567 0.825065 8.71101 0
M  V30 4331 C 502.077 -0.783801 6.99623 0
M  V30 4332 C 502.787 -0.0619192 5.85967 0
M  V30 4333 N 502.737 -0.790462 4.56202 0
M  V30 4334 H 505.576 -1.93423 8.4679 0
M  V30 4335 H 505.848 -1.68852 6.70877 0
M  V30 4336 H 504.98 0.289041 8.15388 0
M  V30 4337 H 502.325 0.927006 5.72848 0
M  V30 4338 H 502.045 -1.86973 6.82036 0
M  V30 4339 H 501.054 -0.403953 7.13357 0
M  V30 4340 H 502.888 -1.20599 8.97534 0
M  V30 4341 P 501.017 1.17771 8.83182 0
M  V30 4342 O 500.797 2.07206 9.98732 0
M  V30 4343 O 500.227 -0.0743816 8.81969 0
M  V30 4344 O 500.767 1.97652 7.47304 0
M  V30 4345 C 501.707 3.01133 7.08783 0
M  V30 4346 C 500.977 4.12613 6.37049 0
M  V30 4347 O 500.767 3.72827 4.97879 0
M  V30 4348 C 499.577 4.45085 6.88694 0
M  V30 4349 O 499.187 5.7877 6.5624 0
M  V30 4350 C 498.697 3.47817 6.12078 0
M  V30 4351 C 499.407 3.39414 4.77697 0
M  V30 4352 N 499.357 2.04615 4.15333 0
M  V30 4353 H 502.196 3.41248 7.98759 0
M  V30 4354 H 502.468 2.5837 6.41742 0
M  V30 4355 H 501.6 5.02657 6.42673 0
M  V30 4356 P 497.637 6.144 6.45285 0
M  V30 4357 O 497.417 7.54673 6.86199 0
M  V30 4358 O 496.847 5.12391 7.179 0
M  V30 4359 O 497.387 5.99158 4.88404 0
M  V30 4360 C 498.327 6.60234 3.96415 0
M  V30 4361 C 497.597 7.08259 2.72856 0
M  V30 4362 O 497.387 5.9427 1.83651 0
M  V30 4363 C 496.197 7.64886 2.9555 0
M  V30 4364 O 495.807 8.53963 1.90717 0
M  V30 4365 C 495.317 6.4116 2.90739 0
M  V30 4366 C 496.027 5.55375 1.86963 0
M  V30 4367 N 495.977 4.09664 2.15742 0
M  V30 4368 H 498.816 7.45574 4.45629 0
M  V30 4369 H 499.088 5.86232 3.67314 0
M  V30 4370 H 498.22 7.84412 2.24479 0
M  V30 4371 P 494.257 8.7635 1.60911 0
M  V30 4372 O 494.037 10.1388 1.11561 0
M  V30 4373 O 493.467 8.36503 2.79617 0
M  V30 4374 O 494.007 7.71806 0.42951 0
M  V30 4375 C 494.947 7.67148 -0.673689 0
M  V30 4376 C 494.217 7.33374 -1.95559 0
M  V30 4377 O 494.007 5.88721 -2.00726 0
M  V30 4378 C 492.817 7.92526 -2.10483 0
M  V30 4379 O 492.427 8.02971 -3.47653 0
M  V30 4380 C 491.937 6.89602 -1.41652 0
M  V30 4381 C 492.647 5.59201 -1.75185 0
M  V30 4382 N 492.597 4.58235 -0.662552 0
M  V30 4383 H 495.436 8.65116 -0.777161 0
M  V30 4384 H 495.708 6.90173 -0.474152 0
M  V30 4385 H 494.84 7.66548 -2.79458 0
M  V30 4386 P 490.877 8.03563 -3.84925 0
M  V30 4387 O 490.657 8.85821 -5.0569 0
M  V30 4388 O 490.087 8.41101 -2.65469 0
M  V30 4389 O 490.627 6.49734 -4.18962 0
M  V30 4390 C 491.567 5.81037 -5.05421 0
M  V30 4391 C 490.837 4.79018 -5.88876 0
M  V30 4392 O 490.627 3.58359 -5.08515 0
M  V30 4393 C 489.437 5.17448 -6.36119 0
M  V30 4394 O 489.047 4.45322 -7.53318 0
M  V30 4395 C 488.557 4.74639 -5.19936 0
M  V30 4396 C 489.267 3.49432 -4.70418 0
M  V30 4397 N 489.217 3.31776 -3.22945 0
M  V30 4398 C 489.067 2.02742 -2.72939 0
M  V30 4399 O 488.977 1.08301 -3.52749 0
M  V30 4400 N 489.017 1.96117 -1.22063 0
M  V30 4401 C 489.117 2.8878 -0.551566 0
M  V30 4402 N 489.067 2.65609 0.750198 0
M  V30 4403 C 489.267 4.22457 -1.03707 0
M  V30 4404 C 489.317 4.37979 -2.39113 0
M  V30 4405 H 492.057 6.54138 -5.7131 0
M  V30 4406 H 492.327 5.30492 -4.44033 0
M  V30 4407 H 491.46 4.55945 -6.76735 0
M  V30 4408 H 488.805 2.6176 -5.18021 0
M  V30 4409 H 488.525 5.52233 -4.41941 0
M  V30 4410 H 487.534 4.52045 -5.53452 0
M  V30 4411 H 489.368 6.25124 -6.55234 0
M  V30 4412 H 489.44 5.37936 -2.80552 0
M  V30 4413 H 489.338 5.07528 -0.359553 0
M  V30 4414 H 488.95 1.69403 1.09847 0
M  V30 4415 H 489.146 3.43701 1.41792 0
M  V30 4416 P 487.497 4.23843 -7.83734 0
M  V30 4417 O 487.277 4.19407 -9.29784 0
M  V30 4418 O 486.707 5.24426 -7.09156 0
M  V30 4419 O 487.247 2.79386 -7.20852 0
M  V30 4420 C 488.187 1.7299 -7.50419 0
M  V30 4421 C 487.457 0.41401 -7.5797 0
M  V30 4422 O 487.247 -0.089787 -6.22035 0
M  V30 4423 C 486.057 0.447224 -8.1878 0
M  V30 4424 O 485.667 -0.825159 -8.71201 0
M  V30 4425 C 485.177 0.783801 -6.99623 0
M  V30 4426 C 485.887 0.0619192 -5.85967 0
M  V30 4427 N 485.837 0.7859 -4.56281 0
M  V30 4428 C 485.687 0.0359258 -3.39981 0
M  V30 4429 O 485.597 -1.19723 -3.49038 0
M  V30 4430 N 485.637 0.869151 -2.14025 0
M  V30 4431 C 485.737 2.01207 -2.14363 0
M  V30 4432 N 485.687 2.58978 -0.954287 0
M  V30 4433 C 485.887 2.80817 -3.32215 0
M  V30 4434 C 485.937 2.13785 -4.50884 0
M  V30 4435 H 488.677 1.93401 -8.46693 0
M  V30 4436 H 488.947 1.68181 -6.71046 0
M  V30 4437 H 488.08 -0.289076 -8.15488 0
M  V30 4438 H 485.425 -0.927166 -5.72947 0
M  V30 4439 H 485.145 1.87 -6.82132 0
M  V30 4440 H 484.154 0.404009 -7.13457 0
M  V30 4441 H 485.988 1.20599 -8.97534 0
M  V30 4442 H 486.06 2.70295 -5.43162 0
M  V30 4443 H 485.958 3.89465 -3.27406 0
M  V30 4444 H 485.57 2.01616 -0.107046 0
M  V30 4445 H 485.766 3.61403 -0.873101 0
M  V30 4446 P 484.117 -1.17771 -8.83182 0
M  V30 4447 O 483.897 -2.07206 -9.98732 0
M  V30 4448 O 483.327 0.0743816 -8.81969 0
M  V30 4449 O 483.867 -1.97652 -7.47304 0
M  V30 4450 C 484.807 -3.01133 -7.08783 0
M  V30 4451 C 484.077 -4.12613 -6.37049 0
M  V30 4452 O 483.867 -3.72827 -4.97879 0
M  V30 4453 C 482.677 -4.45085 -6.88694 0
M  V30 4454 O 482.287 -5.7877 -6.5624 0
M  V30 4455 C 481.797 -3.47817 -6.12078 0
M  V30 4456 C 482.507 -3.39414 -4.77697 0
M  V30 4457 N 482.457 -2.04615 -4.15333 0
M  V30 4458 H 485.296 -3.41248 -7.98759 0
M  V30 4459 H 485.568 -2.5837 -6.41742 0
M  V30 4460 H 484.7 -5.02657 -6.42673 0
M  V30 4461 P 480.737 -6.144 -6.45285 0
M  V30 4462 O 480.517 -7.54673 -6.86199 0
M  V30 4463 O 479.947 -5.12391 -7.179 0
M  V30 4464 O 480.487 -5.99158 -4.88404 0
M  V30 4465 C 481.427 -6.60234 -3.96415 0
M  V30 4466 C 480.697 -7.08259 -2.72856 0
M  V30 4467 O 480.487 -5.9427 -1.83651 0
M  V30 4468 C 479.297 -7.64886 -2.9555 0
M  V30 4469 O 478.907 -8.53963 -1.90717 0
M  V30 4470 C 478.417 -6.4116 -2.90739 0
M  V30 4471 C 479.127 -5.55375 -1.86963 0
M  V30 4472 N 479.077 -4.09664 -2.15742 0
M  V30 4473 H 481.916 -7.45574 -4.45629 0
M  V30 4474 H 482.188 -5.86232 -3.67314 0
M  V30 4475 H 481.32 -7.84412 -2.24479 0
M  V30 4476 P 477.357 -8.7635 -1.60911 0
M  V30 4477 O 477.137 -10.1388 -1.11561 0
M  V30 4478 O 476.567 -8.36503 -2.79617 0
M  V30 4479 O 477.107 -7.71806 -0.42951 0
M  V30 4480 C 478.047 -7.67148 0.673689 0
M  V30 4481 C 477.317 -7.33374 1.95559 0
M  V30 4482 O 477.107 -5.88721 2.00726 0
M  V30 4483 C 475.917 -7.92526 2.10483 0
M  V30 4484 O 475.527 -8.02971 3.47653 0
M  V30 4485 C 475.037 -6.89602 1.41652 0
M  V30 4486 C 475.747 -5.59201 1.75185 0
M  V30 4487 N 475.697 -4.58235 0.662552 0
M  V30 4488 H 478.536 -8.65116 0.777161 0
M  V30 4489 H 478.808 -6.90173 0.474152 0
M  V30 4490 H 477.94 -7.66548 2.79458 0
M  V30 4491 P 473.977 -8.03563 3.84925 0
M  V30 4492 O 473.757 -8.85821 5.0569 0
M  V30 4493 O 473.187 -8.41101 2.65469 0
M  V30 4494 O 473.727 -6.4965 4.18908 0
M  V30 4495 C 474.667 -5.81037 5.05421 0
M  V30 4496 C 473.937 -4.78366 5.89277 0
M  V30 4497 O 473.727 -3.58302 5.08433 0
M  V30 4498 C 472.537 -5.17448 6.36119 0
M  V30 4499 O 472.147 -4.45271 7.53232 0
M  V30 4500 C 471.657 -4.74639 5.19936 0
M  V30 4501 C 472.367 -3.49432 4.70418 0
M  V30 4502 N 472.317 -3.31776 3.22945 0
M  V30 4503 H 475.156 -6.54213 5.71376 0
M  V30 4504 H 475.428 -5.30492 4.44033 0
M  V30 4505 H 474.56 -4.55889 6.76652 0
M  V30 4506 P 470.597 -4.23843 7.83734 0
M  V30 4507 O 470.377 -4.19407 9.29784 0
M  V30 4508 O 469.807 -5.24426 7.09156 0
M  V30 4509 O 470.347 -2.7935 7.20758 0
M  V30 4510 C 471.287 -1.7299 7.50419 0
M  V30 4511 C 470.557 -0.406376 7.57911 0
M  V30 4512 O 470.347 0.0897726 6.21935 0
M  V30 4513 C 469.157 -0.447224 8.1878 0
M  V30 4514 O 468.767 0.825065 8.71101 0
M  V30 4515 C 468.277 -0.783801 6.99623 0
M  V30 4516 C 468.987 -0.0619192 5.85967 0
M  V30 4517 N 468.937 -0.7859 4.56281 0
M  V30 4518 H 471.776 -1.93423 8.4679 0
M  V30 4519 H 472.048 -1.68181 6.71046 0
M  V30 4520 H 471.18 0.289041 8.15388 0
M  V30 4521 P 467.217 1.17771 8.83182 0
M  V30 4522 O 466.997 2.07206 9.98732 0
M  V30 4523 O 466.427 -0.0743816 8.81969 0
M  V30 4524 O 466.967 1.97652 7.47304 0
M  V30 4525 C 467.907 3.01133 7.08783 0
M  V30 4526 C 467.177 4.12613 6.37049 0
M  V30 4527 O 466.967 3.72827 4.97879 0
M  V30 4528 C 465.777 4.45085 6.88694 0
M  V30 4529 O 465.387 5.7877 6.5624 0
M  V30 4530 C 464.897 3.47817 6.12078 0
M  V30 4531 C 465.607 3.39414 4.77697 0
M  V30 4532 N 465.557 2.04615 4.15333 0
M  V30 4533 H 468.396 3.41248 7.98759 0
M  V30 4534 H 468.668 2.5837 6.41742 0
M  V30 4535 H 467.8 5.02657 6.42673 0
M  V30 4536 P 463.837 6.144 6.45285 0
M  V30 4537 O 463.617 7.54673 6.86199 0
M  V30 4538 O 463.047 5.12391 7.179 0
M  V30 4539 O 463.587 5.99236 4.88467 0
M  V30 4540 C 464.527 6.60234 3.96415 0
M  V30 4541 C 463.797 7.08079 2.736 0
M  V30 4542 O 463.587 5.94365 1.8368 0
M  V30 4543 C 462.397 7.64886 2.9555 0
M  V30 4544 O 462.007 8.5406 1.90739 0
M  V30 4545 C 461.517 6.4116 2.90739 0
M  V30 4546 C 462.227 5.55375 1.86963 0
M  V30 4547 N 462.177 4.09664 2.15742 0
M  V30 4548 C 462.027 3.22231 1.08477 0
M  V30 4549 O 461.937 3.68951 -0.0600489 0
M  V30 4550 N 461.977 1.76692 1.48799 0
M  V30 4551 C 462.077 1.41695 2.57602 0
M  V30 4552 N 462.027 0.107296 2.75791 0
M  V30 4553 C 462.227 2.29178 3.69733 0
M  V30 4554 C 462.277 3.62753 3.42653 0
M  V30 4555 H 465.017 7.45488 4.45578 0
M  V30 4556 H 465.287 5.86232 3.67314 0
M  V30 4557 H 464.42 7.84508 2.24507 0
M  V30 4558 H 461.765 5.73556 0.888715 0
M  V30 4559 H 461.485 5.9096 3.88638 0
M  V30 4560 H 460.494 6.66053 2.58894 0
M  V30 4561 H 462.328 8.16339 3.92049 0
M  V30 4562 H 462.4 4.33052 4.24913 0
M  V30 4563 H 462.298 1.9103 4.71577 0
M  V30 4564 H 461.91 -0.521221 1.95056 0
M  V30 4565 H 462.106 -0.286429 3.70695 0
M  V30 4566 P 460.457 8.7635 1.60911 0
M  V30 4567 O 460.237 10.1388 1.11561 0
M  V30 4568 O 459.667 8.36503 2.79617 0
M  V30 4569 O 460.207 7.71806 0.42951 0
M  V30 4570 C 461.147 7.67148 -0.673689 0
M  V30 4571 C 460.417 7.33374 -1.95559 0
M  V30 4572 O 460.207 5.88721 -2.00726 0
M  V30 4573 C 459.017 7.92526 -2.10483 0
M  V30 4574 O 458.627 8.02971 -3.47653 0
M  V30 4575 C 458.137 6.89602 -1.41652 0
M  V30 4576 C 458.847 5.59201 -1.75185 0
M  V30 4577 N 458.797 4.58235 -0.662552 0
M  V30 4578 H 461.636 8.65116 -0.777161 0
M  V30 4579 H 461.908 6.90173 -0.474152 0
M  V30 4580 H 461.04 7.66548 -2.79458 0
M  V30 4581 P 457.077 8.03563 -3.84925 0
M  V30 4582 O 456.857 8.85821 -5.0569 0
M  V30 4583 O 456.287 8.41101 -2.65469 0
M  V30 4584 O 456.827 6.49734 -4.18962 0
M  V30 4585 C 457.767 5.81037 -5.05421 0
M  V30 4586 C 457.037 4.79018 -5.88876 0
M  V30 4587 O 456.827 3.58359 -5.08515 0
M  V30 4588 C 455.637 5.17448 -6.36119 0
M  V30 4589 O 455.247 4.45322 -7.53318 0
M  V30 4590 C 454.757 4.74639 -5.19936 0
M  V30 4591 C 455.467 3.49432 -4.70418 0
M  V30 4592 N 455.417 3.31776 -3.22945 0
M  V30 4593 C 455.267 2.02742 -2.72939 0
M  V30 4594 O 455.177 1.08301 -3.52749 0
M  V30 4595 N 455.217 1.96117 -1.22063 0
M  V30 4596 C 455.317 2.8878 -0.551566 0
M  V30 4597 N 455.267 2.65609 0.750198 0
M  V30 4598 C 455.467 4.22457 -1.03707 0
M  V30 4599 C 455.517 4.37979 -2.39113 0
M  V30 4600 H 458.257 6.54138 -5.7131 0
M  V30 4601 H 458.527 5.30492 -4.44033 0
M  V30 4602 H 457.66 4.55945 -6.76735 0
M  V30 4603 H 455.005 2.6176 -5.18021 0
M  V30 4604 H 454.725 5.52233 -4.41941 0
M  V30 4605 H 453.734 4.52045 -5.53452 0
M  V30 4606 H 455.568 6.25124 -6.55234 0
M  V30 4607 H 455.64 5.37936 -2.80552 0
M  V30 4608 H 455.538 5.07528 -0.359553 0
M  V30 4609 H 455.15 1.69403 1.09847 0
M  V30 4610 H 455.346 3.43701 1.41792 0
M  V30 4611 P 453.697 4.23843 -7.83734 0
M  V30 4612 O 453.477 4.19407 -9.29784 0
M  V30 4613 O 452.907 5.24426 -7.09156 0
M  V30 4614 O 453.447 2.79386 -7.20852 0
M  V30 4615 C 454.387 1.7299 -7.50419 0
M  V30 4616 C 453.657 0.41401 -7.5797 0
M  V30 4617 O 453.447 -0.089787 -6.22035 0
M  V30 4618 C 452.257 0.447224 -8.1878 0
M  V30 4619 O 451.867 -0.825159 -8.71201 0
M  V30 4620 C 451.377 0.783801 -6.99623 0
M  V30 4621 C 452.087 0.0619192 -5.85967 0
M  V30 4622 N 452.037 0.7859 -4.56281 0
M  V30 4623 C 451.887 0.0359258 -3.39981 0
M  V30 4624 O 451.797 -1.19723 -3.49038 0
M  V30 4625 N 451.837 0.869151 -2.14025 0
M  V30 4626 C 451.937 2.01207 -2.14363 0
M  V30 4627 N 451.887 2.58978 -0.954287 0
M  V30 4628 C 452.087 2.80817 -3.32215 0
M  V30 4629 C 452.137 2.13785 -4.50884 0
M  V30 4630 H 454.877 1.93401 -8.46693 0
M  V30 4631 H 455.147 1.68181 -6.71046 0
M  V30 4632 H 454.28 -0.289076 -8.15488 0
M  V30 4633 H 451.625 -0.927166 -5.72947 0
M  V30 4634 H 451.345 1.87 -6.82132 0
M  V30 4635 H 450.354 0.404009 -7.13457 0
M  V30 4636 H 452.188 1.20599 -8.97534 0
M  V30 4637 H 452.26 2.70295 -5.43162 0
M  V30 4638 H 452.158 3.89465 -3.27406 0
M  V30 4639 H 451.77 2.01616 -0.107046 0
M  V30 4640 H 451.966 3.61403 -0.873101 0
M  V30 4641 P 450.317 -1.17771 -8.83182 0
M  V30 4642 O 450.097 -2.07206 -9.98732 0
M  V30 4643 O 449.527 0.0743816 -8.81969 0
M  V30 4644 O 450.067 -1.97652 -7.47304 0
M  V30 4645 C 451.007 -3.01133 -7.08783 0
M  V30 4646 C 450.277 -4.12613 -6.37049 0
M  V30 4647 O 450.067 -3.72827 -4.97879 0
M  V30 4648 C 448.877 -4.45085 -6.88694 0
M  V30 4649 O 448.487 -5.7877 -6.5624 0
M  V30 4650 C 447.997 -3.47817 -6.12078 0
M  V30 4651 C 448.707 -3.39414 -4.77697 0
M  V30 4652 N 448.657 -2.04615 -4.15333 0
M  V30 4653 H 451.496 -3.41248 -7.98759 0
M  V30 4654 H 451.768 -2.5837 -6.41742 0
M  V30 4655 H 450.9 -5.02657 -6.42673 0
M  V30 4656 P 446.937 -6.144 -6.45285 0
M  V30 4657 O 446.717 -7.54673 -6.86199 0
M  V30 4658 O 446.147 -5.12391 -7.179 0
M  V30 4659 O 446.687 -5.99158 -4.88404 0
M  V30 4660 C 447.627 -6.60234 -3.96415 0
M  V30 4661 C 446.897 -7.08259 -2.72856 0
M  V30 4662 O 446.687 -5.9427 -1.83651 0
M  V30 4663 C 445.497 -7.64886 -2.9555 0
M  V30 4664 O 445.107 -8.53963 -1.90717 0
M  V30 4665 C 444.617 -6.4116 -2.90739 0
M  V30 4666 C 445.327 -5.55375 -1.86963 0
M  V30 4667 N 445.277 -4.09664 -2.15742 0
M  V30 4668 H 448.116 -7.45574 -4.45629 0
M  V30 4669 H 448.388 -5.86232 -3.67314 0
M  V30 4670 H 447.52 -7.84412 -2.24479 0
M  V30 4671 P 443.557 -8.7635 -1.60911 0
M  V30 4672 O 443.337 -10.1388 -1.11561 0
M  V30 4673 O 442.767 -8.36503 -2.79617 0
M  V30 4674 O 443.307 -7.71806 -0.42951 0
M  V30 4675 C 444.247 -7.67148 0.673689 0
M  V30 4676 C 443.517 -7.33374 1.95559 0
M  V30 4677 O 443.307 -5.88721 2.00726 0
M  V30 4678 C 442.117 -7.92526 2.10483 0
M  V30 4679 O 441.727 -8.02971 3.47653 0
M  V30 4680 C 441.237 -6.89602 1.41652 0
M  V30 4681 C 441.947 -5.59201 1.75185 0
M  V30 4682 N 441.897 -4.58235 0.662552 0
M  V30 4683 H 444.736 -8.65116 0.777161 0
M  V30 4684 H 445.008 -6.90173 0.474152 0
M  V30 4685 H 444.14 -7.66548 2.79458 0
M  V30 4686 P 440.177 -8.03563 3.84925 0
M  V30 4687 O 439.957 -8.85821 5.0569 0
M  V30 4688 O 439.387 -8.41101 2.65469 0
M  V30 4689 O 439.927 -6.49734 4.18962 0
M  V30 4690 C 440.867 -5.81037 5.05421 0
M  V30 4691 C 440.137 -4.79018 5.88876 0
M  V30 4692 O 439.927 -3.58359 5.08515 0
M  V30 4693 C 438.737 -5.17448 6.36119 0
M  V30 4694 O 438.347 -4.45322 7.53318 0
M  V30 4695 C 437.857 -4.74639 5.19936 0
M  V30 4696 C 438.567 -3.49432 4.70418 0
M  V30 4697 N 438.517 -3.31776 3.22945 0
M  V30 4698 C 438.367 -2.02742 2.72939 0
M  V30 4699 O 438.277 -1.08301 3.52749 0
M  V30 4700 N 438.317 -1.96117 1.22063 0
M  V30 4701 C 438.417 -2.8878 0.551566 0
M  V30 4702 N 438.367 -2.65609 -0.750198 0
M  V30 4703 C 438.567 -4.22457 1.03707 0
M  V30 4704 C 438.617 -4.37979 2.39113 0
M  V30 4705 H 441.357 -6.54138 5.7131 0
M  V30 4706 H 441.627 -5.30492 4.44033 0
M  V30 4707 H 440.76 -4.55945 6.76735 0
M  V30 4708 H 438.105 -2.6176 5.18021 0
M  V30 4709 H 437.825 -5.52233 4.41941 0
M  V30 4710 H 436.834 -4.52045 5.53452 0
M  V30 4711 H 438.668 -6.25124 6.55234 0
M  V30 4712 H 438.74 -5.37936 2.80552 0
M  V30 4713 H 438.638 -5.07528 0.359553 0
M  V30 4714 H 438.25 -1.69403 -1.09847 0
M  V30 4715 H 438.446 -3.43701 -1.41792 0
M  V30 4716 P 436.797 -4.23843 7.83734 0
M  V30 4717 O 436.577 -4.19407 9.29784 0
M  V30 4718 O 436.007 -5.24426 7.09156 0
M  V30 4719 O 436.547 -2.79386 7.20852 0
M  V30 4720 C 437.487 -1.7299 7.50419 0
M  V30 4721 C 436.757 -0.41401 7.5797 0
M  V30 4722 O 436.547 0.089787 6.22035 0
M  V30 4723 C 435.357 -0.447224 8.1878 0
M  V30 4724 O 434.967 0.825159 8.71201 0
M  V30 4725 C 434.477 -0.783801 6.99623 0
M  V30 4726 C 435.187 -0.0619192 5.85967 0
M  V30 4727 N 435.137 -0.7859 4.56281 0
M  V30 4728 C 434.987 -0.0359258 3.39981 0
M  V30 4729 O 434.897 1.19723 3.49038 0
M  V30 4730 N 434.937 -0.869151 2.14025 0
M  V30 4731 C 435.037 -2.01207 2.14363 0
M  V30 4732 N 434.987 -2.58978 0.954287 0
M  V30 4733 C 435.187 -2.80817 3.32215 0
M  V30 4734 C 435.237 -2.13785 4.50884 0
M  V30 4735 H 437.977 -1.93401 8.46693 0
M  V30 4736 H 438.247 -1.68181 6.71046 0
M  V30 4737 H 437.38 0.289076 8.15488 0
M  V30 4738 H 434.725 0.927166 5.72947 0
M  V30 4739 H 434.445 -1.87 6.82132 0
M  V30 4740 H 433.454 -0.404009 7.13457 0
M  V30 4741 H 435.288 -1.20599 8.97534 0
M  V30 4742 H 435.36 -2.70295 5.43162 0
M  V30 4743 H 435.258 -3.89465 3.27406 0
M  V30 4744 H 434.87 -2.01616 0.107046 0
M  V30 4745 H 435.066 -3.61403 0.873101 0
M  V30 4746 P 433.417 1.17771 8.83182 0
M  V30 4747 O 433.197 2.07206 9.98732 0
M  V30 4748 O 432.627 -0.0743816 8.81969 0
M  V30 4749 O 433.167 1.97678 7.474 0
M  V30 4750 C 434.107 3.01133 7.08783 0
M  V30 4751 C 433.377 4.1203 6.37546 0
M  V30 4752 O 433.167 3.72887 4.9796 0
M  V30 4753 C 431.977 4.45085 6.88694 0
M  V30 4754 O 431.587 5.78836 6.56315 0
M  V30 4755 C 431.097 3.47817 6.12078 0
M  V30 4756 C 431.807 3.39414 4.77697 0
M  V30 4757 N 431.757 2.04615 4.15333 0
M  V30 4758 C 431.607 1.96929 2.77162 0
M  V30 4759 O 431.517 3.02017 2.12006 0
M  V30 4760 N 431.557 0.55485 2.24237 0
M  V30 4761 C 431.657 -0.367808 2.9169 0
M  V30 4762 N 431.607 -1.53426 2.29427 0
M  V30 4763 C 431.807 -0.319148 4.33828 0
M  V30 4764 C 431.857 0.920672 4.90433 0
M  V30 4765 H 434.597 3.41209 7.98667 0
M  V30 4766 H 434.867 2.5837 6.41742 0
M  V30 4767 H 434 5.02718 6.42752 0
M  V30 4768 H 431.345 4.11779 4.09026 0
M  V30 4769 H 431.065 2.49661 6.61772 0
M  V30 4770 H 430.074 3.86674 6.00946 0
M  V30 4771 H 431.908 4.29991 7.97006 0
M  V30 4772 H 431.98 1.00589 5.98303 0
M  V30 4773 H 431.878 -1.22639 4.93799 0
M  V30 4774 H 431.49 -1.56819 1.27167 0
M  V30 4775 H 431.686 -2.41062 2.83063 0
M  V30 4776 P 430.037 6.144 6.45285 0
M  V30 4777 O 429.817 7.54673 6.86199 0
M  V30 4778 O 429.247 5.12391 7.179 0
M  V30 4779 O 429.787 5.99158 4.88404 0
M  V30 4780 C 430.727 6.60234 3.96415 0
M  V30 4781 C 429.997 7.08259 2.72856 0
M  V30 4782 O 429.787 5.9427 1.83651 0
M  V30 4783 C 428.597 7.64886 2.9555 0
M  V30 4784 O 428.207 8.53963 1.90717 0
M  V30 4785 C 427.717 6.4116 2.90739 0
M  V30 4786 C 428.427 5.55375 1.86963 0
M  V30 4787 N 428.377 4.09664 2.15742 0
M  V30 4788 H 431.216 7.45574 4.45629 0
M  V30 4789 H 431.488 5.86232 3.67314 0
M  V30 4790 H 430.62 7.84412 2.24479 0
M  V30 4791 P 426.657 8.7635 1.60911 0
M  V30 4792 O 426.437 10.1388 1.11561 0
M  V30 4793 O 425.867 8.36503 2.79617 0
M  V30 4794 O 426.407 7.71806 0.42951 0
M  V30 4795 C 427.347 7.67148 -0.673689 0
M  V30 4796 C 426.617 7.33374 -1.95559 0
M  V30 4797 O 426.407 5.88721 -2.00726 0
M  V30 4798 C 425.217 7.92526 -2.10483 0
M  V30 4799 O 424.827 8.02971 -3.47653 0
M  V30 4800 C 424.337 6.89602 -1.41652 0
M  V30 4801 C 425.047 5.59201 -1.75185 0
M  V30 4802 N 424.997 4.58235 -0.662552 0
M  V30 4803 H 427.836 8.65116 -0.777161 0
M  V30 4804 H 428.108 6.90173 -0.474152 0
M  V30 4805 H 427.24 7.66548 -2.79458 0
M  V30 4806 P 423.278 8.03563 -3.84925 0
M  V30 4807 O 423.058 8.85821 -5.0569 0
M  V30 4808 O 422.488 8.41101 -2.65469 0
M  V30 4809 O 423.028 6.49734 -4.18962 0
M  V30 4810 C 423.968 5.81037 -5.05421 0
M  V30 4811 C 423.238 4.79018 -5.88876 0
M  V30 4812 O 423.028 3.58359 -5.08515 0
M  V30 4813 C 421.838 5.17448 -6.36119 0
M  V30 4814 O 421.448 4.45322 -7.53318 0
M  V30 4815 C 420.958 4.74639 -5.19936 0
M  V30 4816 C 421.668 3.49432 -4.70418 0
M  V30 4817 N 421.618 3.31776 -3.22945 0
M  V30 4818 C 421.468 2.02742 -2.72939 0
M  V30 4819 O 421.378 1.08301 -3.52749 0
M  V30 4820 N 421.418 1.96117 -1.22063 0
M  V30 4821 C 421.518 2.8878 -0.551566 0
M  V30 4822 N 421.468 2.65609 0.750198 0
M  V30 4823 C 421.668 4.22457 -1.03707 0
M  V30 4824 C 421.718 4.37979 -2.39113 0
M  V30 4825 H 424.458 6.54138 -5.7131 0
M  V30 4826 H 424.728 5.30492 -4.44033 0
M  V30 4827 H 423.861 4.55945 -6.76735 0
M  V30 4828 H 421.206 2.6176 -5.18021 0
M  V30 4829 H 420.926 5.52233 -4.41941 0
M  V30 4830 H 419.935 4.52045 -5.53452 0
M  V30 4831 H 421.769 6.25124 -6.55234 0
M  V30 4832 H 421.841 5.37936 -2.80552 0
M  V30 4833 H 421.739 5.07528 -0.359553 0
M  V30 4834 H 421.351 1.69403 1.09847 0
M  V30 4835 H 421.547 3.43701 1.41792 0
M  V30 4836 P 419.898 4.23843 -7.83734 0
M  V30 4837 O 419.678 4.19407 -9.29784 0
M  V30 4838 O 419.108 5.24426 -7.09156 0
M  V30 4839 O 419.648 2.79386 -7.20852 0
M  V30 4840 C 420.588 1.7299 -7.50419 0
M  V30 4841 C 419.858 0.41401 -7.5797 0
M  V30 4842 O 419.648 -0.089787 -6.22035 0
M  V30 4843 C 418.458 0.447224 -8.1878 0
M  V30 4844 O 418.068 -0.825159 -8.71201 0
M  V30 4845 C 417.578 0.783801 -6.99623 0
M  V30 4846 C 418.288 0.0619192 -5.85967 0
M  V30 4847 N 418.238 0.7859 -4.56281 0
M  V30 4848 C 418.088 0.0359258 -3.39981 0
M  V30 4849 O 417.998 -1.19723 -3.49038 0
M  V30 4850 N 418.038 0.869151 -2.14025 0
M  V30 4851 C 418.138 2.01207 -2.14363 0
M  V30 4852 N 418.088 2.58978 -0.954287 0
M  V30 4853 C 418.288 2.80817 -3.32215 0
M  V30 4854 C 418.338 2.13785 -4.50884 0
M  V30 4855 H 421.078 1.93401 -8.46693 0
M  V30 4856 H 421.348 1.68181 -6.71046 0
M  V30 4857 H 420.481 -0.289076 -8.15488 0
M  V30 4858 H 417.826 -0.927166 -5.72947 0
M  V30 4859 H 417.546 1.87 -6.82132 0
M  V30 4860 H 416.555 0.404009 -7.13457 0
M  V30 4861 H 418.389 1.20599 -8.97534 0
M  V30 4862 H 418.461 2.70295 -5.43162 0
M  V30 4863 H 418.359 3.89465 -3.27406 0
M  V30 4864 H 417.971 2.01616 -0.107046 0
M  V30 4865 H 418.167 3.61403 -0.873101 0
M  V30 4866 P 416.518 -1.17771 -8.83182 0
M  V30 4867 O 416.298 -2.07206 -9.98732 0
M  V30 4868 O 415.728 0.0743816 -8.81969 0
M  V30 4869 O 416.268 -1.97652 -7.47304 0
M  V30 4870 C 417.208 -3.01055 -7.08599 0
M  V30 4871 C 416.478 -4.12613 -6.37049 0
M  V30 4872 O 416.268 -3.72827 -4.97879 0
M  V30 4873 C 415.078 -4.45719 -6.88164 0
M  V30 4874 O 414.688 -5.7877 -6.5624 0
M  V30 4875 C 414.198 -3.47768 -6.11991 0
M  V30 4876 C 414.908 -3.39356 -4.77615 0
M  V30 4877 N 414.858 -2.04571 -4.15244 0
M  V30 4878 C 414.708 -1.98587 -2.78314 0
M  V30 4879 O 414.618 -2.98134 -2.08835 0
M  V30 4880 N 414.668 -0.714467 -2.24925 0
M  V30 4881 C 414.758 0.470001 -2.94169 0
M  V30 4882 O 414.708 1.55587 -2.35195 0
M  V30 4883 C 414.908 0.312541 -4.36783 0
M  V30 4884 C 415.018 1.57711 -5.16352 0
M  V30 4885 C 414.958 -0.914512 -4.92583 0
M  V30 4886 H 417.699 -3.41169 -7.98575 0
M  V30 4887 H 417.968 -2.58295 -6.41556 0
M  V30 4888 H 417.101 -5.02657 -6.42673 0
M  V30 4889 H 414.446 -4.11637 -4.08885 0
M  V30 4890 H 414.167 -2.49626 -6.61679 0
M  V30 4891 H 413.175 -3.86566 -6.00778 0
M  V30 4892 H 415.009 -4.29943 -7.96918 0
M  V30 4893 H 415.08 -1.00937 -6.00374 0
M  V30 4894 H 414.05 1.80153 -5.63503 0
M  V30 4895 H 415.787 1.4566 -5.94104 0
M  V30 4896 H 415.299 2.40664 -4.49645 0
M  V30 4897 H 414.563 -0.647622 -1.25697 0
M  V30 4898 P 413.138 -6.144 -6.45285 0
M  V30 4899 O 412.918 -7.54673 -6.86199 0
M  V30 4900 O 412.348 -5.12391 -7.179 0
M  V30 4901 O 412.888 -5.99158 -4.88404 0
M  V30 4902 C 413.828 -6.60234 -3.96415 0
M  V30 4903 C 413.098 -7.08259 -2.72856 0
M  V30 4904 O 412.888 -5.9427 -1.83651 0
M  V30 4905 C 411.698 -7.64886 -2.9555 0
M  V30 4906 O 411.308 -8.53963 -1.90717 0
M  V30 4907 C 410.818 -6.4116 -2.90739 0
M  V30 4908 C 411.528 -5.55375 -1.86963 0
M  V30 4909 N 411.478 -4.09664 -2.15742 0
M  V30 4910 H 414.317 -7.45574 -4.45629 0
M  V30 4911 H 414.589 -5.86232 -3.67314 0
M  V30 4912 H 413.721 -7.84412 -2.24479 0
M  V30 4913 P 409.758 -8.7635 -1.60911 0
M  V30 4914 O 409.538 -10.1388 -1.11561 0
M  V30 4915 O 408.968 -8.36503 -2.79617 0
M  V30 4916 O 409.508 -7.71806 -0.42951 0
M  V30 4917 C 410.448 -7.66948 0.673514 0
M  V30 4918 C 409.718 -7.33374 1.95559 0
M  V30 4919 O 409.508 -5.88721 2.00726 0
M  V30 4920 C 408.318 -7.92218 2.1125 0
M  V30 4921 O 407.928 -8.02971 3.47653 0
M  V30 4922 C 407.438 -6.89504 1.41631 0
M  V30 4923 C 408.148 -5.59106 1.75155 0
M  V30 4924 N 408.098 -4.58136 0.662409 0
M  V30 4925 C 407.948 -3.26059 1.02863 0
M  V30 4926 O 407.858 -2.90743 2.19009 0
M  V30 4927 N 407.908 -2.35995 -0.0155585 0
M  V30 4928 C 407.998 -2.65248 -1.35603 0
M  V30 4929 O 407.948 -1.75605 -2.20651 0
M  V30 4930 C 408.148 -4.05747 -1.64698 0
M  V30 4931 C 408.258 -4.42345 -3.09553 0
M  V30 4932 C 408.198 -4.96734 -0.652411 0
M  V30 4933 H 410.939 -8.64917 0.776982 0
M  V30 4934 H 411.208 -6.89974 0.474015 0
M  V30 4935 H 410.341 -7.66548 2.79458 0
M  V30 4936 H 407.686 -5.16076 2.65138 0
M  V30 4937 H 407.407 -7.06433 0.329384 0
M  V30 4938 H 406.415 -6.90829 1.81996 0
M  V30 4939 H 408.249 -8.90774 1.62639 0
M  V30 4940 H 408.32 -6.02181 -0.895285 0
M  V30 4941 H 407.29 -4.80252 -3.45468 0
M  V30 4942 H 409.027 -5.20015 -3.22119 0
M  V30 4943 H 408.539 -3.53269 -3.67833 0
M  V30 4944 H 407.803 -1.39558 0.227499 0
M  V30 4945 P 406.378 -8.03563 3.84925 0
M  V30 4946 O 406.158 -8.85821 5.0569 0
M  V30 4947 O 405.588 -8.41101 2.65469 0
M  V30 4948 O 406.128 -6.49734 4.18962 0
M  V30 4949 C 407.068 -5.81037 5.05421 0
M  V30 4950 C 406.338 -4.79018 5.88876 0
M  V30 4951 O 406.128 -3.58359 5.08515 0
M  V30 4952 C 404.938 -5.17448 6.36119 0
M  V30 4953 O 404.548 -4.45322 7.53318 0
M  V30 4954 C 404.058 -4.74639 5.19936 0
M  V30 4955 C 404.768 -3.49432 4.70418 0
M  V30 4956 N 404.718 -3.31776 3.22945 0
M  V30 4957 C 404.568 -2.02742 2.72939 0
M  V30 4958 O 404.478 -1.08301 3.52749 0
M  V30 4959 N 404.518 -1.96117 1.22063 0
M  V30 4960 C 404.618 -2.8878 0.551566 0
M  V30 4961 N 404.568 -2.65609 -0.750198 0
M  V30 4962 C 404.768 -4.22457 1.03707 0
M  V30 4963 C 404.818 -4.37979 2.39113 0
M  V30 4964 H 407.558 -6.54138 5.7131 0
M  V30 4965 H 407.828 -5.30492 4.44033 0
M  V30 4966 H 406.961 -4.55945 6.76735 0
M  V30 4967 H 404.306 -2.6176 5.18021 0
M  V30 4968 H 404.026 -5.52233 4.41941 0
M  V30 4969 H 403.035 -4.52045 5.53452 0
M  V30 4970 H 404.869 -6.25124 6.55234 0
M  V30 4971 H 404.941 -5.37936 2.80552 0
M  V30 4972 H 404.839 -5.07528 0.359553 0
M  V30 4973 H 404.451 -1.69403 -1.09847 0
M  V30 4974 H 404.647 -3.43701 -1.41792 0
M  V30 4975 P 402.998 -4.23843 7.83734 0
M  V30 4976 O 402.778 -4.19407 9.29784 0
M  V30 4977 O 402.208 -5.24426 7.09156 0
M  V30 4978 O 402.748 -2.79386 7.20852 0
M  V30 4979 C 403.688 -1.7299 7.50419 0
M  V30 4980 C 402.958 -0.41401 7.5797 0
M  V30 4981 O 402.748 0.089787 6.22035 0
M  V30 4982 C 401.558 -0.447224 8.1878 0
M  V30 4983 O 401.168 0.825159 8.71201 0
M  V30 4984 C 400.678 -0.783801 6.99623 0
M  V30 4985 C 401.388 -0.0619192 5.85967 0
M  V30 4986 N 401.338 -0.7859 4.56281 0
M  V30 4987 C 401.188 -0.0359258 3.39981 0
M  V30 4988 O 401.098 1.19723 3.49038 0
M  V30 4989 N 401.138 -0.869151 2.14025 0
M  V30 4990 C 401.238 -2.01207 2.14363 0
M  V30 4991 N 401.188 -2.58978 0.954287 0
M  V30 4992 C 401.388 -2.80817 3.32215 0
M  V30 4993 C 401.438 -2.13785 4.50884 0
M  V30 4994 H 404.178 -1.93401 8.46693 0
M  V30 4995 H 404.448 -1.68181 6.71046 0
M  V30 4996 H 403.581 0.289076 8.15488 0
M  V30 4997 H 400.926 0.927166 5.72947 0
M  V30 4998 H 400.646 -1.87 6.82132 0
M  V30 4999 H 399.655 -0.404009 7.13457 0
M  V30 5000 H 401.489 -1.20599 8.97534 0
M  V30 5001 H 401.561 -2.70295 5.43162 0
M  V30 5002 H 401.459 -3.89465 3.27406 0
M  V30 5003 H 401.071 -2.01616 0.107046 0
M  V30 5004 H 401.267 -3.61403 0.873101 0
M  V30 5005 P 399.618 1.17771 8.83182 0
M  V30 5006 O 399.398 2.07206 9.98732 0
M  V30 5007 O 398.828 -0.0743816 8.81969 0
M  V30 5008 O 399.368 1.97678 7.474 0
M  V30 5009 C 400.308 3.01133 7.08783 0
M  V30 5010 C 399.578 4.1203 6.37546 0
M  V30 5011 O 399.368 3.72887 4.9796 0
M  V30 5012 C 398.178 4.45085 6.88694 0
M  V30 5013 O 397.788 5.78836 6.56315 0
M  V30 5014 C 397.298 3.47817 6.12078 0
M  V30 5015 C 398.008 3.39414 4.77697 0
M  V30 5016 N 397.958 2.04615 4.15333 0
M  V30 5017 C 397.808 1.96929 2.77162 0
M  V30 5018 O 397.718 3.02017 2.12006 0
M  V30 5019 N 397.758 0.55485 2.24237 0
M  V30 5020 C 397.858 -0.367808 2.9169 0
M  V30 5021 N 397.808 -1.53426 2.29427 0
M  V30 5022 C 398.008 -0.319148 4.33828 0
M  V30 5023 C 398.058 0.920672 4.90433 0
M  V30 5024 H 400.798 3.41209 7.98667 0
M  V30 5025 H 401.068 2.5837 6.41742 0
M  V30 5026 H 400.201 5.02718 6.42752 0
M  V30 5027 H 397.546 4.11779 4.09026 0
M  V30 5028 H 397.266 2.49661 6.61772 0
M  V30 5029 H 396.275 3.86674 6.00946 0
M  V30 5030 H 398.109 4.29991 7.97006 0
M  V30 5031 H 398.181 1.00589 5.98303 0
M  V30 5032 H 398.079 -1.22639 4.93799 0
M  V30 5033 H 397.691 -1.56819 1.27167 0
M  V30 5034 H 397.887 -2.41062 2.83063 0
M  V30 5035 P 396.238 6.144 6.45285 0
M  V30 5036 O 396.018 7.54673 6.86199 0
M  V30 5037 O 395.448 5.12391 7.179 0
M  V30 5038 O 395.988 5.99158 4.88404 0
M  V30 5039 C 396.928 6.60234 3.96415 0
M  V30 5040 C 396.198 7.08259 2.72856 0
M  V30 5041 O 395.988 5.9427 1.83651 0
M  V30 5042 C 394.798 7.64886 2.9555 0
M  V30 5043 O 394.408 8.53963 1.90717 0
M  V30 5044 C 393.918 6.4116 2.90739 0
M  V30 5045 C 394.628 5.55375 1.86963 0
M  V30 5046 N 394.578 4.09664 2.15742 0
M  V30 5047 H 397.417 7.45574 4.45629 0
M  V30 5048 H 397.689 5.86232 3.67314 0
M  V30 5049 H 396.821 7.84412 2.24479 0
M  V30 5050 P 392.858 8.7635 1.60911 0
M  V30 5051 O 392.638 10.1388 1.11561 0
M  V30 5052 O 392.068 8.36503 2.79617 0
M  V30 5053 O 392.608 7.71806 0.42951 0
M  V30 5054 C 393.548 7.66948 -0.673514 0
M  V30 5055 C 392.818 7.33374 -1.95559 0
M  V30 5056 O 392.608 5.88721 -2.00726 0
M  V30 5057 C 391.418 7.92218 -2.1125 0
M  V30 5058 O 391.028 8.02971 -3.47653 0
M  V30 5059 C 390.538 6.89504 -1.41631 0
M  V30 5060 C 391.248 5.59106 -1.75155 0
M  V30 5061 N 391.198 4.58136 -0.662409 0
M  V30 5062 C 391.048 3.26059 -1.02863 0
M  V30 5063 O 390.958 2.90743 -2.19009 0
M  V30 5064 N 391.008 2.35995 0.0155585 0
M  V30 5065 C 391.098 2.65248 1.35603 0
M  V30 5066 C 391.248 4.05747 1.64698 0
M  V30 5067 C 391.298 4.96734 0.652411 0
M  V30 5068 H 394.039 8.64917 -0.776982 0
M  V30 5069 H 394.308 6.89974 -0.474015 0
M  V30 5070 H 393.441 7.66548 -2.79458 0
M  V30 5071 H 390.786 5.16076 -2.65138 0
M  V30 5072 H 390.507 7.06433 -0.329384 0
M  V30 5073 H 389.515 6.90829 -1.81996 0
M  V30 5074 H 391.349 8.90774 -1.62639 0
M  V30 5075 H 391.42 6.02181 0.895285 0
M  V30 5076 P 389.478 8.03563 -3.84925 0
M  V30 5077 O 389.258 8.85821 -5.0569 0
M  V30 5078 O 388.688 8.41101 -2.65469 0
M  V30 5079 O 389.228 6.49734 -4.18962 0
M  V30 5080 C 390.168 5.81037 -5.05421 0
M  V30 5081 C 389.438 4.79018 -5.88876 0
M  V30 5082 O 389.228 3.58359 -5.08515 0
M  V30 5083 C 388.038 5.17448 -6.36119 0
M  V30 5084 O 387.648 4.45322 -7.53318 0
M  V30 5085 C 387.158 4.74639 -5.19936 0
M  V30 5086 C 387.868 3.49432 -4.70418 0
M  V30 5087 N 387.818 3.31776 -3.22945 0
M  V30 5088 C 387.668 2.02742 -2.72939 0
M  V30 5089 O 387.578 1.08301 -3.52749 0
M  V30 5090 N 387.618 1.96117 -1.22063 0
M  V30 5091 C 387.718 2.8878 -0.551566 0
M  V30 5092 N 387.668 2.65609 0.750198 0
M  V30 5093 C 387.868 4.22457 -1.03707 0
M  V30 5094 C 387.918 4.37979 -2.39113 0
M  V30 5095 H 390.658 6.54138 -5.7131 0
M  V30 5096 H 390.928 5.30492 -4.44033 0
M  V30 5097 H 390.061 4.55945 -6.76735 0
M  V30 5098 H 387.406 2.6176 -5.18021 0
M  V30 5099 H 387.126 5.52233 -4.41941 0
M  V30 5100 H 386.135 4.52045 -5.53452 0
M  V30 5101 H 387.969 6.25124 -6.55234 0
M  V30 5102 H 388.041 5.37936 -2.80552 0
M  V30 5103 H 387.939 5.07528 -0.359553 0
M  V30 5104 H 387.551 1.69403 1.09847 0
M  V30 5105 H 387.747 3.43701 1.41792 0
M  V30 5106 P 386.098 4.23843 -7.83734 0
M  V30 5107 O 385.878 4.19407 -9.29784 0
M  V30 5108 O 385.308 5.24426 -7.09156 0
M  V30 5109 O 385.848 2.79386 -7.20852 0
M  V30 5110 C 386.788 1.7299 -7.50419 0
M  V30 5111 C 386.058 0.41401 -7.5797 0
M  V30 5112 O 385.848 -0.089787 -6.22035 0
M  V30 5113 C 384.658 0.447224 -8.1878 0
M  V30 5114 O 384.268 -0.825159 -8.71201 0
M  V30 5115 C 383.778 0.783801 -6.99623 0
M  V30 5116 C 384.488 0.0619192 -5.85967 0
M  V30 5117 N 384.438 0.7859 -4.56281 0
M  V30 5118 C 384.288 0.0359258 -3.39981 0
M  V30 5119 O 384.198 -1.19723 -3.49038 0
M  V30 5120 N 384.238 0.869151 -2.14025 0
M  V30 5121 C 384.338 2.01207 -2.14363 0
M  V30 5122 N 384.288 2.58978 -0.954287 0
M  V30 5123 C 384.488 2.80817 -3.32215 0
M  V30 5124 C 384.538 2.13785 -4.50884 0
M  V30 5125 H 387.278 1.93401 -8.46693 0
M  V30 5126 H 387.548 1.68181 -6.71046 0
M  V30 5127 H 386.681 -0.289076 -8.15488 0
M  V30 5128 H 384.026 -0.927166 -5.72947 0
M  V30 5129 H 383.746 1.87 -6.82132 0
M  V30 5130 H 382.755 0.404009 -7.13457 0
M  V30 5131 H 384.589 1.20599 -8.97534 0
M  V30 5132 H 384.661 2.70295 -5.43162 0
M  V30 5133 H 384.559 3.89465 -3.27406 0
M  V30 5134 H 384.171 2.01616 -0.107046 0
M  V30 5135 H 384.367 3.61403 -0.873101 0
M  V30 5136 P 382.718 -1.17771 -8.83182 0
M  V30 5137 O 382.498 -2.07206 -9.98732 0
M  V30 5138 O 381.928 0.0743816 -8.81969 0
M  V30 5139 O 382.468 -1.97652 -7.47304 0
M  V30 5140 C 383.408 -3.01133 -7.08783 0
M  V30 5141 C 382.678 -4.12613 -6.37049 0
M  V30 5142 O 382.468 -3.72827 -4.97879 0
M  V30 5143 C 381.278 -4.45085 -6.88694 0
M  V30 5144 O 380.888 -5.7877 -6.5624 0
M  V30 5145 C 380.398 -3.47817 -6.12078 0
M  V30 5146 C 381.108 -3.39414 -4.77697 0
M  V30 5147 N 381.058 -2.04615 -4.15333 0
M  V30 5148 H 383.897 -3.41248 -7.98759 0
M  V30 5149 H 384.169 -2.5837 -6.41742 0
M  V30 5150 H 383.301 -5.02657 -6.42673 0
M  V30 5151 P 379.338 -6.144 -6.45285 0
M  V30 5152 O 379.118 -7.54673 -6.86199 0
M  V30 5153 O 378.548 -5.12391 -7.179 0
M  V30 5154 O 379.088 -5.99158 -4.88404 0
M  V30 5155 C 380.028 -6.60234 -3.96415 0
M  V30 5156 C 379.298 -7.08259 -2.72856 0
M  V30 5157 O 379.088 -5.9427 -1.83651 0
M  V30 5158 C 377.898 -7.64886 -2.9555 0
M  V30 5159 O 377.508 -8.53963 -1.90717 0
M  V30 5160 C 377.018 -6.4116 -2.90739 0
M  V30 5161 C 377.728 -5.55375 -1.86963 0
M  V30 5162 N 377.678 -4.09664 -2.15742 0
M  V30 5163 H 380.517 -7.45574 -4.45629 0
M  V30 5164 H 380.789 -5.86232 -3.67314 0
M  V30 5165 H 379.921 -7.84412 -2.24479 0
M  V30 5166 P 375.958 -8.7635 -1.60911 0
M  V30 5167 O 375.738 -10.1388 -1.11561 0
M  V30 5168 O 375.168 -8.36503 -2.79617 0
M  V30 5169 O 375.708 -7.71806 -0.42951 0
M  V30 5170 C 376.648 -7.67148 0.673689 0
M  V30 5171 C 375.918 -7.33374 1.95559 0
M  V30 5172 O 375.708 -5.88721 2.00726 0
M  V30 5173 C 374.518 -7.92526 2.10483 0
M  V30 5174 O 374.128 -8.02971 3.47653 0
M  V30 5175 C 373.638 -6.89602 1.41652 0
M  V30 5176 C 374.348 -5.59201 1.75185 0
M  V30 5177 N 374.298 -4.58235 0.662552 0
M  V30 5178 H 377.137 -8.65116 0.777161 0
M  V30 5179 H 377.409 -6.90173 0.474152 0
M  V30 5180 H 376.541 -7.66548 2.79458 0
M  V30 5181 P 372.578 -8.03563 3.84925 0
M  V30 5182 O 372.358 -8.85821 5.0569 0
M  V30 5183 O 371.788 -8.41101 2.65469 0
M  V30 5184 O 372.328 -6.4965 4.18908 0
M  V30 5185 C 373.268 -5.81037 5.05421 0
M  V30 5186 C 372.538 -4.78366 5.89277 0
M  V30 5187 O 372.328 -3.58302 5.08433 0
M  V30 5188 C 371.138 -5.17448 6.36119 0
M  V30 5189 O 370.748 -4.45271 7.53232 0
M  V30 5190 C 370.258 -4.74639 5.19936 0
M  V30 5191 C 370.968 -3.49432 4.70418 0
M  V30 5192 N 370.918 -3.31776 3.22945 0
M  V30 5193 H 373.757 -6.54213 5.71376 0
M  V30 5194 H 374.029 -5.30492 4.44033 0
M  V30 5195 H 373.161 -4.55889 6.76652 0
M  V30 5196 P 369.198 -4.23843 7.83734 0
M  V30 5197 O 368.978 -4.19407 9.29784 0
M  V30 5198 O 368.408 -5.24426 7.09156 0
M  V30 5199 O 368.948 -2.7935 7.20758 0
M  V30 5200 C 369.888 -1.7299 7.50419 0
M  V30 5201 C 369.158 -0.406376 7.57911 0
M  V30 5202 O 368.948 0.0897726 6.21935 0
M  V30 5203 C 367.758 -0.447224 8.1878 0
M  V30 5204 O 367.368 0.825065 8.71101 0
M  V30 5205 C 366.878 -0.783801 6.99623 0
M  V30 5206 C 367.588 -0.0619192 5.85967 0
M  V30 5207 N 367.538 -0.790462 4.56202 0
M  V30 5208 C 367.618 -2.13895 4.34171 0
M  V30 5209 N 367.548 -2.46449 3.08687 0
M  V30 5210 C 367.398 -1.2525 2.43697 0
M  V30 5211 C 367.268 -0.914535 1.07318 0
M  V30 5212 N 367.258 -1.80782 0.0887348 0
M  V30 5213 N 367.148 0.386745 0.768133 0
M  V30 5214 C 367.158 1.28096 1.75159 0
M  V30 5215 N 367.278 1.09708 3.04861 0
M  V30 5216 C 367.398 -0.214857 3.32306 0
M  V30 5217 H 370.377 -1.93423 8.4679 0
M  V30 5218 H 370.649 -1.68852 6.70877 0
M  V30 5219 H 369.781 0.289041 8.15388 0
M  V30 5220 H 367.126 0.927006 5.72848 0
M  V30 5221 H 366.846 -1.86973 6.82036 0
M  V30 5222 H 365.855 -0.403953 7.13357 0
M  V30 5223 H 367.689 -1.20599 8.97534 0
M  V30 5224 H 367.73 -2.86846 5.14318 0
M  V30 5225 H 367.349 -2.81082 0.302037 0
M  V30 5226 H 367.16 -1.49688 -0.889064 0
M  V30 5227 H 367.052 2.31317 1.43855 0
M  V30 5228 P 365.818 1.17771 8.83182 0
M  V30 5229 O 365.598 2.07206 9.98732 0
M  V30 5230 O 365.028 -0.0743816 8.81969 0
M  V30 5231 O 365.568 1.97678 7.474 0
M  V30 5232 C 366.508 3.01133 7.08783 0
M  V30 5233 C 365.778 4.1203 6.37546 0
M  V30 5234 O 365.568 3.72887 4.9796 0
M  V30 5235 C 364.378 4.45085 6.88694 0
M  V30 5236 O 363.988 5.78836 6.56315 0
M  V30 5237 C 363.498 3.47817 6.12078 0
M  V30 5238 C 364.208 3.39414 4.77697 0
M  V30 5239 N 364.158 2.04615 4.15333 0
M  V30 5240 C 364.008 1.96929 2.77162 0
M  V30 5241 O 363.918 3.02017 2.12006 0
M  V30 5242 N 363.958 0.55485 2.24237 0
M  V30 5243 C 364.058 -0.367808 2.9169 0
M  V30 5244 N 364.008 -1.53426 2.29427 0
M  V30 5245 C 364.208 -0.319148 4.33828 0
M  V30 5246 C 364.258 0.920672 4.90433 0
M  V30 5247 H 366.998 3.41209 7.98667 0
M  V30 5248 H 367.268 2.5837 6.41742 0
M  V30 5249 H 366.401 5.02718 6.42752 0
M  V30 5250 H 363.746 4.11779 4.09026 0
M  V30 5251 H 363.466 2.49661 6.61772 0
M  V30 5252 H 362.475 3.86674 6.00946 0
M  V30 5253 H 364.309 4.29991 7.97006 0
M  V30 5254 H 364.381 1.00589 5.98303 0
M  V30 5255 H 364.279 -1.22639 4.93799 0
M  V30 5256 H 363.891 -1.56819 1.27167 0
M  V30 5257 H 364.087 -2.41062 2.83063 0
M  V30 5258 P 362.438 6.144 6.45285 0
M  V30 5259 O 362.218 7.54673 6.86199 0
M  V30 5260 O 361.648 5.12391 7.179 0
M  V30 5261 O 362.188 5.99236 4.88467 0
M  V30 5262 C 363.128 6.60234 3.96415 0
M  V30 5263 C 362.398 7.08079 2.736 0
M  V30 5264 O 362.188 5.94365 1.8368 0
M  V30 5265 C 360.998 7.64886 2.9555 0
M  V30 5266 O 360.608 8.5406 1.90739 0
M  V30 5267 C 360.118 6.4116 2.90739 0
M  V30 5268 C 360.828 5.55375 1.86963 0
M  V30 5269 N 360.778 4.09664 2.15742 0
M  V30 5270 C 360.628 3.22231 1.08477 0
M  V30 5271 O 360.538 3.68951 -0.0600489 0
M  V30 5272 N 360.578 1.76692 1.48799 0
M  V30 5273 C 360.678 1.41695 2.57602 0
M  V30 5274 N 360.628 0.107296 2.75791 0
M  V30 5275 C 360.828 2.29178 3.69733 0
M  V30 5276 C 360.878 3.62753 3.42653 0
M  V30 5277 H 363.618 7.45488 4.45578 0
M  V30 5278 H 363.888 5.86232 3.67314 0
M  V30 5279 H 363.021 7.84508 2.24507 0
M  V30 5280 H 360.366 5.73556 0.888715 0
M  V30 5281 H 360.086 5.9096 3.88638 0
M  V30 5282 H 359.095 6.66053 2.58894 0
M  V30 5283 H 360.929 8.16339 3.92049 0
M  V30 5284 H 361.001 4.33052 4.24913 0
M  V30 5285 H 360.899 1.9103 4.71577 0
M  V30 5286 H 360.511 -0.521221 1.95056 0
M  V30 5287 H 360.707 -0.286429 3.70695 0
M  V30 5288 P 359.058 8.7635 1.60911 0
M  V30 5289 O 358.838 10.1388 1.11561 0
M  V30 5290 O 358.268 8.36503 2.79617 0
M  V30 5291 O 358.808 7.71806 0.42951 0
M  V30 5292 C 359.748 7.67148 -0.673689 0
M  V30 5293 C 359.018 7.33374 -1.95559 0
M  V30 5294 O 358.808 5.88721 -2.00726 0
M  V30 5295 C 357.618 7.92526 -2.10483 0
M  V30 5296 O 357.228 8.02971 -3.47653 0
M  V30 5297 C 356.738 6.89602 -1.41652 0
M  V30 5298 C 357.448 5.59201 -1.75185 0
M  V30 5299 N 357.398 4.58235 -0.662552 0
M  V30 5300 H 360.237 8.65116 -0.777161 0
M  V30 5301 H 360.509 6.90173 -0.474152 0
M  V30 5302 H 359.641 7.66548 -2.79458 0
M  V30 5303 P 355.678 8.03563 -3.84925 0
M  V30 5304 O 355.458 8.85821 -5.0569 0
M  V30 5305 O 354.888 8.41101 -2.65469 0
M  V30 5306 O 355.428 6.4965 -4.18908 0
M  V30 5307 C 356.368 5.81037 -5.05421 0
M  V30 5308 C 355.638 4.78366 -5.89277 0
M  V30 5309 O 355.428 3.58302 -5.08433 0
M  V30 5310 C 354.238 5.17448 -6.36119 0
M  V30 5311 O 353.848 4.45271 -7.53232 0
M  V30 5312 C 353.358 4.74639 -5.19936 0
M  V30 5313 C 354.068 3.49432 -4.70418 0
M  V30 5314 N 354.018 3.31776 -3.22945 0
M  V30 5315 H 356.857 6.54213 -5.71376 0
M  V30 5316 H 357.129 5.30492 -4.44033 0
M  V30 5317 H 356.261 4.55889 -6.76652 0
M  V30 5318 P 352.298 4.23843 -7.83734 0
M  V30 5319 O 352.078 4.19407 -9.29784 0
M  V30 5320 O 351.508 5.24426 -7.09156 0
M  V30 5321 O 352.048 2.7935 -7.20758 0
M  V30 5322 C 352.988 1.7299 -7.50419 0
M  V30 5323 C 352.258 0.406376 -7.57911 0
M  V30 5324 O 352.048 -0.0897726 -6.21935 0
M  V30 5325 C 350.858 0.447224 -8.1878 0
M  V30 5326 O 350.468 -0.825065 -8.71101 0
M  V30 5327 C 349.978 0.783801 -6.99623 0
M  V30 5328 C 350.688 0.0619192 -5.85967 0
M  V30 5329 N 350.638 0.7859 -4.56281 0
M  V30 5330 H 353.477 1.93423 -8.4679 0
M  V30 5331 H 353.749 1.68181 -6.71046 0
M  V30 5332 H 352.881 -0.289041 -8.15388 0
M  V30 5333 P 348.918 -1.17771 -8.83182 0
M  V30 5334 O 348.698 -2.07206 -9.98732 0
M  V30 5335 O 348.128 0.0743816 -8.81969 0
M  V30 5336 O 348.668 -1.97652 -7.47304 0
M  V30 5337 C 349.608 -3.01133 -7.08783 0
M  V30 5338 C 348.878 -4.12613 -6.37049 0
M  V30 5339 O 348.668 -3.72827 -4.97879 0
M  V30 5340 C 347.478 -4.45085 -6.88694 0
M  V30 5341 O 347.088 -5.7877 -6.5624 0
M  V30 5342 C 346.598 -3.47817 -6.12078 0
M  V30 5343 C 347.308 -3.39414 -4.77697 0
M  V30 5344 N 347.258 -2.04615 -4.15333 0
M  V30 5345 H 350.097 -3.41248 -7.98759 0
M  V30 5346 H 350.369 -2.5837 -6.41742 0
M  V30 5347 H 349.501 -5.02657 -6.42673 0
M  V30 5348 P 345.538 -6.144 -6.45285 0
M  V30 5349 O 345.318 -7.54673 -6.86199 0
M  V30 5350 O 344.748 -5.12391 -7.179 0
M  V30 5351 O 345.288 -5.99158 -4.88404 0
M  V30 5352 C 346.228 -6.60234 -3.96415 0
M  V30 5353 C 345.498 -7.08259 -2.72856 0
M  V30 5354 O 345.288 -5.9427 -1.83651 0
M  V30 5355 C 344.098 -7.64886 -2.9555 0
M  V30 5356 O 343.708 -8.53963 -1.90717 0
M  V30 5357 C 343.218 -6.4116 -2.90739 0
M  V30 5358 C 343.928 -5.55375 -1.86963 0
M  V30 5359 N 343.878 -4.09664 -2.15742 0
M  V30 5360 H 346.717 -7.45574 -4.45629 0
M  V30 5361 H 346.989 -5.86232 -3.67314 0
M  V30 5362 H 346.121 -7.84412 -2.24479 0
M  V30 5363 P 342.158 -8.7635 -1.60911 0
M  V30 5364 O 341.938 -10.1388 -1.11561 0
M  V30 5365 O 341.368 -8.36503 -2.79617 0
M  V30 5366 O 341.908 -7.71806 -0.42951 0
M  V30 5367 C 342.848 -7.67148 0.673689 0
M  V30 5368 C 342.118 -7.33374 1.95559 0
M  V30 5369 O 341.908 -5.88721 2.00726 0
M  V30 5370 C 340.718 -7.92526 2.10483 0
M  V30 5371 O 340.328 -8.02971 3.47653 0
M  V30 5372 C 339.838 -6.89602 1.41652 0
M  V30 5373 C 340.548 -5.59201 1.75185 0
M  V30 5374 N 340.498 -4.58235 0.662552 0
M  V30 5375 H 343.337 -8.65116 0.777161 0
M  V30 5376 H 343.609 -6.90173 0.474152 0
M  V30 5377 H 342.741 -7.66548 2.79458 0
M  V30 5378 P 338.778 -8.03563 3.84925 0
M  V30 5379 O 338.558 -8.85821 5.0569 0
M  V30 5380 O 337.988 -8.41101 2.65469 0
M  V30 5381 O 338.528 -6.4965 4.18908 0
M  V30 5382 C 339.468 -5.81037 5.05421 0
M  V30 5383 C 338.738 -4.78366 5.89277 0
M  V30 5384 O 338.528 -3.58302 5.08433 0
M  V30 5385 C 337.338 -5.17448 6.36119 0
M  V30 5386 O 336.948 -4.45271 7.53232 0
M  V30 5387 C 336.458 -4.74639 5.19936 0
M  V30 5388 C 337.168 -3.49432 4.70418 0
M  V30 5389 N 337.118 -3.32099 3.22613 0
M  V30 5390 C 337.198 -4.28245 2.25527 0
M  V30 5391 N 337.128 -3.80823 1.04874 0
M  V30 5392 C 336.978 -2.44571 1.23535 0
M  V30 5393 C 336.848 -1.37068 0.330675 0
M  V30 5394 N 336.838 -1.51472 -0.990824 0
M  V30 5395 N 336.728 -0.138614 0.848756 0
M  V30 5396 C 336.738 0.00675923 2.16999 0
M  V30 5397 N 336.858 -0.904372 3.11122 0
M  V30 5398 C 336.978 -2.12707 2.56212 0
M  V30 5399 H 339.957 -6.54213 5.71376 0
M  V30 5400 H 340.229 -5.30936 4.43503 0
M  V30 5401 H 339.361 -4.55889 6.76652 0
M  V30 5402 H 336.706 -2.61715 5.17932 0
M  V30 5403 H 336.426 -5.52155 4.41878 0
M  V30 5404 H 335.435 -4.51981 5.53374 0
M  V30 5405 H 337.269 -6.25124 6.55234 0
M  V30 5406 H 337.31 -5.34372 2.47488 0
M  V30 5407 H 336.929 -2.45153 -1.4078 0
M  V30 5408 H 336.74 -0.688422 -1.59911 0
M  V30 5409 H 336.632 1.02584 2.52346 0
M  V30 5410 P 335.398 -4.23843 7.83734 0
M  V30 5411 O 335.178 -4.19407 9.29784 0
M  V30 5412 O 334.608 -5.24426 7.09156 0
M  V30 5413 O 335.148 -2.7935 7.20758 0
M  V30 5414 C 336.088 -1.7299 7.50419 0
M  V30 5415 C 335.358 -0.406376 7.57911 0
M  V30 5416 O 335.148 0.0897726 6.21935 0
M  V30 5417 C 333.958 -0.447224 8.1878 0
M  V30 5418 O 333.568 0.825065 8.71101 0
M  V30 5419 C 333.078 -0.783801 6.99623 0
M  V30 5420 C 333.788 -0.0619192 5.85967 0
M  V30 5421 N 333.738 -0.790462 4.56202 0
M  V30 5422 C 333.818 -2.13895 4.34171 0
M  V30 5423 N 333.748 -2.46449 3.08687 0
M  V30 5424 C 333.598 -1.2525 2.43697 0
M  V30 5425 C 333.468 -0.914535 1.07318 0
M  V30 5426 N 333.458 -1.80782 0.0887348 0
M  V30 5427 N 333.348 0.386745 0.768133 0
M  V30 5428 C 333.358 1.28096 1.75159 0
M  V30 5429 N 333.478 1.09708 3.04861 0
M  V30 5430 C 333.598 -0.214857 3.32306 0
M  V30 5431 H 336.577 -1.93423 8.4679 0
M  V30 5432 H 336.849 -1.68852 6.70877 0
M  V30 5433 H 335.981 0.289041 8.15388 0
M  V30 5434 H 333.326 0.927006 5.72848 0
M  V30 5435 H 333.046 -1.86973 6.82036 0
M  V30 5436 H 332.055 -0.403953 7.13357 0
M  V30 5437 H 333.889 -1.20599 8.97534 0
M  V30 5438 H 333.93 -2.86846 5.14318 0
M  V30 5439 H 333.549 -2.81082 0.302037 0
M  V30 5440 H 333.36 -1.49688 -0.889064 0
M  V30 5441 H 333.252 2.31317 1.43855 0
M  V30 5442 P 332.018 1.17771 8.83182 0
M  V30 5443 O 331.798 2.07206 9.98732 0
M  V30 5444 O 331.228 -0.0743816 8.81969 0
M  V30 5445 O 331.768 1.97652 7.47304 0
M  V30 5446 C 332.708 3.01133 7.08783 0
M  V30 5447 C 331.978 4.12613 6.37049 0
M  V30 5448 O 331.768 3.72827 4.97879 0
M  V30 5449 C 330.578 4.45085 6.88694 0
M  V30 5450 O 330.188 5.7877 6.5624 0
M  V30 5451 C 329.698 3.47817 6.12078 0
M  V30 5452 C 330.408 3.39414 4.77697 0
M  V30 5453 N 330.358 2.04615 4.15333 0
M  V30 5454 C 330.438 0.803897 4.75249 0
M  V30 5455 N 330.358 -0.197615 3.91502 0
M  V30 5456 C 330.218 0.413002 2.66823 0
M  V30 5457 C 330.088 -0.157221 1.38007 0
M  V30 5458 N 329.968 0.833136 0.390236 0
M  V30 5459 C 329.968 2.19402 0.623885 0
M  V30 5460 N 329.838 2.97622 -0.449677 0
M  V30 5461 N 330.098 2.73005 1.83601 0
M  V30 5462 C 330.218 1.78786 2.80935 0
M  V30 5463 H 333.197 3.41248 7.98759 0
M  V30 5464 H 333.469 2.5837 6.41742 0
M  V30 5465 H 332.601 5.02657 6.42673 0
M  V30 5466 P 328.638 6.144 6.45285 0
M  V30 5467 O 328.418 7.54673 6.86199 0
M  V30 5468 O 327.848 5.12391 7.179 0
M  V30 5469 O 328.388 5.99158 4.88404 0
M  V30 5470 C 329.328 6.60062 3.96313 0
M  V30 5471 C 328.598 7.08259 2.72856 0
M  V30 5472 O 328.388 5.9427 1.83651 0
M  V30 5473 C 327.198 7.65087 2.94749 0
M  V30 5474 O 326.808 8.53963 1.90717 0
M  V30 5475 C 326.318 6.41069 2.90698 0
M  V30 5476 C 327.028 5.5528 1.86931 0
M  V30 5477 N 326.978 4.09575 2.15696 0
M  V30 5478 C 326.828 3.24249 1.08435 0
M  V30 5479 O 326.738 3.63946 -0.0628747 0
M  V30 5480 N 326.788 1.90009 1.39973 0
M  V30 5481 C 326.878 1.34884 2.65614 0
M  V30 5482 C 327.028 2.3145 3.71736 0
M  V30 5483 C 327.078 3.63518 3.44754 0
M  V30 5484 H 329.819 7.45402 4.45526 0
M  V30 5485 H 330.088 5.86062 3.67208 0
M  V30 5486 H 329.221 7.84412 2.24479 0
M  V30 5487 H 326.566 5.73358 0.888409 0
M  V30 5488 H 326.287 5.90877 3.88583 0
M  V30 5489 H 325.295 6.65867 2.58821 0
M  V30 5490 H 327.129 8.16248 3.92006 0
M  V30 5491 H 327.2 4.34551 4.26383 0
M  V30 5492 P 325.258 8.7635 1.60911 0
M  V30 5493 O 325.038 10.1388 1.11561 0
M  V30 5494 O 324.468 8.36503 2.79617 0
M  V30 5495 O 325.008 7.71806 0.42951 0
M  V30 5496 C 325.948 7.67148 -0.673689 0
M  V30 5497 C 325.218 7.33374 -1.95559 0
M  V30 5498 O 325.008 5.88721 -2.00726 0
M  V30 5499 C 323.818 7.92526 -2.10483 0
M  V30 5500 O 323.428 8.02971 -3.47653 0
M  V30 5501 C 322.938 6.89602 -1.41652 0
M  V30 5502 C 323.648 5.59201 -1.75185 0
M  V30 5503 N 323.598 4.58301 -0.657969 0
M  V30 5504 H 326.437 8.65116 -0.777161 0
M  V30 5505 H 326.709 6.9022 -0.46725 0
M  V30 5506 H 325.841 7.66548 -2.79458 0
M  V30 5507 H 323.186 5.16165 -2.65183 0
M  V30 5508 H 322.906 7.06433 -0.329384 0
M  V30 5509 H 321.915 6.90926 -1.82021 0
M  V30 5510 H 323.749 8.90873 -1.62657 0
M  V30 5511 P 321.878 8.03563 -3.84925 0
M  V30 5512 O 321.658 8.85821 -5.0569 0
M  V30 5513 O 321.088 8.41101 -2.65469 0
M  V30 5514 O 321.628 6.4965 -4.18908 0
M  V30 5515 C 322.568 5.81037 -5.05421 0
M  V30 5516 C 321.838 4.78366 -5.89277 0
M  V30 5517 O 321.628 3.58302 -5.08433 0
M  V30 5518 C 320.438 5.17448 -6.36119 0
M  V30 5519 O 320.048 4.45271 -7.53232 0
M  V30 5520 C 319.558 4.74639 -5.19936 0
M  V30 5521 C 320.268 3.49432 -4.70418 0
M  V30 5522 N 320.218 3.31776 -3.22945 0
M  V30 5523 H 323.057 6.54213 -5.71376 0
M  V30 5524 H 323.329 5.30492 -4.44033 0
M  V30 5525 H 322.461 4.55889 -6.76652 0
M  V30 5526 P 318.498 4.23843 -7.83734 0
M  V30 5527 O 318.278 4.19407 -9.29784 0
M  V30 5528 O 317.708 5.24426 -7.09156 0
M  V30 5529 O 318.248 2.79386 -7.20852 0
M  V30 5530 C 319.188 1.7299 -7.50419 0
M  V30 5531 C 318.458 0.41401 -7.5797 0
M  V30 5532 O 318.248 -0.089787 -6.22035 0
M  V30 5533 C 317.058 0.447224 -8.1878 0
M  V30 5534 O 316.668 -0.825159 -8.71201 0
M  V30 5535 C 316.178 0.783801 -6.99623 0
M  V30 5536 C 316.888 0.0619192 -5.85967 0
M  V30 5537 N 316.838 0.7859 -4.56281 0
M  V30 5538 C 316.688 0.0359258 -3.39981 0
M  V30 5539 O 316.598 -1.19723 -3.49038 0
M  V30 5540 N 316.638 0.869151 -2.14025 0
M  V30 5541 C 316.738 2.01207 -2.14363 0
M  V30 5542 N 316.688 2.58978 -0.954287 0
M  V30 5543 C 316.888 2.80817 -3.32215 0
M  V30 5544 C 316.938 2.13785 -4.50884 0
M  V30 5545 H 319.678 1.93401 -8.46693 0
M  V30 5546 H 319.948 1.68181 -6.71046 0
M  V30 5547 H 319.081 -0.289076 -8.15488 0
M  V30 5548 H 316.426 -0.927166 -5.72947 0
M  V30 5549 H 316.146 1.87 -6.82132 0
M  V30 5550 H 315.155 0.404009 -7.13457 0
M  V30 5551 H 316.989 1.20599 -8.97534 0
M  V30 5552 H 317.061 2.70295 -5.43162 0
M  V30 5553 H 316.959 3.89465 -3.27406 0
M  V30 5554 H 316.571 2.01616 -0.107046 0
M  V30 5555 H 316.767 3.61403 -0.873101 0
M  V30 5556 P 315.118 -1.17771 -8.83182 0
M  V30 5557 O 314.898 -2.07206 -9.98732 0
M  V30 5558 O 314.328 0.0743816 -8.81969 0
M  V30 5559 O 314.868 -1.97652 -7.47304 0
M  V30 5560 C 315.808 -3.01133 -7.08783 0
M  V30 5561 C 315.078 -4.12613 -6.37049 0
M  V30 5562 O 314.868 -3.72827 -4.97879 0
M  V30 5563 C 313.678 -4.45085 -6.88694 0
M  V30 5564 O 313.288 -5.7877 -6.5624 0
M  V30 5565 C 312.798 -3.47817 -6.12078 0
M  V30 5566 C 313.508 -3.39414 -4.77697 0
M  V30 5567 N 313.458 -2.04199 -4.15538 0
M  V30 5568 H 316.297 -3.41248 -7.98759 0
M  V30 5569 H 316.569 -2.57728 -6.42 0
M  V30 5570 H 315.701 -5.02657 -6.42673 0
M  V30 5571 H 313.046 -4.11708 -4.08956 0
M  V30 5572 H 312.766 -2.49626 -6.61679 0
M  V30 5573 H 311.775 -3.8662 -6.00862 0
M  V30 5574 H 313.609 -4.29991 -7.97006 0
M  V30 5575 P 311.738 -6.144 -6.45285 0
M  V30 5576 O 311.518 -7.54673 -6.86199 0
M  V30 5577 O 310.948 -5.12391 -7.179 0
M  V30 5578 O 311.488 -5.99158 -4.88404 0
M  V30 5579 C 312.428 -6.60234 -3.96415 0
M  V30 5580 C 311.698 -7.08259 -2.72856 0
M  V30 5581 O 311.488 -5.9427 -1.83651 0
M  V30 5582 C 310.298 -7.64886 -2.9555 0
M  V30 5583 O 309.908 -8.53963 -1.90717 0
M  V30 5584 C 309.418 -6.4116 -2.90739 0
M  V30 5585 C 310.128 -5.55375 -1.86963 0
M  V30 5586 N 310.078 -4.09664 -2.15742 0
M  V30 5587 H 312.917 -7.45574 -4.45629 0
M  V30 5588 H 313.189 -5.86232 -3.67314 0
M  V30 5589 H 312.321 -7.84412 -2.24479 0
M  V30 5590 P 308.358 -8.7635 -1.60911 0
M  V30 5591 O 308.138 -10.1388 -1.11561 0
M  V30 5592 O 307.568 -8.36503 -2.79617 0
M  V30 5593 O 308.108 -7.71806 -0.42951 0
M  V30 5594 C 309.048 -7.67148 0.673689 0
M  V30 5595 C 308.318 -7.33374 1.95559 0
M  V30 5596 O 308.108 -5.88721 2.00726 0
M  V30 5597 C 306.918 -7.92526 2.10483 0
M  V30 5598 O 306.528 -8.02971 3.47653 0
M  V30 5599 C 306.038 -6.89602 1.41652 0
M  V30 5600 C 306.748 -5.59201 1.75185 0
M  V30 5601 N 306.698 -4.58301 0.657969 0
M  V30 5602 H 309.537 -8.65116 0.777161 0
M  V30 5603 H 309.809 -6.9022 0.46725 0
M  V30 5604 H 308.941 -7.66548 2.79458 0
M  V30 5605 H 306.286 -5.16165 2.65183 0
M  V30 5606 H 306.006 -7.06433 0.329384 0
M  V30 5607 H 305.015 -6.90926 1.82021 0
M  V30 5608 H 306.849 -8.90873 1.62657 0
M  V30 5609 P 304.978 -8.03563 3.84925 0
M  V30 5610 O 304.758 -8.85821 5.0569 0
M  V30 5611 O 304.188 -8.41101 2.65469 0
M  V30 5612 O 304.728 -6.4965 4.18908 0
M  V30 5613 C 305.668 -5.81037 5.05421 0
M  V30 5614 C 304.938 -4.78366 5.89277 0
M  V30 5615 O 304.728 -3.58302 5.08433 0
M  V30 5616 C 303.538 -5.17448 6.36119 0
M  V30 5617 O 303.148 -4.45271 7.53232 0
M  V30 5618 C 302.658 -4.74639 5.19936 0
M  V30 5619 C 303.368 -3.49432 4.70418 0
M  V30 5620 N 303.318 -3.32099 3.22613 0
M  V30 5621 C 303.398 -4.28245 2.25527 0
M  V30 5622 N 303.328 -3.80823 1.04874 0
M  V30 5623 C 303.178 -2.44571 1.23535 0
M  V30 5624 C 303.048 -1.37068 0.330675 0
M  V30 5625 N 303.038 -1.51472 -0.990824 0
M  V30 5626 N 302.928 -0.138614 0.848756 0
M  V30 5627 C 302.938 0.00675923 2.16999 0
M  V30 5628 N 303.058 -0.904372 3.11122 0
M  V30 5629 C 303.178 -2.12707 2.56212 0
M  V30 5630 H 306.157 -6.54213 5.71376 0
M  V30 5631 H 306.429 -5.30936 4.43503 0
M  V30 5632 H 305.561 -4.55889 6.76652 0
M  V30 5633 H 302.906 -2.61715 5.17932 0
M  V30 5634 H 302.626 -5.52155 4.41878 0
M  V30 5635 H 301.635 -4.51981 5.53374 0
M  V30 5636 H 303.469 -6.25124 6.55234 0
M  V30 5637 H 303.51 -5.34372 2.47488 0
M  V30 5638 H 303.129 -2.45153 -1.4078 0
M  V30 5639 H 302.94 -0.688422 -1.59911 0
M  V30 5640 H 302.832 1.02584 2.52346 0
M  V30 5641 P 301.598 -4.23843 7.83734 0
M  V30 5642 O 301.378 -4.19407 9.29784 0
M  V30 5643 O 300.808 -5.24426 7.09156 0
M  V30 5644 O 301.348 -2.7935 7.20758 0
M  V30 5645 C 302.288 -1.7299 7.50419 0
M  V30 5646 C 301.558 -0.406376 7.57911 0
M  V30 5647 O 301.348 0.0897726 6.21935 0
M  V30 5648 C 300.158 -0.447224 8.1878 0
M  V30 5649 O 299.768 0.825065 8.71101 0
M  V30 5650 C 299.278 -0.783801 6.99623 0
M  V30 5651 C 299.988 -0.0619192 5.85967 0
M  V30 5652 N 299.938 -0.7859 4.56281 0
M  V30 5653 H 302.777 -1.93423 8.4679 0
M  V30 5654 H 303.049 -1.68181 6.71046 0
M  V30 5655 H 302.181 0.289041 8.15388 0
M  V30 5656 P 298.218 1.17771 8.83182 0
M  V30 5657 O 297.998 2.07206 9.98732 0
M  V30 5658 O 297.428 -0.0743816 8.81969 0
M  V30 5659 O 297.968 1.97652 7.47304 0
M  V30 5660 C 298.908 3.01133 7.08783 0
M  V30 5661 C 298.178 4.12613 6.37049 0
M  V30 5662 O 297.968 3.72827 4.97879 0
M  V30 5663 C 296.778 4.45085 6.88694 0
M  V30 5664 O 296.388 5.7877 6.5624 0
M  V30 5665 C 295.898 3.47817 6.12078 0
M  V30 5666 C 296.608 3.39414 4.77697 0
M  V30 5667 N 296.558 2.04199 4.15538 0
M  V30 5668 H 299.397 3.41248 7.98759 0
M  V30 5669 H 299.669 2.57728 6.42 0
M  V30 5670 H 298.801 5.02657 6.42673 0
M  V30 5671 H 296.146 4.11708 4.08956 0
M  V30 5672 H 295.866 2.49626 6.61679 0
M  V30 5673 H 294.875 3.8662 6.00862 0
M  V30 5674 H 296.709 4.29991 7.97006 0
M  V30 5675 P 294.838 6.144 6.45285 0
M  V30 5676 O 294.618 7.54673 6.86199 0
M  V30 5677 O 294.048 5.12391 7.179 0
M  V30 5678 O 294.588 5.99158 4.88404 0
M  V30 5679 C 295.528 6.60062 3.96313 0
M  V30 5680 C 294.798 7.08259 2.72856 0
M  V30 5681 O 294.588 5.9427 1.83651 0
M  V30 5682 C 293.398 7.65087 2.94749 0
M  V30 5683 O 293.008 8.53963 1.90717 0
M  V30 5684 C 292.518 6.41069 2.90698 0
M  V30 5685 C 293.228 5.5528 1.86931 0
M  V30 5686 N 293.178 4.09575 2.15696 0
M  V30 5687 C 293.028 3.24249 1.08435 0
M  V30 5688 O 292.938 3.63946 -0.0628747 0
M  V30 5689 N 292.988 1.90009 1.39973 0
M  V30 5690 C 293.078 1.34884 2.65614 0
M  V30 5691 C 293.228 2.3145 3.71736 0
M  V30 5692 C 293.278 3.63518 3.44754 0
M  V30 5693 H 296.019 7.45402 4.45526 0
M  V30 5694 H 296.288 5.86062 3.67208 0
M  V30 5695 H 295.421 7.84412 2.24479 0
M  V30 5696 H 292.766 5.73358 0.888409 0
M  V30 5697 H 292.487 5.90877 3.88583 0
M  V30 5698 H 291.495 6.65867 2.58821 0
M  V30 5699 H 293.329 8.16248 3.92006 0
M  V30 5700 H 293.4 4.34551 4.26383 0
M  V30 5701 P 291.458 8.7635 1.60911 0
M  V30 5702 O 291.238 10.1388 1.11561 0
M  V30 5703 O 290.668 8.36503 2.79617 0
M  V30 5704 O 291.208 7.71806 0.42951 0
M  V30 5705 C 292.148 7.67148 -0.673689 0
M  V30 5706 C 291.418 7.33374 -1.95559 0
M  V30 5707 O 291.208 5.88721 -2.00726 0
M  V30 5708 C 290.018 7.92526 -2.10483 0
M  V30 5709 O 289.628 8.02971 -3.47653 0
M  V30 5710 C 289.138 6.89602 -1.41652 0
M  V30 5711 C 289.848 5.59201 -1.75185 0
M  V30 5712 N 289.798 4.58301 -0.657969 0
M  V30 5713 C 289.878 4.79019 0.692603 0
M  V30 5714 N 289.808 3.69736 1.38998 0
M  V30 5715 C 289.658 2.70474 0.438135 0
M  V30 5716 C 289.528 1.30327 0.538142 0
M  V30 5717 N 289.518 0.64304 1.69192 0
M  V30 5718 N 289.408 0.611027 -0.605183 0
M  V30 5719 C 289.418 1.27002 -1.75953 0
M  V30 5720 N 289.538 2.56038 -1.98546 0
M  V30 5721 C 289.658 3.22681 -0.822541 0
M  V30 5722 H 292.637 8.65116 -0.777161 0
M  V30 5723 H 292.909 6.9022 -0.46725 0
M  V30 5724 H 292.041 7.66548 -2.79458 0
M  V30 5725 H 289.386 5.16165 -2.65183 0
M  V30 5726 H 289.106 7.06433 -0.329384 0
M  V30 5727 H 288.115 6.90926 -1.82021 0
M  V30 5728 H 289.949 8.90873 -1.62657 0
M  V30 5729 H 289.99 5.77785 1.13874 0
M  V30 5730 H 289.609 1.15585 2.57991 0
M  V30 5731 H 289.42 -0.382989 1.69835 0
M  V30 5732 H 289.312 0.653331 -2.64449 0
M  V30 5733 P 288.078 8.03563 -3.84925 0
M  V30 5734 O 287.858 8.85821 -5.0569 0
M  V30 5735 O 287.288 8.41101 -2.65469 0
M  V30 5736 O 287.828 6.4965 -4.18908 0
M  V30 5737 C 288.768 5.80886 -5.05289 0
M  V30 5738 C 288.038 4.78366 -5.89277 0
M  V30 5739 O 287.828 3.58302 -5.08433 0
M  V30 5740 C 286.638 5.16748 -6.36559 0
M  V30 5741 O 286.248 4.45271 -7.53232 0
M  V30 5742 C 285.758 4.74572 -5.19863 0
M  V30 5743 C 286.468 3.49373 -4.70338 0
M  V30 5744 N 286.418 3.31704 -3.22876 0
M  V30 5745 C 286.268 2.03326 -2.74871 0
M  V30 5746 O 286.178 1.06486 -3.48076 0
M  V30 5747 N 286.228 1.91838 -1.37456 0
M  V30 5748 C 286.318 2.94295 -0.462035 0
M  V30 5749 C 286.468 4.25064 -1.05249 0
M  V30 5750 C 286.518 4.40214 -2.39192 0
M  V30 5751 H 289.259 6.54063 -5.71245 0
M  V30 5752 H 289.528 5.30339 -4.43905 0
M  V30 5753 H 288.661 4.55889 -6.76652 0
M  V30 5754 H 286.006 2.6167 -5.17842 0
M  V30 5755 H 285.727 5.52155 -4.41878 0
M  V30 5756 H 284.735 4.51918 -5.53297 0
M  V30 5757 H 286.569 6.25055 -6.55162 0
M  V30 5758 H 286.64 5.39798 -2.81523 0
M  V30 5759 P 284.698 4.23843 -7.83734 0
M  V30 5760 O 284.478 4.19407 -9.29784 0
M  V30 5761 O 283.908 5.24426 -7.09156 0
M  V30 5762 O 284.448 2.7935 -7.20758 0
M  V30 5763 C 285.388 1.7299 -7.50419 0
M  V30 5764 C 284.658 0.406376 -7.57911 0
M  V30 5765 O 284.448 -0.0897726 -6.21935 0
M  V30 5766 C 283.258 0.447224 -8.1878 0
M  V30 5767 O 282.868 -0.825065 -8.71101 0
M  V30 5768 C 282.378 0.783801 -6.99623 0
M  V30 5769 C 283.088 0.0619192 -5.85967 0
M  V30 5770 N 283.038 0.7859 -4.56281 0
M  V30 5771 H 285.877 1.93423 -8.4679 0
M  V30 5772 H 286.149 1.68181 -6.71046 0
M  V30 5773 H 285.281 -0.289041 -8.15388 0
M  V30 5774 P 281.318 -1.17771 -8.83182 0
M  V30 5775 O 281.098 -2.07206 -9.98732 0
M  V30 5776 O 280.528 0.0743816 -8.81969 0
M  V30 5777 O 281.068 -1.97652 -7.47304 0
M  V30 5778 C 282.008 -3.01133 -7.08783 0
M  V30 5779 C 281.278 -4.12613 -6.37049 0
M  V30 5780 O 281.068 -3.72827 -4.97879 0
M  V30 5781 C 279.878 -4.45085 -6.88694 0
M  V30 5782 O 279.488 -5.7877 -6.5624 0
M  V30 5783 C 278.998 -3.47817 -6.12078 0
M  V30 5784 C 279.708 -3.39414 -4.77697 0
M  V30 5785 N 279.658 -2.04615 -4.15333 0
M  V30 5786 H 282.497 -3.41248 -7.98759 0
M  V30 5787 H 282.769 -2.5837 -6.41742 0
M  V30 5788 H 281.901 -5.02657 -6.42673 0
M  V30 5789 P 277.938 -6.144 -6.45285 0
M  V30 5790 O 277.718 -7.54673 -6.86199 0
M  V30 5791 O 277.148 -5.12391 -7.179 0
M  V30 5792 O 277.688 -5.99236 -4.88467 0
M  V30 5793 C 278.628 -6.60234 -3.96415 0
M  V30 5794 C 277.898 -7.08079 -2.736 0
M  V30 5795 O 277.688 -5.94365 -1.8368 0
M  V30 5796 C 276.498 -7.64886 -2.9555 0
M  V30 5797 O 276.108 -8.5406 -1.90739 0
M  V30 5798 C 275.618 -6.4116 -2.90739 0
M  V30 5799 C 276.328 -5.55375 -1.86963 0
M  V30 5800 N 276.278 -4.09664 -2.15742 0
M  V30 5801 C 276.128 -3.22231 -1.08477 0
M  V30 5802 O 276.038 -3.68951 0.0600489 0
M  V30 5803 N 276.078 -1.76692 -1.48799 0
M  V30 5804 C 276.178 -1.41695 -2.57602 0
M  V30 5805 N 276.128 -0.107296 -2.75791 0
M  V30 5806 C 276.328 -2.29178 -3.69733 0
M  V30 5807 C 276.378 -3.62753 -3.42653 0
M  V30 5808 H 279.118 -7.45488 -4.45578 0
M  V30 5809 H 279.388 -5.86232 -3.67314 0
M  V30 5810 H 278.521 -7.84508 -2.24507 0
M  V30 5811 H 275.866 -5.73556 -0.888715 0
M  V30 5812 H 275.586 -5.9096 -3.88638 0
M  V30 5813 H 274.595 -6.66053 -2.58894 0
M  V30 5814 H 276.429 -8.16339 -3.92049 0
M  V30 5815 H 276.501 -4.33052 -4.24913 0
M  V30 5816 H 276.399 -1.9103 -4.71577 0
M  V30 5817 H 276.011 0.521221 -1.95056 0
M  V30 5818 H 276.207 0.286429 -3.70695 0
M  V30 5819 P 274.558 -8.7635 -1.60911 0
M  V30 5820 O 274.338 -10.1388 -1.11561 0
M  V30 5821 O 273.768 -8.36503 -2.79617 0
M  V30 5822 O 274.308 -7.71806 -0.42951 0
M  V30 5823 C 275.248 -7.67148 0.673689 0
M  V30 5824 C 274.518 -7.33374 1.95559 0
M  V30 5825 O 274.308 -5.88721 2.00726 0
M  V30 5826 C 273.118 -7.92526 2.10483 0
M  V30 5827 O 272.728 -8.02971 3.47653 0
M  V30 5828 C 272.238 -6.89602 1.41652 0
M  V30 5829 C 272.948 -5.59201 1.75185 0
M  V30 5830 N 272.898 -4.58235 0.662552 0
M  V30 5831 H 275.737 -8.65116 0.777161 0
M  V30 5832 H 276.009 -6.90173 0.474152 0
M  V30 5833 H 275.141 -7.66548 2.79458 0
M  V30 5834 P 271.178 -8.03563 3.84925 0
M  V30 5835 O 270.958 -8.85821 5.0569 0
M  V30 5836 O 270.388 -8.41101 2.65469 0
M  V30 5837 O 270.928 -6.4965 4.18908 0
M  V30 5838 C 271.868 -5.81037 5.05421 0
M  V30 5839 C 271.138 -4.78366 5.89277 0
M  V30 5840 O 270.928 -3.58302 5.08433 0
M  V30 5841 C 269.738 -5.17448 6.36119 0
M  V30 5842 O 269.348 -4.45271 7.53232 0
M  V30 5843 C 268.858 -4.74639 5.19936 0
M  V30 5844 C 269.568 -3.49432 4.70418 0
M  V30 5845 N 269.518 -3.31776 3.22945 0
M  V30 5846 H 272.357 -6.54213 5.71376 0
M  V30 5847 H 272.629 -5.30492 4.44033 0
M  V30 5848 H 271.761 -4.55889 6.76652 0
M  V30 5849 P 267.798 -4.23843 7.83734 0
M  V30 5850 O 267.578 -4.19407 9.29784 0
M  V30 5851 O 267.008 -5.24426 7.09156 0
M  V30 5852 O 267.548 -2.7935 7.20758 0
M  V30 5853 C 268.488 -1.7299 7.50419 0
M  V30 5854 C 267.758 -0.406376 7.57911 0
M  V30 5855 O 267.548 0.0897726 6.21935 0
M  V30 5856 C 266.358 -0.447224 8.1878 0
M  V30 5857 O 265.968 0.825065 8.71101 0
M  V30 5858 C 265.478 -0.783801 6.99623 0
M  V30 5859 C 266.188 -0.0619192 5.85967 0
M  V30 5860 N 266.138 -0.7859 4.56281 0
M  V30 5861 C 266.218 -2.14308 4.31736 0
M  V30 5862 N 266.138 -2.46106 3.05116 0
M  V30 5863 C 265.998 -1.23422 2.4014 0
M  V30 5864 C 265.868 -0.938381 1.02409 0
M  V30 5865 N 265.748 0.444647 0.805413 0
M  V30 5866 C 265.748 1.40829 1.79435 0
M  V30 5867 N 265.618 2.67213 1.38558 0
M  V30 5868 N 265.878 1.12947 3.09005 0
M  V30 5869 C 265.998 -0.204887 3.32369 0
M  V30 5870 H 268.977 -1.93423 8.4679 0
M  V30 5871 H 269.249 -1.68181 6.71046 0
M  V30 5872 H 268.381 0.289041 8.15388 0
M  V30 5873 P 264.418 1.17771 8.83182 0
M  V30 5874 O 264.198 2.07206 9.98732 0
M  V30 5875 O 263.628 -0.0743816 8.81969 0
M  V30 5876 O 264.168 1.97652 7.47304 0
M  V30 5877 C 265.108 3.01133 7.08783 0
M  V30 5878 C 264.378 4.12613 6.37049 0
M  V30 5879 O 264.168 3.72827 4.97879 0
M  V30 5880 C 262.978 4.45085 6.88694 0
M  V30 5881 O 262.588 5.7877 6.5624 0
M  V30 5882 C 262.098 3.47817 6.12078 0
M  V30 5883 C 262.808 3.39414 4.77697 0
M  V30 5884 N 262.758 2.04615 4.15333 0
M  V30 5885 H 265.597 3.41248 7.98759 0
M  V30 5886 H 265.869 2.5837 6.41742 0
M  V30 5887 H 265.001 5.02657 6.42673 0
M  V30 5888 P 261.038 6.144 6.45285 0
M  V30 5889 O 260.818 7.54673 6.86199 0
M  V30 5890 O 260.248 5.12391 7.179 0
M  V30 5891 O 260.788 5.99158 4.88404 0
M  V30 5892 C 261.728 6.60234 3.96415 0
M  V30 5893 C 260.998 7.08259 2.72856 0
M  V30 5894 O 260.788 5.9427 1.83651 0
M  V30 5895 C 259.598 7.64886 2.9555 0
M  V30 5896 O 259.208 8.53963 1.90717 0
M  V30 5897 C 258.718 6.4116 2.90739 0
M  V30 5898 C 259.428 5.55375 1.86963 0
M  V30 5899 N 259.378 4.09664 2.15742 0
M  V30 5900 H 262.217 7.45574 4.45629 0
M  V30 5901 H 262.489 5.86232 3.67314 0
M  V30 5902 H 261.621 7.84412 2.24479 0
M  V30 5903 P 257.658 8.7635 1.60911 0
M  V30 5904 O 257.438 10.1388 1.11561 0
M  V30 5905 O 256.868 8.36503 2.79617 0
M  V30 5906 O 257.408 7.71806 0.42951 0
M  V30 5907 C 258.348 7.67148 -0.673689 0
M  V30 5908 C 257.618 7.33374 -1.95559 0
M  V30 5909 O 257.408 5.88721 -2.00726 0
M  V30 5910 C 256.218 7.92526 -2.10483 0
M  V30 5911 O 255.828 8.02971 -3.47653 0
M  V30 5912 C 255.338 6.89602 -1.41652 0
M  V30 5913 C 256.048 5.59201 -1.75185 0
M  V30 5914 N 255.998 4.58301 -0.657969 0
M  V30 5915 H 258.837 8.65116 -0.777161 0
M  V30 5916 H 259.109 6.9022 -0.46725 0
M  V30 5917 H 258.241 7.66548 -2.79458 0
M  V30 5918 H 255.586 5.16165 -2.65183 0
M  V30 5919 H 255.306 7.06433 -0.329384 0
M  V30 5920 H 254.315 6.90926 -1.82021 0
M  V30 5921 H 256.149 8.90873 -1.62657 0
M  V30 5922 P 254.279 8.03563 -3.84925 0
M  V30 5923 O 254.059 8.85821 -5.0569 0
M  V30 5924 O 253.489 8.41101 -2.65469 0
M  V30 5925 O 254.029 6.49734 -4.18962 0
M  V30 5926 C 254.969 5.81037 -5.05421 0
M  V30 5927 C 254.239 4.79018 -5.88876 0
M  V30 5928 O 254.029 3.58359 -5.08515 0
M  V30 5929 C 252.839 5.17448 -6.36119 0
M  V30 5930 O 252.449 4.45322 -7.53318 0
M  V30 5931 C 251.959 4.74639 -5.19936 0
M  V30 5932 C 252.669 3.49432 -4.70418 0
M  V30 5933 N 252.619 3.31776 -3.22945 0
M  V30 5934 C 252.469 2.02742 -2.72939 0
M  V30 5935 O 252.379 1.08301 -3.52749 0
M  V30 5936 N 252.419 1.96117 -1.22063 0
M  V30 5937 C 252.519 2.8878 -0.551566 0
M  V30 5938 N 252.469 2.65609 0.750198 0
M  V30 5939 C 252.669 4.22457 -1.03707 0
M  V30 5940 C 252.719 4.37979 -2.39113 0
M  V30 5941 H 255.459 6.54138 -5.7131 0
M  V30 5942 H 255.729 5.30492 -4.44033 0
M  V30 5943 H 254.862 4.55945 -6.76735 0
M  V30 5944 H 252.207 2.6176 -5.18021 0
M  V30 5945 H 251.927 5.52233 -4.41941 0
M  V30 5946 H 250.936 4.52045 -5.53452 0
M  V30 5947 H 252.77 6.25124 -6.55234 0
M  V30 5948 H 252.842 5.37936 -2.80552 0
M  V30 5949 H 252.74 5.07528 -0.359553 0
M  V30 5950 H 252.352 1.69403 1.09847 0
M  V30 5951 H 252.548 3.43701 1.41792 0
M  V30 5952 P 250.899 4.23843 -7.83734 0
M  V30 5953 O 250.679 4.19407 -9.29784 0
M  V30 5954 O 250.109 5.24426 -7.09156 0
M  V30 5955 O 250.649 2.7935 -7.20758 0
M  V30 5956 C 251.589 1.7299 -7.50419 0
M  V30 5957 C 250.859 0.406376 -7.57911 0
M  V30 5958 O 250.649 -0.0897726 -6.21935 0
M  V30 5959 C 249.459 0.447224 -8.1878 0
M  V30 5960 O 249.069 -0.825065 -8.71101 0
M  V30 5961 C 248.579 0.783801 -6.99623 0
M  V30 5962 C 249.289 0.0619192 -5.85967 0
M  V30 5963 N 249.239 0.790462 -4.56202 0
M  V30 5964 H 252.078 1.93423 -8.4679 0
M  V30 5965 H 252.35 1.68852 -6.70877 0
M  V30 5966 H 251.482 -0.289041 -8.15388 0
M  V30 5967 H 248.827 -0.927006 -5.72848 0
M  V30 5968 H 248.547 1.86973 -6.82036 0
M  V30 5969 H 247.556 0.403953 -7.13357 0
M  V30 5970 H 249.39 1.20599 -8.97534 0
M  V30 5971 P 247.519 -1.17771 -8.83182 0
M  V30 5972 O 247.299 -2.07206 -9.98732 0
M  V30 5973 O 246.729 0.0743816 -8.81969 0
M  V30 5974 O 247.269 -1.97652 -7.47304 0
M  V30 5975 C 248.209 -3.01055 -7.08599 0
M  V30 5976 C 247.479 -4.12613 -6.37049 0
M  V30 5977 O 247.269 -3.72827 -4.97879 0
M  V30 5978 C 246.079 -4.45719 -6.88164 0
M  V30 5979 O 245.689 -5.7877 -6.5624 0
M  V30 5980 C 245.199 -3.47768 -6.11991 0
M  V30 5981 C 245.909 -3.39356 -4.77615 0
M  V30 5982 N 245.859 -2.04571 -4.15244 0
M  V30 5983 C 245.709 -1.98587 -2.78314 0
M  V30 5984 O 245.619 -2.98134 -2.08835 0
M  V30 5985 N 245.669 -0.714467 -2.24925 0
M  V30 5986 C 245.759 0.470001 -2.94169 0
M  V30 5987 C 245.909 0.312541 -4.36783 0
M  V30 5988 C 245.959 -0.914512 -4.92583 0
M  V30 5989 H 248.7 -3.41169 -7.98575 0
M  V30 5990 H 248.969 -2.58295 -6.41556 0
M  V30 5991 H 248.102 -5.02657 -6.42673 0
M  V30 5992 H 245.447 -4.11637 -4.08885 0
M  V30 5993 H 245.168 -2.49626 -6.61679 0
M  V30 5994 H 244.176 -3.86566 -6.00778 0
M  V30 5995 H 246.01 -4.29943 -7.96918 0
M  V30 5996 H 246.081 -1.00937 -6.00374 0
M  V30 5997 P 244.139 -6.144 -6.45285 0
M  V30 5998 O 243.919 -7.54673 -6.86199 0
M  V30 5999 O 243.349 -5.12391 -7.179 0
M  V30 6000 O 243.889 -5.99158 -4.88404 0
M  V30 6001 C 244.829 -6.60234 -3.96415 0
M  V30 6002 C 244.099 -7.08259 -2.72856 0
M  V30 6003 O 243.889 -5.9427 -1.83651 0
M  V30 6004 C 242.699 -7.64886 -2.9555 0
M  V30 6005 O 242.309 -8.53963 -1.90717 0
M  V30 6006 C 241.819 -6.4116 -2.90739 0
M  V30 6007 C 242.529 -5.55375 -1.86963 0
M  V30 6008 N 242.479 -4.09664 -2.15742 0
M  V30 6009 H 245.318 -7.45574 -4.45629 0
M  V30 6010 H 245.59 -5.86232 -3.67314 0
M  V30 6011 H 244.722 -7.84412 -2.24479 0
M  V30 6012 P 240.759 -8.7635 -1.60911 0
M  V30 6013 O 240.539 -10.1388 -1.11561 0
M  V30 6014 O 239.969 -8.36503 -2.79617 0
M  V30 6015 O 240.509 -7.71806 -0.42951 0
M  V30 6016 C 241.449 -7.67148 0.673689 0
M  V30 6017 C 240.719 -7.33374 1.95559 0
M  V30 6018 O 240.509 -5.88721 2.00726 0
M  V30 6019 C 239.319 -7.92526 2.10483 0
M  V30 6020 O 238.929 -8.02971 3.47653 0
M  V30 6021 C 238.439 -6.89602 1.41652 0
M  V30 6022 C 239.149 -5.59201 1.75185 0
M  V30 6023 N 239.099 -4.58235 0.662552 0
M  V30 6024 C 239.179 -4.7683 -0.704049 0
M  V30 6025 N 239.099 -3.66233 -1.39775 0
M  V30 6026 C 238.959 -2.66526 -0.431739 0
M  V30 6027 C 238.829 -1.26394 -0.575992 0
M  V30 6028 N 238.709 -0.62859 0.67177 0
M  V30 6029 C 238.709 -1.27134 1.89385 0
M  V30 6030 N 238.579 -0.492035 2.96951 0
M  V30 6031 N 238.839 -2.58978 2.02907 0
M  V30 6032 C 238.959 -3.22433 0.832218 0
M  V30 6033 H 241.938 -8.65116 0.777161 0
M  V30 6034 H 242.21 -6.90173 0.474152 0
M  V30 6035 H 241.342 -7.66548 2.79458 0
M  V30 6036 P 237.379 -8.03563 3.84925 0
M  V30 6037 O 237.159 -8.85821 5.0569 0
M  V30 6038 O 236.589 -8.41101 2.65469 0
M  V30 6039 O 237.129 -6.4965 4.18908 0
M  V30 6040 C 238.069 -5.81037 5.05421 0
M  V30 6041 C 237.339 -4.78366 5.89277 0
M  V30 6042 O 237.129 -3.58302 5.08433 0
M  V30 6043 C 235.939 -5.17448 6.36119 0
M  V30 6044 O 235.549 -4.45271 7.53232 0
M  V30 6045 C 235.059 -4.74639 5.19936 0
M  V30 6046 C 235.769 -3.49432 4.70418 0
M  V30 6047 N 235.719 -3.31776 3.22945 0
M  V30 6048 H 238.558 -6.54213 5.71376 0
M  V30 6049 H 238.83 -5.30492 4.44033 0
M  V30 6050 H 237.962 -4.55889 6.76652 0
M  V30 6051 P 233.999 -4.23843 7.83734 0
M  V30 6052 O 233.779 -4.19407 9.29784 0
M  V30 6053 O 233.209 -5.24426 7.09156 0
M  V30 6054 O 233.749 -2.7935 7.20758 0
M  V30 6055 C 234.689 -1.7299 7.50419 0
M  V30 6056 C 233.959 -0.406376 7.57911 0
M  V30 6057 O 233.749 0.0897726 6.21935 0
M  V30 6058 C 232.559 -0.447224 8.1878 0
M  V30 6059 O 232.169 0.825065 8.71101 0
M  V30 6060 C 231.679 -0.783801 6.99623 0
M  V30 6061 C 232.389 -0.0619192 5.85967 0
M  V30 6062 N 232.339 -0.790462 4.56202 0
M  V30 6063 H 235.178 -1.93423 8.4679 0
M  V30 6064 H 235.45 -1.68852 6.70877 0
M  V30 6065 H 234.582 0.289041 8.15388 0
M  V30 6066 H 231.927 0.927006 5.72848 0
M  V30 6067 H 231.647 -1.86973 6.82036 0
M  V30 6068 H 230.656 -0.403953 7.13357 0
M  V30 6069 H 232.49 -1.20599 8.97534 0
M  V30 6070 P 230.619 1.17771 8.83182 0
M  V30 6071 O 230.399 2.07206 9.98732 0
M  V30 6072 O 229.829 -0.0743816 8.81969 0
M  V30 6073 O 230.369 1.97652 7.47304 0
M  V30 6074 C 231.309 3.01055 7.08599 0
M  V30 6075 C 230.579 4.12613 6.37049 0
M  V30 6076 O 230.369 3.72827 4.97879 0
M  V30 6077 C 229.179 4.45719 6.88164 0
M  V30 6078 O 228.789 5.7877 6.5624 0
M  V30 6079 C 228.299 3.47768 6.11991 0
M  V30 6080 C 229.009 3.39356 4.77615 0
M  V30 6081 N 228.959 2.04571 4.15244 0
M  V30 6082 C 228.809 1.98587 2.78314 0
M  V30 6083 O 228.719 2.98134 2.08835 0
M  V30 6084 N 228.769 0.714467 2.24925 0
M  V30 6085 C 228.859 -0.470001 2.94169 0
M  V30 6086 O 228.809 -1.55587 2.35195 0
M  V30 6087 C 229.009 -0.312541 4.36783 0
M  V30 6088 C 229.119 -1.57711 5.16352 0
M  V30 6089 C 229.059 0.914512 4.92583 0
M  V30 6090 H 231.8 3.41169 7.98575 0
M  V30 6091 H 232.069 2.58295 6.41556 0
M  V30 6092 H 231.202 5.02657 6.42673 0
M  V30 6093 H 228.547 4.11637 4.08885 0
M  V30 6094 H 228.268 2.49626 6.61679 0
M  V30 6095 H 227.276 3.86566 6.00778 0
M  V30 6096 H 229.11 4.29943 7.96918 0
M  V30 6097 H 229.181 1.00937 6.00374 0
M  V30 6098 H 228.151 -1.80153 5.63503 0
M  V30 6099 H 229.888 -1.4566 5.94104 0
M  V30 6100 H 229.4 -2.40664 4.49645 0
M  V30 6101 H 228.664 0.647622 1.25697 0
M  V30 6102 P 227.239 6.144 6.45285 0
M  V30 6103 O 227.019 7.54673 6.86199 0
M  V30 6104 O 226.449 5.12391 7.179 0
M  V30 6105 O 226.989 5.99158 4.88404 0
M  V30 6106 C 227.929 6.60234 3.96415 0
M  V30 6107 C 227.199 7.08259 2.72856 0
M  V30 6108 O 226.989 5.9427 1.83651 0
M  V30 6109 C 225.799 7.64886 2.9555 0
M  V30 6110 O 225.409 8.53963 1.90717 0
M  V30 6111 C 224.919 6.4116 2.90739 0
M  V30 6112 C 225.629 5.55375 1.86963 0
M  V30 6113 N 225.579 4.09664 2.15742 0
M  V30 6114 H 228.418 7.45574 4.45629 0
M  V30 6115 H 228.69 5.86232 3.67314 0
M  V30 6116 H 227.822 7.84412 2.24479 0
M  V30 6117 P 223.859 8.7635 1.60911 0
M  V30 6118 O 223.639 10.1388 1.11561 0
M  V30 6119 O 223.069 8.36503 2.79617 0
M  V30 6120 O 223.609 7.71806 0.42951 0
M  V30 6121 C 224.549 7.67148 -0.673689 0
M  V30 6122 C 223.819 7.33374 -1.95559 0
M  V30 6123 O 223.609 5.88721 -2.00726 0
M  V30 6124 C 222.419 7.92526 -2.10483 0
M  V30 6125 O 222.029 8.02971 -3.47653 0
M  V30 6126 C 221.539 6.89602 -1.41652 0
M  V30 6127 C 222.249 5.59201 -1.75185 0
M  V30 6128 N 222.199 4.58235 -0.662552 0
M  V30 6129 H 225.038 8.65116 -0.777161 0
M  V30 6130 H 225.31 6.90173 -0.474152 0
M  V30 6131 H 224.442 7.66548 -2.79458 0
M  V30 6132 P 220.479 8.03563 -3.84925 0
M  V30 6133 O 220.259 8.85821 -5.0569 0
M  V30 6134 O 219.689 8.41101 -2.65469 0
M  V30 6135 O 220.229 6.4965 -4.18908 0
M  V30 6136 C 221.169 5.80886 -5.05289 0
M  V30 6137 C 220.439 4.78366 -5.89277 0
M  V30 6138 O 220.229 3.58302 -5.08433 0
M  V30 6139 C 219.039 5.16748 -6.36559 0
M  V30 6140 O 218.649 4.45271 -7.53232 0
M  V30 6141 C 218.159 4.74572 -5.19863 0
M  V30 6142 C 218.869 3.49373 -4.70338 0
M  V30 6143 N 218.819 3.31704 -3.22876 0
M  V30 6144 C 218.669 2.03326 -2.74871 0
M  V30 6145 O 218.579 1.06486 -3.48076 0
M  V30 6146 N 218.629 1.91838 -1.37456 0
M  V30 6147 C 218.719 2.94295 -0.462035 0
M  V30 6148 O 218.669 2.71763 0.752928 0
M  V30 6149 C 218.869 4.25064 -1.05249 0
M  V30 6150 C 218.979 5.39815 -0.095697 0
M  V30 6151 C 218.919 4.40214 -2.39192 0
M  V30 6152 H 221.66 6.54063 -5.71245 0
M  V30 6153 H 221.929 5.30339 -4.43905 0
M  V30 6154 H 221.062 4.55889 -6.76652 0
M  V30 6155 H 218.407 2.6167 -5.17842 0
M  V30 6156 H 218.128 5.52155 -4.41878 0
M  V30 6157 H 217.136 4.51918 -5.53297 0
M  V30 6158 H 218.97 6.25055 -6.55162 0
M  V30 6159 H 219.041 5.39798 -2.81523 0
M  V30 6160 H 218.011 5.91593 -0.0279582 0
M  V30 6161 H 219.748 6.10038 -0.450573 0
M  V30 6162 H 219.26 5.02007 0.89937 0
M  V30 6163 H 218.524 0.995326 -1.00435 0
M  V30 6164 P 217.099 4.23843 -7.83734 0
M  V30 6165 O 216.879 4.19407 -9.29784 0
M  V30 6166 O 216.309 5.24426 -7.09156 0
M  V30 6167 O 216.849 2.7935 -7.20758 0
M  V30 6168 C 217.789 1.7299 -7.50419 0
M  V30 6169 C 217.059 0.406376 -7.57911 0
M  V30 6170 O 216.849 -0.0897726 -6.21935 0
M  V30 6171 C 215.659 0.447224 -8.1878 0
M  V30 6172 O 215.269 -0.825065 -8.71101 0
M  V30 6173 C 214.779 0.783801 -6.99623 0
M  V30 6174 C 215.489 0.0619192 -5.85967 0
M  V30 6175 N 215.439 0.7859 -4.56281 0
M  V30 6176 H 218.278 1.93423 -8.4679 0
M  V30 6177 H 218.55 1.68181 -6.71046 0
M  V30 6178 H 217.682 -0.289041 -8.15388 0
M  V30 6179 P 213.719 -1.17771 -8.83182 0
M  V30 6180 O 213.499 -2.07206 -9.98732 0
M  V30 6181 O 212.929 0.0743816 -8.81969 0
M  V30 6182 O 213.469 -1.97652 -7.47304 0
M  V30 6183 C 214.409 -3.01133 -7.08783 0
M  V30 6184 C 213.679 -4.12613 -6.37049 0
M  V30 6185 O 213.469 -3.72827 -4.97879 0
M  V30 6186 C 212.279 -4.45085 -6.88694 0
M  V30 6187 O 211.889 -5.7877 -6.5624 0
M  V30 6188 C 211.399 -3.47817 -6.12078 0
M  V30 6189 C 212.109 -3.39414 -4.77697 0
M  V30 6190 N 212.059 -2.04199 -4.15538 0
M  V30 6191 H 214.898 -3.41248 -7.98759 0
M  V30 6192 H 215.17 -2.57728 -6.42 0
M  V30 6193 H 214.302 -5.02657 -6.42673 0
M  V30 6194 H 211.647 -4.11708 -4.08956 0
M  V30 6195 H 211.367 -2.49626 -6.61679 0
M  V30 6196 H 210.376 -3.8662 -6.00862 0
M  V30 6197 H 212.21 -4.29991 -7.97006 0
M  V30 6198 P 210.339 -6.144 -6.45285 0
M  V30 6199 O 210.119 -7.54673 -6.86199 0
M  V30 6200 O 209.549 -5.12391 -7.179 0
M  V30 6201 O 210.089 -5.99236 -4.88467 0
M  V30 6202 C 211.029 -6.60234 -3.96415 0
M  V30 6203 C 210.299 -7.08079 -2.736 0
M  V30 6204 O 210.089 -5.94365 -1.8368 0
M  V30 6205 C 208.899 -7.64886 -2.9555 0
M  V30 6206 O 208.509 -8.5406 -1.90739 0
M  V30 6207 C 208.019 -6.4116 -2.90739 0
M  V30 6208 C 208.729 -5.55375 -1.86963 0
M  V30 6209 N 208.679 -4.09664 -2.15742 0
M  V30 6210 C 208.529 -3.22231 -1.08477 0
M  V30 6211 O 208.439 -3.68951 0.0600489 0
M  V30 6212 N 208.479 -1.76692 -1.48799 0
M  V30 6213 C 208.579 -1.41695 -2.57602 0
M  V30 6214 N 208.529 -0.107296 -2.75791 0
M  V30 6215 C 208.729 -2.29178 -3.69733 0
M  V30 6216 C 208.779 -3.62753 -3.42653 0
M  V30 6217 H 211.519 -7.45488 -4.45578 0
M  V30 6218 H 211.789 -5.86232 -3.67314 0
M  V30 6219 H 210.922 -7.84508 -2.24507 0
M  V30 6220 H 208.267 -5.73556 -0.888715 0
M  V30 6221 H 207.987 -5.9096 -3.88638 0
M  V30 6222 H 206.996 -6.66053 -2.58894 0
M  V30 6223 H 208.83 -8.16339 -3.92049 0
M  V30 6224 H 208.902 -4.33052 -4.24913 0
M  V30 6225 H 208.8 -1.9103 -4.71577 0
M  V30 6226 H 208.412 0.521221 -1.95056 0
M  V30 6227 H 208.608 0.286429 -3.70695 0
M  V30 6228 P 206.959 -8.7635 -1.60911 0
M  V30 6229 O 206.739 -10.1388 -1.11561 0
M  V30 6230 O 206.169 -8.36503 -2.79617 0
M  V30 6231 O 206.709 -7.71806 -0.42951 0
M  V30 6232 C 207.649 -7.67148 0.673689 0
M  V30 6233 C 206.919 -7.33374 1.95559 0
M  V30 6234 O 206.709 -5.88721 2.00726 0
M  V30 6235 C 205.519 -7.92526 2.10483 0
M  V30 6236 O 205.129 -8.02971 3.47653 0
M  V30 6237 C 204.639 -6.89602 1.41652 0
M  V30 6238 C 205.349 -5.59201 1.75185 0
M  V30 6239 N 205.299 -4.58235 0.662552 0
M  V30 6240 H 208.138 -8.65116 0.777161 0
M  V30 6241 H 208.41 -6.90173 0.474152 0
M  V30 6242 H 207.542 -7.66548 2.79458 0
M  V30 6243 P 203.579 -8.03563 3.84925 0
M  V30 6244 O 203.359 -8.85821 5.0569 0
M  V30 6245 O 202.789 -8.41101 2.65469 0
M  V30 6246 O 203.329 -6.4965 4.18908 0
M  V30 6247 C 204.269 -5.81037 5.05421 0
M  V30 6248 C 203.539 -4.78366 5.89277 0
M  V30 6249 O 203.329 -3.58302 5.08433 0
M  V30 6250 C 202.139 -5.17448 6.36119 0
M  V30 6251 O 201.749 -4.45271 7.53232 0
M  V30 6252 C 201.259 -4.74639 5.19936 0
M  V30 6253 C 201.969 -3.49432 4.70418 0
M  V30 6254 N 201.919 -3.31776 3.22945 0
M  V30 6255 H 204.758 -6.54213 5.71376 0
M  V30 6256 H 205.03 -5.30492 4.44033 0
M  V30 6257 H 204.162 -4.55889 6.76652 0
M  V30 6258 P 200.199 -4.23843 7.83734 0
M  V30 6259 O 199.979 -4.19407 9.29784 0
M  V30 6260 O 199.409 -5.24426 7.09156 0
M  V30 6261 O 199.949 -2.7935 7.20758 0
M  V30 6262 C 200.889 -1.7299 7.50419 0
M  V30 6263 C 200.159 -0.406376 7.57911 0
M  V30 6264 O 199.949 0.0897726 6.21935 0
M  V30 6265 C 198.759 -0.447224 8.1878 0
M  V30 6266 O 198.369 0.825065 8.71101 0
M  V30 6267 C 197.879 -0.783801 6.99623 0
M  V30 6268 C 198.589 -0.0619192 5.85967 0
M  V30 6269 N 198.539 -0.7859 4.56281 0
M  V30 6270 H 201.378 -1.93423 8.4679 0
M  V30 6271 H 201.65 -1.68181 6.71046 0
M  V30 6272 H 200.782 0.289041 8.15388 0
M  V30 6273 P 196.819 1.17771 8.83182 0
M  V30 6274 O 196.599 2.07206 9.98732 0
M  V30 6275 O 196.029 -0.0743816 8.81969 0
M  V30 6276 O 196.569 1.97652 7.47304 0
M  V30 6277 C 197.509 3.01133 7.08783 0
M  V30 6278 C 196.779 4.12613 6.37049 0
M  V30 6279 O 196.569 3.72827 4.97879 0
M  V30 6280 C 195.379 4.45085 6.88694 0
M  V30 6281 O 194.989 5.7877 6.5624 0
M  V30 6282 C 194.499 3.47817 6.12078 0
M  V30 6283 C 195.209 3.39414 4.77697 0
M  V30 6284 N 195.159 2.04615 4.15333 0
M  V30 6285 H 197.998 3.41248 7.98759 0
M  V30 6286 H 198.27 2.5837 6.41742 0
M  V30 6287 H 197.402 5.02657 6.42673 0
M  V30 6288 P 193.439 6.144 6.45285 0
M  V30 6289 O 193.219 7.54673 6.86199 0
M  V30 6290 O 192.649 5.12391 7.179 0
M  V30 6291 O 193.189 5.99158 4.88404 0
M  V30 6292 C 194.129 6.60062 3.96313 0
M  V30 6293 C 193.399 7.08259 2.72856 0
M  V30 6294 O 193.189 5.9427 1.83651 0
M  V30 6295 C 191.999 7.65087 2.94749 0
M  V30 6296 O 191.609 8.53963 1.90717 0
M  V30 6297 C 191.119 6.41069 2.90698 0
M  V30 6298 C 191.829 5.5528 1.86931 0
M  V30 6299 N 191.779 4.09575 2.15696 0
M  V30 6300 C 191.629 3.24249 1.08435 0
M  V30 6301 O 191.539 3.63946 -0.0628747 0
M  V30 6302 N 191.589 1.90009 1.39973 0
M  V30 6303 C 191.679 1.34884 2.65614 0
M  V30 6304 C 191.829 2.3145 3.71736 0
M  V30 6305 C 191.879 3.63518 3.44754 0
M  V30 6306 H 194.62 7.45402 4.45526 0
M  V30 6307 H 194.889 5.86062 3.67208 0
M  V30 6308 H 194.022 7.84412 2.24479 0
M  V30 6309 H 191.367 5.73358 0.888409 0
M  V30 6310 H 191.088 5.90877 3.88583 0
M  V30 6311 H 190.096 6.65867 2.58821 0
M  V30 6312 H 191.93 8.16248 3.92006 0
M  V30 6313 H 192.001 4.34551 4.26383 0
M  V30 6314 P 190.059 8.7635 1.60911 0
M  V30 6315 O 189.839 10.1388 1.11561 0
M  V30 6316 O 189.269 8.36503 2.79617 0
M  V30 6317 O 189.809 7.71806 0.42951 0
M  V30 6318 C 190.749 7.67148 -0.673689 0
M  V30 6319 C 190.019 7.33374 -1.95559 0
M  V30 6320 O 189.809 5.88721 -2.00726 0
M  V30 6321 C 188.619 7.92526 -2.10483 0
M  V30 6322 O 188.229 8.02971 -3.47653 0
M  V30 6323 C 187.739 6.89602 -1.41652 0
M  V30 6324 C 188.449 5.59201 -1.75185 0
M  V30 6325 N 188.399 4.58235 -0.662552 0
M  V30 6326 H 191.238 8.65116 -0.777161 0
M  V30 6327 H 191.51 6.90173 -0.474152 0
M  V30 6328 H 190.642 7.66548 -2.79458 0
M  V30 6329 P 186.679 8.03563 -3.84925 0
M  V30 6330 O 186.459 8.85821 -5.0569 0
M  V30 6331 O 185.889 8.41101 -2.65469 0
M  V30 6332 O 186.429 6.4965 -4.18908 0
M  V30 6333 C 187.369 5.81037 -5.05421 0
M  V30 6334 C 186.639 4.78366 -5.89277 0
M  V30 6335 O 186.429 3.58302 -5.08433 0
M  V30 6336 C 185.239 5.17448 -6.36119 0
M  V30 6337 O 184.849 4.45271 -7.53232 0
M  V30 6338 C 184.359 4.74639 -5.19936 0
M  V30 6339 C 185.069 3.49432 -4.70418 0
M  V30 6340 N 185.019 3.31776 -3.22945 0
M  V30 6341 H 187.858 6.54213 -5.71376 0
M  V30 6342 H 188.13 5.30492 -4.44033 0
M  V30 6343 H 187.262 4.55889 -6.76652 0
M  V30 6344 P 183.299 4.23843 -7.83734 0
M  V30 6345 O 183.079 4.19407 -9.29784 0
M  V30 6346 O 182.509 5.24426 -7.09156 0
M  V30 6347 O 183.049 2.7935 -7.20758 0
M  V30 6348 C 183.989 1.7299 -7.50419 0
M  V30 6349 C 183.259 0.406376 -7.57911 0
M  V30 6350 O 183.049 -0.0897726 -6.21935 0
M  V30 6351 C 181.859 0.447224 -8.1878 0
M  V30 6352 O 181.469 -0.825065 -8.71101 0
M  V30 6353 C 180.979 0.783801 -6.99623 0
M  V30 6354 C 181.689 0.0619192 -5.85967 0
M  V30 6355 N 181.639 0.7859 -4.56281 0
M  V30 6356 H 184.478 1.93423 -8.4679 0
M  V30 6357 H 184.75 1.68181 -6.71046 0
M  V30 6358 H 183.882 -0.289041 -8.15388 0
M  V30 6359 P 179.919 -1.17771 -8.83182 0
M  V30 6360 O 179.699 -2.07206 -9.98732 0
M  V30 6361 O 179.129 0.0743816 -8.81969 0
M  V30 6362 O 179.669 -1.97652 -7.47304 0
M  V30 6363 C 180.609 -3.01133 -7.08783 0
M  V30 6364 C 179.879 -4.12613 -6.37049 0
M  V30 6365 O 179.669 -3.72827 -4.97879 0
M  V30 6366 C 178.479 -4.45085 -6.88694 0
M  V30 6367 O 178.089 -5.7877 -6.5624 0
M  V30 6368 C 177.599 -3.47817 -6.12078 0
M  V30 6369 C 178.309 -3.39414 -4.77697 0
M  V30 6370 N 178.259 -2.04199 -4.15538 0
M  V30 6371 C 178.339 -0.821545 -4.76977 0
M  V30 6372 N 178.269 0.1794 -3.94592 0
M  V30 6373 C 178.119 -0.419121 -2.70776 0
M  V30 6374 C 177.989 0.109072 -1.40577 0
M  V30 6375 N 177.979 1.4104 -1.1344 0
M  V30 6376 N 177.869 -0.764381 -0.39411 0
M  V30 6377 C 177.879 -2.06587 -0.664135 0
M  V30 6378 N 177.999 -2.67948 -1.82153 0
M  V30 6379 C 178.119 -1.77942 -2.8147 0
M  V30 6380 H 181.098 -3.41248 -7.98759 0
M  V30 6381 H 181.37 -2.57728 -6.42 0
M  V30 6382 H 180.502 -5.02657 -6.42673 0
M  V30 6383 H 177.847 -4.11708 -4.08956 0
M  V30 6384 H 177.567 -2.49626 -6.61679 0
M  V30 6385 H 176.576 -3.8662 -6.00862 0
M  V30 6386 H 178.41 -4.29991 -7.97006 0
M  V30 6387 H 178.451 -0.702451 -5.84696 0
M  V30 6388 H 178.07 2.09647 -1.89651 0
M  V30 6389 H 177.881 1.73358 -0.160575 0
M  V30 6390 H 177.773 -2.71695 0.195838 0
M  V30 6391 P 176.539 -6.144 -6.45285 0
M  V30 6392 O 176.319 -7.54673 -6.86199 0
M  V30 6393 O 175.749 -5.12391 -7.179 0
M  V30 6394 O 176.289 -5.99158 -4.88404 0
M  V30 6395 C 177.229 -6.60234 -3.96415 0
M  V30 6396 C 176.499 -7.08259 -2.72856 0
M  V30 6397 O 176.289 -5.9427 -1.83651 0
M  V30 6398 C 175.099 -7.64886 -2.9555 0
M  V30 6399 O 174.709 -8.53963 -1.90717 0
M  V30 6400 C 174.219 -6.4116 -2.90739 0
M  V30 6401 C 174.929 -5.55375 -1.86963 0
M  V30 6402 N 174.879 -4.09664 -2.15742 0
M  V30 6403 H 177.718 -7.45574 -4.45629 0
M  V30 6404 H 177.99 -5.86232 -3.67314 0
M  V30 6405 H 177.122 -7.84412 -2.24479 0
M  V30 6406 P 173.159 -8.7635 -1.60911 0
M  V30 6407 O 172.939 -10.1388 -1.11561 0
M  V30 6408 O 172.369 -8.36503 -2.79617 0
M  V30 6409 O 172.909 -7.71806 -0.42951 0
M  V30 6410 C 173.849 -7.67148 0.673689 0
M  V30 6411 C 173.119 -7.33374 1.95559 0
M  V30 6412 O 172.909 -5.88721 2.00726 0
M  V30 6413 C 171.719 -7.92526 2.10483 0
M  V30 6414 O 171.329 -8.02971 3.47653 0
M  V30 6415 C 170.839 -6.89602 1.41652 0
M  V30 6416 C 171.549 -5.59201 1.75185 0
M  V30 6417 N 171.499 -4.58235 0.662552 0
M  V30 6418 H 174.338 -8.65116 0.777161 0
M  V30 6419 H 174.61 -6.90173 0.474152 0
M  V30 6420 H 173.742 -7.66548 2.79458 0
M  V30 6421 P 169.779 -8.03563 3.84925 0
M  V30 6422 O 169.559 -8.85821 5.0569 0
M  V30 6423 O 168.989 -8.41101 2.65469 0
M  V30 6424 O 169.529 -6.4965 4.18908 0
M  V30 6425 C 170.469 -5.81037 5.05421 0
M  V30 6426 C 169.739 -4.78366 5.89277 0
M  V30 6427 O 169.529 -3.58302 5.08433 0
M  V30 6428 C 168.339 -5.17448 6.36119 0
M  V30 6429 O 167.949 -4.45271 7.53232 0
M  V30 6430 C 167.459 -4.74639 5.19936 0
M  V30 6431 C 168.169 -3.49432 4.70418 0
M  V30 6432 N 168.119 -3.32099 3.22613 0
M  V30 6433 H 170.958 -6.54213 5.71376 0
M  V30 6434 H 171.23 -5.30936 4.43503 0
M  V30 6435 H 170.362 -4.55889 6.76652 0
M  V30 6436 H 167.707 -2.61715 5.17932 0
M  V30 6437 H 167.427 -5.52155 4.41878 0
M  V30 6438 H 166.436 -4.51981 5.53374 0
M  V30 6439 H 168.27 -6.25124 6.55234 0
M  V30 6440 P 166.399 -4.23843 7.83734 0
M  V30 6441 O 166.179 -4.19407 9.29784 0
M  V30 6442 O 165.609 -5.24426 7.09156 0
M  V30 6443 O 166.149 -2.7935 7.20758 0
M  V30 6444 C 167.089 -1.7299 7.50419 0
M  V30 6445 C 166.359 -0.406376 7.57911 0
M  V30 6446 O 166.149 0.0897726 6.21935 0
M  V30 6447 C 164.959 -0.447224 8.1878 0
M  V30 6448 O 164.569 0.825065 8.71101 0
M  V30 6449 C 164.079 -0.783801 6.99623 0
M  V30 6450 C 164.789 -0.0619192 5.85967 0
M  V30 6451 N 164.739 -0.7859 4.56281 0
M  V30 6452 H 167.578 -1.93423 8.4679 0
M  V30 6453 H 167.85 -1.68181 6.71046 0
M  V30 6454 H 166.982 0.289041 8.15388 0
M  V30 6455 P 163.019 1.17771 8.83182 0
M  V30 6456 O 162.799 2.07206 9.98732 0
M  V30 6457 O 162.229 -0.0743816 8.81969 0
M  V30 6458 O 162.769 1.97652 7.47304 0
M  V30 6459 C 163.709 3.01133 7.08783 0
M  V30 6460 C 162.979 4.12613 6.37049 0
M  V30 6461 O 162.769 3.72827 4.97879 0
M  V30 6462 C 161.579 4.45085 6.88694 0
M  V30 6463 O 161.189 5.7877 6.5624 0
M  V30 6464 C 160.699 3.47817 6.12078 0
M  V30 6465 C 161.409 3.39414 4.77697 0
M  V30 6466 N 161.359 2.04615 4.15333 0
M  V30 6467 H 164.198 3.41248 7.98759 0
M  V30 6468 H 164.47 2.5837 6.41742 0
M  V30 6469 H 163.602 5.02657 6.42673 0
M  V30 6470 P 159.639 6.144 6.45285 0
M  V30 6471 O 159.419 7.54673 6.86199 0
M  V30 6472 O 158.849 5.12391 7.179 0
M  V30 6473 O 159.389 5.99236 4.88467 0
M  V30 6474 C 160.329 6.60234 3.96415 0
M  V30 6475 C 159.599 7.08079 2.736 0
M  V30 6476 O 159.389 5.94365 1.8368 0
M  V30 6477 C 158.199 7.64886 2.9555 0
M  V30 6478 O 157.809 8.5406 1.90739 0
M  V30 6479 C 157.319 6.4116 2.90739 0
M  V30 6480 C 158.029 5.55375 1.86963 0
M  V30 6481 N 157.979 4.09664 2.15742 0
M  V30 6482 C 157.829 3.22231 1.08477 0
M  V30 6483 O 157.739 3.68951 -0.0600489 0
M  V30 6484 N 157.779 1.76692 1.48799 0
M  V30 6485 C 157.879 1.41695 2.57602 0
M  V30 6486 N 157.829 0.107296 2.75791 0
M  V30 6487 C 158.029 2.29178 3.69733 0
M  V30 6488 C 158.079 3.62753 3.42653 0
M  V30 6489 H 160.819 7.45488 4.45578 0
M  V30 6490 H 161.089 5.86232 3.67314 0
M  V30 6491 H 160.222 7.84508 2.24507 0
M  V30 6492 H 157.567 5.73556 0.888715 0
M  V30 6493 H 157.287 5.9096 3.88638 0
M  V30 6494 H 156.296 6.66053 2.58894 0
M  V30 6495 H 158.13 8.16339 3.92049 0
M  V30 6496 H 158.202 4.33052 4.24913 0
M  V30 6497 H 158.1 1.9103 4.71577 0
M  V30 6498 H 157.712 -0.521221 1.95056 0
M  V30 6499 H 157.908 -0.286429 3.70695 0
M  V30 6500 P 156.259 8.7635 1.60911 0
M  V30 6501 O 156.039 10.1388 1.11561 0
M  V30 6502 O 155.469 8.36503 2.79617 0
M  V30 6503 O 156.009 7.71806 0.42951 0
M  V30 6504 C 156.949 7.67148 -0.673689 0
M  V30 6505 C 156.219 7.33374 -1.95559 0
M  V30 6506 O 156.009 5.88721 -2.00726 0
M  V30 6507 C 154.819 7.92526 -2.10483 0
M  V30 6508 O 154.429 8.02971 -3.47653 0
M  V30 6509 C 153.939 6.89602 -1.41652 0
M  V30 6510 C 154.649 5.59201 -1.75185 0
M  V30 6511 N 154.599 4.58301 -0.657969 0
M  V30 6512 C 154.679 4.79019 0.692603 0
M  V30 6513 N 154.609 3.69736 1.38998 0
M  V30 6514 C 154.459 2.70474 0.438135 0
M  V30 6515 C 154.329 1.30327 0.538142 0
M  V30 6516 N 154.319 0.64304 1.69192 0
M  V30 6517 N 154.209 0.611027 -0.605183 0
M  V30 6518 C 154.219 1.27002 -1.75953 0
M  V30 6519 N 154.339 2.56038 -1.98546 0
M  V30 6520 C 154.459 3.22681 -0.822541 0
M  V30 6521 H 157.438 8.65116 -0.777161 0
M  V30 6522 H 157.71 6.9022 -0.46725 0
M  V30 6523 H 156.842 7.66548 -2.79458 0
M  V30 6524 H 154.187 5.16165 -2.65183 0
M  V30 6525 H 153.907 7.06433 -0.329384 0
M  V30 6526 H 152.916 6.90926 -1.82021 0
M  V30 6527 H 154.75 8.90873 -1.62657 0
M  V30 6528 H 154.791 5.77785 1.13874 0
M  V30 6529 H 154.41 1.15585 2.57991 0
M  V30 6530 H 154.221 -0.382989 1.69835 0
M  V30 6531 H 154.113 0.653331 -2.64449 0
M  V30 6532 P 152.879 8.03563 -3.84925 0
M  V30 6533 O 152.659 8.85821 -5.0569 0
M  V30 6534 O 152.089 8.41101 -2.65469 0
M  V30 6535 O 152.629 6.4965 -4.18908 0
M  V30 6536 C 153.569 5.80886 -5.05289 0
M  V30 6537 C 152.839 4.78366 -5.89277 0
M  V30 6538 O 152.629 3.58302 -5.08433 0
M  V30 6539 C 151.439 5.16748 -6.36559 0
M  V30 6540 O 151.049 4.45271 -7.53232 0
M  V30 6541 C 150.559 4.74572 -5.19863 0
M  V30 6542 C 151.269 3.49373 -4.70338 0
M  V30 6543 N 151.219 3.31704 -3.22876 0
M  V30 6544 C 151.069 2.03326 -2.74871 0
M  V30 6545 O 150.979 1.06486 -3.48076 0
M  V30 6546 N 151.029 1.91838 -1.37456 0
M  V30 6547 C 151.119 2.94295 -0.462035 0
M  V30 6548 O 151.069 2.71763 0.752928 0
M  V30 6549 C 151.269 4.25064 -1.05249 0
M  V30 6550 C 151.379 5.39815 -0.095697 0
M  V30 6551 C 151.319 4.40214 -2.39192 0
M  V30 6552 H 154.06 6.54063 -5.71245 0
M  V30 6553 H 154.329 5.30339 -4.43905 0
M  V30 6554 H 153.462 4.55889 -6.76652 0
M  V30 6555 H 150.807 2.6167 -5.17842 0
M  V30 6556 H 150.528 5.52155 -4.41878 0
M  V30 6557 H 149.536 4.51918 -5.53297 0
M  V30 6558 H 151.37 6.25055 -6.55162 0
M  V30 6559 H 151.441 5.39798 -2.81523 0
M  V30 6560 H 150.411 5.91593 -0.0279582 0
M  V30 6561 H 152.148 6.10038 -0.450573 0
M  V30 6562 H 151.66 5.02007 0.89937 0
M  V30 6563 H 150.924 0.995326 -1.00435 0
M  V30 6564 P 149.499 4.23843 -7.83734 0
M  V30 6565 O 149.279 4.19407 -9.29784 0
M  V30 6566 O 148.709 5.24426 -7.09156 0
M  V30 6567 O 149.249 2.7935 -7.20758 0
M  V30 6568 C 150.189 1.7299 -7.50419 0
M  V30 6569 C 149.459 0.406376 -7.57911 0
M  V30 6570 O 149.249 -0.0897726 -6.21935 0
M  V30 6571 C 148.059 0.447224 -8.1878 0
M  V30 6572 O 147.669 -0.825065 -8.71101 0
M  V30 6573 C 147.179 0.783801 -6.99623 0
M  V30 6574 C 147.889 0.0619192 -5.85967 0
M  V30 6575 N 147.839 0.790462 -4.56202 0
M  V30 6576 H 150.678 1.93423 -8.4679 0
M  V30 6577 H 150.95 1.68852 -6.70877 0
M  V30 6578 H 150.082 -0.289041 -8.15388 0
M  V30 6579 H 147.427 -0.927006 -5.72848 0
M  V30 6580 H 147.147 1.86973 -6.82036 0
M  V30 6581 H 146.156 0.403953 -7.13357 0
M  V30 6582 H 147.99 1.20599 -8.97534 0
M  V30 6583 P 146.119 -1.17771 -8.83182 0
M  V30 6584 O 145.899 -2.07206 -9.98732 0
M  V30 6585 O 145.329 0.0743816 -8.81969 0
M  V30 6586 O 145.869 -1.97652 -7.47304 0
M  V30 6587 C 146.809 -3.01133 -7.08783 0
M  V30 6588 C 146.079 -4.12613 -6.37049 0
M  V30 6589 O 145.869 -3.72827 -4.97879 0
M  V30 6590 C 144.679 -4.45085 -6.88694 0
M  V30 6591 O 144.289 -5.7877 -6.5624 0
M  V30 6592 C 143.799 -3.47817 -6.12078 0
M  V30 6593 C 144.509 -3.39414 -4.77697 0
M  V30 6594 N 144.459 -2.04199 -4.15538 0
M  V30 6595 H 147.298 -3.41248 -7.98759 0
M  V30 6596 H 147.57 -2.57728 -6.42 0
M  V30 6597 H 146.702 -5.02657 -6.42673 0
M  V30 6598 H 144.047 -4.11708 -4.08956 0
M  V30 6599 H 143.767 -2.49626 -6.61679 0
M  V30 6600 H 142.776 -3.8662 -6.00862 0
M  V30 6601 H 144.61 -4.29991 -7.97006 0
M  V30 6602 P 142.739 -6.144 -6.45285 0
M  V30 6603 O 142.519 -7.54673 -6.86199 0
M  V30 6604 O 141.949 -5.12391 -7.179 0
M  V30 6605 O 142.489 -5.99158 -4.88404 0
M  V30 6606 C 143.429 -6.60062 -3.96313 0
M  V30 6607 C 142.699 -7.08259 -2.72856 0
M  V30 6608 O 142.489 -5.9427 -1.83651 0
M  V30 6609 C 141.299 -7.65087 -2.94749 0
M  V30 6610 O 140.909 -8.53963 -1.90717 0
M  V30 6611 C 140.419 -6.41069 -2.90698 0
M  V30 6612 C 141.129 -5.5528 -1.86931 0
M  V30 6613 N 141.079 -4.09575 -2.15696 0
M  V30 6614 C 140.929 -3.24249 -1.08435 0
M  V30 6615 O 140.839 -3.63946 0.0628747 0
M  V30 6616 N 140.889 -1.90009 -1.39973 0
M  V30 6617 C 140.979 -1.34884 -2.65614 0
M  V30 6618 C 141.129 -2.3145 -3.71736 0
M  V30 6619 C 141.179 -3.63518 -3.44754 0
M  V30 6620 H 143.92 -7.45402 -4.45526 0
M  V30 6621 H 144.189 -5.86062 -3.67208 0
M  V30 6622 H 143.322 -7.84412 -2.24479 0
M  V30 6623 H 140.667 -5.73358 -0.888409 0
M  V30 6624 H 140.388 -5.90877 -3.88583 0
M  V30 6625 H 139.396 -6.65867 -2.58821 0
M  V30 6626 H 141.23 -8.16248 -3.92006 0
M  V30 6627 H 141.301 -4.34551 -4.26383 0
M  V30 6628 P 139.359 -8.7635 -1.60911 0
M  V30 6629 O 139.139 -10.1388 -1.11561 0
M  V30 6630 O 138.569 -8.36503 -2.79617 0
M  V30 6631 O 139.109 -7.71806 -0.42951 0
M  V30 6632 C 140.049 -7.67148 0.673689 0
M  V30 6633 C 139.319 -7.33374 1.95559 0
M  V30 6634 O 139.109 -5.88721 2.00726 0
M  V30 6635 C 137.919 -7.92526 2.10483 0
M  V30 6636 O 137.529 -8.02971 3.47653 0
M  V30 6637 C 137.039 -6.89602 1.41652 0
M  V30 6638 C 137.749 -5.59201 1.75185 0
M  V30 6639 N 137.699 -4.58235 0.662552 0
M  V30 6640 H 140.538 -8.65116 0.777161 0
M  V30 6641 H 140.81 -6.90173 0.474152 0
M  V30 6642 H 139.942 -7.66548 2.79458 0
M  V30 6643 P 135.979 -8.03563 3.84925 0
M  V30 6644 O 135.759 -8.85821 5.0569 0
M  V30 6645 O 135.189 -8.41101 2.65469 0
M  V30 6646 O 135.729 -6.4965 4.18908 0
M  V30 6647 C 136.669 -5.81037 5.05421 0
M  V30 6648 C 135.939 -4.78366 5.89277 0
M  V30 6649 O 135.729 -3.58302 5.08433 0
M  V30 6650 C 134.539 -5.17448 6.36119 0
M  V30 6651 O 134.149 -4.45271 7.53232 0
M  V30 6652 C 133.659 -4.74639 5.19936 0
M  V30 6653 C 134.369 -3.49432 4.70418 0
M  V30 6654 N 134.319 -3.32099 3.22613 0
M  V30 6655 H 137.158 -6.54213 5.71376 0
M  V30 6656 H 137.43 -5.30936 4.43503 0
M  V30 6657 H 136.562 -4.55889 6.76652 0
M  V30 6658 H 133.907 -2.61715 5.17932 0
M  V30 6659 H 133.627 -5.52155 4.41878 0
M  V30 6660 H 132.636 -4.51981 5.53374 0
M  V30 6661 H 134.47 -6.25124 6.55234 0
M  V30 6662 P 132.599 -4.23843 7.83734 0
M  V30 6663 O 132.379 -4.19407 9.29784 0
M  V30 6664 O 131.809 -5.24426 7.09156 0
M  V30 6665 O 132.349 -2.7935 7.20758 0
M  V30 6666 C 133.289 -1.7299 7.50419 0
M  V30 6667 C 132.559 -0.406376 7.57911 0
M  V30 6668 O 132.349 0.0897726 6.21935 0
M  V30 6669 C 131.159 -0.447224 8.1878 0
M  V30 6670 O 130.769 0.825065 8.71101 0
M  V30 6671 C 130.279 -0.783801 6.99623 0
M  V30 6672 C 130.989 -0.0619192 5.85967 0
M  V30 6673 N 130.939 -0.7859 4.56281 0
M  V30 6674 H 133.778 -1.93423 8.4679 0
M  V30 6675 H 134.05 -1.68181 6.71046 0
M  V30 6676 H 133.182 0.289041 8.15388 0
M  V30 6677 P 129.219 1.17771 8.83182 0
M  V30 6678 O 128.999 2.07206 9.98732 0
M  V30 6679 O 128.429 -0.0743816 8.81969 0
M  V30 6680 O 128.969 1.97652 7.47304 0
M  V30 6681 C 129.909 3.01133 7.08783 0
M  V30 6682 C 129.179 4.12613 6.37049 0
M  V30 6683 O 128.969 3.72827 4.97879 0
M  V30 6684 C 127.779 4.45085 6.88694 0
M  V30 6685 O 127.389 5.7877 6.5624 0
M  V30 6686 C 126.899 3.47817 6.12078 0
M  V30 6687 C 127.609 3.39414 4.77697 0
M  V30 6688 N 127.559 2.04199 4.15538 0
M  V30 6689 H 130.398 3.41248 7.98759 0
M  V30 6690 H 130.67 2.57728 6.42 0
M  V30 6691 H 129.802 5.02657 6.42673 0
M  V30 6692 H 127.147 4.11708 4.08956 0
M  V30 6693 H 126.867 2.49626 6.61679 0
M  V30 6694 H 125.876 3.8662 6.00862 0
M  V30 6695 H 127.71 4.29991 7.97006 0
M  V30 6696 P 125.839 6.144 6.45285 0
M  V30 6697 O 125.619 7.54673 6.86199 0
M  V30 6698 O 125.049 5.12391 7.179 0
M  V30 6699 O 125.589 5.99158 4.88404 0
M  V30 6700 C 126.529 6.60234 3.96415 0
M  V30 6701 C 125.799 7.08259 2.72856 0
M  V30 6702 O 125.589 5.9427 1.83651 0
M  V30 6703 C 124.399 7.64886 2.9555 0
M  V30 6704 O 124.009 8.53963 1.90717 0
M  V30 6705 C 123.519 6.4116 2.90739 0
M  V30 6706 C 124.229 5.55375 1.86963 0
M  V30 6707 N 124.179 4.09448 2.16152 0
M  V30 6708 C 124.259 3.46824 3.37593 0
M  V30 6709 N 124.189 2.17422 3.29777 0
M  V30 6710 C 124.039 1.93065 1.94427 0
M  V30 6711 C 123.909 0.738053 1.20141 0
M  V30 6712 N 123.899 -0.474256 1.74676 0
M  V30 6713 N 123.789 0.850049 -0.13045 0
M  V30 6714 C 123.799 2.06169 -0.676992 0
M  V30 6715 N 123.919 3.23842 -0.101312 0
M  V30 6716 C 124.039 3.09402 1.23122 0
M  V30 6717 H 127.018 7.45574 4.45629 0
M  V30 6718 H 127.29 5.85864 3.679 0
M  V30 6719 H 126.422 7.84412 2.24479 0
M  V30 6720 H 123.767 5.73457 0.888562 0
M  V30 6721 H 123.487 5.90877 3.88583 0
M  V30 6722 H 122.496 6.6596 2.58858 0
M  V30 6723 H 124.33 8.16339 3.92049 0
M  V30 6724 H 124.371 4.00505 4.3174 0
M  V30 6725 H 123.99 -0.581337 2.76658 0
M  V30 6726 H 123.801 -1.30811 1.14888 0
M  V30 6727 H 123.693 2.08295 -1.75542 0
M  V30 6728 P 122.459 8.7635 1.60911 0
M  V30 6729 O 122.239 10.1388 1.11561 0
M  V30 6730 O 121.669 8.36503 2.79617 0
M  V30 6731 O 122.209 7.71806 0.42951 0
M  V30 6732 C 123.149 7.66948 -0.673514 0
M  V30 6733 C 122.419 7.33374 -1.95559 0
M  V30 6734 O 122.209 5.88721 -2.00726 0
M  V30 6735 C 121.019 7.92218 -2.1125 0
M  V30 6736 O 120.629 8.02971 -3.47653 0
M  V30 6737 C 120.139 6.89504 -1.41631 0
M  V30 6738 C 120.849 5.59106 -1.75155 0
M  V30 6739 N 120.799 4.58136 -0.662409 0
M  V30 6740 C 120.649 3.26059 -1.02863 0
M  V30 6741 O 120.559 2.90743 -2.19009 0
M  V30 6742 N 120.609 2.35995 0.0155585 0
M  V30 6743 C 120.699 2.65248 1.35603 0
M  V30 6744 O 120.649 1.75605 2.20651 0
M  V30 6745 C 120.849 4.05747 1.64698 0
M  V30 6746 C 120.959 4.42345 3.09553 0
M  V30 6747 C 120.899 4.96734 0.652411 0
M  V30 6748 H 123.64 8.64917 -0.776982 0
M  V30 6749 H 123.909 6.89974 -0.474015 0
M  V30 6750 H 123.042 7.66548 -2.79458 0
M  V30 6751 H 120.387 5.16076 -2.65138 0
M  V30 6752 H 120.108 7.06433 -0.329384 0
M  V30 6753 H 119.116 6.90829 -1.81996 0
M  V30 6754 H 120.95 8.90774 -1.62639 0
M  V30 6755 H 121.021 6.02181 0.895285 0
M  V30 6756 H 119.991 4.80252 3.45468 0
M  V30 6757 H 121.728 5.20015 3.22119 0
M  V30 6758 H 121.24 3.53269 3.67833 0
M  V30 6759 H 120.504 1.39558 -0.227499 0
M  V30 6760 P 119.079 8.03563 -3.84925 0
M  V30 6761 O 118.859 8.85821 -5.0569 0
M  V30 6762 O 118.289 8.41101 -2.65469 0
M  V30 6763 O 118.829 6.4965 -4.18908 0
M  V30 6764 C 119.769 5.81037 -5.05421 0
M  V30 6765 C 119.039 4.78366 -5.89277 0
M  V30 6766 O 118.829 3.58302 -5.08433 0
M  V30 6767 C 117.639 5.17448 -6.36119 0
M  V30 6768 O 117.249 4.45271 -7.53232 0
M  V30 6769 C 116.759 4.74639 -5.19936 0
M  V30 6770 C 117.469 3.49432 -4.70418 0
M  V30 6771 N 117.419 3.31776 -3.22945 0
M  V30 6772 H 120.258 6.54213 -5.71376 0
M  V30 6773 H 120.53 5.30492 -4.44033 0
M  V30 6774 H 119.662 4.55889 -6.76652 0
M  V30 6775 P 115.699 4.23843 -7.83734 0
M  V30 6776 O 115.479 4.19407 -9.29784 0
M  V30 6777 O 114.909 5.24426 -7.09156 0
M  V30 6778 O 115.449 2.7935 -7.20758 0
M  V30 6779 C 116.389 1.7299 -7.50419 0
M  V30 6780 C 115.659 0.406376 -7.57911 0
M  V30 6781 O 115.449 -0.0897726 -6.21935 0
M  V30 6782 C 114.259 0.447224 -8.1878 0
M  V30 6783 O 113.869 -0.825065 -8.71101 0
M  V30 6784 C 113.379 0.783801 -6.99623 0
M  V30 6785 C 114.089 0.0619192 -5.85967 0
M  V30 6786 N 114.039 0.790462 -4.56202 0
M  V30 6787 C 114.119 2.13895 -4.34171 0
M  V30 6788 N 114.049 2.46449 -3.08687 0
M  V30 6789 C 113.899 1.2525 -2.43697 0
M  V30 6790 C 113.769 0.914535 -1.07318 0
M  V30 6791 N 113.759 1.80782 -0.0887348 0
M  V30 6792 N 113.649 -0.386745 -0.768133 0
M  V30 6793 C 113.659 -1.28096 -1.75159 0
M  V30 6794 N 113.779 -1.09708 -3.04861 0
M  V30 6795 C 113.899 0.214857 -3.32306 0
M  V30 6796 H 116.878 1.93423 -8.4679 0
M  V30 6797 H 117.15 1.68852 -6.70877 0
M  V30 6798 H 116.282 -0.289041 -8.15388 0
M  V30 6799 H 113.627 -0.927006 -5.72848 0
M  V30 6800 H 113.347 1.86973 -6.82036 0
M  V30 6801 H 112.356 0.403953 -7.13357 0
M  V30 6802 H 114.19 1.20599 -8.97534 0
M  V30 6803 H 114.231 2.86846 -5.14318 0
M  V30 6804 H 113.85 2.81082 -0.302037 0
M  V30 6805 H 113.661 1.49688 0.889064 0
M  V30 6806 H 113.553 -2.31317 -1.43855 0
M  V30 6807 P 112.319 -1.17771 -8.83182 0
M  V30 6808 O 112.099 -2.07206 -9.98732 0
M  V30 6809 O 111.529 0.0743816 -8.81969 0
M  V30 6810 O 112.069 -1.97652 -7.47304 0
M  V30 6811 C 113.009 -3.01133 -7.08783 0
M  V30 6812 C 112.279 -4.12613 -6.37049 0
M  V30 6813 O 112.069 -3.72827 -4.97879 0
M  V30 6814 C 110.879 -4.45085 -6.88694 0
M  V30 6815 O 110.489 -5.7877 -6.5624 0
M  V30 6816 C 109.999 -3.47817 -6.12078 0
M  V30 6817 C 110.709 -3.39414 -4.77697 0
M  V30 6818 N 110.659 -2.04615 -4.15333 0
M  V30 6819 H 113.498 -3.41248 -7.98759 0
M  V30 6820 H 113.77 -2.5837 -6.41742 0
M  V30 6821 H 112.902 -5.02657 -6.42673 0
M  V30 6822 P 108.939 -6.144 -6.45285 0
M  V30 6823 O 108.719 -7.54673 -6.86199 0
M  V30 6824 O 108.149 -5.12391 -7.179 0
M  V30 6825 O 108.689 -5.99158 -4.88404 0
M  V30 6826 C 109.629 -6.60234 -3.96415 0
M  V30 6827 C 108.899 -7.08259 -2.72856 0
M  V30 6828 O 108.689 -5.9427 -1.83651 0
M  V30 6829 C 107.499 -7.64886 -2.9555 0
M  V30 6830 O 107.109 -8.53963 -1.90717 0
M  V30 6831 C 106.619 -6.4116 -2.90739 0
M  V30 6832 C 107.329 -5.55375 -1.86963 0
M  V30 6833 N 107.279 -4.09664 -2.15742 0
M  V30 6834 H 110.118 -7.45574 -4.45629 0
M  V30 6835 H 110.39 -5.86232 -3.67314 0
M  V30 6836 H 109.522 -7.84412 -2.24479 0
M  V30 6837 P 105.559 -8.7635 -1.60911 0
M  V30 6838 O 105.339 -10.1388 -1.11561 0
M  V30 6839 O 104.769 -8.36503 -2.79617 0
M  V30 6840 O 105.309 -7.71806 -0.42951 0
M  V30 6841 C 106.249 -7.66948 0.673514 0
M  V30 6842 C 105.519 -7.33374 1.95559 0
M  V30 6843 O 105.309 -5.88721 2.00726 0
M  V30 6844 C 104.119 -7.92218 2.1125 0
M  V30 6845 O 103.729 -8.02971 3.47653 0
M  V30 6846 C 103.239 -6.89504 1.41631 0
M  V30 6847 C 103.949 -5.59106 1.75155 0
M  V30 6848 N 103.899 -4.58136 0.662409 0
M  V30 6849 C 103.749 -3.26059 1.02863 0
M  V30 6850 O 103.659 -2.90743 2.19009 0
M  V30 6851 N 103.709 -2.35995 -0.0155585 0
M  V30 6852 C 103.799 -2.65248 -1.35603 0
M  V30 6853 O 103.749 -1.75605 -2.20651 0
M  V30 6854 C 103.949 -4.05747 -1.64698 0
M  V30 6855 C 104.059 -4.42345 -3.09553 0
M  V30 6856 C 103.999 -4.96734 -0.652411 0
M  V30 6857 H 106.74 -8.64917 0.776982 0
M  V30 6858 H 107.009 -6.89974 0.474015 0
M  V30 6859 H 106.142 -7.66548 2.79458 0
M  V30 6860 H 103.487 -5.16076 2.65138 0
M  V30 6861 H 103.208 -7.06433 0.329384 0
M  V30 6862 H 102.216 -6.90829 1.81996 0
M  V30 6863 H 104.05 -8.90774 1.62639 0
M  V30 6864 H 104.121 -6.02181 -0.895285 0
M  V30 6865 H 103.091 -4.80252 -3.45468 0
M  V30 6866 H 104.828 -5.20015 -3.22119 0
M  V30 6867 H 104.34 -3.53269 -3.67833 0
M  V30 6868 H 103.604 -1.39558 0.227499 0
M  V30 6869 P 102.179 -8.03563 3.84925 0
M  V30 6870 O 101.959 -8.85821 5.0569 0
M  V30 6871 O 101.389 -8.41101 2.65469 0
M  V30 6872 O 101.929 -6.4965 4.18908 0
M  V30 6873 C 102.869 -5.81037 5.05421 0
M  V30 6874 C 102.139 -4.78366 5.89277 0
M  V30 6875 O 101.929 -3.58302 5.08433 0
M  V30 6876 C 100.739 -5.17448 6.36119 0
M  V30 6877 O 100.349 -4.45271 7.53232 0
M  V30 6878 C 99.8594 -4.74639 5.19936 0
M  V30 6879 C 100.569 -3.49432 4.70418 0
M  V30 6880 N 100.519 -3.31776 3.22945 0
M  V30 6881 H 103.358 -6.54213 5.71376 0
M  V30 6882 H 103.63 -5.30492 4.44033 0
M  V30 6883 H 102.762 -4.55889 6.76652 0
M  V30 6884 P 98.7994 -4.23843 7.83734 0
M  V30 6885 O 98.5794 -4.19407 9.29784 0
M  V30 6886 O 98.0094 -5.24426 7.09156 0
M  V30 6887 O 98.5494 -2.7935 7.20758 0
M  V30 6888 C 99.4894 -1.72945 7.50224 0
M  V30 6889 C 98.7594 -0.406376 7.57911 0
M  V30 6890 O 98.5494 0.0897726 6.21935 0
M  V30 6891 C 97.3594 -0.438983 8.18724 0
M  V30 6892 O 96.9694 0.825065 8.71101 0
M  V30 6893 C 96.4794 -0.783689 6.99524 0
M  V30 6894 C 97.1894 -0.0619086 5.85867 0
M  V30 6895 N 97.1394 -0.78573 4.56183 0
M  V30 6896 C 96.9894 -0.0292889 3.41887 0
M  V30 6897 O 96.8994 1.18445 3.4419 0
M  V30 6898 N 96.9494 -0.744061 2.23964 0
M  V30 6899 C 97.0394 -2.10932 2.10362 0
M  V30 6900 O 96.9894 -2.64117 0.98825 0
M  V30 6901 C 97.1894 -2.8202 3.34994 0
M  V30 6902 C 97.2994 -4.31095 3.25037 0
M  V30 6903 C 97.2394 -2.15547 4.52261 0
M  V30 6904 H 99.9804 -1.93379 8.46595 0
M  V30 6905 H 100.249 -1.68132 6.70852 0
M  V30 6906 H 99.3824 0.289041 8.15388 0
M  V30 6907 H 96.7274 0.926847 5.72749 0
M  V30 6908 H 96.4484 -1.86973 6.82036 0
M  V30 6909 H 95.4564 -0.403896 7.13257 0
M  V30 6910 H 97.2904 -1.20585 8.97435 0
M  V30 6911 H 97.3614 -2.71231 5.45042 0
M  V30 6912 H 96.3314 -4.76966 3.49992 0
M  V30 6913 H 98.0684 -4.67047 3.95024 0
M  V30 6914 H 97.5804 -4.58996 2.22312 0
M  V30 6915 H 96.8444 -0.214893 1.39758 0
M  V30 6916 P 95.4195 1.17771 8.83182 0
M  V30 6917 O 95.1995 2.07206 9.98732 0
M  V30 6918 O 94.6295 -0.0743816 8.81969 0
M  V30 6919 O 95.1695 1.97678 7.474 0
M  V30 6920 C 96.1095 3.01133 7.08783 0
M  V30 6921 C 95.3795 4.1203 6.37546 0
M  V30 6922 O 95.1695 3.72887 4.9796 0
M  V30 6923 C 93.9795 4.45085 6.88694 0
M  V30 6924 O 93.5895 5.78836 6.56315 0
M  V30 6925 C 93.0995 3.47817 6.12078 0
M  V30 6926 C 93.8095 3.39414 4.77697 0
M  V30 6927 N 93.7595 2.04615 4.15333 0
M  V30 6928 C 93.6095 1.96929 2.77162 0
M  V30 6929 O 93.5195 3.02017 2.12006 0
M  V30 6930 N 93.5595 0.55485 2.24237 0
M  V30 6931 C 93.6595 -0.367808 2.9169 0
M  V30 6932 N 93.6095 -1.53426 2.29427 0
M  V30 6933 C 93.8095 -0.319148 4.33828 0
M  V30 6934 C 93.8595 0.920672 4.90433 0
M  V30 6935 H 96.5995 3.41209 7.98667 0
M  V30 6936 H 96.8695 2.5837 6.41742 0
M  V30 6937 H 96.0025 5.02718 6.42752 0
M  V30 6938 H 93.3475 4.11779 4.09026 0
M  V30 6939 H 93.0675 2.49661 6.61772 0
M  V30 6940 H 92.0765 3.86674 6.00946 0
M  V30 6941 H 93.9105 4.29991 7.97006 0
M  V30 6942 H 93.9825 1.00589 5.98303 0
M  V30 6943 H 93.8805 -1.22639 4.93799 0
M  V30 6944 H 93.4925 -1.56819 1.27167 0
M  V30 6945 H 93.6885 -2.41062 2.83063 0
M  V30 6946 P 92.0395 6.144 6.45285 0
M  V30 6947 O 91.8195 7.54673 6.86199 0
M  V30 6948 O 91.2495 5.12391 7.179 0
M  V30 6949 O 91.7895 5.99236 4.88467 0
M  V30 6950 C 92.7295 6.60234 3.96415 0
M  V30 6951 C 91.9995 7.08079 2.736 0
M  V30 6952 O 91.7895 5.94365 1.8368 0
M  V30 6953 C 90.5995 7.64886 2.9555 0
M  V30 6954 O 90.2095 8.5406 1.90739 0
M  V30 6955 C 89.7195 6.4116 2.90739 0
M  V30 6956 C 90.4295 5.55375 1.86963 0
M  V30 6957 N 90.3795 4.09664 2.15742 0
M  V30 6958 C 90.2295 3.22231 1.08477 0
M  V30 6959 O 90.1395 3.68951 -0.0600489 0
M  V30 6960 N 90.1795 1.76692 1.48799 0
M  V30 6961 C 90.2795 1.41695 2.57602 0
M  V30 6962 N 90.2295 0.107296 2.75791 0
M  V30 6963 C 90.4295 2.29178 3.69733 0
M  V30 6964 C 90.4795 3.62753 3.42653 0
M  V30 6965 H 93.2195 7.45488 4.45578 0
M  V30 6966 H 93.4895 5.86232 3.67314 0
M  V30 6967 H 92.6225 7.84508 2.24507 0
M  V30 6968 H 89.9675 5.73556 0.888715 0
M  V30 6969 H 89.6875 5.9096 3.88638 0
M  V30 6970 H 88.6965 6.66053 2.58894 0
M  V30 6971 H 90.5305 8.16339 3.92049 0
M  V30 6972 H 90.6025 4.33052 4.24913 0
M  V30 6973 H 90.5005 1.9103 4.71577 0
M  V30 6974 H 90.1125 -0.521221 1.95056 0
M  V30 6975 H 90.3085 -0.286429 3.70695 0
M  V30 6976 P 88.6595 8.7635 1.60911 0
M  V30 6977 O 88.4395 10.1388 1.11561 0
M  V30 6978 O 87.8695 8.36503 2.79617 0
M  V30 6979 O 88.4095 7.71806 0.42951 0
M  V30 6980 C 89.3495 7.67148 -0.673689 0
M  V30 6981 C 88.6195 7.33374 -1.95559 0
M  V30 6982 O 88.4095 5.88721 -2.00726 0
M  V30 6983 C 87.2195 7.92526 -2.10483 0
M  V30 6984 O 86.8295 8.02971 -3.47653 0
M  V30 6985 C 86.3395 6.89602 -1.41652 0
M  V30 6986 C 87.0495 5.59201 -1.75185 0
M  V30 6987 N 86.9995 4.58235 -0.662552 0
M  V30 6988 H 89.8385 8.65116 -0.777161 0
M  V30 6989 H 90.1105 6.90173 -0.474152 0
M  V30 6990 H 89.2425 7.66548 -2.79458 0
M  V30 6991 P 85.2795 8.03563 -3.84925 0
M  V30 6992 O 85.0595 8.85821 -5.0569 0
M  V30 6993 O 84.4895 8.41101 -2.65469 0
M  V30 6994 O 85.0295 6.4965 -4.18908 0
M  V30 6995 C 85.9695 5.81037 -5.05421 0
M  V30 6996 C 85.2395 4.78366 -5.89277 0
M  V30 6997 O 85.0295 3.58302 -5.08433 0
M  V30 6998 C 83.8395 5.17448 -6.36119 0
M  V30 6999 O 83.4495 4.45271 -7.53232 0
M  V30 7000 C 82.9595 4.74639 -5.19936 0
M  V30 7001 C 83.6695 3.49432 -4.70418 0
M  V30 7002 N 83.6195 3.31776 -3.22945 0
M  V30 7003 H 86.4585 6.54213 -5.71376 0
M  V30 7004 H 86.7305 5.30492 -4.44033 0
M  V30 7005 H 85.8625 4.55889 -6.76652 0
M  V30 7006 P 81.8995 4.23843 -7.83734 0
M  V30 7007 O 81.6795 4.19407 -9.29784 0
M  V30 7008 O 81.1095 5.24426 -7.09156 0
M  V30 7009 O 81.6495 2.7935 -7.20758 0
M  V30 7010 C 82.5895 1.7299 -7.50419 0
M  V30 7011 C 81.8595 0.406376 -7.57911 0
M  V30 7012 O 81.6495 -0.0897726 -6.21935 0
M  V30 7013 C 80.4595 0.447224 -8.1878 0
M  V30 7014 O 80.0695 -0.825065 -8.71101 0
M  V30 7015 C 79.5795 0.783801 -6.99623 0
M  V30 7016 C 80.2895 0.0619192 -5.85967 0
M  V30 7017 N 80.2395 0.7859 -4.56281 0
M  V30 7018 H 83.0785 1.93423 -8.4679 0
M  V30 7019 H 83.3505 1.68181 -6.71046 0
M  V30 7020 H 82.4825 -0.289041 -8.15388 0
M  V30 7021 P 78.5196 -1.17771 -8.83182 0
M  V30 7022 O 78.2996 -2.07206 -9.98732 0
M  V30 7023 O 77.7296 0.0743816 -8.81969 0
M  V30 7024 O 78.2696 -1.97652 -7.47304 0
M  V30 7025 C 79.2096 -3.01133 -7.08783 0
M  V30 7026 C 78.4796 -4.12613 -6.37049 0
M  V30 7027 O 78.2696 -3.72827 -4.97879 0
M  V30 7028 C 77.0796 -4.45085 -6.88694 0
M  V30 7029 O 76.6896 -5.7877 -6.5624 0
M  V30 7030 C 76.1996 -3.47817 -6.12078 0
M  V30 7031 C 76.9096 -3.39414 -4.77697 0
M  V30 7032 N 76.8596 -2.04615 -4.15333 0
M  V30 7033 C 76.9396 -0.803897 -4.75249 0
M  V30 7034 N 76.8596 0.197615 -3.91502 0
M  V30 7035 C 76.7196 -0.413002 -2.66823 0
M  V30 7036 C 76.5896 0.157221 -1.38007 0
M  V30 7037 N 76.4696 -0.833136 -0.390236 0
M  V30 7038 C 76.4696 -2.19402 -0.623885 0
M  V30 7039 N 76.3396 -2.97622 0.449677 0
M  V30 7040 N 76.5996 -2.73005 -1.83601 0
M  V30 7041 C 76.7196 -1.78786 -2.80935 0
M  V30 7042 H 79.6986 -3.41248 -7.98759 0
M  V30 7043 H 79.9706 -2.5837 -6.41742 0
M  V30 7044 H 79.1026 -5.02657 -6.42673 0
M  V30 7045 P 75.1396 -6.144 -6.45285 0
M  V30 7046 O 74.9196 -7.54673 -6.86199 0
M  V30 7047 O 74.3496 -5.12391 -7.179 0
M  V30 7048 O 74.8896 -5.99158 -4.88404 0
M  V30 7049 C 75.8296 -6.60062 -3.96313 0
M  V30 7050 C 75.0996 -7.08259 -2.72856 0
M  V30 7051 O 74.8896 -5.9427 -1.83651 0
M  V30 7052 C 73.6996 -7.65087 -2.94749 0
M  V30 7053 O 73.3096 -8.53963 -1.90717 0
M  V30 7054 C 72.8196 -6.41069 -2.90698 0
M  V30 7055 C 73.5296 -5.5528 -1.86931 0
M  V30 7056 N 73.4796 -4.09575 -2.15696 0
M  V30 7057 C 73.3296 -3.24249 -1.08435 0
M  V30 7058 O 73.2396 -3.63946 0.0628747 0
M  V30 7059 N 73.2896 -1.90009 -1.39973 0
M  V30 7060 C 73.3796 -1.34884 -2.65614 0
M  V30 7061 C 73.5296 -2.3145 -3.71736 0
M  V30 7062 C 73.5796 -3.63518 -3.44754 0
M  V30 7063 H 76.3206 -7.45402 -4.45526 0
M  V30 7064 H 76.5896 -5.86062 -3.67208 0
M  V30 7065 H 75.7226 -7.84412 -2.24479 0
M  V30 7066 H 73.0676 -5.73358 -0.888409 0
M  V30 7067 H 72.7886 -5.90877 -3.88583 0
M  V30 7068 H 71.7966 -6.65867 -2.58821 0
M  V30 7069 H 73.6306 -8.16248 -3.92006 0
M  V30 7070 H 73.7016 -4.34551 -4.26383 0
M  V30 7071 P 71.7596 -8.7635 -1.60911 0
M  V30 7072 O 71.5396 -10.1388 -1.11561 0
M  V30 7073 O 70.9696 -8.36503 -2.79617 0
M  V30 7074 O 71.5096 -7.71806 -0.42951 0
M  V30 7075 C 72.4496 -7.67148 0.673689 0
M  V30 7076 C 71.7196 -7.33374 1.95559 0
M  V30 7077 O 71.5096 -5.88721 2.00726 0
M  V30 7078 C 70.3196 -7.92526 2.10483 0
M  V30 7079 O 69.9296 -8.02971 3.47653 0
M  V30 7080 C 69.4396 -6.89602 1.41652 0
M  V30 7081 C 70.1496 -5.59201 1.75185 0
M  V30 7082 N 70.0996 -4.58235 0.662552 0
M  V30 7083 H 72.9386 -8.65116 0.777161 0
M  V30 7084 H 73.2106 -6.90173 0.474152 0
M  V30 7085 H 72.3426 -7.66548 2.79458 0
M  V30 7086 P 68.3796 -8.03563 3.84925 0
M  V30 7087 O 68.1596 -8.85821 5.0569 0
M  V30 7088 O 67.5896 -8.41101 2.65469 0
M  V30 7089 O 68.1296 -6.4965 4.18908 0
M  V30 7090 C 69.0696 -5.81037 5.05421 0
M  V30 7091 C 68.3396 -4.78366 5.89277 0
M  V30 7092 O 68.1296 -3.58302 5.08433 0
M  V30 7093 C 66.9396 -5.17448 6.36119 0
M  V30 7094 O 66.5496 -4.45271 7.53232 0
M  V30 7095 C 66.0596 -4.74639 5.19936 0
M  V30 7096 C 66.7696 -3.49432 4.70418 0
M  V30 7097 N 66.7196 -3.31776 3.22945 0
M  V30 7098 H 69.5586 -6.54213 5.71376 0
M  V30 7099 H 69.8306 -5.30492 4.44033 0
M  V30 7100 H 68.9626 -4.55889 6.76652 0
M  V30 7101 P 64.9996 -4.23843 7.83734 0
M  V30 7102 O 64.7796 -4.19407 9.29784 0
M  V30 7103 O 64.2096 -5.24426 7.09156 0
M  V30 7104 O 64.7496 -2.7935 7.20758 0
M  V30 7105 C 65.6896 -1.7299 7.50419 0
M  V30 7106 C 64.9596 -0.406376 7.57911 0
M  V30 7107 O 64.7496 0.0897726 6.21935 0
M  V30 7108 C 63.5596 -0.447224 8.1878 0
M  V30 7109 O 63.1696 0.825065 8.71101 0
M  V30 7110 C 62.6796 -0.783801 6.99623 0
M  V30 7111 C 63.3896 -0.0619192 5.85967 0
M  V30 7112 N 63.3396 -0.7859 4.56281 0
M  V30 7113 H 66.1786 -1.93423 8.4679 0
M  V30 7114 H 66.4506 -1.68181 6.71046 0
M  V30 7115 H 65.5826 0.289041 8.15388 0
M  V30 7116 P 61.6197 1.17771 8.83182 0
M  V30 7117 O 61.3997 2.07206 9.98732 0
M  V30 7118 O 60.8297 -0.0743816 8.81969 0
M  V30 7119 O 61.3697 1.97652 7.47304 0
M  V30 7120 C 62.3097 3.01133 7.08783 0
M  V30 7121 C 61.5797 4.12613 6.37049 0
M  V30 7122 O 61.3697 3.72827 4.97879 0
M  V30 7123 C 60.1797 4.45085 6.88694 0
M  V30 7124 O 59.7897 5.7877 6.5624 0
M  V30 7125 C 59.2997 3.47817 6.12078 0
M  V30 7126 C 60.0097 3.39414 4.77697 0
M  V30 7127 N 59.9597 2.04199 4.15538 0
M  V30 7128 H 62.7987 3.41248 7.98759 0
M  V30 7129 H 63.0707 2.57728 6.42 0
M  V30 7130 H 62.2027 5.02657 6.42673 0
M  V30 7131 H 59.5477 4.11708 4.08956 0
M  V30 7132 H 59.2677 2.49626 6.61679 0
M  V30 7133 H 58.2767 3.8662 6.00862 0
M  V30 7134 H 60.1107 4.29991 7.97006 0
M  V30 7135 P 58.2397 6.144 6.45285 0
M  V30 7136 O 58.0197 7.54673 6.86199 0
M  V30 7137 O 57.4497 5.12391 7.179 0
M  V30 7138 O 57.9897 5.99158 4.88404 0
M  V30 7139 C 58.9297 6.60234 3.96415 0
M  V30 7140 C 58.1997 7.08259 2.72856 0
M  V30 7141 O 57.9897 5.9427 1.83651 0
M  V30 7142 C 56.7997 7.64886 2.9555 0
M  V30 7143 O 56.4097 8.53963 1.90717 0
M  V30 7144 C 55.9197 6.4116 2.90739 0
M  V30 7145 C 56.6297 5.55375 1.86963 0
M  V30 7146 N 56.5797 4.09664 2.15742 0
M  V30 7147 H 59.4187 7.45574 4.45629 0
M  V30 7148 H 59.6907 5.86232 3.67314 0
M  V30 7149 H 58.8227 7.84412 2.24479 0
M  V30 7150 P 54.8597 8.7635 1.60911 0
M  V30 7151 O 54.6397 10.1388 1.11561 0
M  V30 7152 O 54.0697 8.36503 2.79617 0
M  V30 7153 O 54.6097 7.71906 0.429565 0
M  V30 7154 C 55.5497 7.67148 -0.673689 0
M  V30 7155 C 54.8197 7.33666 -1.94851 0
M  V30 7156 O 54.6097 5.88816 -2.00759 0
M  V30 7157 C 53.4197 7.92526 -2.10483 0
M  V30 7158 O 53.0297 8.03063 -3.47693 0
M  V30 7159 C 52.5397 6.89602 -1.41652 0
M  V30 7160 C 53.2497 5.59201 -1.75185 0
M  V30 7161 N 53.1997 4.58235 -0.662552 0
M  V30 7162 C 53.0497 3.24451 -1.01643 0
M  V30 7163 O 52.9597 2.94958 -2.21722 0
M  V30 7164 N 52.9997 2.30408 0.165238 0
M  V30 7165 C 53.0997 2.66048 1.25118 0
M  V30 7166 N 53.0497 1.70787 2.16813 0
M  V30 7167 C 53.2497 4.02732 1.64413 0
M  V30 7168 C 53.2997 4.9488 0.63991 0
M  V30 7169 H 56.0397 8.65017 -0.777072 0
M  V30 7170 H 56.3097 6.90173 -0.474152 0
M  V30 7171 H 55.4427 7.66642 -2.79492 0
M  V30 7172 H 52.7877 5.16254 -2.65229 0
M  V30 7173 H 52.5077 7.06532 -0.329431 0
M  V30 7174 H 51.5167 6.91023 -1.82047 0
M  V30 7175 H 53.3507 8.90873 -1.62657 0
M  V30 7176 H 53.4227 6.00104 0.892197 0
M  V30 7177 H 53.3207 4.31733 2.69229 0
M  V30 7178 H 52.9327 0.724835 1.8844 0
M  V30 7179 H 53.1287 1.94716 3.16734 0
M  V30 7180 P 51.4797 8.03563 -3.84925 0
M  V30 7181 O 51.2597 8.85821 -5.0569 0
M  V30 7182 O 50.6897 8.41101 -2.65469 0
M  V30 7183 O 51.2297 6.4965 -4.18908 0
M  V30 7184 C 52.1697 5.81037 -5.05421 0
M  V30 7185 C 51.4397 4.78366 -5.89277 0
M  V30 7186 O 51.2297 3.58302 -5.08433 0
M  V30 7187 C 50.0397 5.17448 -6.36119 0
M  V30 7188 O 49.6497 4.45271 -7.53232 0
M  V30 7189 C 49.1597 4.74639 -5.19936 0
M  V30 7190 C 49.8697 3.49432 -4.70418 0
M  V30 7191 N 49.8197 3.31776 -3.22945 0
M  V30 7192 H 52.6587 6.54213 -5.71376 0
M  V30 7193 H 52.9307 5.30492 -4.44033 0
M  V30 7194 H 52.0627 4.55889 -6.76652 0
M  V30 7195 P 48.0997 4.23843 -7.83734 0
M  V30 7196 O 47.8797 4.19407 -9.29784 0
M  V30 7197 O 47.3097 5.24426 -7.09156 0
M  V30 7198 O 47.8497 2.7935 -7.20758 0
M  V30 7199 C 48.7897 1.7299 -7.50419 0
M  V30 7200 C 48.0597 0.406376 -7.57911 0
M  V30 7201 O 47.8497 -0.0897726 -6.21935 0
M  V30 7202 C 46.6597 0.447224 -8.1878 0
M  V30 7203 O 46.2697 -0.825065 -8.71101 0
M  V30 7204 C 45.7797 0.783801 -6.99623 0
M  V30 7205 C 46.4897 0.0619192 -5.85967 0
M  V30 7206 N 46.4397 0.7859 -4.56281 0
M  V30 7207 H 49.2787 1.93423 -8.4679 0
M  V30 7208 H 49.5507 1.68181 -6.71046 0
M  V30 7209 H 48.6827 -0.289041 -8.15388 0
M  V30 7210 P 44.7198 -1.17771 -8.83182 0
M  V30 7211 O 44.4998 -2.07206 -9.98732 0
M  V30 7212 O 43.9298 0.0743816 -8.81969 0
M  V30 7213 O 44.4698 -1.97678 -7.474 0
M  V30 7214 C 45.4098 -3.01133 -7.08783 0
M  V30 7215 C 44.6798 -4.1203 -6.37546 0
M  V30 7216 O 44.4698 -3.72887 -4.9796 0
M  V30 7217 C 43.2798 -4.45085 -6.88694 0
M  V30 7218 O 42.8898 -5.78836 -6.56315 0
M  V30 7219 C 42.3998 -3.47817 -6.12078 0
M  V30 7220 C 43.1098 -3.39414 -4.77697 0
M  V30 7221 N 43.0598 -2.04615 -4.15333 0
M  V30 7222 C 42.9098 -1.96929 -2.77162 0
M  V30 7223 O 42.8198 -3.02017 -2.12006 0
M  V30 7224 N 42.8598 -0.55485 -2.24237 0
M  V30 7225 C 42.9598 0.367808 -2.9169 0
M  V30 7226 N 42.9098 1.53426 -2.29427 0
M  V30 7227 C 43.1098 0.319148 -4.33828 0
M  V30 7228 C 43.1598 -0.920672 -4.90433 0
M  V30 7229 H 45.8998 -3.41209 -7.98667 0
M  V30 7230 H 46.1698 -2.5837 -6.41742 0
M  V30 7231 H 45.3028 -5.02718 -6.42752 0
M  V30 7232 H 42.6478 -4.11779 -4.09026 0
M  V30 7233 H 42.3678 -2.49661 -6.61772 0
M  V30 7234 H 41.3768 -3.86674 -6.00946 0
M  V30 7235 H 43.2108 -4.29991 -7.97006 0
M  V30 7236 H 43.2828 -1.00589 -5.98303 0
M  V30 7237 H 43.1808 1.22639 -4.93799 0
M  V30 7238 H 42.7928 1.56819 -1.27167 0
M  V30 7239 H 42.9888 2.41062 -2.83063 0
M  V30 7240 P 41.3398 -6.144 -6.45285 0
M  V30 7241 O 41.1198 -7.54673 -6.86199 0
M  V30 7242 O 40.5498 -5.12391 -7.179 0
M  V30 7243 O 41.0898 -5.99158 -4.88404 0
M  V30 7244 C 42.0298 -6.60234 -3.96415 0
M  V30 7245 C 41.2998 -7.08259 -2.72856 0
M  V30 7246 O 41.0898 -5.9427 -1.83651 0
M  V30 7247 C 39.8998 -7.64886 -2.9555 0
M  V30 7248 O 39.5098 -8.53963 -1.90717 0
M  V30 7249 C 39.0198 -6.4116 -2.90739 0
M  V30 7250 C 39.7298 -5.55375 -1.86963 0
M  V30 7251 N 39.6798 -4.09664 -2.15742 0
M  V30 7252 H 42.5188 -7.45574 -4.45629 0
M  V30 7253 H 42.7908 -5.86232 -3.67314 0
M  V30 7254 H 41.9228 -7.84412 -2.24479 0
M  V30 7255 P 37.9598 -8.7635 -1.60911 0
M  V30 7256 O 37.7398 -10.1388 -1.11561 0
M  V30 7257 O 37.1698 -8.36503 -2.79617 0
M  V30 7258 O 37.7098 -7.71806 -0.42951 0
M  V30 7259 C 38.6498 -7.67148 0.673689 0
M  V30 7260 C 37.9198 -7.33374 1.95559 0
M  V30 7261 O 37.7098 -5.88721 2.00726 0
M  V30 7262 C 36.5198 -7.92526 2.10483 0
M  V30 7263 O 36.1298 -8.02971 3.47653 0
M  V30 7264 C 35.6398 -6.89602 1.41652 0
M  V30 7265 C 36.3498 -5.59201 1.75185 0
M  V30 7266 N 36.2998 -4.58235 0.662552 0
M  V30 7267 H 39.1388 -8.65116 0.777161 0
M  V30 7268 H 39.4108 -6.90173 0.474152 0
M  V30 7269 H 38.5428 -7.66548 2.79458 0
M  V30 7270 P 34.5798 -8.03563 3.84925 0
M  V30 7271 O 34.3598 -8.85821 5.0569 0
M  V30 7272 O 33.7898 -8.41101 2.65469 0
M  V30 7273 O 34.3298 -6.4965 4.18908 0
M  V30 7274 C 35.2698 -5.81037 5.05421 0
M  V30 7275 C 34.5398 -4.78366 5.89277 0
M  V30 7276 O 34.3298 -3.58302 5.08433 0
M  V30 7277 C 33.1398 -5.17448 6.36119 0
M  V30 7278 O 32.7498 -4.45271 7.53232 0
M  V30 7279 C 32.2598 -4.74639 5.19936 0
M  V30 7280 C 32.9698 -3.49432 4.70418 0
M  V30 7281 N 32.9198 -3.31776 3.22945 0
M  V30 7282 H 35.7588 -6.54213 5.71376 0
M  V30 7283 H 36.0308 -5.30492 4.44033 0
M  V30 7284 H 35.1628 -4.55889 6.76652 0
M  V30 7285 P 31.1998 -4.23843 7.83734 0
M  V30 7286 O 30.9798 -4.19407 9.29784 0
M  V30 7287 O 30.4098 -5.24426 7.09156 0
M  V30 7288 O 30.9498 -2.7935 7.20758 0
M  V30 7289 C 31.8898 -1.7299 7.50419 0
M  V30 7290 C 31.1598 -0.406376 7.57911 0
M  V30 7291 O 30.9498 0.0897726 6.21935 0
M  V30 7292 C 29.7598 -0.447224 8.1878 0
M  V30 7293 O 29.3698 0.825065 8.71101 0
M  V30 7294 C 28.8798 -0.783801 6.99623 0
M  V30 7295 C 29.5898 -0.0619192 5.85967 0
M  V30 7296 N 29.5398 -0.7859 4.56281 0
M  V30 7297 H 32.3788 -1.93423 8.4679 0
M  V30 7298 H 32.6508 -1.68181 6.71046 0
M  V30 7299 H 31.7828 0.289041 8.15388 0
M  V30 7300 P 27.8199 1.17771 8.83182 0
M  V30 7301 O 27.5999 2.07206 9.98732 0
M  V30 7302 O 27.0299 -0.0743816 8.81969 0
M  V30 7303 O 27.5699 1.97652 7.47304 0
M  V30 7304 C 28.5099 3.01133 7.08783 0
M  V30 7305 C 27.7799 4.12613 6.37049 0
M  V30 7306 O 27.5699 3.72827 4.97879 0
M  V30 7307 C 26.3799 4.45085 6.88694 0
M  V30 7308 O 25.9899 5.7877 6.5624 0
M  V30 7309 C 25.4999 3.47817 6.12078 0
M  V30 7310 C 26.2099 3.39414 4.77697 0
M  V30 7311 N 26.1599 2.04199 4.15538 0
M  V30 7312 H 28.9989 3.41248 7.98759 0
M  V30 7313 H 29.2709 2.57728 6.42 0
M  V30 7314 H 28.4029 5.02657 6.42673 0
M  V30 7315 H 25.7479 4.11708 4.08956 0
M  V30 7316 H 25.4679 2.49626 6.61679 0
M  V30 7317 H 24.4769 3.8662 6.00862 0
M  V30 7318 H 26.3109 4.29991 7.97006 0
M  V30 7319 P 24.4399 6.144 6.45285 0
M  V30 7320 O 24.2199 7.54673 6.86199 0
M  V30 7321 O 23.6499 5.12391 7.179 0
M  V30 7322 O 24.1899 5.99158 4.88404 0
M  V30 7323 C 25.1299 6.60234 3.96415 0
M  V30 7324 C 24.3999 7.08259 2.72856 0
M  V30 7325 O 24.1899 5.9427 1.83651 0
M  V30 7326 C 22.9999 7.64886 2.9555 0
M  V30 7327 O 22.6099 8.53963 1.90717 0
M  V30 7328 C 22.1199 6.4116 2.90739 0
M  V30 7329 C 22.8299 5.55375 1.86963 0
M  V30 7330 N 22.7799 4.09664 2.15742 0
M  V30 7331 H 25.6189 7.45574 4.45629 0
M  V30 7332 H 25.8909 5.86232 3.67314 0
M  V30 7333 H 25.0229 7.84412 2.24479 0
M  V30 7334 P 21.0599 8.7635 1.60911 0
M  V30 7335 O 20.8399 10.1388 1.11561 0
M  V30 7336 O 20.2699 8.36503 2.79617 0
M  V30 7337 O 20.8099 7.71806 0.42951 0
M  V30 7338 C 21.7499 7.67148 -0.673689 0
M  V30 7339 C 21.0199 7.33374 -1.95559 0
M  V30 7340 O 20.8099 5.88721 -2.00726 0
M  V30 7341 C 19.6199 7.92526 -2.10483 0
M  V30 7342 O 19.2299 8.02971 -3.47653 0
M  V30 7343 C 18.7399 6.89602 -1.41652 0
M  V30 7344 C 19.4499 5.59201 -1.75185 0
M  V30 7345 N 19.3999 4.58235 -0.662552 0
M  V30 7346 H 22.2389 8.65116 -0.777161 0
M  V30 7347 H 22.5109 6.90173 -0.474152 0
M  V30 7348 H 21.6429 7.66548 -2.79458 0
M  V30 7349 P 17.6799 8.03563 -3.84925 0
M  V30 7350 O 17.4599 8.85821 -5.0569 0
M  V30 7351 O 16.8899 8.41101 -2.65469 0
M  V30 7352 O 17.4299 6.49734 -4.18962 0
M  V30 7353 C 18.3699 5.81037 -5.05421 0
M  V30 7354 C 17.6399 4.79018 -5.88876 0
M  V30 7355 O 17.4299 3.58359 -5.08515 0
M  V30 7356 C 16.2399 5.17448 -6.36119 0
M  V30 7357 O 15.8499 4.45322 -7.53318 0
M  V30 7358 C 15.3599 4.74639 -5.19936 0
M  V30 7359 C 16.0699 3.49432 -4.70418 0
M  V30 7360 N 16.0199 3.31776 -3.22945 0
M  V30 7361 C 15.8699 2.02742 -2.72939 0
M  V30 7362 O 15.7799 1.08301 -3.52749 0
M  V30 7363 N 15.8199 1.96117 -1.22063 0
M  V30 7364 C 15.9199 2.8878 -0.551566 0
M  V30 7365 N 15.8699 2.65609 0.750198 0
M  V30 7366 C 16.0699 4.22457 -1.03707 0
M  V30 7367 C 16.1199 4.37979 -2.39113 0
M  V30 7368 H 18.8599 6.54138 -5.7131 0
M  V30 7369 H 19.1299 5.30492 -4.44033 0
M  V30 7370 H 18.2629 4.55945 -6.76735 0
M  V30 7371 H 15.6079 2.6176 -5.18021 0
M  V30 7372 H 15.3279 5.52233 -4.41941 0
M  V30 7373 H 14.3369 4.52045 -5.53452 0
M  V30 7374 H 16.1709 6.25124 -6.55234 0
M  V30 7375 H 16.2429 5.37936 -2.80552 0
M  V30 7376 H 16.1409 5.07528 -0.359553 0
M  V30 7377 H 15.7529 1.69403 1.09847 0
M  V30 7378 H 15.9489 3.43701 1.41792 0
M  V30 7379 P 14.2999 4.23843 -7.83734 0
M  V30 7380 O 14.0799 4.19407 -9.29784 0
M  V30 7381 O 13.5099 5.24426 -7.09156 0
M  V30 7382 O 14.0499 2.7935 -7.20758 0
M  V30 7383 C 14.9899 1.72945 -7.50224 0
M  V30 7384 C 14.2599 0.406376 -7.57911 0
M  V30 7385 O 14.0499 -0.0897726 -6.21935 0
M  V30 7386 C 12.8599 0.438983 -8.18724 0
M  V30 7387 O 12.4699 -0.825065 -8.71101 0
M  V30 7388 C 11.9799 0.783689 -6.99524 0
M  V30 7389 C 12.6899 0.0619086 -5.85867 0
M  V30 7390 N 12.6399 0.78573 -4.56183 0
M  V30 7391 C 12.4899 0.0292889 -3.41887 0
M  V30 7392 O 12.3999 -1.18445 -3.4419 0
M  V30 7393 N 12.4499 0.744061 -2.23964 0
M  V30 7394 C 12.5399 2.10932 -2.10362 0
M  V30 7395 C 12.6899 2.8202 -3.34994 0
M  V30 7396 C 12.7399 2.15547 -4.52261 0
M  V30 7397 H 15.4809 1.93379 -8.46595 0
M  V30 7398 H 15.7499 1.68132 -6.70852 0
M  V30 7399 H 14.8829 -0.289041 -8.15388 0
M  V30 7400 H 12.2279 -0.926847 -5.72749 0
M  V30 7401 H 11.9489 1.86973 -6.82036 0
M  V30 7402 H 10.9569 0.403896 -7.13257 0
M  V30 7403 H 12.7909 1.20585 -8.97435 0
M  V30 7404 H 12.8619 2.71231 -5.45042 0
M  V30 7405 P 10.92 -1.17771 -8.83182 0
M  V30 7406 O 10.7 -2.07206 -9.98732 0
M  V30 7407 O 10.13 0.0743816 -8.81969 0
M  V30 7408 O 10.67 -1.97652 -7.47304 0
M  V30 7409 C 11.61 -3.01133 -7.08783 0
M  V30 7410 C 10.88 -4.12613 -6.37049 0
M  V30 7411 O 10.67 -3.72827 -4.97879 0
M  V30 7412 C 9.47996 -4.45085 -6.88694 0
M  V30 7413 O 9.08996 -5.7877 -6.5624 0
M  V30 7414 C 8.59996 -3.47817 -6.12078 0
M  V30 7415 C 9.30996 -3.39414 -4.77697 0
M  V30 7416 N 9.25996 -2.04199 -4.15538 0
M  V30 7417 H 12.099 -3.41248 -7.98759 0
M  V30 7418 H 12.371 -2.57728 -6.42 0
M  V30 7419 H 11.503 -5.02657 -6.42673 0
M  V30 7420 H 8.84796 -4.11708 -4.08956 0
M  V30 7421 H 8.56796 -2.49626 -6.61679 0
M  V30 7422 H 7.57696 -3.8662 -6.00862 0
M  V30 7423 H 9.41096 -4.29991 -7.97006 0
M  V30 7424 P 7.53998 -6.144 -6.45285 0
M  V30 7425 O 7.31998 -7.54673 -6.86199 0
M  V30 7426 O 6.74998 -5.12391 -7.179 0
M  V30 7427 O 7.28998 -5.99158 -4.88404 0
M  V30 7428 C 8.22998 -6.60062 -3.96313 0
M  V30 7429 C 7.49998 -7.08259 -2.72856 0
M  V30 7430 O 7.28998 -5.9427 -1.83651 0
M  V30 7431 C 6.09998 -7.65087 -2.94749 0
M  V30 7432 O 5.70998 -8.53963 -1.90717 0
M  V30 7433 C 5.21998 -6.41069 -2.90698 0
M  V30 7434 C 5.92998 -5.5528 -1.86931 0
M  V30 7435 N 5.87998 -4.09575 -2.15696 0
M  V30 7436 C 5.72998 -3.24249 -1.08435 0
M  V30 7437 O 5.63998 -3.63946 0.0628747 0
M  V30 7438 N 5.68998 -1.90009 -1.39973 0
M  V30 7439 C 5.77998 -1.34884 -2.65614 0
M  V30 7440 O 5.72998 -0.123716 -2.81728 0
M  V30 7441 C 5.92998 -2.3145 -3.71736 0
M  V30 7442 C 6.03998 -1.75913 -5.10438 0
M  V30 7443 C 5.97998 -3.63518 -3.44754 0
M  V30 7444 H 8.72098 -7.45402 -4.45526 0
M  V30 7445 H 8.98998 -5.86062 -3.67208 0
M  V30 7446 H 8.12298 -7.84412 -2.24479 0
M  V30 7447 H 5.46798 -5.73358 -0.888409 0
M  V30 7448 H 5.18898 -5.90877 -3.88583 0
M  V30 7449 H 4.19698 -6.65867 -2.58821 0
M  V30 7450 H 6.03098 -8.16248 -3.92006 0
M  V30 7451 H 6.10198 -4.34551 -4.26383 0
M  V30 7452 H 5.07198 -1.85471 -5.61775 0
M  V30 7453 H 6.80898 -2.31364 -5.66257 0
M  V30 7454 H 6.32098 -0.695936 -5.05229 0
M  V30 7455 H 5.58498 -1.26277 -0.63625 0
M  V30 7456 P 4.16 -8.7635 -1.60911 0
M  V30 7457 O 3.94 -10.1388 -1.11561 0
M  V30 7458 O 3.37 -8.36503 -2.79617 0
M  V30 7459 O 3.91 -7.71806 -0.42951 0
M  V30 7460 C 4.85 -7.67148 0.673689 0
M  V30 7461 C 4.12 -7.33374 1.95559 0
M  V30 7462 O 3.91 -5.88721 2.00726 0
M  V30 7463 C 2.72 -7.92526 2.10483 0
M  V30 7464 O 2.33 -8.02971 3.47653 0
M  V30 7465 C 1.84 -6.89602 1.41652 0
M  V30 7466 C 2.55 -5.59201 1.75185 0
M  V30 7467 N 2.5 -4.58235 0.662552 0
M  V30 7468 H 5.339 -8.65116 0.777161 0
M  V30 7469 H 5.611 -6.90173 0.474152 0
M  V30 7470 H 4.743 -7.66548 2.79458 0
M  V30 7471 H 1.613 -8.66322 3.55694 0
M  V30 END ATOM
M  V30 BEGIN BOND
M  V30 END BOND
M  V30 END CTAB
M  END
$$$$
