drugbank_target|P0C0L4 Complement C4-A (DB00028)
 OpenBabel12092120573D

  0  0  0     0  0            999 V3000
M  V30 BEGIN CTAB
M  V30 COUNTS 27083 27378 0 0 0
M  V30 BEGIN ATOM
M  V30 1 H -0.908 1.98254 -0.117106 0
M  V30 2 N 0 1.576 0 0
M  V30 3 C 0.933 2.03868 1.02534 0
M  V30 4 C 1.911 0.928543 1.3348 0
M  V30 5 O 3.095 1.19667 1.45644 0
M  V30 6 C 0.222 2.43627 2.35294 0
M  V30 7 C -0.732 3.65373 2.2001 0
M  V30 8 S 0.101 5.13292 1.52614 0
M  V30 9 C 1.257 5.56322 2.86805 0
M  V30 10 H 1.49 2.90518 0.631377 0
M  V30 11 H -0.977 1.52953 0.210867 0
M  V30 12 H 0.981 2.67203 3.11629 0
M  V30 13 H -0.358 1.57376 2.7183 0
M  V30 14 H -1.165 3.90944 3.18086 0
M  V30 15 H -1.563 3.418 1.51819 0
M  V30 16 H 0.729 5.58782 3.83104 0
M  V30 17 H 1.672 6.56266 2.65933 0
M  V30 18 H 2.08 4.83886 2.90714 0
M  V30 19 N 1.4781 -0.272755 1.55222 0
M  V30 20 C 2.8941 -0.619959 1.47067 0
M  V30 21 C 3.0941 -1.895 0.684978 0
M  V30 22 O 2.1501 -2.51675 0.203931 0
M  V30 23 C 3.4631 -0.746693 2.91282 0
M  V30 24 C 5.0111 -0.840731 3.01497 0
M  V30 25 C 5.4861 -0.99924 4.46967 0
M  V30 26 N 6.9771 -1.06476 4.50796 0
M  V30 27 C 7.7121 -1.20621 5.6057 0
M  V30 28 N 7.2081 -1.31483 6.80209 0
M  V30 29 N 9.0011 -1.23733 5.48312 0
M  V30 30 H 1.1521 0.564606 2.04758 0
M  V30 31 H 3.4151 0.191177 0.928523 0
M  V30 32 H 3.1211 0.119753 3.51496 0
M  V30 33 H 2.9951 -1.6269 3.40311 0
M  V30 34 H 5.3821 -1.69764 2.41379 0
M  V30 35 H 5.4631 0.0640874 2.5572 0
M  V30 36 H 5.1071 -0.146984 5.07687 0
M  V30 37 H 5.0371 -1.91871 4.90401 0
M  V30 38 H 7.5281 -0.993196 3.64615 0
M  V30 39 H 7.8411 -1.42111 7.59621 0
M  V30 40 H 6.1861 -1.28487 6.8302 0
M  V30 41 H 9.3771 -1.14877 4.53785 0
M  V30 42 H 9.5501 -1.34412 6.33906 0
M  V30 43 N 2.9562 -1.48159 -0.537278 0
M  V30 44 C 3.8862 -1.65029 -1.6519 0
M  V30 45 C 4.8672 -0.499281 -1.62607 0
M  V30 46 O 6.0522 -0.730972 -1.79918 0
M  V30 47 C 3.1822 -1.68303 -3.03795 0
M  V30 48 C 2.1362 -2.8283 -3.21234 0
M  V30 49 C 1.4622 -2.71189 -4.60826 0
M  V30 50 C 2.7622 -4.24211 -3.04701 0
M  V30 51 H 4.4562 -2.58341 -1.51328 0
M  V30 52 H 2.0022 -1.24325 -0.726585 0
M  V30 53 H 3.9552 -1.78693 -3.81637 0
M  V30 54 H 2.6792 -0.715635 -3.18663 0
M  V30 55 H 1.3382 -2.71983 -2.45807 0
M  V30 56 H 0.9862 -1.72435 -4.7252 0
M  V30 57 H 0.6862 -3.48035 -4.7344 0
M  V30 58 H 2.2102 -2.83537 -5.40777 0
M  V30 59 H 3.6242 -4.3593 -3.72341 0
M  V30 60 H 2.0212 -5.01998 -3.28813 0
M  V30 61 H 3.0912 -4.41184 -2.01209 0
M  V30 62 N 4.4343 0.785586 -1.36625 0
M  V30 63 C 5.3643 1.91259 -1.33949 0
M  V30 64 C 6.3453 1.68795 -0.210325 0
M  V30 65 O 7.5303 1.89854 -0.408561 0
M  V30 66 C 4.6603 3.28339 -1.13186 0
M  V30 67 C 3.6143 3.65335 -2.22967 0
M  V30 68 C 2.9403 5.00806 -1.87342 0
M  V30 69 C 4.2403 3.7352 -3.65075 0
M  V30 70 H 5.9343 1.93755 -2.28253 0
M  V30 71 H 3.4803 0.930788 -1.09874 0
M  V30 72 H 5.4333 4.06804 -1.09948 0
M  V30 73 H 4.1573 3.2624 -0.153332 0
M  V30 74 H 2.8163 2.89169 -2.25337 0
M  V30 75 H 2.4643 4.95233 -0.880545 0
M  V30 76 H 2.1643 5.26529 -2.60846 0
M  V30 77 H 3.6883 5.81687 -1.85667 0
M  V30 78 H 5.1023 4.42168 -3.64911 0
M  V30 79 H 3.4993 4.10731 -4.37516 0
M  V30 80 H 4.5693 2.74527 -3.99703 0
M  V30 81 N 5.9124 1.20967 1.01018 0
M  V30 82 C 7.1584 1.0353 1.7508 0
M  V30 83 C 7.5134 -0.42734 1.87594 0
M  V30 84 O 6.8064 -1.31298 1.3954 0
M  V30 85 C 7.0004 1.65997 3.16512 0
M  V30 86 C 6.8294 3.18184 3.17788 0
M  V30 87 C 5.5994 3.87198 3.24662 0
M  V30 88 C 7.7974 4.15334 3.03319 0
M  V30 89 N 5.7794 5.26618 3.15509 0
M  V30 90 C 7.1504 5.41472 3.02007 0
M  V30 91 C 9.2054 4.06449 2.87583 0
M  V30 92 C 7.9084 6.5975 2.86571 0
M  V30 93 C 9.9344 5.24357 2.73503 0
M  V30 94 C 9.2964 6.49404 2.72862 0
M  V30 95 H 5.3954 0.433137 0.651089 0
M  V30 96 H 7.9794 1.5324 1.20107 0
M  V30 97 H 6.1504 1.18863 3.69765 0
M  V30 98 H 7.8824 1.41816 3.79039 0
M  V30 99 H 4.6374 3.38093 3.31648 0
M  V30 100 H 5.0614 5.99626 3.14289 0
M  V30 101 H 9.7034 3.10573 2.86887 0
M  V30 102 H 7.4214 7.55792 2.86015 0
M  V30 103 H 11.0074 5.19299 2.62334 0
M  V30 104 H 9.8874 7.39105 2.62093 0
M  V30 105 N 7.3905 -1.2043 1.01659 0
M  V30 106 C 8.6385 -1.89423 0.704522 0
M  V30 107 C 8.9595 -1.79231 -0.768197 0
M  V30 108 O 8.2295 -1.1947 -1.55254 0
M  V30 109 H 6.8095 -0.701178 0.257602 0
M  V30 110 H 9.4715 -1.4626 1.28818 0
M  V30 111 H 8.5675 -2.96052 0.987916 0
M  V30 112 N 8.8686 -0.792821 -1.36206 0
M  V30 113 C 9.7986 -0.207853 -2.32573 0
M  V30 114 C 10.7796 0.659055 -1.56813 0
M  V30 115 O 11.9646 0.592176 -1.84951 0
M  V30 116 C 9.0946 0.655449 -3.41059 0
M  V30 117 C 8.0486 -0.111842 -4.27854 0
M  V30 118 C 7.3746 0.872274 -5.27537 0
M  V30 119 C 8.6746 -1.30299 -5.05786 0
M  V30 120 H 10.3686 -1.01294 -2.81744 0
M  V30 121 H 7.9146 -0.48854 -1.3546 0
M  V30 122 H 9.8676 1.07464 -4.07467 0
M  V30 123 H 8.5916 1.49328 -2.90463 0
M  V30 124 H 7.2506 -0.512053 -3.63006 0
M  V30 125 H 6.8986 1.70523 -4.73214 0
M  V30 126 H 6.5986 0.363291 -5.86476 0
M  V30 127 H 8.1226 1.28996 -5.96818 0
M  V30 128 H 9.5366 -0.959379 -5.65216 0
M  V30 129 H 7.9336 -1.7455 -5.74154 0
M  V30 130 H 9.0036 -2.09663 -4.37229 0
M  V30 131 N 10.3467 1.47872 -0.545128 0
M  V30 132 C 11.5957 2.01695 -0.0145033 0
M  V30 133 C 11.9087 1.42609 1.33873 0
M  V30 134 O 13.1147 1.88021 1.95858 0
M  V30 135 C 11.5707 3.59892 0.0245068 0
M  V30 136 C 11.1787 4.27966 -1.32475 0
M  V30 137 C 12.9227 4.21507 0.50316 0
M  V30 138 C 10.8297 5.78136 -1.2455 0
M  V30 139 H 9.7597 0.753998 -0.00165172 0
M  V30 140 H 12.4107 1.69985 -0.691175 0
M  V30 141 H 10.7927 3.88509 0.766575 0
M  V30 142 H 11.9667 4.11003 -2.08357 0
M  V30 143 H 10.2817 3.78286 -1.74036 0
M  V30 144 H 12.8787 5.31538 0.580656 0
M  V30 145 H 13.2217 3.87855 1.51243 0
M  V30 146 H 13.7547 3.97376 -0.183681 0
M  V30 147 H 10.4937 6.16388 -2.23039 0
M  V30 148 H 10.0137 5.97469 -0.528282 0
M  V30 149 H 11.6927 6.40099 -0.942488 0
M  V30 150 N 11.8248 0.280983 1.55075 0
M  V30 151 C 13.0708 -0.327573 2.00745 0
M  V30 152 C 13.4258 -1.53045 1.16598 0
M  V30 153 O 12.7188 -1.90221 0.229451 0
M  V30 154 C 12.9128 -0.754656 3.49342 0
M  V30 155 C 12.7418 0.40529 4.4787 0
M  V30 156 C 11.5118 0.890947 4.97383 0
M  V30 157 C 13.7098 1.24371 4.99035 0
M  V30 158 N 11.6918 2.01975 5.79724 0
M  V30 159 C 13.0628 2.22031 5.7888 0
M  V30 160 C 15.1178 1.27638 4.81262 0
M  V30 161 C 13.8208 3.22709 6.42846 0
M  V30 162 C 15.8468 2.27164 5.46031 0
M  V30 163 C 15.2088 3.23556 6.25692 0
M  V30 164 H 11.3078 -0.0848774 0.77738 0
M  V30 165 H 13.8918 0.406342 1.90413 0
M  V30 166 H 12.0628 -1.45778 3.60005 0
M  V30 167 H 13.7948 -1.34105 3.81835 0
M  V30 168 H 10.5498 0.469262 4.71269 0
M  V30 169 H 10.9738 2.58794 6.25584 0
M  V30 170 H 15.6158 0.544936 4.19274 0
M  V30 171 H 13.3338 3.96784 7.0398 0
M  V30 172 H 16.9198 2.30441 5.34217 0
M  V30 173 H 15.7998 3.99309 6.74924 0
M  V30 174 N 13.3029 -1.57598 0.00835791 0
M  V30 175 C 14.2659 -2.07884 -0.965242 0
M  V30 176 C 15.2659 -0.989825 -1.26725 0
M  V30 177 O 16.4559 -1.25218 -1.21104 0
M  V30 178 C 13.5879 -2.52731 -2.28779 0
M  V30 179 H 14.7809 -2.95178 -0.530112 0
M  V30 180 H 12.3339 -1.54458 -0.239283 0
M  V30 181 H 13.0689 -1.68705 -2.76964 0
M  V30 182 H 12.8539 -3.32272 -2.08177 0
M  V30 183 H 14.3439 -2.91933 -2.98605 0
M  V30 184 N 14.781 0.264519 -1.55364 0
M  V30 185 C 16.006 1.01726 -1.80739 0
M  V30 186 C 16.431 1.78836 -0.583044 0
M  V30 187 O 15.789 1.75167 0.467566 0
M  V30 188 C 15.837 1.94482 -3.03659 0
M  V30 189 O 14.941 3.03386 -2.7934 0
M  V30 190 H 14.282 0.290395 -0.597132 0
M  V30 191 H 16.812 0.290854 -2.02522 0
M  V30 192 H 16.822 2.36278 -3.32621 0
M  V30 193 H 15.497 1.37772 -3.92418 0
M  V30 194 H 14.074 2.65844 -2.61498 0
M  V30 195 N 16.2591 1.48442 0.529413 0
M  V30 196 C 17.4841 1.60406 1.31471 0
M  V30 197 C 17.9091 0.264738 1.86228 0
M  V30 198 O 17.2671 -0.763668 1.64432 0
M  V30 199 C 17.3151 2.65419 2.44101 0
M  V30 200 O 16.4191 2.22618 3.47153 0
M  V30 201 H 15.7601 0.537863 0.389357 0
M  V30 202 H 18.2901 1.94432 0.636965 0
M  V30 203 H 18.3001 2.86709 2.90279 0
M  V30 204 H 16.9751 3.62652 2.03608 0
M  V30 205 H 15.5521 2.11543 3.0709 0
M  V30 206 N 17.7372 -0.778329 1.37039 0
M  V30 207 C 18.9842 -1.53665 1.31884 0
M  V30 208 C 19.3122 -1.9425 -0.0986303 0
M  V30 209 O 18.5672 -1.63832 -1.07041 0
M  V30 210 C 18.8662 -2.81845 2.19768 0
M  V30 211 C 18.5322 -2.60345 3.68146 0
M  V30 212 C 17.1942 -2.5419 4.08584 0
M  V30 213 C 19.5462 -2.40923 4.62175 0
M  V30 214 C 16.8742 -2.26594 5.41177 0
M  V30 215 C 19.2262 -2.14852 5.94997 0
M  V30 216 C 17.8902 -2.07137 6.34547 0
M  V30 217 H 17.1602 -0.562299 0.482598 0
M  V30 218 H 19.8072 -0.897069 1.69189 0
M  V30 219 H 18.1122 -3.50328 1.75436 0
M  V30 220 H 19.8092 -3.39692 2.13097 0
M  V30 221 H 16.3992 -2.65996 3.36072 0
M  V30 222 H 20.5832 -2.44673 4.31797 0
M  V30 223 H 15.8392 -2.19111 5.70789 0
M  V30 224 H 20.0132 -1.98822 6.67415 0
M  V30 225 H 17.6402 -1.85518 7.37216 0
M  V30 226 N 19.2153 -1.21501 -1.00376 0
M  V30 227 C 20.4623 -1.03299 -1.74171 0
M  V30 228 C 20.7903 0.433326 -1.89612 0
M  V30 229 O 20.0453 1.33779 -1.42834 0
M  V30 230 C 20.3443 -1.67673 -3.15627 0
M  V30 231 C 20.0103 -3.17533 -3.2013 0
M  V30 232 C 18.6723 -3.58427 -3.21067 0
M  V30 233 C 21.0243 -4.13504 -3.17275 0
M  V30 234 C 18.3523 -4.93794 -3.16835 0
M  V30 235 C 20.7043 -5.48834 -3.14585 0
M  V30 236 C 19.3683 -5.89123 -3.13831 0
M  V30 237 H 18.6383 -0.377999 -0.637336 0
M  V30 238 H 21.2853 -1.51111 -1.17634 0
M  V30 239 H 19.5903 -1.12158 -3.75404 0
M  V30 240 H 21.2873 -1.51091 -3.71446 0
M  V30 241 H 17.8773 -2.84965 -3.20145 0
M  V30 242 H 22.0613 -3.82936 -3.15711 0
M  V30 243 H 17.3173 -5.24255 -3.1459 0
M  V30 244 H 21.4913 -6.22934 -3.1133 0
M  V30 245 H 19.1183 -6.93984 -3.10307 0
M  V30 246 N 20.6934 1.19889 -1.02296 0
M  V30 247 C 21.9214 1.9339 -0.735399 0
M  V30 248 C 22.3364 1.75148 0.704887 0
M  V30 249 O 21.6934 1.06954 1.47875 0
M  V30 250 C 21.7444 3.45313 -1.06962 0
M  V30 251 O 21.4654 3.62964 -2.45334 0
M  V30 252 C 22.9664 4.35948 -0.804021 0
M  V30 253 H 20.1864 0.61448 -0.269546 0
M  V30 254 H 22.7304 1.522 -1.36585 0
M  V30 255 H 20.8854 3.84359 -0.484455 0
M  V30 256 H 21.2994 4.56886 -2.57595 0
M  V30 257 H 22.7734 5.41174 -1.0879 0
M  V30 258 H 23.2504 4.3842 0.261691 0
M  V30 259 H 23.8564 4.02574 -1.37164 0
M  V30 260 N 22.1715 0.800033 1.35784 0
M  V30 261 C 23.1015 0.220184 2.3246 0
M  V30 262 C 24.0825 -0.65073 1.57161 0
M  V30 263 O 25.2675 -0.582359 1.85263 0
M  V30 264 C 22.3975 -0.637353 3.41402 0
M  V30 265 C 21.3515 0.134531 4.27789 0
M  V30 266 C 20.6775 -0.844285 5.27992 0
M  V30 267 C 21.9775 1.32979 5.05088 0
M  V30 268 H 23.6715 1.02787 2.81203 0
M  V30 269 H 21.2175 0.495717 1.35199 0
M  V30 270 H 23.1705 -1.05302 4.08031 0
M  V30 271 H 21.8945 -1.47785 2.91251 0
M  V30 272 H 20.5535 0.531296 3.6273 0
M  V30 273 H 20.2015 -1.68011 4.74111 0
M  V30 274 H 19.9015 -0.332184 5.8666 0
M  V30 275 H 21.4255 -1.2583 5.97494 0
M  V30 276 H 22.8395 0.98934 5.64699 0
M  V30 277 H 21.2365 1.77593 5.7322 0
M  V30 278 H 22.3065 2.11978 4.36111 0
M  V30 279 N 23.6496 -1.47581 0.552962 0
M  V30 280 C 24.8746 -2.07378 0.0300593 0
M  V30 281 C 25.2996 -1.40355 -1.25229 0
M  V30 282 O 24.6576 -0.477099 -1.7491 0
M  V30 283 C 24.7056 -3.60274 -0.153231 0
M  V30 284 O 23.8096 -3.94041 -1.21678 0
M  V30 285 H 23.1506 -0.662158 0.0494182 0
M  V30 286 H 25.6806 -1.89662 0.767434 0
M  V30 287 H 25.6906 -4.0633 -0.368761 0
M  V30 288 H 24.3656 -4.08455 0.783397 0
M  V30 289 H 22.9426 -3.59735 -0.982079 0
M  V30 290 N 25.1277 -0.289203 -1.54924 0
M  V30 291 C 26.0577 0.58549 -2.2604 0
M  V30 292 C 27.0387 1.14753 -1.25562 0
M  V30 293 O 28.2237 1.17906 -1.54311 0
M  V30 294 C 25.3537 1.76305 -2.99222 0
M  V30 295 C 24.3077 1.33191 -4.06748 0
M  V30 296 C 23.6337 2.5937 -4.6758 0
M  V30 297 C 24.9337 0.471775 -5.20165 0
M  V30 298 H 26.6277 -0.00763532 -2.99399 0
M  V30 299 H 24.1737 -0.00511229 -1.43999 0
M  V30 300 H 26.1267 2.38097 -3.47689 0
M  V30 301 H 24.8507 2.38223 -2.23422 0
M  V30 302 H 23.5097 0.737121 -3.59113 0
M  V30 303 H 23.1577 3.19576 -3.88433 0
M  V30 304 H 22.8577 2.31228 -5.40192 0
M  V30 305 H 24.3817 3.21985 -5.18804 0
M  V30 306 H 25.7957 0.995056 -5.64599 0
M  V30 307 H 24.1927 0.284639 -5.99425 0
M  V30 308 H 25.2627 -0.506041 -4.82252 0
M  V30 309 N 26.6058 1.57591 -0.0167156 0
M  V30 310 C 27.5378 2.06343 0.997753 0
M  V30 311 C 28.5508 0.984469 1.29661 0
M  V30 312 O 29.7398 1.26093 1.26344 0
M  V30 313 C 26.8398 2.46255 2.32834 0
M  V30 314 C 26.0128 3.77083 2.21646 0
M  V30 315 C 25.0718 4.0368 3.37534 0
M  V30 316 O 24.0978 4.7411 3.14973 0
M  V30 317 N 25.2998 3.52881 4.60929 0
M  V30 318 H 28.0648 2.93997 0.581875 0
M  V30 319 H 25.6258 1.61002 0.170316 0
M  V30 320 H 27.6178 2.61149 3.09166 0
M  V30 321 H 26.1878 1.64032 2.66106 0
M  V30 322 H 25.4078 3.72106 1.30119 0
M  V30 323 H 26.6958 4.62822 2.11361 0
M  V30 324 H 26.0938 2.95878 4.82154 0
M  V30 325 H 24.6508 3.73076 5.34469 0
M  V30 326 N 28.0839 -0.256276 1.55502 0
M  V30 327 C 29.0309 -1.31714 1.89526 0
M  V30 328 C 30.0009 -1.4828 0.748479 0
M  V30 329 O 31.1859 -1.62416 1.00128 0
M  V30 330 C 28.3259 -2.66933 2.18725 0
M  V30 331 C 27.4389 -2.58452 3.4616 0
M  V30 332 C 26.5739 -3.85961 3.64976 0
M  V30 333 C 25.6129 -3.72059 4.86044 0
M  V30 334 N 24.7499 -4.9144 5.01429 0
M  V30 335 H 29.5899 -1.01998 2.80001 0
M  V30 336 H 27.1269 -0.492413 1.38613 0
M  V30 337 H 29.0849 -3.4563 2.33657 0
M  V30 338 H 27.7149 -2.94816 1.31466 0
M  V30 339 H 26.7669 -1.71374 3.3961 0
M  V30 340 H 28.0789 -2.44085 4.34999 0
M  V30 341 H 27.2329 -4.73101 3.79816 0
M  V30 342 H 25.9719 -4.03215 2.74353 0
M  V30 343 H 24.9769 -2.83302 4.7119 0
M  V30 344 H 26.2019 -3.56309 5.78118 0
M  V30 345 H 24.1479 -5.09072 4.13741 0
M  V30 346 H 24.0649 -4.79668 5.84341 0
M  V30 347 H 25.3329 -5.80104 5.20672 0
M  V30 348 N 29.562 -1.4872 -0.521534 0
M  V30 349 C 30.973 -1.50607 -1.10337 0
M  V30 350 C 31.324 -0.280612 -1.94183 0
M  V30 351 O 30.449 0.611507 -2.0758 0
M  V30 352 C 31.044 -2.72903 -2.00772 0
M  V30 353 C 29.603 -2.77634 -2.54158 0
M  V30 354 C 28.75 -2.44241 -1.31307 0
M  V30 355 H 31.701 -1.55714 -0.306388 0
M  V30 356 H 31.722 -2.519 -2.85178 0
M  V30 357 H 31.234 -3.62077 -1.39721 0
M  V30 358 H 29.335 -1.92689 -3.18907 0
M  V30 359 H 29.448 -3.79283 -2.92714 0
M  V30 360 H 27.812 -1.95577 -1.63161 0
M  V30 361 H 28.595 -3.35666 -0.719943 0
M  V30 362 N 31.0401 0.771051 -1.3745 0
M  V30 363 C 32.4561 1.07171 -1.18265 0
M  V30 364 C 32.6561 2.01491 -0.019287 0
M  V30 365 O 31.7121 2.44244 0.640408 0
M  V30 366 C 33.0251 1.66854 -2.50161 0
M  V30 367 C 34.5731 1.79109 -2.56689 0
M  V30 368 C 35.0481 2.42205 -3.88717 0
M  V30 369 N 36.5391 2.49655 -3.90162 0
M  V30 370 C 37.2741 2.9933 -4.8907 0
M  V30 371 N 36.7701 3.49172 -5.98374 0
M  V30 372 N 38.5631 2.9821 -4.76474 0
M  V30 373 H 30.7141 0.144796 -2.11906 0
M  V30 374 H 32.9771 0.126863 -0.939473 0
M  V30 375 H 32.6831 1.05017 -3.35655 0
M  V30 376 H 32.5571 2.6614 -2.673 0
M  V30 377 H 34.9441 2.40077 -1.71601 0
M  V30 378 H 35.0251 0.785757 -2.43433 0
M  V30 379 H 34.6691 1.81875 -4.74219 0
M  V30 380 H 34.5991 3.43345 -3.99276 0
M  V30 381 H 37.0901 2.14383 -3.11205 0
M  V30 382 H 37.4031 3.8548 -6.69795 0
M  V30 383 H 35.7481 3.47275 -6.02018 0
M  V30 384 H 38.9391 2.58572 -3.90203 0
M  V30 385 H 39.1121 3.36613 -5.53711 0
M  V30 386 N 32.5182 1.22032 0.997298 0
M  V30 387 C 33.4482 1.01065 2.10495 0
M  V30 388 C 34.4292 -0.0669542 1.69968 0
M  V30 389 O 35.6142 0.0943987 1.9397 0
M  V30 390 C 32.7442 0.582874 3.42374 0
M  V30 391 C 31.6982 1.60592 3.96729 0
M  V30 392 C 31.0242 1.03412 5.24605 0
M  V30 393 C 32.3242 2.99478 4.27914 0
M  V30 394 H 34.0182 1.93708 2.28292 0
M  V30 395 H 31.5642 0.932761 1.09707 0
M  V30 396 H 33.5172 0.423332 4.19268 0
M  V30 397 H 32.2412 -0.379213 3.24391 0
M  V30 398 H 30.9002 1.75316 3.21963 0
M  V30 399 H 30.5482 0.063518 5.0296 0
M  V30 400 H 30.2482 1.71754 5.61938 0
M  V30 401 H 31.7722 0.886066 6.04137 0
M  V30 402 H 33.1862 2.88153 4.95622 0
M  V30 403 H 31.5832 3.64903 4.76409 0
M  V30 404 H 32.6532 3.49742 3.3587 0
M  V30 405 N 33.9963 -1.19345 1.0293 0
M  V30 406 C 34.9263 -2.2481 0.631105 0
M  V30 407 C 35.9073 -1.66245 -0.360104 0
M  V30 408 O 37.0923 -1.92677 -0.242726 0
M  V30 409 C 34.2223 -3.47295 -0.0184607 0
M  V30 410 C 33.1763 -4.18536 0.895073 0
M  V30 411 C 32.5023 -5.34586 0.110592 0
M  V30 412 C 33.8023 -4.73287 2.209 0
M  V30 413 H 35.4963 -2.58372 1.51275 0
M  V30 414 H 33.0423 -1.24194 0.728818 0
M  V30 415 H 34.9953 -4.20268 -0.308675 0
M  V30 416 H 33.7193 -3.12933 -0.934907 0
M  V30 417 H 32.3783 -3.47446 1.16949 0
M  V30 418 H 32.0263 -4.96469 -0.807902 0
M  V30 419 H 31.7263 -5.83183 0.719087 0
M  V30 420 H 33.2503 -6.10355 -0.172871 0
M  V30 421 H 34.6643 -5.38013 1.98028 0
M  V30 422 H 33.0613 -5.32373 2.76946 0
M  V30 423 H 34.1313 -3.91331 2.86336 0
M  V30 424 N 35.4744 -0.807222 -1.35358 0
M  V30 425 C 36.4044 -0.232509 -2.3234 0
M  V30 426 C 37.3854 0.642386 -1.57504 0
M  V30 427 O 38.5704 0.572526 -1.85569 0
M  V30 428 C 35.7004 0.619238 -3.41735 0
M  V30 429 C 34.6544 -0.157215 -4.27711 0
M  V30 430 C 33.9804 0.816273 -5.28433 0
M  V30 431 C 35.2804 -1.35656 -5.04376 0
M  V30 432 H 36.9744 -1.04276 -2.80654 0
M  V30 433 H 34.5204 -0.50288 -1.34934 0
M  V30 434 H 36.4734 1.03137 -4.08584 0
M  V30 435 H 35.1974 1.46239 -2.92031 0
M  V30 436 H 33.8564 -0.550525 -3.62443 0
M  V30 437 H 33.5044 1.65494 -4.74996 0
M  V30 438 H 33.2044 0.301067 -5.86828 0
M  V30 439 H 34.7284 1.22659 -5.98153 0
M  V30 440 H 36.1424 -1.01927 -5.64166 0
M  V30 441 H 34.5394 -1.8063 -5.7227 0
M  V30 442 H 35.6094 -2.14288 -4.34981 0
M  V30 443 N 36.9525 1.47285 -0.560781 0
M  V30 444 C 38.1995 2.02464 -0.038062 0
M  V30 445 C 38.5275 1.43474 1.31322 0
M  V30 446 O 37.7825 0.581311 1.86867 0
M  V30 447 C 38.0815 3.57258 0.100784 0
M  V30 448 C 37.7475 4.35184 -1.18007 0
M  V30 449 C 36.4095 4.56194 -1.53103 0
M  V30 450 C 38.7615 4.80098 -2.02867 0
M  V30 451 C 36.0895 5.19367 -2.729 0
M  V30 452 C 38.4415 5.44593 -3.21871 0
M  V30 453 C 37.1055 5.63835 -3.57276 0
M  V30 454 H 36.3755 0.740869 -0.0139279 0
M  V30 455 H 39.0225 1.76916 -0.733012 0
M  V30 456 H 37.3275 3.81819 0.878724 0
M  V30 457 H 39.0245 3.97606 0.520639 0
M  V30 458 H 35.6145 4.19113 -0.8968 0
M  V30 459 H 39.7985 4.63642 -1.7706 0
M  V30 460 H 35.0545 5.32459 -3.00496 0
M  V30 461 H 39.2285 5.78358 -3.87911 0
M  V30 462 H 36.8555 6.12557 -4.50197 0
M  V30 463 N 38.4306 0.297415 1.54768 0
M  V30 464 C 39.6556 -0.318435 2.04941 0
M  V30 465 C 40.0806 -1.4701 1.17345 0
M  V30 466 O 39.4386 -1.80436 0.176758 0
M  V30 467 C 39.4866 -0.755749 3.52592 0
M  V30 468 O 38.5906 -1.86088 3.68028 0
M  V30 469 H 37.9316 -0.062421 0.661059 0
M  V30 470 H 40.4616 0.438215 1.99852 0
M  V30 471 H 40.4716 -1.04552 3.94376 0
M  V30 472 H 39.1466 0.0867233 4.1581 0
M  V30 473 H 37.7236 -1.57193 3.38149 0
M  V30 474 N 39.9087 -1.5758 0.0250728 0
M  V30 475 C 41.3197 -1.79476 -0.514323 0
M  V30 476 C 41.6707 -0.934956 -1.72491 0
M  V30 477 O 40.7957 -0.144245 -2.15919 0
M  V30 478 C 41.3907 -3.25503 -0.939842 0
M  V30 479 C 39.9497 -3.48408 -1.42438 0
M  V30 480 C 39.0967 -2.74583 -0.387201 0
M  V30 481 H 42.0477 -1.567 0.25113 0
M  V30 482 H 42.0687 -3.34992 -1.80445 0
M  V30 483 H 41.5807 -3.88056 -0.0585628 0
M  V30 484 H 39.6817 -2.91103 -2.32572 0
M  V30 485 H 39.7947 -4.57119 -1.43455 0
M  V30 486 H 38.1587 -2.39942 -0.854409 0
M  V30 487 H 38.9417 -3.39849 0.485543 0
M  V30 488 N 41.3868 0.248026 -1.55636 0
M  V30 489 C 42.6118 0.998028 -1.81808 0
M  V30 490 C 43.0368 1.78207 -0.601979 0
M  V30 491 O 42.3948 1.75653 0.448961 0
M  V30 492 C 42.4428 1.9125 -3.05705 0
M  V30 493 O 41.5468 3.00406 -2.82542 0
M  V30 494 H 40.8878 0.284045 -0.600179 0
M  V30 495 H 43.4178 0.269357 -2.02819 0
M  V30 496 H 43.4278 2.32737 -3.35108 0
M  V30 497 H 42.1028 1.33602 -3.93857 0
M  V30 498 H 40.6798 2.63056 -2.64303 0
M  V30 499 N 42.8649 1.48995 0.513639 0
M  V30 500 C 44.1109 1.58076 1.27042 0
M  V30 501 C 44.4439 0.261026 1.92438 0
M  V30 502 O 43.7189 -0.734393 1.80103 0
M  V30 503 C 44.0019 2.73091 2.34719 0
M  V30 504 C 43.8549 4.14821 1.73907 0
M  V30 505 C 45.1739 2.83796 3.36375 0
M  V30 506 H 42.2929 0.575391 0.460536 0
M  V30 507 H 44.9349 1.81232 0.570516 0
M  V30 508 H 43.0849 2.53479 2.94416 0
M  V30 509 H 44.7569 4.45917 1.18135 0
M  V30 510 H 42.9999 4.21058 1.0437 0
M  V30 511 H 43.6709 4.91147 2.51949 0
M  V30 512 H 46.1469 3.01611 2.86653 0
M  V30 513 H 45.0229 3.65971 4.09093 0
M  V30 514 H 45.2839 1.92624 3.9793 0
M  V30 515 N 44.343 -0.763751 1.37857 0
M  V30 516 C 45.589 -1.52483 1.33704 0
M  V30 517 C 45.922 -1.94051 -0.0759612 0
M  V30 518 O 45.197 -1.64675 -1.03501 0
M  V30 519 C 45.48 -2.78441 2.28348 0
M  V30 520 C 45.333 -2.43075 3.78463 0
M  V30 521 C 46.652 -3.80415 2.21298 0
M  V30 522 H 43.771 -0.553169 0.487005 0
M  V30 523 H 46.413 -0.875562 1.68624 0
M  V30 524 H 44.563 -3.33842 1.987 0
M  V30 525 H 46.235 -1.93527 4.18742 0
M  V30 526 H 44.478 -1.75666 3.96641 0
M  V30 527 H 45.149 -3.33149 4.40132 0
M  V30 528 H 47.625 -3.34527 2.47449 0
M  V30 529 H 46.501 -4.66257 2.89647 0
M  V30 530 H 46.762 -4.25262 1.20849 0
M  V30 531 N 45.8211 -1.22559 -0.990812 0
M  V30 532 C 46.7711 -0.964807 -2.0658 0
M  V30 533 C 47.7551 0.0853472 -1.60673 0
M  V30 534 O 48.9471 -0.125443 -1.76555 0
M  V30 535 C 46.0761 -0.546707 -3.38919 0
M  V30 536 C 45.1621 -1.6317 -3.91454 0
M  V30 537 N 45.5531 -2.85985 -4.17189 0
M  V30 538 C 43.8511 -1.50387 -4.19881 0
M  V30 539 C 44.5521 -3.56159 -4.59919 0
M  V30 540 N 43.5281 -2.83637 -4.63736 0
M  V30 541 H 47.3301 -1.89769 -2.24421 0
M  V30 542 H 44.8441 -1.12343 -1.17273 0
M  V30 543 H 46.8411 -0.34119 -4.15502 0
M  V30 544 H 45.5011 0.379254 -3.22478 0
M  V30 545 H 46.5121 -3.22392 -4.05319 0
M  V30 546 H 43.1891 -0.644254 -4.12499 0
M  V30 547 H 44.5791 -4.6139 -4.88435 0
M  V30 548 N 47.2992 1.18797 -1.03562 0
M  V30 549 C 48.2292 2.24472 -0.643019 0
M  V30 550 C 49.2102 1.66433 0.351283 0
M  V30 551 O 50.3952 1.92803 0.232505 0
M  V30 552 C 47.5252 3.473 4.24935e-05 0
M  V30 553 C 46.4792 4.18055 -0.917257 0
M  V30 554 C 45.8052 5.34519 -0.138941 0
M  V30 555 C 47.1052 4.72109 -2.23407 0
M  V30 556 H 48.7992 2.57566 -1.52643 0
M  V30 557 H 46.3452 1.23806 -0.735394 0
M  V30 558 H 48.2982 4.20426 0.286383 0
M  V30 559 H 47.0222 3.13424 0.918299 0
M  V30 560 H 45.6812 3.46821 -1.1879 0
M  V30 561 H 45.3292 4.96891 0.781562 0
M  V30 562 H 45.0292 5.82794 -0.750005 0
M  V30 563 H 46.5532 6.10438 0.1405 0
M  V30 564 H 47.9672 5.36955 -2.00879 0
M  V30 565 H 46.3642 5.30897 -2.79765 0
M  V30 566 H 47.4342 3.89807 -2.88407 0
M  V30 567 N 48.7773 0.814389 1.34928 0
M  V30 568 C 50.0253 0.397636 1.9815 0
M  V30 569 C 50.3463 -1.04069 1.64908 0
M  V30 570 O 49.6163 -1.72121 0.93548 0
M  V30 571 H 48.1963 0.144043 0.732981 0
M  V30 572 H 50.8583 1.04195 1.6471 0
M  V30 573 H 49.9543 0.509688 3.0791 0
M  V30 574 N 50.2554 -1.46986 0.568584 0
M  V30 575 C 51.5014 -2.02741 0.0488709 0
M  V30 576 C 51.8344 -1.44077 -1.30214 0
M  V30 577 O 51.1094 -0.600552 -1.84996 0
M  V30 578 C 51.3924 -3.60086 -0.032047 0
M  V30 579 C 51.2454 -4.29162 1.34686 0
M  V30 580 C 52.5644 -4.33838 -0.739798 0
M  V30 581 H 49.6834 -0.736749 0.0192338 0
M  V30 582 H 52.3254 -1.75289 0.733065 0
M  V30 583 H 50.4754 -3.83606 -0.61473 0
M  V30 584 H 52.1474 -4.16948 1.97362 0
M  V30 585 H 50.3904 -3.89073 1.91846 0
M  V30 586 H 51.0614 -5.37826 1.24285 0
M  V30 587 H 53.5374 -4.15378 -0.244939 0
M  V30 588 H 52.4134 -5.43537 -0.765406 0
M  V30 589 H 52.6744 -4.03875 -1.79827 0
M  V30 590 N 51.7335 -0.305618 -1.54608 0
M  V30 591 C 53.1445 0.186098 -1.8577 0
M  V30 592 C 53.4955 1.53058 -1.22751 0
M  V30 593 O 52.6205 2.09888 -0.526893 0
M  V30 594 C 53.2155 0.344449 -3.37044 0
M  V30 595 C 51.7745 0.780384 -3.68221 0
M  V30 596 C 50.9215 -0.108554 -2.77087 0
M  V30 597 H 53.8725 -0.526485 -1.49712 0
M  V30 598 H 53.8935 1.17828 -3.61796 0
M  V30 599 H 53.4055 -0.634235 -3.82883 0
M  V30 600 H 51.5065 1.76945 -3.27904 0
M  V30 601 H 51.6195 0.596572 -4.75371 0
M  V30 602 H 49.9835 0.412931 -2.5133 0
M  V30 603 H 50.7665 -1.08368 -3.25747 0
M  V30 604 N 53.2116 1.57565 -0.0334293 0
M  V30 605 C 54.1416 2.13511 0.945265 0
M  V30 606 C 55.1226 1.05231 1.33643 0
M  V30 607 O 56.3076 1.33084 1.41429 0
M  V30 608 C 53.4376 2.6657 2.22616 0
M  V30 609 C 52.3916 3.79676 1.97561 0
M  V30 610 C 51.7176 4.1918 3.31952 0
M  V30 611 C 53.0176 5.0557 1.31135 0
M  V30 612 H 54.7116 2.95538 0.479325 0
M  V30 613 H 52.2576 1.42166 0.229115 0
M  V30 614 H 54.2106 3.04344 2.91466 0
M  V30 615 H 52.9346 1.8171 2.71384 0
M  V30 616 H 51.5936 3.42347 1.31127 0
M  V30 617 H 51.2416 3.31296 3.78487 0
M  V30 618 H 50.9416 4.95402 3.15992 0
M  V30 619 H 52.4656 4.59541 4.02063 0
M  V30 620 H 53.8796 5.40903 1.89992 0
M  V30 621 H 52.2766 5.86818 1.25559 0
M  V30 622 H 53.3466 4.84062 0.284894 0
M  V30 623 N 54.6897 -0.239769 1.55765 0
M  V30 624 C 55.9147 -0.988373 1.82335 0
M  V30 625 C 56.3397 -1.77886 0.611421 0
M  V30 626 O 55.6977 -1.75889 -0.439639 0
M  V30 627 C 55.7457 -1.89627 3.06715 0
M  V30 628 O 54.8497 -2.98904 2.84131 0
M  V30 629 H 54.1907 -0.280858 0.601677 0
M  V30 630 H 56.7207 -0.258597 2.02959 0
M  V30 631 H 56.7307 -2.30957 3.36338 0
M  V30 632 H 55.4057 -1.31511 3.9456 0
M  V30 633 H 53.9827 -2.61651 2.65694 0
M  V30 634 N 56.1678 -1.49265 -0.50573 0
M  V30 635 C 57.4138 -1.58748 -1.26202 0
M  V30 636 C 57.7468 -0.271227 -1.92297 0
M  V30 637 O 57.0218 0.724831 -1.80489 0
M  V30 638 C 57.3048 -2.74332 -2.33268 0
M  V30 639 C 57.1578 -4.15737 -1.71705 0
M  V30 640 C 58.4768 -2.85576 -3.34865 0
M  V30 641 H 55.5958 -0.577826 -0.457478 0
M  V30 642 H 58.2378 -1.81532 -0.560897 0
M  V30 643 H 56.3878 -2.55036 -2.93068 0
M  V30 644 H 58.0598 -4.46537 -1.15769 0
M  V30 645 H 56.3028 -4.21605 -1.02135 0
M  V30 646 H 56.9738 -4.92477 -2.49341 0
M  V30 647 H 59.4498 -3.03127 -2.8505 0
M  V30 648 H 58.3258 -3.68135 -4.07146 0
M  V30 649 H 58.5868 -1.94732 -3.96903 0
M  V30 650 N 57.6459 0.756429 -1.3826 0
M  V30 651 C 58.8939 1.51248 -1.34047 0
M  V30 652 C 59.2149 1.94875 0.0698372 0
M  V30 653 O 58.4849 1.67436 1.01696 0
M  V30 654 H 57.0649 0.561018 -0.493222 0
M  V30 655 H 59.7269 0.899347 -1.7291 0
M  V30 656 H 58.8229 2.40472 -1.98947 0
M  V30 657 N 59.124 1.23083 0.984299 0
M  V30 658 C 60.37 1.06214 1.72761 0
M  V30 659 C 60.703 -0.400584 1.90024 0
M  V30 660 O 59.978 -1.29672 1.44967 0
M  V30 661 C 60.261 1.78375 3.12817 0
M  V30 662 C 60.114 3.32296 3.03149 0
M  V30 663 C 61.433 1.54309 4.12161 0
M  V30 664 H 58.552 0.387251 0.627061 0
M  V30 665 H 61.194 1.51536 1.14616 0
M  V30 666 H 59.344 1.39848 3.62457 0
M  V30 667 H 61.016 3.8032 2.61064 0
M  V30 668 H 59.259 3.6153 2.39747 0
M  V30 669 H 59.93 3.77972 4.02295 0
M  V30 670 H 62.406 1.87791 3.71314 0
M  V30 671 H 61.282 2.07281 5.08258 0
M  V30 672 H 61.543 0.477572 4.39513 0
M  V30 673 N 60.6021 -1.18246 1.0419 0
M  V30 674 C 61.5341 -2.2142 0.592088 0
M  V30 675 C 62.5471 -1.59233 -0.338909 0
M  V30 676 O 63.7361 -1.78002 -0.133231 0
M  V30 677 C 60.8361 -3.38546 -0.154854 0
M  V30 678 C 60.0091 -4.3031 0.784328 0
M  V30 679 C 59.0681 -5.26138 0.0804583 0
M  V30 680 O 58.0941 -5.64738 0.711292 0
M  V30 681 N 59.2961 -5.68261 -1.18574 0
M  V30 682 H 62.0611 -2.60636 1.47949 0
M  V30 683 H 59.6221 -1.33044 0.922544 0
M  V30 684 H 61.6141 -3.99678 -0.635606 0
M  V30 685 H 60.1841 -2.98012 -0.943811 0
M  V30 686 H 59.4041 -3.66764 1.44491 0
M  V30 687 H 60.6921 -4.8852 1.42218 0
M  V30 688 H 60.0901 -5.38957 -1.71876 0
M  V30 689 H 58.6471 -6.31584 -1.61074 0
M  V30 690 N 62.0802 -0.821533 -1.34494 0
M  V30 691 C 63.0102 -0.257138 -2.3208 0
M  V30 692 C 63.9912 0.625645 -1.58176 0
M  V30 693 O 65.1762 0.552811 -1.86166 0
M  V30 694 C 62.3062 0.582958 -3.42372 0
M  V30 695 C 61.2602 -0.202571 -4.2752 0
M  V30 696 C 60.5862 0.760179 -5.29269 0
M  V30 697 C 61.8862 -1.40998 -5.02908 0
M  V30 698 H 63.5802 -1.07247 -2.79532 0
M  V30 699 H 61.1262 -0.517163 -1.34393 0
M  V30 700 H 63.0792 0.987972 -4.09655 0
M  V30 701 H 61.8032 1.43133 -2.93565 0
M  V30 702 H 60.4622 -0.588936 -3.61838 0
M  V30 703 H 60.1102 1.60447 -4.76724 0
M  V30 704 H 59.8102 0.238809 -5.87115 0
M  V30 705 H 61.3342 1.16308 -5.9942 0
M  V30 706 H 62.7482 -1.07905 -5.63054 0
M  V30 707 H 61.1452 -1.86689 -5.70322 0
M  V30 708 H 62.2152 -2.1889 -4.32684 0
M  V30 709 N 63.5583 1.46682 -0.576371 0
M  V30 710 C 64.4903 2.28341 0.198231 0
M  V30 711 C 65.5033 1.38141 0.861453 0
M  V30 712 O 66.6923 1.62797 0.732082 0
M  V30 713 C 63.7923 3.12986 1.29972 0
M  V30 714 C 62.9653 4.31271 0.729639 0
M  V30 715 C 62.0243 4.97363 1.71803 0
M  V30 716 O 61.0503 5.55156 1.25658 0
M  V30 717 N 62.2523 4.93796 3.05198 0
M  V30 718 H 65.0173 2.9546 -0.502324 0
M  V30 719 H 62.5783 1.56525 -0.413715 0
M  V30 720 H 64.5703 3.54066 1.96008 0
M  V30 721 H 63.1403 2.47984 1.90323 0
M  V30 722 H 62.3603 3.94052 -0.108012 0
M  V30 723 H 63.6483 5.07739 0.328438 0
M  V30 724 H 63.0463 4.48077 3.45317 0
M  V30 725 H 61.6033 5.38837 3.6674 0
M  V30 726 N 65.0364 0.313813 1.54444 0
M  V30 727 C 66.3134 -0.345447 1.92525 0
M  V30 728 C 66.6934 -1.70667 1.24242 0
M  V30 729 O 66.0414 -2.25273 0.382654 0
M  V30 730 C 66.2514 -0.44737 3.46121 0
M  V30 731 C 67.5994 -0.712238 4.18584 0
M  V30 732 O 68.6234 -0.530678 3.52225 0
M  V30 733 O 67.4824 -1.06183 5.36085 0
M  V30 734 H 64.5764 -0.195407 0.803583 0
M  V30 735 H 67.1224 0.362813 1.65776 0
M  V30 736 H 65.8944 0.509043 3.87975 0
M  V30 737 H 65.5174 -1.20359 3.78945 0
M  V30 738 N 66.5145 -1.57545 0.0417849 0
M  V30 739 C 67.7605 -1.92601 -0.635021 0
M  V30 740 C 68.0935 -0.919627 -1.71045 0
M  V30 741 O 67.3685 0.0557892 -1.9442 0
M  V30 742 C 67.6515 -3.38085 -1.23979 0
M  V30 743 C 67.5045 -4.49467 -0.173057 0
M  V30 744 C 68.8235 -3.83776 -2.15416 0
M  V30 745 H 65.9425 -0.700397 -0.229374 0
M  V30 746 H 68.5845 -1.89728 0.101633 0
M  V30 747 H 66.7345 -3.40664 -1.86762 0
M  V30 748 H 68.4065 -4.59018 0.458312 0
M  V30 749 H 66.6495 -4.30909 0.499996 0
M  V30 750 H 67.3205 -5.48323 -0.636054 0
M  V30 751 H 69.7965 -3.83013 -1.62605 0
M  V30 752 H 68.6725 -4.8624 -2.54679 0
M  V30 753 H 68.9335 -3.19998 -3.05047 0
M  V30 754 N 67.9926 0.231505 -1.5589 0
M  V30 755 C 69.4036 0.799327 -1.68724 0
M  V30 756 C 69.7546 1.85398 -0.642022 0
M  V30 757 O 68.8796 2.1539 0.208784 0
M  V30 758 C 69.4746 1.45664 -3.05888 0
M  V30 759 C 68.0336 1.97197 -3.20609 0
M  V30 760 C 67.1806 0.828552 -2.64632 0
M  V30 761 H 70.1316 0.00702616 -1.58698 0
M  V30 762 H 70.1526 2.32517 -3.01191 0
M  V30 763 H 69.6646 0.688808 -3.81939 0
M  V30 764 H 67.7656 2.76813 -2.4941 0
M  V30 765 H 67.8786 2.15878 -4.27707 0
M  V30 766 H 66.2426 1.23321 -2.22854 0
M  V30 767 H 67.0256 0.0735544 -3.43221 0
M  V30 768 N 69.4707 1.49531 0.497807 0
M  V30 769 C 70.8867 1.36365 0.829266 0
M  V30 770 C 71.0867 0.399184 1.97506 0
M  V30 771 O 70.1427 -0.167977 2.51941 0
M  V30 772 C 71.4557 2.77153 1.16647 0
M  V30 773 C 73.0037 2.85877 1.27449 0
M  V30 774 C 73.4787 4.2744 1.64497 0
M  V30 775 N 74.9697 4.30265 1.7154 0
M  V30 776 C 75.7047 5.3677 2.01656 0
M  V30 777 N 75.2007 6.53516 2.29976 0
M  V30 778 N 76.9937 5.24189 2.02934 0
M  V30 779 H 69.1447 2.10831 -0.257703 0
M  V30 780 H 71.4077 0.946534 -0.0527091 0
M  V30 781 H 71.1137 3.49442 0.397872 0
M  V30 782 H 70.9877 3.12722 2.10915 0
M  V30 783 H 73.3747 2.13824 2.0338 0
M  V30 784 H 73.4557 2.53887 0.312244 0
M  V30 785 H 73.0997 5.00021 0.891151 0
M  V30 786 H 73.0297 4.56896 2.61827 0
M  V30 787 H 75.5207 3.4607 1.51802 0
M  V30 788 H 75.8337 7.30506 2.52153 0
M  V30 789 H 74.1787 6.56737 2.27425 0
M  V30 790 H 77.3697 4.31988 1.80289 0
M  V30 791 H 77.5427 6.07286 2.26071 0
M  V30 792 N 70.9488 -0.749086 1.3866 0
M  V30 793 C 72.1968 -1.50535 1.34847 0
M  V30 794 C 72.5178 -1.94909 -0.0595016 0
M  V30 795 O 71.7878 -1.67973 -1.00806 0
M  V30 796 H 70.3678 -0.558395 0.49619 0
M  V30 797 H 73.0298 -0.890165 1.73384 0
M  V30 798 H 72.1258 -2.39413 2.00219 0
M  V30 799 N 72.4269 -1.23603 -0.977757 0
M  V30 800 C 73.3589 -0.977369 -2.07317 0
M  V30 801 C 74.3719 0.0495845 -1.62724 0
M  V30 802 O 75.5609 -0.186261 -1.77526 0
M  V30 803 C 72.6609 -0.451216 -3.35883 0
M  V30 804 C 71.8339 -1.53896 -4.09432 0
M  V30 805 C 70.8929 -1.01721 -5.16274 0
M  V30 806 O 69.9189 -1.70676 -5.43009 0
M  V30 807 N 71.1209 0.153594 -5.80297 0
M  V30 808 H 73.8859 -1.92047 -2.30082 0
M  V30 809 H 71.4469 -1.14497 -1.14465 0
M  V30 810 H 73.4389 -0.0871574 -4.04606 0
M  V30 811 H 72.0089 0.397368 -3.10064 0
M  V30 812 H 71.2289 -2.07566 -3.35127 0
M  V30 813 H 72.5169 -2.27037 -4.55337 0
M  V30 814 H 71.9149 0.730323 -5.60966 0
M  V30 815 H 70.4719 0.458892 -6.50183 0
M  V30 816 N 73.905 1.17692 -1.04816 0
M  V30 817 C 75.151 1.88137 -0.75711 0
M  V30 818 C 75.484 1.80604 0.713841 0
M  V30 819 O 74.759 1.21146 1.52164 0
M  V30 820 C 75.042 3.38318 -1.2334 0
M  V30 821 C 74.895 3.54622 -2.76701 0
M  V30 822 C 76.214 4.32214 -0.829415 0
M  V30 823 H 73.333 0.683163 -0.27651 0
M  V30 824 H 75.975 1.38424 -1.30149 0
M  V30 825 H 74.125 3.80787 -0.770286 0
M  V30 826 H 75.797 3.21194 -3.31107 0
M  V30 827 H 74.04 2.97026 -3.16161 0
M  V30 828 H 74.711 4.60028 -3.05088 0
M  V30 829 H 77.187 3.97565 -1.22805 0
M  V30 830 H 76.063 5.35838 -1.19033 0
M  V30 831 H 76.324 4.41294 0.266891 0
M  V30 832 N 75.3831 0.828654 1.34056 0
M  V30 833 C 76.6291 0.42008 1.98402 0
M  V30 834 C 76.9621 -1.01564 1.65525 0
M  V30 835 O 76.2371 -1.70834 0.929831 0
M  V30 836 C 76.5201 0.62927 3.54559 0
M  V30 837 C 76.3731 2.11152 3.97159 0
M  V30 838 C 77.6921 0.0688756 4.40046 0
M  V30 839 H 74.8111 0.154104 0.720709 0
M  V30 840 H 77.4531 1.04228 1.5886 0
M  V30 841 H 75.6031 0.0996418 3.88372 0
M  V30 842 H 77.2751 2.70522 3.73651 0
M  V30 843 H 75.5181 2.59985 3.47261 0
M  V30 844 H 76.1891 2.20868 5.05887 0
M  V30 845 H 78.6651 0.521458 4.1282 0
M  V30 846 H 77.5411 0.245006 5.48353 0
M  V30 847 H 77.8021 -1.0266 4.30015 0
M  V30 848 N 76.8612 -1.46375 0.584142 0
M  V30 849 C 77.8082 -2.30323 -0.148286 0
M  V30 850 C 78.7782 -1.40703 -0.882713 0
M  V30 851 O 79.9632 -1.69651 -0.873099 0
M  V30 852 C 77.1032 -3.25196 -1.15507 0
M  V30 853 C 76.2162 -4.29915 -0.423943 0
M  V30 854 C 75.3512 -5.11914 -1.41838 0
M  V30 855 C 74.3902 -6.08381 -0.673736 0
M  V30 856 N 73.5272 -6.83242 -1.6163 0
M  V30 857 H 78.3672 -2.92427 0.573644 0
M  V30 858 H 75.9042 -1.44118 0.294703 0
M  V30 859 H 77.8622 -3.78646 -1.75166 0
M  V30 860 H 76.4922 -2.64898 -1.8447 0
M  V30 861 H 75.5442 -3.7931 0.287714 0
M  V30 862 H 76.8562 -4.98549 0.158128 0
M  V30 863 H 76.0102 -5.69648 -2.08773 0
M  V30 864 H 74.7492 -4.43243 -2.03438 0
M  V30 865 H 73.7542 -5.49799 0.00938483 0
M  V30 866 H 74.9792 -6.79071 -0.0631082 0
M  V30 867 H 72.9252 -6.1728 -2.22038 0
M  V30 868 H 72.8422 -7.48144 -1.08707 0
M  V30 869 H 74.1102 -7.45534 -2.27596 0
M  V30 870 N 78.3393 -0.321999 -1.54275 0
M  V30 871 C 79.5873 0.280489 -2.00144 0
M  V30 872 C 79.9083 1.52777 -1.21178 0
M  V30 873 O 79.1783 1.9338 -0.313187 0
M  V30 874 H 77.7583 0.106632 -0.73935 0
M  V30 875 H 80.4203 -0.438184 -1.8991 0
M  V30 876 H 79.5163 0.537972 -3.07428 0
M  V30 877 N 79.8174 1.5752 -0.0501392 0
M  V30 878 C 81.0424 1.97376 0.636997 0
M  V30 879 C 81.4674 0.927466 1.63645 0
M  V30 880 O 80.8254 -0.10941 1.8097 0
M  V30 881 C 80.8734 3.36304 1.30123 0
M  V30 882 O 79.9774 3.34156 2.41689 0
M  V30 883 H 79.3184 0.642998 0.165679 0
M  V30 884 H 81.8484 2.04258 -0.118233 0
M  V30 885 H 81.8584 3.73008 1.65315 0
M  V30 886 H 80.5334 4.11993 0.568746 0
M  V30 887 H 79.1104 3.09196 2.08451 0
M  V30 888 N 81.2955 -0.223234 1.56011 0
M  V30 889 C 82.5415 -0.949279 1.79211 0
M  V30 890 C 82.8745 -1.84054 0.619494 0
M  V30 891 O 82.1495 -1.90726 -0.381317 0
M  V30 892 C 82.4325 -1.78965 3.12479 0
M  V30 893 C 82.2855 -0.924997 4.40186 0
M  V30 894 C 83.6045 -2.76774 3.42175 0
M  V30 895 H 80.7235 -0.343676 0.651963 0
M  V30 896 H 83.3655 -0.218253 1.88742 0
M  V30 897 H 81.5155 -2.41291 3.04485 0
M  V30 898 H 83.1875 -0.318615 4.60198 0
M  V30 899 H 81.4305 -0.230344 4.33188 0
M  V30 900 H 82.1015 -1.54735 5.29869 0
M  V30 901 H 84.5775 -2.24584 3.50287 0
M  V30 902 H 83.4535 -3.32678 4.36597 0
M  V30 903 H 83.7145 -3.54429 2.64258 0
M  V30 904 N 82.7736 -1.49793 -0.48987 0
M  V30 905 C 84.0206 -1.59841 -1.24327 0
M  V30 906 C 84.3486 -0.290135 -1.92324 0
M  V30 907 O 83.6036 0.722749 -1.81865 0
M  V30 908 C 83.9026 -2.71488 -2.32441 0
M  V30 909 C 83.5686 -4.12614 -1.81826 0
M  V30 910 C 82.2306 -4.51017 -1.67742 0
M  V30 911 C 84.5826 -5.00892 -1.4407 0
M  V30 912 C 81.9106 -5.75459 -1.14297 0
M  V30 913 C 84.2626 -6.25863 -0.920742 0
M  V30 914 C 82.9266 -6.63086 -0.766383 0
M  V30 915 H 82.1966 -0.584899 -0.454944 0
M  V30 916 H 84.8436 -1.83663 -0.542215 0
M  V30 917 H 83.1486 -2.4168 -3.0838 0
M  V30 918 H 84.8456 -2.76469 -2.90458 0
M  V30 919 H 81.4356 -3.82307 -1.93751 0
M  V30 920 H 85.6196 -4.7187 -1.53794 0
M  V30 921 H 80.8756 -6.02989 -1.01068 0
M  V30 922 H 85.0496 -6.9364 -0.619448 0
M  V30 923 H 82.6766 -7.59393 -0.350083 0
M  V30 924 N 84.2517 0.741722 -1.39055 0
M  V30 925 C 85.1817 1.869 -1.39966 0
M  V30 926 C 86.1627 1.6804 -0.26392 0
M  V30 927 O 87.3477 1.88458 -0.468755 0
M  V30 928 C 84.4777 3.24572 -1.23574 0
M  V30 929 C 83.4317 3.58056 -2.34477 0
M  V30 930 C 82.7577 4.94593 -2.0318 0
M  V30 931 C 84.0577 3.61716 -3.76774 0
M  V30 932 H 85.7517 1.86395 -2.34302 0
M  V30 933 H 83.2977 0.895361 -1.1278 0
M  V30 934 H 85.2507 4.031 -1.22834 0
M  V30 935 H 83.9747 3.25587 -0.257045 0
M  V30 936 H 82.6337 2.81854 -2.34423 0
M  V30 937 H 82.2817 4.92181 -1.03765 0
M  V30 938 H 81.9817 5.17964 -2.77465 0
M  V30 939 H 83.5057 5.75486 -2.04079 0
M  V30 940 H 84.9197 4.30335 -3.78794 0
M  V30 941 H 83.3167 3.96603 -4.50362 0
M  V30 942 H 84.3867 2.61672 -4.08235 0
M  V30 943 N 85.7298 1.2412 0.971189 0
M  V30 944 C 87.1458 1.00584 1.23916 0
M  V30 945 C 87.3458 -0.287481 1.99439 0
M  V30 946 O 86.4018 -1.00454 2.31658 0
M  V30 947 C 87.7148 2.21864 2.0297 0
M  V30 948 C 89.2628 2.26452 2.16076 0
M  V30 949 C 89.7378 3.47343 2.98524 0
M  V30 950 N 91.2288 3.47639 3.06107 0
M  V30 951 C 91.9638 4.37837 3.70251 0
M  V30 952 N 91.4598 5.38286 4.36142 0
M  V30 953 N 93.2528 4.25558 3.67228 0
M  V30 954 H 85.4038 2.07236 0.465499 0
M  V30 955 H 87.6668 0.909236 0.268315 0
M  V30 956 H 87.3728 3.15771 1.54861 0
M  V30 957 H 87.2468 2.23698 3.03709 0
M  V30 958 H 89.6338 1.33078 2.6339 0
M  V30 959 H 89.7148 2.28645 1.14696 0
M  V30 960 H 89.3588 4.41029 2.51905 0
M  V30 961 H 89.2888 3.42393 4.00093 0
M  V30 962 H 91.7798 2.74966 2.59233 0
M  V30 963 H 92.0928 6.03352 4.82894 0
M  V30 964 H 90.4378 5.42176 4.34822 0
M  V30 965 H 93.6288 3.46322 3.14927 0
M  V30 966 H 93.8018 4.96054 4.16935 0
M  V30 967 N 87.2079 -1.17134 1.05439 0
M  V30 968 C 88.1559 -2.23289 0.651511 0
M  V30 969 C 89.1499 -1.66186 -0.328411 0
M  V30 970 O 90.3559 -1.78949 -0.194206 0
M  V30 971 H 86.7309 -0.726938 0.192523 0
M  V30 972 H 88.7019 -2.54565 1.55689 0
M  V30 973 C 87.4509 -3.47671 0.0448436 0
M  V30 974 H 86.7739 -3.91918 0.78996 0
M  V30 975 H 88.2139 -4.2353 -0.19964 0
M  V30 976 C 86.6729 -3.14453 -1.20918 0
M  V30 977 O 87.2029 -3.29459 -2.29825 0
M  V30 978 N 85.4089 -2.68657 -1.10779 0
M  V30 979 H 84.9559 -2.56646 -0.221526 0
M  V30 980 H 84.9139 -2.46804 -1.9477 0
M  V30 981 N 88.686 -0.835752 -1.33615 0
M  V30 982 C 90.097 -0.487099 -1.80234 0
M  V30 983 C 90.448 0.993627 -1.69179 0
M  V30 984 O 89.573 1.77403 -1.23924 0
M  V30 985 C 90.168 -0.877385 -3.27242 0
M  V30 986 C 88.727 -0.580915 -3.7189 0
M  V30 987 C 87.874 -1.0874 -2.5509 0
M  V30 988 H 90.825 -1.02474 -1.2118 0
M  V30 989 H 90.846 -0.186195 -3.80044 0
M  V30 990 H 90.358 -1.95512 -3.35256 0
M  V30 991 H 88.459 0.486881 -3.69405 0
M  V30 992 H 88.572 -1.13396 -4.65487 0
M  V30 993 H 86.936 -0.508392 -2.49575 0
M  V30 994 H 87.719 -2.17184 -2.65868 0
M  V30 995 N 90.1641 1.46063 -0.591896 0
M  V30 996 C 91.3891 2.07226 -0.0850314 0
M  V30 997 C 91.8141 1.43625 1.21463 0
M  V30 998 O 91.1721 0.523305 1.73583 0
M  V30 999 C 91.2201 3.60554 0.0576567 0
M  V30 1000 O 90.3241 3.97128 1.11188 0
M  V30 1001 H 89.6651 0.660615 -0.0669568 0
M  V30 1002 H 92.1951 1.8756 -0.81745 0
M  V30 1003 H 92.2051 4.07165 0.2609 0
M  V30 1004 H 90.8801 4.06235 -0.891416 0
M  V30 1005 H 89.4571 3.62213 0.886356 0
M  V30 1006 N 91.6422 0.330177 1.54103 0
M  V30 1007 C 93.0582 -0.0222371 1.59585 0
M  V30 1008 C 93.2582 -1.49902 1.34654 0
M  V30 1009 O 92.3142 -2.25592 1.13421 0
M  V30 1010 C 93.6272 0.401932 2.98002 0
M  V30 1011 C 95.1752 0.353145 3.11001 0
M  V30 1012 C 95.6502 0.752576 4.51775 0
M  V30 1013 N 97.1412 0.706239 4.57784 0
M  V30 1014 C 97.8762 0.987417 5.64834 0
M  V30 1015 N 97.3722 1.33607 6.79795 0
M  V30 1016 N 99.1652 0.91254 5.54643 0
M  V30 1017 H 91.3162 1.29228 1.68564 0
M  V30 1018 H 93.5792 0.525906 0.78875 0
M  V30 1019 H 93.2852 1.4311 3.21267 0
M  V30 1020 H 93.1592 -0.229699 3.765 0
M  V30 1021 H 95.5462 -0.666822 2.87467 0
M  V30 1022 H 95.6272 1.0198 2.34593 0
M  V30 1023 H 95.2712 1.77049 4.76042 0
M  V30 1024 H 95.2012 0.0635409 5.26562 0
M  V30 1025 H 97.6922 0.44889 3.75224 0
M  V30 1026 H 98.0052 1.53582 7.57385 0
M  V30 1027 H 96.3502 1.37439 6.81275 0
M  V30 1028 H 99.5412 0.639601 4.6371 0
M  V30 1029 H 99.7142 1.13503 6.37982 0
M  V30 1030 N 93.1203 -1.57491 0.0584922 0
M  V30 1031 C 94.0683 -2.13148 -0.931168 0
M  V30 1032 C 95.0623 -1.06507 -1.31729 0
M  V30 1033 O 96.2683 -1.24906 -1.29609 0
M  V30 1034 H 92.6433 -0.68137 -0.31818 0
M  V30 1035 H 94.6143 -2.95187 -0.436707 0
M  V30 1036 C 93.3633 -2.69732 -2.19408 0
M  V30 1037 H 92.6863 -3.51454 -1.90578 0
M  V30 1038 H 94.1263 -3.12287 -2.86798 0
M  V30 1039 C 92.5853 -1.63855 -2.94369 0
M  V30 1040 O 93.1153 -1.05565 -3.87581 0
M  V30 1041 N 91.3213 -1.35202 -2.57233 0
M  V30 1042 H 90.8683 -1.82791 -1.81508 0
M  V30 1043 H 90.8263 -0.645922 -3.07693 0
M  V30 1044 N 94.5984 0.214957 -1.56127 0
M  V30 1045 C 95.5464 1.28601 -1.93816 0
M  V30 1046 C 96.5404 1.48175 -0.821016 0
M  V30 1047 O 97.7464 1.49271 -1.0059 0
M  V30 1048 H 94.1214 0.431302 -0.616022 0
M  V30 1049 H 96.0924 0.940991 -2.83175 0
M  V30 1050 C 94.8414 2.62779 -2.27689 0
M  V30 1051 H 94.1644 2.48527 -3.13168 0
M  V30 1052 H 95.6044 3.36517 -2.57939 0
M  V30 1053 C 94.0634 3.18285 -1.10436 0
M  V30 1054 O 94.5934 4.00002 -0.368945 0
M  V30 1055 N 92.7994 2.7675 -0.886433 0
M  V30 1056 H 92.3464 2.10404 -1.48619 0
M  V30 1057 H 92.3044 3.14229 -0.103656 0
M  V30 1058 N 96.0765 1.50051 0.48192 0
M  V30 1059 C 97.3225 1.60736 1.2366 0
M  V30 1060 C 97.6555 0.301786 1.91841 0
M  V30 1061 O 96.9305 -0.696025 1.8162 0
M  V30 1062 C 97.2135 2.78009 2.28874 0
M  V30 1063 C 97.0665 4.18416 1.65069 0
M  V30 1064 C 98.3855 2.90867 3.30279 0
M  V30 1065 H 95.5045 0.585031 0.448228 0
M  V30 1066 H 98.1465 1.82402 0.531946 0
M  V30 1067 H 96.2965 2.59667 2.88973 0
M  V30 1068 H 97.9685 4.48322 1.0865 0
M  V30 1069 H 96.2115 4.23177 0.954148 0
M  V30 1070 H 96.8825 4.96381 2.41474 0
M  V30 1071 H 99.3585 3.07623 2.80191 0
M  V30 1072 H 98.2345 3.74566 4.01238 0
M  V30 1073 H 98.4955 2.01021 3.93755 0
M  V30 1074 N 97.5546 -0.734337 1.39446 0
M  V30 1075 C 98.9656 -1.31264 1.32766 0
M  V30 1076 C 99.3166 -1.96198 -0.00767497 0
M  V30 1077 O 98.4416 -1.96346 -0.909796 0
M  V30 1078 C 99.0366 -2.38682 2.4045 0
M  V30 1079 C 97.5956 -2.92184 2.37288 0
M  V30 1080 C 96.7426 -1.6576 2.22304 0
M  V30 1081 H 99.6936 -0.531799 1.49525 0
M  V30 1082 H 99.7146 -3.19087 2.07276 0
M  V30 1083 H 99.2266 -1.91392 3.37625 0
M  V30 1084 H 97.3276 -3.43752 1.43754 0
M  V30 1085 H 97.4406 -3.45253 3.3217 0
M  V30 1086 H 95.8046 -1.9012 1.69489 0
M  V30 1087 H 96.5876 -1.20521 3.21449 0
M  V30 1088 N 99.0327 -1.24633 -0.964593 0
M  V30 1089 C 100.273 -1.09981 -1.72289 0
M  V30 1090 C 100.637 0.354792 -1.88693 0
M  V30 1091 O 101.838 0.62289 -2.61483 0
M  V30 1092 C 100.109 -1.82262 -3.07434 0
M  V30 1093 S 101.668 -1.83379 -3.98645 0
M  V30 1094 H 98.4857 -0.393292 -0.59232 0
M  V30 1095 H 101.088 -1.58009 -1.15123 0
M  V30 1096 H 99.7917 -2.87206 -2.93157 0
M  V30 1097 H 99.3227 -1.3458 -3.69664 0
M  V30 1098 H 101.338 -0.903691 -4.87901 0
M  V30 1099 N 100.511 1.16574 -1.06058 0
M  V30 1100 C 101.736 1.91493 -0.796562 0
M  V30 1101 C 102.161 1.76773 0.642868 0
M  V30 1102 O 101.519 1.09142 1.44768 0
M  V30 1103 C 101.567 3.40293 -1.19303 0
M  V30 1104 O 100.671 4.11074 -0.330394 0
M  V30 1105 H 100.012 0.596678 -0.291326 0
M  V30 1106 H 102.542 1.47708 -1.41575 0
M  V30 1107 H 102.552 3.91057 -1.16356 0
M  V30 1108 H 101.227 3.50326 -2.24153 0
M  V30 1109 H 99.8038 3.70513 -0.421225 0
M  V30 1110 N 101.989 0.842826 1.3317 0
M  V30 1111 C 103.4 0.496651 1.79973 0
M  V30 1112 C 103.751 -0.984641 1.69703 0
M  V30 1113 O 102.876 -1.76743 1.24863 0
M  V30 1114 C 103.471 0.894727 3.26772 0
M  V30 1115 C 102.03 0.600629 3.71577 0
M  V30 1116 C 101.177 1.10091 2.5451 0
M  V30 1117 H 104.128 1.03116 1.20635 0
M  V30 1118 H 104.149 0.206347 3.7994 0
M  V30 1119 H 103.661 1.97287 3.34215 0
M  V30 1120 H 101.762 -0.467284 3.69658 0
M  V30 1121 H 101.875 1.15863 4.64879 0
M  V30 1122 H 100.239 0.52162 2.49301 0
M  V30 1123 H 101.022 2.18591 2.64713 0
M  V30 1124 N 103.467 -1.45747 0.599634 0
M  V30 1125 C 104.414 -2.30467 -0.123849 0
M  V30 1126 C 105.384 -1.41632 -0.86774 0
M  V30 1127 O 106.569 -1.70568 -0.855056 0
M  V30 1128 C 103.709 -3.26402 -1.12051 0
M  V30 1129 C 102.822 -4.3034 -0.37832 0
M  V30 1130 C 101.957 -5.13389 -1.364 0
M  V30 1131 C 100.996 -6.09061 -0.609171 0
M  V30 1132 N 100.133 -6.84918 -1.54374 0
M  V30 1133 H 104.973 -2.91802 0.604627 0
M  V30 1134 H 102.51 -1.43797 0.309972 0
M  V30 1135 H 104.468 -3.80482 -1.7114 0
M  V30 1136 H 103.098 -2.66839 -1.8165 0
M  V30 1137 H 102.15 -3.78984 0.327929 0
M  V30 1138 H 103.462 -4.98354 0.210997 0
M  V30 1139 H 102.616 -5.7183 -2.02719 0
M  V30 1140 H 101.355 -4.45376 -1.98725 0
M  V30 1141 H 100.36 -5.49758 0.0676979 0
M  V30 1142 H 101.585 -6.79099 0.00891991 0
M  V30 1143 H 99.531 -6.19601 -2.15478 0
M  V30 1144 H 99.448 -7.49254 -1.00766 0
M  V30 1145 H 100.716 -7.47906 -2.19676 0
M  V30 1146 N 104.945 -0.338344 -1.53925 0
M  V30 1147 C 106.191 0.260143 -2.01125 0
M  V30 1148 C 106.524 1.50617 -1.22589 0
M  V30 1149 O 105.799 1.91979 -0.312113 0
M  V30 1150 C 106.082 0.579499 -3.55407 0
M  V30 1151 C 105.935 -0.678264 -4.44657 0
M  V30 1152 C 107.254 1.39122 -4.17532 0
M  V30 1153 H 104.373 0.0930772 -0.731099 0
M  V30 1154 H 107.015 -0.457852 -1.84401 0
M  V30 1155 H 105.165 1.19118 -3.69788 0
M  V30 1156 H 106.837 -1.31631 -4.42121 0
M  V30 1157 H 105.08 -1.3042 -4.13731 0
M  V30 1158 H 105.751 -0.410143 -5.50474 0
M  V30 1159 H 108.227 0.874035 -4.06817 0
M  V30 1160 H 107.103 1.58342 -5.25565 0
M  V30 1161 H 107.364 2.39178 -3.71815 0
M  V30 1162 N 106.423 1.57458 -0.0668435 0
M  V30 1163 C 107.7 1.8469 0.644132 0
M  V30 1164 C 108.08 0.958343 1.88093 0
M  V30 1165 O 107.428 0.0233579 2.28488 0
M  V30 1166 C 107.638 3.34767 0.986509 0
M  V30 1167 C 108.986 4.02159 1.36212 0
M  V30 1168 O 110.01 3.39484 1.07839 0
M  V30 1169 O 108.869 5.12694 1.89227 0
M  V30 1170 H 105.963 0.762816 0.319437 0
M  V30 1171 H 108.509 1.6942 -0.0973986 0
M  V30 1172 H 107.281 3.91151 0.107883 0
M  V30 1173 H 106.904 3.55281 1.78497 0
M  V30 1174 N 107.901 -0.206675 1.56239 0
M  V30 1175 C 109.148 -0.928842 1.79941 0
M  V30 1176 C 109.476 -1.83734 0.638131 0
M  V30 1177 O 108.731 -1.92039 -0.376746 0
M  V30 1178 C 109.03 -1.78675 3.09532 0
M  V30 1179 C 108.696 -1.03022 4.38973 0
M  V30 1180 C 107.358 -0.821302 4.74139 0
M  V30 1181 C 109.71 -0.497081 5.18824 0
M  V30 1182 C 107.038 -0.0675719 5.86661 0
M  V30 1183 C 109.39 0.24338 6.32132 0
M  V30 1184 C 108.054 0.463422 6.65889 0
M  V30 1185 H 107.324 -0.339887 0.658451 0
M  V30 1186 H 109.971 -0.195977 1.90495 0
M  V30 1187 H 108.276 -2.58794 2.94165 0
M  V30 1188 H 109.973 -2.34792 3.25075 0
M  V30 1189 H 106.563 -1.20306 4.11369 0
M  V30 1190 H 110.747 -0.645921 4.92079 0
M  V30 1191 H 106.003 0.112995 6.11296 0
M  V30 1192 H 110.177 0.66393 6.93228 0
M  V30 1193 H 107.804 1.04938 7.52922 0
M  V30 1194 N 109.379 -1.50304 -0.473955 0
M  V30 1195 C 110.607 -1.64902 -1.24959 0
M  V30 1196 C 111.022 -0.331198 -1.85872 0
M  V30 1197 O 110.379 0.68652 -1.69095 0
M  V30 1198 C 110.43 -2.73803 -2.36038 0
M  V30 1199 O 110.151 -4.00477 -1.77624 0
M  V30 1200 C 111.652 -2.99349 -3.26964 0
M  V30 1201 H 108.872 -0.554383 -0.378022 0
M  V30 1202 H 111.416 -1.9651 -0.566054 0
M  V30 1203 H 109.571 -2.44898 -3.00173 0
M  V30 1204 H 109.985 -4.60678 -2.5075 0
M  V30 1205 H 111.459 -3.79217 -4.01121 0
M  V30 1206 H 111.936 -2.10307 -3.85574 0
M  V30 1207 H 112.542 -3.29774 -2.68569 0
M  V30 1208 N 110.857 0.726932 -1.39834 0
M  V30 1209 C 111.787 1.85405 -1.41941 0
M  V30 1210 C 112.768 1.67751 -0.281728 0
M  V30 1211 O 113.953 1.8795 -0.488717 0
M  V30 1212 C 111.083 3.23243 -1.2701 0
M  V30 1213 C 110.037 3.55549 -2.38262 0
M  V30 1214 C 109.363 4.9241 -2.08415 0
M  V30 1215 C 110.663 3.577 -3.80589 0
M  V30 1216 H 112.357 1.83899 -2.36266 0
M  V30 1217 H 109.903 0.883349 -1.13723 0
M  V30 1218 H 111.856 4.01775 -1.27103 0
M  V30 1219 H 110.58 3.25296 -0.291564 0
M  V30 1220 H 109.239 2.79351 -2.37399 0
M  V30 1221 H 108.887 4.91052 -1.0898 0
M  V30 1222 H 108.587 5.14992 -2.82943 0
M  V30 1223 H 110.111 5.73289 -2.10171 0
M  V30 1224 H 111.525 4.26293 -3.83337 0
M  V30 1225 H 109.922 3.91804 -4.54543 0
M  V30 1226 H 110.992 2.57328 -4.10987 0
M  V30 1227 N 112.336 1.25143 0.95797 0
M  V30 1228 C 113.561 1.12521 1.74223 0
M  V30 1229 C 113.986 -0.317402 1.85403 0
M  V30 1230 O 113.344 -1.2299 1.33204 0
M  V30 1231 C 113.392 1.78062 3.1357 0
M  V30 1232 O 112.496 1.058 3.98598 0
M  V30 1233 H 111.837 0.39304 0.535178 0
M  V30 1234 H 114.367 1.65641 1.201 0
M  V30 1235 H 114.377 1.84213 3.64046 0
M  V30 1236 H 113.052 2.83021 3.04749 0
M  V30 1237 H 111.629 1.07506 3.57067 0
M  V30 1238 N 113.814 -1.1601 1.06675 0
M  V30 1239 C 115.039 -1.91068 0.806706 0
M  V30 1240 C 115.464 -1.77112 -0.633485 0
M  V30 1241 O 114.822 -1.09908 -1.44187 0
M  V30 1242 C 114.87 -3.39655 1.21106 0
M  V30 1243 O 113.974 -4.10893 0.352189 0
M  V30 1244 H 113.315 -0.595125 0.294486 0
M  V30 1245 H 115.845 -1.46955 1.42356 0
M  V30 1246 H 115.855 -3.90434 1.18428 0
M  V30 1247 H 114.53 -3.49132 2.26008 0
M  V30 1248 H 113.107 -3.70285 0.440868 0
M  V30 1249 N 115.292 -0.849877 -1.32721 0
M  V30 1250 C 116.202 -0.293791 -2.32753 0
M  V30 1251 C 117.218 0.585906 -1.63839 0
M  V30 1252 O 118.394 0.487413 -1.95413 0
M  V30 1253 C 115.459 0.512752 -3.42887 0
M  V30 1254 C 114.52 -0.39252 -4.27502 0
M  V30 1255 C 113.753 0.375625 -5.32377 0
M  V30 1256 O 113.976 1.60613 -5.4732 0
M  V30 1257 O 112.91 -0.256094 -6.01355 0
M  V30 1258 H 116.736 -1.12242 -2.82197 0
M  V30 1259 H 114.321 -0.612685 -1.36259 0
M  V30 1260 H 116.203 0.970704 -4.10067 0
M  V30 1261 H 114.878 1.31826 -2.95641 0
M  V30 1262 H 113.785 -0.898547 -3.63149 0
M  V30 1263 H 115.118 -1.16309 -4.7826 0
M  V30 1264 N 116.77 1.45427 -0.607355 0
M  V30 1265 C 118.186 1.57283 -0.270985 0
M  V30 1266 C 118.386 1.59875 1.22647 0
M  V30 1267 O 117.442 1.52893 2.00948 0
M  V30 1268 C 118.755 2.85566 -0.941952 0
M  V30 1269 C 120.303 2.9924 -0.917849 0
M  V30 1270 C 120.778 4.30293 -1.56882 0
M  V30 1271 N 122.269 4.37051 -1.5343 0
M  V30 1272 C 123.004 5.37123 -2.00715 0
M  V30 1273 N 122.5 6.43734 -2.56084 0
M  V30 1274 N 124.293 5.28479 -1.91484 0
M  V30 1275 H 116.444 1.41988 -1.57966 0
M  V30 1276 H 118.707 0.67885 -0.661715 0
M  V30 1277 H 118.413 2.8955 -1.99633 0
M  V30 1278 H 118.287 3.74322 -0.465096 0
M  V30 1279 H 120.674 2.94822 0.127984 0
M  V30 1280 H 120.755 2.11895 -1.43297 0
M  V30 1281 H 120.399 4.35469 -2.61398 0
M  V30 1282 H 120.329 5.16454 -1.02873 0
M  V30 1283 H 122.82 3.60615 -1.12982 0
M  V30 1284 H 123.133 7.16341 -2.89958 0
M  V30 1285 H 121.478 6.44485 -2.60122 0
M  V30 1286 H 124.669 4.44098 -1.47967 0
M  V30 1287 H 124.842 6.0632 -2.28648 0
M  V30 1288 N 118.248 0.346503 1.53744 0
M  V30 1289 C 119.525 -0.304532 1.93215 0
M  V30 1290 C 119.905 -1.67993 1.27834 0
M  V30 1291 O 119.253 -2.24411 0.430352 0
M  V30 1292 C 119.463 -0.373852 3.46992 0
M  V30 1293 C 120.811 -0.62329 4.2 0
M  V30 1294 O 121.835 -0.455847 3.53271 0
M  V30 1295 O 120.694 -0.947879 5.38217 0
M  V30 1296 H 117.788 -0.178318 0.807547 0
M  V30 1297 H 120.334 0.397895 1.64969 0
M  V30 1298 H 119.106 0.591224 3.86808 0
M  V30 1299 H 118.729 -1.12294 3.81413 0
M  V30 1300 N 119.726 -1.57421 0.075193 0
M  V30 1301 C 120.973 -1.93618 -0.593146 0
M  V30 1302 C 121.301 -0.955484 -1.69413 0
M  V30 1303 O 120.556 0.0283251 -1.9568 0
M  V30 1304 C 120.855 -3.36428 -1.20626 0
M  V30 1305 C 120.521 -4.50307 -0.231078 0
M  V30 1306 C 119.183 -4.81186 0.0371936 0
M  V30 1307 C 121.535 -5.19374 0.435888 0
M  V30 1308 C 118.863 -5.78466 0.979461 0
M  V30 1309 C 121.215 -6.17665 1.3665 0
M  V30 1310 C 119.879 -6.46958 1.6432 0
M  V30 1311 H 119.149 -0.708499 -0.217047 0
M  V30 1312 H 121.796 -1.90937 0.146793 0
M  V30 1313 H 120.101 -3.35592 -2.02201 0
M  V30 1314 H 121.798 -3.61727 -1.73073 0
M  V30 1315 H 118.388 -4.26227 -0.450357 0
M  V30 1316 H 122.572 -4.95711 0.241748 0
M  V30 1317 H 117.828 -5.99487 1.20106 0
M  V30 1318 H 122.002 -6.70284 1.88924 0
M  V30 1319 H 119.629 -7.2215 2.37494 0
M  V30 1320 N 121.204 0.198386 -1.56346 0
M  V30 1321 C 122.167 1.22952 -1.93431 0
M  V30 1322 C 123.167 1.38611 -0.815092 0
M  V30 1323 O 124.357 1.36479 -1.08255 0
M  V30 1324 C 121.489 2.59946 -2.20546 0
M  V30 1325 H 122.682 0.912626 -2.85677 0
M  V30 1326 H 120.235 0.43977 -1.49986 0
M  V30 1327 H 120.97 2.96696 -1.30927 0
M  V30 1328 H 120.755 2.49953 -3.02102 0
M  V30 1329 H 122.245 3.3431 -2.50253 0
M  V30 1330 N 122.682 1.50554 0.465978 0
M  V30 1331 C 123.612 1.72722 1.57128 0
M  V30 1332 C 124.593 0.576294 1.6004 0
M  V30 1333 O 125.778 0.81598 1.76225 0
M  V30 1334 C 122.908 1.82605 2.95419 0
M  V30 1335 C 121.862 2.97835 3.07373 0
M  V30 1336 C 121.188 2.92867 4.47363 0
M  V30 1337 C 122.488 4.38265 2.84114 0
M  V30 1338 H 124.182 2.65267 1.38829 0
M  V30 1339 H 121.728 1.2765 0.666441 0
M  V30 1340 H 123.681 1.96698 3.72677 0
M  V30 1341 H 122.405 0.866858 3.14886 0
M  V30 1342 H 121.064 2.83401 2.3255 0
M  V30 1343 H 120.712 1.94783 4.63755 0
M  V30 1344 H 120.412 3.70227 4.56296 0
M  V30 1345 H 121.936 3.09015 5.26633 0
M  V30 1346 H 123.35 4.53198 3.51118 0
M  V30 1347 H 121.747 5.17115 3.04487 0
M  V30 1348 H 122.817 4.50281 1.7993 0
M  V30 1349 N 124.16 -0.719506 1.40217 0
M  V30 1350 C 125.09 -1.8465 1.42922 0
M  V30 1351 C 126.071 -1.67599 0.29062 0
M  V30 1352 O 127.256 -1.87688 0.498677 0
M  V30 1353 C 124.386 -3.22565 1.28722 0
M  V30 1354 C 123.34 -3.54281 2.40144 0
M  V30 1355 C 122.666 -4.91298 2.11023 0
M  V30 1356 C 123.966 -3.55676 3.82481 0
M  V30 1357 H 125.66 -1.82644 2.37237 0
M  V30 1358 H 123.206 -0.877305 1.1419 0
M  V30 1359 H 125.159 -4.01095 1.29232 0
M  V30 1360 H 123.883 -3.25137 0.308811 0
M  V30 1361 H 122.542 -2.78088 2.38877 0
M  V30 1362 H 122.19 -4.90468 1.11582 0
M  V30 1363 H 121.89 -5.13485 2.8567 0
M  V30 1364 H 123.414 -5.72166 2.13209 0
M  V30 1365 H 124.828 -4.24254 3.85592 0
M  V30 1366 H 123.225 -3.89388 4.56614 0
M  V30 1367 H 124.295 -2.55144 4.12346 0
M  V30 1368 N 125.638 -1.25649 -0.95132 0
M  V30 1369 C 126.863 -1.13443 -1.73624 0
M  V30 1370 C 127.288 0.307565 -1.85568 0
M  V30 1371 O 126.646 1.22282 -1.33854 0
M  V30 1372 C 126.694 -1.79723 -3.12621 0
M  V30 1373 O 125.798 -1.07912 -3.98031 0
M  V30 1374 H 125.139 -0.395872 -0.533086 0
M  V30 1375 H 127.669 -1.66276 -1.1922 0
M  V30 1376 H 127.679 -1.86141 -3.63064 0
M  V30 1377 H 126.354 -2.84633 -3.03244 0
M  V30 1378 H 124.931 -1.09398 -3.56492 0
M  V30 1379 N 127.117 1.15442 -1.07289 0
M  V30 1380 C 128.047 2.22312 -0.714107 0
M  V30 1381 C 129.028 1.67467 0.298155 0
M  V30 1382 O 130.213 1.93445 0.171048 0
M  V30 1383 C 127.343 3.47124 -0.110448 0
M  V30 1384 C 126.297 4.14926 -1.04979 0
M  V30 1385 C 125.623 5.33807 -0.308924 0
M  V30 1386 C 126.923 4.64762 -2.38314 0
M  V30 1387 H 128.617 2.5258 -1.6076 0
M  V30 1388 H 126.163 1.21404 -0.77441 0
M  V30 1389 H 128.116 4.21124 0.152482 0
M  V30 1390 H 126.84 3.16187 0.81812 0
M  V30 1391 H 125.499 3.42866 -1.29764 0
M  V30 1392 H 125.147 4.99126 0.623084 0
M  V30 1393 H 124.847 5.80113 -0.935036 0
M  V30 1394 H 126.371 6.10576 -0.0537771 0
M  V30 1395 H 127.785 5.30292 -2.1786 0
M  V30 1396 H 126.182 5.21728 -2.96514 0
M  V30 1397 H 127.252 3.80434 -3.00663 0
M  V30 1398 N 128.595 0.856903 1.32268 0
M  V30 1399 C 129.527 0.260412 2.27716 0
M  V30 1400 C 130.54 -0.569137 1.52528 0
M  V30 1401 O 131.729 -0.39326 1.74114 0
M  V30 1402 C 128.829 -0.650477 3.32599 0
M  V30 1403 C 128.002 0.14372 4.37164 0
M  V30 1404 C 127.061 -0.69328 5.21613 0
M  V30 1405 O 126.087 -0.12599 5.69061 0
M  V30 1406 N 127.289 -2.00761 5.44679 0
M  V30 1407 H 130.054 1.08059 2.79541 0
M  V30 1408 H 127.615 0.717103 1.45152 0
M  V30 1409 H 129.607 -1.21581 3.86005 0
M  V30 1410 H 128.177 -1.37133 2.80915 0
M  V30 1411 H 127.397 0.890486 3.8401 0
M  V30 1412 H 128.685 0.68915 5.04111 0
M  V30 1413 H 128.083 -2.49181 5.07863 0
M  V30 1414 H 126.64 -2.52103 6.01072 0
M  V30 1415 N 130.073 -1.45103 0.615059 0
M  V30 1416 C 131.319 -2.02483 0.113347 0
M  V30 1417 C 131.652 -1.48146 -1.25564 0
M  V30 1418 O 130.927 -0.659104 -1.82992 0
M  V30 1419 C 131.21 -3.60005 0.0825278 0
M  V30 1420 C 131.063 -4.2466 1.48271 0
M  V30 1421 C 132.382 -4.35972 -0.601401 0
M  V30 1422 H 129.501 -0.735764 0.0426632 0
M  V30 1423 H 132.143 -1.72868 0.788461 0
M  V30 1424 H 130.293 -3.85367 -0.492378 0
M  V30 1425 H 131.965 -4.10458 2.10527 0
M  V30 1426 H 130.208 -3.82772 2.04127 0
M  V30 1427 H 130.879 -5.336 1.41332 0
M  V30 1428 H 133.355 -4.15947 -0.112666 0
M  V30 1429 H 132.231 -5.45697 -0.592097 0
M  V30 1430 H 132.492 -4.09391 -1.66887 0
M  V30 1431 N 131.551 -0.354651 -1.53558 0
M  V30 1432 C 132.962 0.126902 -1.86268 0
M  V30 1433 C 133.313 1.49075 -1.27558 0
M  V30 1434 O 132.438 2.08105 -0.5934 0
M  V30 1435 C 133.033 0.237046 -3.3797 0
M  V30 1436 C 131.592 0.662842 -3.70518 0
M  V30 1437 C 130.739 -0.196652 -2.76602 0
M  V30 1438 H 133.69 -0.573849 -1.47962 0
M  V30 1439 H 133.711 1.06259 -3.65362 0
M  V30 1440 H 133.223 -0.755725 -3.80671 0
M  V30 1441 H 131.324 1.66424 -3.33367 0
M  V30 1442 H 131.437 0.445034 -4.77029 0
M  V30 1443 H 129.801 0.332763 -2.52517 0
M  V30 1444 H 130.584 -1.18676 -3.22135 0
M  V30 1445 N 133.029 1.57378 -0.0835403 0
M  V30 1446 C 133.959 2.1641 0.87686 0
M  V30 1447 C 134.94 1.09429 1.30228 0
M  V30 1448 O 136.125 1.37516 1.37124 0
M  V30 1449 C 133.255 2.73517 2.14022 0
M  V30 1450 C 132.209 3.85769 1.85381 0
M  V30 1451 C 131.535 4.29529 3.18448 0
M  V30 1452 C 132.835 5.09486 1.14984 0
M  V30 1453 H 134.529 2.96914 0.385059 0
M  V30 1454 H 132.075 1.42823 0.18377 0
M  V30 1455 H 134.028 3.13463 2.81636 0
M  V30 1456 H 132.752 1.90252 2.65465 0
M  V30 1457 H 131.411 3.46345 1.20169 0
M  V30 1458 H 131.059 3.43169 3.67755 0
M  V30 1459 H 130.759 5.05204 3.00071 0
M  V30 1460 H 132.283 4.72099 3.8724 0
M  V30 1461 H 133.697 5.46674 1.72687 0
M  V30 1462 H 132.094 5.90515 1.06826 0
M  V30 1463 H 133.164 4.84724 0.130749 0
M  V30 1464 N 134.507 -0.190092 1.56449 0
M  V30 1465 C 135.454 -1.23557 1.94942 0
M  V30 1466 C 136.424 -1.44972 0.810696 0
M  V30 1467 O 137.609 -1.58023 1.06927 0
M  V30 1468 C 134.749 -2.57416 2.2985 0
M  V30 1469 C 133.862 -2.43537 3.5681 0
M  V30 1470 C 132.997 -3.70134 3.81017 0
M  V30 1471 C 132.036 -3.51109 5.01387 0
M  V30 1472 N 131.173 -4.6973 5.21822 0
M  V30 1473 H 136.013 -0.900304 2.84075 0
M  V30 1474 H 133.55 -0.43318 1.40577 0
M  V30 1475 H 135.508 -3.35409 2.48106 0
M  V30 1476 H 134.138 -2.88975 1.43852 0
M  V30 1477 H 133.19 -1.56816 3.46573 0
M  V30 1478 H 134.502 -2.25415 4.4496 0
M  V30 1479 H 133.656 -4.56566 3.9954 0
M  V30 1480 H 132.395 -3.91215 2.91207 0
M  V30 1481 H 131.4 -2.63063 4.82782 0
M  V30 1482 H 132.625 -3.31468 5.9271 0
M  V30 1483 H 130.571 -4.91065 4.34961 0
M  V30 1484 H 130.488 -4.54452 6.0416 0
M  V30 1485 H 131.756 -5.57499 5.44808 0
M  V30 1486 N 135.985 -1.50799 -0.457987 0
M  V30 1487 C 137.262 -1.52968 -1.21902 0
M  V30 1488 C 137.642 -0.281906 -2.09209 0
M  V30 1489 O 136.99 0.734076 -2.16388 0
M  V30 1490 C 137.2 -2.8326 -2.03875 0
M  V30 1491 C 138.548 -3.34425 -2.6162 0
M  V30 1492 O 139.572 -2.8467 -2.14106 0
M  V30 1493 O 138.431 -4.21188 -3.48228 0
M  V30 1494 H 135.525 -0.614129 -0.553873 0
M  V30 1495 H 138.071 -1.63098 -0.468739 0
M  V30 1496 H 136.843 -3.65543 -1.39621 0
M  V30 1497 H 136.466 -2.76195 -2.8601 0
M  V30 1498 N 137.463 0.71206 -1.40597 0
M  V30 1499 C 138.426 1.80785 -1.40888 0
M  V30 1500 C 139.426 1.57937 -0.302103 0
M  V30 1501 O 140.616 1.64913 -0.561182 0
M  V30 1502 C 137.748 3.18927 -1.20409 0
M  V30 1503 H 138.941 1.81924 -2.38419 0
M  V30 1504 H 136.494 0.91805 -1.26497 0
M  V30 1505 H 137.229 3.23436 -0.236522 0
M  V30 1506 H 137.014 3.36911 -2.00582 0
M  V30 1507 H 138.504 3.98949 -1.23408 0
M  V30 1508 N 138.941 1.26152 0.944643 0
M  V30 1509 C 139.888 1.07408 2.04285 0
M  V30 1510 C 140.858 -0.0198413 1.66088 0
M  V30 1511 O 142.043 0.139264 1.90291 0
M  V30 1512 C 139.183 0.70945 3.37729 0
M  V30 1513 C 138.296 1.87926 3.88983 0
M  V30 1514 C 137.431 1.45807 5.10797 0
M  V30 1515 C 136.47 2.5964 5.54305 0
M  V30 1516 N 135.607 2.18226 6.67324 0
M  V30 1517 H 140.447 2.01389 2.1965 0
M  V30 1518 H 137.984 1.00275 1.07626 0
M  V30 1519 H 139.942 0.478948 4.14442 0
M  V30 1520 H 138.572 -0.193389 3.2222 0
M  V30 1521 H 137.624 2.22279 3.08701 0
M  V30 1522 H 138.936 2.73377 4.17213 0
M  V30 1523 H 138.09 1.18781 5.94959 0
M  V30 1524 H 136.829 0.574414 4.84305 0
M  V30 1525 H 135.834 2.87399 4.68702 0
M  V30 1526 H 137.059 3.48599 5.828 0
M  V30 1527 H 135.005 1.3229 6.42523 0
M  V30 1528 H 134.922 2.97221 6.95123 0
M  V30 1529 H 136.19 1.94403 7.54869 0
M  V30 1530 N 140.419 -1.14872 1.07899 0
M  V30 1531 C 141.644 -1.90202 0.826926 0
M  V30 1532 C 142.069 -1.77774 -0.614664 0
M  V30 1533 O 141.427 -1.11431 -1.43013 0
M  V30 1534 C 141.475 -3.38352 1.24702 0
M  V30 1535 O 140.579 -4.10497 0.39575 0
M  V30 1536 H 139.92 -0.591968 0.300782 0
M  V30 1537 H 142.45 -1.45437 1.43907 0
M  V30 1538 H 142.46 -3.89156 1.22563 0
M  V30 1539 H 141.135 -3.46715 2.29698 0
M  V30 1540 H 139.712 -3.69796 0.480117 0
M  V30 1541 N 141.898 -0.863906 -1.31812 0
M  V30 1542 C 143.138 -0.47825 -1.98726 0
M  V30 1543 C 143.502 0.950397 -1.66828 0
M  V30 1544 O 144.703 1.44109 -2.26905 0
M  V30 1545 C 142.974 -0.721134 -3.50049 0
M  V30 1546 S 144.533 -0.434432 -4.36644 0
M  V30 1547 H 141.351 -0.178773 -0.688158 0
M  V30 1548 H 143.953 -1.11862 -1.60334 0
M  V30 1549 H 142.657 -1.75981 -3.70755 0
M  V30 1550 H 142.188 -0.0675315 -3.93342 0
M  V30 1551 H 144.203 0.735786 -4.90714 0
M  V30 1552 N 143.376 1.44774 -0.622745 0
M  V30 1553 C 144.624 2.01721 -0.123655 0
M  V30 1554 C 144.945 1.49172 1.25589 0
M  V30 1555 O 144.215 0.691974 1.83272 0
M  V30 1556 H 142.795 0.745777 -0.0427225 0
M  V30 1557 H 145.457 1.77382 -0.807559 0
M  V30 1558 H 144.553 3.11984 -0.0849534 0
M  V30 1559 N 144.854 0.36279 1.53368 0
M  V30 1560 C 145.784 -0.476976 2.28576 0
M  V30 1561 C 146.765 -1.08631 1.30894 0
M  V30 1562 O 147.95 -1.10409 1.59761 0
M  V30 1563 C 145.08 -1.61828 3.07293 0
M  V30 1564 C 144.034 -1.13633 4.1264 0
M  V30 1565 C 143.36 -2.36766 4.79423 0
M  V30 1566 C 144.66 -0.223061 5.21823 0
M  V30 1567 H 146.354 0.150474 2.99022 0
M  V30 1568 H 143.9 0.0738103 1.43811 0
M  V30 1569 H 145.853 -2.21237 3.58653 0
M  V30 1570 H 144.577 -2.27292 2.34533 0
M  V30 1571 H 143.236 -0.564945 3.62221 0
M  V30 1572 H 142.884 -3.0068 4.03238 0
M  V30 1573 H 142.584 -2.05192 5.50609 0
M  V30 1574 H 144.108 -2.96865 5.33576 0
M  V30 1575 H 145.522 -0.724545 5.68703 0
M  V30 1576 H 143.919 0.001678 6.001 0
M  V30 1577 H 144.989 0.735553 4.79289 0
M  V30 1578 N 146.332 -1.57332 0.0918853 0
M  V30 1579 C 147.282 -2.10385 -0.87876 0
M  V30 1580 C 148.266 -1.01814 -1.24591 0
M  V30 1581 O 149.458 -1.28093 -1.22152 0
M  V30 1582 C 146.587 -2.68517 -2.13901 0
M  V30 1583 C 145.673 -3.84126 -1.79744 0
M  V30 1584 N 146.064 -4.92288 -1.1613 0
M  V30 1585 C 144.362 -3.93801 -2.09373 0
M  V30 1586 C 145.063 -5.7295 -1.00513 0
M  V30 1587 N 144.039 -5.21876 -1.5214 0
M  V30 1588 H 147.841 -2.91395 -0.38293 0
M  V30 1589 H 145.355 -1.62017 -0.111423 0
M  V30 1590 H 147.352 -3.04852 -2.84378 0
M  V30 1591 H 146.012 -1.88961 -2.64053 0
M  V30 1592 H 147.023 -5.1123 -0.828504 0
M  V30 1593 H 143.7 -3.25249 -2.61762 0
M  V30 1594 H 145.09 -6.69978 -0.507902 0
M  V30 1595 N 147.81 0.181792 -1.56548 0
M  V30 1596 C 148.742 1.24956 -1.92142 0
M  V30 1597 C 149.755 1.41022 -0.813422 0
M  V30 1598 O 150.944 1.41212 -1.09186 0
M  V30 1599 C 148.044 2.61981 -2.14987 0
M  V30 1600 C 147.217 2.6735 -3.46183 0
M  V30 1601 C 146.276 3.85664 -3.5798 0
M  V30 1602 O 145.302 3.72148 -4.30691 0
M  V30 1603 N 146.504 5.01683 -2.92053 0
M  V30 1604 H 149.269 0.947329 -2.84334 0
M  V30 1605 H 146.83 0.371629 -1.57577 0
M  V30 1606 H 148.822 3.3958 -2.20154 0
M  V30 1607 H 147.392 2.84637 -1.2923 0
M  V30 1608 H 146.612 1.75925 -3.52766 0
M  V30 1609 H 147.9 2.67939 -4.32534 0
M  V30 1610 H 147.298 5.15564 -2.32832 0
M  V30 1611 H 145.855 5.77181 -3.0283 0
M  V30 1612 N 149.288 1.51039 0.449983 0
M  V30 1613 C 150.218 1.74379 1.55288 0
M  V30 1614 C 151.199 0.593236 1.5942 0
M  V30 1615 O 152.384 0.834625 1.7535 0
M  V30 1616 C 149.514 1.85728 2.93466 0
M  V30 1617 C 148.468 3.01078 3.04197 0
M  V30 1618 C 147.794 2.97595 4.44231 0
M  V30 1619 C 149.094 4.41254 2.7945 0
M  V30 1620 H 150.788 2.66725 1.36008 0
M  V30 1621 H 148.334 1.2835 0.652864 0
M  V30 1622 H 150.287 2.0064 3.70569 0
M  V30 1623 H 149.011 0.900207 3.13949 0
M  V30 1624 H 147.67 2.85851 2.29531 0
M  V30 1625 H 147.318 1.99691 4.61663 0
M  V30 1626 H 147.018 3.75046 4.52343 0
M  V30 1627 H 148.542 3.14583 5.23326 0
M  V30 1628 H 149.956 4.56897 3.46292 0
M  V30 1629 H 148.353 5.20315 2.98985 0
M  V30 1630 H 149.423 4.52164 1.75144 0
M  V30 1631 N 150.766 -0.704594 1.40972 0
M  V30 1632 C 151.696 -1.83124 1.44872 0
M  V30 1633 C 152.677 -1.67281 0.30838 0
M  V30 1634 O 153.862 -1.87149 0.518556 0
M  V30 1635 C 150.992 -3.21181 1.32136 0
M  V30 1636 C 149.946 -3.51714 2.43888 0
M  V30 1637 C 149.272 -4.89032 2.16222 0
M  V30 1638 C 150.572 -3.516 3.86232 0
M  V30 1639 H 152.266 -1.80117 2.39161 0
M  V30 1640 H 149.812 -0.865145 1.15114 0
M  V30 1641 H 151.765 -3.99702 1.33479 0
M  V30 1642 H 150.489 -3.24791 0.343279 0
M  V30 1643 H 149.148 -2.75539 2.41813 0
M  V30 1644 H 148.796 -4.89256 1.16778 0
M  V30 1645 H 148.496 -5.10426 2.911 0
M  V30 1646 H 150.02 -5.69873 2.19265 0
M  V30 1647 H 151.434 -4.2014 3.9007 0
M  V30 1648 H 149.831 -3.84523 4.60719 0
M  V30 1649 H 150.901 -2.50757 4.15029 0
M  V30 1650 N 152.244 -1.26651 -0.937939 0
M  V30 1651 C 153.66 -1.03834 -1.21205 0
M  V30 1652 C 153.86 0.234502 -2.00131 0
M  V30 1653 O 152.916 0.942767 -2.3424 0
M  V30 1654 C 154.229 -2.27167 -1.97017 0
M  V30 1655 C 155.777 -2.32101 -2.09996 0
M  V30 1656 C 156.252 -3.55136 -2.8921 0
M  V30 1657 N 157.743 -3.55632 -2.96783 0
M  V30 1658 C 158.478 -4.475 -3.58512 0
M  V30 1659 N 157.974 -5.4966 -4.21717 0
M  V30 1660 N 159.767 -4.35145 -3.55816 0
M  V30 1661 H 151.918 -2.08398 -0.410391 0
M  V30 1662 H 154.181 -0.916031 -0.244114 0
M  V30 1663 H 153.887 -3.19765 -1.46434 0
M  V30 1664 H 153.761 -2.31672 -2.97671 0
M  V30 1665 H 156.148 -1.40015 -2.59769 0
M  V30 1666 H 156.229 -2.31605 -1.08594 0
M  V30 1667 H 155.873 -4.47553 -2.40123 0
M  V30 1668 H 155.803 -3.5288 -3.90875 0
M  V30 1669 H 158.294 -2.81743 -2.51852 0
M  V30 1670 H 158.607 -6.15943 -4.66727 0
M  V30 1671 H 156.952 -5.53514 -4.20294 0
M  V30 1672 H 160.143 -3.5455 -3.05634 0
M  V30 1673 H 160.316 -5.06934 -4.03636 0
M  V30 1674 N 153.722 1.14298 -1.08507 0
M  V30 1675 C 154.97 1.84993 -0.813763 0
M  V30 1676 C 155.291 1.83405 0.662393 0
M  V30 1677 O 154.561 1.28319 1.48024 0
M  V30 1678 H 153.141 0.684966 -0.298045 0
M  V30 1679 H 155.803 1.385 -1.37126 0
M  V30 1680 H 154.899 2.89788 -1.15884 0
M  V30 1681 N 155.201 0.870884 1.31352 0
M  V30 1682 C 156.612 0.534714 1.78879 0
M  V30 1683 C 156.963 -0.948423 1.71754 0
M  V30 1684 O 156.088 -1.74055 1.28584 0
M  V30 1685 C 156.683 0.963839 3.24801 0
M  V30 1686 C 155.242 0.679311 3.70219 0
M  V30 1687 C 154.389 1.15465 2.52117 0
M  V30 1688 H 157.34 1.05651 1.18421 0
M  V30 1689 H 157.361 0.286892 3.79417 0
M  V30 1690 H 156.873 2.04332 3.29955 0
M  V30 1691 H 154.974 -0.388769 3.70566 0
M  V30 1692 H 155.087 1.25698 4.62317 0
M  V30 1693 H 153.451 0.574383 2.48139 0
M  V30 1694 H 154.234 2.24157 2.60016 0
M  V30 1695 N 156.679 -1.44442 0.630414 0
M  V30 1696 C 157.589 -2.34476 -0.0761693 0
M  V30 1697 C 158.605 -1.52576 -0.836449 0
M  V30 1698 O 159.781 -1.85307 -0.788874 0
M  V30 1699 C 156.846 -3.30545 -1.04599 0
M  V30 1700 C 155.907 -4.28352 -0.28516 0
M  V30 1701 C 155.14 -5.19831 -1.20878 0
M  V30 1702 O 155.363 -5.15223 -2.44747 0
M  V30 1703 O 154.297 -5.97892 -0.693491 0
M  V30 1704 H 158.123 -2.96345 0.664324 0
M  V30 1705 H 155.708 -1.44203 0.39061 0
M  V30 1706 H 157.59 -3.89681 -1.60396 0
M  V30 1707 H 156.265 -2.7121 -1.76711 0
M  V30 1708 H 155.172 -3.72764 0.315837 0
M  V30 1709 H 156.505 -4.90605 0.395924 0
M  V30 1710 N 158.157 -0.370918 -1.53173 0
M  V30 1711 C 159.403 0.217423 -2.01631 0
M  V30 1712 C 159.736 1.47983 -1.25756 0
M  V30 1713 O 159.011 1.91274 -0.352764 0
M  V30 1714 C 159.294 0.503982 -3.56556 0
M  V30 1715 C 159.147 -0.77243 -4.43118 0
M  V30 1716 C 160.466 1.30234 -4.20389 0
M  V30 1717 H 157.585 0.0775486 -0.732909 0
M  V30 1718 H 160.227 -0.496863 -1.83388 0
M  V30 1719 H 158.377 1.11248 -3.72231 0
M  V30 1720 H 160.049 -1.4098 -4.39229 0
M  V30 1721 H 158.292 -1.39167 -4.10871 0
M  V30 1722 H 158.963 -0.526815 -5.4948 0
M  V30 1723 H 161.439 0.787546 -4.08579 0
M  V30 1724 H 160.315 1.47158 -5.28806 0
M  V30 1725 H 160.576 2.31237 -3.76805 0
M  V30 1726 N 159.635 1.57281 -0.100228 0
M  V30 1727 C 160.567 2.11342 0.886972 0
M  V30 1728 C 161.58 1.05182 1.24261 0
M  V30 1729 O 162.769 1.32613 1.19483 0
M  V30 1730 C 159.869 2.5825 2.19454 0
M  V30 1731 C 159.042 3.88302 2.01346 0
M  V30 1732 C 158.101 4.21004 3.15661 0
M  V30 1733 O 157.127 4.9014 2.89398 0
M  V30 1734 N 158.329 3.76818 4.41575 0
M  V30 1735 H 161.094 2.96668 0.425216 0
M  V30 1736 H 158.655 1.61678 0.0847334 0
M  V30 1737 H 160.647 2.7717 2.94888 0
M  V30 1738 H 159.217 1.77907 2.57037 0
M  V30 1739 H 158.437 3.7848 1.10212 0
M  V30 1740 H 159.725 4.73375 1.8653 0
M  V30 1741 H 159.123 3.2102 4.65792 0
M  V30 1742 H 157.68 4.00882 5.13942 0
M  V30 1743 N 161.113 -0.173488 1.56642 0
M  V30 1744 C 162.043 -1.2171 1.99271 0
M  V30 1745 C 163.024 -1.46289 0.867959 0
M  V30 1746 O 164.209 -1.5766 1.13388 0
M  V30 1747 C 161.339 -2.55651 2.35074 0
M  V30 1748 C 160.293 -2.45645 3.50489 0
M  V30 1749 C 159.619 -3.84056 3.72028 0
M  V30 1750 C 160.919 -1.96302 4.84007 0
M  V30 1751 H 162.613 -0.86275 2.867 0
M  V30 1752 H 160.159 -0.413571 1.37933 0
M  V30 1753 H 162.112 -3.2886 2.63494 0
M  V30 1754 H 160.836 -2.92869 1.44552 0
M  V30 1755 H 159.495 -1.7489 3.22194 0
M  V30 1756 H 159.143 -4.18664 2.788 0
M  V30 1757 H 158.843 -3.7823 4.49684 0
M  V30 1758 H 160.367 -4.58854 4.02846 0
M  V30 1759 H 161.781 -2.59284 5.11317 0
M  V30 1760 H 160.178 -2.01429 5.65284 0
M  V30 1761 H 161.248 -0.917226 4.76146 0
M  V30 1762 N 162.591 -1.51276 -0.441967 0
M  V30 1763 C 163.837 -1.63958 -1.19355 0
M  V30 1764 C 164.17 -0.352543 -1.90973 0
M  V30 1765 O 163.445 0.647627 -1.83401 0
M  V30 1766 C 163.728 -2.83979 -2.21422 0
M  V30 1767 C 163.581 -4.22646 -1.53918 0
M  V30 1768 C 164.9 -2.99521 -3.22451 0
M  V30 1769 H 162.019 -0.596709 -0.432559 0
M  V30 1770 H 164.661 -1.83748 -0.483398 0
M  V30 1771 H 162.811 -2.67237 -2.81987 0
M  V30 1772 H 164.483 -4.51045 -0.967256 0
M  V30 1773 H 162.726 -4.25558 -0.841615 0
M  V30 1774 H 163.397 -5.02609 -2.28229 0
M  V30 1775 H 165.873 -3.14944 -2.71937 0
M  V30 1776 H 164.749 -3.85072 -3.91166 0
M  V30 1777 H 165.01 -2.11391 -3.88287 0
M  V30 1778 N 164.069 0.697108 -1.41344 0
M  V30 1779 C 165.032 1.79281 -1.42797 0
M  V30 1780 C 166.032 1.57607 -0.318837 0
M  V30 1781 O 167.222 1.64309 -0.578642 0
M  V30 1782 C 164.354 3.17632 -1.23785 0
M  V30 1783 H 165.547 1.79385 -2.40335 0
M  V30 1784 H 163.1 0.904582 -1.27464 0
M  V30 1785 H 163.835 3.23167 -0.270814 0
M  V30 1786 H 163.62 3.34765 -2.04144 0
M  V30 1787 H 165.11 3.97617 -1.27633 0
M  V30 1788 N 165.547 1.27147 0.931209 0
M  V30 1789 C 166.497 1.06227 2.01742 0
M  V30 1790 C 167.481 -0.00859065 1.60898 0
M  V30 1791 O 168.673 0.209537 1.75755 0
M  V30 1792 C 165.802 0.707787 3.35924 0
M  V30 1793 C 164.888 1.81661 3.83223 0
M  V30 1794 N 165.279 3.05564 4.03069 0
M  V30 1795 C 163.577 1.70249 4.12227 0
M  V30 1796 C 164.278 3.77697 4.42403 0
M  V30 1797 N 163.254 3.0544 4.49675 0
M  V30 1798 H 167.056 2.00261 2.15111 0
M  V30 1799 H 164.57 1.1781 1.11779 0
M  V30 1800 H 166.567 0.539043 4.134 0
M  V30 1801 H 165.227 -0.224964 3.2392 0
M  V30 1802 H 166.238 3.41363 3.89476 0
M  V30 1803 H 162.915 0.840329 4.08956 0
M  V30 1804 H 164.305 4.84168 4.65866 0
M  V30 1805 N 167.025 -1.13721 1.09112 0
M  V30 1806 C 168.25 -1.89314 0.847053 0
M  V30 1807 C 168.675 -1.78416 -0.595774 0
M  V30 1808 O 168.033 -1.12942 -1.41823 0
M  V30 1809 C 168.081 -3.3701 1.28284 0
M  V30 1810 O 167.185 -4.10054 0.439267 0
M  V30 1811 H 166.526 -0.588745 0.307044 0
M  V30 1812 H 169.056 -1.43902 1.45442 0
M  V30 1813 H 169.066 -3.87834 1.26683 0
M  V30 1814 H 167.741 -3.4426 2.33363 0
M  V30 1815 H 166.318 -3.69266 0.519312 0
M  V30 1816 N 168.503 -0.877838 -1.30888 0
M  V30 1817 C 169.914 -0.544193 -1.78593 0
M  V30 1818 C 170.265 0.939301 -1.72254 0
M  V30 1819 O 169.39 1.7337 -1.29505 0
M  V30 1820 C 169.985 -0.98105 -3.24285 0
M  V30 1821 C 168.544 -0.698935 -3.69854 0
M  V30 1822 C 167.691 -1.168 -2.51502 0
M  V30 1823 H 170.642 -1.06278 -1.17859 0
M  V30 1824 H 170.663 -0.307009 -3.79259 0
M  V30 1825 H 170.175 -2.06079 -3.28866 0
M  V30 1826 H 168.276 0.369112 -3.70767 0
M  V30 1827 H 168.389 -1.28148 -4.61644 0
M  V30 1828 H 166.753 -0.587535 -2.47831 0
M  V30 1829 H 167.536 -2.25533 -2.58824 0
M  V30 1830 N 169.982 1.44106 -0.638065 0
M  V30 1831 C 171.228 2.02815 -0.15409 0
M  V30 1832 C 171.583 1.49342 1.21304 0
M  V30 1833 O 170.876 0.670699 1.79478 0
M  V30 1834 C 171.07 3.5729 -0.0887327 0
M  V30 1835 C 170.899 4.2575 -1.44799 0
M  V30 1836 C 169.669 4.62443 -2.03653 0
M  V30 1837 C 171.867 4.55746 -2.38327 0
M  V30 1838 N 169.849 5.15903 -3.32741 0
M  V30 1839 C 171.22 5.10364 -3.52036 0
M  V30 1840 C 173.275 4.37703 -2.3732 0
M  V30 1841 C 171.978 5.48837 -4.64941 0
M  V30 1842 C 174.004 4.77229 -3.49294 0
M  V30 1843 C 173.366 5.31966 -4.61726 0
M  V30 1844 H 169.465 0.775519 -0.100466 0
M  V30 1845 H 172.049 1.755 -0.843071 0
M  V30 1846 H 170.22 3.84201 0.569548 0
M  V30 1847 H 171.952 4.02671 0.404711 0
M  V30 1848 H 168.707 4.46987 -1.56523 0
M  V30 1849 H 169.131 5.47102 -3.98758 0
M  V30 1850 H 173.773 3.94671 -1.51641 0
M  V30 1851 H 171.491 5.9082 -5.51323 0
M  V30 1852 H 175.077 4.64976 -3.49698 0
M  V30 1853 H 173.957 5.61986 -5.46939 0
M  V30 1854 N 171.46 0.379036 1.52974 0
M  V30 1855 C 172.39 -0.452706 2.29069 0
M  V30 1856 C 173.371 -1.07237 1.32039 0
M  V30 1857 O 174.556 -1.08708 1.60923 0
M  V30 1858 C 171.686 -1.5856 3.08992 0
M  V30 1859 C 170.64 -1.0925 4.13822 0
M  V30 1860 C 169.966 -2.31668 4.81907 0
M  V30 1861 C 171.266 -0.167702 5.22031 0
M  V30 1862 H 172.96 0.182181 2.98845 0
M  V30 1863 H 170.506 0.0890592 1.43724 0
M  V30 1864 H 172.459 -2.1742 3.6098 0
M  V30 1865 H 171.183 -2.24792 2.36931 0
M  V30 1866 H 169.842 -0.526494 3.628 0
M  V30 1867 H 169.49 -2.96386 4.06404 0
M  V30 1868 H 169.19 -1.9934 5.52754 0
M  V30 1869 H 170.714 -2.91189 5.36695 0
M  V30 1870 H 172.128 -0.664186 5.6944 0
M  V30 1871 H 170.525 0.0653265 6.00064 0
M  V30 1872 H 171.595 0.786347 4.78482 0
M  V30 1873 N 172.938 -1.57226 0.108567 0
M  V30 1874 C 173.885 -2.14756 -0.845481 0
M  V30 1875 C 174.855 -1.06971 -1.27068 0
M  V30 1876 O 176.04 -1.34827 -1.35005 0
M  V30 1877 C 173.18 -2.74298 -2.09415 0
M  V30 1878 C 172.293 -3.96358 -1.71826 0
M  V30 1879 C 171.428 -4.44021 -2.9158 0
M  V30 1880 C 170.467 -5.58637 -2.50181 0
M  V30 1881 N 169.604 -6.01091 -3.62814 0
M  V30 1882 H 174.444 -2.95961 -0.348035 0
M  V30 1883 H 171.981 -1.46226 -0.160106 0
M  V30 1884 H 173.939 -3.06945 -2.82561 0
M  V30 1885 H 172.569 -1.95801 -2.56636 0
M  V30 1886 H 171.621 -3.69939 -0.885947 0
M  V30 1887 H 172.933 -4.79504 -1.37394 0
M  V30 1888 H 172.087 -4.78522 -3.72963 0
M  V30 1889 H 170.826 -3.59803 -3.29231 0
M  V30 1890 H 169.831 -5.23751 -1.67228 0
M  V30 1891 H 171.056 -6.44613 -2.13659 0
M  V30 1892 H 169.002 -5.19817 -4.00158 0
M  V30 1893 H 168.919 -6.79066 -3.32273 0
M  V30 1894 H 170.187 -6.40227 -4.44668 0
M  V30 1895 N 174.416 0.165178 -1.56732 0
M  V30 1896 C 175.693 0.908443 -1.73224 0
M  V30 1897 C 176.073 2.0013 -0.67165 0
M  V30 1898 O 175.421 2.26353 0.31253 0
M  V30 1899 C 175.631 1.46756 -3.16644 0
M  V30 1900 C 176.979 1.93809 -3.77787 0
M  V30 1901 O 178.003 1.56537 -3.1996 0
M  V30 1902 O 176.862 2.62486 -4.79336 0
M  V30 1903 H 173.956 0.428025 -0.707618 0
M  V30 1904 H 176.502 0.152526 -1.69013 0
M  V30 1905 H 175.274 0.68129 -3.85323 0
M  V30 1906 H 174.897 2.28749 -3.25207 0
M  V30 1907 N 175.894 1.51508 0.433938 0
M  V30 1908 C 177.119 1.68443 1.21003 0
M  V30 1909 C 177.544 0.382636 1.84167 0
M  V30 1910 O 176.902 -0.65755 1.68956 0
M  V30 1911 C 176.95 2.80405 2.26727 0
M  V30 1912 O 176.054 2.44245 3.32292 0
M  V30 1913 H 175.395 0.561536 0.354363 0
M  V30 1914 H 177.925 1.9809 0.512024 0
M  V30 1915 H 177.935 3.0459 2.71457 0
M  V30 1916 H 176.61 3.74867 1.80132 0
M  V30 1917 H 175.187 2.30644 2.93015 0
M  V30 1918 N 177.372 -0.689602 1.41712 0
M  V30 1919 C 178.302 -1.81577 1.46806 0
M  V30 1920 C 179.283 -1.66945 0.326105 0
M  V30 1921 O 180.468 -1.86588 0.538377 0
M  V30 1922 C 177.598 -3.19762 1.35535 0
M  V30 1923 C 176.552 -3.49107 2.47605 0
M  V30 1924 C 175.878 -4.86711 2.21397 0
M  V30 1925 C 177.178 -3.47483 3.89939 0
M  V30 1926 H 178.872 -1.7757 2.41058 0
M  V30 1927 H 176.418 -0.852887 1.16025 0
M  V30 1928 H 178.371 -3.98263 1.3771 0
M  V30 1929 H 177.095 -3.24409 0.377708 0
M  V30 1930 H 175.754 -2.72959 2.44722 0
M  V30 1931 H 175.402 -4.8799 1.21961 0
M  V30 1932 H 175.102 -5.0731 2.96497 0
M  V30 1933 H 176.626 -5.67515 2.25297 0
M  V30 1934 H 178.04 -4.1598 3.94505 0
M  V30 1935 H 176.437 -3.79615 4.64771 0
M  V30 1936 H 177.507 -2.46341 4.17665 0
M  V30 1937 N 178.85 -1.27639 -0.924453 0
M  V30 1938 C 180.075 -1.17101 -1.71179 0
M  V30 1939 C 180.5 0.268134 -1.86179 0
M  V30 1940 O 179.858 1.19415 -1.36418 0
M  V30 1941 C 179.906 -1.86313 -3.08739 0
M  V30 1942 O 179.01 -1.16331 -3.95652 0
M  V30 1943 H 178.351 -0.407091 -0.524569 0
M  V30 1944 H 180.881 -1.68767 -1.15666 0
M  V30 1945 H 180.891 -1.938 -3.59034 0
M  V30 1946 H 179.566 -2.91001 -2.97138 0
M  V30 1947 H 178.143 -1.16935 -3.54091 0
M  V30 1948 N 180.328 1.1314 -1.09713 0
M  V30 1949 C 181.744 1.36477 -0.827423 0
M  V30 1950 C 181.944 1.93654 0.556817 0
M  V30 1951 O 181 2.15791 1.31112 0
M  V30 1952 C 182.313 2.31334 -1.92106 0
M  V30 1953 C 183.861 2.44943 -1.94864 0
M  V30 1954 C 184.336 3.4311 -3.0338 0
M  V30 1955 N 185.827 3.50662 -3.02639 0
M  V30 1956 C 186.562 4.2651 -3.83246 0
M  V30 1957 N 186.058 5.05485 -4.73768 0
M  V30 1958 N 187.851 4.2184 -3.71493 0
M  V30 1959 H 180.002 0.743807 -1.9895 0
M  V30 1960 H 182.265 0.389823 -0.864143 0
M  V30 1961 H 181.971 1.96483 -2.91698 0
M  V30 1962 H 181.845 3.31381 -1.80184 0
M  V30 1963 H 184.232 2.79079 -0.959099 0
M  V30 1964 H 184.313 1.4481 -2.10864 0
M  V30 1965 H 183.957 3.09704 -4.02549 0
M  V30 1966 H 183.887 4.43055 -2.84622 0
M  V30 1967 H 186.378 2.94315 -2.37039 0
M  V30 1968 H 186.691 5.60675 -5.3185 0
M  V30 1969 H 185.036 5.04708 -4.77802 0
M  V30 1970 H 188.227 3.5922 -3.00131 0
M  V30 1971 H 188.4 4.80697 -4.3455 0
M  V30 1972 N 181.806 0.884767 1.30421 0
M  V30 1973 C 183.034 0.518044 2.0031 0
M  V30 1974 C 183.449 -0.893408 1.66324 0
M  V30 1975 O 182.806 -1.5875 0.900262 0
M  V30 1976 C 182.857 0.682997 3.54989 0
M  V30 1977 O 182.578 2.03888 3.87764 0
M  V30 1978 C 184.079 0.31924 4.42149 0
M  V30 1979 H 181.299 0.200265 0.640418 0
M  V30 1980 H 183.843 1.19001 1.6631 0
M  V30 1981 H 181.998 0.0584052 3.87356 0
M  V30 1982 H 182.412 2.05735 4.82466 0
M  V30 1983 H 183.886 0.485555 5.4986 0
M  V30 1984 H 184.363 -0.742717 4.32875 0
M  V30 1985 H 184.969 0.920147 4.15227 0
M  V30 1986 N 183.284 -1.43765 0.645699 0
M  V30 1987 C 184.512 -2.06253 0.163556 0
M  V30 1988 C 184.927 -1.48352 -1.16778 0
M  V30 1989 O 184.284 -0.611932 -1.71935 0
M  V30 1990 C 184.335 -3.61453 0.0583186 0
M  V30 1991 O 184.056 -4.172 1.33702 0
M  V30 1992 C 185.557 -4.41002 -0.450795 0
M  V30 1993 H 182.777 -0.665413 0.0864077 0
M  V30 1994 H 185.321 -1.84396 0.884222 0
M  V30 1995 H 183.476 -3.82522 -0.612865 0
M  V30 1996 H 183.89 -5.10791 1.19131 0
M  V30 1997 H 185.364 -5.49966 -0.473403 0
M  V30 1998 H 185.841 -4.13488 -1.48068 0
M  V30 1999 H 186.447 -4.24886 0.187637 0
M  V30 2000 N 184.763 -0.387143 -1.52771 0
M  V30 2001 C 185.711 0.463953 -2.27926 0
M  V30 2002 C 186.705 1.06493 -1.31741 0
M  V30 2003 O 187.911 1.00565 -1.49287 0
M  V30 2004 H 184.286 0.16837 -0.732909 0
M  V30 2005 H 186.257 -0.19141 -2.97785 0
M  V30 2006 C 185.006 1.5803 -3.09713 0
M  V30 2007 H 184.329 1.12718 -3.83581 0
M  V30 2008 H 185.769 2.15008 -3.65442 0
M  V30 2009 C 184.228 2.53509 -2.2189 0
M  V30 2010 O 184.758 3.56863 -1.84422 0
M  V30 2011 N 182.964 2.23199 -1.86093 0
M  V30 2012 H 182.511 1.39185 -2.16761 0
M  V30 2013 H 182.469 2.87333 -1.27621 0
M  V30 2014 N 186.241 1.57166 -0.116904 0
M  V30 2015 C 187.49 1.94298 0.541407 0
M  V30 2016 C 187.803 1.00236 1.67964 0
M  V30 2017 O 189.009 1.26826 2.40057 0
M  V30 2018 C 187.465 3.45306 1.01449 0
M  V30 2019 C 187.073 4.47899 -0.0951738 0
M  V30 2020 C 188.817 3.91361 1.6443 0
M  V30 2021 C 186.724 5.90083 0.394491 0
M  V30 2022 H 185.654 0.725308 0.206019 0
M  V30 2023 H 188.305 1.82446 -0.196419 0
M  V30 2024 H 186.687 3.52385 1.80667 0
M  V30 2025 H 187.861 4.52486 -0.871374 0
M  V30 2026 H 186.176 4.11583 -0.631505 0
M  V30 2027 H 188.773 4.95004 2.02176 0
M  V30 2028 H 189.116 3.3122 2.52189 0
M  V30 2029 H 189.649 3.87073 0.917559 0
M  V30 2030 H 186.388 6.53974 -0.447004 0
M  V30 2031 H 185.908 5.88921 1.13722 0
M  V30 2032 H 187.587 6.41307 0.856399 0
M  V30 2033 N 187.719 -0.156864 1.56817 0
M  V30 2034 C 188.651 -1.21883 1.94106 0
M  V30 2035 C 189.664 -1.3971 0.835754 0
M  V30 2036 O 190.853 -1.39457 1.11418 0
M  V30 2037 C 187.953 -2.58527 2.19127 0
M  V30 2038 C 187.126 -2.61809 3.50393 0
M  V30 2039 C 186.185 -3.7992 3.64071 0
M  V30 2040 O 185.211 -3.65249 4.36557 0
M  V30 2041 N 186.413 -4.96973 2.99997 0
M  V30 2042 H 189.178 -0.901974 2.85805 0
M  V30 2043 H 186.739 -0.346513 1.58148 0
M  V30 2044 H 188.731 -3.36034 2.25529 0
M  V30 2045 H 187.301 -2.82545 1.33742 0
M  V30 2046 H 186.521 -1.7029 3.5552 0
M  V30 2047 H 187.809 -2.61024 4.36742 0
M  V30 2048 H 187.207 -5.11794 2.41004 0
M  V30 2049 H 185.764 -5.7229 3.11974 0
M  V30 2050 N 189.197 -1.51736 -0.425897 0
M  V30 2051 C 190.445 -1.64644 -1.17204 0
M  V30 2052 C 190.766 -0.370486 -1.91448 0
M  V30 2053 O 190.036 0.614088 -1.86026 0
M  V30 2054 H 188.616 -0.606819 -0.435638 0
M  V30 2055 H 191.278 -1.88713 -0.487177 0
M  V30 2056 H 190.374 -2.47958 -1.89534 0
M  V30 2057 N 190.675 0.682077 -1.42076 0
M  V30 2058 C 191.924 1.43786 -1.41451 0
M  V30 2059 C 192.237 1.95574 -0.0317074 0
M  V30 2060 O 193.443 2.71326 0.0971462 0
M  V30 2061 C 191.899 2.60071 -2.48779 0
M  V30 2062 C 191.507 2.15013 -3.93031 0
M  V30 2063 C 193.251 3.37626 -2.57311 0
M  V30 2064 C 191.158 3.28336 -4.91883 0
M  V30 2065 H 190.088 0.540143 -0.526082 0
M  V30 2066 H 192.739 0.739157 -1.67955 0
M  V30 2067 H 191.121 3.32275 -2.15429 0
M  V30 2068 H 192.295 1.5001 -4.35699 0
M  V30 2069 H 190.61 1.50416 -3.88284 0
M  V30 2070 H 193.207 4.22012 -3.28345 0
M  V30 2071 H 193.55 3.83727 -1.61429 0
M  V30 2072 H 194.083 2.72488 -2.89819 0
M  V30 2073 H 190.822 2.87234 -5.89217 0
M  V30 2074 H 190.342 3.92145 -4.53853 0
M  V30 2075 H 192.021 3.93913 -5.13265 0
M  V30 2076 N 192.153 1.28127 0.917671 0
M  V30 2077 C 193.101 1.11569 2.04096 0
M  V30 2078 C 194.095 0.0360242 1.69362 0
M  V30 2079 O 195.301 0.194501 1.78946 0
M  V30 2080 H 191.676 0.344097 0.668656 0
M  V30 2081 H 193.647 2.06711 2.15205 0
M  V30 2082 C 192.396 0.790197 3.38602 0
M  V30 2083 H 191.719 1.61293 3.6582 0
M  V30 2084 H 193.159 0.714271 4.1794 0
M  V30 2085 C 191.618 -0.505897 3.3308 0
M  V30 2086 O 192.148 -1.53736 3.71117 0
M  V30 2087 N 190.354 -0.505193 2.86175 0
M  V30 2088 H 189.901 0.334621 2.55417 0
M  V30 2089 H 189.859 -1.37243 2.82863 0
M  V30 2090 N 193.631 -1.12557 1.10312 0
M  V30 2091 C 194.561 -2.20341 0.772798 0
M  V30 2092 C 195.542 -1.68198 -0.25365 0
M  V30 2093 O 196.727 -1.93831 -0.119699 0
M  V30 2094 C 193.857 -3.46709 0.202443 0
M  V30 2095 C 192.811 -4.11996 1.15943 0
M  V30 2096 C 192.137 -5.328 0.450345 0
M  V30 2097 C 193.437 -4.5828 2.50552 0
M  V30 2098 H 195.131 -2.48229 1.674 0
M  V30 2099 H 192.677 -1.19308 0.806326 0
M  V30 2100 H 194.63 -4.2138 -0.0407752 0
M  V30 2101 H 193.354 -3.18245 -0.734001 0
M  V30 2102 H 192.013 -3.39305 1.38808 0
M  V30 2103 H 191.661 -5.00602 -0.490531 0
M  V30 2104 H 191.361 -5.7743 1.08851 0
M  V30 2105 H 192.885 -6.10219 0.215642 0
M  V30 2106 H 194.299 -5.2433 2.31843 0
M  V30 2107 H 192.696 -5.13683 3.10242 0
M  V30 2108 H 193.766 -3.72329 3.10643 0
M  V30 2109 N 195.109 -0.891671 -1.2995 0
M  V30 2110 C 196.039 -0.379797 -2.30391 0
M  V30 2111 C 197.02 0.540919 -1.6127 0
M  V30 2112 O 198.205 0.453352 -1.88834 0
M  V30 2113 C 195.335 0.400654 -3.44981 0
M  V30 2114 C 194.289 -0.428905 -4.25846 0
M  V30 2115 C 193.615 0.478557 -5.32554 0
M  V30 2116 C 194.915 -1.67458 -4.94727 0
M  V30 2117 H 196.609 -1.21914 -2.73454 0
M  V30 2118 H 194.155 -0.587675 -1.31462 0
M  V30 2119 H 196.108 0.769434 -4.14316 0
M  V30 2120 H 194.832 1.27371 -3.0074 0
M  V30 2121 H 193.491 -0.779911 -3.58208 0
M  V30 2122 H 193.139 1.34951 -4.84559 0
M  V30 2123 H 192.839 -0.0727433 -5.87555 0
M  V30 2124 H 194.363 0.843705 -6.04743 0
M  V30 2125 H 195.777 -1.376 -5.56542 0
M  V30 2126 H 194.174 -2.16659 -5.59624 0
M  V30 2127 H 195.244 -2.41518 -4.20473 0
M  V30 2128 N 196.587 1.43421 -0.653314 0
M  V30 2129 C 197.834 2.01812 -0.166745 0
M  V30 2130 C 198.162 1.51535 1.21931 0
M  V30 2131 O 197.417 0.698975 1.82792 0
M  V30 2132 C 197.716 3.57176 -0.126623 0
M  V30 2133 C 197.382 4.26798 -1.45444 0
M  V30 2134 C 196.044 4.45534 -1.81805 0
M  V30 2135 C 198.396 4.66225 -2.32989 0
M  V30 2136 C 195.724 5.00961 -3.05377 0
M  V30 2137 C 198.076 5.23021 -3.55853 0
M  V30 2138 C 196.74 5.39973 -3.9241 0
M  V30 2139 H 196.01 0.738484 -0.0610162 0
M  V30 2140 H 198.657 1.71896 -0.84404 0
M  V30 2141 H 196.962 3.86634 0.634123 0
M  V30 2142 H 198.659 4.00112 0.266723 0
M  V30 2143 H 195.249 4.12561 -1.16153 0
M  V30 2144 H 199.433 4.51443 -2.06187 0
M  V30 2145 H 194.689 5.12271 -3.3375 0
M  V30 2146 H 198.863 5.52518 -4.23907 0
M  V30 2147 H 196.49 5.82687 -4.88242 0
M  V30 2148 N 198.065 0.39524 1.52563 0
M  V30 2149 C 199.29 -0.187456 2.06551 0
M  V30 2150 C 199.715 -1.39249 1.26457 0
M  V30 2151 O 199.073 -1.78947 0.291151 0
M  V30 2152 C 199.121 -0.529985 3.56684 0
M  V30 2153 O 198.225 -1.62307 3.79118 0
M  V30 2154 H 197.566 -0.0202537 0.663691 0
M  V30 2155 H 200.096 0.564426 1.96661 0
M  V30 2156 H 200.106 -0.792598 4.00227 0
M  V30 2157 H 198.781 0.350987 4.14416 0
M  V30 2158 H 197.358 -1.3537 3.47461 0
M  V30 2159 N 199.544 -1.57102 0.125237 0
M  V30 2160 C 200.769 -2.0019 -0.542101 0
M  V30 2161 C 201.194 -1.00449 -1.59034 0
M  V30 2162 O 200.552 0.0229423 -1.81285 0
M  V30 2163 C 200.6 -3.42129 -1.13929 0
M  V30 2164 O 199.704 -3.45307 -2.2547 0
M  V30 2165 H 199.045 -0.650171 -0.134812 0
M  V30 2166 H 201.575 -2.03461 0.215553 0
M  V30 2167 H 201.585 -3.80471 -1.4733 0
M  V30 2168 H 200.26 -4.14237 -0.371531 0
M  V30 2169 H 198.837 -3.1879 -1.93462 0
M  V30 2170 N 201.022 0.148545 -1.56898 0
M  V30 2171 C 202.438 0.501131 -1.51528 0
M  V30 2172 C 202.638 1.83458 -0.833399 0
M  V30 2173 O 201.694 2.49259 -0.40328 0
M  V30 2174 C 203.007 0.512864 -2.96294 0
M  V30 2175 C 204.555 0.598487 -3.07225 0
M  V30 2176 C 205.03 0.640897 -4.53494 0
M  V30 2177 N 206.521 0.703163 -4.57832 0
M  V30 2178 C 207.256 0.756935 -5.68382 0
M  V30 2179 N 206.752 0.770147 -6.88506 0
M  V30 2180 N 208.545 0.797698 -5.56411 0
M  V30 2181 H 200.696 -0.725532 -1.99624 0
M  V30 2182 H 202.959 -0.264358 -0.910395 0
M  V30 2183 H 202.665 -0.398691 -3.49433 0
M  V30 2184 H 202.539 1.35133 -3.52163 0
M  V30 2185 H 204.926 1.50046 -2.54106 0
M  V30 2186 H 205.007 -0.267093 -2.54402 0
M  V30 2187 H 204.651 -0.256915 -5.0725 0
M  V30 2188 H 204.581 1.52295 -5.04097 0
M  V30 2189 H 207.072 0.700314 -3.71354 0
M  V30 2190 H 207.385 0.812983 -7.68512 0
M  V30 2191 H 205.73 0.738049 -6.9107 0
M  V30 2192 H 208.921 0.784535 -4.61479 0
M  V30 2193 H 209.094 0.83614 -6.42583 0
M  V30 2194 N 202.5 1.5196 0.417844 0
M  V30 2195 C 203.916 1.40569 0.755816 0
M  V30 2196 C 204.116 0.503316 1.95113 0
M  V30 2197 O 203.172 -0.0341925 2.52477 0
M  V30 2198 C 204.485 2.82947 1.01791 0
M  V30 2199 C 206.033 2.92231 1.12116 0
M  V30 2200 C 206.508 4.35559 1.41608 0
M  V30 2201 N 207.999 4.38753 1.48491 0
M  V30 2202 C 208.734 5.46705 1.7292 0
M  V30 2203 N 208.23 6.64788 1.95011 0
M  V30 2204 N 210.023 5.34209 1.74863 0
M  V30 2205 H 202.174 2.09168 -0.369098 0
M  V30 2206 H 204.437 0.942409 -0.102809 0
M  V30 2207 H 204.143 3.5106 0.212081 0
M  V30 2208 H 204.017 3.23462 1.94042 0
M  V30 2209 H 206.404 2.24304 1.9176 0
M  V30 2210 H 206.485 2.55185 0.177225 0
M  V30 2211 H 206.129 5.04042 0.624848 0
M  V30 2212 H 206.059 4.70133 2.37239 0
M  V30 2213 H 208.55 3.5363 1.33244 0
M  V30 2214 H 208.863 7.42845 2.13076 0
M  V30 2215 H 207.208 6.67869 1.92293 0
M  V30 2216 H 210.399 4.40937 1.57137 0
M  V30 2217 H 210.572 6.18415 1.93563 0
M  V30 2218 N 203.978 -0.674533 1.42435 0
M  V30 2219 C 205.226 -1.43175 1.42637 0
M  V30 2220 C 205.547 -1.94951 0.0438992 0
M  V30 2221 O 204.817 -1.7308 -0.917607 0
M  V30 2222 H 203.397 -0.531307 0.525092 0
M  V30 2223 H 206.059 -0.797006 1.77859 0
M  V30 2224 H 205.155 -2.28463 2.12629 0
M  V30 2225 N 205.456 -1.28612 -0.910864 0
M  V30 2226 C 206.406 -1.09423 -2.00026 0
M  V30 2227 C 207.39 -0.0170079 -1.60891 0
M  V30 2228 O 208.582 -0.237472 -1.754 0
M  V30 2229 C 205.711 -0.76114 -3.34756 0
M  V30 2230 C 204.797 -1.87735 -3.80285 0
M  V30 2231 N 205.188 -3.11938 -3.98156 0
M  V30 2232 C 203.486 -1.76786 -4.09467 0
M  V30 2233 C 204.187 -3.84687 -4.36338 0
M  V30 2234 N 203.163 -3.12555 -4.44759 0
M  V30 2235 H 206.965 -2.03658 -2.11898 0
M  V30 2236 H 204.479 -1.19573 -1.09891 0
M  V30 2237 H 206.476 -0.604743 -4.12491 0
M  V30 2238 H 205.136 0.173403 -3.24237 0
M  V30 2239 H 206.147 -3.47516 -3.83996 0
M  V30 2240 H 202.824 -0.905284 -4.07567 0
M  V30 2241 H 204.214 -4.91518 -4.58104 0
M  V30 2242 N 206.934 1.1197 -1.10907 0
M  V30 2243 C 207.864 2.19928 -0.784473 0
M  V30 2244 C 208.845 1.6833 0.244726 0
M  V30 2245 O 210.03 1.93892 0.109418 0
M  V30 2246 C 207.16 3.46597 -0.220827 0
M  V30 2247 C 206.114 4.11376 -1.18127 0
M  V30 2248 C 205.44 5.32554 -0.478594 0
M  V30 2249 C 206.74 4.56945 -2.52979 0
M  V30 2250 H 208.434 2.47337 -1.68715 0
M  V30 2251 H 205.98 1.18879 -0.812642 0
M  V30 2252 H 207.933 4.21396 0.0184278 0
M  V30 2253 H 206.657 3.1863 0.717113 0
M  V30 2254 H 205.316 3.38564 -1.40606 0
M  V30 2255 H 204.964 5.00856 0.463976 0
M  V30 2256 H 204.664 5.76844 -1.11912 0
M  V30 2257 H 206.188 6.10096 -0.248 0
M  V30 2258 H 207.602 5.23093 -2.3462 0
M  V30 2259 H 205.999 5.1203 -3.12962 0
M  V30 2260 H 207.069 3.70676 -3.12614 0
M  V30 2261 N 208.412 0.89855 1.29475 0
M  V30 2262 C 209.659 0.523882 1.95606 0
M  V30 2263 C 209.987 -0.929608 1.70847 0
M  V30 2264 O 209.242 -1.67401 1.01367 0
M  V30 2265 C 209.541 0.761398 3.49195 0
M  V30 2266 C 209.207 2.19207 3.94029 0
M  V30 2267 C 207.869 2.58326 4.05982 0
M  V30 2268 C 210.221 3.12379 4.17216 0
M  V30 2269 C 207.549 3.898 4.38489 0
M  V30 2270 C 209.901 4.43401 4.51197 0
M  V30 2271 C 208.565 4.82394 4.61359 0
M  V30 2272 H 207.835 0.191702 0.715773 0
M  V30 2273 H 210.482 1.13699 1.54094 0
M  V30 2274 H 208.787 0.0653622 3.91745 0
M  V30 2275 H 210.484 0.450904 3.98457 0
M  V30 2276 H 207.074 1.87846 3.85242 0
M  V30 2277 H 211.258 2.83371 4.07449 0
M  V30 2278 H 206.514 4.19734 4.44559 0
M  V30 2279 H 210.688 5.15623 4.68087 0
M  V30 2280 H 208.315 5.84306 4.86303 0
M  V30 2281 N 209.89 -1.43072 0.660911 0
M  V30 2282 C 210.82 -2.33497 -0.0122829 0
M  V30 2283 C 211.801 -1.49903 -0.803925 0
M  V30 2284 O 212.986 -1.78546 -0.763864 0
M  V30 2285 C 210.116 -3.33363 -0.973994 0
M  V30 2286 C 209.07 -4.27003 -0.291928 0
M  V30 2287 C 208.396 -5.16967 -1.36562 0
M  V30 2288 C 209.696 -5.15816 0.820462 0
M  V30 2289 H 211.39 -2.90038 0.742873 0
M  V30 2290 H 208.936 -1.39461 0.358688 0
M  V30 2291 H 210.889 -3.95524 -1.45392 0
M  V30 2292 H 209.613 -2.75095 -1.7604 0
M  V30 2293 H 208.272 -3.66217 0.167623 0
M  V30 2294 H 207.92 -4.55034 -2.14366 0
M  V30 2295 H 207.62 -5.80441 -0.914454 0
M  V30 2296 H 209.144 -5.82003 -1.84675 0
M  V30 2297 H 210.558 -5.71742 0.422366 0
M  V30 2298 H 208.955 -5.8805 1.19656 0
M  V30 2299 H 210.025 -4.55045 1.67518 0
M  V30 2300 N 211.368 -0.403325 -1.52352 0
M  V30 2301 C 212.3 0.4603 -2.2453 0
M  V30 2302 C 213.313 1.01505 -1.27282 0
M  V30 2303 O 214.502 0.914982 -1.53266 0
M  V30 2304 C 211.602 1.65208 -2.95905 0
M  V30 2305 C 210.775 1.22224 -4.19976 0
M  V30 2306 C 209.834 2.28028 -4.74226 0
M  V30 2307 O 208.86 1.88857 -5.36956 0
M  V30 2308 N 210.062 3.6012 -4.55295 0
M  V30 2309 H 212.827 -0.158156 -2.99282 0
M  V30 2310 H 210.388 -0.230402 -1.60252 0
M  V30 2311 H 212.38 2.35541 -3.29093 0
M  V30 2312 H 210.95 2.17658 -2.24374 0
M  V30 2313 H 210.17 0.34725 -3.92668 0
M  V30 2314 H 211.458 0.911924 -5.00561 0
M  V30 2315 H 210.856 3.94698 -4.05253 0
M  V30 2316 H 209.413 4.26447 -4.92936 0
M  V30 2317 N 212.846 1.57033 -0.133567 0
M  V30 2318 C 214.074 2.00044 0.528195 0
M  V30 2319 C 214.489 1.01349 1.59291 0
M  V30 2320 O 213.846 0.00848369 1.82498 0
M  V30 2321 C 213.897 3.43018 1.1411 0
M  V30 2322 O 213.618 4.37939 0.11892 0
M  V30 2323 C 215.119 4.01237 1.88477 0
M  V30 2324 H 212.339 0.656517 0.138661 0
M  V30 2325 H 214.883 2.03267 -0.224196 0
M  V30 2326 H 213.038 3.40688 1.84418 0
M  V30 2327 H 213.452 5.21436 0.56613 0
M  V30 2328 H 214.926 5.03314 2.26669 0
M  V30 2329 H 215.403 3.41193 2.76558 0
M  V30 2330 H 216.009 4.07156 1.22898 0
M  V30 2331 N 214.325 -0.140222 1.56975 0
M  V30 2332 C 215.602 -0.880769 1.74648 0
M  V30 2333 C 215.982 -1.99036 0.703404 0
M  V30 2334 O 215.33 -2.26821 -0.27648 0
M  V30 2335 C 215.54 -1.417 3.18939 0
M  V30 2336 C 216.888 -1.87774 3.80823 0
M  V30 2337 O 217.912 -1.51427 3.2241 0
M  V30 2338 O 216.771 -2.54827 4.83452 0
M  V30 2339 H 213.865 -0.416713 0.714338 0
M  V30 2340 H 216.411 -0.125618 1.69234 0
M  V30 2341 H 215.183 -0.619902 3.86359 0
M  V30 2342 H 214.806 -2.23546 3.28805 0
M  V30 2343 N 215.803 -1.52179 -0.40978 0
M  V30 2344 C 216.735 -1.71703 -1.51825 0
M  V30 2345 C 217.748 -0.597445 -1.51441 0
M  V30 2346 O 218.937 -0.872582 -1.55719 0
M  V30 2347 C 216.037 -1.74171 -2.90719 0
M  V30 2348 C 215.21 -3.03156 -3.15302 0
M  V30 2349 C 214.269 -2.97445 -4.34065 0
M  V30 2350 O 213.295 -3.71352 -4.31377 0
M  V30 2351 N 214.497 -2.15191 -5.39141 0
M  V30 2352 H 217.262 -2.67334 -1.35472 0
M  V30 2353 H 214.823 -1.50409 -0.599069 0
M  V30 2354 H 216.815 -1.67884 -3.68235 0
M  V30 2355 H 215.385 -0.860166 -3.00533 0
M  V30 2356 H 214.605 -3.23097 -2.25836 0
M  V30 2357 H 215.893 -3.88484 -3.28569 0
M  V30 2358 H 215.291 -1.54573 -5.44173 0
M  V30 2359 H 213.848 -2.1476 -6.15403 0
M  V30 2360 N 217.281 0.66697 -1.42791 0
M  V30 2361 C 218.692 1.2478 -1.38877 0
M  V30 2362 C 219.043 1.96012 -0.0859426 0
M  V30 2363 O 218.168 2.00463 0.815081 0
M  V30 2364 C 218.763 2.26938 -2.51564 0
M  V30 2365 C 217.322 2.80529 -2.50959 0
M  V30 2366 C 216.469 1.54965 -2.29959 0
M  V30 2367 H 219.42 0.459853 -1.51892 0
M  V30 2368 H 219.441 3.08834 -2.22265 0
M  V30 2369 H 218.953 1.75065 -3.46372 0
M  V30 2370 H 217.054 3.36502 -1.59991 0
M  V30 2371 H 217.167 3.29012 -3.48265 0
M  V30 2372 H 215.531 1.81817 -1.78366 0
M  V30 2373 H 216.314 1.05047 -3.26833 0
M  V30 2374 N 218.759 1.29093 0.90403 0
M  V30 2375 C 220.008 1.16187 1.64874 0
M  V30 2376 C 220.321 -0.286742 1.93487 0
M  V30 2377 O 221.527 -0.537062 2.66135 0
M  V30 2378 C 219.983 2.03177 2.97064 0
M  V30 2379 C 219.591 3.52836 2.76062 0
M  V30 2380 C 221.335 1.98984 3.74974 0
M  V30 2381 C 219.242 4.31945 4.03952 0
M  V30 2382 H 218.172 0.431246 0.618501 0
M  V30 2383 H 220.823 1.53699 1.00243 0
M  V30 2384 H 219.205 1.5853 3.62883 0
M  V30 2385 H 220.379 4.05507 2.18863 0
M  V30 2386 H 218.694 3.58656 2.11553 0
M  V30 2387 H 221.291 2.55351 4.69787 0
M  V30 2388 H 221.634 0.968815 4.0487 0
M  V30 2389 H 222.167 2.41652 3.15989 0
M  V30 2390 H 218.906 5.34667 3.79225 0
M  V30 2391 H 218.426 3.84045 4.60727 0
M  V30 2392 H 220.105 4.42379 4.72133 0
M  V30 2393 N 220.237 -1.11381 1.11499 0
M  V30 2394 C 221.467 -1.86663 0.885464 0
M  V30 2395 C 221.875 -1.80464 -0.568281 0
M  V30 2396 O 221.218 -1.18445 -1.40415 0
M  V30 2397 C 221.28 -3.36337 1.26956 0
M  V30 2398 C 220.944 -3.66304 2.73259 0
M  V30 2399 C 221.941 -3.63733 3.71476 0
M  V30 2400 C 219.626 -3.9529 3.09921 0
M  V30 2401 C 221.62 -3.89725 5.04374 0
M  V30 2402 C 219.307 -4.20941 4.43004 0
M  V30 2403 C 220.305 -4.18147 5.40039 0
M  V30 2404 O 219.993 -4.43153 6.70724 0
M  V30 2405 H 219.725 -0.597114 0.316908 0
M  V30 2406 H 222.279 -1.41782 1.48617 0
M  V30 2407 H 220.509 -3.81826 0.611999 0
M  V30 2408 H 222.198 -3.92986 1.01573 0
M  V30 2409 H 222.964 -3.41389 3.44498 0
M  V30 2410 H 218.843 -3.966 2.35009 0
M  V30 2411 H 222.387 -3.8746 5.80104 0
M  V30 2412 H 218.284 -4.42761 4.69716 0
M  V30 2413 H 219.052 -4.60717 6.76522 0
M  V30 2414 N 221.715 -0.905404 -1.28997 0
M  V30 2415 C 222.663 -0.377431 -2.29517 0
M  V30 2416 C 223.657 0.526461 -1.61012 0
M  V30 2417 O 224.863 0.40863 -1.753 0
M  V30 2418 H 221.238 -0.103437 -0.744852 0
M  V30 2419 H 223.209 -1.23848 -2.71485 0
M  V30 2420 C 221.958 0.374833 -3.45674 0
M  V30 2421 H 221.281 -0.311474 -3.98585 0
M  V30 2422 H 222.721 0.70903 -4.1803 0
M  V30 2423 C 221.18 1.57963 -2.97572 0
M  V30 2424 O 221.71 2.67886 -2.99333 0
M  V30 2425 N 219.916 1.42375 -2.53333 0
M  V30 2426 H 219.463 0.529466 -2.521 0
M  V30 2427 H 219.421 2.23117 -2.21509 0
M  V30 2428 N 223.193 1.4272 -0.668489 0
M  V30 2429 C 224.604 1.84793 -0.266151 0
M  V30 2430 C 224.955 1.55959 1.19043 0
M  V30 2431 O 224.08 1.01622 1.91055 0
M  V30 2432 C 224.675 3.35436 -0.476271 0
M  V30 2433 C 223.234 3.76182 -0.128113 0
M  V30 2434 C 222.381 2.66344 -0.771777 0
M  V30 2435 H 225.332 1.32656 -0.871098 0
M  V30 2436 H 225.353 3.79515 0.273561 0
M  V30 2437 H 224.865 3.5639 -1.53647 0
M  V30 2438 H 222.966 3.60836 0.928891 0
M  V30 2439 H 223.079 4.75766 -0.564231 0
M  V30 2440 H 221.443 2.53885 -0.203652 0
M  V30 2441 H 222.226 2.90123 -1.83531 0
M  V30 2442 N 224.671 0.411399 1.52136 0
M  V30 2443 C 225.919 -0.163322 2.01439 0
M  V30 2444 C 226.24 -1.45453 1.29879 0
M  V30 2445 O 225.51 -1.91225 0.4254 0
M  V30 2446 H 224.09 -0.0633447 0.744309 0
M  V30 2447 H 226.752 0.548161 1.87033 0
M  V30 2448 H 225.848 -0.357817 3.10042 0
M  V30 2449 N 226.149 -1.5696 0.141893 0
M  V30 2450 C 227.081 -2.13619 -0.830627 0
M  V30 2451 C 228.094 -1.08439 -1.21428 0
M  V30 2452 O 229.283 -1.35734 -1.15925 0
M  V30 2453 C 226.383 -2.63978 -2.12529 0
M  V30 2454 C 225.556 -3.93504 -1.9098 0
M  V30 2455 C 224.615 -4.29225 -3.04388 0
M  V30 2456 O 223.641 -4.97641 -2.76302 0
M  V30 2457 N 224.843 -3.88393 -4.31429 0
M  V30 2458 H 227.608 -2.97691 -0.34641 0
M  V30 2459 H 225.169 -1.61846 -0.0418375 0
M  V30 2460 H 227.161 -2.84891 -2.87436 0
M  V30 2461 H 225.731 -1.84659 -2.52229 0
M  V30 2462 H 224.951 -3.81269 -1.00139 0
M  V30 2463 H 226.239 -4.78154 -1.73914 0
M  V30 2464 H 225.637 -3.33257 -4.57117 0
M  V30 2465 H 224.194 -4.14368 -5.03133 0
M  V30 2466 N 227.627 0.131896 -1.57047 0
M  V30 2467 C 229.043 0.485031 -1.52051 0
M  V30 2468 C 229.243 1.82563 -0.85281 0
M  V30 2469 O 228.299 2.48817 -0.429694 0
M  V30 2470 C 229.612 0.481409 -2.96821 0
M  V30 2471 C 231.16 0.565868 -3.07842 0
M  V30 2472 C 231.635 0.592762 -4.54148 0
M  V30 2473 N 233.126 0.654564 -4.58552 0
M  V30 2474 C 233.861 0.696608 -5.69153 0
M  V30 2475 N 233.357 0.697078 -6.89284 0
M  V30 2476 N 235.15 0.738639 -5.57226 0
M  V30 2477 H 227.301 -0.746664 -1.98843 0
M  V30 2478 H 229.564 -0.273999 -0.90754 0
M  V30 2479 H 229.27 -0.435731 -3.4899 0
M  V30 2480 H 229.144 1.3139 -3.53577 0
M  V30 2481 H 231.531 1.47343 -2.55684 0
M  V30 2482 H 231.612 -0.29406 -2.54104 0
M  V30 2483 H 231.256 -0.310701 -5.06949 0
M  V30 2484 H 231.186 1.46939 -5.05684 0
M  V30 2485 H 233.677 0.660887 -3.72076 0
M  V30 2486 H 233.99 0.731426 -7.69331 0
M  V30 2487 H 232.335 0.66471 -6.91814 0
M  V30 2488 H 235.526 0.735545 -4.62285 0
M  V30 2489 H 235.699 0.767938 -6.43434 0
M  V30 2490 N 229.106 1.52395 0.401703 0
M  V30 2491 C 230.352 1.67065 1.14966 0
M  V30 2492 C 230.685 0.403052 1.89971 0
M  V30 2493 O 229.96 -0.598774 1.85054 0
M  V30 2494 C 230.243 2.8975 2.13815 0
M  V30 2495 C 230.096 4.26578 1.42658 0
M  V30 2496 C 231.415 3.07965 3.14397 0
M  V30 2497 H 228.534 0.607968 0.416587 0
M  V30 2498 H 231.176 1.84965 0.434511 0
M  V30 2499 H 229.326 2.74619 2.74803 0
M  V30 2500 H 230.998 4.53451 0.847329 0
M  V30 2501 H 229.241 4.27639 0.72849 0
M  V30 2502 H 229.912 5.08483 2.14823 0
M  V30 2503 H 232.388 3.22043 2.63491 0
M  V30 2504 H 231.264 3.95308 3.80819 0
M  V30 2505 H 231.525 2.21611 3.82545 0
M  V30 2506 N 230.584 -0.659388 1.43143 0
M  V30 2507 C 232 -0.974337 1.26407 0
M  V30 2508 C 232.2 -2.007 0.179341 0
M  V30 2509 O 231.256 -2.4856 -0.444295 0
M  V30 2510 C 232.569 -1.46447 2.62628 0
M  V30 2511 C 234.117 -1.58144 2.7011 0
M  V30 2512 C 234.592 -2.1055 4.06734 0
M  V30 2513 N 236.083 -2.17861 4.08767 0
M  V30 2514 C 236.818 -2.59519 5.1131 0
M  V30 2515 N 236.314 -3.00518 6.24228 0
M  V30 2516 N 238.107 -2.59404 4.98664 0
M  V30 2517 H 230.258 0.0240528 2.12386 0
M  V30 2518 H 232.521 -0.0518065 0.946583 0
M  V30 2519 H 232.227 -0.780123 3.42939 0
M  V30 2520 H 232.101 -2.44058 2.87603 0
M  V30 2521 H 234.488 -2.25682 1.90136 0
M  V30 2522 H 234.569 -0.589828 2.48907 0
M  V30 2523 H 234.213 -1.43616 4.87172 0
M  V30 2524 H 234.143 -3.10531 4.25298 0
M  V30 2525 H 236.634 -1.88975 3.27257 0
M  V30 2526 H 236.947 -3.31036 6.98309 0
M  V30 2527 H 235.292 -2.98337 6.2771 0
M  V30 2528 H 238.483 -2.26747 4.09516 0
M  V30 2529 H 238.656 -2.91548 5.78709 0
M  V30 2530 N 232.062 -1.29571 -0.897171 0
M  V30 2531 C 233.292 -1.20408 -1.67886 0
M  V30 2532 C 233.7 0.237429 -1.87704 0
M  V30 2533 O 233.043 1.17048 -1.41582 0
M  V30 2534 C 233.105 -1.84887 -3.08314 0
M  V30 2535 C 232.769 -3.34189 -3.11716 0
M  V30 2536 C 233.766 -4.30374 -2.91675 0
M  V30 2537 C 231.451 -3.75431 -3.33701 0
M  V30 2538 C 233.445 -5.65776 -2.93557 0
M  V30 2539 C 231.132 -5.10955 -3.35214 0
M  V30 2540 C 232.13 -6.05938 -3.15164 0
M  V30 2541 O 231.818 -7.38987 -3.1647 0
M  V30 2542 H 231.55 -0.418289 -0.531046 0
M  V30 2543 H 234.104 -1.71514 -1.13014 0
M  V30 2544 H 232.334 -1.28295 -3.64798 0
M  V30 2545 H 234.023 -1.70011 -3.6858 0
M  V30 2546 H 234.789 -3.99844 -2.74499 0
M  V30 2547 H 230.668 -3.01953 -3.48347 0
M  V30 2548 H 234.212 -6.39889 -2.77826 0
M  V30 2549 H 230.109 -5.4113 -3.51922 0
M  V30 2550 H 230.877 -7.47823 -3.3272 0
M  V30 2551 N 233.54 1.10788 -1.12088 0
M  V30 2552 C 234.956 1.34691 -0.856186 0
M  V30 2553 C 235.156 1.94791 0.515615 0
M  V30 2554 O 234.212 2.18524 1.26505 0
M  V30 2555 C 235.525 2.27208 -1.9697 0
M  V30 2556 C 237.073 2.40755 -2.00016 0
M  V30 2557 C 237.548 3.36598 -3.1059 0
M  V30 2558 N 239.039 3.44164 -3.10008 0
M  V30 2559 C 239.774 4.18284 -3.92206 0
M  V30 2560 N 239.27 4.95322 -4.84384 0
M  V30 2561 N 241.063 4.13865 -3.80357 0
M  V30 2562 H 233.214 0.70144 -2.00483 0
M  V30 2563 H 235.477 0.371405 -0.872217 0
M  V30 2564 H 235.183 1.90251 -2.958 0
M  V30 2565 H 235.057 3.27485 -1.87172 0
M  V30 2566 H 237.444 2.76982 -1.01808 0
M  V30 2567 H 237.525 1.40305 -2.13888 0
M  V30 2568 H 237.169 3.01096 -4.09028 0
M  V30 2569 H 237.099 4.36918 -2.93956 0
M  V30 2570 H 239.59 2.8922 -2.43228 0
M  V30 2571 H 239.903 5.49267 -5.43623 0
M  V30 2572 H 238.248 4.94459 -4.884 0
M  V30 2573 H 241.439 3.52773 -3.07683 0
M  V30 2574 H 241.612 4.71372 -4.44649 0
M  V30 2575 N 235.018 0.912232 1.28515 0
M  V30 2576 C 236.264 0.545405 1.95328 0
M  V30 2577 C 236.597 -0.908313 1.71649 0
M  V30 2578 O 235.872 -1.64575 1.03659 0
M  V30 2579 C 236.155 0.853483 3.4984 0
M  V30 2580 C 236.008 2.35982 3.82926 0
M  V30 2581 C 237.327 0.348589 4.38717 0
M  V30 2582 H 234.446 0.199626 0.709449 0
M  V30 2583 H 237.088 1.1412 1.5191 0
M  V30 2584 H 235.238 0.34643 3.86952 0
M  V30 2585 H 236.91 2.93738 3.55691 0
M  V30 2586 H 235.153 2.81543 3.30024 0
M  V30 2587 H 235.824 2.52593 4.90816 0
M  V30 2588 H 238.3 0.78294 4.08668 0
M  V30 2589 H 237.176 0.593242 5.45685 0
M  V30 2590 H 237.437 -0.751049 4.35674 0
M  V30 2591 N 236.496 -1.42363 0.676048 0
M  V30 2592 C 237.743 -2.01522 0.19883 0
M  V30 2593 C 238.071 -1.53456 -1.19505 0
M  V30 2594 O 237.326 -0.727967 -1.81657 0
M  V30 2595 C 237.625 -3.56929 0.183431 0
M  V30 2596 C 237.291 -4.24431 1.52215 0
M  V30 2597 C 235.953 -4.42585 1.8887 0
M  V30 2598 C 238.305 -4.62459 2.40377 0
M  V30 2599 C 235.633 -4.96039 3.13309 0
M  V30 2600 C 237.985 -5.17294 3.64129 0
M  V30 2601 C 236.649 -5.33661 4.00951 0
M  V30 2602 H 235.919 -0.737419 0.0727571 0
M  V30 2603 H 238.566 -1.70531 0.871281 0
M  V30 2604 H 236.871 -3.87594 -0.572532 0
M  V30 2605 H 238.568 -4.00486 -0.203035 0
M  V30 2606 H 235.158 -4.10661 1.22701 0
M  V30 2607 H 239.342 -4.48105 2.13343 0
M  V30 2608 H 234.598 -5.06896 3.41857 0
M  V30 2609 H 238.772 -5.45704 4.32644 0
M  V30 2610 H 236.399 -5.74845 4.9745 0
M  V30 2611 N 237.974 -0.419461 -1.51915 0
M  V30 2612 C 238.937 0.389116 -2.25873 0
M  V30 2613 C 239.937 0.964924 -1.28631 0
M  V30 2614 O 241.127 0.842179 -1.52489 0
M  V30 2615 C 238.259 1.54874 -3.03689 0
M  V30 2616 H 239.452 -0.258799 -2.98781 0
M  V30 2617 H 237.005 -0.172209 -1.55348 0
M  V30 2618 H 237.74 2.23323 -2.35154 0
M  V30 2619 H 237.525 1.14223 -3.75094 0
M  V30 2620 H 239.015 2.12046 -3.59759 0
M  V30 2621 N 239.452 1.56882 -0.150215 0
M  V30 2622 C 240.382 2.19935 0.784284 0
M  V30 2623 C 241.363 1.14854 1.25469 0
M  V30 2624 O 242.548 1.43209 1.31168 0
M  V30 2625 C 239.678 2.82349 2.02229 0
M  V30 2626 C 238.632 3.93285 1.68853 0
M  V30 2627 C 237.958 4.42649 2.99944 0
M  V30 2628 C 239.258 5.13904 0.932714 0
M  V30 2629 H 240.952 2.9828 0.258781 0
M  V30 2630 H 238.498 1.43473 0.123029 0
M  V30 2631 H 240.451 3.25126 2.68088 0
M  V30 2632 H 239.175 2.0134 2.57157 0
M  V30 2633 H 237.834 3.5113 1.05371 0
M  V30 2634 H 237.482 3.58458 3.52869 0
M  V30 2635 H 237.182 5.17476 2.78374 0
M  V30 2636 H 238.706 4.88099 3.66868 0
M  V30 2637 H 240.12 5.53506 1.49345 0
M  V30 2638 H 238.517 5.94515 0.81684 0
M  V30 2639 H 239.587 4.84842 -0.0749568 0
M  V30 2640 N 240.93 -0.123565 1.57115 0
M  V30 2641 C 242.207 -0.862196 1.75572 0
M  V30 2642 C 242.587 -1.98279 0.724475 0
M  V30 2643 O 241.935 -2.27102 -0.252407 0
M  V30 2644 C 242.145 -1.38309 3.20424 0
M  V30 2645 C 243.493 -1.83724 3.82793 0
M  V30 2646 O 244.517 -1.47999 3.23998 0
M  V30 2647 O 243.376 -2.49685 4.86127 0
M  V30 2648 H 240.47 -0.409113 0.718718 0
M  V30 2649 H 243.016 -0.107661 1.69358 0
M  V30 2650 H 241.788 -0.578889 3.86994 0
M  V30 2651 H 241.411 -2.20046 3.31158 0
M  V30 2652 N 242.408 -1.52605 -0.393616 0
M  V30 2653 C 243.34 -1.73303 -1.49995 0
M  V30 2654 C 244.353 -0.613473 -1.50799 0
M  V30 2655 O 245.542 -0.889049 -1.54784 0
M  V30 2656 C 242.642 -1.77245 -2.88855 0
M  V30 2657 C 241.815 -3.06483 -3.12069 0
M  V30 2658 C 240.874 -3.02033 -4.30886 0
M  V30 2659 O 239.9 -3.75907 -4.27414 0
M  V30 2660 N 241.102 -2.20897 -5.36828 0
M  V30 2661 H 243.867 -2.68756 -1.32629 0
M  V30 2662 H 241.428 -1.51036 -0.583083 0
M  V30 2663 H 243.42 -1.7178 -3.66434 0
M  V30 2664 H 241.99 -0.891993 -2.99603 0
M  V30 2665 H 241.21 -3.25474 -2.22396 0
M  V30 2666 H 242.498 -3.91947 -3.2443 0
M  V30 2667 H 241.896 -1.60336 -5.42502 0
M  V30 2668 H 240.453 -2.21275 -6.13091 0
M  V30 2669 N 243.887 0.651787 -1.4349 0
M  V30 2670 C 244.834 1.76462 -1.4876 0
M  V30 2671 C 245.804 1.62641 -0.337189 0
M  V30 2672 O 246.989 1.82864 -0.544544 0
M  V30 2673 C 244.129 3.14623 -1.41796 0
M  V30 2674 C 243.242 3.39568 -2.67053 0
M  V30 2675 C 242.377 4.67585 -2.52068 0
M  V30 2676 C 241.416 4.85639 -3.72587 0
M  V30 2677 N 240.553 6.04915 -3.56402 0
M  V30 2678 H 245.393 1.71293 -2.43849 0
M  V30 2679 H 242.93 0.835889 -1.21043 0
M  V30 2680 H 244.888 3.94496 -1.35753 0
M  V30 2681 H 243.518 3.18859 -0.50288 0
M  V30 2682 H 242.57 2.53783 -2.8337 0
M  V30 2683 H 243.882 3.48795 -3.56572 0
M  V30 2684 H 243.036 5.55586 -2.4374 0
M  V30 2685 H 241.775 4.60681 -1.60075 0
M  V30 2686 H 240.78 3.96073 -3.81321 0
M  V30 2687 H 242.005 4.94372 -4.65589 0
M  V30 2688 H 239.951 5.9914 -2.67146 0
M  V30 2689 H 239.868 6.15106 -4.39524 0
M  V30 2690 H 241.136 6.95533 -3.51929 0
M  V30 2691 N 245.365 1.30045 0.890287 0
M  V30 2692 C 246.298 1.10301 1.99772 0
M  V30 2693 C 247.276 0.0121631 1.62595 0
M  V30 2694 O 248.46 0.16469 1.87779 0
M  V30 2695 C 245.587 0.681125 3.31781 0
M  V30 2696 C 244.633 1.77206 3.87944 0
M  V30 2697 S 245.466 3.37335 4.15891 0
M  V30 2698 C 246.622 2.97036 5.50927 0
M  V30 2699 H 246.855 2.04057 2.16213 0
M  V30 2700 H 244.388 1.14299 1.03804 0
M  V30 2701 H 246.346 0.444439 4.08087 0
M  V30 2702 H 245.007 -0.236981 3.13205 0
M  V30 2703 H 244.2 1.42903 4.83316 0
M  V30 2704 H 243.802 1.96275 3.18358 0
M  V30 2705 H 246.094 2.44666 6.31779 0
M  V30 2706 H 247.037 3.91296 5.90164 0
M  V30 2707 H 247.445 2.35057 5.13233 0
M  V30 2708 N 246.843 -1.10192 1.12674 0
M  V30 2709 C 248.259 -1.34235 0.863317 0
M  V30 2710 C 248.459 -1.95062 -0.505277 0
M  V30 2711 O 247.515 -2.19192 -1.25345 0
M  V30 2712 C 248.828 -2.2616 1.98172 0
M  V30 2713 C 250.376 -2.3969 2.0129 0
M  V30 2714 C 250.851 -3.34946 3.1237 0
M  V30 2715 N 252.342 -3.42515 3.11829 0
M  V30 2716 C 253.077 -4.16199 3.94419 0
M  V30 2717 N 252.573 -4.92747 4.87004 0
M  V30 2718 N 254.366 -4.11843 3.82547 0
M  V30 2719 H 246.517 -0.690798 2.00853 0
M  V30 2720 H 248.78 -0.366774 0.874174 0
M  V30 2721 H 248.486 -1.8868 2.96804 0
M  V30 2722 H 248.36 -3.26488 1.88906 0
M  V30 2723 H 250.747 -2.76438 1.03276 0
M  V30 2724 H 250.828 -1.39169 2.14629 0
M  V30 2725 H 250.472 -2.98923 4.10619 0
M  V30 2726 H 250.402 -4.35353 2.96269 0
M  V30 2727 H 252.893 -2.87926 2.44759 0
M  V30 2728 H 253.206 -5.46376 5.46528 0
M  V30 2729 H 251.551 -4.91862 4.91016 0
M  V30 2730 H 254.742 -3.51136 3.0955 0
M  V30 2731 H 254.915 -4.69007 4.47142 0
M  V30 2732 N 248.321 -0.919034 -1.28029 0
M  V30 2733 C 249.732 -0.600735 -1.76771 0
M  V30 2734 C 250.083 0.884024 -1.75156 0
M  V30 2735 O 249.208 1.69163 -1.34956 0
M  V30 2736 C 249.803 -1.08372 -3.21 0
M  V30 2737 C 248.362 -0.816248 -3.67443 0
M  V30 2738 C 247.509 -1.24742 -2.47658 0
M  V30 2739 H 250.46 -1.09974 -1.14418 0
M  V30 2740 H 250.481 -0.427512 -3.78091 0
M  V30 2741 H 249.993 -2.16437 -3.22144 0
M  V30 2742 H 248.094 0.250968 -3.71754 0
M  V30 2743 H 248.207 -1.4277 -4.57333 0
M  V30 2744 H 246.571 -0.666083 -2.45836 0
M  V30 2745 H 247.354 -2.33653 -2.51518 0
M  V30 2746 N 249.799 1.42003 -0.683588 0
M  V30 2747 C 251.024 2.06265 -0.216647 0
M  V30 2748 C 251.449 1.51059 1.12083 0
M  V30 2749 O 250.807 0.632638 1.69904 0
M  V30 2750 C 250.855 3.60191 -0.171759 0
M  V30 2751 O 249.959 4.03396 0.857069 0
M  V30 2752 H 249.3 0.65502 -0.108834 0
M  V30 2753 H 251.83 1.81982 -0.935077 0
M  V30 2754 H 251.84 4.08 0.0014303 0
M  V30 2755 H 250.515 3.99743 -1.14796 0
M  V30 2756 H 249.092 3.67117 0.654208 0
M  V30 2757 N 251.277 0.427512 1.51691 0
M  V30 2758 C 252.505 -0.141191 2.06418 0
M  V30 2759 C 252.92 -1.37303 1.29589 0
M  V30 2760 O 252.277 -1.79059 0.352732 0
M  V30 2761 C 252.328 -0.473266 3.58389 0
M  V30 2762 O 252.049 0.709673 4.32314 0
M  V30 2763 C 253.55 -1.09371 4.29596 0
M  V30 2764 H 250.77 -0.0122747 0.670888 0
M  V30 2765 H 253.314 0.603764 1.95384 0
M  V30 2766 H 251.469 -1.16812 3.69369 0
M  V30 2767 H 251.883 0.42807 5.2275 0
M  V30 2768 H 253.357 -1.27613 5.37046 0
M  V30 2769 H 253.834 -2.072 3.87253 0
M  V30 2770 H 254.44 -0.43853 4.23033 0
M  V30 2771 N 252.755 -1.56801 0.158532 0
M  V30 2772 C 254.032 -1.88131 -0.535357 0
M  V30 2773 C 254.412 -1.06638 -1.82186 0
M  V30 2774 O 253.76 -0.156533 -2.27963 0
M  V30 2775 C 253.97 -3.39949 -0.789653 0
M  V30 2776 C 255.318 -4.09416 -1.12533 0
M  V30 2777 O 256.342 -3.45194 -0.878622 0
M  V30 2778 O 255.201 -5.22855 -1.59014 0
M  V30 2779 H 252.295 -0.780143 -0.27442 0
M  V30 2780 H 254.841 -1.68564 0.19601 0
M  V30 2781 H 253.613 -3.91115 0.120353 0
M  V30 2782 H 253.236 -3.65084 -1.57479 0
M  V30 2783 N 254.233 0.115231 -1.57178 0
M  V30 2784 C 255.461 0.836437 -1.89239 0
M  V30 2785 C 255.876 1.73256 -0.750175 0
M  V30 2786 O 255.233 1.80357 0.278832 0
M  V30 2787 C 255.284 1.66671 -3.20785 0
M  V30 2788 O 255.005 0.806652 -4.3061 0
M  V30 2789 C 256.506 2.49274 -3.66575 0
M  V30 2790 H 253.726 0.240253 -0.626514 0
M  V30 2791 H 256.27 0.0984932 -2.04263 0
M  V30 2792 H 254.425 2.35737 -3.0742 0
M  V30 2793 H 254.839 1.37969 -5.06028 0
M  V30 2794 H 256.313 3.03055 -4.6137 0
M  V30 2795 H 256.79 3.26807 -2.93417 0
M  V30 2796 H 257.396 1.85443 -3.82741 0
M  V30 2797 N 255.711 1.52812 0.385517 0
M  V30 2798 C 256.96 1.67249 1.12741 0
M  V30 2799 C 257.273 0.4205 1.91027 0
M  V30 2800 O 258.479 0.445064 2.67827 0
M  V30 2801 C 256.935 2.95583 2.05326 0
M  V30 2802 C 256.543 4.27974 1.32447 0
M  V30 2803 C 258.287 3.19386 2.7963 0
M  V30 2804 C 256.194 5.47412 2.23818 0
M  V30 2805 H 255.124 0.6231 0.424573 0
M  V30 2806 H 257.775 1.79309 0.389924 0
M  V30 2807 H 256.157 2.77277 2.82725 0
M  V30 2808 H 257.331 4.56844 0.602495 0
M  V30 2809 H 255.646 4.10459 0.700885 0
M  V30 2810 H 258.243 4.05801 3.48181 0
M  V30 2811 H 258.586 2.34604 3.43899 0
M  V30 2812 H 259.119 3.38274 2.09322 0
M  V30 2813 H 255.858 6.34612 1.64157 0
M  V30 2814 H 255.378 5.22849 2.93921 0
M  V30 2815 H 257.057 5.81423 2.83824 0
M  V30 2816 N 257.189 -0.644168 1.43834 0
M  V30 2817 C 258.417 -1.43147 1.49387 0
M  V30 2818 C 258.832 -1.88452 0.114583 0
M  V30 2819 O 258.189 -1.60047 -0.876989 0
M  V30 2820 C 258.24 -2.66046 2.44748 0
M  V30 2821 O 257.961 -2.22633 3.77314 0
M  V30 2822 C 259.462 -3.59311 2.59635 0
M  V30 2823 H 256.682 -0.439447 0.507077 0
M  V30 2824 H 259.226 -0.78895 1.88669 0
M  V30 2825 H 257.381 -3.26418 2.08638 0
M  V30 2826 H 257.795 -3.02216 4.28679 0
M  V30 2827 H 259.269 -4.42187 3.30416 0
M  V30 2828 H 259.746 -4.07259 1.64427 0
M  V30 2829 H 260.352 -3.04816 2.96593 0
M  V30 2830 N 258.668 -1.30515 -0.883378 0
M  V30 2831 C 259.914 -1.19607 -1.63774 0
M  V30 2832 C 260.247 0.248314 -1.92606 0
M  V30 2833 O 259.522 1.17742 -1.54813 0
M  V30 2834 C 259.805 -2.02669 -2.97653 0
M  V30 2835 C 259.658 -3.55335 -2.75784 0
M  V30 2836 C 260.977 -1.86573 -3.98596 0
M  V30 2837 H 258.096 -0.435856 -0.594305 0
M  V30 2838 H 260.738 -1.60165 -1.02212 0
M  V30 2839 H 258.888 -1.68208 -3.50197 0
M  V30 2840 H 260.56 -3.99863 -2.30016 0
M  V30 2841 H 258.803 -3.79438 -2.1026 0
M  V30 2842 H 259.474 -4.08745 -3.70988 0
M  V30 2843 H 261.95 -2.16703 -3.55217 0
M  V30 2844 H 260.826 -2.47014 -4.90179 0
M  V30 2845 H 261.087 -0.825321 -4.34328 0
M  V30 2846 N 260.146 1.09593 -1.13257 0
M  V30 2847 C 261.079 2.15451 -0.752061 0
M  V30 2848 C 262.057 1.60493 0.260913 0
M  V30 2849 O 263.241 1.8788 0.152819 0
M  V30 2850 C 260.368 3.38506 -0.114594 0
M  V30 2851 C 259.414 4.12183 -1.09579 0
M  V30 2852 S 260.247 4.6661 -2.62745 0
M  V30 2853 C 261.403 5.92966 -2.00354 0
M  V30 2854 H 261.636 2.47395 -1.64872 0
M  V30 2855 H 259.169 1.21515 -0.952545 0
M  V30 2856 H 261.127 4.09757 0.246808 0
M  V30 2857 H 259.788 3.04784 0.759309 0
M  V30 2858 H 258.981 5.00445 -0.597545 0
M  V30 2859 H 258.583 3.46785 -1.40057 0
M  V30 2860 H 260.875 6.63882 -1.35156 0
M  V30 2861 H 261.818 6.47467 -2.86691 0
M  V30 2862 H 262.226 5.45405 -1.4558 0
M  V30 2863 N 261.624 0.925811 1.2754 0
M  V30 2864 C 262.87 0.566092 1.94739 0
M  V30 2865 C 263.203 -0.890057 1.72603 0
M  V30 2866 O 262.478 -1.63467 1.05399 0
M  V30 2867 C 262.761 0.89054 3.48915 0
M  V30 2868 C 262.614 2.4003 3.80402 0
M  V30 2869 C 263.933 0.395101 4.38323 0
M  V30 2870 H 261.052 0.20714 0.707292 0
M  V30 2871 H 263.694 1.15725 1.50691 0
M  V30 2872 H 261.844 0.387452 3.86563 0
M  V30 2873 H 263.516 2.97494 3.52555 0
M  V30 2874 H 261.759 2.85028 3.2702 0
M  V30 2875 H 262.43 2.57785 4.8811 0
M  V30 2876 H 264.906 0.826241 4.07814 0
M  V30 2877 H 263.782 0.651086 5.45025 0
M  V30 2878 H 264.043 -0.704798 4.36446 0
M  V30 2879 N 263.102 -1.41638 0.69111 0
M  V30 2880 C 264.012 -2.34588 0.0233487 0
M  V30 2881 C 265.028 -1.55987 -0.770984 0
M  V30 2882 O 266.204 -1.88486 -0.709569 0
M  V30 2883 C 263.269 -3.34684 -0.904851 0
M  V30 2884 C 262.33 -4.29176 -0.103225 0
M  V30 2885 C 261.563 -5.2449 -0.987216 0
M  V30 2886 O 261.786 -5.2514 -2.22674 0
M  V30 2887 O 260.72 -6.00295 -0.439281 0
M  V30 2888 H 264.546 -2.93261 0.789416 0
M  V30 2889 H 262.131 -1.42417 0.45142 0
M  V30 2890 H 264.013 -3.96133 -1.43724 0
M  V30 2891 H 262.688 -2.78461 -1.65049 0
M  V30 2892 H 261.595 -3.71089 0.473655 0
M  V30 2893 H 262.928 -4.88484 0.60365 0
M  V30 2894 N 264.58 -0.43555 -1.51462 0
M  V30 2895 C 265.528 0.391205 -2.29287 0
M  V30 2896 C 266.522 1.02247 -1.35062 0
M  V30 2897 O 267.728 0.957646 -1.52411 0
M  V30 2898 H 264.103 0.144968 -0.737895 0
M  V30 2899 H 266.074 -0.286051 -2.97026 0
M  V30 2900 C 264.823 1.48096 -3.14583 0
M  V30 2901 H 264.146 1.00457 -3.86973 0
M  V30 2902 H 265.586 2.03273 -3.72097 0
M  V30 2903 C 264.045 2.46321 -2.29843 0
M  V30 2904 O 264.575 3.50815 -1.95682 0
M  V30 2905 N 262.781 2.17166 -1.931 0
M  V30 2906 H 262.328 1.32218 -2.21079 0
M  V30 2907 H 262.286 2.83127 -1.36698 0
M  V30 2908 N 266.058 1.56714 -0.166846 0
M  V30 2909 C 267.283 2.01557 0.488833 0
M  V30 2910 C 267.708 1.0463 1.56314 0
M  V30 2911 O 267.066 0.0251304 1.81283 0
M  V30 2912 C 267.114 3.4503 1.04818 0
M  V30 2913 O 266.218 3.51163 2.16236 0
M  V30 2914 H 265.559 0.653516 0.117526 0
M  V30 2915 H 268.089 2.02818 -0.269421 0
M  V30 2916 H 268.099 3.84243 1.37191 0
M  V30 2917 H 266.774 4.15077 0.261572 0
M  V30 2918 H 265.351 3.23807 1.84942 0
M  V30 2919 N 267.536 -0.106894 1.57237 0
M  V30 2920 C 268.486 -1.1366 1.9765 0
M  V30 2921 C 269.47 -1.36416 0.853203 0
M  V30 2922 O 270.662 -1.37305 1.11697 0
M  V30 2923 C 267.791 -2.46 2.39455 0
M  V30 2924 C 266.877 -2.26668 3.58445 0
M  V30 2925 N 267.268 -1.77176 4.73754 0
M  V30 2926 C 265.566 -2.57279 3.64312 0
M  V30 2927 C 266.267 -1.71836 5.5574 0
M  V30 2928 N 265.243 -2.16623 4.98573 0
M  V30 2929 H 269.045 -0.74669 2.84256 0
M  V30 2930 H 266.559 -0.314483 1.59326 0
M  V30 2931 H 268.556 -3.2049 2.6663 0
M  V30 2932 H 267.216 -2.85738 1.54219 0
M  V30 2933 H 268.227 -1.46545 4.96734 0
M  V30 2934 H 264.904 -3.00622 2.89711 0
M  V30 2935 H 266.294 -1.34723 6.58255 0
M  V30 2936 N 269.014 -1.53014 -0.377408 0
M  V30 2937 C 270.262 -1.6829 -1.11906 0
M  V30 2938 C 270.583 -0.431206 -1.90173 0
M  V30 2939 O 269.853 0.554595 -1.87886 0
M  V30 2940 H 268.433 -0.620371 -0.416112 0
M  V30 2941 H 271.095 -1.90167 -0.426893 0
M  V30 2942 H 270.191 -2.53862 -1.8155 0
M  V30 2943 N 270.492 0.636531 -1.44174 0
M  V30 2944 C 271.422 1.76003 -1.53444 0
M  V30 2945 C 272.403 1.65619 -0.387841 0
M  V30 2946 O 273.588 1.84461 -0.607257 0
M  V30 2947 C 270.718 3.14511 -1.4731 0
M  V30 2948 C 269.672 3.39677 -2.60391 0
M  V30 2949 C 268.998 4.78159 -2.39308 0
M  V30 2950 C 270.298 3.32772 -4.02567 0
M  V30 2951 H 271.992 1.68501 -2.47483 0
M  V30 2952 H 269.538 0.809237 -1.19111 0
M  V30 2953 H 271.491 3.92878 -1.52397 0
M  V30 2954 H 270.215 3.22783 -0.49785 0
M  V30 2955 H 268.874 2.63688 -2.54684 0
M  V30 2956 H 268.522 4.83128 -1.39988 0
M  V30 2957 H 268.222 4.95956 -3.15122 0
M  V30 2958 H 269.746 5.58762 -2.46205 0
M  V30 2959 H 271.16 4.01051 -4.09672 0
M  V30 2960 H 269.557 3.62104 -4.7854 0
M  V30 2961 H 270.627 2.30669 -4.2652 0
M  V30 2962 N 271.97 1.30982 0.876444 0
M  V30 2963 C 273.386 1.09498 1.16113 0
M  V30 2964 C 273.586 -0.13875 2.01022 0
M  V30 2965 O 272.642 -0.829935 2.38471 0
M  V30 2966 C 273.955 2.36308 1.85954 0
M  V30 2967 C 275.503 2.41856 1.98683 0
M  V30 2968 C 275.978 3.6853 2.71937 0
M  V30 2969 N 277.469 3.69387 2.79477 0
M  V30 2970 C 278.204 4.64096 3.36753 0
M  V30 2971 N 277.7 5.69155 3.95012 0
M  V30 2972 N 279.493 4.51626 3.3465 0
M  V30 2973 H 271.644 2.10118 0.310494 0
M  V30 2974 H 273.907 0.926634 0.200131 0
M  V30 2975 H 273.613 3.26388 1.31011 0
M  V30 2976 H 273.487 2.4561 2.86278 0
M  V30 2977 H 275.874 1.52249 2.52793 0
M  V30 2978 H 275.955 2.36523 0.9742 0
M  V30 2979 H 275.599 4.58499 2.18496 0
M  V30 2980 H 275.529 3.71127 3.73593 0
M  V30 2981 H 278.02 2.93438 2.38123 0
M  V30 2982 H 278.333 6.3751 4.36808 0
M  V30 2983 H 276.678 5.72937 3.93406 0
M  V30 2984 H 279.869 3.68728 2.8837 0
M  V30 2985 H 280.042 5.25614 3.7899 0
M  V30 2986 N 273.449 -1.08991 1.13837 0
M  V30 2987 C 274.695 -1.81526 0.90422 0
M  V30 2988 C 275.028 -1.85706 -0.568066 0
M  V30 2989 O 274.303 -1.32855 -1.42056 0
M  V30 2990 C 274.586 -3.27447 1.49835 0
M  V30 2991 C 274.439 -3.31512 3.04006 0
M  V30 2992 C 275.758 -4.24256 1.17025 0
M  V30 2993 H 272.877 -0.659029 0.329923 0
M  V30 2994 H 275.519 -1.27644 1.40737 0
M  V30 2995 H 273.669 -3.73462 1.07044 0
M  V30 2996 H 275.341 -2.93867 3.55584 0
M  V30 2997 H 273.584 -2.70963 3.38765 0
M  V30 2998 H 274.255 -4.34329 3.40679 0
M  V30 2999 H 276.731 -3.86549 1.54009 0
M  V30 3000 H 275.607 -5.24684 1.61237 0
M  V30 3001 H 275.868 -4.42019 0.0846274 0
M  V30 3002 N 274.927 -0.932562 -1.27047 0
M  V30 3003 C 276.343 -0.633544 -1.46487 0
M  V30 3004 C 276.543 0.815746 -1.84249 0
M  V30 3005 O 275.599 1.59319 -1.95892 0
M  V30 3006 C 276.912 -1.58758 -2.55375 0
M  V30 3007 C 278.46 -1.59634 -2.69232 0
M  V30 3008 C 278.935 -2.53747 -3.81283 0
M  V30 3009 N 280.426 -2.51982 -3.88664 0
M  V30 3010 C 281.161 -3.21491 -4.74796 0
M  V30 3011 N 280.657 -4.00395 -5.65381 0
M  V30 3012 N 282.45 -3.10485 -4.68568 0
M  V30 3013 H 274.601 -1.86946 -1.00821 0
M  V30 3014 H 276.864 -0.802897 -0.504044 0
M  V30 3015 H 276.57 -2.62172 -2.34432 0
M  V30 3016 H 276.444 -1.33301 -3.52861 0
M  V30 3017 H 278.831 -0.569488 -2.89553 0
M  V30 3018 H 278.912 -1.89142 -1.72218 0
M  V30 3019 H 278.556 -3.56545 -3.61715 0
M  V30 3020 H 278.486 -2.21532 -4.77735 0
M  V30 3021 H 280.977 -1.94681 -3.23895 0
M  V30 3022 H 281.29 -4.50406 -6.27976 0
M  V30 3023 H 279.635 -4.04498 -5.65161 0
M  V30 3024 H 282.826 -2.48331 -3.96799 0
M  V30 3025 H 282.999 -3.64925 -5.35475 0
M  V30 3026 N 276.405 1.4127 -0.698611 0
M  V30 3027 C 277.352 2.30773 -0.0352094 0
M  V30 3028 C 278.322 1.47273 0.768111 0
M  V30 3029 O 279.507 1.76053 0.735524 0
M  V30 3030 C 276.647 3.33346 0.893 0
M  V30 3031 C 275.76 4.31924 0.0809695 0
M  V30 3032 C 274.895 5.21566 1.0071 0
M  V30 3033 C 273.934 6.11811 0.188155 0
M  V30 3034 N 273.071 6.93926 1.06825 0
M  V30 3035 H 277.911 2.86943 -0.804207 0
M  V30 3036 H 275.448 1.4132 -0.408294 0
M  V30 3037 H 277.406 3.91368 1.44523 0
M  V30 3038 H 276.036 2.78719 1.62836 0
M  V30 3039 H 275.088 3.75825 -0.588224 0
M  V30 3040 H 276.4 4.95716 -0.553801 0
M  V30 3041 H 275.554 5.84437 1.62845 0
M  V30 3042 H 274.293 4.58008 1.67572 0
M  V30 3043 H 273.298 5.47986 -0.446254 0
M  V30 3044 H 274.523 6.77425 -0.476716 0
M  V30 3045 H 272.469 6.32973 1.72283 0
M  V30 3046 H 272.386 7.54416 0.489123 0
M  V30 3047 H 273.654 7.61262 1.67632 0
M  V30 3048 N 277.883 0.443576 1.51229 0
M  V30 3049 C 278.83 -0.364716 2.279 0
M  V30 3050 C 279.8 -1.0114 1.31757 0
M  V30 3051 O 280.985 -1.02912 1.60667 0
M  V30 3052 C 278.125 -1.45644 3.12861 0
M  V30 3053 C 277.238 -0.827269 4.24005 0
M  V30 3054 C 276.373 -1.89456 4.96266 0
M  V30 3055 C 275.412 -1.24416 5.99322 0
M  V30 3056 N 274.549 -2.25309 6.64966 0
M  V30 3057 H 279.389 0.295464 2.96532 0
M  V30 3058 H 276.926 0.157554 1.46254 0
M  V30 3059 H 278.884 -2.10076 3.6045 0
M  V30 3060 H 277.514 -2.08616 2.46331 0
M  V30 3061 H 276.566 -0.0710839 3.80334 0
M  V30 3062 H 277.878 -0.312481 4.9782 0
M  V30 3063 H 277.032 -2.61535 5.47434 0
M  V30 3064 H 275.771 -2.4431 4.22095 0
M  V30 3065 H 274.776 -0.508868 5.4744 0
M  V30 3066 H 276.001 -0.702882 6.75453 0
M  V30 3067 H 273.947 -2.79231 5.93604 0
M  V30 3068 H 273.864 -1.78739 7.34567 0
M  V30 3069 H 275.132 -2.96853 7.20763 0
M  V30 3070 N 279.361 -1.56624 0.175154 0
M  V30 3071 C 280.271 -2.21741 -0.766042 0
M  V30 3072 C 281.287 -1.21023 -1.25018 0
M  V30 3073 O 282.463 -1.53697 -1.3015 0
M  V30 3074 C 279.528 -2.84839 -1.97655 0
M  V30 3075 C 278.589 -4.00769 -1.53892 0
M  V30 3076 C 277.822 -4.60849 -2.69173 0
M  V30 3077 O 278.045 -4.19823 -3.86141 0
M  V30 3078 O 276.979 -5.50655 -2.43028 0
M  V30 3079 H 280.805 -3.02738 -0.241585 0
M  V30 3080 H 278.39 -1.49305 -0.053222 0
M  V30 3081 H 280.272 -3.24834 -2.68442 0
M  V30 3082 H 278.947 -2.06836 -2.48999 0
M  V30 3083 H 277.854 -3.65436 -0.80044 0
M  V30 3084 H 279.187 -4.80376 -1.07236 0
M  V30 3085 N 280.839 0.0985539 -1.57292 0
M  V30 3086 C 282.085 0.803867 -1.86188 0
M  V30 3087 C 282.418 1.78549 -0.763794 0
M  V30 3088 O 281.693 1.93153 0.22855 0
M  V30 3089 C 281.976 1.53568 -3.25713 0
M  V30 3090 C 281.829 0.572277 -4.46145 0
M  V30 3091 C 283.148 2.48708 -3.63087 0
M  V30 3092 H 280.267 0.290781 -0.677211 0
M  V30 3093 H 282.909 0.0675783 -1.8988 0
M  V30 3094 H 281.059 2.16332 -3.22696 0
M  V30 3095 H 282.731 -0.0480894 -4.61275 0
M  V30 3096 H 280.974 -0.114618 -4.33649 0
M  V30 3097 H 281.645 1.12139 -5.40489 0
M  V30 3098 H 284.121 1.96039 -3.67026 0
M  V30 3099 H 282.997 2.96932 -4.61652 0
M  V30 3100 H 283.258 3.32309 -2.91588 0
M  V30 3101 N 282.317 1.53212 0.369288 0
M  V30 3102 C 283.547 1.72868 1.13139 0
M  V30 3103 C 283.955 0.455754 1.83629 0
M  V30 3104 O 283.298 -0.580861 1.74275 0
M  V30 3105 C 283.36 2.83667 2.20847 0
M  V30 3106 C 283.024 4.24142 1.70155 0
M  V30 3107 C 284.021 5.06619 1.16763 0
M  V30 3108 C 281.706 4.70539 1.7578 0
M  V30 3109 C 283.7 6.33581 0.696678 0
M  V30 3110 C 281.387 5.97481 1.28297 0
M  V30 3111 C 282.385 6.78833 0.753307 0
M  V30 3112 O 282.073 8.03393 0.285475 0
M  V30 3113 H 281.805 0.581707 0.344373 0
M  V30 3114 H 284.359 2.00736 0.435243 0
M  V30 3115 H 282.589 2.51265 2.93944 0
M  V30 3116 H 284.278 2.91536 2.82421 0
M  V30 3117 H 285.044 4.71948 1.11758 0
M  V30 3118 H 280.923 4.07293 2.15949 0
M  V30 3119 H 284.467 6.97027 0.282581 0
M  V30 3120 H 280.364 6.31651 1.32994 0
M  V30 3121 H 281.132 8.17497 0.405145 0
M  V30 3122 N 283.795 -0.628877 1.44509 0
M  V30 3123 C 284.728 -1.75367 1.46019 0
M  V30 3124 C 285.706 -1.59444 0.318787 0
M  V30 3125 O 286.89 -1.81297 0.516099 0
M  V30 3126 C 284.017 -3.12965 1.29501 0
M  V30 3127 C 283.063 -3.47532 2.47233 0
M  V30 3128 S 283.896 -3.44758 4.09758 0
M  V30 3129 C 285.052 -4.84973 3.95667 0
M  V30 3130 H 285.285 -1.7382 2.41193 0
M  V30 3131 H 282.818 -0.803686 1.31834 0
M  V30 3132 H 284.776 -3.92367 1.20658 0
M  V30 3133 H 283.437 -3.12049 0.358341 0
M  V30 3134 H 282.63 -4.47664 2.31544 0
M  V30 3135 H 282.232 -2.75598 2.52828 0
M  V30 3136 H 284.524 -5.74255 3.59496 0
M  V30 3137 H 285.467 -5.05716 4.95638 0
M  V30 3138 H 285.875 -4.59653 3.27688 0
M  V30 3139 N 285.273 -1.31445 -0.869486 0
M  V30 3140 C 286.684 -1.19042 -1.43826 0
M  V30 3141 C 287.035 0.202919 -1.95148 0
M  V30 3142 O 286.16 1.10071 -1.86315 0
M  V30 3143 C 286.755 -2.15499 -2.6143 0
M  V30 3144 C 285.314 -2.07028 -3.14351 0
M  V30 3145 C 284.461 -2.04701 -1.87063 0
M  V30 3146 H 287.412 -1.43489 -0.677984 0
M  V30 3147 H 287.433 -1.74488 -3.38134 0
M  V30 3148 H 286.945 -3.16899 -2.24046 0
M  V30 3149 H 285.046 -1.08825 -3.56354 0
M  V30 3150 H 285.159 -2.96157 -3.766 0
M  V30 3151 H 283.523 -1.49724 -2.06046 0
M  V30 3152 H 284.306 -3.07857 -1.51917 0
M  V30 3153 N 286.751 1.08385 -1.14413 0
M  V30 3154 C 287.976 1.85057 -0.936413 0
M  V30 3155 C 288.401 1.81055 0.509971 0
M  V30 3156 O 287.759 1.1958 1.36273 0
M  V30 3157 C 287.807 3.30505 -1.44217 0
M  V30 3158 O 286.911 4.07491 -0.634409 0
M  V30 3159 H 286.252 0.573425 -0.334784 0
M  V30 3160 H 288.782 1.36799 -1.52142 0
M  V30 3161 H 288.792 3.81348 -1.45043 0
M  V30 3162 H 287.467 3.32734 -2.49522 0
M  V30 3163 H 286.044 3.66368 -0.694902 0
M  V30 3164 N 288.23 0.939286 1.26551 0
M  V30 3165 C 289.455 0.602008 1.98471 0
M  V30 3166 C 289.88 -0.815624 1.69497 0
M  V30 3167 O 289.238 -1.54912 0.941905 0
M  V30 3168 C 289.286 0.848407 3.50477 0
M  V30 3169 O 288.39 -0.0804009 4.12322 0
M  V30 3170 H 287.731 0.23049 0.622712 0
M  V30 3171 H 290.261 1.2617 1.61066 0
M  V30 3172 H 290.271 0.768553 4.00696 0
M  V30 3173 H 288.946 1.88171 3.70897 0
M  V30 3174 H 287.523 0.0503508 3.72866 0
M  V30 3175 N 289.708 -1.40897 0.706093 0
M  V30 3176 C 290.957 -2.00284 0.238574 0
M  V30 3177 C 291.27 -1.56604 -1.17194 0
M  V30 3178 O 292.476 -2.08624 -1.73748 0
M  V30 3179 C 290.932 -3.57934 0.375623 0
M  V30 3180 C 290.54 -4.10591 1.79217 0
M  V30 3181 C 292.284 -4.24488 -0.0315857 0
M  V30 3182 C 290.191 -5.60712 1.88032 0
M  V30 3183 H 289.121 -0.749144 0.0854398 0
M  V30 3184 H 291.772 -1.61251 0.875813 0
M  V30 3185 H 290.154 -3.94622 -0.330042 0
M  V30 3186 H 291.328 -3.85301 2.52745 0
M  V30 3187 H 289.643 -3.56601 2.15 0
M  V30 3188 H 292.24 -5.34698 0.0136842 0
M  V30 3189 H 292.583 -4.02261 -1.072 0
M  V30 3190 H 293.116 -3.92873 0.624181 0
M  V30 3191 H 289.855 -5.87781 2.90161 0
M  V30 3192 H 289.375 -5.87896 1.18903 0
M  V30 3193 H 291.054 -6.25658 1.64805 0
M  V30 3194 N 291.186 -0.45159 -1.50991 0
M  V30 3195 C 292.433 0.110074 -2.02201 0
M  V30 3196 C 292.761 1.4146 -1.33489 0
M  V30 3197 O 292.016 1.90617 -0.443125 0
M  V30 3198 C 292.315 0.361728 -3.55565 0
M  V30 3199 C 291.981 -0.858717 -4.42648 0
M  V30 3200 C 290.643 -1.19338 -4.66167 0
M  V30 3201 C 292.995 -1.67221 -4.93646 0
M  V30 3202 C 290.323 -2.34195 -5.37931 0
M  V30 3203 C 292.675 -2.8119 -5.6667 0
M  V30 3204 C 291.339 -3.15094 -5.88449 0
M  V30 3205 H 290.609 0.040279 -0.739904 0
M  V30 3206 H 293.256 -0.601696 -1.81802 0
M  V30 3207 H 291.561 1.15554 -3.74372 0
M  V30 3208 H 293.258 0.80996 -3.92735 0
M  V30 3209 H 289.848 -0.58796 -4.24548 0
M  V30 3210 H 294.032 -1.42686 -4.75347 0
M  V30 3211 H 289.288 -2.6076 -5.53005 0
M  V30 3212 H 293.462 -3.44585 -6.05173 0
M  V30 3213 H 291.089 -4.04204 -6.43835 0
M  V30 3214 N 292.664 1.56529 -0.183458 0
M  V30 3215 C 293.596 2.15747 0.773697 0
M  V30 3216 C 294.609 1.1162 1.1851 0
M  V30 3217 O 295.798 1.3876 1.12285 0
M  V30 3218 C 292.898 2.6952 2.05456 0
M  V30 3219 C 292.071 3.98429 1.8048 0
M  V30 3220 C 291.13 4.37145 2.92901 0
M  V30 3221 O 290.156 5.04791 2.6301 0
M  V30 3222 N 291.358 3.99695 4.2098 0
M  V30 3223 H 294.123 2.98505 0.26736 0
M  V30 3224 H 291.684 1.619 -0.0010878 0
M  V30 3225 H 293.676 2.92412 2.79781 0
M  V30 3226 H 292.246 1.91282 2.47245 0
M  V30 3227 H 291.466 3.8379 0.899947 0
M  V30 3228 H 292.754 4.82597 1.61175 0
M  V30 3229 H 292.152 3.4526 4.48121 0
M  V30 3230 H 290.709 4.27562 4.9197 0
M  V30 3231 N 294.142 -0.090211 1.57342 0
M  V30 3232 C 295.419 -0.824761 1.77361 0
M  V30 3233 C 295.799 -1.96698 0.76637 0
M  V30 3234 O 295.147 -2.27586 -0.204179 0
M  V30 3235 C 295.357 -1.31481 3.23286 0
M  V30 3236 C 296.705 -1.75563 3.86604 0
M  V30 3237 O 297.729 -1.41093 3.27065 0
M  V30 3238 O 296.588 -2.39317 4.91314 0
M  V30 3239 H 293.682 -0.393776 0.727234 0
M  V30 3240 H 296.228 -0.0717138 1.69548 0
M  V30 3241 H 295 -0.496671 3.88135 0
M  V30 3242 H 294.623 -2.12973 3.35751 0
M  V30 3243 N 295.62 -1.53406 -0.361157 0
M  V30 3244 C 296.897 -1.60411 -1.11927 0
M  V30 3245 C 297.277 -0.414385 -2.06993 0
M  V30 3246 O 296.625 0.594976 -2.20618 0
M  V30 3247 C 296.835 -2.95652 -1.85448 0
M  V30 3248 C 298.183 -3.50386 -2.39823 0
M  V30 3249 O 299.207 -2.97711 -1.95568 0
M  V30 3250 O 298.066 -4.42482 -3.20737 0
M  V30 3251 H 295.16 -0.64811 -0.513695 0
M  V30 3252 H 297.706 -1.65749 -0.364065 0
M  V30 3253 H 296.478 -3.73682 -1.16091 0
M  V30 3254 H 296.101 -2.93825 -2.67866 0
M  V30 3255 N 297.098 0.621204 -1.44841 0
M  V30 3256 C 298.345 1.38055 -1.48145 0
M  V30 3257 C 298.673 1.94143 -0.117867 0
M  V30 3258 O 297.928 1.74713 0.881694 0
M  V30 3259 C 298.227 2.55675 -2.4973 0
M  V30 3260 C 297.893 2.17817 -3.94799 0
M  V30 3261 C 296.555 2.07205 -4.34303 0
M  V30 3262 C 298.907 1.88065 -4.86087 0
M  V30 3263 C 296.235 1.65045 -5.63007 0
M  V30 3264 C 298.587 1.47394 -6.15189 0
M  V30 3265 C 297.251 1.35331 -6.53637 0
M  V30 3266 H 296.521 0.505181 -0.542101 0
M  V30 3267 H 299.168 0.703477 -1.78111 0
M  V30 3268 H 297.473 3.2866 -2.13284 0
M  V30 3269 H 299.17 3.13904 -2.4953 0
M  V30 3270 H 295.76 2.26998 -3.63552 0
M  V30 3271 H 299.944 1.95168 -4.56315 0
M  V30 3272 H 295.2 1.54317 -5.91605 0
M  V30 3273 H 299.374 1.23415 -6.85377 0
M  V30 3274 H 297.001 1.02435 -7.53267 0
M  V30 3275 N 298.576 1.31904 0.862503 0
M  V30 3276 C 299.822 1.22197 1.61851 0
M  V30 3277 C 300.155 -0.217641 1.92977 0
M  V30 3278 O 299.43 -1.15264 1.56666 0
M  V30 3279 C 299.713 2.07378 2.94391 0
M  V30 3280 C 299.566 3.59678 2.70096 0
M  V30 3281 C 300.885 1.92891 3.95577 0
M  V30 3282 H 298.004 0.445255 0.587296 0
M  V30 3283 H 300.646 1.6177 0.99651 0
M  V30 3284 H 298.796 1.73758 3.47477 0
M  V30 3285 H 300.468 4.03472 2.23625 0
M  V30 3286 H 298.711 3.82735 2.04197 0
M  V30 3287 H 299.382 4.14595 3.64438 0
M  V30 3288 H 301.858 2.22327 3.51724 0
M  V30 3289 H 300.734 2.54781 4.86187 0
M  V30 3290 H 300.995 0.894315 4.3296 0
M  V30 3291 N 300.054 -1.07777 1.14986 0
M  V30 3292 C 301.303 -1.79669 0.916617 0
M  V30 3293 C 301.616 -1.87474 -0.557917 0
M  V30 3294 O 302.822 -2.55845 -0.908617 0
M  V30 3295 C 301.278 -3.22848 1.59051 0
M  V30 3296 C 300.886 -3.23257 3.10176 0
M  V30 3297 C 302.63 -3.99379 1.43864 0
M  V30 3298 C 300.537 -4.61063 3.70372 0
M  V30 3299 H 299.467 -0.673349 0.33929 0
M  V30 3300 H 302.118 -1.21003 1.37951 0
M  V30 3301 H 300.5 -3.8168 1.0553 0
M  V30 3302 H 301.674 -2.74095 3.70417 0
M  V30 3303 H 299.989 -2.60222 3.25074 0
M  V30 3304 H 302.586 -5.0122 1.86232 0
M  V30 3305 H 302.929 -4.14511 0.385564 0
M  V30 3306 H 303.462 -3.47032 1.94457 0
M  V30 3307 H 300.201 -4.51135 4.7556 0
M  V30 3308 H 299.721 -5.1048 3.14913 0
M  V30 3309 H 301.4 -5.30034 3.71043 0
M  V30 3310 N 301.532 -0.945985 -1.26051 0
M  V30 3311 C 302.943 -0.638096 -1.75457 0
M  V30 3312 C 303.294 0.846672 -1.76991 0
M  V30 3313 O 302.419 1.66262 -1.38513 0
M  V30 3314 C 303.014 -1.15157 -3.18629 0
M  V30 3315 C 301.573 -0.894004 -3.65629 0
M  V30 3316 C 300.72 -1.29967 -2.44957 0
M  V30 3317 H 303.671 -1.12376 -1.1206 0
M  V30 3318 H 303.692 -0.507615 -3.77099 0
M  V30 3319 H 303.204 -2.23222 -3.1748 0
M  V30 3320 H 301.305 0.172057 -3.72203 0
M  V30 3321 H 301.418 -1.52439 -4.54202 0
M  V30 3322 H 299.782 -0.718078 -2.44368 0
M  V30 3323 H 300.565 -2.38935 -2.46505 0
M  V30 3324 N 303.011 1.40521 -0.713556 0
M  V30 3325 C 304.288 1.94775 -0.17943 0
M  V30 3326 C 304.668 1.65184 1.31444 0
M  V30 3327 O 304.016 0.968429 2.06963 0
M  V30 3328 C 304.226 3.45543 -0.489986 0
M  V30 3329 C 305.574 4.22442 -0.427536 0
M  V30 3330 O 306.598 3.53644 -0.425929 0
M  V30 3331 O 305.457 5.4501 -0.403292 0
M  V30 3332 H 302.551 0.826606 -0.0255192 0
M  V30 3333 H 305.097 1.5014 -0.790949 0
M  V30 3334 H 303.869 3.60432 -1.5233 0
M  V30 3335 H 303.492 3.97311 0.151598 0
M  V30 3336 N 304.489 0.459591 1.5075 0
M  V30 3337 C 305.738 -0.100971 2.01447 0
M  V30 3338 C 306.051 -1.41816 1.34713 0
M  V30 3339 O 307.257 -2.06299 1.76502 0
M  V30 3340 C 305.713 -0.23047 3.59161 0
M  V30 3341 C 305.321 1.0776 4.34847 0
M  V30 3342 C 307.065 -0.743608 4.17936 0
M  V30 3343 C 304.972 0.91253 5.84317 0
M  V30 3344 H 303.902 -0.0415102 0.752856 0
M  V30 3345 H 306.553 0.592742 1.73663 0
M  V30 3346 H 304.935 -0.987703 3.83485 0
M  V30 3347 H 306.109 1.8449 4.22256 0
M  V30 3348 H 304.424 1.52097 3.87628 0
M  V30 3349 H 307.021 -0.883959 5.27343 0
M  V30 3350 H 307.364 -1.73196 3.78562 0
M  V30 3351 H 307.897 -0.04408 3.97776 0
M  V30 3352 H 304.636 1.87391 6.28144 0
M  V30 3353 H 304.156 0.185422 5.99513 0
M  V30 3354 H 305.835 0.574547 6.44444 0
M  V30 3355 N 305.967 -1.56429 0.191757 0
M  V30 3356 C 307.192 -2.02309 -0.456706 0
M  V30 3357 C 307.617 -1.07103 -1.5463 0
M  V30 3358 O 306.975 -0.0539677 -1.8122 0
M  V30 3359 C 307.023 -3.46654 -0.993159 0
M  V30 3360 O 306.127 -3.54559 -2.10622 0
M  V30 3361 H 305.468 -0.655303 -0.107114 0
M  V30 3362 H 307.998 -2.02364 0.301653 0
M  V30 3363 H 308.008 -3.86377 -1.31061 0
M  V30 3364 H 306.683 -4.1544 -0.195504 0
M  V30 3365 H 305.26 -3.26708 -1.79767 0
M  V30 3366 N 307.445 0.0818655 -1.57387 0
M  V30 3367 C 308.355 1.11642 -2.06333 0
M  V30 3368 C 309.371 1.43033 -0.99083 0
M  V30 3369 O 310.547 1.53411 -1.30488 0
M  V30 3370 C 307.612 2.41342 -2.48907 0
M  V30 3371 C 306.673 2.17014 -3.7041 0
M  V30 3372 C 305.906 3.4053 -4.10944 0
M  V30 3373 O 306.129 4.4927 -3.51444 0
M  V30 3374 O 305.063 3.29336 -5.03807 0
M  V30 3375 H 308.889 0.730657 -2.9478 0
M  V30 3376 H 306.474 0.295301 -1.46452 0
M  V30 3377 H 308.356 3.17691 -2.76858 0
M  V30 3378 H 307.031 2.79319 -1.63593 0
M  V30 3379 H 305.938 1.38403 -3.47556 0
M  V30 3380 H 307.271 1.83923 -4.56545 0
M  V30 3381 N 308.923 1.53595 0.353017 0
M  V30 3382 C 310.334 1.61937 0.929153 0
M  V30 3383 C 310.685 0.494686 1.89861 0
M  V30 3384 O 309.81 -0.377017 2.1309 0
M  V30 3385 C 310.405 2.93526 1.69199 0
M  V30 3386 C 308.964 3.04161 2.21727 0
M  V30 3387 C 308.111 2.57322 1.03348 0
M  V30 3388 H 311.062 1.58155 0.131431 0
M  V30 3389 H 311.083 2.82034 2.55416 0
M  V30 3390 H 310.595 3.75362 0.986144 0
M  V30 3391 H 308.696 2.26938 2.95516 0
M  V30 3392 H 308.809 4.09465 2.48748 0
M  V30 3393 H 307.173 2.12499 1.40414 0
M  V30 3394 H 307.956 3.41588 0.342428 0
M  V30 3395 N 310.401 -0.613514 1.45168 0
M  V30 3396 C 311.649 -1.36997 1.48581 0
M  V30 3397 C 311.97 -1.94589 0.126545 0
M  V30 3398 O 311.24 -1.76816 -0.843372 0
M  V30 3399 H 309.82 -0.508558 0.547154 0
M  V30 3400 H 312.482 -0.720853 1.81079 0
M  V30 3401 H 311.578 -2.1924 2.22127 0
M  V30 3402 N 311.879 -1.3236 -0.855495 0
M  V30 3403 C 313.107 -1.2587 -1.64208 0
M  V30 3404 C 313.522 0.173457 -1.88002 0
M  V30 3405 O 312.879 1.11027 -1.44842 0
M  V30 3406 C 312.93 -2.01424 -3.00184 0
M  V30 3407 O 312.651 -3.39051 -2.77445 0
M  V30 3408 C 314.152 -2.01948 -3.94629 0
M  V30 3409 H 311.372 -0.434318 -0.511477 0
M  V30 3410 H 313.916 -1.74469 -1.0668 0
M  V30 3411 H 312.071 -1.56549 -3.5436 0
M  V30 3412 H 312.485 -3.77711 -3.63916 0
M  V30 3413 H 313.959 -2.59297 -4.87308 0
M  V30 3414 H 314.436 -1.00554 -4.27534 0
M  V30 3415 H 315.042 -2.46767 -3.4639 0
M  V30 3416 N 313.357 1.07166 -1.15556 0
M  V30 3417 C 314.603 1.80222 -0.942961 0
M  V30 3418 C 314.958 1.85121 0.524209 0
M  V30 3419 O 314.251 1.32531 1.38369 0
M  V30 3420 C 314.445 3.24707 -1.49332 0
M  V30 3421 C 314.274 3.33887 -3.01247 0
M  V30 3422 C 313.044 3.44337 -3.69811 0
M  V30 3423 C 315.242 3.24484 -3.99017 0
M  V30 3424 N 313.224 3.42439 -5.09518 0
M  V30 3425 C 314.595 3.29726 -5.25053 0
M  V30 3426 C 316.65 3.08307 -3.90962 0
M  V30 3427 C 315.353 3.20455 -6.43973 0
M  V30 3428 C 317.379 3.00371 -5.09442 0
M  V30 3429 C 316.741 3.06227 -6.34354 0
M  V30 3430 H 312.84 0.672709 -0.398731 0
M  V30 3431 H 315.424 1.27905 -1.46794 0
M  V30 3432 H 313.595 3.7544 -0.994946 0
M  V30 3433 H 315.327 3.85894 -1.21935 0
M  V30 3434 H 312.082 3.48762 -3.20409 0
M  V30 3435 H 312.506 3.45013 -5.8249 0
M  V30 3436 H 317.148 3.02633 -2.95251 0
M  V30 3437 H 314.866 3.24888 -7.39914 0
M  V30 3438 H 318.452 2.88955 -5.04971 0
M  V30 3439 H 317.332 3.00132 -7.24493 0
M  V30 3440 N 314.835 0.952656 1.25548 0
M  V30 3441 C 315.782 0.47008 2.25962 0
M  V30 3442 C 316.752 -0.476384 1.59122 0
M  V30 3443 O 317.937 -0.39007 1.8677 0
M  V30 3444 C 315.077 -0.247881 3.44209 0
M  V30 3445 C 314.19 0.735591 4.25691 0
M  V30 3446 C 313.325 -0.0047306 5.312 0
M  V30 3447 C 312.364 0.969805 6.04368 0
M  V30 3448 N 311.501 0.260486 7.01617 0
M  V30 3449 H 316.341 1.33126 2.66611 0
M  V30 3450 H 313.878 0.66765 1.31076 0
M  V30 3451 H 315.836 -0.680695 4.1161 0
M  V30 3452 H 314.466 -1.07312 3.0444 0
M  V30 3453 H 313.518 1.28689 3.57971 0
M  V30 3454 H 314.83 1.47934 4.76358 0
M  V30 3455 H 313.984 -0.496275 6.04667 0
M  V30 3456 H 312.723 -0.781282 4.81401 0
M  V30 3457 H 311.728 1.47237 5.29718 0
M  V30 3458 H 312.953 1.74655 6.56256 0
M  V30 3459 H 310.899 -0.497364 6.54112 0
M  V30 3460 H 310.816 0.943362 7.50091 0
M  V30 3461 H 312.084 -0.209587 7.79218 0
M  V30 3462 N 316.313 -1.40141 0.720998 0
M  V30 3463 C 317.562 -2.0002 0.259804 0
M  V30 3464 C 317.875 -1.57839 -1.15526 0
M  V30 3465 O 319.081 -2.10455 -1.71525 0
M  V30 3466 C 317.537 -3.57516 0.413566 0
M  V30 3467 C 317.145 -4.08667 1.83562 0
M  V30 3468 C 318.889 -4.24498 0.0134387 0
M  V30 3469 C 316.796 -5.58686 1.93968 0
M  V30 3470 H 315.726 -0.748195 0.0933806 0
M  V30 3471 H 318.377 -1.60313 0.892866 0
M  V30 3472 H 316.759 -3.9495 -0.288169 0
M  V30 3473 H 317.933 -3.82598 2.56817 0
M  V30 3474 H 316.248 -3.543 2.1877 0
M  V30 3475 H 318.845 -5.34654 0.0703954 0
M  V30 3476 H 319.188 -4.03375 -1.02927 0
M  V30 3477 H 319.721 -3.92188 0.665815 0
M  V30 3478 H 316.46 -5.8467 2.96379 0
M  V30 3479 H 315.98 -5.86602 1.25131 0
M  V30 3480 H 317.659 -6.23875 1.71431 0
M  V30 3481 N 317.792 -0.46758 -1.50504 0
M  V30 3482 C 319.017 0.0886943 -2.0721 0
M  V30 3483 C 319.442 1.33057 -1.32956 0
M  V30 3484 O 318.8 1.77354 -0.376197 0
M  V30 3485 C 318.848 0.359202 -3.58806 0
M  V30 3486 O 317.952 1.44034 -3.8643 0
M  V30 3487 H 317.293 -0.0114349 -0.663902 0
M  V30 3488 H 319.823 -0.657613 -1.93744 0
M  V30 3489 H 319.833 0.600742 -4.03553 0
M  V30 3490 H 318.508 -0.548311 -4.1227 0
M  V30 3491 H 317.085 1.18638 -3.53524 0
M  V30 3492 N 319.27 1.56325 -0.20005 0
M  V30 3493 C 320.233 2.18084 0.705132 0
M  V30 3494 C 321.233 1.13666 1.1374 0
M  V30 3495 O 322.423 1.39023 1.04968 0
M  V30 3496 C 319.555 2.78689 1.96329 0
M  V30 3497 H 320.748 2.99435 0.167023 0
M  V30 3498 H 318.301 1.56221 0.0495725 0
M  V30 3499 H 319.036 2.0115 2.5438 0
M  V30 3500 H 318.821 3.55133 1.66202 0
M  V30 3501 H 320.311 3.26096 2.60866 0
M  V30 3502 N 320.748 -0.0735177 1.57428 0
M  V30 3503 C 322.164 -0.428264 1.53747 0
M  V30 3504 C 322.364 -1.79272 0.91998 0
M  V30 3505 O 321.42 -2.47051 0.521745 0
M  V30 3506 C 322.733 -0.370914 2.98404 0
M  V30 3507 C 324.281 -0.451224 3.0973 0
M  V30 3508 C 324.756 -0.4238 4.56035 0
M  V30 3509 N 326.247 -0.483925 4.60665 0
M  V30 3510 C 326.982 -0.484891 5.71346 0
M  V30 3511 N 326.478 -0.440775 6.91396 0
M  V30 3512 N 328.271 -0.531319 5.59583 0
M  V30 3513 H 320.422 0.819949 1.95935 0
M  V30 3514 H 322.685 0.307493 0.896745 0
M  V30 3515 H 322.391 0.564956 3.47133 0
M  V30 3516 H 322.265 -1.18176 3.5821 0
M  V30 3517 H 324.652 -1.37752 2.60976 0
M  V30 3518 H 324.733 0.388167 2.52838 0
M  V30 3519 H 324.377 0.498638 5.05446 0
M  V30 3520 H 324.307 -1.2807 5.10789 0
M  V30 3521 H 326.798 -0.522338 3.74273 0
M  V30 3522 H 327.111 -0.44539 7.71515 0
M  V30 3523 H 325.456 -0.40749 6.93804 0
M  V30 3524 H 328.647 -0.563464 4.64696 0
M  V30 3525 H 328.82 -0.528603 6.4584 0
M  V30 3526 N 322.226 -1.5378 -0.344866 0
M  V30 3527 C 323.473 -1.70963 -1.08526 0
M  V30 3528 C 323.801 -0.472126 -1.88683 0
M  V30 3529 O 323.056 0.546116 -1.87926 0
M  V30 3530 C 323.355 -2.92407 -2.05506 0
M  V30 3531 C 323.021 -4.28066 -1.41671 0
M  V30 3532 C 321.683 -4.64951 -1.2399 0
M  V30 3533 C 324.035 -5.12344 -0.956726 0
M  V30 3534 C 321.363 -5.83733 -0.589277 0
M  V30 3535 C 323.715 -6.3179 -0.320015 0
M  V30 3536 C 322.379 -6.67372 -0.130881 0
M  V30 3537 H 321.649 -0.625598 -0.397124 0
M  V30 3538 H 324.296 -1.87995 -0.36469 0
M  V30 3539 H 322.601 -2.69973 -2.8394 0
M  V30 3540 H 324.298 -3.02895 -2.62784 0
M  V30 3541 H 320.888 -3.99034 -1.56429 0
M  V30 3542 H 325.072 -4.8438 -1.08118 0
M  V30 3543 H 320.328 -6.09877 -0.431344 0
M  V30 3544 H 324.502 -6.96386 0.0445072 0
M  V30 3545 H 322.129 -7.59273 0.375318 0
M  V30 3546 N 323.704 0.605807 -1.45491 0
M  V30 3547 C 324.929 1.39625 -1.53361 0
M  V30 3548 C 325.354 1.87351 -0.167645 0
M  V30 3549 O 324.712 1.60243 0.848051 0
M  V30 3550 C 324.76 2.57559 -2.5238 0
M  V30 3551 O 323.864 3.58248 -2.04285 0
M  V30 3552 H 323.205 0.416771 -0.516912 0
M  V30 3553 H 325.735 0.737103 -1.90861 0
M  V30 3554 H 325.745 3.0478 -2.71244 0
M  V30 3555 H 324.42 2.22171 -3.51586 0
M  V30 3556 H 322.997 3.17664 -1.95305 0
M  V30 3557 N 325.182 1.32811 0.848464 0
M  V30 3558 C 326.459 1.14334 1.58704 0
M  V30 3559 C 326.839 -0.293948 2.09043 0
M  V30 3560 O 326.187 -1.29153 1.88499 0
M  V30 3561 C 326.397 2.17626 2.72837 0
M  V30 3562 C 327.745 2.51282 3.42261 0
M  V30 3563 O 328.769 2.16219 2.83068 0
M  V30 3564 O 327.628 3.11413 4.49093 0
M  V30 3565 H 324.722 0.441601 0.699226 0
M  V30 3566 H 327.268 1.44362 0.892053 0
M  V30 3567 H 326.04 3.14211 2.3321 0
M  V30 3568 H 325.663 1.88628 3.50008 0
M  V30 3569 N 326.66 -1.06551 1.16123 0
M  V30 3570 C 327.908 -1.78947 0.939267 0
M  V30 3571 C 328.229 -1.87532 -0.534476 0
M  V30 3572 O 327.499 -1.38211 -1.38833 0
M  V30 3573 H 326.079 -0.662807 0.344523 0
M  V30 3574 H 328.741 -1.28725 1.46342 0
M  V30 3575 H 327.837 -2.81117 1.35572 0
M  V30 3576 N 328.138 -0.959301 -1.25041 0
M  V30 3577 C 329.068 -0.501388 -2.28053 0
M  V30 3578 C 330.049 0.454673 -1.63911 0
M  V30 3579 O 331.234 0.352618 -1.90972 0
M  V30 3580 C 328.364 0.217224 -3.4662 0
M  V30 3581 C 327.318 -0.654034 -4.22973 0
M  V30 3582 C 326.644 0.195589 -5.34342 0
M  V30 3583 C 327.944 -1.93447 -4.85155 0
M  V30 3584 H 329.638 -1.36238 -2.66608 0
M  V30 3585 H 327.184 -0.656534 -1.28163 0
M  V30 3586 H 329.137 0.548732 -4.17812 0
M  V30 3587 H 327.861 1.1125 -3.07068 0
M  V30 3588 H 326.52 -0.968693 -3.5357 0
M  V30 3589 H 326.168 1.09076 -4.91031 0
M  V30 3590 H 325.868 -0.384091 -5.86343 0
M  V30 3591 H 327.392 0.521958 -6.08365 0
M  V30 3592 H 328.806 -1.66908 -5.48466 0
M  V30 3593 H 327.203 -2.46018 -5.47353 0
M  V30 3594 H 328.273 -2.63466 -4.07079 0
M  V30 3595 N 329.616 1.39756 -0.72842 0
M  V30 3596 C 330.526 2.34444 -0.0855374 0
M  V30 3597 C 331.542 1.57976 0.729356 0
M  V30 3598 O 332.718 1.90301 0.659346 0
M  V30 3599 C 329.783 3.36965 0.815798 0
M  V30 3600 C 328.844 4.29299 -0.0105996 0
M  V30 3601 C 328.077 5.26923 0.84781 0
M  V30 3602 O 328.3 5.30859 2.08673 0
M  V30 3603 O 327.234 6.01249 0.279969 0
M  V30 3604 H 331.06 2.91065 -0.866892 0
M  V30 3605 H 328.645 1.4117 -0.48902 0
M  V30 3606 H 330.527 3.99804 1.33171 0
M  V30 3607 H 329.202 2.82739 1.57608 0
M  V30 3608 H 328.109 3.69703 -0.571877 0
M  V30 3609 H 329.442 4.86712 -0.73295 0
M  V30 3610 N 331.094 0.475555 1.50254 0
M  V30 3611 C 332.319 -0.0777042 2.07254 0
M  V30 3612 C 332.744 -1.3235 1.3366 0
M  V30 3613 O 332.102 -1.77152 0.385597 0
M  V30 3614 C 332.15 -0.340169 3.58992 0
M  V30 3615 O 331.254 -1.41982 3.87188 0
M  V30 3616 H 330.595 0.0149556 0.663832 0
M  V30 3617 H 333.125 0.667878 1.93392 0
M  V30 3618 H 333.135 -0.579332 4.03866 0
M  V30 3619 H 331.81 0.570167 4.11973 0
M  V30 3620 H 330.387 -1.16762 3.54148 0
M  V30 3621 N 332.573 -1.56217 0.208337 0
M  V30 3622 C 333.521 -2.21053 -0.723769 0
M  V30 3623 C 334.515 -1.18578 -1.20978 0
M  V30 3624 O 335.721 -1.36691 -1.17114 0
M  V30 3625 H 332.096 -0.708595 -0.251788 0
M  V30 3626 H 334.067 -2.98006 -0.153365 0
M  V30 3627 C 332.816 -2.89417 -1.927 0
M  V30 3628 H 332.139 -3.68019 -1.56212 0
M  V30 3629 H 333.579 -3.38201 -2.55727 0
M  V30 3630 C 332.038 -1.91166 -2.77411 0
M  V30 3631 O 332.568 -1.42026 -3.75754 0
M  V30 3632 N 330.774 -1.59105 -2.43175 0
M  V30 3633 H 330.321 -1.99259 -1.63259 0
M  V30 3634 H 330.279 -0.936255 -3.00136 0
M  V30 3635 N 334.051 0.0651679 -1.57465 0
M  V30 3636 C 335.276 0.779605 -1.9219 0
M  V30 3637 C 335.701 1.69988 -0.805333 0
M  V30 3638 O 335.059 1.79685 0.241435 0
M  V30 3639 C 335.107 1.54364 -3.2589 0
M  V30 3640 O 334.211 2.65474 -3.1559 0
M  V30 3641 H 333.552 0.212249 -0.629163 0
M  V30 3642 H 336.082 0.0314294 -2.04576 0
M  V30 3643 H 336.092 1.92146 -3.59922 0
M  V30 3644 H 334.767 0.868457 -4.06732 0
M  V30 3645 H 333.344 2.30501 -2.93128 0
M  V30 3646 N 335.529 1.53961 0.336706 0
M  V30 3647 C 336.754 1.75797 1.10046 0
M  V30 3648 C 337.179 0.498985 1.81361 0
M  V30 3649 O 336.537 -0.548769 1.72795 0
M  V30 3650 C 336.585 2.94257 2.08436 0
M  V30 3651 O 335.689 2.64883 3.16087 0
M  V30 3652 H 335.03 0.582936 0.317934 0
M  V30 3653 H 337.56 2.00945 0.38501 0
M  V30 3654 H 337.57 3.21237 2.51537 0
M  V30 3655 H 336.245 3.85564 1.55927 0
M  V30 3656 H 334.822 2.48812 2.77753 0
M  V30 3657 N 337.007 -0.598083 1.45811 0
M  V30 3658 C 338.235 -1.38322 1.53866 0
M  V30 3659 C 338.65 -1.87992 0.174479 0
M  V30 3660 O 338.007 -1.62756 -0.825627 0
M  V30 3661 C 338.058 -2.58125 2.53089 0
M  V30 3662 O 337.779 -2.10516 3.84206 0
M  V30 3663 C 339.28 -3.50869 2.70935 0
M  V30 3664 H 336.5 -0.423093 0.520801 0
M  V30 3665 H 339.044 -0.728527 1.91083 0
M  V30 3666 H 337.199 -3.19615 2.18917 0
M  V30 3667 H 337.613 -2.88425 4.38077 0
M  V30 3668 H 339.087 -4.31451 3.44317 0
M  V30 3669 H 339.564 -4.01822 1.77301 0
M  V30 3670 H 340.17 -2.95225 3.06141 0
M  V30 3671 N 338.485 -1.33259 -0.841409 0
M  V30 3672 C 339.417 -1.19136 -1.95804 0
M  V30 3673 C 340.43 -0.122965 -1.62335 0
M  V30 3674 O 341.619 -0.373154 -1.74556 0
M  V30 3675 C 338.719 -0.804268 -3.29218 0
M  V30 3676 C 337.892 -1.96376 -3.90839 0
M  V30 3677 C 336.951 -1.55806 -5.02604 0
M  V30 3678 O 335.977 -2.27203 -5.21888 0
M  V30 3679 N 337.179 -0.461609 -5.78662 0
M  V30 3680 H 339.944 -2.15326 -2.08458 0
M  V30 3681 H 337.505 -1.25971 -1.017 0
M  V30 3682 H 339.497 -0.51501 -4.0141 0
M  V30 3683 H 338.067 0.0668809 -3.12528 0
M  V30 3684 H 337.287 -2.41879 -3.11269 0
M  V30 3685 H 338.575 -2.73966 -4.28742 0
M  V30 3686 H 337.973 0.132343 -5.65545 0
M  V30 3687 H 336.53 -0.232013 -6.51387 0
M  V30 3688 N 339.963 1.05934 -1.16686 0
M  V30 3689 C 341.21 1.788 -0.950622 0
M  V30 3690 C 341.538 1.87384 0.521305 0
M  V30 3691 O 340.793 1.36438 1.40297 0
M  V30 3692 C 341.092 3.23105 -1.52767 0
M  V30 3693 C 340.758 3.34594 -3.02254 0
M  V30 3694 C 339.42 3.37437 -3.43059 0
M  V30 3695 C 341.772 3.36219 -3.98254 0
M  V30 3696 C 339.1 3.39525 -4.78477 0
M  V30 3697 C 341.452 3.39845 -5.33562 0
M  V30 3698 C 340.116 3.40971 -5.73842 0
M  V30 3699 H 339.386 0.654275 -0.347857 0
M  V30 3700 H 342.033 1.24555 -1.45459 0
M  V30 3701 H 340.338 3.80227 -0.94524 0
M  V30 3702 H 342.035 3.7809 -1.336 0
M  V30 3703 H 338.625 3.3309 -2.6972 0
M  V30 3704 H 342.809 3.33231 -3.67792 0
M  V30 3705 H 338.065 3.38703 -5.09009 0
M  V30 3706 H 342.239 3.4005 -6.07733 0
M  V30 3707 H 339.866 3.42342 -6.78753 0
M  V30 3708 N 341.441 0.965919 1.2453 0
M  V30 3709 C 342.351 0.502154 2.29163 0
M  V30 3710 C 343.367 -0.436017 1.68448 0
M  V30 3711 O 344.543 -0.309497 1.99008 0
M  V30 3712 C 341.608 -0.201956 3.46111 0
M  V30 3713 C 340.669 0.775821 4.22232 0
M  V30 3714 C 339.902 0.105217 5.33596 0
M  V30 3715 O 340.125 -1.10683 5.59558 0
M  V30 3716 O 339.059 0.796475 5.96607 0
M  V30 3717 H 342.885 1.37194 2.70946 0
M  V30 3718 H 340.47 0.732875 1.30189 0
M  V30 3719 H 342.352 -0.597564 4.17142 0
M  V30 3720 H 341.027 -1.04673 3.06309 0
M  V30 3721 H 339.934 1.22185 3.53584 0
M  V30 3722 H 341.267 1.58896 4.65846 0
M  V30 3723 N 342.919 -1.39368 0.735821 0
M  V30 3724 C 344.165 -2.00794 0.284544 0
M  V30 3725 C 344.498 -1.58255 -1.12557 0
M  V30 3726 O 343.773 -0.811819 -1.76748 0
M  V30 3727 C 344.056 -3.58011 0.387337 0
M  V30 3728 C 343.909 -4.10566 1.83728 0
M  V30 3729 C 345.228 -4.395 -0.22975 0
M  V30 3730 H 342.347 -0.729501 0.104866 0
M  V30 3731 H 344.989 -1.65564 0.93213 0
M  V30 3732 H 343.139 -3.88154 -0.164006 0
M  V30 3733 H 344.811 -3.91139 2.44556 0
M  V30 3734 H 343.054 -3.64095 2.35833 0
M  V30 3735 H 343.725 -5.19702 1.86047 0
M  V30 3736 H 346.201 -4.15406 0.240257 0
M  V30 3737 H 345.077 -5.48752 -0.127485 0
M  V30 3738 H 345.338 -4.22062 -1.3159 0
M  V30 3739 N 344.397 -0.483516 -1.5 0
M  V30 3740 C 345.344 0.304164 -2.28787 0
M  V30 3741 C 346.314 0.976114 -1.34392 0
M  V30 3742 O 347.499 0.986156 -1.63339 0
M  V30 3743 C 344.639 1.37298 -3.16612 0
M  V30 3744 C 343.752 0.714561 -4.26049 0
M  V30 3745 C 342.887 1.76232 -5.01114 0
M  V30 3746 C 341.926 1.08483 -6.0241 0
M  V30 3747 N 341.063 2.076 -6.70706 0
M  V30 3748 H 345.903 -0.373981 -2.95644 0
M  V30 3749 H 343.44 -0.196275 -1.45785 0
M  V30 3750 H 345.398 2.00445 -3.65893 0
M  V30 3751 H 344.028 2.02012 -2.51776 0
M  V30 3752 H 343.08 -0.0297798 -3.80388 0
M  V30 3753 H 344.392 0.180383 -4.98474 0
M  V30 3754 H 343.546 2.46929 -5.54176 0
M  V30 3755 H 342.285 2.33033 -4.28424 0
M  V30 3756 H 341.29 0.363545 -5.48597 0
M  V30 3757 H 342.515 0.523551 -6.77079 0
M  V30 3758 H 340.461 2.63394 -6.00799 0
M  V30 3759 H 340.378 1.59201 -7.39047 0
M  V30 3760 H 341.646 2.77639 -7.2838 0
M  V30 3761 N 345.875 1.56104 -0.216619 0
M  V30 3762 C 346.822 2.2007 0.695531 0
M  V30 3763 C 347.792 1.15471 1.19397 0
M  V30 3764 O 348.977 1.43807 1.25396 0
M  V30 3765 C 346.117 2.88073 1.90021 0
M  V30 3766 C 345.23 4.07253 1.44113 0
M  V30 3767 C 344.365 4.63052 2.603 0
M  V30 3768 C 343.404 5.74545 2.11103 0
M  V30 3769 N 342.541 6.24656 3.20545 0
M  V30 3770 H 347.381 2.97655 0.143327 0
M  V30 3771 H 344.918 1.46982 0.0589934 0
M  V30 3772 H 346.876 3.25681 2.60745 0
M  V30 3773 H 345.506 2.13015 2.42538 0
M  V30 3774 H 344.558 3.75164 0.628999 0
M  V30 3775 H 345.87 4.8783 1.04036 0
M  V30 3776 H 345.024 5.03078 3.39113 0
M  V30 3777 H 343.763 3.81628 3.03663 0
M  V30 3778 H 342.768 5.34027 1.3075 0
M  V30 3779 H 343.993 6.57801 1.68746 0
M  V30 3780 H 341.939 5.46148 3.63399 0
M  V30 3781 H 341.856 7.00343 2.84704 0
M  V30 3782 H 343.124 6.69338 3.99508 0
M  V30 3783 N 347.353 -0.0568162 1.57498 0
M  V30 3784 C 348.583 -0.764515 1.91934 0
M  V30 3785 C 348.991 -1.70877 0.81227 0
M  V30 3786 O 348.334 -1.82351 -0.222213 0
M  V30 3787 C 348.396 -1.5994 3.21962 0
M  V30 3788 C 348.06 -0.822925 4.4953 0
M  V30 3789 C 349.057 -0.135464 5.19723 0
M  V30 3790 C 346.742 -0.785666 4.96117 0
M  V30 3791 C 348.736 0.578861 6.34766 0
M  V30 3792 C 346.423 -0.0675784 6.11063 0
M  V30 3793 C 347.421 0.613471 6.80239 0
M  V30 3794 O 347.109 1.31996 7.92989 0
M  V30 3795 H 346.841 -0.221647 0.63863 0
M  V30 3796 H 349.395 -0.0268218 2.05382 0
M  V30 3797 H 347.625 -2.38026 3.04763 0
M  V30 3798 H 349.314 -2.18715 3.41934 0
M  V30 3799 H 350.08 -0.155458 4.84751 0
M  V30 3800 H 345.959 -1.30524 4.42136 0
M  V30 3801 H 349.503 1.111 6.88696 0
M  V30 3802 H 345.4 -0.0455636 6.45484 0
M  V30 3803 H 346.168 1.23077 8.09194 0
M  V30 3804 N 348.832 -1.54138 -0.328536 0
M  V30 3805 C 350.078 -1.7236 -1.06865 0
M  V30 3806 C 350.411 -0.493231 -1.87832 0
M  V30 3807 O 349.686 0.5098 -1.877 0
M  V30 3808 C 349.969 -2.99621 -1.99747 0
M  V30 3809 C 349.822 -4.32899 -1.22143 0
M  V30 3810 C 351.141 -3.22615 -2.99345 0
M  V30 3811 H 348.26 -0.627151 -0.387105 0
M  V30 3812 H 350.902 -1.86827 -0.345767 0
M  V30 3813 H 349.052 -2.87418 -2.61387 0
M  V30 3814 H 350.724 -4.56978 -0.630017 0
M  V30 3815 H 348.967 -4.30628 -0.523628 0
M  V30 3816 H 349.638 -5.18154 -1.90318 0
M  V30 3817 H 352.114 -3.34248 -2.47826 0
M  V30 3818 H 350.99 -4.13027 -3.61524 0
M  V30 3819 H 351.251 -2.3961 -3.71536 0
M  V30 3820 N 350.31 0.590341 -1.46126 0
M  V30 3821 C 351.24 1.71032 -1.58966 0
M  V30 3822 C 352.221 1.64302 -0.440335 0
M  V30 3823 O 353.406 1.82436 -0.665634 0
M  V30 3824 C 350.536 3.09665 -1.57241 0
M  V30 3825 C 349.49 3.31221 -2.71066 0
M  V30 3826 C 348.816 4.70303 -2.54399 0
M  V30 3827 C 350.116 3.19796 -4.1295 0
M  V30 3828 H 351.81 1.60543 -2.52718 0
M  V30 3829 H 349.356 0.770933 -1.21625 0
M  V30 3830 H 351.309 3.87831 -1.64819 0
M  V30 3831 H 350.033 3.21036 -0.600289 0
M  V30 3832 H 348.692 2.55452 -2.62944 0
M  V30 3833 H 348.34 4.78429 -1.55288 0
M  V30 3834 H 348.04 4.85679 -3.30741 0
M  V30 3835 H 349.564 5.50647 -2.63857 0
M  V30 3836 H 350.978 3.87815 -4.22223 0
M  V30 3837 H 349.375 3.46696 -4.89818 0
M  V30 3838 H 350.445 2.16983 -4.33643 0
M  V30 3839 N 351.788 1.33704 0.83433 0
M  V30 3840 C 353.199 1.22813 1.4062 0
M  V30 3841 C 353.55 -0.151107 1.95617 0
M  V30 3842 O 352.675 -1.05092 1.89168 0
M  V30 3843 C 353.27 2.22355 2.55624 0
M  V30 3844 C 351.829 2.1529 3.08751 0
M  V30 3845 C 350.976 2.09589 1.8157 0
M  V30 3846 H 353.927 1.45236 0.639702 0
M  V30 3847 H 353.948 1.83391 3.33389 0
M  V30 3848 H 353.46 3.22728 2.15566 0
M  V30 3849 H 351.561 1.18235 3.53343 0
M  V30 3850 H 351.674 3.06038 3.68616 0
M  V30 3851 H 350.038 1.55134 2.02004 0
M  V30 3852 H 350.821 3.11777 1.43701 0
M  V30 3853 N 353.266 -1.05314 1.17247 0
M  V30 3854 C 354.214 -2.15137 0.884238 0
M  V30 3855 C 355.208 -1.68729 -0.15063 0
M  V30 3856 O 356.414 -1.8 -0.00366673 0
M  V30 3857 H 352.789 -0.702471 0.2684 0
M  V30 3858 H 354.76 -2.36652 1.81764 0
M  V30 3859 C 353.509 -3.45243 0.412659 0
M  V30 3860 H 352.832 -3.81352 1.20043 0
M  V30 3861 H 354.272 -4.23263 0.249858 0
M  V30 3862 C 352.731 -3.25487 -0.86948 0
M  V30 3863 O 353.261 -3.51938 -1.93655 0
M  V30 3864 N 351.467 -2.78875 -0.817147 0
M  V30 3865 H 351.014 -2.57549 0.0514211 0
M  V30 3866 H 350.972 -2.66036 -1.67547 0
M  V30 3867 N 354.744 -0.972509 -1.24016 0
M  V30 3868 C 355.991 -0.637034 -1.92219 0
M  V30 3869 C 356.319 0.828418 -1.75976 0
M  V30 3870 O 355.574 1.61206 -1.10955 0
M  V30 3871 C 355.873 -0.963694 -3.44162 0
M  V30 3872 C 355.539 -2.41807 -3.80579 0
M  V30 3873 C 354.201 -2.81556 -3.9023 0
M  V30 3874 C 356.553 -3.36172 -3.98293 0
M  V30 3875 C 353.881 -4.14702 -4.15017 0
M  V30 3876 C 356.233 -4.68952 -4.24578 0
M  V30 3877 C 354.897 -5.08472 -4.32449 0
M  V30 3878 H 354.167 -0.233107 -0.703379 0
M  V30 3879 H 356.814 -1.2249 -1.47202 0
M  V30 3880 H 355.119 -0.29365 -3.90698 0
M  V30 3881 H 356.816 -0.682449 -3.9515 0
M  V30 3882 H 353.406 -2.09988 -3.73635 0
M  V30 3883 H 357.59 -3.06644 -3.90234 0
M  V30 3884 H 352.846 -4.4494 -4.19331 0
M  V30 3885 H 357.02 -5.42037 -4.37229 0
M  V30 3886 H 354.647 -6.11665 -4.51409 0
M  V30 3887 N 356.222 1.38976 -0.743202 0
M  V30 3888 C 357.132 2.3434 -0.110399 0
M  V30 3889 C 358.148 1.58741 0.712559 0
M  V30 3890 O 359.324 1.9099 0.639125 0
M  V30 3891 C 356.389 3.37812 0.780012 0
M  V30 3892 C 355.45 4.29263 -0.0561319 0
M  V30 3893 C 354.683 5.27793 0.791875 0
M  V30 3894 O 354.906 5.33043 2.03031 0
M  V30 3895 O 353.84 6.01512 0.216183 0
M  V30 3896 H 357.666 2.90129 -0.897714 0
M  V30 3897 H 355.251 1.40643 -0.503966 0
M  V30 3898 H 357.133 4.01194 1.28923 0
M  V30 3899 H 355.808 2.84395 1.546 0
M  V30 3900 H 354.715 3.69076 -0.611056 0
M  V30 3901 H 356.048 4.85907 -0.784531 0
M  V30 3902 N 357.7 0.491464 1.49741 0
M  V30 3903 C 358.946 -0.0565092 2.02721 0
M  V30 3904 C 359.279 -1.37522 1.37118 0
M  V30 3905 O 358.554 -1.87866 0.503645 0
M  V30 3906 C 358.837 -0.219051 3.59433 0
M  V30 3907 C 358.69 1.12211 4.35579 0
M  V30 3908 C 360.009 -0.964157 4.29409 0
M  V30 3909 H 357.128 -0.0190627 0.736753 0
M  V30 3910 H 359.77 0.641021 1.7886 0
M  V30 3911 H 357.92 -0.813165 3.79895 0
M  V30 3912 H 359.592 1.75437 4.26637 0
M  V30 3913 H 357.835 1.71377 3.98513 0
M  V30 3914 H 358.506 0.961794 5.43556 0
M  V30 3915 H 360.982 -0.460378 4.13545 0
M  V30 3916 H 359.858 -1.04671 5.38828 0
M  V30 3917 H 360.119 -2.00563 3.93988 0
M  V30 3918 N 359.178 -1.55987 0.224894 0
M  V30 3919 C 360.125 -2.20436 -0.68385 0
M  V30 3920 C 361.095 -1.16102 -1.18783 0
M  V30 3921 O 362.28 -1.4447 -1.24632 0
M  V30 3922 C 359.42 -2.89076 -1.88491 0
M  V30 3923 C 358.533 -4.08012 -1.41951 0
M  V30 3924 C 357.668 -4.64426 -2.5784 0
M  V30 3925 C 356.707 -5.75656 -2.08053 0
M  V30 3926 N 355.844 -6.26347 -3.17227 0
M  V30 3927 H 360.684 -2.97727 -0.12754 0
M  V30 3928 H 358.221 -1.47011 -0.0511978 0
M  V30 3929 H 360.179 -3.27059 -2.59014 0
M  V30 3930 H 358.809 -2.14298 -2.41405 0
M  V30 3931 H 357.861 -3.75492 -0.609095 0
M  V30 3932 H 359.173 -4.88375 -1.01447 0
M  V30 3933 H 358.327 -5.04869 -3.3644 0
M  V30 3934 H 357.066 -3.83233 -3.01635 0
M  V30 3935 H 356.071 -5.34712 -1.27916 0
M  V30 3936 H 357.296 -6.58686 -1.65255 0
M  V30 3937 H 355.242 -5.48067 -3.60497 0
M  V30 3938 H 355.159 -7.01843 -2.80986 0
M  V30 3939 H 356.427 -6.71447 -3.95953 0
M  V30 3940 N 360.656 0.0484629 -1.57525 0
M  V30 3941 C 361.905 0.742065 -1.87553 0
M  V30 3942 C 362.218 1.77545 -0.820802 0
M  V30 3943 O 363.424 2.52027 -1.00967 0
M  V30 3944 C 361.88 1.37081 -3.32771 0
M  V30 3945 C 361.488 0.374786 -4.4643 0
M  V30 3946 C 363.232 2.04542 -3.71972 0
M  V30 3947 C 361.139 1.01077 -5.82698 0
M  V30 3948 H 360.069 0.280903 -0.699721 0
M  V30 3949 H 362.72 -0.00411877 -1.835 0
M  V30 3950 H 361.102 2.16605 -3.31509 0
M  V30 3951 H 362.276 -0.392331 -4.59127 0
M  V30 3952 H 360.591 -0.196653 -4.15935 0
M  V30 3953 H 363.188 2.52943 -4.71088 0
M  V30 3954 H 363.531 2.85515 -3.02964 0
M  V30 3955 H 364.064 1.31819 -3.75325 0
M  V30 3956 H 360.803 0.240878 -6.55057 0
M  V30 3957 H 360.323 1.74819 -5.73758 0
M  V30 3958 H 362.002 1.52383 -6.28799 0
M  V30 3959 N 362.134 1.5431 0.320358 0
M  V30 3960 C 363.362 1.76636 1.07738 0
M  V30 3961 C 363.777 0.51649 1.81598 0
M  V30 3962 O 363.134 -0.512942 1.75143 0
M  V30 3963 C 363.185 2.96158 2.07299 0
M  V30 3964 O 362.906 4.16313 1.36438 0
M  V30 3965 C 364.407 3.3072 2.95193 0
M  V30 3966 H 361.627 0.589597 0.320339 0
M  V30 3967 H 364.171 2.01207 0.36551 0
M  V30 3968 H 362.326 2.73851 2.74016 0
M  V30 3969 H 362.74 4.83565 2.03138 0
M  V30 3970 H 364.214 4.17643 3.60941 0
M  V30 3971 H 364.691 2.48026 3.62463 0
M  V30 3972 H 365.297 3.55117 2.34034 0
M  V30 3973 N 363.613 -0.582584 1.46437 0
M  V30 3974 C 365.024 -1.1647 1.45916 0
M  V30 3975 C 365.375 -1.95177 0.200077 0
M  V30 3976 O 364.5 -2.04874 -0.696819 0
M  V30 3977 C 365.095 -2.11885 2.64367 0
M  V30 3978 C 363.654 -2.65421 2.66887 0
M  V30 3979 C 362.801 -1.41294 2.38603 0
M  V30 3980 H 365.752 -0.370514 1.54314 0
M  V30 3981 H 365.773 -2.9535 2.39892 0
M  V30 3982 H 365.285 -1.54573 3.5599 0
M  V30 3983 H 363.386 -3.26602 1.79338 0
M  V30 3984 H 363.499 -3.08147 3.66854 0
M  V30 3985 H 361.863 -1.71109 1.88663 0
M  V30 3986 H 362.646 -0.858125 3.32402 0
M  V30 3987 N 365.091 -1.34144 -0.827227 0
M  V30 3988 C 366.339 -1.26009 -1.58007 0
M  V30 3989 C 366.66 0.170971 -1.94249 0
M  V30 3990 O 365.93 1.10256 -1.61927 0
M  V30 3991 H 364.51 -0.463414 -0.585881 0
M  V30 3992 H 367.172 -1.68005 -0.987951 0
M  V30 3993 H 366.268 -1.86187 -2.50481 0
M  V30 3994 N 366.569 1.04691 -1.17803 0
M  V30 3995 C 367.516 2.12557 -0.899343 0
M  V30 3996 C 368.486 1.65339 0.158771 0
M  V30 3997 O 369.671 1.90789 0.0204797 0
M  V30 3998 C 366.811 3.42481 -0.424315 0
M  V30 3999 C 365.924 4.03346 -1.54713 0
M  V30 4000 C 365.059 5.21208 -1.02546 0
M  V30 4001 C 364.098 5.74089 -2.12339 0
M  V30 4002 N 363.235 6.83247 -1.61612 0
M  V30 4003 H 368.075 2.35734 -1.823 0
M  V30 4004 H 365.612 1.1564 -0.909159 0
M  V30 4005 H 367.57 4.16996 -0.130421 0
M  V30 4006 H 366.2 3.19471 0.462377 0
M  V30 4007 H 365.252 3.2622 -1.95664 0
M  V30 4008 H 366.564 4.38628 -2.37501 0
M  V30 4009 H 365.718 6.02812 -0.685718 0
M  V30 4010 H 364.457 4.87414 -0.167084 0
M  V30 4011 H 363.462 4.91111 -2.47165 0
M  V30 4012 H 364.687 6.0993 -2.98601 0
M  V30 4013 H 362.633 6.5134 -0.780533 0
M  V30 4014 H 362.55 7.17559 -2.38003 0
M  V30 4015 H 363.818 7.68491 -1.30545 0
M  V30 4016 N 368.047 0.979072 1.23499 0
M  V30 4017 C 369.458 0.684391 1.73704 0
M  V30 4018 C 369.809 -0.799448 1.79174 0
M  V30 4019 O 368.934 -1.62531 1.42873 0
M  V30 4020 C 369.529 1.23564 3.15464 0
M  V30 4021 C 368.088 0.99063 3.6313 0
M  V30 4022 C 367.235 1.36416 2.41425 0
M  V30 4023 H 370.186 1.15307 1.09041 0
M  V30 4024 H 370.207 0.607417 3.7562 0
M  V30 4025 H 369.719 2.31561 3.1145 0
M  V30 4026 H 367.82 -0.0733136 3.72528 0
M  V30 4027 H 367.933 1.64427 4.5 0
M  V30 4028 H 366.297 0.782616 2.42378 0
M  V30 4029 H 367.08 2.45387 2.40083 0
M  V30 4030 N 369.525 -1.3858 0.750561 0
M  V30 4031 C 370.755 -2.04175 0.31564 0
M  V30 4032 C 371.163 -1.56726 -1.05989 0
M  V30 4033 O 370.506 -0.734225 -1.68389 0
M  V30 4034 C 370.568 -3.58585 0.256389 0
M  V30 4035 C 370.232 -4.29077 1.57296 0
M  V30 4036 C 371.229 -4.54656 2.52159 0
M  V30 4037 C 368.914 -4.67324 1.84156 0
M  V30 4038 C 370.908 -5.17512 3.72103 0
M  V30 4039 C 368.595 -5.29905 3.04374 0
M  V30 4040 C 369.593 -5.54933 3.98168 0
M  V30 4041 O 369.281 -6.16212 5.16273 0
M  V30 4042 H 369.013 -0.662742 0.133226 0
M  V30 4043 H 371.567 -1.78313 1.01948 0
M  V30 4044 H 369.797 -3.83406 -0.503677 0
M  V30 4045 H 371.486 -4.05628 -0.148612 0
M  V30 4046 H 372.252 -4.25539 2.32683 0
M  V30 4047 H 368.131 -4.47191 1.11988 0
M  V30 4048 H 371.675 -5.36963 4.45327 0
M  V30 4049 H 367.572 -5.58444 3.23745 0
M  V30 4050 H 368.34 -6.34701 5.16815 0
M  V30 4051 N 371.003 -0.499398 -1.49478 0
M  V30 4052 C 372.252 0.0475259 -2.01644 0
M  V30 4053 C 372.565 1.38195 -1.38425 0
M  V30 4054 O 373.771 2.01547 -1.8191 0
M  V30 4055 C 372.227 0.135164 -3.59646 0
M  V30 4056 C 371.835 -1.19252 -4.31837 0
M  V30 4057 C 373.579 0.632538 -4.19761 0
M  V30 4058 C 371.486 -1.06713 -5.81693 0
M  V30 4059 H 370.416 0.0215349 -0.753692 0
M  V30 4060 H 373.067 -0.638577 -1.7203 0
M  V30 4061 H 371.449 0.885681 -3.85969 0
M  V30 4062 H 372.623 -1.9562 -4.17216 0
M  V30 4063 H 370.938 -1.62321 -3.83459 0
M  V30 4064 H 373.535 0.743833 -5.29501 0
M  V30 4065 H 373.878 1.63098 -3.83021 0
M  V30 4066 H 374.411 -0.0613987 -3.97753 0
M  V30 4067 H 371.15 -2.03979 -6.22955 0
M  V30 4068 H 370.67 -0.344307 -5.98811 0
M  V30 4069 H 372.349 -0.745208 -6.42694 0
M  V30 4070 N 372.481 1.55866 -0.233164 0
M  V30 4071 C 373.411 2.23783 0.666599 0
M  V30 4072 C 374.392 1.21343 1.19205 0
M  V30 4073 O 375.577 1.4996 1.23392 0
M  V30 4074 C 372.707 2.92671 1.86978 0
M  V30 4075 C 371.661 4.01682 1.47768 0
M  V30 4076 C 370.987 4.57926 2.76058 0
M  V30 4077 C 372.287 5.18126 0.658993 0
M  V30 4078 H 373.981 2.99232 0.100306 0
M  V30 4079 H 371.527 1.43924 0.046804 0
M  V30 4080 H 373.48 3.3888 2.50476 0
M  V30 4081 H 372.204 2.14688 2.46123 0
M  V30 4082 H 370.863 3.56222 0.866106 0
M  V30 4083 H 370.511 3.76659 3.33372 0
M  V30 4084 H 370.211 5.31505 2.50552 0
M  V30 4085 H 371.735 5.06859 3.40479 0
M  V30 4086 H 373.149 5.60644 1.19795 0
M  V30 4087 H 371.546 5.98009 0.500552 0
M  V30 4088 H 372.616 4.83763 -0.331856 0
M  V30 4089 N 373.959 -0.0401083 1.57549 0
M  V30 4090 C 375.187 -0.745196 1.93014 0
M  V30 4091 C 375.602 -1.6948 0.831984 0
M  V30 4092 O 374.959 -1.81482 -0.192463 0
M  V30 4093 C 375.01 -1.51176 3.28372 0
M  V30 4094 O 374.731 -0.600284 4.33968 0
M  V30 4095 C 376.232 -2.315 3.78051 0
M  V30 4096 H 373.452 -0.210088 0.637263 0
M  V30 4097 H 375.996 -0.000924689 2.045 0
M  V30 4098 H 374.151 -2.20801 3.18317 0
M  V30 4099 H 374.565 -1.13669 5.12035 0
M  V30 4100 H 376.039 -2.80697 4.75303 0
M  V30 4101 H 376.516 -3.12436 3.08675 0
M  V30 4102 H 377.122 -1.66971 3.91153 0
M  V30 4103 N 375.437 -1.54477 -0.31217 0
M  V30 4104 C 376.683 -1.73483 -1.0503 0
M  V30 4105 C 377.016 -0.513125 -1.87298 0
M  V30 4106 O 376.291 0.489864 -1.8823 0
M  V30 4107 C 376.574 -3.01723 -1.96558 0
M  V30 4108 C 376.427 -4.3417 -1.17545 0
M  V30 4109 C 377.746 -3.25772 -2.95907 0
M  V30 4110 H 374.865 -0.631222 -0.380432 0
M  V30 4111 H 377.507 -1.87184 -0.325932 0
M  V30 4112 H 375.657 -2.90174 -2.58324 0
M  V30 4113 H 377.329 -4.5762 -0.581513 0
M  V30 4114 H 375.572 -4.31159 -0.477925 0
M  V30 4115 H 376.243 -5.20143 -1.84811 0
M  V30 4116 H 378.719 -3.36857 -2.44267 0
M  V30 4117 H 377.595 -4.16838 -3.57123 0
M  V30 4118 H 377.856 -2.43537 -3.68974 0
M  V30 4119 N 376.915 0.57481 -1.46744 0
M  V30 4120 C 378.326 1.15695 -1.46532 0
M  V30 4121 C 378.677 1.95068 -0.210425 0
M  V30 4122 O 377.802 2.05241 0.685944 0
M  V30 4123 C 378.397 2.1048 -2.65487 0
M  V30 4124 C 376.956 2.64002 -2.68291 0
M  V30 4125 C 376.103 1.40026 -2.39349 0
M  V30 4126 H 379.054 0.362325 -1.54509 0
M  V30 4127 H 379.075 2.94074 -2.41455 0
M  V30 4128 H 378.587 1.52683 -3.56805 0
M  V30 4129 H 376.688 3.25646 -1.81067 0
M  V30 4130 H 376.801 3.06197 -3.68483 0
M  V30 4131 H 375.165 1.70106 -1.89568 0
M  V30 4132 H 375.948 0.840485 -3.32852 0
M  V30 4133 N 378.394 1.34581 0.820102 0
M  V30 4134 C 379.642 1.26845 1.57336 0
M  V30 4135 C 379.963 -0.160667 1.94337 0
M  V30 4136 O 379.233 -1.09396 1.6251 0
M  V30 4137 H 377.813 0.466514 0.583415 0
M  V30 4138 H 380.475 1.68526 0.979027 0
M  V30 4139 H 379.571 1.87513 2.4949 0
M  V30 4140 N 379.872 -1.04064 1.18357 0
M  V30 4141 C 380.822 -2.10393 0.878561 0
M  V30 4142 C 381.806 -1.60183 -0.151713 0
M  V30 4143 O 382.998 -1.76923 0.0523303 0
M  V30 4144 C 380.127 -3.4089 0.406096 0
M  V30 4145 C 379.213 -3.97866 1.46844 0
M  V30 4146 N 379.604 -4.28657 2.68489 0
M  V30 4147 C 377.902 -4.2574 1.32896 0
M  V30 4148 C 378.603 -4.74253 3.36836 0
M  V30 4149 N 377.579 -4.75068 2.64219 0
M  V30 4150 H 381.381 -2.32076 1.80327 0
M  V30 4151 H 378.895 -1.21818 1.07397 0
M  V30 4152 H 380.892 -4.16557 0.169088 0
M  V30 4153 H 379.552 -3.20633 -0.512275 0
M  V30 4154 H 380.563 -4.18304 3.05356 0
M  V30 4155 H 377.24 -4.1481 0.473134 0
M  V30 4156 H 378.63 -5.07096 4.40798 0
M  V30 4157 N 381.35 -0.985608 -1.22978 0
M  V30 4158 C 382.28 -0.549649 -2.26939 0
M  V30 4159 C 383.261 0.419803 -1.64838 0
M  V30 4160 O 384.446 0.31203 -1.91677 0
M  V30 4161 C 381.576 0.143652 -3.47003 0
M  V30 4162 C 380.53 -0.743606 -4.21491 0
M  V30 4163 C 379.856 0.0822027 -5.34637 0
M  V30 4164 C 381.156 -2.03694 -4.80943 0
M  V30 4165 H 382.85 -1.41862 -2.63658 0
M  V30 4166 H 380.396 -0.683571 -1.26741 0
M  V30 4167 H 382.349 0.459985 -4.18882 0
M  V30 4168 H 381.073 1.04711 -3.09359 0
M  V30 4169 H 379.732 -1.04347 -3.51436 0
M  V30 4170 H 379.38 0.986359 -4.93234 0
M  V30 4171 H 379.08 -0.508377 -5.85397 0
M  V30 4172 H 380.604 0.392797 -6.09335 0
M  V30 4173 H 382.018 -1.78504 -5.44802 0
M  V30 4174 H 380.415 -2.57573 -5.42011 0
M  V30 4175 H 381.485 -2.72042 -4.01399 0
M  V30 4176 N 382.828 1.3818 -0.7579 0
M  V30 4177 C 384.105 1.94106 -0.241306 0
M  V30 4178 C 384.485 1.69282 1.26122 0
M  V30 4179 O 383.833 1.03378 2.03777 0
M  V30 4180 C 384.043 3.43809 -0.59967 0
M  V30 4181 C 385.391 4.20868 -0.561717 0
M  V30 4182 O 386.415 3.5211 -0.538222 0
M  V30 4183 O 385.274 5.43451 -0.576478 0
M  V30 4184 H 382.368 0.825376 -0.0518042 0
M  V30 4185 H 384.914 1.47548 -0.838315 0
M  V30 4186 H 383.686 3.55403 -1.6372 0
M  V30 4187 H 383.309 3.97592 0.0251197 0
M  V30 4188 N 384.306 0.507319 1.49211 0
M  V30 4189 C 385.216 -0.272136 2.33016 0
M  V30 4190 C 386.232 -0.961206 1.45041 0
M  V30 4191 O 387.408 -0.941191 1.78055 0
M  V30 4192 C 384.473 -1.31895 3.20631 0
M  V30 4193 C 383.534 -0.642648 4.24463 0
M  V30 4194 C 382.767 -1.63959 5.07891 0
M  V30 4195 O 382.99 -2.87007 4.92933 0
M  V30 4196 O 381.924 -1.19143 5.8999 0
M  V30 4197 H 385.75 0.413982 3.00865 0
M  V30 4198 H 383.335 0.268556 1.46966 0
M  V30 4199 H 385.217 -1.92446 3.7489 0
M  V30 4200 H 383.892 -1.98788 2.5547 0
M  V30 4201 H 382.799 0.00276252 3.741 0
M  V30 4202 H 384.132 -0.0160534 4.92197 0
M  V30 4203 N 385.784 -1.5574 0.241426 0
M  V30 4204 C 386.717 -2.17168 -0.700935 0
M  V30 4205 C 387.695 -1.12206 -1.1768 0
M  V30 4206 O 388.879 -1.40565 -1.25593 0
M  V30 4207 C 386.006 -2.76796 -1.95196 0
M  V30 4208 C 385.052 -3.94764 -1.61442 0
M  V30 4209 S 385.885 -5.30613 -0.72182 0
M  V30 4210 C 387.041 -5.93691 -1.98197 0
M  V30 4211 H 387.274 -2.96761 -0.178882 0
M  V30 4212 H 384.807 -1.54378 0.0259299 0
M  V30 4213 H 386.765 -3.11787 -2.67019 0
M  V30 4214 H 385.426 -1.9716 -2.44514 0
M  V30 4215 H 384.619 -4.35057 -2.54443 0
M  V30 4216 H 384.221 -3.61022 -0.976672 0
M  V30 4217 H 386.513 -6.10874 -2.92983 0
M  V30 4218 H 387.456 -6.89258 -1.62262 0
M  V30 4219 H 387.864 -5.22709 -2.13156 0
M  V30 4220 N 387.262 0.0317525 -1.57568 0
M  V30 4221 C 388.194 1.06073 -2.03178 0
M  V30 4222 C 389.207 1.32627 -0.944132 0
M  V30 4223 O 390.396 1.30162 -1.22148 0
M  V30 4224 C 387.496 2.40297 -2.38978 0
M  V30 4225 C 386.669 2.33137 -3.70089 0
M  V30 4226 C 385.728 3.49787 -3.9311 0
M  V30 4227 O 384.754 3.29403 -4.64201 0
M  V30 4228 N 385.956 4.71562 -3.38541 0
M  V30 4229 H 388.721 0.672006 -2.92069 0
M  V30 4230 H 386.282 0.219745 -1.60402 0
M  V30 4231 H 388.274 3.1705 -2.51518 0
M  V30 4232 H 386.844 2.71024 -1.55771 0
M  V30 4233 H 386.064 1.415 -3.67928 0
M  V30 4234 H 387.352 2.25493 -4.56104 0
M  V30 4235 H 386.75 4.91024 -2.80912 0
M  V30 4236 H 385.307 5.45689 -3.56464 0
M  V30 4237 N 388.74 1.54641 0.303973 0
M  V30 4238 C 389.67 1.88386 1.3796 0
M  V30 4239 C 390.651 0.742485 1.5304 0
M  V30 4240 O 391.836 0.997959 1.66597 0
M  V30 4241 C 388.966 2.12854 2.74427 0
M  V30 4242 C 387.92 3.28702 2.74115 0
M  V30 4243 C 387.246 3.38582 4.13844 0
M  V30 4244 C 388.546 4.65881 2.3612 0
M  V30 4245 H 390.24 2.78474 1.09966 0
M  V30 4246 H 387.786 1.33988 0.527556 0
M  V30 4247 H 389.739 2.35047 3.49758 0
M  V30 4248 H 388.463 1.19535 3.03939 0
M  V30 4249 H 387.122 3.06428 2.0124 0
M  V30 4250 H 386.77 2.42784 4.40528 0
M  V30 4251 H 386.47 4.16453 4.14537 0
M  V30 4252 H 387.994 3.63031 4.90959 0
M  V30 4253 H 389.408 4.87823 3.01167 0
M  V30 4254 H 387.805 5.46444 2.48031 0
M  V30 4255 H 388.875 4.66799 1.3125 0
M  V30 4256 N 390.218 -0.567019 1.47046 0
M  V30 4257 C 391.495 -1.3276 1.43646 0
M  V30 4258 C 391.875 -2.1071 0.128186 0
M  V30 4259 O 391.223 -2.10441 -0.890326 0
M  V30 4260 C 391.433 -2.2404 2.67595 0
M  V30 4261 C 392.781 -2.85372 3.14401 0
M  V30 4262 O 393.805 -2.34346 2.68254 0
M  V30 4263 O 392.664 -3.78091 3.946 0
M  V30 4264 H 389.758 -0.597293 0.571988 0
M  V30 4265 H 392.304 -0.586735 1.59234 0
M  V30 4266 H 391.076 -1.65975 3.54356 0
M  V30 4267 H 390.699 -3.05439 2.54544 0
M  V30 4268 N 391.696 -1.35014 -0.812953 0
M  V30 4269 C 392.945 -1.27269 -1.56479 0
M  V30 4270 C 393.258 0.152771 -1.95002 0
M  V30 4271 O 394.464 0.352451 -2.69203 0
M  V30 4272 C 392.92 -2.23159 -2.82362 0
M  V30 4273 C 392.528 -3.71016 -2.511 0
M  V30 4274 C 394.272 -2.24342 -3.60376 0
M  V30 4275 C 392.179 -4.58746 -3.73237 0
M  V30 4276 H 391.109 -0.472829 -0.587324 0
M  V30 4277 H 393.76 -1.6024 -0.894171 0
M  V30 4278 H 392.142 -1.83151 -3.51101 0
M  V30 4279 H 393.316 -4.1962 -1.90409 0
M  V30 4280 H 391.631 -3.72378 -1.86343 0
M  V30 4281 H 394.228 -2.87107 -4.51081 0
M  V30 4282 H 394.571 -1.24542 -3.97234 0
M  V30 4283 H 395.104 -2.62846 -2.98591 0
M  V30 4284 H 391.843 -5.59521 -3.41492 0
M  V30 4285 H 391.363 -4.14871 -4.33176 0
M  V30 4286 H 393.042 -4.73852 -4.40537 0
M  V30 4287 N 393.175 1.03435 -1.18907 0
M  V30 4288 C 394.107 2.1165 -0.879595 0
M  V30 4289 C 395.12 1.62316 0.125439 0
M  V30 4290 O 396.309 1.78201 -0.103245 0
M  V30 4291 C 393.409 3.37622 -0.294042 0
M  V30 4292 C 392.582 4.16166 -1.34629 0
M  V30 4293 C 391.641 5.20457 -0.775274 0
M  V30 4294 O 390.667 5.50379 -1.4516 0
M  V30 4295 N 391.869 5.78949 0.424126 0
M  V30 4296 H 394.634 2.38791 -1.81105 0
M  V30 4297 H 392.195 1.19681 -1.09032 0
M  V30 4298 H 394.187 4.04572 0.101679 0
M  V30 4299 H 392.757 3.07873 0.541575 0
M  V30 4300 H 391.977 3.44444 -1.91707 0
M  V30 4301 H 393.265 4.65432 -2.05549 0
M  V30 4302 H 392.663 5.56948 0.991209 0
M  V30 4303 H 391.22 6.47334 0.761691 0
M  V30 4304 N 394.653 0.992116 1.22453 0
M  V30 4305 C 395.616 0.546883 2.2258 0
M  V30 4306 C 396.616 -0.369829 1.56489 0
M  V30 4307 O 397.806 -0.161896 1.73446 0
M  V30 4308 C 394.938 -0.204659 3.40285 0
M  V30 4309 H 396.131 1.43234 2.63484 0
M  V30 4310 H 393.684 0.779239 1.3549 0
M  V30 4311 H 394.419 -1.10614 3.04853 0
M  V30 4312 H 394.204 0.45354 3.89468 0
M  V30 4313 H 395.694 -0.504358 4.14543 0
M  V30 4314 N 396.131 -1.37776 0.765217 0
M  V30 4315 C 397.547 -1.53297 0.444108 0
M  V30 4316 C 397.747 -1.72515 -1.04119 0
M  V30 4317 O 396.803 -1.74278 -1.82711 0
M  V30 4318 C 398.116 -2.73328 1.25349 0
M  V30 4319 C 399.664 -2.87185 1.24473 0
M  V30 4320 C 400.139 -4.10191 2.03733 0
M  V30 4321 N 401.63 -4.17291 2.01053 0
M  V30 4322 C 402.365 -5.11488 2.59166 0
M  V30 4323 N 401.861 -6.11285 3.26041 0
M  V30 4324 N 403.654 -5.03924 2.49032 0
M  V30 4325 H 395.805 -1.23552 1.72768 0
M  V30 4326 H 398.068 -0.601103 0.733062 0
M  V30 4327 H 397.774 -2.6557 2.30577 0
M  V30 4328 H 397.648 -3.66834 0.87823 0
M  V30 4329 H 400.035 -2.94418 0.20047 0
M  V30 4330 H 400.116 -1.94657 1.65959 0
M  V30 4331 H 399.76 -4.0372 3.08176 0
M  V30 4332 H 399.69 -5.01821 1.59633 0
M  V30 4333 H 402.181 -3.45825 1.5236 0
M  V30 4334 H 402.494 -6.79678 3.67774 0
M  V30 4335 H 400.839 -6.11583 3.30138 0
M  V30 4336 H 404.03 -4.24902 1.96407 0
M  V30 4337 H 404.203 -5.77152 2.94617 0
M  V30 4338 N 397.609 -0.515225 -1.4894 0
M  V30 4339 C 398.839 0.0205735 -2.0659 0
M  V30 4340 C 399.247 1.30064 -1.37405 0
M  V30 4341 O 398.59 1.78087 -0.450632 0
M  V30 4342 C 398.652 0.330124 -3.57981 0
M  V30 4343 C 398.316 -0.854295 -4.48944 0
M  V30 4344 C 399.313 -1.7487 -4.89609 0
M  V30 4345 C 396.998 -1.05712 -4.9105 0
M  V30 4346 C 398.992 -2.82996 -5.71132 0
M  V30 4347 C 396.679 -2.14154 -5.72347 0
M  V30 4348 C 397.677 -3.0263 -6.12294 0
M  V30 4349 O 397.365 -4.09198 -6.91962 0
M  V30 4350 H 397.097 -0.0236833 -0.675585 0
M  V30 4351 H 399.651 -0.715956 -1.92518 0
M  V30 4352 H 397.881 1.12044 -3.70112 0
M  V30 4353 H 399.57 0.806233 -3.97812 0
M  V30 4354 H 400.336 -1.60388 -4.57712 0
M  V30 4355 H 396.215 -0.377788 -4.59449 0
M  V30 4356 H 399.759 -3.52083 -6.02232 0
M  V30 4357 H 395.656 -2.28626 -6.03656 0
M  V30 4358 H 396.424 -4.06726 -7.10293 0
M  V30 4359 N 399.087 1.5561 -0.249682 0
M  V30 4360 C 400.336 1.98187 0.37479 0
M  V30 4361 C 400.649 1.14111 1.58865 0
M  V30 4362 O 401.855 1.46714 2.28445 0
M  V30 4363 C 400.311 3.52661 0.718192 0
M  V30 4364 C 399.919 4.45481 -0.474428 0
M  V30 4365 C 401.663 4.03888 1.3067 0
M  V30 4366 C 399.57 5.91303 -0.107026 0
M  V30 4367 H 398.5 0.740159 0.143808 0
M  V30 4368 H 401.151 1.80125 -0.350336 0
M  V30 4369 H 399.533 3.66429 1.50152 0
M  V30 4370 H 400.707 4.43473 -1.25172 0
M  V30 4371 H 399.022 4.04751 -0.978052 0
M  V30 4372 H 401.619 5.10358 1.59496 0
M  V30 4373 H 401.962 3.51401 2.23211 0
M  V30 4374 H 402.495 3.93457 0.586211 0
M  V30 4375 H 399.234 6.47833 -0.999642 0
M  V30 4376 H 398.754 5.9644 0.634013 0
M  V30 4377 H 400.433 6.46258 0.309807 0
M  V30 4378 N 400.565 -0.0233959 1.57583 0
M  V30 4379 C 401.795 -0.723631 1.93513 0
M  V30 4380 C 402.203 -1.69115 0.848333 0
M  V30 4381 O 401.546 -1.82781 -0.183484 0
M  V30 4382 C 401.608 -1.53075 3.25282 0
M  V30 4383 C 401.272 -0.727388 4.51174 0
M  V30 4384 C 402.269 -0.0251924 5.19894 0
M  V30 4385 C 399.954 -0.680256 4.97672 0
M  V30 4386 C 401.948 0.713374 6.33395 0
M  V30 4387 C 399.635 0.0620523 6.11068 0
M  V30 4388 C 400.633 0.757622 6.78785 0
M  V30 4389 O 400.321 1.48787 7.90011 0
M  V30 4390 H 400.053 -0.208051 0.643188 0
M  V30 4391 H 402.607 0.0167489 2.05393 0
M  V30 4392 H 400.837 -2.31508 3.09744 0
M  V30 4393 H 402.526 -2.11413 3.46496 0
M  V30 4394 H 403.292 -0.0526003 4.84971 0
M  V30 4395 H 399.171 -1.21116 4.44805 0
M  V30 4396 H 402.715 1.25683 6.86185 0
M  V30 4397 H 398.612 0.0913634 6.45435 0
M  V30 4398 H 399.38 1.40213 8.06401 0
M  V30 4399 N 402.043 -1.548 -0.295768 0
M  V30 4400 C 403.291 -1.73985 -1.02828 0
M  V30 4401 C 403.612 -0.531406 -1.87619 0
M  V30 4402 O 402.882 0.454221 -1.90561 0
M  V30 4403 H 401.462 -0.641556 -0.382642 0
M  V30 4404 H 404.124 -1.92163 -0.325489 0
M  V30 4405 H 403.22 -2.63129 -1.67838 0
M  V30 4406 N 403.521 0.559213 -1.47345 0
M  V30 4407 C 404.468 1.66645 -1.59682 0
M  V30 4408 C 405.438 1.60168 -0.43994 0
M  V30 4409 O 406.623 1.79031 -0.659736 0
M  V30 4410 C 403.763 3.04969 -1.61518 0
M  V30 4411 C 402.876 3.21897 -2.88108 0
M  V30 4412 C 402.011 4.50608 -2.81294 0
M  V30 4413 C 401.05 4.60961 -4.02717 0
M  V30 4414 N 400.187 5.81024 -3.94151 0
M  V30 4415 H 405.027 1.55439 -2.54249 0
M  V30 4416 H 402.564 0.757219 -1.26113 0
M  V30 4417 H 404.522 3.85064 -1.60566 0
M  V30 4418 H 403.152 3.15015 -0.704645 0
M  V30 4419 H 402.204 2.35248 -2.98936 0
M  V30 4420 H 403.516 3.25412 -3.78032 0
M  V30 4421 H 402.67 5.3896 -2.7858 0
M  V30 4422 H 401.409 4.49568 -1.89049 0
M  V30 4423 H 400.414 3.71021 -4.05738 0
M  V30 4424 H 401.639 4.63761 -4.96087 0
M  V30 4425 H 399.585 5.80938 -3.04708 0
M  V30 4426 H 399.502 5.85909 -4.77752 0
M  V30 4427 H 400.77 6.71744 -3.9545 0
M  V30 4428 N 404.999 1.35443 0.805782 0
M  V30 4429 C 406.41 1.25768 1.37983 0
M  V30 4430 C 406.761 -0.10958 1.95894 0
M  V30 4431 O 405.886 -1.01056 1.91355 0
M  V30 4432 C 406.481 2.27727 2.5085 0
M  V30 4433 C 405.04 2.2179 3.04115 0
M  V30 4434 C 404.187 2.13393 1.77084 0
M  V30 4435 H 407.138 1.4656 0.608752 0
M  V30 4436 H 407.159 1.90422 3.29424 0
M  V30 4437 H 406.671 3.27227 2.08671 0
M  V30 4438 H 404.772 1.25703 3.50756 0
M  V30 4439 H 404.885 3.13788 3.62042 0
M  V30 4440 H 403.249 1.59384 1.98668 0
M  V30 4441 H 404.032 3.14755 1.37056 0
M  V30 4442 N 406.477 -1.02803 1.19454 0
M  V30 4443 C 407.723 -1.76478 0.999171 0
M  V30 4444 C 408.056 -1.88456 -0.468828 0
M  V30 4445 O 407.331 -1.40198 -1.34814 0
M  V30 4446 C 407.614 -3.19044 1.66981 0
M  V30 4447 C 407.467 -3.14932 3.21151 0
M  V30 4448 C 408.786 -4.17456 1.39349 0
M  V30 4449 H 405.905 -0.640614 0.364393 0
M  V30 4450 H 408.547 -1.20005 1.47305 0
M  V30 4451 H 406.697 -3.67263 1.2669 0
M  V30 4452 H 408.369 -2.74605 3.70661 0
M  V30 4453 H 406.612 -2.52625 3.52652 0
M  V30 4454 H 407.283 -4.1566 3.63223 0
M  V30 4455 H 409.759 -3.77842 1.74283 0
M  V30 4456 H 408.635 -5.154 1.88823 0
M  V30 4457 H 408.896 -4.40949 0.318813 0
M  V30 4458 N 407.956 -0.998596 -1.21925 0
M  V30 4459 C 408.888 -0.511879 -2.23411 0
M  V30 4460 C 409.901 0.396094 -1.57908 0
M  V30 4461 O 411.09 0.197316 -1.77406 0
M  V30 4462 C 408.19 0.276802 -3.37768 0
M  V30 4463 C 407.363 -0.628687 -4.32858 0
M  V30 4464 C 406.422 0.109272 -5.26087 0
M  V30 4465 O 405.448 -0.507237 -5.66935 0
M  V30 4466 N 406.65 1.38983 -5.63617 0
M  V30 4467 H 409.415 -1.38457 -2.658 0
M  V30 4468 H 406.976 -0.873981 -1.36283 0
M  V30 4469 H 408.968 0.77928 -3.97126 0
M  V30 4470 H 407.538 1.05063 -2.94415 0
M  V30 4471 H 406.758 -1.31175 -3.71735 0
M  V30 4472 H 408.046 -1.24514 -4.93329 0
M  V30 4473 H 407.444 1.91194 -5.32411 0
M  V30 4474 H 406.001 1.83739 -6.25367 0
M  V30 4475 N 409.434 1.37368 -0.772513 0
M  V30 4476 C 410.682 1.99279 -0.336516 0
M  V30 4477 C 411.003 1.6163 1.09091 0
M  V30 4478 O 410.273 0.882109 1.74916 0
M  V30 4479 H 408.853 0.737063 -0.121435 0
M  V30 4480 H 411.515 1.67836 -0.990809 0
M  V30 4481 H 410.611 3.09332 -0.414763 0
M  V30 4482 N 410.912 0.523116 1.48665 0
M  V30 4483 C 412.158 -0.0134963 2.02796 0
M  V30 4484 C 412.491 -1.34582 1.40004 0
M  V30 4485 O 411.766 -1.86756 0.543381 0
M  V30 4486 C 412.049 -0.14276 3.59817 0
M  V30 4487 C 411.902 1.21425 4.331 0
M  V30 4488 C 413.221 -0.872856 4.31357 0
M  V30 4489 H 410.34 -0.00343074 0.736992 0
M  V30 4490 H 412.982 0.678816 1.7746 0
M  V30 4491 H 411.132 -0.732401 3.81534 0
M  V30 4492 H 412.804 1.84447 4.2282 0
M  V30 4493 H 411.047 1.79791 3.94788 0
M  V30 4494 H 411.718 1.07687 5.41394 0
M  V30 4495 H 414.194 -0.372555 4.14429 0
M  V30 4496 H 413.07 -0.932185 5.40927 0
M  V30 4497 H 413.331 -1.92161 3.98154 0
M  V30 4498 N 412.39 -1.55475 0.257931 0
M  V30 4499 C 413.353 -2.20551 -0.623706 0
M  V30 4500 C 414.353 -1.17809 -1.09443 0
M  V30 4501 O 415.543 -1.42823 -0.997362 0
M  V30 4502 C 412.675 -2.85784 -1.8585 0
M  V30 4503 H 413.868 -2.99848 -0.0557743 0
M  V30 4504 H 411.421 -1.56298 0.0084422 0
M  V30 4505 H 412.156 -2.10453 -2.46739 0
M  V30 4506 H 411.941 -3.61057 -1.52907 0
M  V30 4507 H 413.431 -3.35553 -2.48584 0
M  V30 4508 N 413.868 0.0150385 -1.57593 0
M  V30 4509 C 415.098 0.713359 -1.93894 0
M  V30 4510 C 415.506 1.68663 -0.857289 0
M  V30 4511 O 414.849 1.82876 0.173788 0
M  V30 4512 C 414.911 1.51348 -3.26089 0
M  V30 4513 C 414.575 0.703451 -4.51554 0
M  V30 4514 C 415.572 -0.00237924 -5.199 0
M  V30 4515 C 413.257 0.653854 -4.98026 0
M  V30 4516 C 415.251 -0.746955 -6.33008 0
M  V30 4517 C 412.938 -0.0944578 -6.11027 0
M  V30 4518 C 413.936 -0.793609 -6.78374 0
M  V30 4519 O 413.624 -1.52974 -7.89211 0
M  V30 4520 H 413.356 0.204637 -0.644282 0
M  V30 4521 H 415.91 -0.0276411 -2.05381 0
M  V30 4522 H 414.14 2.29862 -3.10967 0
M  V30 4523 H 415.829 2.09572 -3.47612 0
M  V30 4524 H 416.595 0.0268803 -4.84993 0
M  V30 4525 H 412.474 1.18756 -4.45441 0
M  V30 4526 H 416.018 -1.2932 -6.85509 0
M  V30 4527 H 411.915 -0.125591 -6.45378 0
M  V30 4528 H 412.683 -1.44488 -8.05646 0
M  V30 4529 N 415.346 1.54954 0.287554 0
M  V30 4530 C 416.592 1.75132 1.02257 0
M  V30 4531 C 416.925 0.542858 1.86458 0
M  V30 4532 O 416.2 -0.459856 1.88986 0
M  V30 4533 C 416.483 3.04812 1.91733 0
M  V30 4534 C 416.336 4.35985 1.10622 0
M  V30 4535 C 417.655 3.30438 2.90687 0
M  V30 4536 H 414.774 0.637194 0.370341 0
M  V30 4537 H 417.416 1.87678 0.296111 0
M  V30 4538 H 415.566 2.94247 2.53675 0
M  V30 4539 H 417.238 4.58487 0.508636 0
M  V30 4540 H 415.481 4.31865 0.409271 0
M  V30 4541 H 416.152 5.23017 1.76513 0
M  V30 4542 H 418.628 3.40701 2.38877 0
M  V30 4543 H 417.504 4.22467 3.50447 0
M  V30 4544 H 417.765 2.49377 3.65053 0
M  V30 4545 N 416.824 -0.551391 1.4764 0
M  V30 4546 C 418.24 -0.877887 1.33287 0
M  V30 4547 C 418.44 -1.98817 0.327721 0
M  V30 4548 O 417.496 -2.51171 -0.258695 0
M  V30 4549 C 418.809 -1.26563 2.72768 0
M  V30 4550 C 420.357 -1.37673 2.81097 0
M  V30 4551 C 420.832 -1.79799 4.21232 0
M  V30 4552 N 422.323 -1.8694 4.23802 0
M  V30 4553 C 423.058 -2.20876 5.29151 0
M  V30 4554 N 422.554 -2.53386 6.448 0
M  V30 4555 N 424.347 -2.217 5.16532 0
M  V30 4556 H 416.498 0.18153 2.11623 0
M  V30 4557 H 418.761 0.0185514 0.947818 0
M  V30 4558 H 418.467 -0.523591 3.47781 0
M  V30 4559 H 418.341 -2.22052 3.04915 0
M  V30 4560 H 420.728 -2.10956 2.06353 0
M  V30 4561 H 420.809 -0.40357 2.52596 0
M  V30 4562 H 420.453 -1.07083 4.96483 0
M  V30 4563 H 420.383 -2.78128 4.4716 0
M  V30 4564 H 422.874 -1.64179 3.40373 0
M  V30 4565 H 423.187 -2.78325 7.20941 0
M  V30 4566 H 421.532 -2.50953 6.48111 0
M  V30 4567 H 424.723 -1.95745 4.25207 0
M  V30 4568 H 424.896 -2.47818 5.98741 0
M  V30 4569 N 418.302 -1.35869 -0.798587 0
M  V30 4570 C 419.549 -1.29588 -1.55606 0
M  V30 4571 C 419.877 0.127456 -1.94082 0
M  V30 4572 O 419.132 1.09461 -1.62225 0
M  V30 4573 C 419.431 -2.1556 -2.85077 0
M  V30 4574 C 419.097 -3.6424 -2.65781 0
M  V30 4575 C 417.759 -4.04766 -2.60227 0
M  V30 4576 C 420.111 -4.58547 -2.47758 0
M  V30 4577 C 417.439 -5.37753 -2.34603 0
M  V30 4578 C 419.791 -5.91742 -2.23662 0
M  V30 4579 C 418.455 -6.31402 -2.16534 0
M  V30 4580 H 417.725 -0.474197 -0.569402 0
M  V30 4581 H 420.372 -1.67839 -0.922086 0
M  V30 4582 H 418.677 -1.70216 -3.52893 0
M  V30 4583 H 420.374 -2.08031 -3.42818 0
M  V30 4584 H 416.964 -3.32086 -2.70956 0
M  V30 4585 H 421.148 -4.28117 -2.51056 0
M  V30 4586 H 416.404 -5.67474 -2.2756 0
M  V30 4587 H 420.578 -6.6439 -2.08708 0
M  V30 4588 H 418.205 -7.34381 -1.96441 0
M  V30 4589 N 419.78 1.02168 -1.19998 0
M  V30 4590 C 421.028 1.75338 -1.00504 0
M  V30 4591 C 421.349 1.89387 0.464506 0
M  V30 4592 O 420.619 1.43268 1.33608 0
M  V30 4593 H 419.199 0.649564 -0.368885 0
M  V30 4594 H 421.861 1.23205 -1.51018 0
M  V30 4595 H 420.957 2.75892 -1.45912 0
M  V30 4596 N 421.258 1.00505 1.21394 0
M  V30 4597 C 422.188 0.585684 2.26035 0
M  V30 4598 C 423.169 -0.393525 1.65485 0
M  V30 4599 O 424.354 -0.281497 1.92149 0
M  V30 4600 C 421.484 -0.0884283 3.47187 0
M  V30 4601 C 420.438 0.810567 4.20254 0
M  V30 4602 C 419.764 0.00286382 5.347 0
M  V30 4603 C 421.064 2.1132 4.77641 0
M  V30 4604 H 422.758 1.46039 2.61368 0
M  V30 4605 H 420.304 0.703648 1.25638 0
M  V30 4606 H 422.257 -0.393286 4.19561 0
M  V30 4607 H 420.981 -0.997766 3.10986 0
M  V30 4608 H 419.64 1.09925 3.49731 0
M  V30 4609 H 419.288 -0.907765 4.94741 0
M  V30 4610 H 418.988 0.601444 5.84514 0
M  V30 4611 H 420.512 -0.295808 6.09883 0
M  V30 4612 H 421.926 1.87148 5.41893 0
M  V30 4613 H 420.323 2.66164 5.37845 0
M  V30 4614 H 421.393 2.78393 3.9702 0
M  V30 4615 N 422.737 -1.36956 0.779787 0
M  V30 4616 C 423.667 -2.32761 0.185651 0
M  V30 4617 C 424.648 -1.56177 -0.673989 0
M  V30 4618 O 425.833 -1.84378 -0.609797 0
M  V30 4619 C 422.963 -3.40418 -0.687964 0
M  V30 4620 C 421.917 -4.27941 0.0710102 0
M  V30 4621 C 421.243 -5.26681 -0.922573 0
M  V30 4622 C 422.543 -5.07006 1.25467 0
M  V30 4623 H 424.237 -2.82698 0.986008 0
M  V30 4624 H 421.783 -1.3592 0.475592 0
M  V30 4625 H 423.736 -4.06423 -1.11348 0
M  V30 4626 H 422.46 -2.89025 -1.52093 0
M  V30 4627 H 421.119 -3.63478 0.47739 0
M  V30 4628 H 420.767 -4.71565 -1.7503 0
M  V30 4629 H 420.467 -5.86103 -0.419237 0
M  V30 4630 H 421.991 -5.9556 -1.34686 0
M  V30 4631 H 423.405 -5.66105 0.905401 0
M  V30 4632 H 421.802 -5.75793 1.69063 0
M  V30 4633 H 422.872 -4.3921 2.05481 0
M  V30 4634 N 424.215 -0.530993 -1.48385 0
M  V30 4635 C 425.492 0.0671788 -1.95485 0
M  V30 4636 C 425.872 1.51191 -1.47324 0
M  V30 4637 O 425.22 2.17507 -0.700202 0
M  V30 4638 C 425.43 -0.0511206 -3.48963 0
M  V30 4639 C 426.778 0.107632 -4.24464 0
M  V30 4640 O 427.802 0.0226248 -3.56193 0
M  V30 4641 O 426.661 0.285972 -5.45751 0
M  V30 4642 H 423.755 0.0787365 -0.823243 0
M  V30 4643 H 426.301 -0.595662 -1.58902 0
M  V30 4644 H 425.073 -1.05747 -3.7674 0
M  V30 4645 H 424.696 0.650525 -3.92242 0
M  V30 4646 N 425.693 1.55336 -0.266172 0
M  V30 4647 C 426.603 2.2583 0.635458 0
M  V30 4648 C 427.619 1.28106 1.17749 0
M  V30 4649 O 428.795 1.61024 1.20968 0
M  V30 4650 C 425.86 2.95879 1.80712 0
M  V30 4651 C 424.921 4.09059 1.30265 0
M  V30 4652 C 424.154 4.75759 2.41846 0
M  V30 4653 O 424.377 4.41622 3.61007 0
M  V30 4654 O 423.311 5.63888 2.1051 0
M  V30 4655 H 427.137 3.03631 0.0646693 0
M  V30 4656 H 424.722 1.49361 -0.0339177 0
M  V30 4657 H 426.604 3.39932 2.49047 0
M  V30 4658 H 425.279 2.21002 2.36516 0
M  V30 4659 H 424.186 3.69482 0.586019 0
M  V30 4660 H 425.519 4.85811 0.790458 0
M  V30 4661 N 427.171 -0.0066808 1.57599 0
M  V30 4662 C 428.448 -0.729586 1.81484 0
M  V30 4663 C 428.828 -1.92359 0.869558 0
M  V30 4664 O 428.176 -2.28348 -0.0832533 0
M  V30 4665 C 428.386 -1.1416 3.29801 0
M  V30 4666 C 429.734 -1.54823 3.95367 0
M  V30 4667 O 430.758 -1.23558 3.34084 0
M  V30 4668 O 429.617 -2.12937 5.03309 0
M  V30 4669 H 426.711 -0.354674 0.747085 0
M  V30 4670 H 429.257 0.0182609 1.6969 0
M  V30 4671 H 428.029 -0.290231 3.90222 0
M  V30 4672 H 427.652 -1.94876 3.46568 0
M  V30 4673 N 428.649 -1.55105 -0.279332 0
M  V30 4674 C 429.897 -1.75066 -1.00977 0
M  V30 4675 C 430.218 -0.551276 -1.87045 0
M  V30 4676 O 429.488 0.433984 -1.91032 0
M  V30 4677 H 428.068 -0.645578 -0.375816 0
M  V30 4678 H 430.73 -1.92497 -0.305089 0
M  V30 4679 H 429.826 -2.64894 -1.65038 0
M  V30 4680 N 430.127 0.543554 -1.4793 0
M  V30 4681 C 431.074 1.64942 -1.6144 0
M  V30 4682 C 432.044 1.59692 -0.456903 0
M  V30 4683 O 433.229 1.78321 -0.678688 0
M  V30 4684 C 430.369 3.03238 -1.64744 0
M  V30 4685 C 429.482 3.18823 -2.91506 0
M  V30 4686 C 428.617 4.47599 -2.86057 0
M  V30 4687 C 427.656 4.56664 -4.07584 0
M  V30 4688 N 426.793 5.76811 -4.00292 0
M  V30 4689 H 431.633 1.52733 -2.55884 0
M  V30 4690 H 429.17 0.7438 -1.2691 0
M  V30 4691 H 431.128 3.83339 -1.64641 0
M  V30 4692 H 429.758 3.1425 -0.738017 0
M  V30 4693 H 428.81 2.32064 -3.01414 0
M  V30 4694 H 430.122 3.21384 -3.81463 0
M  V30 4695 H 429.276 5.35975 -2.84281 0
M  V30 4696 H 428.015 4.47538 -1.93807 0
M  V30 4697 H 427.02 3.66697 -4.09651 0
M  V30 4698 H 428.245 4.58474 -5.00978 0
M  V30 4699 H 426.191 5.77673 -3.10853 0
M  V30 4700 H 426.108 5.80808 -4.8394 0
M  V30 4701 H 427.376 6.67512 -4.02553 0
M  V30 4702 N 431.605 1.3629 0.791371 0
M  V30 4703 C 432.552 1.30458 1.90393 0
M  V30 4704 C 433.522 0.173632 1.6519 0
M  V30 4705 O 434.707 0.35983 1.87376 0
M  V30 4706 C 431.847 1.09777 3.27174 0
M  V30 4707 C 430.96 2.31929 3.64462 0
M  V30 4708 C 430.095 2.04276 4.90352 0
M  V30 4709 C 429.134 3.224 5.20312 0
M  V30 4710 N 428.271 2.94424 6.37385 0
M  V30 4711 H 433.111 2.25589 1.94714 0
M  V30 4712 H 430.648 1.12122 0.952216 0
M  V30 4713 H 432.606 0.958133 4.06049 0
M  V30 4714 H 431.236 0.183014 3.22281 0
M  V30 4715 H 430.288 2.56703 2.80727 0
M  V30 4716 H 431.6 3.20085 3.82553 0
M  V30 4717 H 430.754 1.87231 5.77087 0
M  V30 4718 H 429.493 1.13428 4.74326 0
M  V30 4719 H 428.498 3.40005 4.32061 0
M  V30 4720 H 429.723 4.14071 5.38258 0
M  V30 4721 H 427.669 2.06185 6.22755 0
M  V30 4722 H 427.586 3.76118 6.55798 0
M  V30 4723 H 428.854 2.80953 7.27108 0
M  V30 4724 N 433.083 -1.0153 1.20538 0
M  V30 4725 C 434.311 -1.78746 1.04199 0
M  V30 4726 C 434.726 -1.84323 -0.408733 0
M  V30 4727 O 434.083 -1.29714 -1.28377 0
M  V30 4728 C 434.134 -3.23152 1.62035 0
M  V30 4729 O 433.855 -3.17918 3.0143 0
M  V30 4730 C 435.356 -4.16911 1.50666 0
M  V30 4731 H 432.576 -0.56208 0.366479 0
M  V30 4732 H 435.12 -1.27794 1.59653 0
M  V30 4733 H 433.275 -3.71248 1.10697 0
M  V30 4734 H 433.689 -4.08567 3.28897 0
M  V30 4735 H 435.163 -5.16072 1.95892 0
M  V30 4736 H 435.64 -4.36791 0.459363 0
M  V30 4737 H 436.246 -3.74698 2.01201 0
M  V30 4738 N 434.561 -1.01147 -1.20859 0
M  V30 4739 C 435.808 -0.697865 -1.90095 0
M  V30 4740 C 436.136 0.772014 -1.78522 0
M  V30 4741 O 435.391 1.57595 -1.16027 0
M  V30 4742 C 435.69 -1.0727 -3.40922 0
M  V30 4743 C 435.356 -2.53792 -3.72693 0
M  V30 4744 C 434.018 -2.93829 -3.81075 0
M  V30 4745 C 436.37 -3.48674 -3.87397 0
M  V30 4746 C 433.698 -4.27696 -4.01613 0
M  V30 4747 C 436.05 -4.82223 -4.09444 0
M  V30 4748 C 434.714 -5.21973 -4.16054 0
M  V30 4749 H 433.984 -0.255367 -0.695607 0
M  V30 4750 H 436.631 -1.27111 -1.43231 0
M  V30 4751 H 434.936 -0.417799 -3.89566 0
M  V30 4752 H 436.633 -0.807818 -3.92779 0
M  V30 4753 H 433.223 -2.21768 -3.66765 0
M  V30 4754 H 437.407 -3.18904 -3.80281 0
M  V30 4755 H 432.663 -4.58055 -4.04964 0
M  V30 4756 H 436.837 -5.55672 -4.19763 0
M  V30 4757 H 434.464 -6.25717 -4.31721 0
M  V30 4758 N 436.039 1.36541 -0.78704 0
M  V30 4759 C 437.286 1.99304 -0.358341 0
M  V30 4760 C 437.614 1.62467 1.06933 0
M  V30 4761 O 436.869 0.870019 1.75297 0
M  V30 4762 C 437.168 3.54343 -0.466485 0
M  V30 4763 C 436.834 4.10993 -1.85461 0
M  V30 4764 C 435.496 4.26177 -2.23443 0
M  V30 4765 C 437.848 4.41895 -2.76366 0
M  V30 4766 C 435.176 4.69573 -3.51736 0
M  V30 4767 C 437.528 4.86722 -4.04084 0
M  V30 4768 C 436.192 5.00112 -4.42091 0
M  V30 4769 H 435.462 0.729306 -0.131126 0
M  V30 4770 H 438.109 1.63068 -1.00404 0
M  V30 4771 H 436.414 3.90918 0.262719 0
M  V30 4772 H 438.111 4.00833 -0.115854 0
M  V30 4773 H 434.701 3.99612 -1.54946 0
M  V30 4774 H 438.885 4.29735 -2.48277 0
M  V30 4775 H 434.141 4.78127 -3.81057 0
M  V30 4776 H 438.315 5.09598 -4.7464 0
M  V30 4777 H 435.942 5.33498 -5.41557 0
M  V30 4778 N 437.518 0.538854 1.48102 0
M  V30 4779 C 438.934 0.19732 1.58376 0
M  V30 4780 C 439.134 -1.29971 1.5398 0
M  V30 4781 O 438.19 -2.07861 1.43352 0
M  V30 4782 C 439.503 0.807716 2.89649 0
M  V30 4783 C 441.051 0.77726 3.03196 0
M  V30 4784 C 441.526 1.36639 4.37143 0
M  V30 4785 N 443.017 1.32875 4.43732 0
M  V30 4786 C 443.752 1.7544 5.45901 0
M  V30 4787 N 443.248 2.25776 6.54979 0
M  V30 4788 N 445.041 1.66623 5.36836 0
M  V30 4789 H 437.192 1.5117 1.49202 0
M  V30 4790 H 439.455 0.629327 0.708979 0
M  V30 4791 H 439.161 1.85909 2.98548 0
M  V30 4792 H 439.035 0.289975 3.76084 0
M  V30 4793 H 441.422 -0.265374 2.93904 0
M  V30 4794 H 441.503 1.33256 2.18349 0
M  V30 4795 H 441.147 2.408 4.47189 0
M  V30 4796 H 441.077 0.786689 5.20691 0
M  V30 4797 H 443.568 0.96037 3.65493 0
M  V30 4798 H 443.881 2.56226 7.29087 0
M  V30 4799 H 442.226 2.29775 6.55918 0
M  V30 4800 H 445.417 1.27089 4.50517 0
M  V30 4801 H 445.59 2.00115 6.16326 0
M  V30 4802 N 438.996 -1.55193 0.274407 0
M  V30 4803 C 440.244 -1.99187 -0.341902 0
M  V30 4804 C 440.565 -1.16422 -1.56431 0
M  V30 4805 O 439.835 -0.253573 -1.94252 0
M  V30 4806 H 438.415 -0.735721 -0.129317 0
M  V30 4807 H 441.077 -1.91168 0.379578 0
M  V30 4808 H 440.173 -3.05629 -0.632253 0
M  V30 4809 N 440.474 -0.00167713 -1.576 0
M  V30 4810 C 441.404 0.988091 -2.11563 0
M  V30 4811 C 442.385 1.35736 -1.02517 0
M  V30 4812 O 443.57 1.44082 -1.30208 0
M  V30 4813 C 440.7 2.27941 -2.62031 0
M  V30 4814 C 439.654 2.0517 -3.75619 0
M  V30 4815 C 438.98 3.4033 -4.12407 0
M  V30 4816 C 440.28 1.41294 -5.02825 0
M  V30 4817 H 441.974 0.538771 -2.94513 0
M  V30 4818 H 439.52 0.257712 -1.41675 0
M  V30 4819 H 441.473 2.97539 -2.9841 0
M  V30 4820 H 440.197 2.74989 -1.76205 0
M  V30 4821 H 438.856 1.37998 -3.39635 0
M  V30 4822 H 438.504 3.85085 -3.23603 0
M  V30 4823 H 438.204 3.25909 -4.88935 0
M  V30 4824 H 439.728 4.1124 -4.51347 0
M  V30 4825 H 441.142 2.00851 -5.36965 0
M  V30 4826 H 439.539 1.37356 -5.84169 0
M  V30 4827 H 440.609 0.382362 -4.8339 0
M  V30 4828 N 441.952 1.55251 0.271103 0
M  V30 4829 C 442.862 1.9136 1.35714 0
M  V30 4830 C 443.878 0.811075 1.5394 0
M  V30 4831 O 445.054 1.11031 1.6803 0
M  V30 4832 C 442.119 2.1798 2.69603 0
M  V30 4833 C 441.18 3.4153 2.60107 0
M  V30 4834 C 440.413 3.66871 3.8761 0
M  V30 4835 O 440.636 2.94689 4.8838 0
M  V30 4836 O 439.57 4.60405 3.87699 0
M  V30 4837 H 443.396 2.83815 1.08088 0
M  V30 4838 H 440.981 1.41821 0.469792 0
M  V30 4839 H 442.863 2.36518 3.48765 0
M  V30 4840 H 441.538 1.28708 2.97012 0
M  V30 4841 H 440.445 3.28325 1.79314 0
M  V30 4842 H 441.778 4.31027 2.37647 0
M  V30 4843 N 443.43 -0.535701 1.48216 0
M  V30 4844 C 444.655 -1.32149 1.59848 0
M  V30 4845 C 445.08 -1.86338 0.256842 0
M  V30 4846 O 444.438 -1.64107 -0.770632 0
M  V30 4847 C 444.486 -2.45224 2.64381 0
M  V30 4848 O 443.59 -3.48093 2.21144 0
M  V30 4849 H 442.931 -0.391634 0.536208 0
M  V30 4850 H 445.461 -0.645202 1.94161 0
M  V30 4851 H 445.471 -2.91491 2.85476 0
M  V30 4852 H 444.146 -2.05143 3.61786 0
M  V30 4853 H 442.723 -3.07984 2.10239 0
M  V30 4854 N 444.908 -1.36708 -0.784132 0
M  V30 4855 C 445.84 -1.27333 -1.90575 0
M  V30 4856 C 446.853 -0.191706 -1.61667 0
M  V30 4857 O 448.042 -0.446854 -1.72816 0
M  V30 4858 C 445.142 -0.943177 -3.25511 0
M  V30 4859 C 444.315 -2.12776 -3.82158 0
M  V30 4860 C 443.374 -1.76983 -4.95544 0
M  V30 4861 O 442.4 -2.49134 -5.11782 0
M  V30 4862 N 443.602 -0.706624 -5.76183 0
M  V30 4863 H 446.367 -2.23974 -1.99138 0
M  V30 4864 H 443.928 -1.30171 -0.962656 0
M  V30 4865 H 445.92 -0.684799 -3.98864 0
M  V30 4866 H 444.49 -0.0657333 -3.12531 0
M  V30 4867 H 443.71 -2.54863 -3.0073 0
M  V30 4868 H 444.998 -2.91904 -4.16737 0
M  V30 4869 H 444.396 -0.107643 -5.65598 0
M  V30 4870 H 442.953 -0.50808 -6.49817 0
M  V30 4871 N 446.386 1.0089 -1.21074 0
M  V30 4872 C 447.614 1.78191 -1.05145 0
M  V30 4873 C 448.029 1.84537 0.398952 0
M  V30 4874 O 447.386 1.30393 1.27687 0
M  V30 4875 C 447.437 3.22288 -1.63746 0
M  V30 4876 O 447.158 3.16315 -3.03111 0
M  V30 4877 C 448.659 4.16106 -1.52875 0
M  V30 4878 H 445.879 0.560129 -0.369454 0
M  V30 4879 H 448.423 1.26945 -1.60328 0
M  V30 4880 H 446.578 3.70655 -1.12664 0
M  V30 4881 H 446.992 4.06817 -3.31059 0
M  V30 4882 H 448.466 5.15026 -1.98626 0
M  V30 4883 H 448.943 4.36541 -0.482521 0
M  V30 4884 H 449.549 3.73625 -2.03185 0
M  V30 4885 N 447.864 1.01787 1.20321 0
M  V30 4886 C 448.811 0.589197 2.23153 0
M  V30 4887 C 449.781 -0.391367 1.61423 0
M  V30 4888 O 450.966 -0.290518 1.88575 0
M  V30 4889 C 448.106 -0.0650747 3.45039 0
M  V30 4890 C 447.219 0.960207 4.21194 0
M  V30 4891 C 446.354 0.276854 5.30478 0
M  V30 4892 C 445.393 1.2888 5.98378 0
M  V30 4893 N 444.53 0.632031 6.99249 0
M  V30 4894 H 449.37 1.47071 2.59179 0
M  V30 4895 H 446.907 0.736192 1.27352 0
M  V30 4896 H 448.865 -0.461552 4.14639 0
M  V30 4897 H 447.495 -0.910233 3.09701 0
M  V30 4898 H 446.547 1.47484 3.50646 0
M  V30 4899 H 447.859 1.72977 4.67847 0
M  V30 4900 H 447.013 -0.175056 6.06447 0
M  V30 4901 H 445.752 -0.525004 4.84866 0
M  V30 4902 H 444.757 1.75109 5.21169 0
M  V30 4903 H 445.982 2.09196 6.46076 0
M  V30 4904 H 443.928 -0.149935 6.55829 0
M  V30 4905 H 443.845 1.33964 7.44036 0
M  V30 4906 H 445.113 0.203755 7.79234 0
M  V30 4907 N 449.342 -1.36122 0.79427 0
M  V30 4908 C 450.272 -2.32551 0.210328 0
M  V30 4909 C 451.253 -1.56884 -0.657386 0
M  V30 4910 O 452.438 -1.85014 -0.590207 0
M  V30 4911 C 449.568 -3.41128 -0.651819 0
M  V30 4912 C 448.522 -4.27842 0.116395 0
M  V30 4913 C 447.848 -5.2763 -0.86666 0
M  V30 4914 C 449.148 -5.05647 1.30837 0
M  V30 4915 H 450.842 -2.81636 1.01594 0
M  V30 4916 H 448.388 -1.35407 0.489981 0
M  V30 4917 H 450.341 -4.07581 -1.07031 0
M  V30 4918 H 449.065 -2.90622 -1.49019 0
M  V30 4919 H 447.724 -3.62952 0.515915 0
M  V30 4920 H 447.372 -4.73395 -1.70019 0
M  V30 4921 H 447.072 -5.86514 -0.35705 0
M  V30 4922 H 448.596 -5.96955 -1.28361 0
M  V30 4923 H 450.01 -5.65113 0.965393 0
M  V30 4924 H 448.407 -5.73967 1.75161 0
M  V30 4925 H 449.477 -4.37006 2.10128 0
M  V30 4926 N 450.82 -0.546701 -1.47814 0
M  V30 4927 C 452.066 -0.0187684 -2.02791 0
M  V30 4928 C 452.399 1.32338 -1.42128 0
M  V30 4929 O 451.674 1.85867 -0.573023 0
M  V30 4930 C 451.957 0.0854985 -3.59998 0
M  V30 4931 C 451.81 -1.283 -4.31114 0
M  V30 4932 C 453.129 0.80412 -4.32691 0
M  V30 4933 H 450.248 -0.0082946 -0.736953 0
M  V30 4934 H 452.89 -0.706962 -1.76358 0
M  V30 4935 H 451.04 0.671609 -3.82651 0
M  V30 4936 H 452.712 -1.91151 -4.19832 0
M  V30 4937 H 450.955 -1.86049 -3.91878 0
M  V30 4938 H 451.626 -1.16287 -5.39612 0
M  V30 4939 H 454.102 0.306576 -4.14969 0
M  V30 4940 H 452.978 0.846011 -5.42341 0
M  V30 4941 H 453.239 1.85802 -4.01161 0
M  V30 4942 N 452.299 1.55045 -0.282633 0
M  V30 4943 C 453.247 2.24254 0.617478 0
M  V30 4944 C 454.241 1.24215 1.15183 0
M  V30 4945 O 455.447 1.42123 1.10459 0
M  V30 4946 H 451.822 0.719801 0.217693 0
M  V30 4947 H 453.793 2.98398 0.0110076 0
M  V30 4948 C 452.542 2.98281 1.78672 0
M  V30 4949 H 451.865 3.75053 1.38475 0
M  V30 4950 H 453.305 3.50017 2.393 0
M  V30 4951 C 451.764 2.04184 2.67975 0
M  V30 4952 O 452.294 1.59792 3.6855 0
M  V30 4953 N 450.5 1.70526 2.35307 0
M  V30 4954 H 450.047 2.06821 1.53567 0
M  V30 4955 H 450.005 1.07839 2.95327 0
M  V30 4956 N 453.777 0.010035 1.57597 0
M  V30 4957 C 455.025 -0.671371 1.90623 0
M  V30 4958 C 455.346 -1.73753 0.885151 0
M  V30 4959 O 454.616 -1.95752 -0.0760611 0
M  V30 4960 H 453.196 -0.250968 0.703579 0
M  V30 4961 H 455.858 0.0533325 1.94827 0
M  V30 4962 H 454.954 -1.13626 2.90681 0
M  V30 4963 N 455.255 -1.55392 -0.262866 0
M  V30 4964 C 456.187 -1.85392 -1.34768 0
M  V30 4965 C 457.2 -0.739069 -1.45057 0
M  V30 4966 O 458.389 -1.01703 -1.46693 0
M  V30 4967 C 455.489 -2.01088 -2.72795 0
M  V30 4968 C 454.662 -3.31828 -2.84972 0
M  V30 4969 C 453.721 -3.37464 -4.03738 0
M  V30 4970 O 452.747 -4.10778 -3.94018 0
M  V30 4971 N 453.949 -2.65599 -5.16176 0
M  V30 4972 H 456.714 -2.79029 -1.09375 0
M  V30 4973 H 454.275 -1.55434 -0.452981 0
M  V30 4974 H 456.267 -2.02217 -3.50557 0
M  V30 4975 H 454.837 -1.1427 -2.90966 0
M  V30 4976 H 454.057 -3.43152 -1.94012 0
M  V30 4977 H 455.345 -4.18032 -2.90045 0
M  V30 4978 H 454.743 -2.05736 -5.26962 0
M  V30 4979 H 453.3 -2.72439 -5.92132 0
M  V30 4980 N 456.733 0.527833 -1.48498 0
M  V30 4981 C 457.958 1.313 -1.60546 0
M  V30 4982 C 458.383 1.86199 -0.26672 0
M  V30 4983 O 457.741 1.64513 0.761918 0
M  V30 4984 C 457.789 2.43818 -2.65678 0
M  V30 4985 O 456.893 3.46916 -2.22987 0
M  V30 4986 H 456.234 0.388784 -0.538277 0
M  V30 4987 H 458.764 0.634896 -1.945 0
M  V30 4988 H 458.774 2.89973 -2.87018 0
M  V30 4989 H 457.449 2.03222 -3.62869 0
M  V30 4990 H 456.026 3.06864 -2.11869 0
M  V30 4991 N 458.211 1.37122 0.776871 0
M  V30 4992 C 459.161 1.28989 1.88005 0
M  V30 4993 C 460.145 0.178765 1.59904 0
M  V30 4994 O 461.337 0.412705 1.72121 0
M  V30 4995 C 458.466 1.09402 3.25402 0
M  V30 4996 C 457.552 2.25036 3.59471 0
M  V30 4997 N 457.943 3.50407 3.64759 0
M  V30 4998 C 456.241 2.17078 3.89607 0
M  V30 4999 C 456.942 4.26628 3.95428 0
M  V30 5000 N 455.918 3.55709 4.11062 0
M  V30 5001 H 459.72 2.2394 1.90337 0
M  V30 5002 H 457.234 1.30021 0.973052 0
M  V30 5003 H 459.231 1.01661 4.04315 0
M  V30 5004 H 457.891 0.153632 3.24336 0
M  V30 5005 H 458.902 3.8438 3.47091 0
M  V30 5006 H 455.579 1.31067 3.96393 0
M  V30 5007 H 456.969 5.35107 4.06338 0
M  V30 5008 N 459.689 -1.00246 1.21608 0
M  V30 5009 C 460.938 -1.73476 1.02902 0
M  V30 5010 C 461.251 -1.90643 -0.437561 0
M  V30 5011 O 462.457 -2.61105 -0.74407 0
M  V30 5012 C 460.913 -3.12079 1.79261 0
M  V30 5013 C 460.521 -3.02877 3.30106 0
M  V30 5014 C 462.265 -3.89421 1.68972 0
M  V30 5015 C 460.172 -4.36575 3.98944 0
M  V30 5016 H 459.102 -0.650408 0.381425 0
M  V30 5017 H 461.753 -1.11985 1.45367 0
M  V30 5018 H 460.135 -3.74196 1.2959 0
M  V30 5019 H 461.309 -2.49983 3.87098 0
M  V30 5020 H 459.624 -2.39022 3.40965 0
M  V30 5021 H 462.221 -4.88362 2.17731 0
M  V30 5022 H 462.564 -4.1122 0.648397 0
M  V30 5023 H 463.097 -3.33963 2.16133 0
M  V30 5024 H 459.836 -4.19978 5.03288 0
M  V30 5025 H 459.356 -4.8942 3.4674 0
M  V30 5026 H 461.035 -5.05364 4.04 0
M  V30 5027 N 461.167 -1.02423 -1.1978 0
M  V30 5028 C 462.392 -0.7373 -1.93852 0
M  V30 5029 C 462.817 0.696923 -1.74713 0
M  V30 5030 O 462.175 1.48056 -1.04638 0
M  V30 5031 C 462.223 -1.08783 -3.438 0
M  V30 5032 O 461.327 -0.20383 -4.11896 0
M  V30 5033 H 460.668 -0.27284 -0.605355 0
M  V30 5034 H 463.198 -1.36966 -1.51992 0
M  V30 5035 H 463.208 -1.04276 -3.9445 0
M  V30 5036 H 461.883 -2.13274 -3.57053 0
M  V30 5037 H 460.46 -0.307091 -3.71633 0
M  V30 5038 N 462.645 1.35699 -0.801477 0
M  V30 5039 C 463.575 2.32436 -0.222658 0
M  V30 5040 C 464.556 1.5723 0.649057 0
M  V30 5041 O 465.741 1.85324 0.580387 0
M  V30 5042 C 462.871 3.41469 0.633719 0
M  V30 5043 C 461.825 4.27774 -0.139083 0
M  V30 5044 C 461.151 5.28082 0.838666 0
M  V30 5045 C 462.451 5.04946 -1.33517 0
M  V30 5046 H 464.145 2.81094 -1.03086 0
M  V30 5047 H 461.691 1.35146 -0.497155 0
M  V30 5048 H 463.644 4.08143 1.04868 0
M  V30 5049 H 462.368 2.91408 1.47475 0
M  V30 5050 H 461.027 3.62673 -0.535156 0
M  V30 5051 H 460.675 4.7429 1.67506 0
M  V30 5052 H 460.375 5.86695 0.32594 0
M  V30 5053 H 461.899 5.97628 1.25194 0
M  V30 5054 H 463.313 5.64593 -0.995349 0
M  V30 5055 H 461.71 5.7303 -1.78202 0
M  V30 5056 H 462.78 4.35886 -2.12442 0
M  V30 5057 N 464.123 0.554532 1.47522 0
M  V30 5058 C 465.348 0.0322661 2.07375 0
M  V30 5059 C 465.773 -1.25079 1.40488 0
M  V30 5060 O 465.131 -1.74859 0.47896 0
M  V30 5061 C 465.179 -0.149397 3.6029 0
M  V30 5062 O 464.283 -1.21259 3.9417 0
M  V30 5063 H 463.624 0.0501228 0.662106 0
M  V30 5064 H 466.154 0.769452 1.8958 0
M  V30 5065 H 466.164 -0.364437 4.06369 0
M  V30 5066 H 464.839 0.787743 4.08372 0
M  V30 5067 H 463.416 -0.97825 3.5984 0
M  V30 5068 N 465.601 -1.54893 0.290851 0
M  V30 5069 C 466.548 -2.23138 -0.58974 0
M  V30 5070 C 467.518 -1.21036 -1.13752 0
M  V30 5071 O 468.703 -1.49626 -1.18392 0
M  V30 5072 C 465.843 -2.96811 -1.76061 0
M  V30 5073 C 464.956 -4.13665 -1.24519 0
M  V30 5074 C 464.091 -4.74944 -2.3791 0
M  V30 5075 C 463.13 -5.83963 -1.83451 0
M  V30 5076 N 462.267 -6.39239 -2.90376 0
M  V30 5077 H 467.107 -2.98 -0.00114915 0
M  V30 5078 H 464.644 -1.47096 0.0112006 0
M  V30 5079 H 466.602 -3.37751 -2.44909 0
M  V30 5080 H 465.232 -2.24344 -2.32098 0
M  V30 5081 H 464.284 -3.77737 -0.449288 0
M  V30 5082 H 465.596 -4.92238 -0.806424 0
M  V30 5083 H 464.75 -5.18684 -3.14724 0
M  V30 5084 H 463.489 -3.95682 -2.85109 0
M  V30 5085 H 462.494 -5.39657 -1.05122 0
M  V30 5086 H 463.719 -6.65103 -1.37169 0
M  V30 5087 H 461.665 -5.62864 -3.36927 0
M  V30 5088 H 461.582 -7.13129 -2.50965 0
M  V30 5089 H 462.85 -6.87637 -3.67118 0
M  V30 5090 N 467.08 -0.0183926 -1.57589 0
M  V30 5091 C 468.043 0.951986 -2.08494 0
M  V30 5092 C 469.043 1.26092 -0.997874 0
M  V30 5093 O 470.233 1.20304 -1.25987 0
M  V30 5094 C 467.365 2.27165 -2.54182 0
M  V30 5095 H 468.558 0.511307 -2.95509 0
M  V30 5096 H 466.111 0.229444 -1.54607 0
M  V30 5097 H 466.846 2.75884 -1.70465 0
M  V30 5098 H 466.631 2.06057 -3.33591 0
M  V30 5099 H 468.121 2.9674 -2.93828 0
M  V30 5100 N 468.558 1.5553 0.254621 0
M  V30 5101 C 469.468 1.92789 1.33677 0
M  V30 5102 C 470.484 0.827356 1.53071 0
M  V30 5103 O 471.66 1.12807 1.66843 0
M  V30 5104 C 468.725 2.20827 2.67275 0
M  V30 5105 C 467.786 3.4427 2.5647 0
M  V30 5106 C 467.019 3.70961 3.83697 0
M  V30 5107 O 467.242 2.99852 4.85227 0
M  V30 5108 O 466.176 4.64491 3.82794 0
M  V30 5109 H 470.002 2.84945 1.05071 0
M  V30 5110 H 467.587 1.42312 0.454723 0
M  V30 5111 H 469.469 2.40204 3.46237 0
M  V30 5112 H 468.144 1.31851 2.9563 0
M  V30 5113 H 467.051 3.30209 1.75821 0
M  V30 5114 H 468.384 4.33524 2.33062 0
M  V30 5115 N 470.036 -0.519951 1.48776 0
M  V30 5116 C 471.283 -1.27522 1.57303 0
M  V30 5117 C 471.611 -1.92869 0.251328 0
M  V30 5118 O 470.866 -1.80372 -0.759243 0
M  V30 5119 C 471.165 -2.37864 2.6675 0
M  V30 5120 C 470.831 -1.90103 4.08867 0
M  V30 5121 C 469.493 -1.76795 4.47546 0
M  V30 5122 C 471.845 -1.54133 4.97888 0
M  V30 5123 C 469.173 -1.25868 5.73039 0
M  V30 5124 C 471.525 -1.04665 6.23881 0
M  V30 5125 C 470.189 -0.899823 6.61407 0
M  V30 5126 H 469.459 -0.466636 0.575614 0
M  V30 5127 H 472.106 -0.579109 1.82534 0
M  V30 5128 H 470.411 -3.13186 2.35418 0
M  V30 5129 H 472.108 -2.95969 2.70561 0
M  V30 5130 H 468.698 -2.01414 3.78326 0
M  V30 5131 H 472.882 -1.6327 4.68675 0
M  V30 5132 H 468.138 -1.13196 6.0083 0
M  V30 5133 H 472.312 -0.759074 6.92251 0
M  V30 5134 H 469.939 -0.503011 7.58534 0
M  V30 5135 N 471.514 -1.37532 -0.769588 0
M  V30 5136 C 472.446 -1.29347 -1.89214 0
M  V30 5137 C 473.459 -0.208842 -1.61455 0
M  V30 5138 O 474.648 -0.465158 -1.72333 0
M  V30 5139 C 471.748 -0.977649 -3.24492 0
M  V30 5140 C 470.921 -2.16817 -3.7988 0
M  V30 5141 C 469.98 -1.82229 -4.93639 0
M  V30 5142 O 469.006 -2.54548 -5.09111 0
M  V30 5143 N 470.208 -0.767696 -5.75401 0
M  V30 5144 H 472.973 -2.26073 -1.96751 0
M  V30 5145 H 470.534 -1.31185 -0.948795 0
M  V30 5146 H 472.526 -0.727065 -3.98115 0
M  V30 5147 H 471.096 -0.0988777 -3.12444 0
M  V30 5148 H 470.316 -2.58038 -2.9801 0
M  V30 5149 H 471.604 -2.96308 -4.13617 0
M  V30 5150 H 471.002 -0.167626 -5.65452 0
M  V30 5151 H 469.559 -0.576973 -6.49241 0
M  V30 5152 N 472.992 0.995999 -1.22138 0
M  V30 5153 C 474.269 1.70834 -0.952642 0
M  V30 5154 C 474.649 2.04257 0.533119 0
M  V30 5155 O 473.997 1.72343 1.50034 0
M  V30 5156 C 474.207 2.96119 -1.84701 0
M  V30 5157 C 475.555 3.68962 -2.10124 0
M  V30 5158 O 476.579 3.0612 -1.82124 0
M  V30 5159 O 475.438 4.82017 -2.57531 0
M  V30 5160 H 472.532 0.745498 -0.357997 0
M  V30 5161 H 475.078 1.05262 -1.33109 0
M  V30 5162 H 473.85 2.67898 -2.85213 0
M  V30 5163 H 473.473 3.6943 -1.46995 0
M  V30 5164 N 474.47 1.03057 1.19235 0
M  V30 5165 C 475.433 0.617418 2.20727 0
M  V30 5166 C 476.433 -0.319856 1.57587 0
M  V30 5167 O 477.623 -0.106633 1.73873 0
M  V30 5168 C 474.755 -0.096296 3.40764 0
M  V30 5169 H 475.948 1.51544 2.58794 0
M  V30 5170 H 473.501 0.821949 1.32942 0
M  V30 5171 H 474.236 -1.00859 3.08217 0
M  V30 5172 H 474.021 0.577217 3.87828 0
M  V30 5173 H 475.511 -0.372219 4.15938 0
M  V30 5174 N 475.948 -1.35272 0.808662 0
M  V30 5175 C 476.878 -2.32315 0.234981 0
M  V30 5176 C 477.859 -1.57572 -0.64071 0
M  V30 5177 O 479.044 -1.8563 -0.570551 0
M  V30 5178 C 476.174 -3.41801 -0.615601 0
M  V30 5179 C 475.128 -4.27694 0.161767 0
M  V30 5180 C 474.454 -5.28519 -0.810649 0
M  V30 5181 C 475.754 -5.04231 1.36193 0
M  V30 5182 H 477.448 -2.80543 1.04575 0
M  V30 5183 H 474.994 -1.3488 0.504315 0
M  V30 5184 H 476.947 -4.08693 -1.02702 0
M  V30 5185 H 475.671 -2.92186 -1.45928 0
M  V30 5186 H 474.33 -3.62384 0.554382 0
M  V30 5187 H 473.978 -4.75171 -1.64988 0
M  V30 5188 H 473.678 -5.8686 -0.294822 0
M  V30 5189 H 475.202 -5.98283 -1.22023 0
M  V30 5190 H 476.616 -5.64058 1.02528 0
M  V30 5191 H 475.013 -5.72077 1.81239 0
M  V30 5192 H 476.083 -4.34753 2.14751 0
M  V30 5193 N 477.426 -0.562348 -1.47226 0
M  V30 5194 C 478.336 0.185466 -2.33866 0
M  V30 5195 C 479.352 0.906713 -1.48508 0
M  V30 5196 O 480.528 0.874458 -1.81425 0
M  V30 5197 C 477.593 1.19904 -3.25306 0
M  V30 5198 C 476.654 0.484669 -4.26555 0
M  V30 5199 C 475.887 1.44996 -5.13626 0
M  V30 5200 O 476.11 2.68515 -5.03245 0
M  V30 5201 O 475.044 0.971642 -5.94006 0
M  V30 5202 H 478.87 -0.525361 -2.99121 0
M  V30 5203 H 476.455 -0.322916 -1.45868 0
M  V30 5204 H 478.337 1.78399 -3.81774 0
M  V30 5205 H 477.012 1.8917 -2.62672 0
M  V30 5206 H 475.919 -0.141605 -3.73832 0
M  V30 5207 H 477.252 -0.166634 -4.91918 0
M  V30 5208 N 478.904 1.54736 -0.299062 0
M  V30 5209 C 479.851 2.23448 0.577899 0
M  V30 5210 C 480.821 1.21637 1.13109 0
M  V30 5211 O 482.006 1.50252 1.17597 0
M  V30 5212 C 479.146 2.9774 1.74484 0
M  V30 5213 C 478.259 4.1432 1.22323 0
M  V30 5214 C 477.394 4.76199 2.35388 0
M  V30 5215 C 476.433 5.84927 1.80351 0
M  V30 5216 N 475.57 6.4077 2.86982 0
M  V30 5217 H 480.41 2.97996 -0.0146545 0
M  V30 5218 H 477.947 1.47088 -0.0190013 0
M  V30 5219 H 479.905 3.39045 2.43114 0
M  V30 5220 H 478.535 2.25572 2.30905 0
M  V30 5221 H 477.587 3.7797 0.429249 0
M  V30 5222 H 478.899 4.92659 0.780309 0
M  V30 5223 H 478.053 5.20346 3.11969 0
M  V30 5224 H 476.792 3.97188 2.83006 0
M  V30 5225 H 475.797 5.40207 1.02259 0
M  V30 5226 H 477.022 6.65821 1.3364 0
M  V30 5227 H 474.968 5.64643 3.33938 0
M  V30 5228 H 474.885 7.1445 2.4718 0
M  V30 5229 H 476.153 6.89574 3.63466 0
M  V30 5230 N 480.382 0.0267497 1.57577 0
M  V30 5231 C 481.312 -0.954308 2.13108 0
M  V30 5232 C 482.293 -1.34088 1.04663 0
M  V30 5233 O 483.478 -1.41992 1.32484 0
M  V30 5234 C 480.608 -2.23744 2.65624 0
M  V30 5235 C 479.562 -1.99168 3.78835 0
M  V30 5236 C 478.888 -3.33726 4.17769 0
M  V30 5237 C 480.188 -1.33277 5.0501 0
M  V30 5238 H 481.882 -0.491848 2.95332 0
M  V30 5239 H 479.428 -0.23514 1.42067 0
M  V30 5240 H 481.381 -2.92754 3.03106 0
M  V30 5241 H 480.105 -2.72151 1.80558 0
M  V30 5242 H 478.764 -1.32577 3.41788 0
M  V30 5243 H 478.412 -3.79888 3.29688 0
M  V30 5244 H 478.112 -3.18089 4.94058 0
M  V30 5245 H 479.636 -4.04008 4.57832 0
M  V30 5246 H 481.05 -1.92283 5.40093 0
M  V30 5247 H 479.447 -1.28045 5.8628 0
M  V30 5248 H 480.517 -0.305411 4.83937 0
M  V30 5249 N 481.861 -1.55662 -0.24637 0
M  V30 5250 C 482.809 -1.91186 -1.3248 0
M  V30 5251 C 483.803 -0.790996 -1.49799 0
M  V30 5252 O 485.009 -0.975617 -1.51267 0
M  V30 5253 H 481.384 -0.607207 -0.443626 0
M  V30 5254 H 483.355 -2.81221 -0.997853 0
M  V30 5255 C 482.104 -2.22349 -2.67313 0
M  V30 5256 H 481.427 -3.08097 -2.54786 0
M  V30 5257 H 482.867 -2.51107 -3.41645 0
M  V30 5258 C 481.326 -1.04001 -3.20446 0
M  V30 5259 O 481.856 -0.28828 -4.00664 0
M  V30 5260 N 480.062 -0.830494 -2.7848 0
M  V30 5261 H 479.609 -1.4435 -2.13356 0
M  V30 5262 H 479.567 -0.0403258 -3.14374 0
M  V30 5263 N 483.339 0.512053 -1.4905 0
M  V30 5264 C 484.272 1.63209 -1.59493 0
M  V30 5265 C 485.25 1.56407 -0.444481 0
M  V30 5266 O 486.434 1.76623 -0.658535 0
M  V30 5267 C 483.561 3.01685 -1.53961 0
M  V30 5268 C 482.607 3.26786 -2.74068 0
M  V30 5269 S 483.44 3.11107 -4.35859 0
M  V30 5270 C 484.596 4.51997 -4.32954 0
M  V30 5271 H 484.829 1.54104 -2.54243 0
M  V30 5272 H 482.362 0.696382 -1.37804 0
M  V30 5273 H 484.32 3.81538 -1.51455 0
M  V30 5274 H 482.981 3.08215 -0.605178 0
M  V30 5275 H 482.174 4.27849 -2.66386 0
M  V30 5276 H 481.776 2.54635 -2.73928 0
M  V30 5277 H 484.068 5.43871 -4.03993 0
M  V30 5278 H 485.011 4.64731 -5.34257 0
M  V30 5279 H 485.419 4.32159 -3.63178 0
M  V30 5280 N 484.817 1.37938 0.762283 0
M  V30 5281 C 486.065 1.33404 1.51815 0
M  V30 5282 C 486.386 -0.0780975 1.94844 0
M  V30 5283 O 485.656 -1.02405 1.67003 0
M  V30 5284 H 484.236 0.490839 0.563104 0
M  V30 5285 H 486.898 1.72527 0.906669 0
M  V30 5286 H 485.994 1.97926 2.41313 0
M  V30 5287 N 486.295 -0.989507 1.22664 0
M  V30 5288 C 487.544 -1.72375 1.04737 0
M  V30 5289 C 487.857 -1.91096 -0.417316 0
M  V30 5290 O 489.063 -2.6188 -0.716334 0
M  V30 5291 C 487.519 -3.10161 1.82561 0
M  V30 5292 C 487.127 -2.99358 3.333 0
M  V30 5293 C 488.871 -3.87607 1.73093 0
M  V30 5294 C 486.778 -4.32319 4.03552 0
M  V30 5295 H 485.708 -0.646326 0.388302 0
M  V30 5296 H 488.359 -1.10437 1.46546 0
M  V30 5297 H 486.741 -3.728 1.33552 0
M  V30 5298 H 487.915 -2.45863 3.89728 0
M  V30 5299 H 486.23 -2.35392 3.43481 0
M  V30 5300 H 488.827 -4.86025 2.22899 0
M  V30 5301 H 489.17 -4.10509 0.691976 0
M  V30 5302 H 489.703 -3.31652 2.19663 0
M  V30 5303 H 486.442 -4.14616 5.07714 0
M  V30 5304 H 485.962 -4.85714 3.51911 0
M  V30 5305 H 487.641 -5.01051 4.09337 0
M  V30 5306 N 487.773 -1.03688 -1.18687 0
M  V30 5307 C 489.001 -0.757918 -1.92518 0
M  V30 5308 C 489.416 0.684398 -1.75959 0
M  V30 5309 O 488.773 1.46617 -1.08673 0
M  V30 5310 C 488.824 -1.10985 -3.44042 0
M  V30 5311 O 488.545 -2.49554 -3.60076 0
M  V30 5312 C 490.046 -0.854844 -4.3498 0
M  V30 5313 H 487.266 -0.276699 -0.611293 0
M  V30 5314 H 489.81 -1.38352 -1.50595 0
M  V30 5315 H 487.965 -0.529279 -3.83767 0
M  V30 5316 H 488.379 -2.6291 -4.53849 0
M  V30 5317 H 489.853 -1.15098 -5.39867 0
M  V30 5318 H 490.33 0.210507 -4.38695 0
M  V30 5319 H 490.936 -1.41853 -4.00946 0
M  V30 5320 N 489.251 1.34841 -0.815825 0
M  V30 5321 C 490.528 1.92908 -0.323416 0
M  V30 5322 C 490.908 1.74479 1.18828 0
M  V30 5323 O 490.256 1.11928 1.99209 0
M  V30 5324 C 490.466 3.40957 -0.744952 0
M  V30 5325 C 491.814 4.18107 -0.739716 0
M  V30 5326 O 492.838 3.49511 -0.68708 0
M  V30 5327 O 491.697 5.40517 -0.806456 0
M  V30 5328 H 488.791 0.822436 -0.0867646 0
M  V30 5329 H 491.337 1.4386 -0.90014 0
M  V30 5330 H 490.109 3.4814 -1.78646 0
M  V30 5331 H 489.732 3.97341 -0.143535 0
M  V30 5332 N 490.729 0.570148 1.46925 0
M  V30 5333 C 491.659 -0.158274 2.32963 0
M  V30 5334 C 492.64 -0.896093 1.44583 0
M  V30 5335 O 493.825 -0.874022 1.7342 0
M  V30 5336 C 490.955 -1.18055 3.26619 0
M  V30 5337 C 489.909 -0.558379 4.24342 0
M  V30 5338 C 489.235 -1.68623 5.07415 0
M  V30 5339 C 490.535 0.496295 5.19937 0
M  V30 5340 H 492.229 0.560046 2.94115 0
M  V30 5341 H 489.775 0.270775 1.41431 0
M  V30 5342 H 491.728 -1.69841 3.85658 0
M  V30 5343 H 490.452 -1.92899 2.63548 0
M  V30 5344 H 489.111 -0.0617157 3.66548 0
M  V30 5345 H 488.759 -2.42402 4.40738 0
M  V30 5346 H 488.459 -1.27564 5.73586 0
M  V30 5347 H 489.983 -2.20709 5.69315 0
M  V30 5348 H 491.397 0.0640052 5.73264 0
M  V30 5349 H 489.794 0.82649 5.94381 0
M  V30 5350 H 490.864 1.38735 4.6463 0
M  V30 5351 N 492.207 -1.54576 0.307264 0
M  V30 5352 C 493.139 -2.21212 -0.599807 0
M  V30 5353 C 494.152 -1.20685 -1.09266 0
M  V30 5354 O 495.341 -1.47244 -1.00903 0
M  V30 5355 C 492.441 -2.84994 -1.83389 0
M  V30 5356 C 491.614 -4.11511 -1.48248 0
M  V30 5357 C 490.673 -4.59038 -2.57237 0
M  V30 5358 O 489.699 -5.24095 -2.22065 0
M  V30 5359 N 490.901 -4.31884 -3.87887 0
M  V30 5360 H 493.666 -2.99686 -0.0293075 0
M  V30 5361 H 491.227 -1.61379 0.129738 0
M  V30 5362 H 493.219 -3.1372 -2.5566 0
M  V30 5363 H 491.789 -2.10324 -2.31263 0
M  V30 5364 H 491.009 -3.89728 -0.592122 0
M  V30 5365 H 492.297 -4.93879 -1.22316 0
M  V30 5366 H 491.695 -3.79778 -4.19268 0
M  V30 5367 H 490.252 -4.65304 -4.56438 0
M  V30 5368 N 493.685 -0.035106 -1.57561 0
M  V30 5369 C 494.933 0.64096 -1.91667 0
M  V30 5370 C 495.254 1.72323 -0.912681 0
M  V30 5371 O 494.524 1.95849 0.0449089 0
M  V30 5372 H 493.104 0.239743 -0.707483 0
M  V30 5373 H 495.766 -0.084321 -1.94718 0
M  V30 5374 H 494.862 1.08987 -2.92452 0
M  V30 5375 N 495.163 1.55791 0.238111 0
M  V30 5376 C 496.093 1.94068 1.29846 0
M  V30 5377 C 497.074 0.806726 1.49753 0
M  V30 5378 O 498.259 1.06772 1.62214 0
M  V30 5379 C 495.389 2.24302 2.65153 0
M  V30 5380 C 494.343 3.40032 2.59927 0
M  V30 5381 C 493.669 3.55829 3.99111 0
M  V30 5382 C 494.969 4.75476 2.16148 0
M  V30 5383 H 496.663 2.82887 0.980563 0
M  V30 5384 H 494.209 1.36105 0.470253 0
M  V30 5385 H 496.162 2.4967 3.39475 0
M  V30 5386 H 494.886 1.32318 2.98596 0
M  V30 5387 H 493.545 3.14687 1.88063 0
M  V30 5388 H 493.193 2.6125 4.29834 0
M  V30 5389 H 492.893 4.3366 3.96501 0
M  V30 5390 H 494.417 3.83528 4.7512 0
M  V30 5391 H 495.831 5.00158 2.80205 0
M  V30 5392 H 494.228 5.56472 2.24631 0
M  V30 5393 H 495.298 4.71946 1.11333 0
M  V30 5394 N 496.642 -0.504142 1.49319 0
M  V30 5395 C 498.058 -0.835039 1.36012 0
M  V30 5396 C 498.258 -1.97674 0.390808 0
M  V30 5397 O 497.314 -2.51867 -0.178655 0
M  V30 5398 C 498.627 -1.17821 2.76656 0
M  V30 5399 C 500.175 -1.2866 2.85334 0
M  V30 5400 C 500.65 -1.66307 4.26739 0
M  V30 5401 N 502.141 -1.73362 4.29534 0
M  V30 5402 C 502.876 -2.0393 5.35911 0
M  V30 5403 N 502.372 -2.32744 6.52535 0
M  V30 5404 N 504.165 -2.05155 5.23324 0
M  V30 5405 H 496.316 0.248764 2.10938 0
M  V30 5406 H 498.579 0.0486962 0.946748 0
M  V30 5407 H 498.285 -0.412682 3.4927 0
M  V30 5408 H 498.159 -2.12239 3.11825 0
M  V30 5409 H 500.546 -2.04285 2.1296 0
M  V30 5410 H 500.627 -0.323004 2.53752 0
M  V30 5411 H 500.271 -0.91234 4.99639 0
M  V30 5412 H 500.201 -2.63761 4.55782 0
M  V30 5413 H 502.692 -1.53268 3.45424 0
M  V30 5414 H 503.005 -2.55248 7.2943 0
M  V30 5415 H 501.35 -2.30207 6.55767 0
M  V30 5416 H 504.541 -1.82119 4.3122 0
M  V30 5417 H 504.714 -2.28644 6.06322 0
M  V30 5418 N 498.12 -1.38341 -0.754957 0
M  V30 5419 C 499.05 -1.38176 -1.88227 0
M  V30 5420 C 500.031 -0.247873 -1.68284 0
M  V30 5421 O 501.216 -0.45075 -1.88896 0
M  V30 5422 C 498.346 -1.20471 -3.25736 0
M  V30 5423 C 497.3 -2.3105 -3.60278 0
M  V30 5424 C 496.626 -1.98452 -4.96509 0
M  V30 5425 C 497.926 -3.73305 -3.65295 0
M  V30 5426 H 499.62 -2.32512 -1.88622 0
M  V30 5427 H 497.166 -1.1192 -0.906082 0
M  V30 5428 H 499.119 -1.18982 -4.04254 0
M  V30 5429 H 497.843 -0.225965 -3.25817 0
M  V30 5430 H 496.502 -2.31723 -2.84078 0
M  V30 5431 H 496.15 -0.990641 -4.93148 0
M  V30 5432 H 495.85 -2.7251 -5.20588 0
M  V30 5433 H 497.374 -1.98578 -5.77407 0
M  V30 5434 H 498.788 -3.7467 -4.3393 0
M  V30 5435 H 497.185 -4.46557 -4.00883 0
M  V30 5436 H 498.255 -4.05719 -2.65556 0
M  V30 5437 N 499.598 0.982988 -1.23187 0
M  V30 5438 C 500.828 1.75666 -1.08743 0
M  V30 5439 C 501.236 1.85662 0.364195 0
M  V30 5440 O 500.579 1.33317 1.26382 0
M  V30 5441 C 500.641 3.20144 -1.63549 0
M  V30 5442 C 500.305 3.33665 -3.12277 0
M  V30 5443 C 501.302 3.20194 -4.096 0
M  V30 5444 C 498.987 3.58397 -3.51933 0
M  V30 5445 C 500.981 3.31256 -5.44563 0
M  V30 5446 C 498.668 3.69098 -4.87042 0
M  V30 5447 C 499.666 3.55537 -5.83166 0
M  V30 5448 O 499.354 3.65864 -7.1582 0
M  V30 5449 H 499.086 0.558194 -0.381307 0
M  V30 5450 H 501.64 1.24387 -1.63454 0
M  V30 5451 H 499.87 3.72659 -1.03256 0
M  V30 5452 H 501.559 3.79262 -1.4462 0
M  V30 5453 H 502.325 3.00987 -3.80305 0
M  V30 5454 H 498.204 3.68025 -2.77631 0
M  V30 5455 H 501.748 3.20588 -6.19572 0
M  V30 5456 H 497.645 3.87814 -5.16014 0
M  V30 5457 H 498.413 3.82675 -7.23534 0
M  V30 5458 N 501.076 1.04316 1.18135 0
M  V30 5459 C 502.322 0.749128 1.88457 0
M  V30 5460 C 502.655 -0.72149 1.803 0
M  V30 5461 O 501.93 -1.52676 1.205 0
M  V30 5462 C 502.213 1.21905 3.38838 0
M  V30 5463 C 502.066 2.75195 3.55792 0
M  V30 5464 C 503.385 0.811085 4.32561 0
M  V30 5465 H 500.504 0.273611 0.684329 0
M  V30 5466 H 503.146 1.29561 1.38975 0
M  V30 5467 H 501.296 0.754137 3.8111 0
M  V30 5468 H 502.968 3.29743 3.22595 0
M  V30 5469 H 501.211 3.14899 2.98364 0
M  V30 5470 H 501.882 3.03135 4.61317 0
M  V30 5471 H 504.358 1.21118 3.98082 0
M  V30 5472 H 503.234 1.16761 5.36338 0
M  V30 5473 H 503.495 -0.285596 4.41177 0
M  V30 5474 N 502.554 -1.34406 0.822964 0
M  V30 5475 C 503.517 -2.2783 0.250271 0
M  V30 5476 C 504.517 -1.50288 -0.571854 0
M  V30 5477 O 505.707 -1.69825 -0.387952 0
M  V30 5478 C 502.839 -3.34663 -0.649137 0
M  V30 5479 H 504.032 -2.79992 1.07444 0
M  V30 5480 H 501.585 -1.44539 0.594829 0
M  V30 5481 H 502.32 -2.87714 -1.49637 0
M  V30 5482 H 502.105 -3.92052 -0.0611199 0
M  V30 5483 H 503.595 -4.04349 -1.04363 0
M  V30 5484 N 504.032 -0.577932 -1.46621 0
M  V30 5485 C 504.995 0.147805 -2.28723 0
M  V30 5486 C 505.995 0.823325 -1.38123 0
M  V30 5487 O 507.185 0.676011 -1.60548 0
M  V30 5488 C 504.317 1.21853 -3.18378 0
M  V30 5489 H 505.51 -0.573654 -2.94362 0
M  V30 5490 H 503.063 -0.335703 -1.52652 0
M  V30 5491 H 503.798 1.97173 -2.57475 0
M  V30 5492 H 503.583 0.738714 -3.85078 0
M  V30 5493 H 505.073 1.72768 -3.80186 0
M  V30 5494 N 505.51 1.54411 -0.315457 0
M  V30 5495 C 506.473 2.22713 0.54142 0
M  V30 5496 C 507.473 1.2179 1.04995 0
M  V30 5497 O 508.663 1.46426 0.943667 0
M  V30 5498 C 505.795 2.92485 1.75116 0
M  V30 5499 H 506.988 2.99849 -0.0555508 0
M  V30 5500 H 504.541 1.56159 -0.0664453 0
M  V30 5501 H 505.276 2.19466 2.38758 0
M  V30 5502 H 505.061 3.66483 1.39401 0
M  V30 5503 H 506.551 3.44548 2.35959 0
M  V30 5504 N 506.988 0.0434614 1.5754 0
M  V30 5505 C 508.237 -0.631454 1.91561 0
M  V30 5506 C 508.55 -1.72457 0.92292 0
M  V30 5507 O 509.756 -2.45712 1.15489 0
M  V30 5508 C 508.212 -1.17447 3.40197 0
M  V30 5509 C 507.82 -0.113867 4.47855 0
M  V30 5510 C 509.564 -1.82507 3.83264 0
M  V30 5511 C 507.471 -0.669326 5.876 0
M  V30 5512 H 506.401 -0.239629 0.714908 0
M  V30 5513 H 509.052 0.111097 1.83163 0
M  V30 5514 H 507.434 -1.96909 3.43574 0
M  V30 5515 H 508.608 0.659348 4.56058 0
M  V30 5516 H 506.923 0.438821 4.14081 0
M  V30 5517 H 509.52 -2.25047 4.85034 0
M  V30 5518 H 509.863 -2.67365 3.19095 0
M  V30 5519 H 510.396 -1.09712 3.82372 0
M  V30 5520 H 507.135 0.141449 6.55347 0
M  V30 5521 H 506.655 -1.4107 5.82974 0
M  V30 5522 H 508.334 -1.15463 6.36614 0
M  V30 5523 N 508.466 -1.55915 -0.229846 0
M  V30 5524 C 509.715 -1.77742 -0.953455 0
M  V30 5525 C 510.028 -0.610524 -1.85828 0
M  V30 5526 O 511.234 -0.712219 -2.61992 0
M  V30 5527 C 509.69 -3.14738 -1.74551 0
M  V30 5528 C 509.298 -4.39126 -0.887242 0
M  V30 5529 C 511.042 -3.45895 -2.46084 0
M  V30 5530 C 508.949 -5.67149 -1.67617 0
M  V30 5531 H 507.879 -0.662648 -0.359741 0
M  V30 5532 H 510.53 -1.82322 -0.207576 0
M  V30 5533 H 508.912 -3.04311 -2.53399 0
M  V30 5534 H 510.086 -4.60588 -0.139892 0
M  V30 5535 H 508.401 -4.15427 -0.284443 0
M  V30 5536 H 510.998 -4.38767 -3.05594 0
M  V30 5537 H 511.341 -2.68007 -3.18556 0
M  V30 5538 H 511.874 -3.57614 -1.74233 0
M  V30 5539 H 508.613 -6.47906 -0.994881 0
M  V30 5540 H 508.133 -5.49763 -2.39836 0
M  V30 5541 H 509.812 -6.07025 -2.23898 0
M  V30 5542 N 509.944 0.496216 -1.49584 0
M  V30 5543 C 510.854 1.62352 -1.69349 0
M  V30 5544 C 511.87 1.64184 -0.576147 0
M  V30 5545 O 513.046 1.82517 -0.85144 0
M  V30 5546 C 510.111 2.98698 -1.76013 0
M  V30 5547 C 509.172 3.07454 -2.99617 0
M  V30 5548 C 508.405 4.37296 -3.05953 0
M  V30 5549 O 508.628 5.2637 -2.19752 0
M  V30 5550 O 507.562 4.51124 -3.9846 0
M  V30 5551 H 511.388 1.48606 -2.64859 0
M  V30 5552 H 508.973 0.673022 -1.33382 0
M  V30 5553 H 510.855 3.79725 -1.82721 0
M  V30 5554 H 509.53 3.12696 -0.836828 0
M  V30 5555 H 508.437 2.25597 -2.98424 0
M  V30 5556 H 509.77 2.98385 -3.91443 0
M  V30 5557 N 511.423 1.38739 0.74761 0
M  V30 5558 C 512.648 1.38702 1.54197 0
M  V30 5559 C 513.073 -0.019664 1.8809 0
M  V30 5560 O 512.431 -1.00333 1.51006 0
M  V30 5561 C 512.479 2.25492 2.814 0
M  V30 5562 O 511.583 1.67613 3.76802 0
M  V30 5563 H 510.924 0.472863 0.466151 0
M  V30 5564 H 513.454 1.82577 0.923413 0
M  V30 5565 H 513.464 2.39561 3.30264 0
M  V30 5566 H 512.139 3.27727 2.56062 0
M  V30 5567 H 510.716 1.62718 3.35526 0
M  V30 5568 N 512.901 -0.976442 1.23707 0
M  V30 5569 C 514.312 -1.53284 1.06587 0
M  V30 5570 C 514.663 -1.92765 -0.365526 0
M  V30 5571 O 513.788 -1.7645 -1.25277 0
M  V30 5572 C 514.383 -2.78548 1.92864 0
M  V30 5573 C 512.942 -3.30574 1.79994 0
M  V30 5574 C 512.089 -2.03538 1.88328 0
M  V30 5575 H 515.04 -0.795692 1.37311 0
M  V30 5576 H 515.061 -3.5155 1.45577 0
M  V30 5577 H 514.573 -2.49782 2.97037 0
M  V30 5578 H 512.674 -3.64211 0.786202 0
M  V30 5579 H 512.787 -4.00065 2.636 0
M  V30 5580 H 511.151 -2.17853 1.31954 0
M  V30 5581 H 511.934 -1.77149 2.94063 0
M  V30 5582 N 514.379 -1.04941 -1.1758 0
M  V30 5583 C 515.627 -0.756492 -1.87408 0
M  V30 5584 C 515.948 0.718478 -1.81281 0
M  V30 5585 O 515.218 1.519 -1.23706 0
M  V30 5586 H 513.798 -0.276841 -0.693807 0
M  V30 5587 H 516.46 -1.32803 -1.42652 0
M  V30 5588 H 515.556 -1.06918 -2.93215 0
M  V30 5589 N 515.857 1.33968 -0.830081 0
M  V30 5590 C 517.105 1.97672 -0.420734 0
M  V30 5591 C 517.426 1.66111 1.02138 0
M  V30 5592 O 516.696 0.955503 1.71017 0
M  V30 5593 H 515.276 0.73125 -0.152587 0
M  V30 5594 H 517.938 1.63483 -1.0611 0
M  V30 5595 H 517.034 3.07294 -0.545588 0
M  V30 5596 N 517.335 0.585699 1.46312 0
M  V30 5597 C 518.245 -0.148236 2.34131 0
M  V30 5598 C 519.261 -0.882972 1.49932 0
M  V30 5599 O 520.437 -0.845484 1.82794 0
M  V30 5600 C 517.502 -1.14714 3.27172 0
M  V30 5601 C 516.563 -0.416746 4.27272 0
M  V30 5602 C 515.796 -1.36806 5.15868 0
M  V30 5603 O 516.019 -2.60475 5.07454 0
M  V30 5604 O 514.953 -0.877018 5.95476 0
M  V30 5605 H 518.779 0.572882 2.98248 0
M  V30 5606 H 516.364 0.346082 1.45336 0
M  V30 5607 H 518.246 -1.72303 3.84564 0
M  V30 5608 H 516.921 -1.84967 2.65648 0
M  V30 5609 H 515.828 0.201061 3.73559 0
M  V30 5610 H 517.161 0.244872 4.9159 0
M  V30 5611 N 518.813 -1.54241 0.323641 0
M  V30 5612 C 519.746 -2.20579 -0.584833 0
M  V30 5613 C 520.724 -1.18286 -1.11567 0
M  V30 5614 O 521.908 -1.47025 -1.17966 0
M  V30 5615 C 519.035 -2.86754 -1.80249 0
M  V30 5616 C 518.081 -4.02767 -1.4029 0
M  V30 5617 S 518.914 -5.33693 -0.439539 0
M  V30 5618 C 520.07 -6.03362 -1.66448 0
M  V30 5619 H 520.303 -2.97292 -0.0213238 0
M  V30 5620 H 517.836 -1.54024 0.107726 0
M  V30 5621 H 519.794 -3.25503 -2.50116 0
M  V30 5622 H 518.455 -2.09844 -2.33719 0
M  V30 5623 H 517.648 -4.47933 -2.31024 0
M  V30 5624 H 517.25 -3.65692 -0.783928 0
M  V30 5625 H 519.542 -6.25546 -2.6019 0
M  V30 5626 H 520.485 -6.9689 -1.25498 0
M  V30 5627 H 520.893 -5.33273 -1.85149 0
M  V30 5628 N 520.291 -0.0518155 -1.57515 0
M  V30 5629 C 521.201 0.937539 -2.15052 0
M  V30 5630 C 522.217 1.34121 -1.10849 0
M  V30 5631 O 523.393 1.418 -1.4302 0
M  V30 5632 C 520.458 2.19379 -2.68466 0
M  V30 5633 C 519.519 1.84841 -3.87469 0
M  V30 5634 C 518.752 3.04477 -4.38326 0
M  V30 5635 O 518.975 4.17868 -3.88256 0
M  V30 5636 O 517.909 2.85453 -5.29906 0
M  V30 5637 H 521.735 0.478201 -2.99912 0
M  V30 5638 H 519.32 0.17012 -1.48428 0
M  V30 5639 H 521.202 2.93084 -3.02787 0
M  V30 5640 H 519.877 2.64449 -1.86677 0
M  V30 5641 H 518.784 1.08449 -3.58036 0
M  V30 5642 H 520.117 1.44569 -4.7049 0
M  V30 5643 N 521.769 1.56035 0.221574 0
M  V30 5644 C 522.679 1.95581 1.29558 0
M  V30 5645 C 523.695 0.859639 1.51282 0
M  V30 5646 O 524.871 1.16321 1.64413 0
M  V30 5647 C 521.936 2.26447 2.62531 0
M  V30 5648 C 520.997 3.49632 2.4911 0
M  V30 5649 C 520.23 3.79017 3.75742 0
M  V30 5650 O 520.453 3.10077 4.78757 0
M  V30 5651 O 519.387 4.72507 3.72855 0
M  V30 5652 H 523.213 2.8711 0.990035 0
M  V30 5653 H 520.798 1.43244 0.424434 0
M  V30 5654 H 522.68 2.47494 3.41064 0
M  V30 5655 H 521.355 1.38092 2.92766 0
M  V30 5656 H 520.262 3.33864 1.68777 0
M  V30 5657 H 521.595 4.3837 2.23814 0
M  V30 5658 N 523.247 -0.488276 1.49845 0
M  V30 5659 C 524.21 -1.57069 1.66919 0
M  V30 5660 C 525.21 -1.51445 0.540479 0
M  V30 5661 O 526.4 -1.5437 0.807188 0
M  V30 5662 C 523.532 -2.96718 1.67844 0
M  V30 5663 H 524.725 -1.43254 2.63474 0
M  V30 5664 H 522.278 -0.713435 1.39068 0
M  V30 5665 H 523.013 -3.15996 0.7292 0
M  V30 5666 H 522.798 -3.02208 2.49826 0
M  V30 5667 H 524.288 -3.75335 1.83066 0
M  V30 5668 N 524.725 -1.39134 -0.740242 0
M  V30 5669 C 525.635 -1.39697 -1.88473 0
M  V30 5670 C 526.651 -0.292403 -1.71526 0
M  V30 5671 O 527.827 -0.533021 -1.94219 0
M  V30 5672 C 524.892 -1.23382 -3.24003 0
M  V30 5673 C 523.953 -2.43763 -3.53381 0
M  V30 5674 C 523.186 -2.28216 -4.82445 0
M  V30 5675 O 523.409 -1.28288 -5.55786 0
M  V30 5676 O 522.343 -3.1709 -5.11603 0
M  V30 5677 H 526.169 -2.36159 -1.90952 0
M  V30 5678 H 523.754 -1.20194 -0.887346 0
M  V30 5679 H 525.636 -1.16395 -4.05006 0
M  V30 5680 H 524.311 -0.300121 -3.22306 0
M  V30 5681 H 523.218 -2.56325 -2.72485 0
M  V30 5682 H 524.551 -3.35808 -3.59852 0
M  V30 5683 N 526.204 0.969867 -1.24223 0
M  V30 5684 C 527.134 2.08191 -1.05729 0
M  V30 5685 C 528.115 1.70075 0.0290765 0
M  V30 5686 O 529.3 1.93712 -0.137583 0
M  V30 5687 C 526.43 3.40991 -0.658995 0
M  V30 5688 C 525.384 3.93054 -1.69389 0
M  V30 5689 C 524.71 5.22171 -1.15072 0
M  V30 5690 C 526.01 4.21137 -3.08935 0
M  V30 5691 H 527.704 2.23921 -1.98746 0
M  V30 5692 H 525.25 1.07602 -0.956967 0
M  V30 5693 H 527.203 4.18221 -0.51662 0
M  V30 5694 H 525.927 3.25155 0.30686 0
M  V30 5695 H 524.586 3.17977 -1.82444 0
M  V30 5696 H 524.234 5.02694 -0.175539 0
M  V30 5697 H 523.934 5.57973 -1.84229 0
M  V30 5698 H 525.458 6.02013 -1.02042 0
M  V30 5699 H 526.872 4.8908 -2.99121 0
M  V30 5700 H 525.269 4.68163 -3.75425 0
M  V30 5701 H 526.339 3.27996 -3.57137 0
M  V30 5702 N 527.682 1.05563 1.17022 0
M  V30 5703 C 528.91 0.78845 1.91288 0
M  V30 5704 C 529.325 -0.656318 1.77025 0
M  V30 5705 O 528.682 -1.44869 1.10992 0
M  V30 5706 C 528.733 1.16444 3.42232 0
M  V30 5707 O 528.454 2.5525 3.5606 0
M  V30 5708 C 529.955 0.923937 4.33565 0
M  V30 5709 H 527.175 0.286389 0.606813 0
M  V30 5710 H 529.719 1.4073 1.48375 0
M  V30 5711 H 527.874 0.590266 3.82877 0
M  V30 5712 H 528.288 2.70097 4.49609 0
M  V30 5713 H 529.762 1.23672 5.37968 0
M  V30 5714 H 530.239 -0.140688 4.38975 0
M  V30 5715 H 530.845 1.48214 3.98639 0
M  V30 5716 N 529.16 -1.33526 0.837174 0
M  V30 5717 C 530.385 -2.0258 0.444545 0
M  V30 5718 C 530.81 -1.6258 -0.946006 0
M  V30 5719 O 530.168 -0.817548 -1.6182 0
M  V30 5720 C 530.216 -3.5605 0.571006 0
M  V30 5721 O 529.32 -4.10422 -0.403431 0
M  V30 5722 H 528.661 -0.638866 0.180958 0
M  V30 5723 H 531.191 -1.70462 1.13154 0
M  V30 5724 H 531.201 -4.05488 0.452024 0
M  V30 5725 H 529.876 -3.84509 1.58512 0
M  V30 5726 H 528.453 -3.72113 -0.242147 0
M  V30 5727 N 530.638 -0.59345 -1.46 0
M  V30 5728 C 531.884 -0.0916503 -2.03193 0
M  V30 5729 C 532.239 1.25839 -1.45541 0
M  V30 5730 O 531.532 1.81455 -0.615191 0
M  V30 5731 C 531.726 0.021178 -3.57394 0
M  V30 5732 C 531.555 -1.31638 -4.30002 0
M  V30 5733 C 530.325 -1.89336 -4.68487 0
M  V30 5734 C 532.523 -2.242 -4.62859 0
M  V30 5735 N 530.505 -3.1672 -5.25891 0
M  V30 5736 C 531.876 -3.36175 -5.20948 0
M  V30 5737 C 533.931 -2.23748 -4.44794 0
M  V30 5738 C 532.634 -4.47844 -5.62875 0
M  V30 5739 C 534.66 -3.34454 -4.87744 0
M  V30 5740 C 534.022 -4.4515 -5.45913 0
M  V30 5741 H 530.121 -0.0765713 -0.778242 0
M  V30 5742 H 532.705 -0.788705 -1.7801 0
M  V30 5743 H 530.876 0.687423 -3.82268 0
M  V30 5744 H 532.608 0.528343 -4.01236 0
M  V30 5745 H 529.363 -1.42704 -4.51589 0
M  V30 5746 H 529.787 -3.81746 -5.59106 0
M  V30 5747 H 534.429 -1.39433 -3.99147 0
M  V30 5748 H 532.147 -5.32894 -6.07495 0
M  V30 5749 H 535.733 -3.35234 -4.75509 0
M  V30 5750 H 534.613 -5.29398 -5.78539 0
M  V30 5751 N 532.116 1.54067 -0.331816 0
M  V30 5752 C 533.346 2.04833 0.269605 0
M  V30 5753 C 533.754 1.20714 1.45687 0
M  V30 5754 O 533.097 0.232539 1.82222 0
M  V30 5755 C 533.159 3.51386 0.759499 0
M  V30 5756 C 532.823 4.55971 -0.306557 0
M  V30 5757 C 533.82 5.07126 -1.14538 0
M  V30 5758 C 531.505 5.00216 -0.457116 0
M  V30 5759 C 533.499 6.01096 -2.12042 0
M  V30 5760 C 531.186 5.93999 -1.43556 0
M  V30 5761 C 532.184 6.44326 -2.26568 0
M  V30 5762 O 531.872 7.36267 -3.22749 0
M  V30 5763 H 531.604 0.673509 0.0579763 0
M  V30 5764 H 534.158 1.99748 -0.478521 0
M  V30 5765 H 532.388 3.53896 1.55867 0
M  V30 5766 H 534.077 3.85184 1.28017 0
M  V30 5767 H 534.843 4.73716 -1.04009 0
M  V30 5768 H 530.722 4.60652 0.179142 0
M  V30 5769 H 534.266 6.40302 -2.76873 0
M  V30 5770 H 530.163 6.26825 -1.54146 0
M  V30 5771 H 530.931 7.54165 -3.18083 0
M  V30 5772 N 533.594 0.0601682 1.57485 0
M  V30 5773 C 534.841 -0.611594 1.93043 0
M  V30 5774 C 535.169 -1.70317 0.939274 0
M  V30 5775 O 534.424 -1.95644 -0.046996 0
M  V30 5776 C 534.723 -1.23831 3.35262 0
M  V30 5777 C 534.389 -0.274037 4.50066 0
M  V30 5778 C 533.051 -0.00872394 4.81199 0
M  V30 5779 C 535.403 0.386308 5.19766 0
M  V30 5780 C 532.731 0.924218 5.79375 0
M  V30 5781 C 535.083 1.3075 6.1894 0
M  V30 5782 C 533.747 1.58139 6.48497 0
M  V30 5783 H 533.017 -0.223798 0.706396 0
M  V30 5784 H 535.664 0.128566 1.91068 0
M  V30 5785 H 533.969 -2.05394 3.33647 0
M  V30 5786 H 535.666 -1.76517 3.60059 0
M  V30 5787 H 532.256 -0.491008 4.25778 0
M  V30 5788 H 536.44 0.194436 4.95919 0
M  V30 5789 H 531.696 1.1438 6.00606 0
M  V30 5790 H 535.87 1.82519 6.72056 0
M  V30 5791 H 533.497 2.30593 7.24383 0
M  V30 5792 N 535.072 -1.5615 -0.213296 0
M  V30 5793 C 536.318 -1.79812 -0.937849 0
M  V30 5794 C 536.651 -0.631201 -1.83656 0
M  V30 5795 O 535.926 0.369165 -1.90964 0
M  V30 5796 C 536.209 -3.13613 -1.76972 0
M  V30 5797 C 536.062 -4.40766 -0.89695 0
M  V30 5798 C 537.381 -3.43931 -2.7459 0
M  V30 5799 H 534.5 -0.654138 -0.339518 0
M  V30 5800 H 537.142 -1.88877 -0.20623 0
M  V30 5801 H 535.292 -3.06015 -2.39347 0
M  V30 5802 H 536.964 -4.60392 -0.289306 0
M  V30 5803 H 535.207 -4.33326 -0.202756 0
M  V30 5804 H 535.878 -5.30843 -1.51358 0
M  V30 5805 H 538.354 -3.5171 -2.22349 0
M  V30 5806 H 537.23 -4.38706 -3.29891 0
M  V30 5807 H 537.491 -2.6651 -3.52739 0
M  V30 5808 N 536.55 0.480323 -1.50102 0
M  V30 5809 C 537.775 1.26126 -1.64642 0
M  V30 5810 C 538.2 1.85257 -0.325823 0
M  V30 5811 O 537.558 1.66854 0.709194 0
M  V30 5812 C 537.606 2.35243 -2.73301 0
M  V30 5813 O 536.71 3.39646 -2.33911 0
M  V30 5814 H 536.051 0.371463 -0.550374 0
M  V30 5815 H 538.581 0.572696 -1.96421 0
M  V30 5816 H 538.591 2.80695 -2.96098 0
M  V30 5817 H 537.266 1.91574 -3.6915 0
M  V30 5818 H 535.843 2.99969 -2.21525 0
M  V30 5819 N 538.028 1.39524 0.732853 0
M  V30 5820 C 539.253 1.40329 1.52717 0
M  V30 5821 C 539.678 0.000286574 1.881 0
M  V30 5822 O 539.036 -0.987262 1.52062 0
M  V30 5823 C 539.084 2.28464 2.78992 0
M  V30 5824 O 538.188 1.716 3.75003 0
M  V30 5825 H 537.529 0.47778 0.461109 0
M  V30 5826 H 540.059 1.83546 0.903996 0
M  V30 5827 H 540.069 2.43051 3.27705 0
M  V30 5828 H 538.744 3.30425 2.52572 0
M  V30 5829 H 537.321 1.66267 3.33781 0
M  V30 5830 N 539.506 -0.963266 1.24736 0
M  V30 5831 C 540.917 -1.52145 1.08207 0
M  V30 5832 C 541.268 -1.93142 -0.345061 0
M  V30 5833 O 540.393 -1.77769 -1.23399 0
M  V30 5834 C 540.988 -2.76486 1.95808 0
M  V30 5835 C 539.547 -3.28646 1.8349 0
M  V30 5836 C 538.694 -2.01529 1.90476 0
M  V30 5837 H 541.645 -0.781083 1.38148 0
M  V30 5838 H 541.666 -3.49986 1.49297 0
M  V30 5839 H 541.178 -2.46617 2.99669 0
M  V30 5840 H 539.279 -3.63357 0.824787 0
M  V30 5841 H 539.392 -3.97246 2.67829 0
M  V30 5842 H 537.756 -2.16442 1.34258 0
M  V30 5843 H 538.539 -1.7402 2.95926 0
M  V30 5844 N 540.985 -1.06182 -1.16461 0
M  V30 5845 C 542.232 -0.777863 -1.86964 0
M  V30 5846 C 542.56 0.695602 -1.81636 0
M  V30 5847 O 541.815 1.52532 -1.22607 0
M  V30 5848 C 542.114 -1.21633 -3.36066 0
M  V30 5849 C 541.78 -2.69371 -3.61594 0
M  V30 5850 C 540.442 -3.09727 -3.6827 0
M  V30 5851 C 542.794 -3.64791 -3.7226 0
M  V30 5852 C 540.122 -4.44345 -3.83112 0
M  V30 5853 C 542.474 -4.99155 -3.88623 0
M  V30 5854 C 541.138 -5.39149 -3.93541 0
M  V30 5855 H 540.408 -0.28464 -0.68415 0
M  V30 5856 H 543.055 -1.33071 -1.37711 0
M  V30 5857 H 541.36 -0.582651 -3.87443 0
M  V30 5858 H 543.057 -0.973682 -3.88999 0
M  V30 5859 H 539.647 -2.37124 -3.57029 0
M  V30 5860 H 543.831 -3.34746 -3.66413 0
M  V30 5861 H 539.087 -4.74819 -3.85172 0
M  V30 5862 H 543.261 -5.72976 -3.95817 0
M  V30 5863 H 540.888 -6.43464 -4.04794 0
M  V30 5864 N 542.463 1.3308 -0.844243 0
M  V30 5865 C 543.688 2.02341 -0.455282 0
M  V30 5866 C 544.113 1.6308 0.93737 0
M  V30 5867 O 543.471 0.826118 1.61385 0
M  V30 5868 C 543.519 3.55743 -0.58988 0
M  V30 5869 O 542.623 4.1063 0.38166 0
M  V30 5870 H 541.964 0.637898 -0.184343 0
M  V30 5871 H 544.494 1.6986 -1.14056 0
M  V30 5872 H 544.504 4.05243 -0.473522 0
M  V30 5873 H 543.179 3.83662 -1.60549 0
M  V30 5874 H 541.756 3.72236 0.22241 0
M  V30 5875 N 543.941 0.601185 1.45683 0
M  V30 5876 C 544.871 -0.108824 2.33246 0
M  V30 5877 C 545.852 -0.865223 1.46451 0
M  V30 5878 O 547.037 -0.83704 1.75235 0
M  V30 5879 C 544.167 -1.11101 3.2905 0
M  V30 5880 C 543.121 -0.468244 4.25431 0
M  V30 5881 C 542.447 -1.57822 5.10878 0
M  V30 5882 C 543.747 0.606469 5.18767 0
M  V30 5883 H 545.441 0.622306 2.92861 0
M  V30 5884 H 542.987 0.300714 1.40825 0
M  V30 5885 H 544.94 -1.61622 3.89174 0
M  V30 5886 H 543.664 -1.87265 2.67581 0
M  V30 5887 H 542.323 0.0160484 3.66596 0
M  V30 5888 H 541.971 -2.32998 4.45781 0
M  V30 5889 H 541.671 -1.15369 5.76163 0
M  V30 5890 H 543.195 -2.08583 5.73869 0
M  V30 5891 H 544.609 0.185589 5.73 0
M  V30 5892 H 543.006 0.952381 5.92494 0
M  V30 5893 H 544.076 1.48559 4.61582 0
M  V30 5894 N 545.419 -1.53889 0.339982 0
M  V30 5895 C 546.696 -1.93084 -0.312719 0
M  V30 5896 C 547.076 -1.2712 -1.68534 0
M  V30 5897 O 546.424 -0.420835 -2.24591 0
M  V30 5898 C 546.634 -3.4683 -0.388558 0
M  V30 5899 C 547.982 -4.19732 -0.641088 0
M  V30 5900 O 549.006 -3.53075 -0.470818 0
M  V30 5901 O 547.865 -5.3781 -0.970685 0
M  V30 5902 H 544.959 -0.806784 -0.18174 0
M  V30 5903 H 547.505 -1.65137 0.390898 0
M  V30 5904 H 546.277 -3.87055 0.574821 0
M  V30 5905 H 545.9 -3.80933 -1.1391 0
M  V30 5906 N 546.897 -0.0685191 -1.57451 0
M  V30 5907 C 547.827 0.89747 -2.15564 0
M  V30 5908 C 548.808 1.31266 -1.08181 0
M  V30 5909 O 549.993 1.38429 -1.36202 0
M  V30 5910 C 547.123 2.16623 -2.71463 0
M  V30 5911 C 546.077 1.89054 -3.83982 0
M  V30 5912 C 545.403 3.22532 -4.26471 0
M  V30 5913 C 546.703 1.1984 -5.08366 0
M  V30 5914 H 548.397 0.413373 -2.96533 0
M  V30 5915 H 545.943 0.197391 -1.42641 0
M  V30 5916 H 547.896 2.84614 -3.10761 0
M  V30 5917 H 546.62 2.67269 -1.8771 0
M  V30 5918 H 545.279 1.23469 -3.45183 0
M  V30 5919 H 544.927 3.71013 -3.39644 0
M  V30 5920 H 544.627 3.04879 -5.02317 0
M  V30 5921 H 546.151 3.91727 -4.68383 0
M  V30 5922 H 547.565 1.77896 -5.45001 0
M  V30 5923 H 545.962 1.12456 -5.89469 0
M  V30 5924 H 547.032 0.176996 -4.84577 0
M  V30 5925 N 548.375 1.56261 0.205012 0
M  V30 5926 C 549.6 1.84491 0.947512 0
M  V30 5927 C 550.025 0.650894 1.76479 0
M  V30 5928 O 549.383 -0.40035 1.76824 0
M  V30 5929 C 549.431 3.10863 1.82747 0
M  V30 5930 O 548.535 2.90719 2.925 0
M  V30 5931 H 547.876 0.607783 0.267386 0
M  V30 5932 H 550.406 2.03485 0.213323 0
M  V30 5933 H 550.416 3.41399 2.23407 0
M  V30 5934 H 549.091 3.97392 1.2269 0
M  V30 5935 H 547.668 2.71457 2.55667 0
M  V30 5936 N 549.853 -0.472356 1.50355 0
M  V30 5937 C 550.8 -1.57051 1.69126 0
M  V30 5938 C 551.77 -1.5733 0.532574 0
M  V30 5939 O 552.955 -1.7488 0.762994 0
M  V30 5940 C 550.095 -2.95033 1.79024 0
M  V30 5941 C 549.208 -3.04552 3.06386 0
M  V30 5942 C 548.343 -4.33441 3.07087 0
M  V30 5943 C 547.382 -4.36697 4.28908 0
M  V30 5944 N 546.519 -5.57056 4.27356 0
M  V30 5945 H 551.359 -1.40351 2.62879 0
M  V30 5946 H 548.896 -0.682403 1.30314 0
M  V30 5947 H 550.854 -3.75048 1.82744 0
M  V30 5948 H 549.484 -3.10371 0.887109 0
M  V30 5949 H 548.536 -2.17419 3.12143 0
M  V30 5950 H 549.848 -3.02818 3.96362 0
M  V30 5951 H 549.002 -5.21801 3.09529 0
M  V30 5952 H 547.741 -4.37782 2.14939 0
M  V30 5953 H 546.746 -3.46734 4.2668 0
M  V30 5954 H 547.971 -4.34049 5.22282 0
M  V30 5955 H 545.917 -5.62184 3.3806 0
M  V30 5956 H 545.834 -5.57058 5.111 0
M  V30 5957 H 547.102 -6.47545 4.33942 0
M  V30 5958 N 551.331 -1.39911 -0.725443 0
M  V30 5959 C 552.559 -1.40949 -1.51463 0
M  V30 5960 C 552.974 -0.0065242 -1.88799 0
M  V30 5961 O 552.331 0.967163 -1.54765 0
M  V30 5962 C 552.382 -2.29119 -2.79619 0
M  V30 5963 O 552.103 -3.63952 -2.43866 0
M  V30 5964 C 553.604 -2.38642 -3.73584 0
M  V30 5965 H 550.824 -0.481091 -0.467752 0
M  V30 5966 H 553.368 -1.83843 -0.895651 0
M  V30 5967 H 551.523 -1.89612 -3.37826 0
M  V30 5968 H 551.937 -4.10677 -3.26258 0
M  V30 5969 H 553.411 -3.04563 -4.60375 0
M  V30 5970 H 553.888 -1.40846 -4.16004 0
M  V30 5971 H 554.494 -2.78659 -3.21293 0
M  V30 5972 N 552.809 0.956637 -1.25245 0
M  V30 5973 C 553.756 2.053 -1.05454 0
M  V30 5974 C 554.726 1.66062 0.0356889 0
M  V30 5975 O 555.911 1.90415 -0.121099 0
M  V30 5976 C 553.051 3.38391 -0.677191 0
M  V30 5977 C 552.164 3.90758 -1.84206 0
M  V30 5978 C 551.299 5.12165 -1.40926 0
M  V30 5979 C 550.338 5.56757 -2.54338 0
M  V30 5980 N 549.475 6.69376 -2.11848 0
M  V30 5981 H 554.315 2.21562 -1.99284 0
M  V30 5982 H 551.852 1.08578 -0.992434 0
M  V30 5983 H 553.81 4.1488 -0.43938 0
M  V30 5984 H 552.44 3.22021 0.224127 0
M  V30 5985 H 551.492 3.10808 -2.19323 0
M  V30 5986 H 552.804 4.19802 -2.69383 0
M  V30 5987 H 551.958 5.96065 -1.13098 0
M  V30 5988 H 550.697 4.84832 -0.528175 0
M  V30 5989 H 549.702 4.71423 -2.82913 0
M  V30 5990 H 550.927 5.861 -3.43022 0
M  V30 5991 H 548.873 6.43756 -1.26153 0
M  V30 5992 H 548.79 6.97927 -2.90574 0
M  V30 5993 H 550.058 7.5669 -1.87191 0
M  V30 5994 N 554.287 1.06798 1.15896 0
M  V30 5995 C 555.703 0.792423 1.38538 0
M  V30 5996 C 555.903 -0.60592 1.92174 0
M  V30 5997 O 554.959 -1.36561 2.12385 0
M  V30 5998 C 556.272 1.86157 2.36149 0
M  V30 5999 C 557.82 1.88567 2.49823 0
M  V30 6000 C 558.295 2.9455 3.5072 0
M  V30 6001 N 559.786 2.93616 3.58251 0
M  V30 6002 C 560.521 3.72267 4.36125 0
M  V30 6003 N 560.017 4.60751 5.17379 0
M  V30 6004 N 561.81 3.60637 4.31158 0
M  V30 6005 H 553.961 1.96993 0.794198 0
M  V30 6006 H 556.224 0.853942 0.411688 0
M  V30 6007 H 555.93 2.86603 2.03843 0
M  V30 6008 H 555.804 1.71692 3.3586 0
M  V30 6009 H 558.191 0.887765 2.8143 0
M  V30 6010 H 558.272 2.0711 1.5013 0
M  V30 6011 H 557.916 3.94537 3.19849 0
M  V30 6012 H 557.846 2.73255 4.50155 0
M  V30 6013 H 560.337 2.29472 3.00252 0
M  V30 6014 H 560.65 5.17408 5.74028 0
M  V30 6015 H 558.995 4.64803 5.16704 0
M  V30 6016 H 562.186 2.90892 3.66742 0
M  V30 6017 H 562.359 4.22176 4.91601 0
M  V30 6018 N 555.766 -1.3263 0.851289 0
M  V30 6019 C 556.716 -2.26451 0.265302 0
M  V30 6020 C 557.7 -1.49814 -0.586899 0
M  V30 6021 O 558.892 -1.71525 -0.436834 0
M  V30 6022 C 556.021 -3.38895 -0.548212 0
M  V30 6023 C 555.107 -4.2292 0.316189 0
M  V30 6024 N 555.498 -4.86014 1.40084 0
M  V30 6025 C 553.796 -4.45876 0.105356 0
M  V30 6026 C 554.497 -5.48667 1.93235 0
M  V30 6027 N 553.473 -5.29455 1.232 0
M  V30 6028 H 557.275 -2.72757 1.09457 0
M  V30 6029 H 554.789 -1.4668 0.697047 0
M  V30 6030 H 556.786 -4.05111 -0.984402 0
M  V30 6031 H 555.446 -2.94135 -1.37531 0
M  V30 6032 H 556.457 -4.86212 1.78377 0
M  V30 6033 H 553.134 -4.11804 -0.687299 0
M  V30 6034 H 554.524 -6.08865 2.84135 0
M  V30 6035 N 557.244 -0.608902 -1.45362 0
M  V30 6036 C 558.174 0.0964526 -2.33301 0
M  V30 6037 C 559.155 0.857444 -1.46908 0
M  V30 6038 O 560.34 0.827735 -1.75676 0
M  V30 6039 C 557.47 1.09354 -3.29635 0
M  V30 6040 C 556.424 0.445676 -4.25673 0
M  V30 6041 C 555.75 1.5511 -5.11708 0
M  V30 6042 C 557.05 -0.633972 -5.18438 0
M  V30 6043 H 558.744 -0.637829 -2.92527 0
M  V30 6044 H 556.29 -0.308178 -1.40664 0
M  V30 6045 H 558.243 1.59556 -3.90025 0
M  V30 6046 H 556.967 1.85843 -2.6857 0
M  V30 6047 H 555.626 -0.0354897 -3.66583 0
M  V30 6048 H 555.274 2.30631 -4.4701 0
M  V30 6049 H 554.974 1.12311 -5.76767 0
M  V30 6050 H 556.498 2.05537 -5.74967 0
M  V30 6051 H 557.912 -0.215974 -5.72893 0
M  V30 6052 H 556.309 -0.983789 -5.91981 0
M  V30 6053 H 557.379 -1.51005 -4.60788 0
M  V30 6054 N 558.722 1.53707 -0.348139 0
M  V30 6055 C 559.968 2.01286 0.247332 0
M  V30 6056 C 560.301 1.23546 1.49834 0
M  V30 6057 O 559.576 0.324331 1.91777 0
M  V30 6058 C 559.859 3.55768 0.556858 0
M  V30 6059 C 559.712 4.44216 -0.706564 0
M  V30 6060 C 561.031 4.1841 1.3646 0
M  V30 6061 H 558.15 0.731677 0.0884201 0
M  V30 6062 H 560.792 1.84106 -0.469584 0
M  V30 6063 H 558.942 3.70539 1.16761 0
M  V30 6064 H 560.614 4.41274 -1.34444 0
M  V30 6065 H 558.857 4.12892 -1.33052 0
M  V30 6066 H 559.528 5.50202 -0.445186 0
M  V30 6067 H 562.004 4.07365 0.848113 0
M  V30 6068 H 560.88 5.26563 1.54992 0
M  V30 6069 H 561.141 3.7333 2.36805 0
M  V30 6070 N 560.2 0.0768682 1.57412 0
M  V30 6071 C 561.611 -0.455037 1.8107 0
M  V30 6072 C 561.962 -1.69323 0.991162 0
M  V30 6073 O 561.087 -2.15328 0.215156 0
M  V30 6074 C 561.682 -0.832316 3.28417 0
M  V30 6075 C 560.241 -1.30906 3.52903 0
M  V30 6076 C 559.388 -0.296714 2.75708 0
M  V30 6077 H 562.339 0.302514 1.5579 0
M  V30 6078 H 562.36 -1.69333 3.40744 0
M  V30 6079 H 561.872 0.0690532 3.88039 0
M  V30 6080 H 559.973 -2.22875 2.98592 0
M  V30 6081 H 560.086 -1.28348 4.61588 0
M  V30 6082 H 558.45 -0.775059 2.42621 0
M  V30 6083 H 559.233 0.597015 3.38069 0
M  V30 6084 N 561.678 -1.56367 -0.196722 0
M  V30 6085 C 562.926 -1.80172 -0.915554 0
M  V30 6086 C 563.247 -0.649649 -1.8386 0
M  V30 6087 O 562.517 0.332111 -1.93064 0
M  V30 6088 H 561.097 -0.664592 -0.341067 0
M  V30 6089 H 563.759 -1.93844 -0.202622 0
M  V30 6090 H 562.855 -2.7327 -1.50764 0
M  V30 6091 N 563.156 0.464375 -1.50603 0
M  V30 6092 C 564.119 1.54393 -1.69397 0
M  V30 6093 C 565.119 1.50566 -0.564504 0
M  V30 6094 O 566.309 1.53066 -0.831645 0
M  V30 6095 C 563.441 2.9401 -1.72543 0
M  V30 6096 H 564.634 1.39044 -2.65719 0
M  V30 6097 H 562.187 0.69122 -1.40185 0
M  V30 6098 H 562.922 3.14795 -0.77938 0
M  V30 6099 H 562.707 2.98195 -2.54602 0
M  V30 6100 H 564.197 3.72375 -1.89015 0
M  V30 6101 N 564.634 1.40294 0.718013 0
M  V30 6102 C 566.045 1.34289 1.29705 0
M  V30 6103 C 566.396 0.0152228 1.96194 0
M  V30 6104 O 565.521 -0.88682 1.97394 0
M  V30 6105 C 566.116 2.43219 2.3586 0
M  V30 6106 C 564.675 2.40682 2.89394 0
M  V30 6107 C 563.822 2.24223 1.63154 0
M  V30 6108 H 566.773 1.50135 0.514312 0
M  V30 6109 H 566.794 2.10986 3.16647 0
M  V30 6110 H 566.306 3.39836 1.87439 0
M  V30 6111 H 564.407 1.47756 3.42051 0
M  V30 6112 H 564.52 3.36177 3.41353 0
M  V30 6113 H 562.884 1.71696 1.88129 0
M  V30 6114 H 563.667 3.22834 1.16761 0
M  V30 6115 N 566.112 -0.949982 1.2575 0
M  V30 6116 C 567.359 -1.69515 1.10774 0
M  V30 6117 C 567.687 -1.91316 -0.350479 0
M  V30 6118 O 566.942 -1.48515 -1.27443 0
M  V30 6119 C 567.241 -3.08039 1.81237 0
M  V30 6120 C 566.907 -3.06023 3.31151 0
M  V30 6121 C 565.569 -3.0518 3.72047 0
M  V30 6122 C 567.921 -2.98998 4.26907 0
M  V30 6123 C 565.249 -2.95067 5.07102 0
M  V30 6124 C 567.601 -2.90426 5.61992 0
M  V30 6125 C 566.265 -2.87922 6.0221 0
M  V30 6126 H 565.535 -0.6203 0.405351 0
M  V30 6127 H 568.182 -1.10953 1.56082 0
M  V30 6128 H 566.487 -3.70172 1.28373 0
M  V30 6129 H 568.184 -3.64526 1.67098 0
M  V30 6130 H 564.774 -3.07453 2.98614 0
M  V30 6131 H 568.958 -2.98764 3.963 0
M  V30 6132 H 564.214 -2.915 5.37436 0
M  V30 6133 H 568.388 -2.83952 6.35881 0
M  V30 6134 H 566.015 -2.79841 7.06819 0
M  V30 6135 N 567.59 -1.07411 -1.15328 0
M  V30 6136 C 568.52 -0.716472 -2.22236 0
M  V30 6137 C 569.501 0.296373 -1.67498 0
M  V30 6138 O 570.686 0.168989 -1.93463 0
M  V30 6139 C 567.816 -0.114142 -3.47112 0
M  V30 6140 C 566.77 -1.05421 -4.14814 0
M  V30 6141 C 566.096 -0.314604 -5.33774 0
M  V30 6142 C 567.396 -2.38808 -4.64508 0
M  V30 6143 H 569.09 -1.61029 -2.52408 0
M  V30 6144 H 566.636 -0.775702 -1.21321 0
M  V30 6145 H 568.589 0.148001 -4.2114 0
M  V30 6146 H 567.313 0.814755 -3.16274 0
M  V30 6147 H 565.972 -1.30128 -3.42728 0
M  V30 6148 H 565.62 0.617772 -4.99192 0
M  V30 6149 H 565.32 -0.941209 -5.80013 0
M  V30 6150 H 566.844 -0.0602747 -6.1057 0
M  V30 6151 H 568.258 -2.18424 -5.3006 0
M  V30 6152 H 566.655 -2.97069 -5.21412 0
M  V30 6153 H 567.725 -3.01067 -3.80114 0
M  V30 6154 N 569.068 1.32177 -0.85831 0
M  V30 6155 C 569.998 2.31282 -0.321041 0
M  V30 6156 C 570.979 1.59841 0.581786 0
M  V30 6157 O 572.164 1.87619 0.501262 0
M  V30 6158 C 569.294 3.4385 0.48832 0
M  V30 6159 C 568.248 4.26799 -0.320391 0
M  V30 6160 C 567.574 5.31164 0.613934 0
M  V30 6161 C 568.874 4.98829 -1.54813 0
M  V30 6162 H 570.568 2.76469 -1.14915 0
M  V30 6163 H 568.114 1.32916 -0.554028 0
M  V30 6164 H 570.067 4.12224 0.874626 0
M  V30 6165 H 568.791 2.97401 1.34983 0
M  V30 6166 H 567.45 3.60077 -0.688497 0
M  V30 6167 H 567.098 4.80967 1.47239 0
M  V30 6168 H 566.798 5.8755 0.0768097 0
M  V30 6169 H 568.322 6.024 0.997336 0
M  V30 6170 H 569.736 5.59864 -1.23392 0
M  V30 6171 H 568.133 5.64957 -2.02346 0
M  V30 6172 H 569.203 4.26483 -2.30739 0
M  V30 6173 N 570.547 0.616602 1.45037 0
M  V30 6174 C 571.479 -0.135186 2.28801 0
M  V30 6175 C 572.492 -0.82303 1.40464 0
M  V30 6176 O 573.681 -0.686909 1.64754 0
M  V30 6177 C 570.781 -1.21292 3.16451 0
M  V30 6178 C 569.954 -0.61043 4.3312 0
M  V30 6179 C 569.013 -1.58022 5.01912 0
M  V30 6180 O 568.039 -1.10301 5.58411 0
M  V30 6181 N 569.241 -2.91464 5.02025 0
M  V30 6182 H 572.006 0.583612 2.93963 0
M  V30 6183 H 569.567 0.456723 1.55324 0
M  V30 6184 H 571.559 -1.86169 3.59337 0
M  V30 6185 H 570.129 -1.83412 2.53138 0
M  V30 6186 H 569.349 0.216638 3.93604 0
M  V30 6187 H 570.637 -0.188293 5.08451 0
M  V30 6188 H 570.035 -3.32829 4.57429 0
M  V30 6189 H 568.592 -3.51741 5.48745 0
M  V30 6190 N 572.025 -1.5352 0.356285 0
M  V30 6191 C 572.988 -2.24071 -0.482182 0
M  V30 6192 C 573.988 -1.24531 -1.01729 0
M  V30 6193 O 575.178 -1.48876 -0.904513 0
M  V30 6194 C 572.31 -2.97025 -1.67299 0
M  V30 6195 H 573.503 -2.99596 0.135031 0
M  V30 6196 H 571.056 -1.55928 0.107825 0
M  V30 6197 H 571.791 -2.25719 -2.32855 0
M  V30 6198 H 571.576 -3.7005 -1.29636 0
M  V30 6199 H 573.066 -3.50683 -2.26741 0
M  V30 6200 N 573.503 -0.0852151 -1.57369 0
M  V30 6201 C 574.433 0.874556 -2.16503 0
M  V30 6202 C 575.414 1.30111 -1.09568 0
M  V30 6203 O 576.599 1.36977 -1.37662 0
M  V30 6204 C 573.729 2.13731 -2.73745 0
M  V30 6205 C 572.683 1.84971 -3.85966 0
M  V30 6206 C 572.009 3.17991 -4.29867 0
M  V30 6207 C 573.309 1.14442 -5.09608 0
M  V30 6208 H 575.003 0.381899 -2.96954 0
M  V30 6209 H 572.549 0.18225 -1.42842 0
M  V30 6210 H 574.502 2.81302 -3.13763 0
M  V30 6211 H 573.226 2.65263 -1.90534 0
M  V30 6212 H 571.885 1.19801 -3.46473 0
M  V30 6213 H 571.533 3.6739 -3.4356 0
M  V30 6214 H 571.233 2.99534 -5.05523 0
M  V30 6215 H 572.757 3.86737 -4.72511 0
M  V30 6216 H 574.171 1.72105 -5.46857 0
M  V30 6217 H 572.568 1.06197 -5.90629 0
M  V30 6218 H 573.638 0.12559 -4.84737 0
M  V30 6219 N 574.981 1.5647 0.188427 0
M  V30 6220 C 576.227 1.81281 0.909124 0
M  V30 6221 C 576.56 0.66034 1.82628 0
M  V30 6222 O 575.835 -0.338737 1.91528 0
M  V30 6223 C 576.118 3.16388 1.7196 0
M  V30 6224 C 575.971 4.42137 0.826714 0
M  V30 6225 C 577.29 3.48256 2.69083 0
M  V30 6226 H 574.409 0.659457 0.329068 0
M  V30 6227 H 577.051 1.89182 0.176156 0
M  V30 6228 H 575.201 3.09784 2.34448 0
M  V30 6229 H 576.873 4.60794 0.216025 0
M  V30 6230 H 575.116 4.33594 0.133792 0
M  V30 6231 H 575.787 5.33184 1.42893 0
M  V30 6232 H 578.263 3.55203 2.16726 0
M  V30 6233 H 577.139 4.43899 3.2287 0
M  V30 6234 H 577.4 2.72088 3.48455 0
M  V30 6235 N 576.459 -0.456382 1.50847 0
M  V30 6236 C 577.875 -0.791345 1.386 0
M  V30 6237 C 578.075 -1.9633 0.453498 0
M  V30 6238 O 577.131 -2.52308 -0.0984353 0
M  V30 6239 C 578.444 -1.08959 2.80265 0
M  V30 6240 C 579.992 -1.19517 2.89283 0
M  V30 6241 C 580.467 -1.52647 4.31814 0
M  V30 6242 N 581.958 -1.59609 4.34832 0
M  V30 6243 C 582.693 -1.86777 5.42127 0
M  V30 6244 N 582.189 -2.11866 6.59609 0
M  V30 6245 N 583.982 -1.88402 5.29586 0
M  V30 6246 H 576.133 0.315746 2.1004 0
M  V30 6247 H 578.396 0.0787916 0.94472 0
M  V30 6248 H 578.102 -0.301355 3.50407 0
M  V30 6249 H 577.976 -2.02211 3.18419 0
M  V30 6250 H 580.363 -1.97406 2.19351 0
M  V30 6251 H 580.444 -0.242111 2.54652 0
M  V30 6252 H 580.088 -0.752922 5.02288 0
M  V30 6253 H 580.018 -2.49127 4.63943 0
M  V30 6254 H 582.509 -1.42201 3.50125 0
M  V30 6255 H 582.822 -2.31912 7.37182 0
M  V30 6256 H 581.167 -2.09228 6.62758 0
M  V30 6257 H 584.358 -1.68307 4.36795 0
M  V30 6258 H 584.531 -2.09238 6.13289 0
M  V30 6259 N 577.937 -1.40673 -0.710563 0
M  V30 6260 C 578.847 -1.43663 -1.85467 0
M  V30 6261 C 579.863 -0.328721 -1.70867 0
M  V30 6262 O 581.039 -0.574098 -1.93044 0
M  V30 6263 C 578.104 -1.30226 -3.21313 0
M  V30 6264 C 577.165 -2.51204 -3.48131 0
M  V30 6265 C 576.398 -2.38398 -4.77495 0
M  V30 6266 O 576.621 -1.40048 -5.5294 0
M  V30 6267 O 575.555 -3.2787 -5.04762 0
M  V30 6268 H 579.381 -2.40156 -1.859 0
M  V30 6269 H 576.966 -1.22049 -0.861652 0
M  V30 6270 H 578.848 -1.2496 -4.02446 0
M  V30 6271 H 577.523 -0.368419 -3.21597 0
M  V30 6272 H 576.43 -2.62048 -2.66987 0
M  V30 6273 H 577.763 -3.43366 -3.52648 0
M  V30 6274 N 579.415 0.9433 -1.26252 0
M  V30 6275 C 580.348 2.04162 -1.01946 0
M  V30 6276 C 581.326 1.62507 0.0550808 0
M  V30 6277 O 582.51 1.883 -0.0869025 0
M  V30 6278 C 579.637 3.34313 -0.54335 0
M  V30 6279 C 578.683 3.94939 -1.61013 0
M  V30 6280 S 579.516 4.29484 -3.19849 0
M  V30 6281 C 580.672 5.62738 -2.74001 0
M  V30 6282 H 580.905 2.24466 -1.94942 0
M  V30 6283 H 578.438 1.08441 -1.09909 0
M  V30 6284 H 580.396 4.09576 -0.275315 0
M  V30 6285 H 579.057 3.11957 0.36629 0
M  V30 6286 H 578.25 4.88812 -1.22795 0
M  V30 6287 H 577.852 3.26202 -1.82943 0
M  V30 6288 H 580.144 6.41356 -2.18333 0
M  V30 6289 H 581.087 6.05839 -3.66558 0
M  V30 6290 H 581.495 5.22514 -2.13634 0
M  V30 6291 N 580.893 1.08022 1.14757 0
M  V30 6292 C 582.118 0.82895 1.90114 0
M  V30 6293 C 582.543 -0.612772 1.77839 0
M  V30 6294 O 581.901 -1.42895 1.11583 0
M  V30 6295 C 581.949 1.25062 3.38219 0
M  V30 6296 O 581.053 0.400119 4.10454 0
M  V30 6297 H 580.394 0.301412 0.591648 0
M  V30 6298 H 582.924 1.44062 1.45284 0
M  V30 6299 H 582.934 1.22977 3.89025 0
M  V30 6300 H 581.609 2.30067 3.46471 0
M  V30 6301 H 580.186 0.484052 3.69745 0
M  V30 6302 N 582.371 -1.3172 0.865308 0
M  V30 6303 C 583.619 -1.96487 0.472995 0
M  V30 6304 C 583.94 -1.68761 -0.976975 0
M  V30 6305 O 583.21 -1.00051 -1.68424 0
M  V30 6306 H 581.79 -0.726947 0.171922 0
M  V30 6307 H 584.452 -1.60612 1.10407 0
M  V30 6308 H 583.548 -3.0574 0.62687 0
M  V30 6309 N 583.85 -0.624285 -1.44708 0
M  V30 6310 C 585.075 -0.131171 -2.06985 0
M  V30 6311 C 585.5 1.18234 -1.46295 0
M  V30 6312 O 584.858 1.72375 -0.561842 0
M  V30 6313 C 584.906 -0.0226724 -3.60593 0
M  V30 6314 O 584.01 1.02314 -3.99507 0
M  V30 6315 H 583.351 -0.0816556 -0.65896 0
M  V30 6316 H 585.88 -0.859027 -1.85693 0
M  V30 6317 H 585.891 0.170138 -4.07645 0
M  V30 6318 H 584.566 -0.981685 -4.04148 0
M  V30 6319 H 583.143 0.805452 -3.64097 0
M  V30 6320 N 585.328 1.53329 -0.364422 0
M  V30 6321 C 586.739 1.86345 0.115039 0
M  V30 6322 C 587.09 1.28505 1.4826 0
M  V30 6323 O 586.215 0.606639 2.07723 0
M  V30 6324 C 586.81 3.38114 0.215522 0
M  V30 6325 C 585.369 3.70932 0.639237 0
M  V30 6326 C 584.516 2.76471 -0.214261 0
M  V30 6327 H 587.467 1.47593 -0.583258 0
M  V30 6328 H 587.488 3.66031 1.0393 0
M  V30 6329 H 587 3.80182 -0.779948 0
M  V30 6330 H 585.101 3.3442 1.64298 0
M  V30 6331 H 585.214 4.77302 0.41465 0
M  V30 6332 H 583.578 2.52724 0.316678 0
M  V30 6333 H 584.361 3.21373 -1.20725 0
M  V30 6334 N 586.806 0.0935595 1.57322 0
M  V30 6335 C 587.769 -0.851426 2.12799 0
M  V30 6336 C 588.769 -1.21187 1.0569 0
M  V30 6337 O 589.959 -1.14156 1.31583 0
M  V30 6338 C 587.091 -2.14779 2.64731 0
M  V30 6339 H 588.284 -0.369733 2.97612 0
M  V30 6340 H 585.837 -0.155417 1.55525 0
M  V30 6341 H 586.572 -2.67437 1.83434 0
M  V30 6342 H 586.357 -1.89907 3.43042 0
M  V30 6343 H 587.847 -2.82383 3.07651 0
M  V30 6344 N 588.284 -1.56567 -0.180126 0
M  V30 6345 C 589.509 -1.85975 -0.918041 0
M  V30 6346 C 589.934 -0.678888 -1.75422 0
M  V30 6347 O 589.292 0.372168 -1.77439 0
M  V30 6348 C 589.34 -3.13731 -1.77779 0
M  V30 6349 O 588.444 -2.95335 -2.87838 0
M  V30 6350 H 587.785 -0.61196 -0.257683 0
M  V30 6351 H 590.315 -2.03798 -0.180923 0
M  V30 6352 H 590.325 -3.4491 -2.17948 0
M  V30 6353 H 589 -3.99293 -1.16352 0
M  V30 6354 H 587.577 -2.7549 -2.51316 0
M  V30 6355 N 589.762 0.448376 -1.51087 0
M  V30 6356 C 591.01 1.19635 -1.62886 0
M  V30 6357 C 591.331 1.91977 -0.342024 0
M  V30 6358 O 590.601 1.85094 0.641636 0
M  V30 6359 H 589.181 0.444598 -0.600285 0
M  V30 6360 H 591.843 0.515138 -1.87969 0
M  V30 6361 H 590.939 1.93194 -2.45117 0
M  V30 6362 N 591.24 1.41047 0.703093 0
M  V30 6363 C 592.489 1.39301 1.4587 0
M  V30 6364 C 592.802 0.00267077 1.956 0
M  V30 6365 O 594.008 -0.137414 2.71152 0
M  V30 6366 C 592.464 2.44891 2.63735 0
M  V30 6367 C 592.072 3.89796 2.20824 0
M  V30 6368 C 593.816 2.5227 3.41409 0
M  V30 6369 C 591.723 4.86955 3.35602 0
M  V30 6370 H 590.653 0.518005 0.547893 0
M  V30 6371 H 593.304 1.66839 0.764009 0
M  V30 6372 H 591.686 2.10472 3.35436 0
M  V30 6373 H 592.86 4.33424 1.56461 0
M  V30 6374 H 591.175 3.86008 1.56163 0
M  V30 6375 H 593.772 3.22044 4.26839 0
M  V30 6376 H 594.115 1.55714 3.86081 0
M  V30 6377 H 594.648 2.85742 2.7676 0
M  V30 6378 H 591.387 5.84888 2.9595 0
M  V30 6379 H 590.907 4.47982 3.98839 0
M  V30 6380 H 592.586 5.07361 4.01489 0
M  V30 6381 N 592.718 -0.936591 1.26751 0
M  V30 6382 C 594.129 -1.49816 1.1141 0
M  V30 6383 C 594.48 -1.9383 -0.304015 0
M  V30 6384 O 593.605 -1.80346 -1.196 0
M  V30 6385 C 594.2 -2.72271 2.01629 0
M  V30 6386 C 592.759 -3.2468 1.9042 0
M  V30 6387 C 591.906 -1.97444 1.94708 0
M  V30 6388 H 594.857 -0.751604 1.39773 0
M  V30 6389 H 594.878 -3.46741 1.56688 0
M  V30 6390 H 594.39 -2.40205 3.04833 0
M  V30 6391 H 592.491 -3.61525 0.901674 0
M  V30 6392 H 592.604 -3.91476 2.76195 0
M  V30 6393 H 590.968 -2.13545 1.38818 0
M  V30 6394 H 591.751 -1.67703 2.9955 0
M  V30 6395 N 594.196 -1.08629 -1.14182 0
M  V30 6396 C 595.442 -0.818556 -1.85546 0
M  V30 6397 C 595.775 0.654076 -1.82854 0
M  V30 6398 O 595.05 1.48099 -1.26083 0
M  V30 6399 C 595.333 -1.34397 -3.3408 0
M  V30 6400 C 595.186 -2.8821 -3.45333 0
M  V30 6401 C 596.505 -0.971069 -4.29253 0
M  V30 6402 H 593.624 -0.298821 -0.673702 0
M  V30 6403 H 596.266 -1.34629 -1.34071 0
M  V30 6404 H 594.416 -0.895064 -3.78049 0
M  V30 6405 H 596.088 -3.41488 -3.10134 0
M  V30 6406 H 594.331 -3.25756 -2.86471 0
M  V30 6407 H 595.002 -3.20047 -4.49749 0
M  V30 6408 H 597.478 -1.35809 -3.93313 0
M  V30 6409 H 596.354 -1.36586 -5.31635 0
M  V30 6410 H 596.615 0.121659 -4.41933 0
M  V30 6411 N 595.674 1.31259 -0.872281 0
M  V30 6412 C 596.621 2.28459 -0.327857 0
M  V30 6413 C 597.591 1.55831 0.574957 0
M  V30 6414 O 598.776 1.83965 0.506101 0
M  V30 6415 C 595.916 3.41985 0.462644 0
M  V30 6416 C 595.029 4.29458 -0.467949 0
M  V30 6417 C 594.164 5.30131 0.336903 0
M  V30 6418 C 593.203 6.0925 -0.58997 0
M  V30 6419 N 592.34 7.01872 0.178775 0
M  V30 6420 H 597.18 2.74414 -1.16193 0
M  V30 6421 H 594.717 1.34994 -0.584376 0
M  V30 6422 H 596.675 4.06547 0.936759 0
M  V30 6423 H 595.305 2.97134 1.2614 0
M  V30 6424 H 594.357 3.65318 -1.06052 0
M  V30 6425 H 595.669 4.84677 -1.17856 0
M  V30 6426 H 594.823 6.0038 0.873427 0
M  V30 6427 H 593.562 4.75573 1.08079 0
M  V30 6428 H 592.567 5.37889 -1.13823 0
M  V30 6429 H 593.792 6.65894 -1.33275 0
M  V30 6430 H 591.738 6.49721 0.905435 0
M  V30 6431 H 591.655 7.54522 -0.472452 0
M  V30 6432 H 592.923 7.76382 0.696454 0
M  V30 6433 N 597.152 0.631951 1.44375 0
M  V30 6434 C 598.398 0.13697 2.02337 0
M  V30 6435 C 598.731 -1.23826 1.49602 0
M  V30 6436 O 598.006 -1.8221 0.680415 0
M  V30 6437 C 598.289 0.124536 3.59885 0
M  V30 6438 C 598.142 1.53217 4.229 0
M  V30 6439 C 599.461 -0.550481 4.36644 0
M  V30 6440 H 596.58 0.051247 0.735216 0
M  V30 6441 H 599.222 0.808581 1.71936 0
M  V30 6442 H 597.372 -0.44737 3.85916 0
M  V30 6443 H 599.044 2.15303 4.07973 0
M  V30 6444 H 597.287 2.0858 3.80364 0
M  V30 6445 H 597.958 1.4755 5.31914 0
M  V30 6446 H 600.434 -0.0641154 4.16051 0
M  V30 6447 H 599.31 -0.528371 5.46351 0
M  V30 6448 H 599.571 -1.62097 4.11311 0
M  V30 6449 N 598.631 -1.53133 0.372548 0
M  V30 6450 C 599.856 -2.0625 -0.218098 0
M  V30 6451 C 600.281 -1.24375 -1.41111 0
M  V30 6452 O 599.639 -0.264554 -1.79359 0
M  V30 6453 C 599.687 -3.55858 -0.582876 0
M  V30 6454 O 598.791 -3.76667 -1.67917 0
M  V30 6455 H 598.132 -0.663317 -0.030104 0
M  V30 6456 H 600.662 -1.97477 0.535169 0
M  V30 6457 H 600.672 -3.99007 -0.851925 0
M  V30 6458 H 599.347 -4.14892 0.289428 0
M  V30 6459 H 597.924 -3.45413 -1.40513 0
M  V30 6460 N 600.109 -0.101901 -1.5727 0
M  V30 6461 C 601.072 0.840129 -2.13247 0
M  V30 6462 C 602.072 1.20625 -1.06331 0
M  V30 6463 O 603.262 1.13456 -1.32186 0
M  V30 6464 C 600.394 2.13372 -2.65867 0
M  V30 6465 H 601.587 0.353945 -2.97804 0
M  V30 6466 H 599.14 0.147167 -1.55606 0
M  V30 6467 H 599.875 2.66461 -1.84849 0
M  V30 6468 H 599.66 1.88085 -3.44044 0
M  V30 6469 H 601.15 2.80748 -3.09145 0
M  V30 6470 N 601.587 1.56661 0.17182 0
M  V30 6471 C 602.815 1.861 0.904115 0
M  V30 6472 C 603.23 0.687227 1.75848 0
M  V30 6473 O 602.587 -0.343671 1.79235 0
M  V30 6474 C 602.638 3.14568 1.78127 0
M  V30 6475 O 602.359 4.27422 0.961366 0
M  V30 6476 C 603.86 3.5735 2.62327 0
M  V30 6477 H 601.08 0.617445 0.262684 0
M  V30 6478 H 603.624 2.03775 0.172068 0
M  V30 6479 H 601.779 2.98721 2.46666 0
M  V30 6480 H 602.193 5.00725 1.56123 0
M  V30 6481 H 603.667 4.50144 3.1949 0
M  V30 6482 H 604.144 2.81445 3.37173 0
M  V30 6483 H 604.75 3.75807 1.99121 0
M  V30 6484 N 603.065 -0.440357 1.51323 0
M  V30 6485 C 604.311 -1.19181 1.64085 0
M  V30 6486 C 604.644 -1.90936 0.354575 0
M  V30 6487 O 603.919 -1.8347 -0.645675 0
M  V30 6488 C 604.202 -2.2112 2.84215 0
M  V30 6489 C 604.055 -1.53468 4.22809 0
M  V30 6490 C 605.374 -3.22133 2.99864 0
M  V30 6491 H 602.493 -0.431924 0.597169 0
M  V30 6492 H 605.135 -0.481443 1.83799 0
M  V30 6493 H 603.285 -2.81703 2.67537 0
M  V30 6494 H 604.957 -0.962455 4.51148 0
M  V30 6495 H 603.2 -0.837086 4.25647 0
M  V30 6496 H 603.871 -2.27694 5.02852 0
M  V30 6497 H 606.347 -2.71601 3.15233 0
M  V30 6498 H 605.223 -3.90756 3.85488 0
M  V30 6499 H 605.484 -3.88061 2.11804 0
M  V30 6500 N 604.543 -1.41418 -0.695603 0
M  V30 6501 C 605.768 -1.44329 -1.48942 0
M  V30 6502 C 606.193 -0.0501579 -1.88033 0
M  V30 6503 O 605.551 0.946598 -1.54626 0
M  V30 6504 C 605.599 -2.3578 -2.72837 0
M  V30 6505 O 604.703 -1.81482 -3.70322 0
M  V30 6506 H 604.044 -0.489838 -0.44828 0
M  V30 6507 H 606.574 -1.85878 -0.855014 0
M  V30 6508 H 606.584 -2.51654 -3.21145 0
M  V30 6509 H 605.259 -3.37005 -2.43722 0
M  V30 6510 H 603.836 -1.75058 -3.29255 0
M  V30 6511 N 606.021 0.929856 -1.27246 0
M  V30 6512 C 607.246 1.71674 -1.16374 0
M  V30 6513 C 607.671 1.86064 0.276024 0
M  V30 6514 O 607.029 1.3591 1.19992 0
M  V30 6515 C 607.077 3.09526 -1.85003 0
M  V30 6516 O 606.181 3.96142 -1.14653 0
M  V30 6517 H 605.522 0.52629 -0.404863 0
M  V30 6518 H 608.052 1.16381 -1.68276 0
M  V30 6519 H 608.062 3.59852 -1.92276 0
M  V30 6520 H 606.737 2.98369 -2.89739 0
M  V30 6521 H 605.314 3.54584 -1.15433 0
M  V30 6522 N 607.499 1.09233 1.13605 0
M  V30 6523 C 608.91 0.846839 1.6639 0
M  V30 6524 C 609.261 -0.625031 1.85978 0
M  V30 6525 O 608.386 -1.48173 1.57714 0
M  V30 6526 C 608.981 1.5307 3.0225 0
M  V30 6527 C 607.54 1.33223 3.52035 0
M  V30 6528 C 606.687 1.58806 2.27323 0
M  V30 6529 H 609.638 1.25175 0.975541 0
M  V30 6530 H 609.659 0.96267 3.68121 0
M  V30 6531 H 609.171 2.60192 2.87961 0
M  V30 6532 H 607.272 0.282091 3.71531 0
M  V30 6533 H 607.385 2.0657 4.32279 0
M  V30 6534 H 605.749 1.01007 2.33815 0
M  V30 6535 H 606.532 2.67153 2.15602 0
M  V30 6536 N 608.977 -1.30795 0.87923 0
M  V30 6537 C 610.225 -1.95974 0.493809 0
M  V30 6538 C 610.546 -1.69787 -0.959021 0
M  V30 6539 O 609.816 -1.01832 -1.67353 0
M  V30 6540 H 608.396 -0.725083 0.179622 0
M  V30 6541 H 611.058 -1.59432 1.12105 0
M  V30 6542 H 610.154 -3.05058 0.659263 0
M  V30 6543 N 610.455 -0.639598 -1.44038 0
M  V30 6544 C 611.68 -0.153117 -2.06834 0
M  V30 6545 C 612.105 1.16676 -1.47541 0
M  V30 6546 O 611.463 1.71769 -0.580093 0
M  V30 6547 C 611.511 -0.0609169 -3.60549 0
M  V30 6548 O 610.615 0.98071 -4.00569 0
M  V30 6549 H 609.956 -0.0886402 -0.658057 0
M  V30 6550 H 612.486 -0.878674 -1.84771 0
M  V30 6551 H 612.496 0.126892 -4.07803 0
M  V30 6552 H 611.171 -1.0245 -4.03084 0
M  V30 6553 H 609.748 0.766789 -3.64931 0
M  V30 6554 N 611.933 1.52934 -0.380664 0
M  V30 6555 C 613.179 2.01765 0.20458 0
M  V30 6556 C 613.512 1.26696 1.47179 0
M  V30 6557 O 612.787 0.364936 1.91046 0
M  V30 6558 C 613.07 3.56869 0.481269 0
M  V30 6559 C 612.923 4.42617 -0.800629 0
M  V30 6560 C 614.242 4.2121 1.27554 0
M  V30 6561 H 611.361 0.733388 0.0728803 0
M  V30 6562 H 614.003 1.83068 -0.50853 0
M  V30 6563 H 612.153 3.72932 1.08875 0
M  V30 6564 H 613.825 4.38323 -1.43773 0
M  V30 6565 H 612.068 4.09977 -1.4178 0
M  V30 6566 H 612.739 5.49134 -0.561791 0
M  V30 6567 H 615.215 4.09072 0.761514 0
M  V30 6568 H 614.091 5.29732 1.43788 0
M  V30 6569 H 614.352 3.78269 2.28833 0
M  V30 6570 N 613.412 0.11024 1.57214 0
M  V30 6571 C 614.823 -0.416527 1.81994 0
M  V30 6572 C 615.174 -1.67183 1.02686 0
M  V30 6573 O 614.299 -2.14823 0.260782 0
M  V30 6574 C 614.894 -0.762466 3.30109 0
M  V30 6575 C 613.453 -1.23391 3.556 0
M  V30 6576 C 612.6 -0.238166 2.76275 0
M  V30 6577 H 615.551 0.335491 1.55113 0
M  V30 6578 H 615.572 -1.62068 3.44259 0
M  V30 6579 H 615.084 0.151346 3.87805 0
M  V30 6580 H 613.185 -2.16492 3.03253 0
M  V30 6581 H 613.298 -1.18528 4.64207 0
M  V30 6582 H 611.662 -0.723421 2.4421 0
M  V30 6583 H 612.445 0.668591 3.36727 0
M  V30 6584 N 614.89 -1.56749 -0.16351 0
M  V30 6585 C 615.8 -2.00255 -1.2221 0
M  V30 6586 C 616.816 -0.915194 -1.47987 0
M  V30 6587 O 617.992 -1.22342 -1.59982 0
M  V30 6588 C 615.057 -2.36035 -2.53946 0
M  V30 6589 C 614.118 -3.58637 -2.35962 0
M  V30 6590 C 613.351 -3.92701 -3.61416 0
M  V30 6591 O 613.574 -3.27632 -4.66919 0
M  V30 6592 O 612.508 -4.86019 -3.55062 0
M  V30 6593 H 616.334 -2.90586 -0.882794 0
M  V30 6594 H 613.919 -1.44721 -0.370978 0
M  V30 6595 H 615.801 -2.59982 -3.31643 0
M  V30 6596 H 614.476 -1.48863 -2.8744 0
M  V30 6597 H 613.383 -3.39898 -1.5627 0
M  V30 6598 H 614.716 -4.46374 -2.0739 0
M  V30 6599 N 616.368 0.432326 -1.51554 0
M  V30 6600 C 617.614 1.18309 -1.64714 0
M  V30 6601 C 617.947 1.90745 -0.364696 0
M  V30 6602 O 617.222 1.8381 0.635936 0
M  V30 6603 C 617.505 2.1961 -2.85383 0
M  V30 6604 C 617.358 1.51223 -4.23617 0
M  V30 6605 C 618.677 3.20538 -3.01569 0
M  V30 6606 H 615.796 0.428751 -0.599451 0
M  V30 6607 H 618.438 0.471689 -1.84052 0
M  V30 6608 H 616.588 2.8028 -2.69027 0
M  V30 6609 H 618.26 0.938516 -4.51652 0
M  V30 6610 H 616.503 0.814501 -4.26085 0
M  V30 6611 H 617.174 2.25024 -5.04052 0
M  V30 6612 H 619.65 2.69926 -3.16669 0
M  V30 6613 H 618.526 3.88706 -3.87555 0
M  V30 6614 H 618.787 3.86933 -2.13859 0
M  V30 6615 N 617.846 1.41785 0.688094 0
M  V30 6616 C 618.778 1.40159 1.81351 0
M  V30 6617 C 619.791 0.30262 1.59963 0
M  V30 6618 O 620.98 0.564841 1.69327 0
M  V30 6619 C 618.08 1.16517 3.1824 0
M  V30 6620 C 617.253 2.38597 3.66593 0
M  V30 6621 C 616.312 2.10699 4.82174 0
M  V30 6622 O 615.338 2.83798 4.93404 0
M  V30 6623 N 616.54 1.10187 5.69947 0
M  V30 6624 H 619.305 2.3716 1.83236 0
M  V30 6625 H 616.866 1.36494 0.870697 0
M  V30 6626 H 618.858 0.957941 3.93199 0
M  V30 6627 H 617.428 0.280873 3.11336 0
M  V30 6628 H 616.648 2.74974 2.82459 0
M  V30 6629 H 617.936 3.19919 3.95638 0
M  V30 6630 H 617.334 0.497016 5.63512 0
M  V30 6631 H 615.891 0.954518 6.44773 0
M  V30 6632 N 619.324 -0.923095 1.27737 0
M  V30 6633 C 620.601 -1.64989 1.05062 0
M  V30 6634 C 620.981 -2.07018 -0.413124 0
M  V30 6635 O 620.329 -1.80797 -1.39731 0
M  V30 6636 C 620.539 -2.84847 2.01652 0
M  V30 6637 C 621.887 -3.56083 2.31279 0
M  V30 6638 O 622.911 -2.94981 1.99662 0
M  V30 6639 O 621.77 -4.66182 2.85196 0
M  V30 6640 H 618.864 -0.723357 0.400853 0
M  V30 6641 H 621.41 -0.973224 1.3902 0
M  V30 6642 H 620.182 -2.50814 3.00347 0
M  V30 6643 H 619.805 -3.60231 1.68284 0
M  V30 6644 N 620.802 -1.09834 -1.13024 0
M  V30 6645 C 622.051 -0.831806 -1.83749 0
M  V30 6646 C 622.364 0.644763 -1.84668 0
M  V30 6647 O 623.57 1.02697 -2.51327 0
M  V30 6648 C 622.026 -1.43817 -3.29916 0
M  V30 6649 C 621.634 -2.94759 -3.37374 0
M  V30 6650 C 623.378 -1.25077 -4.05655 0
M  V30 6651 C 621.285 -3.48461 -4.77838 0
M  V30 6652 H 620.215 -0.30751 -0.688443 0
M  V30 6653 H 622.866 -1.32156 -1.27307 0
M  V30 6654 H 621.248 -0.876106 -3.86187 0
M  V30 6655 H 622.422 -3.57228 -2.91076 0
M  V30 6656 H 620.737 -3.12581 -2.75103 0
M  V30 6657 H 623.334 -1.62649 -5.09362 0
M  V30 6658 H 623.677 -0.191782 -4.15858 0
M  V30 6659 H 624.21 -1.78057 -3.55725 0
M  V30 6660 H 620.949 -4.53998 -4.72828 0
M  V30 6661 H 620.469 -2.90757 -5.24615 0
M  V30 6662 H 622.148 -3.45914 -5.46766 0
M  V30 6663 N 622.28 1.30327 -0.886154 0
M  V30 6664 C 623.212 2.27079 -0.311072 0
M  V30 6665 C 624.225 1.53758 0.53502 0
M  V30 6666 O 625.414 1.74947 0.354378 0
M  V30 6667 C 622.514 3.33965 0.576228 0
M  V30 6668 C 621.687 4.36735 -0.241064 0
M  V30 6669 C 620.746 5.23028 0.576916 0
M  V30 6670 O 619.772 5.692 -0.000802231 0
M  V30 6671 N 620.974 5.49016 1.88579 0
M  V30 6672 H 623.739 2.77065 -1.14259 0
M  V30 6673 H 621.3 1.43519 -0.749258 0
M  V30 6674 H 623.292 3.88618 1.12953 0
M  V30 6675 H 621.862 2.839 1.30842 0
M  V30 6676 H 621.082 3.81932 -0.975805 0
M  V30 6677 H 622.37 5.02451 -0.801272 0
M  V30 6678 H 621.768 5.13288 2.37806 0
M  V30 6679 H 620.325 6.06539 2.38651 0
M  V30 6680 N 623.758 0.647228 1.43697 0
M  V30 6681 C 624.69 -0.0866232 2.29036 0
M  V30 6682 C 625.703 -0.793051 1.42178 0
M  V30 6683 O 626.892 -0.651807 1.66174 0
M  V30 6684 C 623.992 -1.14552 3.18953 0
M  V30 6685 C 623.165 -0.518422 4.34317 0
M  V30 6686 C 622.224 -1.4734 5.05151 0
M  V30 6687 O 621.25 -0.984312 5.60625 0
M  V30 6688 N 622.452 -2.8075 5.08094 0
M  V30 6689 H 625.217 0.645834 2.92659 0
M  V30 6690 H 622.778 0.489567 1.54321 0
M  V30 6691 H 624.77 -1.78505 3.63205 0
M  V30 6692 H 623.34 -1.78001 2.56971 0
M  V30 6693 H 622.56 0.300079 3.93056 0
M  V30 6694 H 623.848 -0.080401 5.08736 0
M  V30 6695 H 623.246 -3.23052 4.64386 0
M  V30 6696 H 621.803 -3.40022 5.56083 0
M  V30 6697 N 625.236 -1.5273 0.388769 0
M  V30 6698 C 626.184 -2.27975 -0.461527 0
M  V30 6699 C 627.178 -1.31854 -1.06352 0
M  V30 6700 O 628.384 -1.49394 -1.00406 0
M  V30 6701 H 624.759 -0.733088 -0.16759 0
M  V30 6702 H 626.73 -2.97765 0.194579 0
M  V30 6703 C 625.479 -3.09881 -1.577 0
M  V30 6704 H 624.802 -3.83701 -1.12309 0
M  V30 6705 H 626.242 -3.6567 -2.14619 0
M  V30 6706 C 624.701 -2.22159 -2.53272 0
M  V30 6707 O 625.231 -1.84802 -3.56667 0
M  V30 6708 N 623.437 -1.8633 -2.23001 0
M  V30 6709 H 622.984 -2.16909 -1.38954 0
M  V30 6710 H 622.942 -1.27927 -2.87197 0
M  V30 6711 N 626.714 -0.118576 -1.57153 0
M  V30 6712 C 627.942 0.54726 -1.99531 0
M  V30 6713 C 628.357 1.60251 -0.998246 0
M  V30 6714 O 627.714 1.82498 0.00893106 0
M  V30 6715 C 627.765 1.17378 -3.41913 0
M  V30 6716 O 627.486 0.160703 -4.37805 0
M  V30 6717 C 628.987 1.92297 -3.9942 0
M  V30 6718 H 626.207 0.144919 -0.655164 0
M  V30 6719 H 628.751 -0.20479 -2.03472 0
M  V30 6720 H 626.906 1.87661 -3.38913 0
M  V30 6721 H 627.32 0.61586 -5.20872 0
M  V30 6722 H 628.794 2.31462 -5.01128 0
M  V30 6723 H 629.271 2.79801 -3.38538 0
M  V30 6724 H 629.877 1.26777 -4.05965 0
M  V30 6725 N 628.193 1.56834 0.155195 0
M  V30 6726 C 629.47 1.73799 0.897395 0
M  V30 6727 C 629.85 0.684379 1.99698 0
M  V30 6728 O 629.198 -0.298111 2.26547 0
M  V30 6729 C 629.408 3.17572 1.44737 0
M  V30 6730 C 630.756 3.79014 1.91399 0
M  V30 6731 O 631.78 3.20951 1.54496 0
M  V30 6732 O 630.639 4.80998 2.59429 0
M  V30 6733 H 627.733 0.710329 0.423511 0
M  V30 6734 H 630.279 1.69107 0.141761 0
M  V30 6735 H 629.051 3.85749 0.656741 0
M  V30 6736 H 628.674 3.26657 2.26674 0
M  V30 6737 N 629.671 -0.424282 1.51781 0
M  V30 6738 C 630.919 -1.17028 1.64769 0
M  V30 6739 C 631.24 -1.91409 0.372523 0
M  V30 6740 O 630.51 -1.86091 -0.612108 0
M  V30 6741 H 629.09 -0.434992 0.607282 0
M  V30 6742 H 631.752 -0.485169 1.88765 0
M  V30 6743 H 630.848 -1.8927 2.4816 0
M  V30 6744 N 631.149 -1.42148 -0.680565 0
M  V30 6745 C 632.374 -1.45901 -1.47403 0
M  V30 6746 C 632.799 -0.0700985 -1.87969 0
M  V30 6747 O 632.157 0.930145 -1.55621 0
M  V30 6748 C 632.205 -2.38661 -2.70321 0
M  V30 6749 O 631.309 -1.85399 -3.68376 0
M  V30 6750 H 630.65 -0.494565 -0.443059 0
M  V30 6751 H 633.18 -1.86774 -0.835251 0
M  V30 6752 H 633.19 -2.55046 -3.18458 0
M  V30 6753 H 631.865 -3.39571 -2.40134 0
M  V30 6754 H 630.442 -1.78541 -3.2738 0
M  V30 6755 N 632.627 0.916307 -1.28225 0
M  V30 6756 C 633.875 1.6619 -1.15002 0
M  V30 6757 C 634.196 1.92642 0.302329 0
M  V30 6758 O 633.466 1.54076 1.20985 0
M  V30 6759 H 632.046 0.615964 -0.422608 0
M  V30 6760 H 634.708 1.09963 -1.60917 0
M  V30 6761 H 633.804 2.62533 -1.68769 0
M  V30 6762 N 634.105 1.10431 1.1244 0
M  V30 6763 C 635.037 0.710945 2.17895 0
M  V30 6764 C 636.05 -0.252315 1.60833 0
M  V30 6765 O 637.239 -0.03679 1.78462 0
M  V30 6766 C 634.339 0.0284262 3.38888 0
M  V30 6767 C 633.512 1.01585 4.2544 0
M  V30 6768 C 632.571 0.364826 5.24934 0
M  V30 6769 O 631.597 1.01561 5.60066 0
M  V30 6770 N 632.799 -0.87674 5.73841 0
M  V30 6771 H 635.564 1.61826 2.52255 0
M  V30 6772 H 633.125 0.993132 1.27861 0
M  V30 6773 H 635.117 -0.418568 4.0253 0
M  V30 6774 H 633.687 -0.781294 3.02679 0
M  V30 6775 H 632.907 1.64111 3.58415 0
M  V30 6776 H 634.195 1.68425 4.80115 0
M  V30 6777 H 633.593 -1.42483 5.47462 0
M  V30 6778 H 632.15 -1.26688 6.39369 0
M  V30 6779 N 635.583 -1.29855 0.893053 0
M  V30 6780 C 636.829 -1.96116 0.516349 0
M  V30 6781 C 637.162 -1.70281 -0.933695 0
M  V30 6782 O 636.437 -1.01205 -1.66096 0
M  V30 6783 C 636.72 -3.51068 0.801455 0
M  V30 6784 C 636.573 -3.86387 2.30272 0
M  V30 6785 C 637.892 -4.39186 0.283423 0
M  V30 6786 H 635.011 -0.712335 0.189072 0
M  V30 6787 H 637.653 -1.53587 1.11852 0
M  V30 6788 H 635.803 -3.87424 0.288949 0
M  V30 6789 H 637.475 -3.60012 2.88425 0
M  V30 6790 H 635.718 -3.34167 2.76613 0
M  V30 6791 H 636.389 -4.94512 2.45279 0
M  V30 6792 H 638.865 -4.09785 0.722187 0
M  V30 6793 H 637.741 -5.46505 0.512169 0
M  V30 6794 H 638.002 -4.34511 -0.815643 0
M  V30 6795 N 637.061 -0.65484 -1.43351 0
M  V30 6796 C 638.286 -0.175046 -2.0666 0
M  V30 6797 C 638.711 1.15104 -1.4877 0
M  V30 6798 O 638.069 1.71144 -0.598279 0
M  V30 6799 C 638.117 -0.0991544 -3.60464 0
M  V30 6800 O 637.221 0.938169 -4.01587 0
M  V30 6801 H 636.562 -0.0956148 -0.65708 0
M  V30 6802 H 639.092 -0.898222 -1.83829 0
M  V30 6803 H 639.102 0.083632 -4.07914 0
M  V30 6804 H 637.777 -1.06719 -4.01975 0
M  V30 6805 H 636.354 0.72804 -3.65724 0
M  V30 6806 N 638.539 1.52521 -0.396863 0
M  V30 6807 C 639.788 2.00857 0.184184 0
M  V30 6808 C 640.101 1.28733 1.47265 0
M  V30 6809 O 641.307 1.67821 2.13421 0
M  V30 6810 C 639.763 3.57901 0.378787 0
M  V30 6811 C 639.371 4.38931 -0.896873 0
M  V30 6812 C 641.115 4.14504 0.915789 0
M  V30 6813 C 639.022 5.87591 -0.670133 0
M  V30 6814 H 637.952 0.750496 0.0726055 0
M  V30 6815 H 640.603 1.75965 -0.520425 0
M  V30 6816 H 638.985 3.79072 1.14543 0
M  V30 6817 H 640.159 4.29524 -1.66872 0
M  V30 6818 H 638.474 3.93586 -1.35938 0
M  V30 6819 H 641.071 5.23236 1.10126 0
M  V30 6820 H 641.414 3.71076 1.88701 0
M  V30 6821 H 641.947 3.97253 0.208523 0
M  V30 6822 H 638.686 6.35355 -1.61257 0
M  V30 6823 H 638.206 5.99767 0.0626368 0
M  V30 6824 H 639.885 6.46268 -0.307577 0
M  V30 6825 N 640.017 0.126909 1.57088 0
M  V30 6826 C 641.428 -0.397201 1.82426 0
M  V30 6827 C 641.779 -1.66084 1.04453 0
M  V30 6828 O 640.904 -2.14534 0.283552 0
M  V30 6829 C 641.499 -0.727411 3.30899 0
M  V30 6830 C 640.058 -1.19612 3.56889 0
M  V30 6831 C 639.205 -0.20885 2.76512 0
M  V30 6832 H 642.156 0.351924 1.54749 0
M  V30 6833 H 642.177 -1.58407 3.45959 0
M  V30 6834 H 641.689 0.19247 3.87622 0
M  V30 6835 H 639.79 -2.13263 3.05532 0
M  V30 6836 H 639.903 -1.13598 4.65438 0
M  V30 6837 H 638.267 -0.697479 2.44964 0
M  V30 6838 H 639.05 0.704267 3.35998 0
M  V30 6839 N 641.495 -1.56914 -0.146875 0
M  V30 6840 C 642.744 -1.82546 -0.857898 0
M  V30 6841 C 643.057 -0.708169 -1.8233 0
M  V30 6842 O 644.263 -0.850093 -2.57848 0
M  V30 6843 C 642.719 -3.23548 -1.57623 0
M  V30 6844 C 642.327 -4.43212 -0.653224 0
M  V30 6845 C 644.071 -3.58453 -2.27402 0
M  V30 6846 C 641.978 -5.75237 -1.37318 0
M  V30 6847 H 640.908 -0.680786 -0.32411 0
M  V30 6848 H 643.559 -1.83166 -0.110639 0
M  V30 6849 H 641.941 -3.17315 -2.36912 0
M  V30 6850 H 643.115 -4.60682 0.104452 0
M  V30 6851 H 641.43 -4.16351 -0.0638336 0
M  V30 6852 H 644.027 -4.54349 -2.81907 0
M  V30 6853 H 644.37 -2.84516 -3.03901 0
M  V30 6854 H 644.903 -3.66347 -1.55032 0
M  V30 6855 H 641.642 -6.52269 -0.650041 0
M  V30 6856 H 641.162 -5.61703 -2.10357 0
M  V30 6857 H 642.841 -6.18039 -1.91406 0
M  V30 6858 N 642.974 0.416227 -1.52004 0
M  V30 6859 C 644.223 1.16088 -1.64944 0
M  V30 6860 C 644.536 1.91835 -0.381928 0
M  V30 6861 O 645.742 2.6867 -0.391013 0
M  V30 6862 C 644.198 2.1124 -2.91386 0
M  V30 6863 C 643.806 1.41042 -4.25219 0
M  V30 6864 C 645.55 2.86008 -3.13688 0
M  V30 6865 C 643.457 2.34801 -5.42791 0
M  V30 6866 H 642.387 0.437041 -0.61442 0
M  V30 6867 H 645.038 0.425971 -1.78487 0
M  V30 6868 H 643.42 2.88254 -2.71525 0
M  V30 6869 H 644.594 0.694416 -4.55538 0
M  V30 6870 H 642.909 0.78344 -4.08964 0
M  V30 6871 H 645.506 3.56286 -3.98703 0
M  V30 6872 H 645.849 3.48556 -2.27628 0
M  V30 6873 H 646.382 2.16095 -3.33988 0
M  V30 6874 H 643.121 1.7691 -6.31176 0
M  V30 6875 H 642.641 3.04395 -5.16821 0
M  V30 6876 H 644.32 2.9548 -5.75587 0
M  V30 6877 N 644.452 1.42507 0.673017 0
M  V30 6878 C 645.701 1.42364 1.42883 0
M  V30 6879 C 646.014 0.0441598 1.9555 0
M  V30 6880 O 647.22 -0.0798679 2.71382 0
M  V30 6881 C 645.676 2.5043 2.58482 0
M  V30 6882 C 645.284 3.94392 2.12506 0
M  V30 6883 C 647.028 2.59455 3.35981 0
M  V30 6884 C 644.935 4.93964 3.25198 0
M  V30 6885 H 643.865 0.52951 0.536782 0
M  V30 6886 H 646.516 1.68422 0.728448 0
M  V30 6887 H 644.898 2.1754 3.30896 0
M  V30 6888 H 646.072 4.36645 1.47233 0
M  V30 6889 H 644.387 3.89233 1.4794 0
M  V30 6890 H 646.984 3.31025 4.19912 0
M  V30 6891 H 647.327 1.63869 3.82691 0
M  V30 6892 H 647.86 2.91549 2.70637 0
M  V30 6893 H 644.599 5.91034 2.83477 0
M  V30 6894 H 644.119 4.56341 3.89247 0
M  V30 6895 H 645.798 5.15763 3.90637 0
M  V30 6896 N 645.93 -0.909495 1.28709 0
M  V30 6897 C 647.341 -1.47419 1.14563 0
M  V30 6898 C 647.692 -1.94432 -0.262832 0
M  V30 6899 O 646.817 -1.82842 -1.15748 0
M  V30 6900 C 647.412 -2.67933 2.07358 0
M  V30 6901 C 645.971 -3.20568 1.97264 0
M  V30 6902 C 645.118 -1.93269 1.98852 0
M  V30 6903 H 648.069 -0.721787 1.41336 0
M  V30 6904 H 648.09 -3.43339 1.64007 0
M  V30 6905 H 647.602 -2.33685 3.09859 0
M  V30 6906 H 645.703 -3.59531 0.978157 0
M  V30 6907 H 645.816 -3.85529 2.84436 0
M  V30 6908 H 644.18 -2.10553 1.43317 0
M  V30 6909 H 644.963 -1.61312 3.0304 0
M  V30 6910 N 647.408 -1.11026 -1.11852 0
M  V30 6911 C 648.34 -0.72249 -2.17515 0
M  V30 6912 C 649.353 0.243782 -1.60964 0
M  V30 6913 O 650.542 0.0273252 -1.78479 0
M  V30 6914 C 647.642 -0.0463979 -3.38868 0
M  V30 6915 C 646.815 -1.0384 -4.24895 0
M  V30 6916 C 645.874 -0.392659 -5.24733 0
M  V30 6917 O 644.9 -1.0453 -5.5952 0
M  V30 6918 N 646.102 0.846296 -5.74298 0
M  V30 6919 H 648.867 -1.63161 -2.51393 0
M  V30 6920 H 646.428 -0.999899 -1.27333 0
M  V30 6921 H 648.42 0.397215 -4.02746 0
M  V30 6922 H 646.99 0.765231 -3.03089 0
M  V30 6923 H 646.21 -1.6601 -3.57539 0
M  V30 6924 H 647.498 -1.70968 -4.79215 0
M  V30 6925 H 646.896 1.39578 -5.4821 0
M  V30 6926 H 645.453 1.23296 -6.40032 0
M  V30 6927 N 648.886 1.2938 -0.899927 0
M  V30 6928 C 650.114 1.99691 -0.541386 0
M  V30 6929 C 650.529 1.67355 0.873936 0
M  V30 6930 O 649.886 0.918728 1.57688 0
M  V30 6931 C 649.937 3.54168 -0.72438 0
M  V30 6932 O 649.658 3.85359 -2.08399 0
M  V30 6933 C 651.159 4.41746 -0.370819 0
M  V30 6934 H 648.379 0.638037 -0.207726 0
M  V30 6935 H 650.923 1.6491 -1.20934 0
M  V30 6936 H 649.078 3.87261 -0.103607 0
M  V30 6937 H 649.492 4.80032 -2.11352 0
M  V30 6938 H 650.966 5.49256 -0.549693 0
M  V30 6939 H 651.443 4.33712 0.692148 0
M  V30 6940 H 652.049 4.14125 -0.968543 0
M  V30 6941 N 650.364 0.662433 1.43002 0
M  V30 6942 C 651.613 0.176873 2.00923 0
M  V30 6943 C 651.926 -1.21954 1.52927 0
M  V30 6944 O 653.132 -1.80081 2.03182 0
M  V30 6945 C 651.588 0.265379 3.5892 0
M  V30 6946 C 651.196 1.66507 4.15908 0
M  V30 6947 C 652.94 -0.162103 4.2419 0
M  V30 6948 C 650.847 1.707 5.66229 0
M  V30 6949 H 649.777 0.0623627 0.751417 0
M  V30 6950 H 652.428 0.825813 1.63868 0
M  V30 6951 H 650.81 -0.451235 3.93421 0
M  V30 6952 H 651.984 2.40777 3.92891 0
M  V30 6953 H 650.299 2.03932 3.63044 0
M  V30 6954 H 652.896 -0.150745 5.34487 0
M  V30 6955 H 653.239 -1.19519 3.98774 0
M  V30 6956 H 653.772 0.503075 3.94606 0
M  V30 6957 H 650.511 2.7195 5.96426 0
M  V30 6958 H 650.031 1.00768 5.91275 0
M  V30 6959 H 651.71 1.45487 6.3043 0
M  V30 6960 N 651.842 -1.52309 0.404946 0
M  V30 6961 C 653.067 -2.06666 -0.1743 0
M  V30 6962 C 653.492 -1.27341 -1.38441 0
M  V30 6963 O 652.85 -0.302539 -1.78758 0
M  V30 6964 C 652.898 -3.57014 -0.507262 0
M  V30 6965 O 652.002 -3.80144 -1.59889 0
M  V30 6966 H 651.343 -0.663807 -0.0160273 0
M  V30 6967 H 653.873 -1.96297 0.576937 0
M  V30 6968 H 653.883 -4.00724 -0.767098 0
M  V30 6969 H 652.558 -4.14184 0.377368 0
M  V30 6970 H 651.135 -3.48316 -1.33155 0
M  V30 6971 N 653.32 -0.135238 -1.57019 0
M  V30 6972 C 654.23 0.822226 -2.19719 0
M  V30 6973 C 655.246 1.28057 -1.17802 0
M  V30 6974 O 656.422 1.3402 -1.50335 0
M  V30 6975 C 653.487 2.0484 -2.79717 0
M  V30 6976 C 652.548 1.64042 -3.96723 0
M  V30 6977 C 651.781 2.80814 -4.53849 0
M  V30 6978 O 652.004 3.967 -4.0986 0
M  V30 6979 O 650.938 2.56963 -5.44292 0
M  V30 6980 H 654.764 0.318552 -3.02025 0
M  V30 6981 H 652.349 0.0912021 -1.49121 0
M  V30 6982 H 654.231 2.76622 -3.17897 0
M  V30 6983 H 652.906 2.54182 -2.00432 0
M  V30 6984 H 651.813 0.893182 -3.63281 0
M  V30 6985 H 653.146 1.19426 -4.77492 0
M  V30 6986 N 654.798 1.5699 0.138552 0
M  V30 6987 C 655.728 2.01933 1.17241 0
M  V30 6988 C 656.709 0.90033 1.44319 0
M  V30 6989 O 657.894 1.16872 1.55095 0
M  V30 6990 C 655.024 2.40711 2.50351 0
M  V30 6991 C 653.978 3.55874 2.37776 0
M  V30 6992 C 653.304 3.80491 3.75674 0
M  V30 6993 C 654.604 4.8826 1.85472 0
M  V30 6994 H 656.298 2.88551 0.798672 0
M  V30 6995 H 653.844 1.3882 0.382743 0
M  V30 6996 H 655.797 2.70754 3.22909 0
M  V30 6997 H 654.521 1.5104 2.89576 0
M  V30 6998 H 653.18 3.2601 1.67669 0
M  V30 6999 H 652.828 2.88057 4.12349 0
M  V30 7000 H 652.528 4.57998 3.68119 0
M  V30 7001 H 654.052 4.12967 4.49767 0
M  V30 7002 H 655.466 5.16965 2.4783 0
M  V30 7003 H 653.863 5.69631 1.88787 0
M  V30 7004 H 654.933 4.78071 0.810935 0
M  V30 7005 N 656.276 -0.40816 1.52223 0
M  V30 7006 C 657.208 -1.51642 1.71864 0
M  V30 7007 C 658.221 -1.51378 0.599056 0
M  V30 7008 O 659.41 -1.55626 0.874239 0
M  V30 7009 C 656.51 -2.90534 1.74481 0
M  V30 7010 C 655.683 -3.14979 3.03491 0
M  V30 7011 C 654.742 -4.33749 2.97907 0
M  V30 7012 O 653.768 -4.30982 3.71811 0
M  V30 7013 N 654.97 -5.38912 2.15764 0
M  V30 7014 H 657.735 -1.35188 2.67478 0
M  V30 7015 H 655.296 -0.597468 1.50472 0
M  V30 7016 H 657.288 -3.68056 1.68275 0
M  V30 7017 H 655.858 -3.00441 0.863363 0
M  V30 7018 H 655.078 -2.25492 3.23337 0
M  V30 7019 H 656.366 -3.28156 3.88833 0
M  V30 7020 H 655.764 -5.44008 1.55152 0
M  V30 7021 H 654.321 -6.15174 2.15415 0
M  V30 7022 N 657.755 -1.42862 -0.66545 0
M  V30 7023 C 658.685 -1.49867 -1.79059 0
M  V30 7024 C 659.666 -0.354394 -1.66367 0
M  V30 7025 O 660.851 -0.569969 -1.85647 0
M  V30 7026 C 657.981 -1.40943 -3.17415 0
M  V30 7027 C 656.935 -2.53495 -3.44854 0
M  V30 7028 C 656.261 -2.29626 -4.82883 0
M  V30 7029 C 657.561 -3.95781 -3.40815 0
M  V30 7030 H 659.255 -2.44037 -1.73453 0
M  V30 7031 H 656.801 -1.17456 -0.833071 0
M  V30 7032 H 658.754 -1.4445 -3.95869 0
M  V30 7033 H 657.478 -0.432716 -3.23721 0
M  V30 7034 H 656.137 -2.4932 -2.68766 0
M  V30 7035 H 655.785 -1.30226 -4.8585 0
M  V30 7036 H 655.485 -3.05065 -5.02204 0
M  V30 7037 H 657.009 -2.34897 -5.63609 0
M  V30 7038 H 658.423 -4.01508 -4.09224 0
M  V30 7039 H 656.82 -4.71148 -3.71672 0
M  V30 7040 H 657.89 -4.21786 -2.39216 0
M  V30 7041 N 659.233 0.902656 -1.29189 0
M  V30 7042 C 660.458 1.69167 -1.19989 0
M  V30 7043 C 660.883 1.86607 0.236495 0
M  V30 7044 O 660.241 1.38425 1.17082 0
M  V30 7045 C 660.289 3.05532 -1.91527 0
M  V30 7046 O 659.393 3.93621 -1.2303 0
M  V30 7047 H 658.734 0.517584 -0.415936 0
M  V30 7048 H 661.264 1.12785 -1.70706 0
M  V30 7049 H 661.274 3.55693 -1.99866 0
M  V30 7050 H 659.949 2.92156 -2.96003 0
M  V30 7051 H 658.526 3.52055 -1.22928 0
M  V30 7052 N 660.711 1.11618 1.11262 0
M  V30 7053 C 661.957 0.867463 1.83311 0
M  V30 7054 C 662.29 -0.605366 1.84524 0
M  V30 7055 O 661.565 -1.44704 1.29965 0
M  V30 7056 C 661.848 1.43207 3.30399 0
M  V30 7057 C 661.701 2.97265 3.3757 0
M  V30 7058 C 663.02 1.08454 4.26528 0
M  V30 7059 H 660.139 0.316578 0.665543 0
M  V30 7060 H 662.781 1.38137 1.30454 0
M  V30 7061 H 660.931 0.994982 3.75543 0
M  V30 7062 H 662.603 3.49591 3.00971 0
M  V30 7063 H 660.846 3.33237 2.77733 0
M  V30 7064 H 661.517 3.31859 4.41105 0
M  V30 7065 H 663.993 1.4619 3.89574 0
M  V30 7066 H 662.869 1.50633 5.27826 0
M  V30 7067 H 663.13 -0.00444568 4.421 0
M  V30 7068 N 662.189 -1.289 0.906776 0
M  V30 7069 C 663.414 -1.99939 0.551303 0
M  V30 7070 C 663.839 -1.67366 -0.858496 0
M  V30 7071 O 663.197 -0.902176 -1.57259 0
M  V30 7072 C 663.245 -3.52523 0.758937 0
M  V30 7073 O 662.349 -4.11983 -0.185308 0
M  V30 7074 H 661.69 -0.628376 0.214568 0
M  V30 7075 H 664.22 -1.64225 1.2203 0
M  V30 7076 H 664.23 -4.02522 0.666329 0
M  V30 7077 H 662.905 -3.75566 1.78671 0
M  V30 7078 H 661.482 -3.72873 -0.0445577 0
M  V30 7079 N 663.667 -0.670007 -1.42649 0
M  V30 7080 C 664.63 0.00204659 -2.292 0
M  V30 7081 C 665.63 0.733817 -1.4308 0
M  V30 7082 O 666.82 0.57254 -1.64522 0
M  V30 7083 C 663.952 1.01359 -3.25483 0
M  V30 7084 H 665.145 -0.759696 -2.90118 0
M  V30 7085 H 662.698 -0.432105 -1.50208 0
M  V30 7086 H 663.433 1.80399 -2.69493 0
M  V30 7087 H 663.218 0.492323 -3.88997 0
M  V30 7088 H 664.708 1.4824 -3.90403 0
M  V30 7089 N 665.145 1.52092 -0.413018 0
M  V30 7090 C 666.393 2.01456 0.161178 0
M  V30 7091 C 666.714 1.30034 1.45314 0
M  V30 7092 O 665.984 0.427435 1.9118 0
M  V30 7093 H 664.564 0.744376 0.0625526 0
M  V30 7094 H 667.226 1.86974 -0.550151 0
M  V30 7095 H 666.322 3.1008 0.354517 0
M  V30 7096 N 666.623 0.143563 1.56945 0
M  V30 7097 C 667.848 -0.518701 2.00809 0
M  V30 7098 C 668.273 -1.5785 1.02298 0
M  V30 7099 O 667.631 -1.813 -0.0017839 0
M  V30 7100 C 667.679 -1.09929 3.43436 0
M  V30 7101 O 666.783 -2.21425 3.47915 0
M  V30 7102 H 666.124 -0.127215 0.6517 0
M  V30 7103 H 668.654 0.239283 2.03196 0
M  V30 7104 H 668.664 -1.4288 3.82164 0
M  V30 7105 H 667.339 -0.323162 4.14643 0
M  V30 7106 H 665.916 -1.89728 3.21026 0
M  V30 7107 N 668.101 -1.57061 -0.130224 0
M  V30 7108 C 669.512 -1.73539 -0.68856 0
M  V30 7109 C 669.863 -0.760554 -1.80859 0
M  V30 7110 O 668.988 0.0690796 -2.1629 0
M  V30 7111 C 669.583 -3.14666 -1.25581 0
M  V30 7112 C 668.142 -3.32689 -1.76055 0
M  V30 7113 C 667.289 -2.69436 -0.655712 0
M  V30 7114 H 670.24 -1.58412 0.0956002 0
M  V30 7115 H 670.261 -3.15595 -2.12556 0
M  V30 7116 H 669.773 -3.85593 -0.440412 0
M  V30 7117 H 667.874 -2.66786 -2.60108 0
M  V30 7118 H 667.987 -4.4077 -1.87772 0
M  V30 7119 H 666.351 -2.30362 -1.08654 0
M  V30 7120 H 667.134 -3.42979 0.14852 0
M  V30 7121 N 669.579 0.400081 -1.52437 0
M  V30 7122 C 670.529 1.48734 -1.72807 0
M  V30 7123 C 671.513 1.50004 -0.582032 0
M  V30 7124 O 672.705 1.55828 -0.839449 0
M  V30 7125 C 669.834 2.86568 -1.89034 0
M  V30 7126 C 668.92 2.8991 -3.09537 0
M  V30 7127 N 669.311 2.62937 -4.32086 0
M  V30 7128 C 667.609 3.21078 -3.09556 0
M  V30 7129 C 668.31 2.73079 -5.13617 0
M  V30 7130 N 667.286 3.06342 -4.49061 0
M  V30 7131 H 671.088 1.26689 -2.65193 0
M  V30 7132 H 668.602 0.607902 -1.50593 0
M  V30 7133 H 670.599 3.64834 -2.01746 0
M  V30 7134 H 669.259 3.09604 -0.978547 0
M  V30 7135 H 670.27 2.37163 -4.60406 0
M  V30 7136 H 666.947 3.49651 -2.28146 0
M  V30 7137 H 668.337 2.55863 -6.21276 0
M  V30 7138 N 671.057 1.43213 0.657864 0
M  V30 7139 C 672.468 1.39669 1.23893 0
M  V30 7140 C 672.819 0.0984217 1.95953 0
M  V30 7141 O 671.944 -0.8023 2.00978 0
M  V30 7142 C 672.539 2.53004 2.25332 0
M  V30 7143 C 671.098 2.5274 2.78926 0
M  V30 7144 C 670.245 2.30941 1.53497 0
M  V30 7145 H 673.196 1.52181 0.450172 0
M  V30 7146 H 673.217 2.24226 3.07413 0
M  V30 7147 H 672.729 3.4748 1.72856 0
M  V30 7148 H 670.83 1.6213 3.35477 0
M  V30 7149 H 670.943 3.50352 3.26787 0
M  V30 7150 H 669.307 1.7952 1.80678 0
M  V30 7151 H 670.09 3.27496 1.02963 0
M  V30 7152 N 672.536 -0.895792 1.29666 0
M  V30 7153 C 673.499 -1.98189 1.15124 0
M  V30 7154 C 674.499 -1.60572 0.0855717 0
M  V30 7155 O 675.689 -1.70991 0.332826 0
M  V30 7156 C 672.821 -3.32289 0.761372 0
M  V30 7157 H 674.014 -2.12518 2.11603 0
M  V30 7158 H 671.567 -1.0808 1.12908 0
M  V30 7159 H 672.302 -3.23662 -0.203393 0
M  V30 7160 H 672.087 -3.60958 1.53139 0
M  V30 7161 H 673.577 -4.1198 0.682792 0
M  V30 7162 N 674.014 -1.12206 -1.10668 0
M  V30 7163 C 675.263 -0.870595 -1.81944 0
M  V30 7164 C 675.576 0.605447 -1.85994 0
M  V30 7165 O 676.782 0.973433 -2.53449 0
M  V30 7166 C 675.238 -1.50783 -3.26791 0
M  V30 7167 C 674.846 -3.01849 -3.31046 0
M  V30 7168 C 676.59 -1.33653 -4.02911 0
M  V30 7169 C 674.497 -3.58518 -4.70339 0
M  V30 7170 H 673.427 -0.322043 -0.681765 0
M  V30 7171 H 676.078 -1.34827 -1.24475 0
M  V30 7172 H 674.46 -0.957825 -3.84242 0
M  V30 7173 H 675.634 -3.63321 -2.83433 0
M  V30 7174 H 673.949 -3.18346 -2.68411 0
M  V30 7175 H 676.546 -1.73416 -5.05797 0
M  V30 7176 H 676.889 -0.279949 -4.15358 0
M  V30 7177 H 677.422 -1.85562 -3.51868 0
M  V30 7178 H 674.161 -4.63925 -4.63091 0
M  V30 7179 H 673.681 -3.01819 -5.18329 0
M  V30 7180 H 675.36 -3.57434 -5.39305 0
M  V30 7181 N 675.492 1.28418 -0.913599 0
M  V30 7182 C 676.455 2.25564 -0.406624 0
M  V30 7183 C 677.455 1.5387 0.466965 0
M  V30 7184 O 678.645 1.72094 0.270042 0
M  V30 7185 C 675.777 3.38339 0.417053 0
M  V30 7186 H 676.97 2.71926 -1.26477 0
M  V30 7187 H 674.523 1.40098 -0.692986 0
M  V30 7188 H 675.258 2.97339 1.29461 0
M  V30 7189 H 675.043 3.91542 -0.209102 0
M  V30 7190 H 676.533 4.10578 0.762602 0
M  V30 7191 N 676.97 0.677563 1.42291 0
M  V30 7192 C 678.386 0.347376 1.55774 0
M  V30 7193 C 678.586 -1.14703 1.65667 0
M  V30 7194 O 677.642 -1.93252 1.62512 0
M  V30 7195 C 678.955 1.08011 2.80631 0
M  V30 7196 C 680.503 1.06271 2.94407 0
M  V30 7197 C 680.978 1.77683 4.22129 0
M  V30 7198 N 682.469 1.74564 4.29047 0
M  V30 7199 C 683.204 2.26673 5.26694 0
M  V30 7200 N 682.7 2.87176 6.30477 0
M  V30 7201 N 684.493 2.17032 5.18511 0
M  V30 7202 H 676.644 1.64703 1.34114 0
M  V30 7203 H 678.907 0.694038 0.645768 0
M  V30 7204 H 678.613 2.13518 2.79469 0
M  V30 7205 H 678.487 0.647115 3.71608 0
M  V30 7206 H 680.874 0.0159658 2.95096 0
M  V30 7207 H 680.955 1.53461 2.04654 0
M  V30 7208 H 680.599 2.82327 4.22201 0
M  V30 7209 H 680.529 1.2794 5.10822 0
M  V30 7210 H 683.02 1.30436 3.54676 0
M  V30 7211 H 683.333 3.24551 7.01346 0
M  V30 7212 H 681.678 2.91247 6.31031 0
M  V30 7213 H 684.869 1.69451 4.36353 0
M  V30 7214 H 685.042 2.57948 5.94446 0
M  V30 7215 N 678.448 -1.51871 0.421078 0
M  V30 7216 C 679.378 -2.30231 -0.389363 0
M  V30 7217 C 680.359 -1.34946 -1.03555 0
M  V30 7218 O 681.544 -1.63859 -1.04229 0
M  V30 7219 C 678.674 -3.13247 -1.49979 0
M  V30 7220 C 677.628 -4.16677 -0.977966 0
M  V30 7221 C 676.954 -4.88112 -2.1829 0
M  V30 7222 C 678.254 -5.22295 -0.0236775 0
M  V30 7223 H 679.948 -2.98229 0.264524 0
M  V30 7224 H 677.494 -1.43424 0.12866 0
M  V30 7225 H 679.447 -3.66838 -2.07383 0
M  V30 7226 H 678.171 -2.4304 -2.18173 0
M  V30 7227 H 676.83 -3.64114 -0.426245 0
M  V30 7228 H 676.478 -4.14423 -2.85066 0
M  V30 7229 H 676.178 -5.58041 -1.84021 0
M  V30 7230 H 677.702 -5.44521 -2.76278 0
M  V30 7231 H 679.116 -5.71055 -0.506899 0
M  V30 7232 H 677.513 -5.99656 0.230782 0
M  V30 7233 H 678.583 -4.76131 0.917999 0
M  V30 7234 N 679.926 -0.151884 -1.56866 0
M  V30 7235 C 681.154 0.504813 -2.00647 0
M  V30 7236 C 681.569 1.58098 -1.03201 0
M  V30 7237 O 680.926 1.82476 -0.0297814 0
M  V30 7238 C 680.977 1.10099 -3.44326 0
M  V30 7239 O 680.698 0.0678021 -4.38048 0
M  V30 7240 C 682.199 1.83782 -4.03409 0
M  V30 7241 H 679.419 0.130989 -0.65809 0
M  V30 7242 H 681.963 -0.247903 -2.02992 0
M  V30 7243 H 680.118 1.8043 -3.42817 0
M  V30 7244 H 680.532 0.505237 -5.22061 0
M  V30 7245 H 682.006 2.2078 -5.05925 0
M  V30 7246 H 682.483 2.72557 -3.44397 0
M  V30 7247 H 683.089 1.18138 -4.08563 0
M  V30 7248 N 681.404 1.57128 0.121893 0
M  V30 7249 C 682.65 1.84974 0.831418 0
M  V30 7250 C 682.983 0.737204 1.79663 0
M  V30 7251 O 682.258 -0.257199 1.92792 0
M  V30 7252 C 682.541 3.23397 1.58386 0
M  V30 7253 C 682.394 4.45246 0.638445 0
M  V30 7254 C 683.713 3.59355 2.54071 0
M  V30 7255 H 680.832 0.67282 0.300803 0
M  V30 7256 H 683.474 1.89759 0.0957587 0
M  V30 7257 H 681.624 3.19449 2.21098 0
M  V30 7258 H 683.296 4.61295 0.0203925 0
M  V30 7259 H 681.539 4.33771 -0.05023 0
M  V30 7260 H 682.21 5.38765 1.20151 0
M  V30 7261 H 684.686 3.64075 2.01465 0
M  V30 7262 H 683.562 4.57193 3.03752 0
M  V30 7263 H 683.823 2.86622 3.36601 0
M  V30 7264 N 682.882 -0.391992 1.52647 0
M  V30 7265 C 683.845 -1.46135 1.7657 0
M  V30 7266 C 684.845 -1.47701 0.635698 0
M  V30 7267 O 686.035 -1.48924 0.903728 0
M  V30 7268 C 683.167 -2.85443 1.86374 0
M  V30 7269 H 684.36 -1.26208 2.72051 0
M  V30 7270 H 681.913 -0.623549 1.43323 0
M  V30 7271 H 682.648 -3.10718 0.928685 0
M  V30 7272 H 682.433 -2.85708 2.68539 0
M  V30 7273 H 683.923 -3.62933 2.06566 0
M  V30 7274 N 684.36 -1.4356 -0.65026 0
M  V30 7275 C 685.323 -1.48615 -1.74489 0
M  V30 7276 C 686.323 -0.370483 -1.56474 0
M  V30 7277 O 687.513 -0.632351 -1.62317 0
M  V30 7278 C 684.645 -1.34161 -3.13391 0
M  V30 7279 H 685.838 -2.46103 -1.71387 0
M  V30 7280 H 683.391 -1.30369 -0.862186 0
M  V30 7281 H 684.126 -0.376918 -3.22102 0
M  V30 7282 H 683.911 -2.1504 -3.27872 0
M  V30 7283 H 685.401 -1.40637 -3.93206 0
M  V30 7284 N 685.838 0.888903 -1.30139 0
M  V30 7285 C 687.249 1.45578 -1.16893 0
M  V30 7286 C 687.6 1.94825 0.231866 0
M  V30 7287 O 686.725 1.84661 1.12824 0
M  V30 7288 C 687.32 2.646 -2.11595 0
M  V30 7289 C 685.879 3.17389 -2.02339 0
M  V30 7290 C 685.026 1.90081 -2.01902 0
M  V30 7291 H 687.977 0.69921 -1.42467 0
M  V30 7292 H 687.998 3.40687 -1.69449 0
M  V30 7293 H 687.51 2.28726 -3.13538 0
M  V30 7294 H 685.611 3.5793 -1.03523 0
M  V30 7295 H 685.724 3.80955 -2.90534 0
M  V30 7296 H 684.088 2.08246 -1.46648 0
M  V30 7297 H 684.871 1.5647 -3.05568 0
M  V30 7298 N 687.317 1.12792 1.10072 0
M  V30 7299 C 688.728 0.899346 1.63611 0
M  V30 7300 C 689.079 -0.565547 1.87872 0
M  V30 7301 O 688.204 -1.43081 1.62348 0
M  V30 7302 C 688.799 1.62608 2.97227 0
M  V30 7303 C 687.358 1.44356 3.47618 0
M  V30 7304 C 686.505 1.65958 2.22156 0
M  V30 7305 H 689.456 1.28216 0.935223 0
M  V30 7306 H 689.477 1.0793 3.64872 0
M  V30 7307 H 688.989 2.69221 2.79538 0
M  V30 7308 H 687.09 0.400148 3.70445 0
M  V30 7309 H 687.203 2.20218 4.25489 0
M  V30 7310 H 685.567 1.08395 2.30484 0
M  V30 7311 H 686.35 2.73877 2.06993 0
M  V30 7312 N 688.795 -1.27931 0.920396 0
M  V30 7313 C 690.02 -1.99343 0.572478 0
M  V30 7314 C 690.445 -1.68267 -0.840696 0
M  V30 7315 O 689.803 -0.918805 -1.56294 0
M  V30 7316 C 689.851 -3.51698 0.796284 0
M  V30 7317 O 688.955 -4.12157 -0.141602 0
M  V30 7318 H 688.296 -0.626065 0.221221 0
M  V30 7319 H 690.826 -1.62921 1.23765 0
M  V30 7320 H 690.836 -4.01793 0.708984 0
M  V30 7321 H 689.511 -3.73649 1.82644 0
M  V30 7322 H 688.088 -3.729 -0.005007 0
M  V30 7323 N 690.273 -0.685099 -1.4193 0
M  V30 7324 C 691.521 -0.21124 -2.00993 0
M  V30 7325 C 691.842 1.18985 -1.54491 0
M  V30 7326 O 691.112 1.8009 -0.771 0
M  V30 7327 H 689.692 -0.0751059 -0.743215 0
M  V30 7328 H 692.354 -0.883915 -1.73704 0
M  V30 7329 H 691.45 -0.220513 -3.1132 0
M  V30 7330 N 691.751 1.51645 -0.429126 0
M  V30 7331 C 692.999 2.01616 0.139802 0
M  V30 7332 C 693.32 1.31568 1.43927 0
M  V30 7333 O 692.59 0.447688 1.90716 0
M  V30 7334 H 691.17 0.744998 0.054654 0
M  V30 7335 H 693.832 1.8638 -0.569952 0
M  V30 7336 H 692.928 3.10439 0.321609 0
M  V30 7337 N 693.229 0.160201 1.56784 0
M  V30 7338 C 694.64 -0.358417 1.83227 0
M  V30 7339 C 694.991 -1.63831 1.07952 0
M  V30 7340 O 694.116 -2.13885 0.328995 0
M  V30 7341 C 694.711 -0.657058 3.32368 0
M  V30 7342 C 693.27 -1.12015 3.59346 0
M  V30 7343 C 692.417 -0.15015 2.76893 0
M  V30 7344 H 695.368 0.384669 1.53967 0
M  V30 7345 H 695.389 -1.51033 3.49241 0
M  V30 7346 H 694.901 0.274647 3.87127 0
M  V30 7347 H 693.002 -2.06734 3.09987 0
M  V30 7348 H 693.115 -1.037 4.67743 0
M  V30 7349 H 691.479 -0.645361 2.46388 0
M  V30 7350 H 692.262 0.775379 3.34429 0
M  V30 7351 N 694.707 -1.5719 -0.113559 0
M  V30 7352 C 695.955 -1.84772 -0.818761 0
M  V30 7353 C 696.276 -0.746196 -1.80158 0
M  V30 7354 O 695.546 0.229305 -1.94553 0
M  V30 7355 H 694.126 -0.681737 -0.305359 0
M  V30 7356 H 696.788 -1.94645 -0.0995845 0
M  V30 7357 H 695.884 -2.80878 -1.36067 0
M  V30 7358 N 696.185 0.383891 -1.52853 0
M  V30 7359 C 697.432 1.12842 -1.68146 0
M  V30 7360 C 697.76 1.89823 -0.423954 0
M  V30 7361 O 697.015 1.86475 0.593765 0
M  V30 7362 C 697.314 2.12881 -2.87082 0
M  V30 7363 C 696.98 1.52519 -4.24322 0
M  V30 7364 C 695.642 1.35783 -4.61645 0
M  V30 7365 C 697.994 1.0868 -5.09743 0
M  V30 7366 C 695.322 0.737643 -5.82044 0
M  V30 7367 C 697.674 0.480699 -6.30771 0
M  V30 7368 C 696.338 0.300681 -6.66822 0
M  V30 7369 H 695.608 0.412917 -0.615289 0
M  V30 7370 H 698.255 0.412416 -1.87006 0
M  V30 7371 H 696.56 2.90719 -2.62659 0
M  V30 7372 H 698.257 2.70408 -2.96109 0
M  V30 7373 H 694.847 1.66534 -3.94923 0
M  V30 7374 H 699.031 1.2041 -4.81472 0
M  V30 7375 H 694.287 0.586415 -6.08581 0
M  V30 7376 H 698.461 0.132733 -6.96273 0
M  V30 7377 H 696.088 -0.181966 -7.59982 0
M  V30 7378 N 697.663 1.43903 0.642637 0
M  V30 7379 C 698.593 1.52697 1.76652 0
M  V30 7380 C 699.574 0.380816 1.65782 0
M  V30 7381 O 700.759 0.599432 1.84717 0
M  V30 7382 C 697.889 1.45975 3.15133 0
M  V30 7383 C 696.843 2.58949 3.40778 0
M  V30 7384 C 696.169 2.37279 4.79169 0
M  V30 7385 C 697.469 4.01153 3.34475 0
M  V30 7386 H 699.163 2.46766 1.69549 0
M  V30 7387 H 696.709 1.18767 0.814279 0
M  V30 7388 H 698.662 1.5073 3.93521 0
M  V30 7389 H 697.386 0.484162 3.22991 0
M  V30 7390 H 696.045 2.53564 2.64765 0
M  V30 7391 H 695.693 1.37939 4.83717 0
M  V30 7392 H 695.393 3.13016 4.97287 0
M  V30 7393 H 696.917 2.43834 5.59801 0
M  V30 7394 H 698.331 4.07968 4.02784 0
M  V30 7395 H 696.728 4.77001 3.64129 0
M  V30 7396 H 697.798 4.25539 2.32475 0
M  V30 7397 N 699.141 -0.881989 1.30609 0
M  V30 7398 C 700.366 -1.67236 1.22665 0
M  V30 7399 C 700.791 -1.8696 -0.206777 0
M  V30 7400 O 700.149 -1.4027 -1.14865 0
M  V30 7401 C 700.197 -3.02446 1.96363 0
M  V30 7402 O 699.301 -3.91614 1.29276 0
M  V30 7403 H 698.642 -0.510902 0.424117 0
M  V30 7404 H 701.172 -1.10055 1.72479 0
M  V30 7405 H 701.182 -3.52468 2.055 0
M  V30 7406 H 699.857 -2.8741 3.00613 0
M  V30 7407 H 698.434 -3.50055 1.28514 0
M  V30 7408 N 700.619 -1.13374 -1.09472 0
M  V30 7409 C 701.868 -0.889844 -1.8101 0
M  V30 7410 C 702.181 0.585686 -1.86625 0
M  V30 7411 O 703.387 0.946497 -2.54467 0
M  V30 7412 C 701.843 -1.54241 -3.25174 0
M  V30 7413 C 701.451 -3.05343 -3.27826 0
M  V30 7414 C 703.195 -1.37919 -4.0147 0
M  V30 7415 C 701.102 -3.63486 -4.6651 0
M  V30 7416 H 700.032 -0.329256 -0.678311 0
M  V30 7417 H 702.683 -1.36139 -1.23038 0
M  V30 7418 H 701.065 -0.998525 -3.83204 0
M  V30 7419 H 702.239 -3.66307 -2.79563 0
M  V30 7420 H 700.554 -3.21175 -2.65019 0
M  V30 7421 H 703.151 -1.78771 -5.03929 0
M  V30 7422 H 703.494 -0.323987 -4.15037 0
M  V30 7423 H 704.027 -1.89284 -3.49881 0
M  V30 7424 H 700.766 -4.68811 -4.58145 0
M  V30 7425 H 700.286 -3.073 -5.15099 0
M  V30 7426 H 701.965 -3.63134 -5.35484 0
M  V30 7427 N 702.098 1.27442 -0.927168 0
M  V30 7428 C 703.008 2.30599 -0.431448 0
M  V30 7429 C 704.024 1.67028 0.48761 0
M  V30 7430 O 705.2 1.97962 0.370546 0
M  V30 7431 C 702.265 3.45327 0.308292 0
M  V30 7432 C 701.326 4.24418 -0.645615 0
M  V30 7433 C 700.559 5.33667 0.0589164 0
M  V30 7434 O 700.782 5.5589 1.27838 0
M  V30 7435 O 699.716 5.98774 -0.612638 0
M  V30 7436 H 703.542 2.75036 -1.28797 0
M  V30 7437 H 701.127 1.32382 -0.692495 0
M  V30 7438 H 703.009 4.15107 0.725555 0
M  V30 7439 H 701.684 3.02945 1.14043 0
M  V30 7440 H 700.591 3.57174 -1.11255 0
M  V30 7441 H 701.924 4.70512 -1.44496 0
M  V30 7442 N 703.576 0.692616 1.41565 0
M  V30 7443 C 704.992 0.363878 1.55397 0
M  V30 7444 C 705.192 -1.1294 1.66874 0
M  V30 7445 O 704.248 -1.91517 1.64552 0
M  V30 7446 C 705.561 1.10982 2.7947 0
M  V30 7447 C 707.109 1.09387 2.93263 0
M  V30 7448 C 707.584 1.8215 4.20221 0
M  V30 7449 N 709.075 1.79105 4.27172 0
M  V30 7450 C 709.81 2.32247 5.2426 0
M  V30 7451 N 709.306 2.93847 6.27396 0
M  V30 7452 N 711.099 2.22519 5.1618 0
M  V30 7453 H 703.25 1.66116 1.3236 0
M  V30 7454 H 705.513 0.700848 0.63837 0
M  V30 7455 H 705.219 2.1647 2.77188 0
M  V30 7456 H 705.093 0.686492 3.709 0
M  V30 7457 H 707.48 0.0472638 2.95062 0
M  V30 7458 H 707.561 1.55623 2.03015 0
M  V30 7459 H 707.205 2.86789 4.19183 0
M  V30 7460 H 707.135 1.33351 5.09436 0
M  V30 7461 H 709.626 1.34191 3.53272 0
M  V30 7462 H 709.939 3.31972 6.97864 0
M  V30 7463 H 708.284 2.97924 6.27906 0
M  V30 7464 H 711.475 1.7407 4.34531 0
M  V30 7465 H 711.648 2.64239 5.91677 0
M  V30 7466 N 705.054 -1.51416 0.437162 0
M  V30 7467 C 706.465 -1.86682 -0.0260005 0
M  V30 7468 C 706.816 -1.35432 -1.4196 0
M  V30 7469 O 705.941 -0.705055 -2.04592 0
M  V30 7470 C 706.536 -3.38757 -0.0539577 0
M  V30 7471 C 705.095 -3.7356 -0.461532 0
M  V30 7472 C 704.242 -2.75134 0.345924 0
M  V30 7473 H 707.193 -1.44642 0.653013 0
M  V30 7474 H 707.214 -3.70573 -0.863478 0
M  V30 7475 H 706.726 -3.76028 0.96045 0
M  V30 7476 H 704.827 -3.41878 -1.48155 0
M  V30 7477 H 704.94 -4.78737 -0.186451 0
M  V30 7478 H 703.304 -2.53947 -0.195739 0
M  V30 7479 H 704.087 -3.15247 1.35921 0
M  V30 7480 N 706.532 -0.168513 -1.56696 0
M  V30 7481 C 707.809 0.523367 -1.88468 0
M  V30 7482 C 708.189 1.81503 -1.07796 0
M  V30 7483 O 707.537 2.27859 -0.171045 0
M  V30 7484 C 707.747 0.767991 -3.40445 0
M  V30 7485 C 709.095 1.09924 -4.10124 0
M  V30 7486 O 710.119 0.856625 -3.45746 0
M  V30 7487 O 708.978 1.55681 -5.23856 0
M  V30 7488 H 706.072 0.269447 -0.781874 0
M  V30 7489 H 708.618 -0.206739 -1.68436 0
M  V30 7490 H 707.39 -0.145254 -3.9103 0
M  V30 7491 H 707.013 1.55151 -3.66079 0
M  V30 7492 N 708.01 1.57248 0.105221 0
M  V30 7493 C 709.235 1.90143 0.828264 0
M  V30 7494 C 709.66 0.761811 1.71983 0
M  V30 7495 O 709.018 -0.287086 1.79013 0
M  V30 7496 C 709.066 3.21856 1.62608 0
M  V30 7497 O 708.17 3.08732 2.7342 0
M  V30 7498 H 707.511 0.623558 0.228192 0
M  V30 7499 H 710.041 2.0443 0.0834826 0
M  V30 7500 H 710.051 3.54916 2.01243 0
M  V30 7501 H 708.726 4.0439 0.971687 0
M  V30 7502 H 707.303 2.87167 2.37886 0
M  V30 7503 N 709.488 -0.375779 1.53054 0
M  V30 7504 C 710.904 -0.716764 1.426 0
M  V30 7505 C 711.104 -1.93651 0.556931 0
M  V30 7506 O 710.16 -2.52475 0.0354461 0
M  V30 7507 C 711.473 -0.939499 2.85646 0
M  V30 7508 C 713.021 -1.04015 2.95212 0
M  V30 7509 C 713.496 -1.29543 4.39298 0
M  V30 7510 N 714.987 -1.36335 4.42682 0
M  V30 7511 C 715.722 -1.57778 5.51266 0
M  V30 7512 N 715.218 -1.76604 6.69913 0
M  V30 7513 N 717.011 -1.60065 5.38828 0
M  V30 7514 H 709.162 0.42664 2.08071 0
M  V30 7515 H 711.425 0.128758 0.939215 0
M  V30 7516 H 711.131 -0.115189 3.51511 0
M  V30 7517 H 711.005 -1.85048 3.2869 0
M  V30 7518 H 713.392 -1.85501 2.29507 0
M  V30 7519 H 713.473 -0.106785 2.55577 0
M  V30 7520 H 713.117 -0.485611 5.05573 0
M  V30 7521 H 713.047 -2.24184 4.76497 0
M  V30 7522 H 715.538 -1.23441 3.5717 0
M  V30 7523 H 715.851 -1.9251 7.48438 0
M  V30 7524 H 714.196 -1.73802 6.72917 0
M  V30 7525 H 717.387 -1.44917 4.45103 0
M  V30 7526 H 717.56 -1.76435 6.23518 0
M  V30 7527 N 710.966 -1.44241 -0.634997 0
M  V30 7528 C 712.377 -1.41622 -1.21655 0
M  V30 7529 C 712.728 -0.129584 -1.95772 0
M  V30 7530 O 711.853 0.770225 -2.02229 0
M  V30 7531 C 712.448 -2.56557 -2.21278 0
M  V30 7532 C 711.007 -2.57145 -2.7487 0
M  V30 7533 C 710.154 -2.33354 -1.49804 0
M  V30 7534 H 713.105 -1.52878 -0.425905 0
M  V30 7535 H 713.126 -2.29089 -3.03807 0
M  V30 7536 H 712.638 -3.50186 -1.67306 0
M  V30 7537 H 710.739 -1.67447 -3.32855 0
M  V30 7538 H 710.852 -3.55507 -3.21172 0
M  V30 7539 H 709.216 -1.82372 -1.77799 0
M  V30 7540 H 709.999 -3.29092 -0.977402 0
M  V30 7541 N 712.444 0.87505 -1.31075 0
M  V30 7542 C 713.855 1.4433 -1.18431 0
M  V30 7543 C 714.206 1.9506 0.211189 0
M  V30 7544 O 713.331 1.85847 1.10859 0
M  V30 7545 C 713.926 2.62341 -2.14389 0
M  V30 7546 C 712.485 3.15225 -2.05694 0
M  V30 7547 C 711.632 1.87929 -2.03907 0
M  V30 7548 H 714.583 0.684061 -1.432 0
M  V30 7549 H 714.604 3.3887 -1.73053 0
M  V30 7550 H 714.116 2.25388 -3.15946 0
M  V30 7551 H 712.217 3.56812 -1.07314 0
M  V30 7552 H 712.33 3.77853 -2.94558 0
M  V30 7553 H 710.694 2.06679 -1.48849 0
M  V30 7554 H 711.477 1.53221 -3.07211 0
M  V30 7555 N 713.922 1.13953 1.08869 0
M  V30 7556 C 715.338 0.878924 1.33218 0
M  V30 7557 C 715.538 -0.482478 1.95638 0
M  V30 7558 O 714.594 -1.22778 2.2064 0
M  V30 7559 C 715.907 2.00798 2.23832 0
M  V30 7560 C 717.455 2.04073 2.37325 0
M  V30 7561 C 717.93 3.16258 3.31278 0
M  V30 7562 N 719.421 3.15805 3.38853 0
M  V30 7563 C 720.156 3.99249 4.11567 0
M  V30 7564 N 719.652 4.92721 4.87029 0
M  V30 7565 N 721.445 3.87327 4.0735 0
M  V30 7566 H 713.596 2.01645 0.66731 0
M  V30 7567 H 715.859 0.878395 0.356547 0
M  V30 7568 H 715.565 2.98986 1.85203 0
M  V30 7569 H 715.439 1.92704 3.24261 0
M  V30 7570 H 717.826 1.06495 2.75214 0
M  V30 7571 H 717.907 2.16239 1.36654 0
M  V30 7572 H 717.551 4.14079 2.9411 0
M  V30 7573 H 717.481 3.0133 4.31866 0
M  V30 7574 H 719.972 2.48102 2.8505 0
M  V30 7575 H 720.285 5.52867 5.39961 0
M  V30 7576 H 718.63 4.96723 4.86098 0
M  V30 7577 H 721.821 3.13627 3.475 0
M  V30 7578 H 721.994 4.52585 4.63757 0
M  V30 7579 N 715.4 -1.26948 0.933913 0
M  V30 7580 C 716.646 -1.94374 0.57848 0
M  V30 7581 C 716.979 -1.73166 -0.879048 0
M  V30 7582 O 716.254 -1.06438 -1.62792 0
M  V30 7583 C 716.537 -3.4834 0.912739 0
M  V30 7584 C 716.39 -3.78866 2.42448 0
M  V30 7585 C 717.709 -4.38062 0.423003 0
M  V30 7586 H 714.828 -0.705959 0.211639 0
M  V30 7587 H 717.47 -1.49951 1.16682 0
M  V30 7588 H 715.62 -3.86309 0.412058 0
M  V30 7589 H 717.292 -3.50654 2.99733 0
M  V30 7590 H 715.535 -3.25198 2.87104 0
M  V30 7591 H 716.206 -4.86458 2.60887 0
M  V30 7592 H 718.682 -4.0728 0.852191 0
M  V30 7593 H 717.558 -5.44599 0.685776 0
M  V30 7594 H 717.819 -4.36886 -0.676994 0
M  V30 7595 N 716.879 -0.700114 -1.41195 0
M  V30 7596 C 718.127 -0.232546 -2.00758 0
M  V30 7597 C 718.448 1.1734 -1.55745 0
M  V30 7598 O 717.718 1.79262 -0.790058 0
M  V30 7599 H 716.298 -0.0829845 -0.742376 0
M  V30 7600 H 718.96 -0.902289 -1.72756 0
M  V30 7601 H 718.056 -0.253521 -3.11069 0
M  V30 7602 N 718.357 1.51182 -0.445186 0
M  V30 7603 C 719.634 1.9478 0.178965 0
M  V30 7604 C 720.014 1.38428 1.59376 0
M  V30 7605 O 719.362 0.574552 2.21159 0
M  V30 7606 C 719.572 3.48683 0.148711 0
M  V30 7607 C 720.92 4.23152 0.35042 0
M  V30 7608 O 721.944 3.55479 0.226474 0
M  V30 7609 O 720.803 5.4322 0.597893 0
M  V30 7610 H 717.897 0.817387 0.12573 0
M  V30 7611 H 720.443 1.62051 -0.503729 0
M  V30 7612 H 719.215 3.82176 -0.84009 0
M  V30 7613 H 718.838 3.87875 0.873979 0
M  V30 7614 N 719.835 0.176821 1.56605 0
M  V30 7615 C 721.063 -0.472828 2.01425 0
M  V30 7616 C 721.478 -1.56436 1.05703 0
M  V30 7617 O 720.835 -1.82405 0.058808 0
M  V30 7618 C 720.886 -1.04607 3.46034 0
M  V30 7619 O 720.607 0.00189608 4.381 0
M  V30 7620 C 722.108 -1.7734 4.06282 0
M  V30 7621 H 719.328 -0.120503 0.660091 0
M  V30 7622 H 721.872 0.280166 2.02572 0
M  V30 7623 H 720.027 -1.74953 3.45645 0
M  V30 7624 H 720.441 -0.422118 5.22799 0
M  V30 7625 H 721.915 -2.12703 5.09374 0
M  V30 7626 H 722.392 -2.67043 3.4869 0
M  V30 7627 H 722.998 -1.11623 4.10391 0
M  V30 7628 N 721.313 -1.57302 -0.09688 0
M  V30 7629 C 722.243 -2.0497 -1.11846 0
M  V30 7630 C 723.224 -0.938278 -1.41882 0
M  V30 7631 O 724.409 -1.20943 -1.51942 0
M  V30 7632 C 721.539 -2.47264 -2.43881 0
M  V30 7633 C 720.493 -3.62053 -2.28257 0
M  V30 7634 C 719.819 -3.90318 -3.65453 0
M  V30 7635 C 721.119 -4.93005 -1.72461 0
M  V30 7636 H 722.813 -2.90567 -0.721888 0
M  V30 7637 H 720.359 -1.39786 -0.345803 0
M  V30 7638 H 722.312 -2.7922 -3.15617 0
M  V30 7639 H 721.036 -1.58664 -2.8547 0
M  V30 7640 H 719.695 -3.30341 -1.58967 0
M  V30 7641 H 719.343 -2.98889 -4.04567 0
M  V30 7642 H 719.043 -4.67597 -3.55846 0
M  V30 7643 H 720.567 -4.24747 -4.3866 0
M  V30 7644 H 721.981 -5.23354 -2.34036 0
M  V30 7645 H 720.378 -5.74436 -1.73618 0
M  V30 7646 H 721.448 -4.80053 -0.683898 0
M  V30 7647 N 722.791 0.367657 -1.53252 0
M  V30 7648 C 723.739 1.47061 -1.8021 0
M  V30 7649 C 724.733 1.55539 -0.671112 0
M  V30 7650 O 725.939 1.58451 -0.854014 0
M  V30 7651 H 722.314 0.489868 -0.570555 0
M  V30 7652 H 724.285 1.21527 -2.72532 0
M  V30 7653 C 723.034 2.83924 -2.00706 0
M  V30 7654 H 722.357 2.78158 -2.87172 0
M  V30 7655 H 723.797 3.60281 -2.23547 0
M  V30 7656 C 722.256 3.27613 -0.785568 0
M  V30 7657 O 722.786 4.01691 0.0267459 0
M  V30 7658 N 720.992 2.84134 -0.609597 0
M  V30 7659 H 720.539 2.24017 -1.27178 0
M  V30 7660 H 720.497 3.13723 0.206281 0
M  V30 7661 N 724.269 1.44576 0.627338 0
M  V30 7662 C 725.199 1.54562 1.75022 0
M  V30 7663 C 726.18 0.398378 1.65369 0
M  V30 7664 O 727.365 0.61899 1.84071 0
M  V30 7665 C 724.495 1.49309 3.13567 0
M  V30 7666 C 723.449 2.62549 3.38012 0
M  V30 7667 C 722.775 2.42348 4.76625 0
M  V30 7668 C 724.075 4.04678 3.30202 0
M  V30 7669 H 725.769 2.4855 1.66922 0
M  V30 7670 H 723.315 1.19624 0.801636 0
M  V30 7671 H 725.268 1.54895 3.919 0
M  V30 7672 H 723.992 0.518392 3.2246 0
M  V30 7673 H 722.651 2.56358 2.62061 0
M  V30 7674 H 722.299 1.43062 4.82226 0
M  V30 7675 H 721.999 3.18273 4.93939 0
M  V30 7676 H 723.523 2.49758 5.57183 0
M  V30 7677 H 724.937 4.12217 3.98435 0
M  V30 7678 H 723.334 4.80836 3.5905 0
M  V30 7679 H 724.404 4.2798 2.27949 0
M  V30 7680 N 725.747 -0.868086 1.31537 0
M  V30 7681 C 726.695 -1.99688 1.1928 0
M  V30 7682 C 727.689 -1.69101 0.100656 0
M  V30 7683 O 728.895 -1.78073 0.262677 0
M  V30 7684 H 725.27 -0.655032 0.369374 0
M  V30 7685 H 727.241 -2.07157 2.14776 0
M  V30 7686 C 725.99 -3.35338 0.918892 0
M  V30 7687 H 725.313 -3.59396 1.75142 0
M  V30 7688 H 726.753 -4.14909 0.873311 0
M  V30 7689 C 725.212 -3.34769 -0.378366 0
M  V30 7690 O 725.742 -3.76716 -1.39456 0
M  V30 7691 N 723.948 -2.87895 -0.39557 0
M  V30 7692 H 723.495 -2.53954 0.431889 0
M  V30 7693 H 723.453 -2.87897 -1.26344 0
M  V30 7694 N 727.225 -1.14528 -1.08264 0
M  V30 7695 C 728.155 -0.856356 -2.1723 0
M  V30 7696 C 729.136 0.189251 -1.69044 0
M  V30 7697 O 730.321 0.0456119 -1.94146 0
M  V30 7698 C 727.451 -0.334662 -3.45684 0
M  V30 7699 C 726.405 -1.31588 -4.0727 0
M  V30 7700 C 725.731 -0.653428 -5.30692 0
M  V30 7701 C 727.031 -2.67866 -4.48381 0
M  V30 7702 H 728.725 -1.76755 -2.41657 0
M  V30 7703 H 726.271 -0.851287 -1.16143 0
M  V30 7704 H 728.224 -0.120128 -4.21229 0
M  V30 7705 H 726.948 0.611967 -3.20815 0
M  V30 7706 H 725.607 -1.51661 -3.33758 0
M  V30 7707 H 725.255 0.299054 -5.0211 0
M  V30 7708 H 724.955 -1.30817 -5.72853 0
M  V30 7709 H 726.479 -0.448453 -6.08951 0
M  V30 7710 H 727.893 -2.51692 -5.15096 0
M  V30 7711 H 726.29 -3.29627 -5.01464 0
M  V30 7712 H 727.36 -3.24632 -3.60198 0
M  V30 7713 N 728.703 1.26451 -0.940633 0
M  V30 7714 C 730.119 1.4608 -0.642859 0
M  V30 7715 C 730.319 1.84765 0.803998 0
M  V30 7716 O 729.375 1.96902 1.58069 0
M  V30 7717 C 730.688 2.54359 -1.60381 0
M  V30 7718 C 732.236 2.6821 -1.61345 0
M  V30 7719 C 732.711 3.79659 -2.56169 0
M  V30 7720 N 734.202 3.87051 -2.54452 0
M  V30 7721 C 734.937 4.72739 -3.24507 0
M  V30 7722 N 734.433 5.6282 -4.03987 0
M  V30 7723 N 736.226 4.66581 -3.13462 0
M  V30 7724 H 728.377 0.996289 -1.87584 0
M  V30 7725 H 730.64 0.498921 -0.80609 0
M  V30 7726 H 730.346 2.32758 -2.6366 0
M  V30 7727 H 730.22 3.52005 -1.35545 0
M  V30 7728 H 732.607 2.89184 -0.587913 0
M  V30 7729 H 732.688 1.7101 -1.90235 0
M  V30 7730 H 732.332 3.59438 -3.58841 0
M  V30 7731 H 732.262 4.76315 -2.2457 0
M  V30 7732 H 734.753 3.22649 -1.96739 0
M  V30 7733 H 735.066 6.25095 -4.54396 0
M  V30 7734 H 733.411 5.62574 -4.08088 0
M  V30 7735 H 736.602 3.9521 -2.50852 0
M  V30 7736 H 736.775 5.33141 -3.68327 0
M  V30 7737 N 730.181 0.707592 1.40822 0
M  V30 7738 C 731.144 0.0587224 2.29125 0
M  V30 7739 C 732.144 -0.695624 1.44975 0
M  V30 7740 O 733.334 -0.528718 1.65983 0
M  V30 7741 C 730.466 -0.926939 3.28056 0
M  V30 7742 H 731.659 0.836349 2.88002 0
M  V30 7743 H 729.212 0.471778 1.4901 0
M  V30 7744 H 729.947 -1.7319 2.74182 0
M  V30 7745 H 729.732 -0.389015 3.90165 0
M  V30 7746 H 731.222 -1.37837 3.94196 0
M  V30 7747 N 731.66 -1.50943 0.453197 0
M  V30 7748 C 732.906 -2.02512 -0.108082 0
M  V30 7749 C 733.239 -1.33574 -1.40967 0
M  V30 7750 O 732.514 -0.455671 -1.89087 0
M  V30 7751 C 732.797 -3.58759 -0.310453 0
M  V30 7752 C 732.65 -4.38293 1.0109 0
M  V30 7753 C 733.969 -4.26816 -1.07313 0
M  V30 7754 H 731.088 -0.73603 -0.0378064 0
M  V30 7755 H 733.73 -1.80433 0.595295 0
M  V30 7756 H 731.88 -3.77702 -0.909582 0
M  V30 7757 H 733.552 -4.30964 1.64523 0
M  V30 7758 H 731.795 -4.02745 1.61179 0
M  V30 7759 H 732.466 -5.45828 0.82315 0
M  V30 7760 H 734.942 -4.1224 -0.565473 0
M  V30 7761 H 733.818 -5.35989 -1.1835 0
M  V30 7762 H 734.079 -3.88757 -2.10525 0
M  V30 7763 N 733.138 -0.185124 -1.56509 0
M  V30 7764 C 734.386 0.455357 -1.96903 0
M  V30 7765 C 734.707 1.62839 -1.07277 0
M  V30 7766 O 733.977 1.95385 -0.141966 0
M  V30 7767 H 732.557 0.171218 -0.727113 0
M  V30 7768 H 735.219 -0.26953 -1.93027 0
M  V30 7769 H 734.315 0.80616 -3.01509 0
M  V30 7770 N 734.616 1.57351 0.0885366 0
M  V30 7771 C 735.841 1.91011 0.80805 0
M  V30 7772 C 736.266 0.780009 1.71165 0
M  V30 7773 O 735.624 -0.268083 1.79307 0
M  V30 7774 C 735.672 3.23562 1.59185 0
M  V30 7775 O 734.776 3.11615 2.7013 0
M  V30 7776 H 734.117 0.625943 0.221565 0
M  V30 7777 H 736.647 2.04507 0.0617954 0
M  V30 7778 H 736.657 3.5703 1.97468 0
M  V30 7779 H 735.332 4.05398 0.928741 0
M  V30 7780 H 733.909 2.89673 2.34827 0
M  V30 7781 N 736.094 -0.359525 1.53444 0
M  V30 7782 C 737.342 -1.09935 1.69584 0
M  V30 7783 C 737.663 -1.89656 0.453371 0
M  V30 7784 O 736.933 -1.8852 -0.53263 0
M  V30 7785 H 735.513 -0.408843 0.625185 0
M  V30 7786 H 738.175 -0.40467 1.90653 0
M  V30 7787 H 737.271 -1.78575 2.55964 0
M  V30 7788 N 737.572 -1.44907 -0.619662 0
M  V30 7789 C 738.535 -1.52282 -1.71297 0
M  V30 7790 C 739.535 -0.40359 -1.55653 0
M  V30 7791 O 740.725 -0.666638 -1.6094 0
M  V30 7792 C 737.857 -1.40778 -3.10474 0
M  V30 7793 H 739.05 -2.49683 -1.66128 0
M  V30 7794 H 736.603 -1.32168 -0.834339 0
M  V30 7795 H 737.338 -0.445156 -3.2123 0
M  V30 7796 H 737.123 -2.21947 -3.23237 0
M  V30 7797 H 738.613 -1.48946 -3.90135 0
M  V30 7798 N 739.05 0.861098 -1.31996 0
M  V30 7799 C 740.278 1.6474 -1.25173 0
M  V30 7800 C 740.693 1.87926 0.181425 0
M  V30 7801 O 740.05 1.4437 1.1164 0
M  V30 7802 C 740.101 3.01036 -2.0015 0
M  V30 7803 O 739.822 2.7888 -3.37872 0
M  V30 7804 C 741.323 3.95481 -2.00273 0
M  V30 7805 H 738.543 0.513314 -0.432146 0
M  V30 7806 H 741.087 1.07419 -1.74016 0
M  V30 7807 H 739.242 3.55021 -1.55046 0
M  V30 7808 H 739.656 3.65514 -3.76165 0
M  V30 7809 H 741.13 4.88403 -2.57229 0
M  V30 7810 H 741.607 4.27957 -0.987407 0
M  V30 7811 H 742.213 3.47433 -2.45296 0
M  V30 7812 N 740.528 1.15101 1.07655 0
M  V30 7813 C 741.775 0.923974 1.80191 0
M  V30 7814 C 742.103 -0.549065 1.86589 0
M  V30 7815 O 741.358 -1.42307 1.3434 0
M  V30 7816 C 741.657 1.47954 3.25337 0
M  V30 7817 C 741.323 2.97253 3.39044 0
M  V30 7818 C 739.985 3.38012 3.42493 0
M  V30 7819 C 742.337 3.93219 3.42094 0
M  V30 7820 C 739.665 4.73384 3.4659 0
M  V30 7821 C 742.017 5.28458 3.47728 0
M  V30 7822 C 740.681 5.68717 3.49453 0
M  V30 7823 H 739.951 0.338106 0.659367 0
M  V30 7824 H 742.598 1.43594 1.26701 0
M  V30 7825 H 740.903 0.888691 3.81588 0
M  V30 7826 H 742.6 1.27972 3.80032 0
M  V30 7827 H 739.19 2.64746 3.37057 0
M  V30 7828 H 743.374 3.62805 3.38654 0
M  V30 7829 H 738.63 5.03925 3.46222 0
M  V30 7830 H 742.804 6.02618 3.49034 0
M  V30 7831 H 740.431 6.73596 3.5238 0
M  V30 7832 N 742.006 -1.2595 0.947325 0
M  V30 7833 C 743.231 -1.98083 0.614633 0
M  V30 7834 C 743.656 -1.70013 -0.804815 0
M  V30 7835 O 743.014 -0.95175 -1.54309 0
M  V30 7836 C 743.062 -3.4993 0.870706 0
M  V30 7837 O 742.166 -4.12364 -0.0541451 0
M  V30 7838 H 741.507 -0.621232 0.234451 0
M  V30 7839 H 744.037 -1.60259 1.27193 0
M  V30 7840 H 744.047 -4.00198 0.794051 0
M  V30 7841 H 742.722 -3.69691 1.90529 0
M  V30 7842 H 741.299 -3.72826 0.0740917 0
M  V30 7843 N 743.484 -0.715051 -1.40445 0
M  V30 7844 C 744.434 -0.038591 -2.27967 0
M  V30 7845 C 745.418 0.733099 -1.43229 0
M  V30 7846 O 746.61 0.605388 -1.66325 0
M  V30 7847 C 743.739 0.882801 -3.31755 0
M  V30 7848 C 742.825 0.106325 -4.23967 0
M  V30 7849 N 743.216 -0.910143 -4.97544 0
M  V30 7850 C 741.514 0.33896 -4.4471 0
M  V30 7851 C 742.215 -1.37665 -5.65175 0
M  V30 7852 N 741.191 -0.698905 -5.39088 0
M  V30 7853 H 744.993 -0.81765 -2.82297 0
M  V30 7854 H 742.507 -0.547591 -1.5289 0
M  V30 7855 H 744.504 1.38273 -3.93302 0
M  V30 7856 H 743.164 1.66124 -2.78985 0
M  V30 7857 H 744.175 -1.29097 -5.01552 0
M  V30 7858 H 740.852 1.09377 -4.02918 0
M  V30 7859 H 742.242 -2.22122 -6.34123 0
M  V30 7860 N 744.962 1.50701 -0.461195 0
M  V30 7861 C 746.192 2.06381 0.0950376 0
M  V30 7862 C 746.6 1.32627 1.34933 0
M  V30 7863 O 745.943 0.386137 1.79596 0
M  V30 7864 C 746.005 3.56558 0.458965 0
M  V30 7865 C 745.669 4.51732 -0.691891 0
M  V30 7866 C 746.666 4.95594 -1.57105 0
M  V30 7867 C 744.351 4.94542 -0.879407 0
M  V30 7868 C 746.345 5.80963 -2.62223 0
M  V30 7869 C 744.032 5.79695 -1.93382 0
M  V30 7870 C 745.03 6.22806 -2.80359 0
M  V30 7871 O 744.718 7.06265 -3.83986 0
M  V30 7872 H 744.45 0.676 0.000687488 0
M  V30 7873 H 747.004 1.94974 -0.646087 0
M  V30 7874 H 745.234 3.65832 1.25314 0
M  V30 7875 H 746.923 3.94647 0.949124 0
M  V30 7876 H 747.689 4.63197 -1.43783 0
M  V30 7877 H 743.568 4.60513 -0.211907 0
M  V30 7878 H 747.112 6.14533 -3.30143 0
M  V30 7879 H 743.009 6.11506 -2.06715 0
M  V30 7880 H 743.777 7.24494 -3.80855 0
M  V30 7881 N 746.441 0.193421 1.56409 0
M  V30 7882 C 747.671 -0.450783 2.01622 0
M  V30 7883 C 748.079 -1.5585 1.07273 0
M  V30 7884 O 747.422 -1.83569 0.0694875 0
M  V30 7885 C 747.484 -1.06913 3.43235 0
M  V30 7886 C 747.148 -0.100352 4.5689 0
M  V30 7887 C 748.145 0.689633 5.15306 0
M  V30 7888 C 745.83 0.0102436 5.02299 0
M  V30 7889 C 747.824 1.5772 6.17579 0
M  V30 7890 C 745.511 0.901368 6.04416 0
M  V30 7891 C 746.509 1.68341 6.61929 0
M  V30 7892 O 746.197 2.5596 7.62063 0
M  V30 7893 H 745.929 -0.117671 0.66568 0
M  V30 7894 H 748.483 0.2989 2.03214 0
M  V30 7895 H 746.713 -1.86736 3.38624 0
M  V30 7896 H 748.402 -1.61781 3.72266 0
M  V30 7897 H 749.168 0.614485 4.81092 0
M  V30 7898 H 745.047 -0.58829 4.57231 0
M  V30 7899 H 748.591 2.18805 6.62397 0
M  V30 7900 H 744.488 0.977637 6.38054 0
M  V30 7901 H 745.256 2.49721 7.79475 0
M  V30 7902 N 747.919 -1.57396 -0.0801906 0
M  V30 7903 C 749.149 -1.90778 -0.792924 0
M  V30 7904 C 749.557 -0.786814 -1.72064 0
M  V30 7905 O 748.9 0.249259 -1.82001 0
M  V30 7906 C 748.962 -3.19552 -1.64702 0
M  V30 7907 C 748.626 -4.48259 -0.889567 0
M  V30 7908 C 749.623 -5.19465 -0.212602 0
M  V30 7909 C 747.308 -4.94896 -0.859229 0
M  V30 7910 C 749.302 -6.35555 0.484566 0
M  V30 7911 C 746.989 -6.10895 -0.158284 0
M  V30 7912 C 747.987 -6.81075 0.512421 0
M  V30 7913 O 747.675 -7.94862 1.20209 0
M  V30 7914 H 747.407 -0.63527 -0.231103 0
M  V30 7915 H 749.961 -2.0532 -0.0573081 0
M  V30 7916 H 748.191 -3.01196 -2.42524 0
M  V30 7917 H 749.88 -3.38649 -2.23767 0
M  V30 7918 H 750.646 -4.84467 -0.227403 0
M  V30 7919 H 746.525 -4.4015 -1.37073 0
M  V30 7920 H 750.069 -6.9027 1.00864 0
M  V30 7921 H 745.966 -6.45345 -0.141381 0
M  V30 7922 H 746.734 -8.10932 1.11051 0
M  V30 7923 N 749.397 0.351382 -1.53633 0
M  V30 7924 C 750.33 1.45407 -1.75875 0
M  V30 7925 C 751.308 1.50822 -0.607566 0
M  V30 7926 O 752.492 1.68658 -0.841818 0
M  V30 7927 C 749.619 2.8369 -1.85034 0
M  V30 7928 C 748.665 2.95935 -3.07123 0
M  V30 7929 S 749.498 2.63215 -4.66345 0
M  V30 7930 C 750.654 4.03622 -4.78373 0
M  V30 7931 H 750.887 1.26322 -2.69128 0
M  V30 7932 H 748.42 0.546581 -1.44402 0
M  V30 7933 H 750.378 3.6336 -1.90996 0
M  V30 7934 H 749.039 3.00076 -0.928074 0
M  V30 7935 H 748.232 3.97243 -3.10183 0
M  V30 7936 H 747.834 2.24205 -2.99346 0
M  V30 7937 H 750.126 4.98046 -4.593 0
M  V30 7938 H 751.069 4.05559 -5.80454 0
M  V30 7939 H 751.477 3.91282 -4.06889 0
M  V30 7940 N 750.875 1.45233 0.611969 0
M  V30 7941 C 752.124 1.48296 1.36716 0
M  V30 7942 C 752.437 0.12706 1.95187 0
M  V30 7943 O 753.643 0.0353066 2.71477 0
M  V30 7944 C 752.099 2.61168 2.47627 0
M  V30 7945 C 751.707 4.03051 1.95587 0
M  V30 7946 C 753.451 2.73472 3.24674 0
M  V30 7947 C 751.358 5.07312 3.03954 0
M  V30 7948 H 750.288 0.5518 0.513841 0
M  V30 7949 H 752.939 1.7136 0.656359 0
M  V30 7950 H 751.321 2.31379 3.21372 0
M  V30 7951 H 752.495 4.42497 1.2858 0
M  V30 7952 H 750.81 3.95158 1.31298 0
M  V30 7953 H 753.407 3.48537 4.05494 0
M  V30 7954 H 753.75 1.79953 3.75397 0
M  V30 7955 H 754.283 3.02765 2.58028 0
M  V30 7956 H 751.022 6.02525 2.58154 0
M  V30 7957 H 750.542 4.7244 3.69541 0
M  V30 7958 H 752.221 5.31867 3.6841 0
M  V30 7959 N 752.353 -0.854086 1.3245 0
M  V30 7960 C 753.283 -1.97827 1.24044 0
M  V30 7961 C 754.264 -1.69646 0.124166 0
M  V30 7962 O 755.449 -1.91687 0.31143 0
M  V30 7963 C 752.579 -3.33673 0.963324 0
M  V30 7964 C 751.533 -3.76207 2.04089 0
M  V30 7965 C 750.859 -5.0969 1.61618 0
M  V30 7966 C 752.159 -3.91612 3.45597 0
M  V30 7967 H 753.853 -2.05118 2.18099 0
M  V30 7968 H 751.399 -0.985489 1.04996 0
M  V30 7969 H 753.352 -4.11871 0.891061 0
M  V30 7970 H 752.076 -3.26597 -0.0128649 0
M  V30 7971 H 750.735 -3.0026 2.10332 0
M  V30 7972 H 750.383 -4.99072 0.627418 0
M  V30 7973 H 750.083 -5.3912 2.33717 0
M  V30 7974 H 751.607 -5.90381 1.55829 0
M  V30 7975 H 753.021 -4.60163 3.4194 0
M  V30 7976 H 751.418 -4.3246 4.16051 0
M  V30 7977 H 752.488 -2.9451 3.85217 0
M  V30 7978 N 753.831 -1.1567 -1.07043 0
M  V30 7979 C 755.056 -0.957946 -1.83952 0
M  V30 7980 C 755.481 0.488807 -1.81638 0
M  V30 7981 O 754.839 1.34869 -1.21162 0
M  V30 7982 C 754.887 -1.48064 -3.288 0
M  V30 7983 O 753.991 -0.681921 -4.06723 0
M  V30 7984 H 753.332 -0.341453 -0.569479 0
M  V30 7985 H 755.862 -1.53728 -1.35015 0
M  V30 7986 H 755.872 -1.49484 -3.7963 0
M  V30 7987 H 754.547 -2.53388 -3.29799 0
M  V30 7988 H 753.124 -0.737612 -3.65532 0
M  V30 7989 N 755.309 1.25446 -0.953992 0
M  V30 7990 C 756.725 1.4539 -0.658316 0
M  V30 7991 C 756.925 1.85607 0.784356 0
M  V30 7992 O 755.981 1.98568 1.55972 0
M  V30 7993 C 757.294 2.52643 -1.6307 0
M  V30 7994 C 758.842 2.66484 -1.64181 0
M  V30 7995 C 759.317 3.76921 -2.60182 0
M  V30 7996 N 760.808 3.84331 -2.58542 0
M  V30 7997 C 761.543 4.69271 -3.29503 0
M  V30 7998 N 761.039 5.58503 -4.09934 0
M  V30 7999 N 762.832 4.6323 -3.18393 0
M  V30 8000 H 754.983 0.976337 -1.8863 0
M  V30 8001 H 757.246 0.490343 -0.811337 0
M  V30 8002 H 756.952 2.29949 -2.66114 0
M  V30 8003 H 756.826 3.50547 -1.39271 0
M  V30 8004 H 759.213 2.88545 -0.618552 0
M  V30 8005 H 759.294 1.68982 -1.92038 0
M  V30 8006 H 758.938 3.55612 -3.62633 0
M  V30 8007 H 758.868 4.73906 -2.29609 0
M  V30 8008 H 761.359 3.20544 -2.0015 0
M  V30 8009 H 761.672 6.20241 -4.61 0
M  V30 8010 H 760.017 5.58214 -4.14032 0
M  V30 8011 H 763.208 3.92527 -2.5503 0
M  V30 8012 H 763.381 5.29204 -3.73961 0
M  V30 8013 N 756.787 0.722489 1.40064 0
M  V30 8014 C 758.035 0.264455 2.00362 0
M  V30 8015 C 758.356 -1.14847 1.57592 0
M  V30 8016 O 757.626 -1.77982 0.818477 0
M  V30 8017 H 756.206 0.0947846 0.740962 0
M  V30 8018 H 758.868 0.929659 1.71299 0
M  V30 8019 H 757.964 0.302977 3.10626 0
M  V30 8020 N 758.265 -1.50454 0.469181 0
M  V30 8021 C 759.197 -2.26319 -0.362247 0
M  V30 8022 C 760.21 -1.31574 -0.958751 0
M  V30 8023 O 761.399 -1.57099 -0.847482 0
M  V30 8024 C 758.499 -3.02808 -1.52187 0
M  V30 8025 C 757.672 -4.24893 -1.03849 0
M  V30 8026 C 756.731 -4.83691 -2.07194 0
M  V30 8027 O 755.757 -5.44659 -1.65333 0
M  V30 8028 N 756.959 -4.70522 -3.39985 0
M  V30 8029 H 759.724 -2.98312 0.288124 0
M  V30 8030 H 757.285 -1.59099 0.299856 0
M  V30 8031 H 759.277 -3.39023 -2.21011 0
M  V30 8032 H 757.847 -2.33625 -2.07697 0
M  V30 8033 H 757.067 -3.93806 -0.176203 0
M  V30 8034 H 758.355 -5.04053 -0.693435 0
M  V30 8035 H 757.753 -4.2203 -3.76706 0
M  V30 8036 H 756.31 -5.11011 -4.04612 0
M  V30 8037 N 759.743 -0.201713 -1.56304 0
M  V30 8038 C 760.992 0.435557 -1.96941 0
M  V30 8039 C 761.305 1.62299 -1.09172 0
M  V30 8040 O 762.511 2.32849 -1.3962 0
M  V30 8041 C 760.967 0.826298 -3.50286 0
M  V30 8042 C 760.575 -0.337216 -4.46729 0
M  V30 8043 C 762.319 1.43028 -3.99679 0
M  V30 8044 C 760.226 0.0748539 -5.91353 0
M  V30 8045 H 759.156 0.1665 -0.735387 0
M  V30 8046 H 761.807 -0.294781 -1.81117 0
M  V30 8047 H 760.189 1.61349 -3.61639 0
M  V30 8048 H 761.363 -1.11476 -4.47113 0
M  V30 8049 H 759.678 -0.853126 -4.07567 0
M  V30 8050 H 762.275 1.75115 -5.05212 0
M  V30 8051 H 762.618 2.33911 -3.44371 0
M  V30 8052 H 763.151 0.706924 -3.91468 0
M  V30 8053 H 759.89 -0.799957 -6.506 0
M  V30 8054 H 759.41 0.817122 -5.94208 0
M  V30 8055 H 761.089 0.508389 -6.45 0
M  V30 8056 N 761.222 1.57436 0.0718424 0
M  V30 8057 C 762.468 1.87525 0.772149 0
M  V30 8058 C 762.801 0.79399 1.77227 0
M  V30 8059 O 762.076 -0.195733 1.93513 0
M  V30 8060 C 762.359 3.28272 1.48018 0
M  V30 8061 C 762.212 4.47052 0.49647 0
M  V30 8062 C 763.531 3.67256 2.42509 0
M  V30 8063 H 760.65 0.682049 0.279245 0
M  V30 8064 H 763.292 1.89967 0.03534 0
M  V30 8065 H 761.442 3.26321 2.10824 0
M  V30 8066 H 763.114 4.61127 -0.126375 0
M  V30 8067 H 761.357 4.33392 -0.188205 0
M  V30 8068 H 762.028 5.42315 1.02949 0
M  V30 8069 H 764.504 3.70301 1.89781 0
M  V30 8070 H 763.38 4.66626 2.89053 0
M  V30 8071 H 763.641 2.97186 3.27312 0
M  V30 8072 N 762.7 -0.34323 1.53817 0
M  V30 8073 C 763.947 -1.08344 1.71079 0
M  V30 8074 C 764.275 -1.88633 0.474133 0
M  V30 8075 O 763.53 -1.87984 -0.544116 0
M  V30 8076 C 763.829 -2.05195 2.92626 0
M  V30 8077 C 763.495 -1.41215 4.28216 0
M  V30 8078 C 762.157 -1.23495 4.65083 0
M  V30 8079 C 764.509 -0.951273 5.12445 0
M  V30 8080 C 761.837 -0.583065 5.83796 0
M  V30 8081 C 764.189 -0.313292 6.31824 0
M  V30 8082 C 762.853 -0.123779 6.67385 0
M  V30 8083 H 762.123 -0.396458 0.626021 0
M  V30 8084 H 764.77 -0.362689 1.88034 0
M  V30 8085 H 763.075 -2.83653 2.70275 0
M  V30 8086 H 764.772 -2.62462 3.03175 0
M  V30 8087 H 761.362 -1.56005 3.992 0
M  V30 8088 H 765.546 -1.07602 4.84495 0
M  V30 8089 H 760.802 -0.424854 6.09922 0
M  V30 8090 H 764.976 0.0519179 6.96381 0
M  V30 8091 H 762.603 0.383398 7.59233 0
M  V30 8092 N 764.178 -1.45556 -0.604258 0
M  V30 8093 C 765.111 -1.48975 -1.72863 0
M  V30 8094 C 766.089 -0.345803 -1.5888 0
M  V30 8095 O 767.273 -0.546796 -1.80395 0
M  V30 8096 C 764.4 -1.34794 -3.10722 0
M  V30 8097 C 763.446 -2.53096 -3.43285 0
M  V30 8098 S 764.279 -4.15551 -3.37754 0
M  V30 8099 C 765.435 -4.03842 -4.78187 0
M  V30 8100 H 765.668 -2.44108 -1.69701 0
M  V30 8101 H 763.201 -1.33179 -0.781194 0
M  V30 8102 H 765.159 -1.273 -3.90263 0
M  V30 8103 H 763.82 -0.411254 -3.11396 0
M  V30 8104 H 763.013 -2.39109 -4.4367 0
M  V30 8105 H 762.615 -2.57469 -2.71267 0
M  V30 8106 H 764.907 -3.69191 -5.6807 0
M  V30 8107 H 765.85 -5.0415 -4.97231 0
M  V30 8108 H 766.258 -3.35443 -4.54025 0
M  V30 8109 N 765.656 0.84705 -1.32902 0
M  V30 8110 C 766.604 1.97765 -1.22441 0
M  V30 8111 C 767.598 1.68919 -0.127546 0
M  V30 8112 O 768.804 1.77633 -0.290973 0
M  V30 8113 H 765.179 0.649072 -0.379748 0
M  V30 8114 H 767.15 2.03713 -2.18044 0
M  V30 8115 C 765.899 3.33834 -0.972125 0
M  V30 8116 H 765.222 3.56564 -1.80837 0
M  V30 8117 H 766.662 4.13467 -0.939209 0
M  V30 8118 C 765.121 3.35328 0.325059 0
M  V30 8119 O 765.651 3.78887 1.33445 0
M  V30 8120 N 763.857 2.88488 0.349718 0
M  V30 8121 H 763.404 2.53234 -0.472236 0
M  V30 8122 H 763.362 2.8987 1.21748 0
M  V30 8123 N 767.134 1.16236 1.06428 0
M  V30 8124 C 768.55 0.906983 1.31324 0
M  V30 8125 C 768.75 -0.440872 1.96618 0
M  V30 8126 O 767.806 -1.1807 2.23194 0
M  V30 8127 C 769.119 2.05501 2.19522 0
M  V30 8128 C 770.667 2.09061 2.32943 0
M  V30 8129 C 771.142 3.23214 3.24495 0
M  V30 8130 N 772.633 3.22922 3.32078 0
M  V30 8131 C 773.368 4.07889 4.03006 0
M  V30 8132 N 772.864 5.02941 4.76469 0
M  V30 8133 N 774.657 3.95881 3.99043 0
M  V30 8134 H 766.808 2.03015 0.624388 0
M  V30 8135 H 769.071 0.88576 0.337835 0
M  V30 8136 H 768.777 3.02847 1.78819 0
M  V30 8137 H 768.651 1.99538 3.201 0
M  V30 8138 H 771.038 1.12308 2.72893 0
M  V30 8139 H 771.119 2.19089 1.32037 0
M  V30 8140 H 770.763 4.20225 2.85261 0
M  V30 8141 H 770.693 3.10423 4.25377 0
M  V30 8142 H 773.184 2.54093 2.79724 0
M  V30 8143 H 773.497 5.64196 5.28112 0
M  V30 8144 H 771.842 5.06922 4.75453 0
M  V30 8145 H 775.033 3.20927 3.40769 0
M  V30 8146 H 775.206 4.62321 4.54052 0
M  V30 8147 N 768.612 -1.24939 0.960631 0
M  V30 8148 C 769.522 -2.29374 0.492435 0
M  V30 8149 C 770.538 -1.68262 -0.443154 0
M  V30 8150 O 771.714 -1.98875 -0.31793 0
M  V30 8151 C 768.779 -3.46023 -0.216626 0
M  V30 8152 C 767.84 -4.22557 0.757915 0
M  V30 8153 C 767.073 -5.33636 0.0825969 0
M  V30 8154 O 767.296 -5.59084 -1.13054 0
M  V30 8155 O 766.23 -5.96939 0.771177 0
M  V30 8156 H 770.056 -2.71525 1.36044 0
M  V30 8157 H 767.641 -1.30499 0.72735 0
M  V30 8158 H 769.523 -4.16885 -0.615241 0
M  V30 8159 H 768.198 -3.05862 -1.05971 0
M  V30 8160 H 767.105 -3.54099 1.20685 0
M  V30 8161 H 768.438 -4.66516 1.5692 0
M  V30 8162 N 770.09 -0.729906 -1.39679 0
M  V30 8163 C 771.501 -0.346241 -1.83461 0
M  V30 8164 C 771.852 1.1215 -1.60987 0
M  V30 8165 O 770.977 1.86456 -1.09832 0
M  V30 8166 C 771.572 -0.621656 -3.33048 0
M  V30 8167 C 770.131 -0.291543 -3.75269 0
M  V30 8168 C 769.278 -0.886844 -2.62736 0
M  V30 8169 H 772.229 -0.927949 -1.28743 0
M  V30 8170 H 772.25 0.108301 -3.80346 0
M  V30 8171 H 771.762 -1.68996 -3.49373 0
M  V30 8172 H 769.863 0.771133 -3.64533 0
M  V30 8173 H 769.976 -0.770544 -4.72863 0
M  V30 8174 H 768.34 -0.313839 -2.52759 0
M  V30 8175 H 769.123 -1.95971 -2.81869 0
M  V30 8176 N 771.568 1.50203 -0.477153 0
M  V30 8177 C 772.515 2.28656 0.31386 0
M  V30 8178 C 773.485 1.33977 0.981802 0
M  V30 8179 O 774.67 1.62919 0.993072 0
M  V30 8180 C 771.81 3.16027 1.38639 0
M  V30 8181 C 770.923 4.25743 0.732615 0
M  V30 8182 C 770.058 5.00363 1.78355 0
M  V30 8183 C 769.097 6.01945 1.11035 0
M  V30 8184 N 768.234 6.6982 2.10441 0
M  V30 8185 H 773.074 2.958 -0.361445 0
M  V30 8186 H 770.611 1.45867 -0.190093 0
M  V30 8187 H 772.569 3.6504 2.01994 0
M  V30 8188 H 771.199 2.50917 2.03077 0
M  V30 8189 H 770.251 3.80398 -0.0136546 0
M  V30 8190 H 771.563 4.98393 0.201513 0
M  V30 8191 H 770.717 5.53124 2.49276 0
M  V30 8192 H 769.456 4.27432 2.34847 0
M  V30 8193 H 768.461 5.48438 0.386797 0
M  V30 8194 H 769.686 6.76851 0.552248 0
M  V30 8195 H 767.632 5.99677 2.65939 0
M  V30 8196 H 767.549 7.38366 1.62332 0
M  V30 8197 H 768.817 7.27196 2.80724 0
M  V30 8198 N 773.046 0.209999 1.56195 0
M  V30 8199 C 774.462 -0.145598 1.58934 0
M  V30 8200 C 774.662 -1.59868 1.22656 0
M  V30 8201 O 773.718 -2.33689 0.956336 0
M  V30 8202 C 775.031 0.170243 3.00218 0
M  V30 8203 C 776.579 0.111548 3.12801 0
M  V30 8204 C 777.054 0.400904 4.56242 0
M  V30 8205 N 778.545 0.350058 4.61875 0
M  V30 8206 C 779.28 0.547598 5.70779 0
M  V30 8207 N 778.776 0.806291 6.88092 0
M  V30 8208 N 780.569 0.480827 5.6004 0
M  V30 8209 H 772.72 1.15804 1.78054 0
M  V30 8210 H 774.983 0.463326 0.827063 0
M  V30 8211 H 774.689 1.17833 3.31373 0
M  V30 8212 H 774.563 -0.520208 3.73596 0
M  V30 8213 H 776.95 -0.887162 2.81449 0
M  V30 8214 H 777.031 0.835302 2.41777 0
M  V30 8215 H 776.675 1.397 4.8831 0
M  V30 8216 H 776.605 -0.34391 5.25476 0
M  V30 8217 H 779.096 0.157334 3.77572 0
M  V30 8218 H 779.409 0.945433 7.66995 0
M  V30 8219 H 777.754 0.843355 6.89864 0
M  V30 8220 H 780.945 0.279037 4.67268 0
M  V30 8221 H 781.118 0.638189 6.4485 0
M  V30 8222 N 774.524 -1.57472 -0.0634922 0
M  V30 8223 C 775.752 -1.91887 -0.773767 0
M  V30 8224 C 776.167 -0.806733 -1.70696 0
M  V30 8225 O 775.524 0.219383 -1.81177 0
M  V30 8226 C 775.575 -3.26092 -1.56034 0
M  V30 8227 O 775.296 -4.33029 -0.66464 0
M  V30 8228 C 776.797 -3.74573 -2.37087 0
M  V30 8229 H 774.017 -0.634074 -0.219525 0
M  V30 8230 H 776.561 -2.04476 -0.0312828 0
M  V30 8231 H 774.716 -3.15004 -2.25502 0
M  V30 8232 H 775.13 -5.10291 -1.21258 0
M  V30 8233 H 776.604 -4.71084 -2.87722 0
M  V30 8234 H 777.081 -3.04003 -3.16984 0
M  V30 8235 H 777.687 -3.88631 -1.72759 0
M  V30 8236 N 776.003 0.335068 -1.53997 0
M  V30 8237 C 776.933 1.41727 -1.85568 0
M  V30 8238 C 777.914 1.54505 -0.7115 0
M  V30 8239 O 779.099 1.68573 -0.964191 0
M  V30 8240 C 776.229 2.7866 -2.07282 0
M  V30 8241 C 775.183 2.80682 -3.23112 0
M  V30 8242 C 774.509 4.20581 -3.30175 0
M  V30 8243 C 775.809 2.45458 -4.61029 0
M  V30 8244 H 777.503 1.15555 -2.76202 0
M  V30 8245 H 775.049 0.554445 -1.32898 0
M  V30 8246 H 777.002 3.54423 -2.27952 0
M  V30 8247 H 775.726 3.06286 -1.13387 0
M  V30 8248 H 774.385 2.07373 -3.02311 0
M  V30 8249 H 774.033 4.4533 -2.33859 0
M  V30 8250 H 773.733 4.22843 -4.08016 0
M  V30 8251 H 775.257 4.98174 -3.53066 0
M  V30 8252 H 776.671 3.10934 -4.81656 0
M  V30 8253 H 775.068 2.5899 -5.41336 0
M  V30 8254 H 776.138 1.40628 -4.6406 0
M  V30 8255 N 777.481 1.45874 0.596531 0
M  V30 8256 C 778.709 1.54013 1.38158 0
M  V30 8257 C 779.124 0.17648 1.87973 0
M  V30 8258 O 778.481 -0.823895 1.62844 0
M  V30 8259 C 778.532 2.53363 2.57855 0
M  V30 8260 O 778.253 3.8443 2.10108 0
M  V30 8261 C 779.754 2.71308 3.50581 0
M  V30 8262 H 776.974 0.521251 0.422538 0
M  V30 8263 H 779.518 1.9116 0.726493 0
M  V30 8264 H 777.673 2.19257 3.19382 0
M  V30 8265 H 778.087 4.38384 2.87958 0
M  V30 8266 H 779.561 3.44776 4.31084 0
M  V30 8267 H 780.038 1.77728 4.01633 0
M  V30 8268 H 780.644 3.06455 2.94899 0
M  V30 8269 N 778.959 -0.83999 1.33349 0
M  V30 8270 C 780.184 -1.63249 1.27924 0
M  V30 8271 C 780.609 -1.87523 -0.147193 0
M  V30 8272 O 779.967 -1.43853 -1.10345 0
M  V30 8273 C 780.015 -2.96046 2.05886 0
M  V30 8274 O 779.119 -3.87303 1.4167 0
M  V30 8275 H 778.46 -0.49715 0.440157 0
M  V30 8276 H 780.99 -1.04512 1.75893 0
M  V30 8277 H 781 -3.45752 2.16609 0
M  V30 8278 H 779.675 -2.77701 3.09605 0
M  V30 8279 H 778.252 -3.45789 1.39585 0
M  V30 8280 N 780.437 -1.16799 -1.0581 0
M  V30 8281 C 781.683 -0.953935 -1.78963 0
M  V30 8282 C 782.016 0.516638 -1.87202 0
M  V30 8283 O 781.291 1.38338 -1.36721 0
M  V30 8284 C 781.574 -1.58808 -3.23191 0
M  V30 8285 C 781.427 -3.13032 -3.23003 0
M  V30 8286 C 782.746 -1.2868 -4.20867 0
M  V30 8287 H 779.865 -0.347972 -0.64968 0
M  V30 8288 H 782.507 -1.44204 -1.23715 0
M  V30 8289 H 780.657 -1.17303 -3.70368 0
M  V30 8290 H 782.329 -3.63553 -2.83949 0
M  V30 8291 H 780.572 -3.46108 -2.61518 0
M  V30 8292 H 781.243 -3.52527 -4.24769 0
M  V30 8293 H 783.719 -1.6461 -3.82155 0
M  V30 8294 H 782.595 -1.75645 -5.20038 0
M  V30 8295 H 782.856 -0.206491 -4.41618 0
M  V30 8296 N 781.915 1.24427 -0.967243 0
M  V30 8297 C 783.14 1.9708 -0.646069 0
M  V30 8298 C 783.565 1.71272 0.777665 0
M  V30 8299 O 782.923 0.976179 1.52776 0
M  V30 8300 C 782.971 3.48501 -0.926266 0
M  V30 8301 O 782.075 4.12398 -0.0114653 0
M  V30 8302 H 781.416 0.617423 -0.244304 0
M  V30 8303 H 783.946 1.58215 -1.29727 0
M  V30 8304 H 783.956 3.98885 -0.857619 0
M  V30 8305 H 782.631 3.66613 -1.96386 0
M  V30 8306 H 781.208 3.72661 -0.133396 0
M  V30 8307 N 783.393 0.737304 1.3929 0
M  V30 8308 C 784.639 0.286681 2.00763 0
M  V30 8309 C 784.972 -1.12388 1.58375 0
M  V30 8310 O 784.247 -1.76661 0.813699 0
M  V30 8311 C 784.53 0.391147 3.57969 0
M  V30 8312 C 784.383 1.84165 4.1037 0
M  V30 8313 C 785.702 -0.225072 4.39524 0
M  V30 8314 H 782.821 0.105642 0.729389 0
M  V30 8315 H 785.463 0.933892 1.65464 0
M  V30 8316 H 783.613 -0.159875 3.88171 0
M  V30 8317 H 785.285 2.44972 3.90879 0
M  V30 8318 H 783.528 2.3622 3.63844 0
M  V30 8319 H 784.199 1.866 5.19504 0
M  V30 8320 H 786.675 0.244677 4.1538 0
M  V30 8321 H 785.551 -0.121646 5.48765 0
M  V30 8322 H 785.812 -1.31141 4.22202 0
M  V30 8323 N 784.871 -1.49948 0.485112 0
M  V30 8324 C 786.118 -2.02396 -0.0650059 0
M  V30 8325 C 786.446 -1.36606 -1.38452 0
M  V30 8326 O 785.701 -0.485476 -1.89583 0
M  V30 8327 C 786 -3.56282 -0.282434 0
M  V30 8328 C 785.666 -4.40625 0.957106 0
M  V30 8329 C 784.328 -4.63393 1.29692 0
M  V30 8330 C 786.68 -4.89799 1.78176 0
M  V30 8331 C 784.008 -5.3258 2.4612 0
M  V30 8332 C 786.36 -5.60266 2.93743 0
M  V30 8333 C 785.024 -5.81284 3.28124 0
M  V30 8334 H 784.294 -0.740618 -0.0237873 0
M  V30 8335 H 786.941 -1.80416 0.642044 0
M  V30 8336 H 785.246 -3.76853 -1.07186 0
M  V30 8337 H 786.943 -3.94442 -0.722276 0
M  V30 8338 H 783.533 -4.23133 0.682384 0
M  V30 8339 H 787.717 -4.7205 1.53239 0
M  V30 8340 H 782.973 -5.47059 2.73014 0
M  V30 8341 H 787.147 -5.97347 3.5798 0
M  V30 8342 H 784.774 -6.34671 4.18446 0
M  V30 8343 N 786.349 -0.21828 -1.56081 0
M  V30 8344 C 787.595 0.414921 -1.9851 0
M  V30 8345 C 787.928 1.59648 -1.10573 0
M  V30 8346 O 787.203 1.93818 -0.162695 0
M  V30 8347 C 787.486 0.852647 -3.4986 0
M  V30 8348 C 787.339 -0.33232 -4.48571 0
M  V30 8349 C 788.658 1.70998 -4.05521 0
M  V30 8350 H 785.777 0.149344 -0.72171 0
M  V30 8351 H 788.419 -0.313858 -1.8739 0
M  V30 8352 H 786.569 1.47362 -3.59467 0
M  V30 8353 H 788.241 -0.970418 -4.50977 0
M  V30 8354 H 786.484 -0.980302 -4.22578 0
M  V30 8355 H 787.155 0.0168407 -5.51997 0
M  V30 8356 H 789.631 1.18606 -3.98838 0
M  V30 8357 H 788.507 1.98517 -5.11744 0
M  V30 8358 H 788.768 2.67219 -3.52202 0
M  V30 8359 N 787.827 1.57504 0.0551401 0
M  V30 8360 C 789.104 1.79155 0.785048 0
M  V30 8361 C 789.484 0.809995 1.94942 0
M  V30 8362 O 788.832 -0.153432 2.27984 0
M  V30 8363 C 789.042 3.26134 1.24247 0
M  V30 8364 C 790.39 3.90419 1.66908 0
M  V30 8365 O 791.414 3.30126 1.33772 0
M  V30 8366 O 790.273 4.96523 2.28314 0
M  V30 8367 H 787.367 0.735825 0.377479 0
M  V30 8368 H 789.913 1.69666 0.0339285 0
M  V30 8369 H 788.685 3.89145 0.410089 0
M  V30 8370 H 788.308 3.40411 2.05441 0
M  V30 8371 N 789.305 -0.326896 1.54172 0
M  V30 8372 C 790.255 -1.40319 1.79707 0
M  V30 8373 C 791.239 -1.47056 0.652938 0
M  V30 8374 O 792.431 -1.51645 0.91284 0
M  V30 8375 C 789.56 -2.77222 2.02491 0
M  V30 8376 C 788.646 -2.74811 3.23016 0
M  V30 8377 N 789.037 -2.42022 4.44138 0
M  V30 8378 C 787.335 -3.05943 3.24522 0
M  V30 8379 C 788.036 -2.48263 5.26061 0
M  V30 8380 N 787.012 -2.84567 4.63166 0
M  V30 8381 H 790.814 -1.13892 2.70935 0
M  V30 8382 H 788.328 -0.53536 1.53322 0
M  V30 8383 H 790.325 -3.54793 2.18923 0
M  V30 8384 H 788.985 -3.04582 1.12515 0
M  V30 8385 H 789.996 -2.14926 4.71197 0
M  V30 8386 H 786.673 -3.38367 2.44569 0
M  V30 8387 H 788.063 -2.2593 6.32776 0
M  V30 8388 N 790.784 -1.46188 -0.588786 0
M  V30 8389 C 791.734 -1.5271 -1.69303 0
M  V30 8390 C 792.718 -0.388578 -1.56137 0
M  V30 8391 O 793.91 -0.636616 -1.65155 0
M  V30 8392 C 791.039 -1.51457 -3.08084 0
M  V30 8393 C 790.125 -2.70581 -3.26568 0
M  V30 8394 N 790.516 -3.9555 -3.15236 0
M  V30 8395 C 788.814 -2.66676 -3.57491 0
M  V30 8396 C 789.515 -4.75157 -3.35561 0
M  V30 8397 N 788.491 -4.06927 -3.60432 0
M  V30 8398 H 792.293 -2.47136 -1.59063 0
M  V30 8399 H 789.807 -1.41743 -0.792632 0
M  V30 8400 H 791.804 -1.54216 -3.87328 0
M  V30 8401 H 790.464 -0.581036 -3.19459 0
M  V30 8402 H 791.475 -4.2689 -2.93232 0
M  V30 8403 H 788.152 -1.82317 -3.75588 0
M  V30 8404 H 789.542 -5.84126 -3.32034 0
M  V30 8405 N 792.262 0.832906 -1.33792 0
M  V30 8406 C 793.192 1.95828 -1.27176 0
M  V30 8407 C 794.173 1.69427 -0.15114 0
M  V30 8408 O 795.358 1.91167 -0.341886 0
M  V30 8409 C 792.488 3.32098 -1.01629 0
M  V30 8410 C 791.442 3.72912 -2.10049 0
M  V30 8411 C 790.768 5.07054 -1.69706 0
M  V30 8412 C 792.068 3.86064 -3.51783 0
M  V30 8413 H 793.762 2.01622 -2.21334 0
M  V30 8414 H 791.308 0.96866 -1.0655 0
M  V30 8415 H 793.261 4.10402 -0.956474 0
M  V30 8416 H 791.985 3.26577 -0.0390956 0
M  V30 8417 H 790.644 2.96876 -2.15082 0
M  V30 8418 H 790.292 4.9801 -0.706737 0
M  V30 8419 H 789.992 5.35333 -2.42264 0
M  V30 8420 H 791.516 5.87827 -1.65202 0
M  V30 8421 H 792.93 4.54665 -3.49218 0
M  V30 8422 H 791.327 4.25787 -4.22878 0
M  V30 8423 H 792.397 2.88344 -3.89854 0
M  V30 8424 N 793.74 1.17359 1.05189 0
M  V30 8425 C 794.703 0.892604 2.11105 0
M  V30 8426 C 795.703 -0.117236 1.60372 0
M  V30 8427 O 796.893 0.114936 1.7382 0
M  V30 8428 C 794.025 0.337032 3.3923 0
M  V30 8429 H 795.218 1.83169 2.37464 0
M  V30 8430 H 792.771 0.984051 1.21434 0
M  V30 8431 H 793.506 -0.609198 3.18527 0
M  V30 8432 H 793.291 1.06484 3.77364 0
M  V30 8433 H 794.781 0.158763 4.17298 0
M  V30 8434 N 795.218 -1.23913 0.973828 0
M  V30 8435 C 796.629 -1.73992 0.677021 0
M  V30 8436 C 796.98 -1.78833 -0.807036 0
M  V30 8437 O 796.105 -1.42183 -1.63135 0
M  V30 8438 C 796.7 -3.15985 1.22226 0
M  V30 8439 C 795.259 -3.63547 0.975228 0
M  V30 8440 C 794.406 -2.42001 1.35392 0
M  V30 8441 H 797.357 -1.09529 1.14844 0
M  V30 8442 H 797.378 -3.75875 0.591489 0
M  V30 8443 H 796.89 -3.12429 2.30238 0
M  V30 8444 H 794.991 -3.72493 -0.0891047 0
M  V30 8445 H 795.104 -4.50693 1.62518 0
M  V30 8446 H 793.468 -2.42708 0.772334 0
M  V30 8447 H 794.251 -2.41122 2.44367 0
M  V30 8448 N 796.696 -0.74468 -1.38897 0
M  V30 8449 C 797.921 -0.306119 -2.05128 0
M  V30 8450 C 798.346 1.0541 -1.55789 0
M  V30 8451 O 797.704 1.66993 -0.705909 0
M  V30 8452 C 797.752 -0.328195 -3.59103 0
M  V30 8453 O 796.856 0.680876 -4.06741 0
M  V30 8454 H 796.197 -0.137209 -0.649669 0
M  V30 8455 H 798.727 -1.01331 -1.77745 0
M  V30 8456 H 798.737 -0.175956 -4.0762 0
M  V30 8457 H 797.412 -1.32067 -3.94374 0
M  V30 8458 H 795.989 0.49398 -3.69614 0
M  V30 8459 N 798.174 1.49689 -0.493057 0
M  V30 8460 C 799.421 2.02427 0.0542714 0
M  V30 8461 C 799.749 1.37339 1.37725 0
M  V30 8462 O 799.004 0.495523 1.89323 0
M  V30 8463 C 799.303 3.56427 0.263536 0
M  V30 8464 C 798.969 4.40111 -0.98046 0
M  V30 8465 C 797.631 4.62699 -1.32148 0
M  V30 8466 C 799.983 4.88847 -1.80771 0
M  V30 8467 C 797.311 5.31268 -2.48941 0
M  V30 8468 C 799.663 5.587 -2.96711 0
M  V30 8469 C 798.327 5.79536 -3.31202 0
M  V30 8470 H 797.597 0.740734 0.0198593 0
M  V30 8471 H 800.244 1.80073 -0.651603 0
M  V30 8472 H 798.549 3.77416 1.05186 0
M  V30 8473 H 800.246 3.94819 0.701348 0
M  V30 8474 H 796.836 4.22765 -0.704814 0
M  V30 8475 H 801.02 4.71231 -1.55741 0
M  V30 8476 H 796.276 5.45603 -2.75911 0
M  V30 8477 H 800.45 5.9544 -3.61143 0
M  V30 8478 H 798.077 6.32443 -4.21805 0
M  V30 8479 N 799.652 0.226554 1.55963 0
M  V30 8480 C 800.882 -0.407915 2.02533 0
M  V30 8481 C 801.29 -1.53539 1.10554 0
M  V30 8482 O 800.633 -1.8338 0.108409 0
M  V30 8483 C 800.695 -0.996081 3.45425 0
M  V30 8484 C 800.359 -0.00341651 4.57 0
M  V30 8485 C 801.356 0.798782 5.13727 0
M  V30 8486 C 799.041 0.116786 5.02164 0
M  V30 8487 C 801.035 1.70784 6.14094 0
M  V30 8488 C 798.722 1.02937 6.02368 0
M  V30 8489 C 799.72 1.82344 6.5821 0
M  V30 8490 O 799.408 2.72067 7.56462 0
M  V30 8491 H 799.14 -0.103524 0.668026 0
M  V30 8492 H 801.694 0.341937 2.02534 0
M  V30 8493 H 799.924 -1.79512 3.42509 0
M  V30 8494 H 801.613 -1.53848 3.75614 0
M  V30 8495 H 802.379 0.716393 4.7968 0
M  V30 8496 H 798.258 -0.491172 4.58376 0
M  V30 8497 H 801.802 2.32807 6.57607 0
M  V30 8498 H 797.699 1.11276 6.35836 0
M  V30 8499 H 798.467 2.66199 7.74003 0
M  V30 8500 N 801.13 -1.57531 -0.0467866 0
M  V30 8501 C 802.377 -1.88451 -0.74112 0
M  V30 8502 C 802.705 -0.821592 -1.76296 0
M  V30 8503 O 801.96 0.179585 -1.94874 0
M  V30 8504 C 802.259 -3.26091 -1.46285 0
M  V30 8505 C 801.925 -4.47171 -0.578669 0
M  V30 8506 C 800.587 -4.80032 -0.335083 0
M  V30 8507 C 802.939 -5.2119 0.0328809 0
M  V30 8508 C 800.267 -5.84309 0.529121 0
M  V30 8509 C 802.619 -6.26383 0.884684 0
M  V30 8510 C 801.283 -6.57729 1.1379 0
M  V30 8511 H 800.553 -0.68959 -0.271195 0
M  V30 8512 H 803.2 -1.915 -0.00132378 0
M  V30 8513 H 801.505 -3.18948 -2.27551 0
M  V30 8514 H 803.202 -3.47258 -2.00532 0
M  V30 8515 H 799.792 -4.21467 -0.778666 0
M  V30 8516 H 803.976 -4.96096 -0.142375 0
M  V30 8517 H 799.232 -6.06981 0.733794 0
M  V30 8518 H 803.406 -6.82888 1.36516 0
M  V30 8519 H 801.033 -7.38355 1.80929 0
M  V30 8520 N 802.608 0.318715 -1.54344 0
M  V30 8521 C 803.854 1.05765 -1.73037 0
M  V30 8522 C 804.187 1.87514 -0.505181 0
M  V30 8523 O 803.462 1.88021 0.497838 0
M  V30 8524 C 803.745 1.97836 -3.00887 0
M  V30 8525 C 803.598 1.19384 -4.33668 0
M  V30 8526 C 804.917 2.97285 -3.24514 0
M  V30 8527 H 802.036 0.383104 -0.629603 0
M  V30 8528 H 804.678 0.333864 -1.87044 0
M  V30 8529 H 802.828 2.59552 -2.89076 0
M  V30 8530 H 804.5 0.600906 -4.57369 0
M  V30 8531 H 802.743 0.496198 -4.30953 0
M  V30 8532 H 803.414 1.87014 -5.19355 0
M  V30 8533 H 805.89 2.45693 -3.35819 0
M  V30 8534 H 804.766 3.58887 -4.15321 0
M  V30 8535 H 805.027 3.70003 -2.41971 0
M  V30 8536 N 804.086 1.46499 0.581025 0
M  V30 8537 C 805.049 1.5677 1.672 0
M  V30 8538 C 806.049 0.444716 1.54528 0
M  V30 8539 O 807.239 0.709074 1.59116 0
M  V30 8540 C 804.371 1.4896 3.06633 0
M  V30 8541 H 805.564 2.54 1.5945 0
M  V30 8542 H 803.117 1.34334 0.799003 0
M  V30 8543 H 803.852 0.530168 3.19937 0
M  V30 8544 H 803.637 2.30439 3.17239 0
M  V30 8545 H 805.127 1.59237 3.86048 0
M  V30 8546 N 805.565 -0.825799 1.34232 0
M  V30 8547 C 806.812 -1.58185 1.26427 0
M  V30 8548 C 807.14 -1.93786 -0.166533 0
M  V30 8549 O 806.395 -1.59986 -1.12707 0
M  V30 8550 C 806.694 -2.89362 2.09772 0
M  V30 8551 C 806.36 -2.73066 3.58812 0
M  V30 8552 C 805.022 -2.68329 3.99441 0
M  V30 8553 C 807.374 -2.56946 4.53462 0
M  V30 8554 C 804.702 -2.4539 5.32917 0
M  V30 8555 C 807.054 -2.35538 5.87115 0
M  V30 8556 C 805.718 -2.29212 6.26912 0
M  V30 8557 H 804.988 -0.57884 0.462629 0
M  V30 8558 H 807.635 -0.955714 1.65947 0
M  V30 8559 H 805.94 -3.56251 1.63071 0
M  V30 8560 H 807.637 -3.4694 2.01081 0
M  V30 8561 H 804.227 -2.77591 3.26559 0
M  V30 8562 H 808.411 -2.59631 4.22972 0
M  V30 8563 H 803.667 -2.38947 5.62774 0
M  V30 8564 H 807.841 -2.22051 6.6005 0
M  V30 8565 H 805.468 -2.11197 7.30274 0
M  V30 8566 N 807.043 -1.17915 -1.04565 0
M  V30 8567 C 808.273 -0.994716 -1.81077 0
M  V30 8568 C 808.681 0.460146 -1.83519 0
M  V30 8569 O 808.024 1.33136 -1.26572 0
M  V30 8570 C 808.086 -1.46698 -3.28207 0
M  V30 8571 C 807.75 -2.94523 -3.49436 0
M  V30 8572 C 808.747 -3.92414 -3.41038 0
M  V30 8573 C 806.432 -3.32841 -3.76194 0
M  V30 8574 C 808.426 -5.2662 -3.59096 0
M  V30 8575 C 806.113 -4.67212 -3.93899 0
M  V30 8576 C 807.111 -5.6391 -3.8535 0
M  V30 8577 O 806.799 -6.95849 -4.02554 0
M  V30 8578 H 806.531 -0.351797 -0.577248 0
M  V30 8579 H 809.085 -1.56772 -1.32709 0
M  V30 8580 H 807.315 -0.837592 -3.7752 0
M  V30 8581 H 809.004 -1.24724 -3.86263 0
M  V30 8582 H 809.77 -3.64157 -3.20336 0
M  V30 8583 H 805.649 -2.58139 -3.81949 0
M  V30 8584 H 809.193 -6.02082 -3.52339 0
M  V30 8585 H 805.09 -4.95172 -4.14095 0
M  V30 8586 H 805.858 -7.02679 -4.19743 0
M  V30 8587 N 808.521 1.23394 -0.980386 0
M  V30 8588 C 809.751 1.9556 -0.666319 0
M  V30 8589 C 810.159 1.72786 0.770815 0
M  V30 8590 O 809.502 1.0162 1.53033 0
M  V30 8591 C 809.564 3.48643 -0.876825 0
M  V30 8592 C 809.228 3.95135 -2.29602 0
M  V30 8593 C 810.225 4.03806 -3.2747 0
M  V30 8594 C 807.91 4.28122 -2.62711 0
M  V30 8595 C 809.904 4.44818 -4.56526 0
M  V30 8596 C 807.591 4.68814 -3.9199 0
M  V30 8597 C 808.589 4.77129 -4.88709 0
M  V30 8598 O 808.277 5.16908 -6.15679 0
M  V30 8599 H 808.009 0.629422 -0.246585 0
M  V30 8600 H 810.563 1.57839 -1.31438 0
M  V30 8601 H 808.793 3.86319 -0.171587 0
M  V30 8602 H 810.482 4.0202 -0.55992 0
M  V30 8603 H 811.248 3.78526 -3.03222 0
M  V30 8604 H 807.127 4.20861 -1.8814 0
M  V30 8605 H 810.671 4.51223 -5.32018 0
M  V30 8606 H 806.568 4.93545 -4.16033 0
M  V30 8607 H 807.336 5.3502 -6.19432 0
M  V30 8608 N 809.999 0.752036 1.385 0
M  V30 8609 C 810.949 0.0990189 2.27785 0
M  V30 8610 C 811.933 -0.694867 1.45122 0
M  V30 8611 O 813.125 -0.561077 1.67872 0
M  V30 8612 C 810.254 -0.794531 3.33979 0
M  V30 8613 C 809.34 0.00611984 4.241 0
M  V30 8614 N 809.731 1.04174 4.94956 0
M  V30 8615 C 808.029 -0.220934 4.45452 0
M  V30 8616 C 808.73 1.52601 5.61327 0
M  V30 8617 N 807.706 0.84159 5.37046 0
M  V30 8618 H 811.508 0.892208 2.8003 0
M  V30 8619 H 809.022 0.587934 1.51384 0
M  V30 8620 H 811.019 -1.27797 3.96829 0
M  V30 8621 H 809.679 -1.58669 2.83292 0
M  V30 8622 H 810.69 1.42349 4.97953 0
M  V30 8623 H 807.367 -0.986556 4.05676 0
M  V30 8624 H 808.757 2.38857 6.2801 0
M  V30 8625 N 811.477 -1.49425 0.500989 0
M  V30 8626 C 812.725 -2.02053 -0.0434495 0
M  V30 8627 C 813.046 -1.38285 -1.37486 0
M  V30 8628 O 812.316 -0.538171 -1.88363 0
M  V30 8629 H 810.896 -0.746757 -0.0190469 0
M  V30 8630 H 813.558 -1.83449 0.658227 0
M  V30 8631 H 812.654 -3.11619 -0.173129 0
M  V30 8632 N 812.955 -0.234822 -1.55841 0
M  V30 8633 C 814.232 0.442961 -1.90518 0
M  V30 8634 C 814.612 1.76768 -1.15397 0
M  V30 8635 O 813.96 2.26928 -0.267534 0
M  V30 8636 C 814.17 0.622905 -3.43396 0
M  V30 8637 C 815.518 0.9243 -4.14417 0
M  V30 8638 O 816.542 0.709211 -3.49068 0
M  V30 8639 O 815.401 1.33323 -5.29988 0
M  V30 8640 H 812.495 0.236042 -0.792599 0
M  V30 8641 H 815.041 -0.277992 -1.67408 0
M  V30 8642 H 813.813 -0.310973 -3.90062 0
M  V30 8643 H 813.436 1.39485 -3.7233 0
M  V30 8644 N 814.433 1.57553 0.0384317 0
M  V30 8645 C 815.383 2.02404 1.0496 0
M  V30 8646 C 816.367 0.911705 1.32577 0
M  V30 8647 O 817.559 1.17561 1.32319 0
M  V30 8648 C 814.688 2.49924 2.35357 0
M  V30 8649 C 813.774 3.6796 2.1087 0
M  V30 8650 N 814.165 4.81009 1.56411 0
M  V30 8651 C 812.463 3.75153 2.41197 0
M  V30 8652 C 813.164 5.62686 1.47512 0
M  V30 8653 N 812.14 5.0752 1.94742 0
M  V30 8654 H 815.942 2.87234 0.622399 0
M  V30 8655 H 813.456 1.60543 0.244916 0
M  V30 8656 H 815.453 2.80312 3.08595 0
M  V30 8657 H 814.113 1.66496 2.78763 0
M  V30 8658 H 815.124 5.02636 1.2481 0
M  V30 8659 H 811.801 3.02507 2.87742 0
M  V30 8660 H 813.191 6.6349 1.05976 0
M  V30 8661 N 815.911 -0.310526 1.54511 0
M  V30 8662 C 817.322 -0.884142 1.64438 0
M  V30 8663 C 817.673 -1.88425 0.546855 0
M  V30 8664 O 816.798 -2.14049 -0.31811 0
M  V30 8665 C 817.393 -1.6104 2.9808 0
M  V30 8666 C 815.952 -2.13255 3.1016 0
M  V30 8667 C 815.099 -0.96213 2.60074 0
M  V30 8668 H 818.05 -0.0877666 1.58457 0
M  V30 8669 H 818.071 -2.47541 2.8897 0
M  V30 8670 H 817.583 -0.882255 3.77939 0
M  V30 8671 H 815.684 -2.89145 2.35002 0
M  V30 8672 H 815.797 -2.37361 4.16169 0
M  V30 8673 H 814.161 -1.34501 2.16291 0
M  V30 8674 H 814.944 -0.248098 3.42402 0
M  V30 8675 N 817.389 -1.46805 -0.573248 0
M  V30 8676 C 818.635 -1.5283 -1.33307 0
M  V30 8677 C 818.968 -0.183287 -1.93333 0
M  V30 8678 O 818.243 0.806354 -1.76998 0
M  V30 8679 C 818.526 -2.63414 -2.45531 0
M  V30 8680 C 818.379 -4.07478 -1.90478 0
M  V30 8681 C 819.698 -2.70014 -3.47535 0
M  V30 8682 H 816.817 -0.556371 -0.483343 0
M  V30 8683 H 819.459 -1.78787 -0.643066 0
M  V30 8684 H 817.609 -2.41412 -3.04389 0
M  V30 8685 H 819.281 -4.40795 -1.36004 0
M  V30 8686 H 817.524 -4.16511 -1.21248 0
M  V30 8687 H 818.195 -4.80598 -2.71531 0
M  V30 8688 H 820.671 -2.89817 -2.98572 0
M  V30 8689 H 819.547 -3.49192 -4.23504 0
M  V30 8690 H 819.808 -1.76436 -4.05367 0
M  V30 8691 N 818.867 0.818669 -1.34668 0
M  V30 8692 C 819.83 1.9114 -1.26483 0
M  V30 8693 C 820.83 1.598 -0.179044 0
M  V30 8694 O 822.02 1.6876 -0.431952 0
M  V30 8695 C 819.152 3.27285 -0.95381 0
M  V30 8696 H 820.345 1.9982 -2.23634 0
M  V30 8697 H 817.898 1.01314 -1.19018 0
M  V30 8698 H 818.633 3.24297 0.0143428 0
M  V30 8699 H 818.418 3.51416 -1.73924 0
M  V30 8700 H 819.908 4.07299 -0.921827 0
M  V30 8701 N 820.346 1.18468 1.03938 0
M  V30 8702 C 821.294 0.909286 2.14091 0
M  V30 8703 C 822.288 -0.130928 1.68893 0
M  V30 8704 O 823.494 0.0173403 1.79992 0
M  V30 8705 H 819.869 0.27658 0.699291 0
M  V30 8706 H 821.84 1.84514 2.34515 0
M  V30 8707 C 820.589 0.452922 3.44737 0
M  V30 8708 H 819.912 1.24485 3.79926 0
M  V30 8709 H 821.352 0.299238 4.22943 0
M  V30 8710 C 819.811 -0.831435 3.26479 0
M  V30 8711 O 820.341 -1.89535 3.54174 0
M  V30 8712 N 818.547 -0.784545 2.79809 0
M  V30 8713 H 818.094 0.0814746 2.57471 0
M  V30 8714 H 818.052 -1.64431 2.67973 0
M  V30 8715 N 821.824 -1.22873 0.986916 0
M  V30 8716 C 823.049 -1.96028 0.677341 0
M  V30 8717 C 823.474 -1.72487 -0.750319 0
M  V30 8718 O 822.832 -1.00036 -1.51203 0
M  V30 8719 C 822.88 -3.46983 0.981593 0
M  V30 8720 O 821.984 -4.12328 0.0770729 0
M  V30 8721 H 821.325 -0.613458 0.254096 0
M  V30 8722 H 823.855 -1.56132 1.32227 0
M  V30 8723 H 823.865 -3.9747 0.920969 0
M  V30 8724 H 822.54 -3.63442 2.02194 0
M  V30 8725 H 821.117 -3.72402 0.192666 0
M  V30 8726 N 823.302 -0.75937 -1.38099 0
M  V30 8727 C 824.232 -0.151077 -2.33011 0
M  V30 8728 C 825.213 0.697099 -1.5516 0
M  V30 8729 O 826.398 0.637101 -1.83452 0
M  V30 8730 C 823.528 0.738423 -3.39359 0
M  V30 8731 C 822.482 -0.0074741 -4.27999 0
M  V30 8732 C 821.808 1.00066 -5.25253 0
M  V30 8733 C 823.108 -1.17926 -5.08813 0
M  V30 8734 H 824.802 -0.943933 -2.84131 0
M  V30 8735 H 822.348 -0.455362 -1.36611 0
M  V30 8736 H 824.301 1.17369 -4.04725 0
M  V30 8737 H 823.025 1.56366 -2.86735 0
M  V30 8738 H 821.684 -0.423379 -3.64147 0
M  V30 8739 H 821.332 1.82012 -4.68914 0
M  V30 8740 H 821.032 0.506199 -5.85416 0
M  V30 8741 H 822.556 1.43512 -5.93495 0
M  V30 8742 H 823.97 -0.821262 -5.67387 0
M  V30 8743 H 822.367 -1.60497 -5.78239 0
M  V30 8744 H 823.437 -1.98938 -4.42212 0
M  V30 8745 N 824.78 1.49157 -0.508906 0
M  V30 8746 C 826.196 1.58741 -0.165372 0
M  V30 8747 C 826.396 1.5133 1.33047 0
M  V30 8748 O 825.452 1.39135 2.10707 0
M  V30 8749 C 826.765 2.91217 -0.749194 0
M  V30 8750 C 828.313 3.047 -0.716015 0
M  V30 8751 C 828.788 4.39807 -1.27804 0
M  V30 8752 N 830.279 4.46319 -1.23908 0
M  V30 8753 C 831.014 5.49325 -1.64406 0
M  V30 8754 N 830.51 6.59395 -2.12534 0
M  V30 8755 N 832.303 5.40084 -1.55773 0
M  V30 8756 H 824.454 1.52217 -1.48134 0
M  V30 8757 H 826.717 0.721514 -0.614915 0
M  V30 8758 H 826.423 3.02233 -1.79856 0
M  V30 8759 H 826.297 3.76592 -0.214144 0
M  V30 8760 H 828.684 2.9331 0.324535 0
M  V30 8761 H 828.765 2.2099 -1.2883 0
M  V30 8762 H 828.409 4.5195 -2.31741 0
M  V30 8763 H 828.339 5.2217 -0.681623 0
M  V30 8764 H 830.83 3.67354 -0.886537 0
M  V30 8765 H 831.143 7.34102 -2.41485 0
M  V30 8766 H 829.488 6.60414 -2.16513 0
M  V30 8767 H 832.679 4.52986 -1.17987 0
M  V30 8768 H 832.852 6.20233 -1.87657 0
M  V30 8769 N 826.258 0.243083 1.55714 0
M  V30 8770 C 827.504 -0.383287 1.99145 0
M  V30 8771 C 827.837 -1.57868 1.13098 0
M  V30 8772 O 827.112 -1.93535 0.193509 0
M  V30 8773 C 827.395 -0.796879 3.51172 0
M  V30 8774 C 827.248 0.403642 4.47985 0
M  V30 8775 C 828.567 -1.64525 4.08191 0
M  V30 8776 H 825.686 -0.137843 0.723995 0
M  V30 8777 H 828.328 0.343631 1.86867 0
M  V30 8778 H 826.478 -1.41625 3.61766 0
M  V30 8779 H 828.15 1.04204 4.49376 0
M  V30 8780 H 826.393 1.04741 4.20965 0
M  V30 8781 H 827.064 0.0709794 5.51954 0
M  V30 8782 H 829.54 -1.12246 4.00674 0
M  V30 8783 H 828.416 -1.9035 5.14838 0
M  V30 8784 H 828.677 -2.61582 3.56409 0
M  V30 8785 N 827.736 -1.57571 -0.0300757 0
M  V30 8786 C 829.013 -1.80381 -0.756447 0
M  V30 8787 C 829.393 -0.840906 -1.93628 0
M  V30 8788 O 828.741 0.117143 -2.282 0
M  V30 8789 C 828.951 -3.2807 -1.19043 0
M  V30 8790 C 830.299 -3.93025 -1.60676 0
M  V30 8791 O 831.323 -3.32213 -1.28503 0
M  V30 8792 O 830.182 -5.00092 -2.20386 0
M  V30 8793 H 827.276 -0.741737 -0.365725 0
M  V30 8794 H 829.822 -1.69699 -0.00693177 0
M  V30 8795 H 828.594 -3.89748 -0.348128 0
M  V30 8796 H 828.217 -3.43637 -1.99999 0
M  V30 8797 N 829.214 0.302327 -1.54673 0
M  V30 8798 C 830.46 1.03924 -1.74149 0
M  V30 8799 C 830.793 1.86968 -0.525041 0
M  V30 8800 O 830.068 1.88538 0.477868 0
M  V30 8801 C 830.351 1.94633 -3.02969 0
M  V30 8802 C 830.204 1.14778 -4.34909 0
M  V30 8803 C 831.523 2.93826 -3.27649 0
M  V30 8804 H 828.642 0.376405 -0.633631 0
M  V30 8805 H 831.284 0.314007 -1.87387 0
M  V30 8806 H 829.434 2.56471 -2.91813 0
M  V30 8807 H 831.106 0.552363 -4.57981 0
M  V30 8808 H 829.349 0.450462 -4.31455 0
M  V30 8809 H 830.02 1.81495 -5.21309 0
M  V30 8810 H 832.496 2.42117 -3.38406 0
M  V30 8811 H 831.372 3.54462 -4.19104 0
M  V30 8812 H 831.633 3.67416 -2.45882 0
M  V30 8813 N 830.692 1.47107 0.565454 0
M  V30 8814 C 831.624 1.55024 1.6882 0
M  V30 8815 C 832.637 0.4371 1.56822 0
M  V30 8816 O 833.826 0.706315 1.63931 0
M  V30 8817 C 830.926 1.43069 3.0722 0
M  V30 8818 C 830.099 2.68807 3.45053 0
M  V30 8819 C 829.158 2.50806 4.62583 0
M  V30 8820 O 828.184 3.24593 4.67577 0
M  V30 8821 N 829.386 1.58093 5.58558 0
M  V30 8822 H 832.151 2.51836 1.62477 0
M  V30 8823 H 829.712 1.43382 0.751885 0
M  V30 8824 H 831.704 1.28773 3.83666 0
M  V30 8825 H 830.274 0.543721 3.07835 0
M  V30 8826 H 829.494 2.97923 2.58138 0
M  V30 8827 H 830.782 3.52298 3.67101 0
M  V30 8828 H 830.18 0.972807 5.57273 0
M  V30 8829 H 828.737 1.49753 6.34364 0
M  V30 8830 N 832.17 -0.811516 1.35101 0
M  V30 8831 C 833.133 -1.90467 1.27495 0
M  V30 8832 C 834.133 -1.59703 0.187516 0
M  V30 8833 O 835.323 -1.68528 0.440896 0
M  V30 8834 C 832.455 -3.26774 0.971154 0
M  V30 8835 H 833.648 -1.98631 2.2469 0
M  V30 8836 H 831.201 -1.00681 1.19553 0
M  V30 8837 H 831.936 -3.243 0.0028557 0
M  V30 8838 H 831.721 -3.50488 1.75785 0
M  V30 8839 H 833.211 -4.06804 0.943414 0
M  V30 8840 N 833.648 -1.19017 -1.03309 0
M  V30 8841 C 834.896 -0.988258 -1.76289 0
M  V30 8842 C 835.217 0.482557 -1.88935 0
M  V30 8843 O 834.487 1.34969 -1.41987 0
M  V30 8844 H 833.067 -0.36267 -0.653054 0
M  V30 8845 H 835.729 -1.49836 -1.2464 0
M  V30 8846 H 834.825 -1.43273 -2.77271 0
M  V30 8847 N 835.127 1.22348 -0.993418 0
M  V30 8848 C 836.09 2.22522 -0.549251 0
M  V30 8849 C 837.09 1.56529 0.368164 0
M  V30 8850 O 838.28 1.73463 0.16005 0
M  V30 8851 C 835.412 3.40307 0.201037 0
M  V30 8852 H 836.605 2.63332 -1.43515 0
M  V30 8853 H 834.158 1.35407 -0.78068 0
M  V30 8854 H 834.893 3.0497 1.10289 0
M  V30 8855 H 834.678 3.8942 -0.457685 0
M  V30 8856 H 836.168 4.14597 0.499946 0
M  V30 8857 N 836.605 0.766683 1.37694 0
M  V30 8858 C 837.845 0.333815 2.01656 0
M  V30 8859 C 838.209 -1.06813 1.59546 0
M  V30 8860 O 839.41 -1.60084 2.15932 0
M  V30 8861 C 837.681 0.467032 3.54335 0
M  V30 8862 S 839.24 0.118679 4.38639 0
M  V30 8863 H 836.058 0.128723 0.699251 0
M  V30 8864 H 838.66 1.00018 1.67978 0
M  V30 8865 H 837.364 1.48808 3.82471 0
M  V30 8866 H 836.895 -0.216066 3.92806 0
M  V30 8867 H 838.91 -1.08746 4.84137 0
M  V30 8868 N 838.083 -1.48885 0.516809 0
M  V30 8869 C 838.993 -2.33185 -0.257293 0
M  V30 8870 C 840.009 -1.4565 -0.951952 0
M  V30 8871 O 841.185 -1.78651 -0.929834 0
M  V30 8872 C 838.25 -3.21465 -1.29851 0
M  V30 8873 C 837.311 -4.24863 -0.615608 0
M  V30 8874 C 836.544 -5.08925 -1.60722 0
M  V30 8875 O 836.767 -4.9475 -2.83863 0
M  V30 8876 O 835.701 -5.90737 -1.15384 0
M  V30 8877 H 839.527 -3.00596 0.433131 0
M  V30 8878 H 837.112 -1.46792 0.277908 0
M  V30 8879 H 838.994 -3.76108 -1.90055 0
M  V30 8880 H 837.669 -2.5673 -1.97158 0
M  V30 8881 H 836.576 -3.74091 0.0265829 0
M  V30 8882 H 837.909 -4.92198 0.0152871 0
M  V30 8883 N 839.561 -0.251338 -1.55583 0
M  V30 8884 C 840.809 0.371434 -1.98657 0
M  V30 8885 C 841.13 1.58143 -1.14087 0
M  V30 8886 O 840.4 1.94607 -0.224708 0
M  V30 8887 H 838.98 0.140225 -0.733721 0
M  V30 8888 H 841.642 -0.351157 -1.9171 0
M  V30 8889 H 840.738 0.677554 -3.04657 0
M  V30 8890 N 841.039 1.57585 0.0217189 0
M  V30 8891 C 841.986 2.07036 1.02004 0
M  V30 8892 C 842.956 0.96106 1.35473 0
M  V30 8893 O 844.141 1.23211 1.45684 0
M  V30 8894 C 841.281 2.56056 2.31364 0
M  V30 8895 C 840.394 3.80805 2.03989 0
M  V30 8896 C 839.529 4.18409 3.27272 0
M  V30 8897 C 838.568 5.36055 2.95486 0
M  V30 8898 N 837.705 5.69056 4.11242 0
M  V30 8899 H 842.545 2.92073 0.591396 0
M  V30 8900 H 840.082 1.44403 0.280384 0
M  V30 8901 H 842.04 2.82548 3.06957 0
M  V30 8902 H 840.67 1.73925 2.71937 0
M  V30 8903 H 839.722 3.61354 1.1886 0
M  V30 8904 H 841.034 4.66512 1.76546 0
M  V30 8905 H 840.188 4.46068 4.11228 0
M  V30 8906 H 838.927 3.31369 3.57835 0
M  V30 8907 H 837.932 5.08142 2.09933 0
M  V30 8908 H 839.157 6.24755 2.66193 0
M  V30 8909 H 837.103 4.84974 4.41742 0
M  V30 8910 H 837.02 6.49288 3.87247 0
M  V30 8911 H 838.288 6.01295 4.96049 0
M  V30 8912 N 842.517 -0.29412 1.54831 0
M  V30 8913 C 843.447 -1.36757 1.89261 0
M  V30 8914 C 844.428 -1.52564 0.752214 0
M  V30 8915 O 845.613 -1.65958 1.00855 0
M  V30 8916 C 842.743 -2.73066 2.14597 0
M  V30 8917 C 841.697 -2.72017 3.3044 0
M  V30 8918 C 841.023 -4.11679 3.4121 0
M  V30 8919 C 842.323 -2.33149 4.67375 0
M  V30 8920 H 844.017 -1.08191 2.79169 0
M  V30 8921 H 841.563 -0.519014 1.34321 0
M  V30 8922 H 843.516 -3.48255 2.37269 0
M  V30 8923 H 842.24 -3.03172 1.21467 0
M  V30 8924 H 840.899 -1.99285 3.07703 0
M  V30 8925 H 840.547 -4.38973 2.45584 0
M  V30 8926 H 840.247 -4.11877 4.19084 0
M  V30 8927 H 841.771 -4.88637 3.6615 0
M  V30 8928 H 843.185 -2.98054 4.89731 0
M  V30 8929 H 841.582 -2.44546 5.48012 0
M  V30 8930 H 842.652 -1.28275 4.67626 0
M  V30 8931 N 843.995 -1.47404 -0.557645 0
M  V30 8932 C 844.905 -1.62491 -1.69216 0
M  V30 8933 C 845.921 -0.507764 -1.66426 0
M  V30 8934 O 847.097 -0.775241 -1.85882 0
M  V30 8935 C 844.162 -1.63511 -3.05721 0
M  V30 8936 C 843.223 -2.86648 -3.1958 0
M  V30 8937 C 842.456 -2.87609 -4.49574 0
M  V30 8938 O 842.679 -1.97799 -5.35006 0
M  V30 8939 O 841.613 -3.79465 -4.67215 0
M  V30 8940 H 845.439 -2.58487 -1.59431 0
M  V30 8941 H 843.024 -1.30485 -0.7276 0
M  V30 8942 H 844.906 -1.66863 -3.86956 0
M  V30 8943 H 843.581 -0.706812 -3.15889 0
M  V30 8944 H 842.488 -2.8884 -2.37744 0
M  V30 8945 H 843.821 -3.7877 -3.14316 0
M  V30 8946 N 845.473 0.80434 -1.35529 0
M  V30 8947 C 846.403 1.93086 -1.31301 0
M  V30 8948 C 847.384 1.69068 -0.187044 0
M  V30 8949 O 848.569 1.90399 -0.382359 0
M  V30 8950 C 845.699 3.29867 -1.0865 0
M  V30 8951 C 844.653 3.68373 -2.17911 0
M  V30 8952 C 843.979 5.0334 -1.80423 0
M  V30 8953 C 845.279 3.78516 -3.59893 0
M  V30 8954 H 846.973 1.96882 -2.25561 0
M  V30 8955 H 844.519 0.945841 -1.08581 0
M  V30 8956 H 846.472 4.08281 -1.04331 0
M  V30 8957 H 845.196 3.2642 -0.108359 0
M  V30 8958 H 843.855 2.92247 -2.21331 0
M  V30 8959 H 843.503 4.96399 -0.812213 0
M  V30 8960 H 843.203 5.30074 -2.53565 0
M  V30 8961 H 844.727 5.84191 -1.77633 0
M  V30 8962 H 846.141 4.47155 -3.58783 0
M  V30 8963 H 844.538 4.16721 -4.31814 0
M  V30 8964 H 845.608 2.8001 -3.95882 0
M  V30 8965 N 846.951 1.19563 1.02676 0
M  V30 8966 C 848.176 1.02556 1.80269 0
M  V30 8967 C 848.601 -0.421056 1.83327 0
M  V30 8968 O 847.959 -1.30279 1.26084 0
M  V30 8969 C 848.007 1.60165 3.23078 0
M  V30 8970 O 847.111 0.832404 4.03912 0
M  V30 8971 H 846.452 0.362354 0.556413 0
M  V30 8972 H 848.982 1.58633 1.29216 0
M  V30 8973 H 848.992 1.6347 3.7382 0
M  V30 8974 H 847.667 2.65454 3.20167 0
M  V30 8975 H 846.244 0.872768 3.62543 0
M  V30 8976 N 848.429 -1.21819 0.999893 0
M  V30 8977 C 849.675 -1.91035 0.680701 0
M  V30 8978 C 850.008 -1.77582 -0.786021 0
M  V30 8979 O 849.283 -1.14917 -1.56921 0
M  V30 8980 C 849.566 -3.43013 1.0961 0
M  V30 8981 C 849.419 -3.65481 2.6219 0
M  V30 8982 C 850.738 -4.35204 0.654616 0
M  V30 8983 H 847.857 -0.693748 0.248763 0
M  V30 8984 H 850.499 -1.43555 1.24466 0
M  V30 8985 H 848.649 -3.83581 0.616253 0
M  V30 8986 H 850.321 -3.34273 3.17899 0
M  V30 8987 H 848.564 -3.09522 3.03938 0
M  V30 8988 H 849.235 -4.71945 2.86307 0
M  V30 8989 H 851.711 -4.0219 1.06688 0
M  V30 8990 H 850.587 -5.40198 0.973492 0
M  V30 8991 H 850.848 -4.3986 -0.444458 0
M  V30 8992 N 849.908 -0.773975 -1.37286 0
M  V30 8993 C 851.185 -0.263942 -1.93811 0
M  V30 8994 C 851.565 1.24138 -1.70743 0
M  V30 8995 O 850.913 2.02557 -1.05749 0
M  V30 8996 C 851.123 -0.639753 -3.43086 0
M  V30 8997 C 852.471 -0.610796 -4.20184 0
M  V30 8998 O 853.495 -0.579278 -3.51458 0
M  V30 8999 O 852.354 -0.639862 -5.42741 0
M  V30 9000 H 849.448 -0.0614331 -0.824715 0
M  V30 9001 H 851.994 -0.855477 -1.46559 0
M  V30 9002 H 850.766 -1.67856 -3.53469 0
M  V30 9003 H 850.389 -0.0212827 -3.97594 0
M  V30 9004 N 851.386 1.48609 -0.524698 0
M  V30 9005 C 852.634 2.02097 0.0112991 0
M  V30 9006 C 852.955 1.40455 1.35268 0
M  V30 9007 O 852.225 0.56807 1.87483 0
M  V30 9008 H 850.805 0.746966 0.00716426 0
M  V30 9009 H 853.467 1.82378 -0.687329 0
M  V30 9010 H 852.563 3.11855 0.123531 0
M  V30 9011 N 852.864 0.259585 1.55447 0
M  V30 9012 C 853.827 -0.621359 2.20617 0
M  V30 9013 C 854.827 -1.09317 1.17925 0
M  V30 9014 O 856.017 -0.995842 1.42929 0
M  V30 9015 C 853.149 -1.85546 2.85982 0
M  V30 9016 H 854.342 -0.0525833 2.99854 0
M  V30 9017 H 851.895 0.0101055 1.56297 0
M  V30 9018 H 852.63 -2.46515 2.10715 0
M  V30 9019 H 852.415 -1.52523 3.61219 0
M  V30 9020 H 853.905 -2.48227 3.35817 0
M  V30 9021 N 854.342 -1.57594 -0.0133615 0
M  V30 9022 C 855.289 -2.07574 -1.00905 0
M  V30 9023 C 856.259 -0.968231 -1.34961 0
M  V30 9024 O 857.444 -1.23981 -1.45028 0
M  V30 9025 C 854.584 -2.5728 -2.30002 0
M  V30 9026 C 853.697 -3.81881 -2.01967 0
M  V30 9027 C 852.832 -4.20139 -3.25049 0
M  V30 9028 C 851.871 -5.37614 -2.92639 0
M  V30 9029 N 851.008 -5.71229 -4.08218 0
M  V30 9030 H 855.848 -2.92382 -0.575899 0
M  V30 9031 H 853.385 -1.4455 -0.272722 0
M  V30 9032 H 855.343 -2.84171 -3.05454 0
M  V30 9033 H 853.973 -1.75365 -2.71011 0
M  V30 9034 H 853.025 -3.61979 -1.16942 0
M  V30 9035 H 854.337 -4.67441 -1.74069 0
M  V30 9036 H 853.491 -4.48242 -4.08857 0
M  V30 9037 H 852.23 -3.33262 -3.56073 0
M  V30 9038 H 851.235 -5.09248 -2.07235 0
M  V30 9039 H 852.46 -6.26157 -2.62876 0
M  V30 9040 H 850.406 -4.8731 -4.39164 0
M  V30 9041 H 850.323 -6.51333 -3.83799 0
M  V30 9042 H 851.591 -6.03917 -4.92854 0
M  V30 9043 N 855.82 0.285905 -1.54985 0
M  V30 9044 C 856.752 1.37505 -1.83371 0
M  V30 9045 C 857.765 1.46138 -0.717454 0
M  V30 9046 O 858.954 1.48186 -0.995142 0
M  V30 9047 C 856.054 2.7575 -1.97016 0
M  V30 9048 C 855.227 2.89866 -3.27561 0
M  V30 9049 C 854.286 4.08704 -3.31433 0
M  V30 9050 O 853.312 4.00073 -4.04883 0
M  V30 9051 N 854.514 5.20062 -2.57907 0
M  V30 9052 H 857.279 1.13505 -2.77375 0
M  V30 9053 H 854.84 0.476006 -1.54744 0
M  V30 9054 H 856.832 3.5352 -1.96991 0
M  V30 9055 H 855.402 2.9263 -1.09938 0
M  V30 9056 H 854.622 1.99085 -3.40234 0
M  V30 9057 H 855.91 2.96219 -4.13681 0
M  V30 9058 H 855.308 5.29958 -1.97891 0
M  V30 9059 H 853.865 5.96111 -2.63619 0
M  V30 9060 N 857.298 1.47698 0.54982 0
M  V30 9061 C 858.528 1.58101 1.32995 0
M  V30 9062 C 858.936 0.232939 1.87761 0
M  V30 9063 O 858.279 -0.785058 1.6608 0
M  V30 9064 C 858.341 2.55228 2.53178 0
M  V30 9065 C 858.005 4.00756 2.19645 0
M  V30 9066 C 859.002 4.89025 1.76496 0
M  V30 9067 C 856.687 4.46147 2.30777 0
M  V30 9068 C 858.681 6.20707 1.44919 0
M  V30 9069 C 856.368 5.77856 1.98812 0
M  V30 9070 C 857.366 6.64957 1.55952 0
M  V30 9071 O 857.054 7.94217 1.24396 0
M  V30 9072 H 856.786 0.536362 0.411451 0
M  V30 9073 H 859.34 1.94092 0.67212 0
M  V30 9074 H 857.57 2.14319 3.21876 0
M  V30 9075 H 859.259 2.55678 3.15251 0
M  V30 9076 H 860.025 4.55201 1.67383 0
M  V30 9077 H 855.904 3.78552 2.63096 0
M  V30 9078 H 859.448 6.88649 1.11392 0
M  V30 9079 H 855.345 6.11219 2.0756 0
M  V30 9080 H 856.113 8.06789 1.37964 0
M  V30 9081 N 858.776 -0.797141 1.35954 0
M  V30 9082 C 860.192 -1.09408 1.16198 0
M  V30 9083 C 860.392 -2.01491 -0.0191682 0
M  V30 9084 O 859.448 -2.42977 -0.686902 0
M  V30 9085 C 860.761 -1.71597 2.46931 0
M  V30 9086 C 862.309 -1.83974 2.53224 0
M  V30 9087 C 862.784 -2.49579 3.84024 0
M  V30 9088 N 864.275 -2.57055 3.85327 0
M  V30 9089 C 865.01 -3.08608 4.83268 0
M  V30 9090 N 864.506 -3.60527 5.91601 0
M  V30 9091 N 866.299 -3.07249 4.70696 0
M  V30 9092 H 858.45 -0.185209 2.11591 0
M  V30 9093 H 860.713 -0.144768 0.936881 0
M  V30 9094 H 860.419 -1.11404 3.3359 0
M  V30 9095 H 860.293 -2.71193 2.62172 0
M  V30 9096 H 862.68 -2.43308 1.66988 0
M  V30 9097 H 862.761 -0.83207 2.41889 0
M  V30 9098 H 862.405 -1.90892 4.70662 0
M  V30 9099 H 862.335 -3.50902 3.92651 0
M  V30 9100 H 864.826 -2.20283 3.07057 0
M  V30 9101 H 865.139 -3.98192 6.62317 0
M  V30 9102 H 863.484 -3.587 5.95281 0
M  V30 9103 H 866.675 -2.65972 3.85197 0
M  V30 9104 H 866.848 -3.47119 5.47186 0
M  V30 9105 N 860.254 -1.20106 -1.0204 0
M  V30 9106 C 861.202 -0.943231 -2.12617 0
M  V30 9107 C 862.196 0.104042 -1.6908 0
M  V30 9108 O 863.402 -0.0459732 -1.79941 0
M  V30 9109 H 859.777 -0.28767 -0.694802 0
M  V30 9110 H 861.748 -1.88221 -2.3155 0
M  V30 9111 C 860.497 -0.50771 -3.43973 0
M  V30 9112 H 859.82 -1.30514 -3.77897 0
M  V30 9113 H 861.26 -0.366486 -4.22413 0
M  V30 9114 C 859.719 0.77939 -3.27761 0
M  V30 9115 O 860.249 1.83876 -3.57145 0
M  V30 9116 N 858.455 0.739931 -2.81022 0
M  V30 9117 H 858.002 -0.122426 -2.57309 0
M  V30 9118 H 857.96 1.60147 -2.70556 0
M  V30 9119 N 861.732 1.21287 -1.00634 0
M  V30 9120 C 862.98 1.90013 -0.688438 0
M  V30 9121 C 863.301 1.78573 0.783365 0
M  V30 9122 O 862.571 1.1815 1.56261 0
M  V30 9123 H 861.151 0.703336 -0.251648 0
M  V30 9124 H 863.813 1.47346 -1.27574 0
M  V30 9125 H 862.909 2.96879 -0.962781 0
M  V30 9126 N 863.21 0.781244 1.36873 0
M  V30 9127 C 864.12 0.174981 2.33947 0
M  V30 9128 C 865.136 -0.668512 1.60645 0
M  V30 9129 O 866.312 -0.586213 1.9268 0
M  V30 9130 C 863.377 -0.686557 3.39834 0
M  V30 9131 C 862.438 0.174489 4.28945 0
M  V30 9132 C 861.671 -0.646024 5.29776 0
M  V30 9133 O 861.894 -1.88254 5.38439 0
M  V30 9134 O 860.828 -0.0502214 6.01879 0
M  V30 9135 H 864.654 0.977382 2.87543 0
M  V30 9136 H 862.239 0.542559 1.392 0
M  V30 9137 H 864.121 -1.1781 4.04597 0
M  V30 9138 H 862.796 -1.46699 2.8855 0
M  V30 9139 H 861.703 0.712604 3.6725 0
M  V30 9140 H 863.036 0.918232 4.83559 0
M  V30 9141 N 864.689 -1.48329 0.532571 0
M  V30 9142 C 865.914 -2.074 0.00147755 0
M  V30 9143 C 866.339 -1.38615 -1.27151 0
M  V30 9144 O 865.697 -0.452949 -1.75551 0
M  V30 9145 C 865.745 -3.60029 -0.202866 0
M  V30 9146 O 864.849 -3.92327 -1.27097 0
M  V30 9147 H 864.19 -0.662777 0.0402883 0
M  V30 9148 H 866.72 -1.90701 0.741224 0
M  V30 9149 H 866.73 -4.05783 -0.424722 0
M  V30 9150 H 865.405 -4.09496 0.727033 0
M  V30 9151 H 863.982 -3.58348 -1.03156 0
M  V30 9152 N 866.167 -0.267825 -1.55308 0
M  V30 9153 C 867.413 0.351556 -1.9973 0
M  V30 9154 C 867.746 1.56049 -1.15596 0
M  V30 9155 O 867.021 1.93203 -0.224274 0
M  V30 9156 C 867.304 0.74091 -3.52395 0
M  V30 9157 C 867.157 -0.474861 -4.47286 0
M  V30 9158 C 868.476 1.5801 -4.10756 0
M  V30 9159 H 865.595 0.126308 -0.726096 0
M  V30 9160 H 868.237 -0.373316 -1.86296 0
M  V30 9161 H 866.387 1.35851 -3.63973 0
M  V30 9162 H 868.059 -1.1134 -4.47662 0
M  V30 9163 H 866.302 -1.11425 -4.19246 0
M  V30 9164 H 866.973 -0.158782 -5.51772 0
M  V30 9165 H 869.449 1.05857 -4.0241 0
M  V30 9166 H 868.325 1.82135 -5.17801 0
M  V30 9167 H 868.586 2.55878 -3.60526 0
M  V30 9168 N 867.645 1.57599 0.00500368 0
M  V30 9169 C 868.592 2.08106 0.998025 0
M  V30 9170 C 869.562 0.975374 1.34446 0
M  V30 9171 O 870.747 1.24749 1.44369 0
M  V30 9172 C 867.887 2.58496 2.28635 0
M  V30 9173 C 867 3.82947 1.99939 0
M  V30 9174 C 866.135 4.21857 3.22816 0
M  V30 9175 C 865.174 5.39159 2.89783 0
M  V30 9176 N 864.311 5.73386 4.05183 0
M  V30 9177 H 869.151 2.92684 0.560385 0
M  V30 9178 H 866.688 1.44692 0.265053 0
M  V30 9179 H 868.646 2.85787 3.03943 0
M  V30 9180 H 867.276 1.768 2.70077 0
M  V30 9181 H 866.328 3.62594 1.1502 0
M  V30 9182 H 867.64 4.68358 1.71588 0
M  V30 9183 H 866.794 4.50404 4.06474 0
M  V30 9184 H 865.533 3.35145 3.54301 0
M  V30 9185 H 864.538 5.1034 2.04532 0
M  V30 9186 H 865.763 6.27543 2.59551 0
M  V30 9187 H 863.709 4.89632 4.36574 0
M  V30 9188 H 863.626 6.53359 3.80339 0
M  V30 9189 H 864.894 6.06522 4.89644 0
M  V30 9190 N 869.123 -0.277682 1.55134 0
M  V30 9191 C 870.053 -1.34742 1.90701 0
M  V30 9192 C 871.034 -1.51757 0.768354 0
M  V30 9193 O 872.219 -1.64879 1.02609 0
M  V30 9194 C 869.349 -2.70775 2.17481 0
M  V30 9195 C 868.303 -2.68497 3.33307 0
M  V30 9196 C 867.629 -4.08037 3.45557 0
M  V30 9197 C 868.929 -2.28178 4.69821 0
M  V30 9198 H 870.623 -1.05224 2.803 0
M  V30 9199 H 868.169 -0.504738 1.34864 0
M  V30 9200 H 870.122 -3.45719 2.40949 0
M  V30 9201 H 868.846 -3.01867 1.24676 0
M  V30 9202 H 867.505 -1.9601 3.09799 0
M  V30 9203 H 867.153 -4.36344 2.50226 0
M  V30 9204 H 866.853 -4.07409 4.23429 0
M  V30 9205 H 868.377 -4.84726 3.71312 0
M  V30 9206 H 869.791 -2.92843 4.92865 0
M  V30 9207 H 868.188 -2.3872 5.50575 0
M  V30 9208 H 869.258 -1.23308 4.6896 0
M  V30 9209 N 870.601 -1.47988 -0.541979 0
M  V30 9210 C 871.551 -1.58019 -1.64359 0
M  V30 9211 C 872.535 -0.438056 -1.54822 0
M  V30 9212 O 873.727 -0.688837 -1.63046 0
M  V30 9213 C 870.856 -1.61182 -3.03109 0
M  V30 9214 C 869.942 -2.80834 -3.17794 0
M  V30 9215 N 870.333 -4.05379 -3.02492 0
M  V30 9216 C 868.631 -2.77914 -3.48826 0
M  V30 9217 C 869.332 -4.85592 -3.20274 0
M  V30 9218 N 868.308 -4.18188 -3.47304 0
M  V30 9219 H 872.11 -2.52071 -1.5112 0
M  V30 9220 H 869.624 -1.44193 -0.747137 0
M  V30 9221 H 871.621 -1.66461 -3.82226 0
M  V30 9222 H 870.281 -0.682375 -3.17449 0
M  V30 9223 H 871.292 -4.36003 -2.79503 0
M  V30 9224 H 867.969 -1.94174 -3.69598 0
M  V30 9225 H 869.359 -5.94394 -3.13282 0
M  V30 9226 N 872.079 0.78992 -1.36375 0
M  V30 9227 C 873.009 1.91683 -1.33341 0
M  V30 9228 C 873.99 1.68861 -0.204965 0
M  V30 9229 O 875.175 1.89982 -0.402531 0
M  V30 9230 C 872.305 3.28696 -1.12143 0
M  V30 9231 C 871.259 3.66041 -2.21806 0
M  V30 9232 C 870.585 5.01399 -1.85751 0
M  V30 9233 C 871.885 3.74677 -3.63888 0
M  V30 9234 H 873.579 1.94478 -2.27637 0
M  V30 9235 H 871.125 0.934271 -1.09578 0
M  V30 9236 H 873.078 4.07151 -1.08656 0
M  V30 9237 H 871.802 3.26287 -0.142974 0
M  V30 9238 H 870.461 2.89883 -2.24418 0
M  V30 9239 H 870.109 4.9551 -0.864817 0
M  V30 9240 H 869.809 5.27355 -2.59173 0
M  V30 9241 H 871.333 5.82274 -1.83819 0
M  V30 9242 H 872.747 4.43324 -3.63506 0
M  V30 9243 H 871.144 4.12118 -4.3621 0
M  V30 9244 H 872.214 2.75795 -3.9883 0
M  V30 9245 N 873.557 1.20646 1.01402 0
M  V30 9246 C 874.467 0.973385 2.13453 0
M  V30 9247 C 875.483 -0.0715865 1.73853 0
M  V30 9248 O 876.659 0.116438 2.01063 0
M  V30 9249 C 873.724 0.531285 3.42605 0
M  V30 9250 C 872.785 1.64741 3.96433 0
M  V30 9251 C 872.018 1.22631 5.1942 0
M  V30 9252 O 872.241 0.0960891 5.70319 0
M  V30 9253 O 871.175 2.03474 5.66465 0
M  V30 9254 H 875.001 1.91164 2.35987 0
M  V30 9255 H 872.586 0.990553 1.11841 0
M  V30 9256 H 874.468 0.294095 4.20373 0
M  V30 9257 H 873.143 -0.378358 3.21481 0
M  V30 9258 H 872.05 1.93891 3.19933 0
M  V30 9259 H 873.383 2.53415 4.2195 0
M  V30 9260 N 875.035 -1.20752 1.01276 0
M  V30 9261 C 876.263 -1.94006 0.718976 0
M  V30 9262 C 876.678 -1.74544 -0.719711 0
M  V30 9263 O 876.035 -1.05697 -1.48776 0
M  V30 9264 C 876.086 -3.46208 1.04031 0
M  V30 9265 O 875.807 -3.65031 2.42248 0
M  V30 9266 C 877.308 -4.36614 0.767032 0
M  V30 9267 H 874.528 -0.616743 0.264327 0
M  V30 9268 H 877.072 -1.53352 1.3529 0
M  V30 9269 H 875.227 -3.84756 0.451852 0
M  V30 9270 H 875.641 -4.59054 2.53712 0
M  V30 9271 H 877.115 -5.42076 1.04198 0
M  V30 9272 H 877.592 -4.38182 -0.298851 0
M  V30 9273 H 878.198 -4.03723 1.33746 0
M  V30 9274 N 876.513 -0.788492 -1.36457 0
M  V30 9275 C 877.79 -0.284484 -1.9352 0
M  V30 9276 C 878.17 1.2232 -1.7205 0
M  V30 9277 O 877.518 2.01424 -1.07892 0
M  V30 9278 C 877.728 -0.676106 -3.42388 0
M  V30 9279 C 879.076 -0.655327 -4.19512 0
M  V30 9280 O 880.1 -0.616523 -3.50824 0
M  V30 9281 O 878.959 -0.697391 -5.42032 0
M  V30 9282 H 876.053 -0.0701769 -0.824017 0
M  V30 9283 H 878.599 -0.870974 -1.45644 0
M  V30 9284 H 877.371 -1.71596 -3.51668 0
M  V30 9285 H 876.994 -0.0634517 -3.97549 0
M  V30 9286 N 877.991 1.48044 -0.54043 0
M  V30 9287 C 879.216 2.07396 -0.0124765 0
M  V30 9288 C 879.641 1.39288 1.26414 0
M  V30 9289 O 878.999 0.462252 1.75308 0
M  V30 9290 C 879.047 3.60131 0.18377 0
M  V30 9291 O 878.151 3.92995 1.25014 0
M  V30 9292 H 877.492 0.662554 -0.0438026 0
M  V30 9293 H 880.022 1.90306 -0.751327 0
M  V30 9294 H 880.032 4.06003 0.403197 0
M  V30 9295 H 878.707 4.09105 -0.74874 0
M  V30 9296 H 877.284 3.5889 1.01254 0
M  V30 9297 N 879.47 0.276058 1.55163 0
M  V30 9298 C 880.4 -0.604633 2.25536 0
M  V30 9299 C 881.381 -1.15813 1.24585 0
M  V30 9300 O 882.566 -1.1921 1.53306 0
M  V30 9301 C 879.696 -1.78836 2.97716 0
M  V30 9302 C 878.65 -1.36635 4.05604 0
M  V30 9303 C 877.976 -2.63325 4.65364 0
M  V30 9304 C 879.276 -0.515858 5.19746 0
M  V30 9305 H 880.97 -0.0177483 2.99395 0
M  V30 9306 H 878.516 -0.00709627 1.43998 0
M  V30 9307 H 880.469 -2.41036 3.45658 0
M  V30 9308 H 879.193 -2.40109 2.21394 0
M  V30 9309 H 877.852 -0.767541 3.58475 0
M  V30 9310 H 877.5 -3.22858 3.85709 0
M  V30 9311 H 877.2 -2.358 5.38212 0
M  V30 9312 H 878.724 -3.26372 5.16056 0
M  V30 9313 H 880.138 -1.04289 5.63735 0
M  V30 9314 H 878.535 -0.335449 5.99162 0
M  V30 9315 H 879.605 0.465137 4.82664 0
M  V30 9316 N 880.948 -1.576 0.00335426 0
M  V30 9317 C 881.911 -2.07576 -0.971838 0
M  V30 9318 C 882.911 -0.985796 -1.27038 0
M  V30 9319 O 884.101 -1.24833 -1.21501 0
M  V30 9320 C 881.233 -2.52003 -2.29581 0
M  V30 9321 H 882.426 -2.95008 -0.539481 0
M  V30 9322 H 879.979 -1.54381 -0.244186 0
M  V30 9323 H 880.714 -1.67825 -2.77498 0
M  V30 9324 H 880.499 -3.31609 -2.09231 0
M  V30 9325 H 881.989 -2.90983 -2.99531 0
M  V30 9326 N 882.426 0.269451 -1.5528 0
M  V30 9327 C 883.356 1.33729 -1.91413 0
M  V30 9328 C 884.337 1.51348 -0.776391 0
M  V30 9329 O 885.522 1.64332 -1.03482 0
M  V30 9330 C 882.652 2.69618 -2.18914 0
M  V30 9331 C 881.606 2.66725 -3.34726 0
M  V30 9332 C 880.932 4.06199 -3.47716 0
M  V30 9333 C 882.232 2.25684 -4.71025 0
M  V30 9334 H 883.926 1.03736 -2.80854 0
M  V30 9335 H 881.472 0.497579 -1.3513 0
M  V30 9336 H 883.425 3.44436 -2.42779 0
M  V30 9337 H 882.149 3.01201 -1.26275 0
M  V30 9338 H 880.808 1.94365 -3.10834 0
M  V30 9339 H 880.456 4.3501 -2.52537 0
M  V30 9340 H 880.156 4.05157 -4.25583 0
M  V30 9341 H 881.68 4.8275 -3.73877 0
M  V30 9342 H 883.094 2.90225 -4.94411 0
M  V30 9343 H 881.491 2.35797 -5.51833 0
M  V30 9344 H 882.561 1.20819 -4.69607 0
M  V30 9345 N 883.904 1.48273 0.534124 0
M  V30 9346 C 885.15 1.56311 1.29208 0
M  V30 9347 C 885.483 0.234481 1.92779 0
M  V30 9348 O 884.758 -0.759143 1.79073 0
M  V30 9349 C 885.041 2.69831 2.3846 0
M  V30 9350 C 884.894 4.12385 1.79608 0
M  V30 9351 C 886.213 2.79133 3.40254 0
M  V30 9352 H 883.332 0.56899 0.468422 0
M  V30 9353 H 885.974 1.80429 0.595438 0
M  V30 9354 H 884.124 2.49397 2.97881 0
M  V30 9355 H 885.796 4.44246 1.24269 0
M  V30 9356 H 884.039 4.19579 1.10162 0
M  V30 9357 H 884.71 4.87629 2.58693 0
M  V30 9358 H 887.186 2.97632 2.90783 0
M  V30 9359 H 886.062 3.60298 4.14097 0
M  V30 9360 H 886.323 1.87122 4.00547 0
M  V30 9361 N 885.382 -0.782676 1.36792 0
M  V30 9362 C 886.345 -1.8772 1.31507 0
M  V30 9363 C 887.345 -1.59269 0.221349 0
M  V30 9364 O 888.535 -1.67555 0.476544 0
M  V30 9365 C 885.667 -3.24641 1.04025 0
M  V30 9366 H 886.86 -1.9382 2.28853 0
M  V30 9367 H 884.413 -0.981226 1.21662 0
M  V30 9368 H 885.148 -3.24221 0.0716439 0
M  V30 9369 H 884.933 -3.46681 1.8318 0
M  V30 9370 H 886.423 -4.04711 1.02949 0
M  V30 9371 N 886.86 -1.21182 -1.00761 0
M  V30 9372 C 887.79 -0.992773 -2.11344 0
M  V30 9373 C 888.771 0.0813618 -1.69905 0
M  V30 9374 O 889.956 -0.0779503 -1.94043 0
M  V30 9375 C 887.086 -0.553826 -3.42856 0
M  V30 9376 C 886.04 -1.57223 -3.98077 0
M  V30 9377 C 885.366 -0.989605 -5.25463 0
M  V30 9378 C 886.666 -2.95839 -4.30438 0
M  V30 9379 H 888.36 -1.91766 -2.29927 0
M  V30 9380 H 885.906 -0.923426 -1.10494 0
M  V30 9381 H 887.859 -0.387771 -4.19612 0
M  V30 9382 H 886.583 0.406702 -3.24058 0
M  V30 9383 H 885.242 -1.7258 -3.23437 0
M  V30 9384 H 884.89 -0.0208743 -5.02996 0
M  V30 9385 H 884.59 -1.66984 -5.63374 0
M  V30 9386 H 886.114 -0.834815 -6.04866 0
M  V30 9387 H 887.528 -2.8394 -4.98047 0
M  V30 9388 H 885.925 -3.60851 -4.79486 0
M  V30 9389 H 886.995 -3.46882 -3.38823 0
M  V30 9390 N 888.338 1.20213 -1.01915 0
M  V30 9391 C 889.586 1.89272 -0.708552 0
M  V30 9392 C 889.907 1.79394 0.76438 0
M  V30 9393 O 889.177 1.198 1.54999 0
M  V30 9394 H 887.757 0.700628 -0.259094 0
M  V30 9395 H 890.419 1.45985 -1.29129 0
M  V30 9396 H 889.515 2.95841 -0.994215 0
M  V30 9397 N 889.816 0.795718 1.36037 0
M  V30 9398 C 890.779 0.204318 2.28287 0
M  V30 9399 C 891.779 -0.602017 1.49105 0
M  V30 9400 O 892.969 -0.422089 1.69009 0
M  V30 9401 C 890.101 -0.716431 3.33287 0
M  V30 9402 H 891.294 1.01781 2.821 0
M  V30 9403 H 888.847 0.565588 1.45708 0
M  V30 9404 H 889.582 -1.55403 2.84641 0
M  V30 9405 H 889.367 -0.140096 3.9185 0
M  V30 9406 H 890.857 -1.12488 4.02164 0
M  V30 9407 N 891.294 -1.47756 0.548274 0
M  V30 9408 C 892.224 -2.32702 -0.19284 0
M  V30 9409 C 893.205 -1.43237 -0.917457 0
M  V30 9410 O 894.39 -1.72103 -0.89967 0
M  V30 9411 C 891.52 -3.24831 -1.22891 0
M  V30 9412 C 890.474 -4.23466 -0.621312 0
M  V30 9413 C 889.8 -5.04856 -1.76137 0
M  V30 9414 C 891.1 -5.20616 0.419055 0
M  V30 9415 H 892.794 -2.94914 0.516323 0
M  V30 9416 H 890.34 -1.41818 0.24975 0
M  V30 9417 H 892.293 -3.83094 -1.75547 0
M  V30 9418 H 891.017 -2.60656 -1.9679 0
M  V30 9419 H 889.676 -3.66416 -0.116123 0
M  V30 9420 H 889.324 -4.37091 -2.48918 0
M  V30 9421 H 889.024 -5.71629 -1.36065 0
M  V30 9422 H 890.548 -5.65976 -2.29136 0
M  V30 9423 H 891.962 -5.73296 -0.0211034 0
M  V30 9424 H 890.359 -5.95543 0.738163 0
M  V30 9425 H 891.429 -4.66638 1.31822 0
M  V30 9426 N 892.772 -0.284283 -1.55015 0
M  V30 9427 C 894.049 0.382125 -1.91831 0
M  V30 9428 C 894.429 1.73007 -1.20962 0
M  V30 9429 O 893.777 2.25962 -0.339594 0
M  V30 9430 C 893.987 0.513341 -3.45204 0
M  V30 9431 C 895.335 0.791989 -4.17148 0
M  V30 9432 O 896.359 0.597799 -3.51148 0
M  V30 9433 O 895.218 1.16394 -5.33961 0
M  V30 9434 H 892.312 0.210707 -0.799707 0
M  V30 9435 H 894.858 -0.331111 -1.66438 0
M  V30 9436 H 893.63 -0.434911 -3.88876 0
M  V30 9437 H 893.253 1.27569 -3.76579 0
M  V30 9438 N 894.251 1.57596 -0.0117121 0
M  V30 9439 C 895.479 1.9536 0.681334 0
M  V30 9440 C 895.894 0.887255 1.66653 0
M  V30 9441 O 895.251 -0.132692 1.82017 0
M  V30 9442 C 895.302 3.33165 1.40298 0
M  V30 9443 O 895.023 4.35707 0.45728 0
M  V30 9444 C 896.524 3.85458 2.18946 0
M  V30 9445 H 893.744 0.643826 0.189023 0
M  V30 9446 H 896.288 2.04392 -0.066311 0
M  V30 9447 H 894.443 3.25404 2.10216 0
M  V30 9448 H 894.857 5.15495 0.96773 0
M  V30 9449 H 896.331 4.84275 2.64918 0
M  V30 9450 H 896.808 3.18781 3.02118 0
M  V30 9451 H 897.414 3.96431 1.5402 0
M  V30 9452 N 895.729 -0.261212 1.5542 0
M  V30 9453 C 896.692 -1.30645 1.8832 0
M  V30 9454 C 897.692 -1.41782 0.758588 0
M  V30 9455 O 898.882 -1.40729 1.02669 0
M  V30 9456 C 896.014 -2.6862 2.09895 0
M  V30 9457 H 897.207 -1.02698 2.81768 0
M  V30 9458 H 894.76 -0.499838 1.48092 0
M  V30 9459 H 895.495 -3.0173 1.18868 0
M  V30 9460 H 895.28 -2.61921 2.91787 0
M  V30 9461 H 896.77 -3.44121 2.36581 0
M  V30 9462 N 897.207 -1.48554 -0.526253 0
M  V30 9463 C 898.137 -1.66252 -1.63959 0
M  V30 9464 C 899.118 -0.511351 -1.62232 0
M  V30 9465 O 900.303 -0.744322 -1.7937 0
M  V30 9466 C 897.433 -1.70556 -3.02536 0
M  V30 9467 C 896.387 -2.8521 -3.19123 0
M  V30 9468 C 895.713 -2.74606 -4.58798 0
M  V30 9469 C 897.013 -4.26463 -3.0154 0
M  V30 9470 H 898.707 -2.59459 -1.49404 0
M  V30 9471 H 896.253 -1.24862 -0.717326 0
M  V30 9472 H 898.206 -1.81524 -3.80298 0
M  V30 9473 H 896.93 -0.739297 -3.18123 0
M  V30 9474 H 895.589 -2.73802 -2.43779 0
M  V30 9475 H 895.237 -1.75941 -4.71226 0
M  V30 9476 H 894.937 -3.51544 -4.70841 0
M  V30 9477 H 896.461 -2.87548 -5.38655 0
M  V30 9478 H 897.875 -4.38685 -3.69091 0
M  V30 9479 H 896.272 -5.04428 -3.25073 0
M  V30 9480 H 897.342 -4.42667 -1.97925 0
M  V30 9481 N 898.685 0.775411 -1.37205 0
M  V30 9482 C 899.915 1.56219 -1.352 0
M  V30 9483 C 900.323 1.89087 0.065456 0
M  V30 9484 O 899.666 1.51655 1.03665 0
M  V30 9485 C 899.728 2.9019 -2.12203 0
M  V30 9486 C 899.392 2.79978 -3.61195 0
M  V30 9487 C 900.389 2.51258 -4.55154 0
M  V30 9488 C 898.074 2.98115 -4.04268 0
M  V30 9489 C 900.068 2.40798 -5.90165 0
M  V30 9490 C 897.755 2.87276 -5.39366 0
M  V30 9491 C 898.753 2.58657 -6.32128 0
M  V30 9492 O 898.441 2.47838 -7.64743 0
M  V30 9493 H 898.173 0.490735 -0.464925 0
M  V30 9494 H 900.727 0.969201 -1.81096 0
M  V30 9495 H 898.957 3.51594 -1.60992 0
M  V30 9496 H 900.646 3.51561 -2.02879 0
M  V30 9497 H 901.412 2.36935 -4.23186 0
M  V30 9498 H 897.291 3.19392 -3.3243 0
M  V30 9499 H 900.835 2.18381 -6.62537 0
M  V30 9500 H 896.732 3.01166 -5.70937 0
M  V30 9501 H 897.5 2.63215 -7.75023 0
M  V30 9502 N 900.163 1.21714 1.00117 0
M  V30 9503 C 901.126 0.981338 2.07129 0
M  V30 9504 C 902.126 -0.0491116 1.60725 0
M  V30 9505 O 903.316 0.188555 1.73177 0
M  V30 9506 C 900.448 0.480608 3.37495 0
M  V30 9507 H 901.641 1.93075 2.29482 0
M  V30 9508 H 899.194 1.03467 1.17151 0
M  V30 9509 H 899.929 -0.473552 3.20824 0
M  V30 9510 H 899.714 1.22393 3.72508 0
M  V30 9511 H 901.204 0.33561 4.16249 0
M  V30 9512 N 901.641 -1.19671 1.02551 0
M  V30 9513 C 902.604 -2.20987 0.608055 0
M  V30 9514 C 903.604 -1.5745 -0.326534 0
M  V30 9515 O 904.794 -1.73827 -0.114003 0
M  V30 9516 C 901.926 -3.4072 -0.11074 0
M  V30 9517 H 903.119 -2.59434 1.50446 0
M  V30 9518 H 900.672 -1.3329 0.816307 0
M  V30 9519 H 901.407 -3.07787 -1.02165 0
M  V30 9520 H 901.192 -3.88069 0.560772 0
M  V30 9521 H 902.682 -4.15776 -0.389848 0
M  V30 9522 N 903.119 -0.802921 -1.35613 0
M  V30 9523 C 904.367 -0.380822 -1.9848 0
M  V30 9524 C 904.688 1.05464 -1.6402 0
M  V30 9525 O 903.958 1.72908 -0.920854 0
M  V30 9526 H 902.538 -0.137824 -0.734176 0
M  V30 9527 H 905.2 -1.02795 -1.65587 0
M  V30 9528 H 904.296 -0.483565 -3.08331 0
M  V30 9529 N 904.597 1.47463 -0.556102 0
M  V30 9530 C 905.822 2.07371 -0.0344729 0
M  V30 9531 C 906.247 1.40621 1.2493 0
M  V30 9532 O 905.605 0.48082 1.74808 0
M  V30 9533 C 905.653 3.60306 0.145563 0
M  V30 9534 O 904.757 3.94299 1.20839 0
M  V30 9535 H 904.098 0.662052 -0.0508274 0
M  V30 9536 H 906.628 1.89498 -0.771469 0
M  V30 9537 H 906.638 4.06408 0.360112 0
M  V30 9538 H 905.313 4.08288 -0.792089 0
M  V30 9539 H 903.89 3.59944 0.97442 0
M  V30 9540 N 906.075 0.2925 1.54862 0
M  V30 9541 C 907.022 -0.587365 2.23201 0
M  V30 9542 C 907.992 -1.13623 1.21157 0
M  V30 9543 O 909.177 -1.18233 1.49752 0
M  V30 9544 C 906.317 -1.75745 2.96998 0
M  V30 9545 C 905.43 -1.24078 4.13798 0
M  V30 9546 C 904.565 -2.37405 4.75197 0
M  V30 9547 C 903.604 -1.82829 5.84157 0
M  V30 9548 N 902.741 -2.89696 6.39547 0
M  V30 9549 H 907.581 0.00202207 2.98 0
M  V30 9550 H 905.118 0.012766 1.47094 0
M  V30 9551 H 907.076 -2.44549 3.38011 0
M  V30 9552 H 905.706 -2.3186 2.24591 0
M  V30 9553 H 904.758 -0.445268 3.77785 0
M  V30 9554 H 906.07 -0.801186 4.92324 0
M  V30 9555 H 905.224 -3.14172 5.19019 0
M  V30 9556 H 903.963 -2.84688 3.95985 0
M  V30 9557 H 902.968 -1.04548 5.39768 0
M  V30 9558 H 904.193 -1.36461 6.65248 0
M  V30 9559 H 902.139 -3.36328 5.63222 0
M  V30 9560 H 902.056 -2.50206 7.13395 0
M  V30 9561 H 903.324 -3.66386 6.88027 0
M  V30 9562 N 907.553 -1.57587 0.0200696 0
M  V30 9563 C 908.778 -1.96124 -0.674547 0
M  V30 9564 C 909.203 -0.896068 -1.65385 0
M  V30 9565 O 908.561 0.143925 -1.80728 0
M  V30 9566 C 908.609 -3.3376 -1.36517 0
M  V30 9567 O 907.713 -3.29483 -2.48022 0
M  V30 9568 H 907.054 -0.639719 -0.177919 0
M  V30 9569 H 909.584 -2.04447 0.0792317 0
M  V30 9570 H 909.594 -3.69785 -1.72403 0
M  V30 9571 H 908.269 -4.10832 -0.647265 0
M  V30 9572 H 906.846 -3.05162 -2.14314 0
M  V30 9573 N 909.032 0.252966 -1.55557 0
M  V30 9574 C 909.982 1.31585 -1.86197 0
M  V30 9575 C 910.966 1.43773 -0.722357 0
M  V30 9576 O 912.158 1.47117 -0.984152 0
M  V30 9577 C 909.287 2.67245 -2.15487 0
M  V30 9578 C 908.373 2.59087 -3.3576 0
M  V30 9579 N 908.764 2.20556 -4.5518 0
M  V30 9580 C 907.062 2.90112 -3.3875 0
M  V30 9581 C 907.763 2.22881 -5.37307 0
M  V30 9582 N 906.739 2.62145 -4.76215 0
M  V30 9583 H 910.541 1.00835 -2.76061 0
M  V30 9584 H 908.055 0.461598 -1.55702 0
M  V30 9585 H 910.052 3.43944 -2.35602 0
M  V30 9586 H 908.712 2.98867 -1.26919 0
M  V30 9587 H 909.723 1.922 -4.80915 0
M  V30 9588 H 906.4 3.26313 -2.60434 0
M  V30 9589 H 907.79 1.95482 -6.42835 0
M  V30 9590 N 910.51 1.48831 0.518367 0
M  V30 9591 C 911.457 1.64216 1.62178 0
M  V30 9592 C 912.427 0.483942 1.58894 0
M  V30 9593 O 913.612 0.708857 1.77144 0
M  V30 9594 C 910.752 1.69867 3.00399 0
M  V30 9595 C 909.865 2.96875 3.1383 0
M  V30 9596 C 909 2.93613 4.42679 0
M  V30 9597 C 908.039 4.15276 4.4968 0
M  V30 9598 N 907.176 4.10024 5.69934 0
M  V30 9599 H 912.016 2.58439 1.48368 0
M  V30 9600 H 909.553 1.28154 0.722152 0
M  V30 9601 H 911.511 1.71124 3.8049 0
M  V30 9602 H 910.141 0.791249 3.12952 0
M  V30 9603 H 909.193 3.0531 2.26914 0
M  V30 9604 H 910.505 3.86863 3.14863 0
M  V30 9605 H 909.659 2.93337 5.31073 0
M  V30 9606 H 908.398 2.01375 4.44184 0
M  V30 9607 H 907.403 4.15816 3.59691 0
M  V30 9608 H 908.628 5.08687 4.49904 0
M  V30 9609 H 906.574 3.20613 5.72314 0
M  V30 9610 H 906.491 4.93728 5.72511 0
M  V30 9611 H 907.759 4.13824 6.60583 0
M  V30 9612 N 911.988 -0.768124 1.37614 0
M  V30 9613 C 913.399 -1.34462 1.29525 0
M  V30 9614 C 913.75 -1.96121 -0.0555168 0
M  V30 9615 O 912.875 -1.94069 -0.957406 0
M  V30 9616 C 913.47 -2.44475 2.34558 0
M  V30 9617 C 912.029 -2.97883 2.30093 0
M  V30 9618 C 911.176 -1.71131 2.18196 0
M  V30 9619 H 914.127 -0.568103 1.48183 0
M  V30 9620 H 914.148 -3.24047 1.99434 0
M  V30 9621 H 913.66 -1.99568 3.32858 0
M  V30 9622 H 911.761 -3.47156 1.35328 0
M  V30 9623 H 911.874 -3.53251 3.23652 0
M  V30 9624 H 910.238 -1.94197 1.64802 0
M  V30 9625 H 911.021 -1.28323 3.18415 0
M  V30 9626 N 913.466 -1.22244 -0.994698 0
M  V30 9627 C 914.396 -1.01513 -2.10279 0
M  V30 9628 C 915.377 0.0633365 -1.69982 0
M  V30 9629 O 916.562 -0.0985268 -1.9395 0
M  V30 9630 C 913.692 -0.59016 -3.42249 0
M  V30 9631 C 912.646 -1.61436 -3.96387 0
M  V30 9632 C 911.972 -1.04528 -5.24383 0
M  V30 9633 C 913.272 -3.00388 -4.27276 0
M  V30 9634 H 914.966 -1.94194 -2.2788 0
M  V30 9635 H 912.512 -0.935094 -1.09508 0
M  V30 9636 H 914.465 -0.432254 -4.19177 0
M  V30 9637 H 913.189 0.372308 -3.24471 0
M  V30 9638 H 911.848 -1.76001 -3.21589 0
M  V30 9639 H 911.496 -0.0742225 -5.02945 0
M  V30 9640 H 911.196 -1.72949 -5.61571 0
M  V30 9641 H 912.72 -0.898922 -6.03947 0
M  V30 9642 H 914.134 -2.89207 -4.95007 0
M  V30 9643 H 912.531 -3.65916 -4.75631 0
M  V30 9644 H 913.601 -3.50456 -3.35125 0
M  V30 9645 N 914.944 1.19125 -1.03184 0
M  V30 9646 C 915.892 2.24492 -0.608781 0
M  V30 9647 C 916.886 1.65529 0.360065 0
M  V30 9648 O 918.092 1.78546 0.22832 0
M  V30 9649 H 914.467 0.73048 -0.178616 0
M  V30 9650 H 916.438 2.5749 -1.50803 0
M  V30 9651 C 915.187 3.47693 0.0215126 0
M  V30 9652 H 914.51 3.93354 -0.715024 0
M  V30 9653 H 915.95 4.23072 0.280429 0
M  V30 9654 C 914.409 3.12088 1.26896 0
M  V30 9655 O 914.939 3.25013 2.36071 0
M  V30 9656 N 913.145 2.66494 1.15886 0
M  V30 9657 H 912.692 2.56176 0.270463 0
M  V30 9658 H 912.65 2.43042 1.99444 0
M  V30 9659 N 916.422 0.810101 1.35185 0
M  V30 9660 C 917.355 0.168416 2.27578 0
M  V30 9661 C 918.333 -0.667664 1.4826 0
M  V30 9662 O 919.517 -0.634184 1.77512 0
M  V30 9663 C 916.644 -0.765994 3.29925 0
M  V30 9664 C 915.69 -0.00908802 4.26499 0
M  V30 9665 S 916.523 1.32936 5.18737 0
M  V30 9666 C 917.679 0.399485 6.24624 0
M  V30 9667 H 917.912 0.951753 2.81654 0
M  V30 9668 H 915.445 0.60534 1.42039 0
M  V30 9669 H 917.403 -1.2996 3.89385 0
M  V30 9670 H 916.064 -1.52275 2.7472 0
M  V30 9671 H 915.257 -0.718919 4.98846 0
M  V30 9672 H 914.859 0.454663 3.71226 0
M  V30 9673 H 917.151 -0.413904 6.76234 0
M  V30 9674 H 918.094 1.09225 6.99625 0
M  V30 9675 H 918.502 -0.00638358 5.645 0
M  V30 9676 N 917.9 -1.47166 0.563914 0
M  V30 9677 C 919.148 -2.02056 0.0422873 0
M  V30 9678 C 919.469 -1.43992 -1.31497 0
M  V30 9679 O 918.739 -0.617578 -1.85911 0
M  V30 9680 H 917.319 -0.746893 0.0126427 0
M  V30 9681 H 919.981 -1.80492 0.735441 0
M  V30 9682 H 919.077 -3.12073 -0.0408044 0
M  V30 9683 N 919.378 -0.300708 -1.54705 0
M  V30 9684 C 920.325 0.57552 -2.23509 0
M  V30 9685 C 921.295 1.12979 -1.21758 0
M  V30 9686 O 922.48 1.17437 -1.50377 0
M  V30 9687 C 919.62 1.74167 -2.97926 0
M  V30 9688 C 918.733 1.21882 -4.1445 0
M  V30 9689 C 917.868 2.34881 -4.7645 0
M  V30 9690 C 916.907 1.79729 -5.85119 0
M  V30 9691 N 916.044 2.863 -6.41075 0
M  V30 9692 H 920.884 -0.0178257 -2.97995 0
M  V30 9693 H 918.421 -0.0205666 -1.47086 0
M  V30 9694 H 920.379 2.42753 -3.39303 0
M  V30 9695 H 919.009 2.30665 -2.25817 0
M  V30 9696 H 918.061 0.425227 -3.78016 0
M  V30 9697 H 919.373 0.775065 -4.92741 0
M  V30 9698 H 918.527 3.11415 -5.20678 0
M  V30 9699 H 917.266 2.82584 -3.97489 0
M  V30 9700 H 916.271 1.01684 -5.40315 0
M  V30 9701 H 917.496 1.32931 -6.65963 0
M  V30 9702 H 915.442 3.33337 -5.64998 0
M  V30 9703 H 915.359 2.46419 -7.14712 0
M  V30 9704 H 916.627 3.62732 -6.89961 0
M  V30 9705 N 920.856 1.57574 -0.0284266 0
M  V30 9706 C 922.102 1.92056 0.651327 0
M  V30 9707 C 922.435 0.905092 1.71819 0
M  V30 9708 O 921.71 -0.0722703 1.94366 0
M  V30 9709 C 921.993 3.37021 1.26841 0
M  V30 9710 C 921.846 4.49304 0.211157 0
M  V30 9711 C 923.165 3.81936 2.18662 0
M  V30 9712 H 920.284 0.698428 0.235304 0
M  V30 9713 H 922.926 1.89807 -0.0855435 0
M  V30 9714 H 921.076 3.39068 1.89644 0
M  V30 9715 H 922.748 4.5939 -0.419379 0
M  V30 9716 H 920.991 4.31317 -0.463445 0
M  V30 9717 H 921.662 5.47764 0.682518 0
M  V30 9718 H 924.138 3.8162 1.65847 0
M  V30 9719 H 923.014 4.84064 2.58792 0
M  V30 9720 H 923.275 3.174 3.07749 0
M  V30 9721 N 922.334 -0.244713 1.55689 0
M  V30 9722 C 923.581 -0.972446 1.77622 0
M  V30 9723 C 923.909 -1.85235 0.593137 0
M  V30 9724 O 923.164 -1.91064 -0.423464 0
M  V30 9725 C 923.463 -1.8617 3.05083 0
M  V30 9726 C 923.129 -1.13696 4.3633 0
M  V30 9727 C 921.791 -0.936679 4.71996 0
M  V30 9728 C 924.143 -0.623451 5.17458 0
M  V30 9729 C 921.471 -0.210612 5.86322 0
M  V30 9730 C 923.823 0.0891587 6.32537 0
M  V30 9731 C 922.487 0.300904 6.66821 0
M  V30 9732 H 921.757 -0.355843 0.649967 0
M  V30 9733 H 924.404 -0.242372 1.8996 0
M  V30 9734 H 922.709 -2.6589 2.87767 0
M  V30 9735 H 924.406 -2.4265 3.19253 0
M  V30 9736 H 920.996 -1.30301 4.08313 0
M  V30 9737 H 925.18 -0.765725 4.90357 0
M  V30 9738 H 920.436 -0.0361062 6.11389 0
M  V30 9739 H 924.61 0.494685 6.94641 0
M  V30 9740 H 922.237 0.865466 7.55257 0
M  V30 9741 N 923.813 -1.49104 -0.510467 0
M  V30 9742 C 924.723 -1.67792 -1.6396 0
M  V30 9743 C 925.739 -0.560454 -1.64727 0
M  V30 9744 O 926.915 -0.833985 -1.83321 0
M  V30 9745 C 923.98 -1.73154 -3.00364 0
M  V30 9746 C 923.041 -2.9667 -3.10299 0
M  V30 9747 C 922.274 -3.01767 -4.40196 0
M  V30 9748 O 922.497 -2.1472 -5.28443 0
M  V30 9749 O 921.431 -3.94137 -4.54906 0
M  V30 9750 H 925.257 -2.63428 -1.51126 0
M  V30 9751 H 922.842 -1.32734 -0.685719 0
M  V30 9752 H 924.724 -1.79089 -3.81451 0
M  V30 9753 H 923.399 -0.806952 -3.1348 0
M  V30 9754 H 922.306 -2.96257 -2.28435 0
M  V30 9755 H 923.639 -3.88578 -3.02106 0
M  V30 9756 N 925.291 0.760815 -1.38019 0
M  V30 9757 C 926.254 1.85604 -1.34476 0
M  V30 9758 C 927.254 1.58897 -0.24666 0
M  V30 9759 O 928.444 1.66776 -0.50314 0
M  V30 9760 C 925.576 3.22945 -1.09176 0
M  V30 9761 H 926.769 1.90155 -2.31908 0
M  V30 9762 H 924.322 0.961746 -1.23208 0
M  V30 9763 H 925.057 3.24066 -0.123216 0
M  V30 9764 H 924.842 3.43723 -1.88672 0
M  V30 9765 H 926.332 4.03022 -1.09375 0
M  V30 9766 N 926.769 1.22769 0.988202 0
M  V30 9767 C 927.702 0.945196 2.07705 0
M  V30 9768 C 928.68 -0.11363 1.62202 0
M  V30 9769 O 929.864 0.0189624 1.8849 0
M  V30 9770 C 926.991 0.422474 3.36055 0
M  V30 9771 C 926.037 1.4667 4.00487 0
M  V30 9772 S 926.87 3.04158 4.40736 0
M  V30 9773 C 928.026 2.53536 5.7225 0
M  V30 9774 H 928.259 1.86723 2.31348 0
M  V30 9775 H 925.792 1.05928 1.12333 0
M  V30 9776 H 927.75 0.12748 4.10302 0
M  V30 9777 H 926.411 -0.478515 3.10434 0
M  V30 9778 H 925.604 1.05093 4.92921 0
M  V30 9779 H 925.206 1.71064 3.32585 0
M  V30 9780 H 927.498 1.95069 6.4881 0
M  V30 9781 H 928.441 3.44479 6.1866 0
M  V30 9782 H 928.849 1.94658 5.29876 0
M  V30 9783 N 928.247 -1.18576 1.03814 0
M  V30 9784 C 929.195 -2.24166 0.620678 0
M  V30 9785 C 930.189 -1.65718 -0.351282 0
M  V30 9786 O 931.395 -1.78665 -0.218848 0
M  V30 9787 H 927.77 -0.729522 0.182487 0
M  V30 9788 H 929.741 -2.56686 1.52166 0
M  V30 9789 C 928.49 -3.477 -0.00307331 0
M  V30 9790 H 927.813 -3.92969 0.735874 0
M  V30 9791 H 929.253 -4.23214 -0.257988 0
M  V30 9792 C 927.712 -3.12757 -1.2524 0
M  V30 9793 O 928.242 -3.26261 -2.34344 0
M  V30 9794 N 926.448 -2.67104 -1.14471 0
M  V30 9795 H 925.995 -2.56316 -0.256873 0
M  V30 9796 H 925.953 -2.44096 -1.98153 0
M  V30 9797 N 929.725 -0.817259 -1.34754 0
M  V30 9798 C 930.95 -0.414423 -2.03217 0
M  V30 9799 C 931.375 0.970037 -1.61158 0
M  V30 9800 O 930.733 1.63016 -0.793436 0
M  V30 9801 C 930.781 -0.518087 -3.56859 0
M  V30 9802 O 929.885 0.464314 -4.09778 0
M  V30 9803 H 929.226 -0.171454 -0.641482 0
M  V30 9804 H 931.756 -1.10611 -1.72123 0
M  V30 9805 H 931.766 -0.391779 -4.06115 0
M  V30 9806 H 930.441 -1.52786 -3.86819 0
M  V30 9807 H 929.018 0.297361 -3.71712 0
M  V30 9808 N 931.203 1.46865 -0.571711 0
M  V30 9809 C 932.433 2.06518 -0.0583129 0
M  V30 9810 C 932.841 1.4227 1.24723 0
M  V30 9811 O 932.184 0.518293 1.76237 0
M  V30 9812 C 932.246 3.5898 0.193214 0
M  V30 9813 C 931.91 4.45355 -1.02507 0
M  V30 9814 C 932.907 4.82575 -1.93435 0
M  V30 9815 C 930.592 4.86656 -1.24382 0
M  V30 9816 C 932.586 5.59912 -3.04595 0
M  V30 9817 C 930.273 5.63754 -2.35849 0
M  V30 9818 C 931.271 6.00294 -3.25785 0
M  V30 9819 O 930.959 6.75836 -4.35318 0
M  V30 9820 H 930.691 0.674188 -0.0494584 0
M  V30 9821 H 933.245 1.89644 -0.788934 0
M  V30 9822 H 931.475 3.7412 0.978319 0
M  V30 9823 H 933.164 4.006 0.653769 0
M  V30 9824 H 933.93 4.51256 -1.77745 0
M  V30 9825 H 929.809 4.57672 -0.55292 0
M  V30 9826 H 933.353 5.88351 -3.74818 0
M  V30 9827 H 929.25 5.94487 -2.51506 0
M  V30 9828 H 930.018 6.94247 -4.33547 0
M  V30 9829 N 932.681 0.308908 1.54543 0
M  V30 9830 C 933.958 -0.351558 1.92415 0
M  V30 9831 C 934.338 -1.71061 1.23699 0
M  V30 9832 O 933.686 -2.25394 0.3755 0
M  V30 9833 C 933.896 -0.458357 3.45977 0
M  V30 9834 C 935.244 -0.725524 4.18355 0
M  V30 9835 O 936.268 -0.541859 3.52054 0
M  V30 9836 O 935.127 -1.07884 5.35745 0
M  V30 9837 H 932.221 -0.197957 0.802958 0
M  V30 9838 H 934.767 0.357548 1.65891 0
M  V30 9839 H 933.539 0.496723 3.88134 0
M  V30 9840 H 933.162 -1.21562 3.78561 0
M  V30 9841 N 934.159 -1.57557 0.0367827 0
M  V30 9842 C 935.089 -2.13712 -0.940719 0
M  V30 9843 C 936.07 -1.05515 -1.33419 0
M  V30 9844 O 937.255 -1.33385 -1.41146 0
M  V30 9845 C 934.385 -2.67043 -2.22048 0
M  V30 9846 C 933.339 -3.80096 -1.96752 0
M  V30 9847 C 932.665 -4.19886 -3.31059 0
M  V30 9848 C 933.965 -5.05848 -1.30058 0
M  V30 9849 H 935.659 -2.9564 -0.473033 0
M  V30 9850 H 933.205 -1.42214 -0.226089 0
M  V30 9851 H 935.158 -3.04964 -2.90818 0
M  V30 9852 H 933.882 -1.82287 -2.70996 0
M  V30 9853 H 932.541 -3.42625 -1.30398 0
M  V30 9854 H 932.189 -3.32101 -3.77781 0
M  V30 9855 H 931.889 -4.96073 -3.14937 0
M  V30 9856 H 933.413 -4.60395 -4.01084 0
M  V30 9857 H 934.827 -5.41306 -1.8884 0
M  V30 9858 H 933.224 -5.87084 -1.24309 0
M  V30 9859 H 934.294 -4.84122 -0.274591 0
M  V30 9860 N 935.637 0.236453 -1.55816 0
M  V30 9861 C 936.885 0.96111 -1.77784 0
M  V30 9862 C 937.206 1.85454 -0.602648 0
M  V30 9863 O 936.476 1.92157 0.381137 0
M  V30 9864 H 935.056 0.35787 -0.655697 0
M  V30 9865 H 937.718 0.251888 -1.93265 0
M  V30 9866 H 936.814 1.5767 -2.69345 0
M  V30 9867 N 937.115 1.49373 0.502552 0
M  V30 9868 C 938.355 1.60398 1.26696 0
M  V30 9869 C 938.719 0.283599 1.89894 0
M  V30 9870 O 939.92 0.269022 2.6745 0
M  V30 9871 C 938.191 2.72998 2.30666 0
M  V30 9872 S 939.75 3.03964 3.16466 0
M  V30 9873 H 936.568 0.565781 0.430596 0
M  V30 9874 H 939.17 1.87024 0.569418 0
M  V30 9875 H 937.874 3.67458 1.82765 0
M  V30 9876 H 937.405 2.4836 3.05091 0
M  V30 9877 H 939.42 2.45367 4.31288 0
M  V30 9878 N 938.594 -0.753485 1.38421 0
M  V30 9879 C 939.842 -1.50962 1.34368 0
M  V30 9880 C 940.163 -1.94889 -0.0656895 0
M  V30 9881 O 939.433 -1.67652 -1.01339 0
M  V30 9882 H 938.013 -0.559967 0.494415 0
M  V30 9883 H 940.675 -0.895665 1.73101 0
M  V30 9884 H 939.771 -2.40048 1.99458 0
M  V30 9885 N 940.072 -1.23292 -0.981677 0
M  V30 9886 C 941.483 -1.05936 -1.53735 0
M  V30 9887 C 941.834 0.373695 -1.92608 0
M  V30 9888 O 940.959 1.26024 -1.75917 0
M  V30 9889 C 941.554 -1.91682 -2.79363 0
M  V30 9890 C 940.113 -1.78591 -3.31334 0
M  V30 9891 C 939.26 -1.87463 -2.04335 0
M  V30 9892 H 942.211 -1.36973 -0.801505 0
M  V30 9893 H 942.232 -1.44085 -3.52164 0
M  V30 9894 H 941.744 -2.95975 -2.51039 0
M  V30 9895 H 939.845 -0.770755 -3.64541 0
M  V30 9896 H 939.958 -2.61902 -4.01179 0
M  V30 9897 H 938.322 -1.3103 -2.18411 0
M  V30 9898 H 939.105 -2.9331 -1.78394 0
M  V30 9899 N 941.55 1.18024 -1.04442 0
M  V30 9900 C 942.798 1.87727 -0.74854 0
M  V30 9901 C 943.119 1.80975 0.726156 0
M  V30 9902 O 942.389 1.23061 1.52423 0
M  V30 9903 H 940.969 0.694974 -0.273897 0
M  V30 9904 H 943.631 1.43213 -1.32197 0
M  V30 9905 H 942.727 2.93665 -1.05674 0
M  V30 9906 N 943.028 0.824394 1.34319 0
M  V30 9907 C 944.276 0.41235 1.97849 0
M  V30 9908 C 944.597 -1.02841 1.65677 0
M  V30 9909 O 943.867 -1.71421 0.948245 0
M  V30 9910 H 942.447 0.149486 0.73189 0
M  V30 9911 H 945.109 1.05416 1.63931 0
M  V30 9912 H 944.205 0.532557 3.07523 0
M  V30 9913 N 944.506 -1.46559 0.579492 0
M  V30 9914 C 945.754 -2.02 0.0637157 0
M  V30 9915 C 946.075 -1.45378 -1.29962 0
M  V30 9916 O 945.345 -0.637262 -1.85245 0
M  V30 9917 H 943.925 -0.746717 0.0205638 0
M  V30 9918 H 946.587 -1.79702 0.754544 0
M  V30 9919 H 945.683 -3.12099 -0.00770254 0
M  V30 9920 N 945.984 -0.3171 -1.54377 0
M  V30 9921 C 947.261 0.341348 -1.92598 0
M  V30 9922 C 947.641 1.70402 -1.24605 0
M  V30 9923 O 946.989 2.25191 -0.387448 0
M  V30 9924 C 947.199 0.440003 -3.46215 0
M  V30 9925 C 948.547 0.703327 -4.18734 0
M  V30 9926 O 949.571 0.523181 -3.52337 0
M  V30 9927 O 948.43 1.05042 -5.3631 0
M  V30 9928 H 945.524 0.193696 -0.803997 0
M  V30 9929 H 948.07 -0.366341 -1.65699 0
M  V30 9930 H 946.842 -0.517299 -3.87866 0
M  V30 9931 H 946.465 1.19553 -3.792 0
M  V30 9932 N 947.462 1.57535 -0.0451378 0
M  V30 9933 C 948.687 1.97172 0.64326 0
M  V30 9934 C 949.112 0.922266 1.63939 0
M  V30 9935 O 948.47 -0.115155 1.80934 0
M  V30 9936 C 948.518 3.35889 1.3119 0
M  V30 9937 O 947.622 3.33387 2.42748 0
M  V30 9938 H 946.963 0.642469 0.167719 0
M  V30 9939 H 949.493 2.04295 -0.111747 0
M  V30 9940 H 949.503 3.72481 1.66499 0
M  V30 9941 H 948.178 4.1181 0.581823 0
M  V30 9942 H 946.755 3.08533 2.09432 0
M  V30 9943 N 948.94 -0.228186 1.55939 0
M  V30 9944 C 949.903 -1.26621 1.91049 0
M  V30 9945 C 950.903 -1.40141 0.788491 0
M  V30 9946 O 952.093 -1.3852 1.05631 0
M  V30 9947 C 949.225 -2.64108 2.15545 0
M  V30 9948 H 950.418 -0.966978 2.83883 0
M  V30 9949 H 947.971 -0.468313 1.49119 0
M  V30 9950 H 948.706 -2.99141 1.25241 0
M  V30 9951 H 948.491 -2.55673 2.97277 0
M  V30 9952 H 949.981 -3.39025 2.43827 0
M  V30 9953 N 950.418 -1.49637 -0.494624 0
M  V30 9954 C 951.348 -1.69692 -1.60396 0
M  V30 9955 C 952.329 -0.545648 -1.61111 0
M  V30 9956 O 953.514 -0.782202 -1.77751 0
M  V30 9957 C 950.644 -1.76934 -2.9885 0
M  V30 9958 C 949.598 -2.91915 -3.13001 0
M  V30 9959 C 948.924 -2.84276 -4.5287 0
M  V30 9960 C 950.224 -4.32764 -2.92426 0
M  V30 9961 H 951.918 -2.6257 -1.43866 0
M  V30 9962 H 949.464 -1.26355 -0.690679 0
M  V30 9963 H 951.417 -1.8955 -3.76362 0
M  V30 9964 H 950.141 -0.806609 -3.16483 0
M  V30 9965 H 948.8 -2.78911 -2.37916 0
M  V30 9966 H 948.448 -1.85897 -4.67388 0
M  V30 9967 H 948.148 -3.61452 -4.63278 0
M  V30 9968 H 949.672 -2.98909 -5.32434 0
M  V30 9969 H 951.086 -4.46415 -3.59703 0
M  V30 9970 H 949.483 -5.1121 -3.143 0
M  V30 9971 H 950.553 -4.46765 -1.88491 0
M  V30 9972 N 951.896 0.746133 -1.38819 0
M  V30 9973 C 952.828 1.86991 -1.3254 0
M  V30 9974 C 953.841 1.61077 -0.236216 0
M  V30 9975 O 955.03 1.71518 -0.494341 0
M  V30 9976 C 952.13 3.22786 -1.03258 0
M  V30 9977 C 951.303 3.76145 -2.23234 0
M  V30 9978 C 950.362 4.90474 -1.90581 0
M  V30 9979 O 949.388 5.04717 -2.63153 0
M  V30 9980 N 950.59 5.74015 -0.86525 0
M  V30 9981 H 953.355 1.92885 -2.2938 0
M  V30 9982 H 950.916 0.926392 -1.32776 0
M  V30 9983 H 952.908 3.96824 -0.794533 0
M  V30 9984 H 951.478 3.12231 -0.151895 0
M  V30 9985 H 950.698 2.93587 -2.63059 0
M  V30 9986 H 951.986 4.08528 -3.03285 0
M  V30 9987 H 951.384 5.65086 -0.263577 0
M  V30 9988 H 949.941 6.48168 -0.687087 0
M  V30 9989 N 953.375 1.23811 0.975125 0
M  V30 9990 C 954.621 1.07495 1.71967 0
M  V30 9991 C 954.954 -0.386451 1.90316 0
M  V30 9992 O 954.229 -1.28591 1.45927 0
M  V30 9993 C 954.512 1.80694 3.11483 0
M  V30 9994 C 954.365 3.3454 3.00671 0
M  V30 9995 C 955.684 1.57367 4.11003 0
M  V30 9996 H 952.803 0.3919 0.624166 0
M  V30 9997 H 955.445 1.52383 1.13487 0
M  V30 9998 H 953.595 1.42538 3.61407 0
M  V30 9999 H 955.267 3.8225 2.5823 0
M  V30 10000 H 953.51 3.63301 2.37054 0
M  V30 10001 H 954.181 3.80951 3.99475 0
M  V30 10002 H 956.657 1.90545 3.69908 0
M  V30 10003 H 955.533 2.11052 5.06703 0
M  V30 10004 H 955.794 0.510221 4.39146 0
M  V30 10005 N 954.853 -1.17469 1.05066 0
M  V30 10006 C 956.1 -1.87698 0.759987 0
M  V30 10007 C 956.428 -1.80964 -0.712902 0
M  V30 10008 O 955.683 -1.21146 -1.53695 0
M  V30 10009 C 955.982 -3.37211 1.18421 0
M  V30 10010 C 955.648 -3.64148 2.65909 0
M  V30 10011 C 954.31 -3.71209 3.06199 0
M  V30 10012 C 956.662 -3.75724 3.61222 0
M  V30 10013 C 953.99 -3.87334 4.40669 0
M  V30 10014 C 956.342 -3.93368 4.95424 0
M  V30 10015 C 955.006 -3.98667 5.3537 0
M  V30 10016 H 954.276 -0.686835 0.278099 0
M  V30 10017 H 956.923 -1.38975 1.31751 0
M  V30 10018 H 955.228 -3.87982 0.545654 0
M  V30 10019 H 956.925 -3.89911 0.936518 0
M  V30 10020 H 953.515 -3.59276 2.33707 0
M  V30 10021 H 957.699 -3.69591 3.31235 0
M  V30 10022 H 952.955 -3.89685 4.71122 0
M  V30 10023 H 957.129 -4.01267 5.69173 0
M  V30 10024 H 954.756 -4.10915 6.39572 0
M  V30 10025 N 956.331 -0.831506 -1.3388 0
M  V30 10026 C 957.263 -0.216908 -2.28171 0
M  V30 10027 C 958.276 0.598141 -1.51414 0
M  V30 10028 O 959.465 0.426416 -1.73332 0
M  V30 10029 C 956.565 0.713831 -3.31297 0
M  V30 10030 C 955.738 -0.0602673 -4.37358 0
M  V30 10031 C 954.797 0.792696 -5.20195 0
M  V30 10032 O 953.823 0.234564 -5.68716 0
M  V30 10033 N 955.025 2.11119 -5.40748 0
M  V30 10034 H 957.79 -1.02704 -2.81553 0
M  V30 10035 H 955.351 -0.689272 -1.46495 0
M  V30 10036 H 957.343 1.28925 -3.83615 0
M  V30 10037 H 955.913 1.42469 -2.78247 0
M  V30 10038 H 955.133 -0.817041 -3.8564 0
M  V30 10039 H 956.421 -0.592822 -5.05335 0
M  V30 10040 H 955.819 2.58828 -5.03016 0
M  V30 10041 H 954.376 2.63527 -5.96151 0
M  V30 10042 N 957.809 1.4625 -0.587256 0
M  V30 10043 C 958.772 2.28812 0.133238 0
M  V30 10044 C 959.772 1.38645 0.814513 0
M  V30 10045 O 960.962 1.60975 0.665774 0
M  V30 10046 C 958.094 3.19147 1.19824 0
M  V30 10047 H 959.287 2.93991 -0.592386 0
M  V30 10048 H 956.84 1.52435 -0.345416 0
M  V30 10049 H 957.575 2.58725 1.95529 0
M  V30 10050 H 957.36 3.85541 0.71418 0
M  V30 10051 H 958.85 3.81278 1.70344 0
M  V30 10052 N 959.287 0.325282 1.54207 0
M  V30 10053 C 960.25 -0.527228 2.23054 0
M  V30 10054 C 961.25 -1.04217 1.22456 0
M  V30 10055 O 962.44 -0.934325 1.47024 0
M  V30 10056 C 959.572 -1.7325 2.93594 0
M  V30 10057 H 960.765 0.0746423 2.99807 0
M  V30 10058 H 958.318 0.0763872 1.56113 0
M  V30 10059 H 959.053 -2.37356 2.20981 0
M  V30 10060 H 958.838 -1.37065 3.67363 0
M  V30 10061 H 960.328 -2.3376 3.46043 0
M  V30 10062 N 960.765 -1.57509 0.0534917 0
M  V30 10063 C 962.013 -1.92402 -0.618548 0
M  V30 10064 C 962.334 -0.93273 -1.71246 0
M  V30 10065 O 961.604 0.0220495 -1.95888 0
M  V30 10066 H 960.184 -0.710233 -0.23147 0
M  V30 10067 H 962.846 -1.94606 0.10704 0
M  V30 10068 H 961.942 -2.93704 -1.05566 0
M  V30 10069 N 962.243 0.219913 -1.56058 0
M  V30 10070 C 963.173 1.27572 -1.9557 0
M  V30 10071 C 964.154 1.48801 -0.824148 0
M  V30 10072 O 965.339 1.60957 -1.08658 0
M  V30 10073 C 962.469 2.62517 -2.27381 0
M  V30 10074 C 961.423 2.55941 -3.43042 0
M  V30 10075 C 960.749 3.94931 -3.60463 0
M  V30 10076 C 962.049 2.10584 -4.77966 0
M  V30 10077 H 963.743 0.947482 -2.84013 0
M  V30 10078 H 961.289 0.454337 -1.36645 0
M  V30 10079 H 963.242 3.36538 -2.53615 0
M  V30 10080 H 961.966 2.97031 -1.35794 0
M  V30 10081 H 960.625 1.84377 -3.1686 0
M  V30 10082 H 960.273 4.26756 -2.66249 0
M  V30 10083 H 959.973 3.91413 -4.38258 0
M  V30 10084 H 961.497 4.70611 -3.89046 0
M  V30 10085 H 962.911 2.74349 -5.03394 0
M  V30 10086 H 961.308 2.18122 -5.59055 0
M  V30 10087 H 962.378 1.05818 -4.73213 0
M  V30 10088 N 963.721 1.49897 0.486681 0
M  V30 10089 C 964.684 1.67086 1.56891 0
M  V30 10090 C 965.684 0.54209 1.51387 0
M  V30 10091 O 966.874 0.80883 1.54284 0
M  V30 10092 C 964.006 1.68159 2.96539 0
M  V30 10093 H 965.199 2.63626 1.42974 0
M  V30 10094 H 962.752 1.39143 0.711954 0
M  V30 10095 H 963.487 0.732562 3.15918 0
M  V30 10096 H 963.272 2.50147 3.01942 0
M  V30 10097 H 964.762 1.83466 3.7514 0
M  V30 10098 N 965.199 -0.738761 1.39212 0
M  V30 10099 C 966.446 -1.49824 1.36231 0
M  V30 10100 C 966.774 -1.94453 -0.0429552 0
M  V30 10101 O 966.029 -1.6683 -1.02304 0
M  V30 10102 C 966.328 -2.75435 2.2775 0
M  V30 10103 C 965.994 -2.49694 3.75451 0
M  V30 10104 C 964.656 -2.42383 4.15697 0
M  V30 10105 C 967.008 -2.27587 4.68885 0
M  V30 10106 C 964.336 -2.11001 5.47444 0
M  V30 10107 C 966.688 -1.97723 6.00906 0
M  V30 10108 C 965.352 -1.88879 6.4022 0
M  V30 10109 H 964.622 -0.548247 0.498504 0
M  V30 10110 H 967.269 -0.848244 1.71689 0
M  V30 10111 H 965.574 -3.45159 1.85398 0
M  V30 10112 H 967.271 -3.33449 2.22739 0
M  V30 10113 H 963.861 -2.56261 3.43552 0
M  V30 10114 H 968.045 -2.32206 4.38628 0
M  V30 10115 H 963.301 -2.02673 5.76831 0
M  V30 10116 H 967.475 -1.79625 6.72836 0
M  V30 10117 H 965.102 -1.64327 7.42227 0
M  V30 10118 N 966.677 -1.24326 -0.968545 0
M  V30 10119 C 967.902 -1.1104 -1.75171 0
M  V30 10120 C 968.327 0.333109 -1.85127 0
M  V30 10121 O 967.685 1.24115 -1.32156 0
M  V30 10122 C 967.733 -1.75397 -3.15068 0
M  V30 10123 O 966.837 -1.02417 -3.9948 0
M  V30 10124 H 966.178 -0.388488 -0.538491 0
M  V30 10125 H 968.708 -1.64617 -1.215 0
M  V30 10126 H 968.718 -1.8112 -3.65595 0
M  V30 10127 H 967.393 -2.80427 -3.07138 0
M  V30 10128 H 965.97 -1.04475 -3.57966 0
M  V30 10129 N 968.156 1.1691 -1.05688 0
M  V30 10130 C 969.433 1.83266 -0.683601 0
M  V30 10131 C 969.813 1.93858 0.835602 0
M  V30 10132 O 969.161 1.47696 1.7435 0
M  V30 10133 C 969.371 3.20625 -1.37842 0
M  V30 10134 C 970.719 3.96473 -1.51967 0
M  V30 10135 O 971.743 3.30122 -1.33783 0
M  V30 10136 O 970.602 5.15393 -1.81749 0
M  V30 10137 H 967.696 0.791028 -0.241254 0
M  V30 10138 H 970.242 1.24165 -1.15677 0
M  V30 10139 H 969.014 3.07914 -2.41463 0
M  V30 10140 H 968.637 3.87398 -0.894921 0
M  V30 10141 N 969.634 0.838594 1.33437 0
M  V30 10142 C 970.882 0.433312 1.974 0
M  V30 10143 C 971.203 -1.01078 1.66758 0
M  V30 10144 O 970.473 -1.70406 0.966373 0
M  V30 10145 H 969.053 0.15724 0.730263 0
M  V30 10146 H 971.715 1.07149 1.62804 0
M  V30 10147 H 970.811 0.565144 3.06941 0
M  V30 10148 N 971.112 -1.45937 0.595003 0
M  V30 10149 C 972.389 -1.95592 0.0178748 0
M  V30 10150 C 972.769 -1.53758 -1.44643 0
M  V30 10151 O 972.117 -0.794104 -2.14257 0
M  V30 10152 C 972.327 -3.4841 0.202789 0
M  V30 10153 C 973.675 -4.2453 0.0770121 0
M  V30 10154 O 974.699 -3.55954 0.132257 0
M  V30 10155 O 973.558 -5.46479 -0.0484271 0
M  V30 10156 H 970.652 -0.825888 -0.0428702 0
M  V30 10157 H 973.198 -1.56162 0.664184 0
M  V30 10158 H 971.97 -3.71787 1.22027 0
M  V30 10159 H 971.593 -3.947 -0.479376 0
M  V30 10160 N 972.59 -0.333456 -1.54032 0
M  V30 10161 C 973.522 0.562174 -2.22199 0
M  V30 10162 C 974.535 1.07202 -1.22522 0
M  V30 10163 O 975.724 0.983897 -1.48935 0
M  V30 10164 C 972.824 1.78525 -2.88066 0
M  V30 10165 C 971.997 1.41242 -4.13968 0
M  V30 10166 C 971.056 2.49408 -4.63338 0
M  V30 10167 O 970.082 2.13138 -5.27789 0
M  V30 10168 N 971.284 3.805 -4.38406 0
M  V30 10169 H 974.049 -0.0215629 -2.99692 0
M  V30 10170 H 971.61 -0.157111 -1.61136 0
M  V30 10171 H 973.602 2.50298 -3.18014 0
M  V30 10172 H 972.172 2.2766 -2.14219 0
M  V30 10173 H 971.392 0.525887 -3.90676 0
M  V30 10174 H 972.68 1.13916 -4.95884 0
M  V30 10175 H 972.078 4.12761 -3.86839 0
M  V30 10176 H 970.635 4.48474 -4.72984 0
M  V30 10177 N 974.068 1.57479 -0.061844 0
M  V30 10178 C 975.314 1.9421 0.604485 0
M  V30 10179 C 975.669 0.941011 1.67818 0
M  V30 10180 O 974.962 -0.0382264 1.91562 0
M  V30 10181 C 975.156 3.35394 1.23474 0
M  V30 10182 C 974.985 4.49144 0.223628 0
M  V30 10183 C 973.755 5.04949 -0.188187 0
M  V30 10184 C 975.953 5.11508 -0.535193 0
M  V30 10185 N 973.935 6.02235 -1.19105 0
M  V30 10186 C 975.306 6.04199 -1.39082 0
M  V30 10187 C 977.361 4.94364 -0.592346 0
M  V30 10188 C 976.064 6.81587 -2.2985 0
M  V30 10189 C 978.09 5.72388 -1.48749 0
M  V30 10190 C 977.452 6.6472 -2.33082 0
M  V30 10191 H 973.551 0.757931 0.192522 0
M  V30 10192 H 976.135 1.9422 -0.136667 0
M  V30 10193 H 974.306 3.36141 1.94587 0
M  V30 10194 H 976.038 3.59387 1.86073 0
M  V30 10195 H 972.793 4.73207 0.192933 0
M  V30 10196 H 973.217 6.55575 -1.68969 0
M  V30 10197 H 977.859 4.22776 0.045445 0
M  V30 10198 H 975.577 7.5246 -2.94669 0
M  V30 10199 H 979.163 5.61146 -1.53642 0
M  V30 10200 H 978.043 7.2404 -3.01225 0
M  V30 10201 N 975.546 -0.211634 1.56173 0
M  V30 10202 C 976.774 -0.951184 1.83739 0
M  V30 10203 C 977.189 -1.7754 0.642252 0
M  V30 10204 O 976.546 -1.78302 -0.389174 0
M  V30 10205 C 976.597 -1.86075 3.09933 0
M  V30 10206 O 976.318 -1.06983 4.24837 0
M  V30 10207 C 977.819 -2.71337 3.50559 0
M  V30 10208 H 975.039 -0.278312 0.61056 0
M  V30 10209 H 977.583 -0.223871 2.03271 0
M  V30 10210 H 975.738 -2.54189 2.92347 0
M  V30 10211 H 976.152 -1.68815 4.9659 0
M  V30 10212 H 977.626 -3.30843 4.41868 0
M  V30 10213 H 978.103 -3.44226 2.72773 0
M  V30 10214 H 978.709 -2.0862 3.70618 0
M  V30 10215 N 977.024 -1.50153 -0.478725 0
M  V30 10216 C 977.954 -1.71384 -1.58587 0
M  V30 10217 C 978.935 -0.562705 -1.60523 0
M  V30 10218 O 980.12 -0.80101 -1.76911 0
M  V30 10219 C 977.25 -1.80094 -2.96957 0
M  V30 10220 C 976.204 -2.95218 -3.09888 0
M  V30 10221 C 975.53 -2.89063 -4.49829 0
M  V30 10222 C 976.83 -4.35841 -2.8782 0
M  V30 10223 H 978.524 -2.64081 -1.41073 0
M  V30 10224 H 976.07 -1.27081 -0.677239 0
M  V30 10225 H 978.023 -1.93531 -3.74331 0
M  V30 10226 H 976.747 -0.840131 -3.1561 0
M  V30 10227 H 975.406 -2.81419 -2.34944 0
M  V30 10228 H 975.054 -1.90844 -4.6539 0
M  V30 10229 H 974.754 -3.66345 -4.59418 0
M  V30 10230 H 976.278 -3.04539 -5.29234 0
M  V30 10231 H 977.692 -4.50205 -3.54948 0
M  V30 10232 H 976.089 -5.14515 -3.0886 0
M  V30 10233 H 977.159 -4.48739 -1.83742 0
M  V30 10234 N 978.502 0.731368 -1.39602 0
M  V30 10235 C 979.727 1.52567 -1.40492 0
M  V30 10236 C 980.152 1.881 -0.00228828 0
M  V30 10237 O 979.51 1.52167 0.985643 0
M  V30 10238 C 979.558 2.78749 -2.2876 0
M  V30 10239 O 978.662 3.7482 -1.71999 0
M  V30 10240 H 978.003 0.460601 -0.478271 0
M  V30 10241 H 980.533 0.902042 -1.83642 0
M  V30 10242 H 980.543 3.27446 -2.43399 0
M  V30 10243 H 979.218 2.5222 -3.30693 0
M  V30 10244 H 977.795 3.33604 -1.66622 0
M  V30 10245 N 979.98 1.24838 0.961938 0
M  V30 10246 C 981.396 1.01502 1.23165 0
M  V30 10247 C 981.596 -0.272651 1.99647 0
M  V30 10248 O 980.652 -0.987297 2.32398 0
M  V30 10249 C 981.965 2.23366 2.01316 0
M  V30 10250 C 983.513 2.28051 2.14387 0
M  V30 10251 C 983.988 3.49552 2.95935 0
M  V30 10252 N 985.479 3.49904 3.03515 0
M  V30 10253 C 986.214 4.40577 3.66987 0
M  V30 10254 N 985.71 5.41512 4.3213 0
M  V30 10255 N 987.503 4.28275 3.64056 0
M  V30 10256 H 979.654 2.07576 0.450086 0
M  V30 10257 H 981.917 0.911205 0.261551 0
M  V30 10258 H 981.623 3.16913 1.5251 0
M  V30 10259 H 981.497 2.25949 3.02038 0
M  V30 10260 H 983.884 1.35032 2.62393 0
M  V30 10261 H 983.965 2.29491 1.12994 0
M  V30 10262 H 983.609 4.42889 2.4862 0
M  V30 10263 H 983.539 3.45357 3.97538 0
M  V30 10264 H 986.03 2.76885 2.57183 0
M  V30 10265 H 986.343 6.06924 4.78396 0
M  V30 10266 H 984.688 5.45393 4.3078 0
M  V30 10267 H 987.879 3.48653 3.12344 0
M  V30 10268 H 988.052 4.99138 4.13237 0
M  V30 10269 N 981.458 -1.16348 1.06306 0
M  V30 10270 C 982.405 -2.20741 0.673962 0
M  V30 10271 C 983.375 -1.628 -0.329454 0
M  V30 10272 O 984.56 -1.89547 -0.218313 0
M  V30 10273 C 981.7 -3.45036 0.0667008 0
M  V30 10274 C 980.813 -4.17221 1.12031 0
M  V30 10275 C 979.948 -5.29034 0.479176 0
M  V30 10276 C 978.987 -5.93021 1.51631 0
M  V30 10277 N 978.124 -6.96327 0.898528 0
M  V30 10278 H 982.964 -2.53376 1.56859 0
M  V30 10279 H 980.501 -1.24449 0.784276 0
M  V30 10280 H 982.459 -4.16099 -0.302916 0
M  V30 10281 H 981.089 -3.1295 -0.791333 0
M  V30 10282 H 980.141 -3.4476 1.60763 0
M  V30 10283 H 981.453 -4.60902 1.90712 0
M  V30 10284 H 980.607 -6.06674 0.0565993 0
M  V30 10285 H 979.346 -4.86517 -0.33951 0
M  V30 10286 H 978.351 -5.14104 1.94878 0
M  V30 10287 H 979.576 -6.37618 2.3371 0
M  V30 10288 H 977.522 -6.55923 0.100555 0
M  V30 10289 H 977.439 -7.38379 1.62272 0
M  V30 10290 H 978.707 -7.77888 0.5011 0
M  V30 10291 N 982.937 -0.845659 -1.3299 0
M  V30 10292 C 984.353 -0.53433 -1.5039 0
M  V30 10293 C 984.553 0.936939 -1.78392 0
M  V30 10294 O 983.609 1.72043 -1.84818 0
M  V30 10295 C 984.922 -1.41354 -2.65404 0
M  V30 10296 C 986.47 -1.41303 -2.79289 0
M  V30 10297 C 986.945 -2.27724 -3.97373 0
M  V30 10298 N 988.436 -2.25471 -4.0462 0
M  V30 10299 C 989.171 -2.89074 -4.95201 0
M  V30 10300 N 988.667 -3.61755 -5.90851 0
M  V30 10301 N 990.46 -2.78508 -4.88251 0
M  V30 10302 H 982.611 -1.79798 -1.13078 0
M  V30 10303 H 984.874 -0.767454 -0.556524 0
M  V30 10304 H 984.58 -2.45936 -2.51413 0
M  V30 10305 H 984.454 -1.09445 -3.60973 0
M  V30 10306 H 986.841 -0.374899 -2.92709 0
M  V30 10307 H 986.922 -1.77222 -1.84461 0
M  V30 10308 H 986.566 -3.316 -3.84713 0
M  V30 10309 H 986.496 -1.89142 -4.9146 0
M  V30 10310 H 988.987 -1.72622 -3.3617 0
M  V30 10311 H 989.3 -4.07475 -6.56646 0
M  V30 10312 H 987.645 -3.65863 -5.90906 0
M  V30 10313 H 990.836 -2.21285 -4.12493 0
M  V30 10314 H 991.009 -3.2836 -5.58645 0
M  V30 10315 N 984.415 1.45619 -0.602734 0
M  V30 10316 C 985.345 2.33258 0.106342 0
M  V30 10317 C 986.326 1.46543 0.863664 0
M  V30 10318 O 987.511 1.75324 0.835175 0
M  V30 10319 C 984.641 3.29168 1.10751 0
M  V30 10320 C 983.595 4.25481 0.463717 0
M  V30 10321 C 982.921 5.11046 1.57278 0
M  V30 10322 C 984.221 5.18702 -0.61199 0
M  V30 10323 H 985.915 2.92795 -0.625423 0
M  V30 10324 H 983.461 1.40793 -0.302213 0
M  V30 10325 H 985.414 3.89346 1.61208 0
M  V30 10326 H 984.138 2.6778 1.8698 0
M  V30 10327 H 982.797 3.66595 -0.0199496 0
M  V30 10328 H 982.445 4.46029 2.32524 0
M  V30 10329 H 982.145 5.76286 1.14755 0
M  V30 10330 H 983.669 5.74091 2.07972 0
M  V30 10331 H 985.083 5.72979 -0.191686 0
M  V30 10332 H 983.48 5.92393 -0.958686 0
M  V30 10333 H 984.55 4.61424 -1.4905 0
M  V30 10334 N 985.893 0.34162 1.53853 0
M  V30 10335 C 987.118 -0.259608 2.05769 0
M  V30 10336 C 987.543 -1.43588 1.21507 0
M  V30 10337 O 986.901 -1.79856 0.228364 0
M  V30 10338 C 986.949 -0.654455 3.54611 0
M  V30 10339 O 986.053 -1.75472 3.73207 0
M  V30 10340 H 985.394 -0.0434621 0.662576 0
M  V30 10341 H 987.924 0.495274 1.98515 0
M  V30 10342 H 987.934 -0.932142 3.97209 0
M  V30 10343 H 986.609 0.205779 4.15391 0
M  V30 10344 H 985.186 -1.47444 3.42512 0
M  V30 10345 N 987.371 -1.57444 0.0701946 0
M  V30 10346 C 988.611 -1.95304 -0.60296 0
M  V30 10347 C 988.975 -0.949592 -1.66873 0
M  V30 10348 O 990.176 -1.2158 -2.39733 0
M  V30 10349 C 988.447 -3.37831 -1.16639 0
M  V30 10350 S 990.006 -3.97667 -1.8549 0
M  V30 10351 H 986.824 -0.683026 -0.197476 0
M  V30 10352 H 989.426 -1.94971 0.143669 0
M  V30 10353 H 988.13 -4.08648 -0.378856 0
M  V30 10354 H 987.661 -3.41704 -1.94942 0
M  V30 10355 H 989.676 -3.84441 -3.13719 0
M  V30 10356 N 988.849 0.203349 -1.56283 0
M  V30 10357 C 990.26 0.768764 -1.70138 0
M  V30 10358 C 990.611 1.8421 -0.675358 0
M  V30 10359 O 989.736 2.15732 0.1699 0
M  V30 10360 C 990.331 1.40123 -3.08466 0
M  V30 10361 C 988.89 1.91382 -3.24114 0
M  V30 10362 C 988.037 0.780685 -2.66084 0
M  V30 10363 H 990.988 -0.0215997 -1.58685 0
M  V30 10364 H 991.009 2.27046 -3.05336 0
M  V30 10365 H 990.521 0.619805 -3.83119 0
M  V30 10366 H 988.622 2.7227 -2.54362 0
M  V30 10367 H 988.735 2.08128 -4.31531 0
M  V30 10368 H 987.099 1.19281 -2.25042 0
M  V30 10369 H 987.882 0.0116351 -3.43298 0
M  V30 10370 N 990.327 1.50405 0.470755 0
M  V30 10371 C 991.274 1.69293 1.56871 0
M  V30 10372 C 992.244 0.534248 1.57274 0
M  V30 10373 O 993.429 0.764855 1.74799 0
M  V30 10374 C 990.569 1.79338 2.94842 0
M  V30 10375 C 989.682 3.06709 3.04226 0
M  V30 10376 C 988.817 3.07548 4.33114 0
M  V30 10377 C 987.856 4.29372 4.36241 0
M  V30 10378 N 986.993 4.27949 5.56601 0
M  V30 10379 H 991.833 2.63029 1.40071 0
M  V30 10380 H 989.37 1.30386 0.681016 0
M  V30 10381 H 991.328 1.83143 3.74853 0
M  V30 10382 H 989.958 0.890411 3.10277 0
M  V30 10383 H 989.01 3.12374 2.17086 0
M  V30 10384 H 990.322 3.96684 3.02396 0
M  V30 10385 H 989.476 3.10084 5.21472 0
M  V30 10386 H 988.215 2.15404 4.37553 0
M  V30 10387 H 987.22 4.27048 3.4628 0
M  V30 10388 H 988.445 5.22743 4.33493 0
M  V30 10389 H 986.391 3.38658 5.61824 0
M  V30 10390 H 986.308 5.11692 5.56513 0
M  V30 10391 H 987.576 4.34631 6.47083 0
M  V30 10392 N 991.805 -0.723954 1.39988 0
M  V30 10393 C 992.715 -1.86829 1.41887 0
M  V30 10394 C 993.731 -1.71173 0.312401 0
M  V30 10395 O 994.907 -1.93583 0.555651 0
M  V30 10396 C 991.972 -3.22541 1.27154 0
M  V30 10397 C 991.033 -3.50512 2.47871 0
M  V30 10398 C 990.266 -4.79749 2.33831 0
M  V30 10399 O 990.489 -5.54251 1.34765 0
M  V30 10400 O 989.423 -5.07868 3.23039 0
M  V30 10401 H 993.249 -1.88183 2.38371 0
M  V30 10402 H 990.834 -0.873259 1.21221 0
M  V30 10403 H 992.716 -4.0362 1.21114 0
M  V30 10404 H 991.391 -3.21933 0.337715 0
M  V30 10405 H 990.298 -2.69475 2.59488 0
M  V30 10406 H 991.631 -3.55909 3.39985 0
M  V30 10407 N 993.283 -1.25346 -0.955304 0
M  V30 10408 C 994.23 -1.05672 -2.05188 0
M  V30 10409 C 995.2 0.0339217 -1.66065 0
M  V30 10410 O 996.385 -0.123126 -1.90402 0
M  V30 10411 C 993.525 -0.680791 -3.38318 0
M  V30 10412 C 992.638 -1.84622 -3.90562 0
M  V30 10413 C 991.773 -1.41471 -5.12015 0
M  V30 10414 C 990.812 -2.54931 -5.56486 0
M  V30 10415 N 989.949 -2.1256 -6.69151 0
M  V30 10416 H 994.789 -1.9952 -2.2135 0
M  V30 10417 H 992.326 -0.993588 -1.08472 0
M  V30 10418 H 994.284 -0.443794 -4.14833 0
M  V30 10419 H 992.914 0.2207 -3.22045 0
M  V30 10420 H 991.966 -2.19654 -3.10574 0
M  V30 10421 H 993.278 -2.6983 -4.19515 0
M  V30 10422 H 992.432 -1.13732 -5.95945 0
M  V30 10423 H 991.171 -0.533334 -4.84775 0
M  V30 10424 H 990.176 -2.83415 -4.71122 0
M  V30 10425 H 991.401 -3.43645 -5.85734 0
M  V30 10426 H 989.347 -1.26838 -6.43621 0
M  V30 10427 H 989.264 -2.91317 -6.97618 0
M  V30 10428 H 990.532 -1.87996 -7.5649 0
M  V30 10429 N 994.761 1.15782 -1.06922 0
M  V30 10430 C 995.989 1.90355 -0.81072 0
M  V30 10431 C 996.404 1.77779 0.635614 0
M  V30 10432 O 995.761 1.12675 1.43564 0
M  V30 10433 C 995.812 3.4085 -1.2043 0
M  V30 10434 O 995.533 3.53057 -2.59388 0
M  V30 10435 C 997.034 4.32457 -0.974473 0
M  V30 10436 H 994.254 0.60343 -0.293451 0
M  V30 10437 H 996.798 1.46723 -1.42452 0
M  V30 10438 H 994.953 3.82162 -0.634909 0
M  V30 10439 H 995.367 4.46426 -2.75326 0
M  V30 10440 H 996.841 5.36488 -1.29942 0
M  V30 10441 H 997.318 4.39109 0.0894481 0
M  V30 10442 H 997.924 3.96882 -1.52856 0
M  V30 10443 N 996.239 0.8527 1.3254 0
M  V30 10444 C 997.467 0.469044 2.01513 0
M  V30 10445 C 997.882 -0.933701 1.64096 0
M  V30 10446 O 997.239 -1.60898 0.861283 0
M  V30 10447 C 997.29 0.596228 3.56549 0
M  V30 10448 O 997.011 1.94371 3.92621 0
M  V30 10449 C 998.512 0.211324 4.42796 0
M  V30 10450 H 995.732 0.184589 0.645111 0
M  V30 10451 H 998.276 1.1491 1.69163 0
M  V30 10452 H 996.431 -0.0360712 3.87383 0
M  V30 10453 H 996.845 1.93909 4.87339 0
M  V30 10454 H 998.319 0.351324 5.50881 0
M  V30 10455 H 998.796 -0.848055 4.30935 0
M  V30 10456 H 999.402 0.818617 4.17347 0
M  V30 10457 N 997.718 -1.45297 0.610449 0
M  V30 10458 C 999.134 -1.57225 0.274332 0
M  V30 10459 C 999.334 -1.60136 -1.22306 0
M  V30 10460 O 998.39 -1.5332 -2.00622 0
M  V30 10461 C 999.703 -2.85365 0.948028 0
M  V30 10462 C 1001.25 -2.99044 0.924216 0
M  V30 10463 C 1001.73 -4.29958 1.57798 0
M  V30 10464 N 1003.22 -4.36723 1.5436 0
M  V30 10465 C 1003.95 -5.36695 2.01857 0
M  V30 10466 N 1003.45 -6.43187 2.57453 0
M  V30 10467 N 1005.24 -5.28071 1.92608 0
M  V30 10468 H 997.392 -1.41651 1.58268 0
M  V30 10469 H 999.655 -0.67744 0.663158 0
M  V30 10470 H 999.361 -2.89125 2.00249 0
M  V30 10471 H 999.235 -3.74222 0.473062 0
M  V30 10472 H 1001.62 -2.94849 -0.121709 0
M  V30 10473 H 1001.7 -2.1159 1.43748 0
M  V30 10474 H 1001.35 -4.34912 2.62325 0
M  V30 10475 H 1001.28 -5.16234 1.03972 0
M  V30 10476 H 1003.77 -3.60374 1.13749 0
M  V30 10477 H 1004.08 -7.15722 2.91482 0
M  V30 10478 H 1002.43 -6.4393 2.61493 0
M  V30 10479 H 1005.62 -4.43783 1.48912 0
M  V30 10480 H 1005.79 -6.05832 2.29938 0
M  V30 10481 N 999.196 -0.349774 -1.5367 0
M  V30 10482 C 1000.14 0.504121 -2.25227 0
M  V30 10483 C 1001.11 1.09048 -1.2529 0
M  V30 10484 O 1002.3 1.12594 -1.54037 0
M  V30 10485 C 999.438 1.64601 -3.03316 0
M  V30 10486 C 998.551 1.08635 -4.18118 0
M  V30 10487 C 997.686 2.19605 -4.83681 0
M  V30 10488 C 996.725 1.61023 -5.90541 0
M  V30 10489 N 995.862 2.6576 -6.49858 0
M  V30 10490 H 1000.7 -0.112621 -2.97787 0
M  V30 10491 H 998.239 -0.0673503 -1.46946 0
M  V30 10492 H 1000.2 2.31836 -3.46854 0
M  V30 10493 H 998.827 2.23364 -2.33041 0
M  V30 10494 H 997.879 0.304748 -3.79177 0
M  V30 10495 H 999.191 0.617911 -4.94958 0
M  V30 10496 H 998.345 2.94693 -5.30322 0
M  V30 10497 H 997.084 2.69795 -4.06278 0
M  V30 10498 H 996.089 0.844428 -5.43277 0
M  V30 10499 H 997.314 1.11677 -6.69855 0
M  V30 10500 H 995.26 3.15193 -5.75317 0
M  V30 10501 H 995.177 2.23557 -7.2219 0
M  V30 10502 H 996.445 3.40598 -7.01151 0
M  V30 10503 N 1000.67 1.57404 -0.0785433 0
M  V30 10504 C 1001.62 2.13104 0.88631 0
M  V30 10505 C 1002.59 1.04527 1.29086 0
M  V30 10506 O 1003.78 1.32226 1.37553 0
M  V30 10507 C 1000.92 2.70252 2.14611 0
M  V30 10508 C 1000.03 3.93007 1.79358 0
M  V30 10509 C 999.164 4.38376 3 0
M  V30 10510 C 998.203 5.53761 2.60796 0
M  V30 10511 N 997.34 5.94058 3.74219 0
M  V30 10512 H 1002.18 2.95243 0.404452 0
M  V30 10513 H 999.717 1.45894 0.187982 0
M  V30 10514 H 1001.67 3.01497 2.88367 0
M  V30 10515 H 1000.3 1.90868 2.60326 0
M  V30 10516 H 999.357 3.68181 0.956384 0
M  V30 10517 H 1000.67 4.76795 1.4652 0
M  V30 10518 H 999.823 4.71317 3.82027 0
M  V30 10519 H 998.562 3.53455 3.36037 0
M  V30 10520 H 997.567 5.20464 1.77192 0
M  V30 10521 H 998.792 6.40419 2.25922 0
M  V30 10522 H 996.738 5.12085 4.10005 0
M  V30 10523 H 996.655 6.72602 3.45171 0
M  V30 10524 H 997.923 6.31624 4.56805 0
M  V30 10525 N 1002.15 -0.195058 1.56388 0
M  V30 10526 C 1003.57 -0.545894 1.49974 0
M  V30 10527 C 1003.77 -1.85851 0.778568 0
M  V30 10528 O 1002.82 -2.50346 0.329105 0
M  V30 10529 C 1004.14 -0.600599 2.94641 0
M  V30 10530 C 1005.68 -0.689429 3.05313 0
M  V30 10531 C 1006.16 -0.775243 4.51391 0
M  V30 10532 N 1007.65 -0.838769 4.55542 0
M  V30 10533 C 1008.39 -0.925337 5.65884 0
M  V30 10534 N 1007.88 -0.974204 6.85916 0
M  V30 10535 N 1009.67 -0.962528 5.53798 0
M  V30 10536 H 1001.83 0.66595 2.0169 0
M  V30 10537 H 1004.09 0.237215 0.917842 0
M  V30 10538 H 1003.79 0.29478 3.50462 0
M  V30 10539 H 1003.67 -1.45528 3.47996 0
M  V30 10540 H 1006.06 -1.57524 2.4954 0
M  V30 10541 H 1006.14 0.191451 2.55083 0
M  V30 10542 H 1005.78 0.106215 5.07789 0
M  V30 10543 H 1005.71 -1.67193 4.99354 0
M  V30 10544 H 1008.2 -0.810249 3.69112 0
M  V30 10545 H 1008.51 -1.04077 7.6576 0
M  V30 10546 H 1006.86 -0.942881 6.88574 0
M  V30 10547 H 1010.05 -0.921188 4.58946 0
M  V30 10548 H 1010.22 -1.02653 6.39817 0
M  V30 10549 N 1003.63 -1.50653 -0.462772 0
M  V30 10550 C 1004.58 -1.70661 -1.58043 0
M  V30 10551 C 1005.57 -0.572533 -1.59432 0
M  V30 10552 O 1006.78 -0.753257 -1.63481 0
M  V30 10553 H 1003.15 -0.538805 -0.524588 0
M  V30 10554 H 1005.12 -2.64399 -1.38332 0
M  V30 10555 C 1003.87 -1.82558 -2.95919 0
M  V30 10556 H 1003.2 -2.69216 -2.95572 0
M  V30 10557 H 1004.64 -2.0058 -3.73556 0
M  V30 10558 C 1003.09 -0.57916 -3.31885 0
M  V30 10559 O 1003.62 0.277888 -4.00738 0
M  V30 10560 N 1001.83 -0.430723 -2.8739 0
M  V30 10561 H 1001.38 -1.1292 -2.31531 0
M  V30 10562 H 1001.34 0.402061 -3.11819 0
M  V30 10563 N 1005.11 0.71652 -1.4037 0
M  V30 10564 C 1006.35 1.47857 -1.38803 0
M  V30 10565 C 1006.69 1.94197 0.0100536 0
M  V30 10566 O 1005.96 1.68093 0.978521 0
M  V30 10567 C 1006.25 2.7053 -2.37667 0
M  V30 10568 C 1006.1 2.3009 -3.86496 0
M  V30 10569 C 1007.42 3.72684 -2.34082 0
M  V30 10570 H 1004.54 0.53632 -0.505499 0
M  V30 10571 H 1007.18 0.817824 -1.71498 0
M  V30 10572 H 1005.33 3.26906 -2.09916 0
M  V30 10573 H 1007 1.79202 -4.2507 0
M  V30 10574 H 1005.24 1.62102 -4.02375 0
M  V30 10575 H 1005.91 3.18018 -4.51186 0
M  V30 10576 H 1008.39 3.25935 -2.58661 0
M  V30 10577 H 1007.27 4.56157 -3.05306 0
M  V30 10578 H 1007.53 4.20916 -1.35213 0
M  V30 10579 N 1006.59 1.25851 0.948643 0
M  V30 10580 C 1007.53 1.06559 2.06756 0
M  V30 10581 C 1008.53 -0.00528632 1.69399 0
M  V30 10582 O 1009.73 0.150806 1.79367 0
M  V30 10583 H 1006.11 0.327689 0.676848 0
M  V30 10584 H 1008.08 2.01401 2.20182 0
M  V30 10585 C 1006.83 0.707392 3.40428 0
M  V30 10586 H 1006.15 1.52324 3.69645 0
M  V30 10587 H 1007.59 0.612142 4.19558 0
M  V30 10588 C 1006.05 -0.58697 3.31747 0
M  V30 10589 O 1006.58 -1.62741 3.67258 0
M  V30 10590 N 1004.79 -0.574828 2.84858 0
M  V30 10591 H 1004.33 0.272236 2.56157 0
M  V30 10592 H 1004.29 -1.441 2.79432 0
M  V30 10593 N 1008.06 -1.15214 1.07534 0
M  V30 10594 C 1009.31 -1.86043 0.799629 0
M  V30 10595 C 1009.64 -1.82435 -0.674356 0
M  V30 10596 O 1008.89 -1.24379 -1.51091 0
M  V30 10597 C 1009.19 -3.34623 1.25547 0
M  V30 10598 C 1008.86 -3.58425 2.73573 0
M  V30 10599 C 1007.52 -3.6463 3.14004 0
M  V30 10600 C 1009.87 -3.67977 3.6911 0
M  V30 10601 C 1007.2 -3.779 4.48786 0
M  V30 10602 C 1009.55 -3.82771 5.03656 0
M  V30 10603 C 1008.22 -3.87222 5.43705 0
M  V30 10604 H 1007.49 -0.680781 0.292605 0
M  V30 10605 H 1010.13 -1.36149 1.34669 0
M  V30 10606 H 1008.44 -3.86737 0.627828 0
M  V30 10607 H 1010.14 -3.87836 1.01901 0
M  V30 10608 H 1006.73 -3.54238 2.41275 0
M  V30 10609 H 1010.91 -3.62482 3.39 0
M  V30 10610 H 1006.17 -3.79604 4.79281 0
M  V30 10611 H 1010.34 -3.89104 5.77556 0
M  V30 10612 H 1007.97 -3.97256 6.48145 0
M  V30 10613 N 1009.54 -0.859717 -1.32086 0
M  V30 10614 C 1010.47 -0.265258 -2.2766 0
M  V30 10615 C 1011.49 0.565889 -1.52648 0
M  V30 10616 O 1012.68 0.389554 -1.74197 0
M  V30 10617 C 1009.78 0.643397 -3.32737 0
M  V30 10618 C 1008.95 -0.153024 -4.37132 0
M  V30 10619 C 1008.01 0.682176 -5.21759 0
M  V30 10620 O 1007.03 0.113878 -5.69086 0
M  V30 10621 N 1008.24 1.99602 -5.45105 0
M  V30 10622 H 1011 -1.08653 -2.79311 0
M  V30 10623 H 1008.56 -0.720191 -1.45 0
M  V30 10624 H 1010.55 1.20759 -3.86263 0
M  V30 10625 H 1009.12 1.36535 -2.81206 0
M  V30 10626 H 1008.34 -0.898657 -3.8382 0
M  V30 10627 H 1009.63 -0.699877 -5.03963 0
M  V30 10628 H 1009.03 2.481 -5.08393 0
M  V30 10629 H 1007.59 2.50823 -6.01607 0
M  V30 10630 N 1011.02 1.44971 -0.618145 0
M  V30 10631 C 1011.97 2.30606 0.09449 0
M  V30 10632 C 1012.94 1.42725 0.849633 0
M  V30 10633 O 1014.12 1.71643 0.833266 0
M  V30 10634 C 1011.26 3.27803 1.07886 0
M  V30 10635 C 1010.38 4.30787 0.323488 0
M  V30 10636 C 1009.51 5.15085 1.29851 0
M  V30 10637 C 1008.55 6.09788 0.531561 0
M  V30 10638 N 1007.69 6.86829 1.4564 0
M  V30 10639 H 1012.53 2.91008 -0.641738 0
M  V30 10640 H 1010.06 1.43391 -0.328259 0
M  V30 10641 H 1012.02 3.82631 1.66281 0
M  V30 10642 H 1010.65 2.69131 1.78237 0
M  V30 10643 H 1009.7 3.78536 -0.376164 0
M  V30 10644 H 1011.02 4.98044 -0.274443 0
M  V30 10645 H 1010.17 5.74365 1.95421 0
M  V30 10646 H 1008.91 4.4787 1.93037 0
M  V30 10647 H 1007.91 5.49628 -0.137702 0
M  V30 10648 H 1009.14 6.79033 -0.0953993 0
M  V30 10649 H 1007.08 6.22295 2.07571 0
M  V30 10650 H 1007 7.50477 0.912167 0
M  V30 10651 H 1008.27 7.50642 2.10134 0
M  V30 10652 N 1012.5 0.357919 1.53482 0
M  V30 10653 C 1013.46 -0.479797 2.24122 0
M  V30 10654 C 1014.46 -1.01596 1.24639 0
M  V30 10655 O 1015.65 -0.902928 1.48973 0
M  V30 10656 C 1012.78 -1.66983 2.97203 0
M  V30 10657 H 1013.98 0.138219 2.99581 0
M  V30 10658 H 1011.53 0.109484 1.55916 0
M  V30 10659 H 1012.26 -2.32615 2.25966 0
M  V30 10660 H 1012.05 -1.29242 3.70188 0
M  V30 10661 H 1013.54 -2.26367 3.50924 0
M  V30 10662 N 1013.98 -1.5736 0.0868897 0
M  V30 10663 C 1015.23 -1.93229 -0.578387 0
M  V30 10664 C 1015.54 -0.970127 -1.69847 0
M  V30 10665 O 1016.74 -1.22222 -2.42434 0
M  V30 10666 C 1015.2 -3.43307 -1.0802 0
M  V30 10667 C 1014.81 -4.47999 0.00968135 0
M  V30 10668 C 1016.55 -3.88151 -1.71868 0
M  V30 10669 C 1014.46 -5.89223 -0.507029 0
M  V30 10670 H 1013.39 -0.721245 -0.219823 0
M  V30 10671 H 1016.04 -1.82787 0.161566 0
M  V30 10672 H 1014.42 -3.48873 -1.87359 0
M  V30 10673 H 1015.6 -4.54067 0.784865 0
M  V30 10674 H 1013.91 -4.12714 0.552845 0
M  V30 10675 H 1016.51 -4.91056 -2.11585 0
M  V30 10676 H 1016.85 -3.26347 -2.58464 0
M  V30 10677 H 1017.38 -3.85252 -0.991259 0
M  V30 10678 H 1014.12 -6.54708 0.322121 0
M  V30 10679 H 1013.64 -5.86643 -1.2494 0
M  V30 10680 H 1015.32 -6.39556 -0.978628 0
M  V30 10681 N 1015.45 0.186762 -1.56489 0
M  V30 10682 C 1016.4 1.25084 -1.96104 0
M  V30 10683 C 1017.4 1.4667 -0.847609 0
M  V30 10684 O 1018.6 1.47432 -1.03266 0
M  V30 10685 H 1014.98 0.420121 -0.623701 0
M  V30 10686 H 1016.95 0.889761 -2.84826 0
M  V30 10687 C 1015.7 2.5863 -2.32392 0
M  V30 10688 H 1015.02 2.42838 -3.176 0
M  V30 10689 H 1016.46 3.3181 -2.63967 0
M  V30 10690 C 1014.92 3.16241 -1.16159 0
M  V30 10691 O 1015.45 3.99272 -0.441034 0
M  V30 10692 N 1013.66 2.75106 -0.936206 0
M  V30 10693 H 1013.2 2.0769 -1.5239 0
M  V30 10694 H 1013.16 3.13991 -0.160317 0
M  V30 10695 N 1016.93 1.50896 0.454776 0
M  V30 10696 C 1017.84 1.73762 1.5762 0
M  V30 10697 C 1018.86 0.621206 1.62533 0
M  V30 10698 O 1020.03 0.901449 1.801 0
M  V30 10699 C 1017.1 1.84183 2.9373 0
M  V30 10700 C 1016.16 3.07982 2.99075 0
M  V30 10701 C 1015.39 3.17896 4.28693 0
M  V30 10702 O 1015.62 2.34184 5.20109 0
M  V30 10703 O 1014.55 4.10749 4.39964 0
M  V30 10704 H 1018.38 2.68856 1.41245 0
M  V30 10705 H 1015.96 1.35187 0.635984 0
M  V30 10706 H 1017.84 1.93123 3.74542 0
M  V30 10707 H 1016.52 0.922742 3.10269 0
M  V30 10708 H 1015.43 3.04531 2.17282 0
M  V30 10709 H 1016.76 3.99523 2.87476 0
M  V30 10710 N 1018.41 -0.709066 1.40748 0
M  V30 10711 C 1019.36 -1.82312 1.4153 0
M  V30 10712 C 1020.33 -1.63868 0.271392 0
M  V30 10713 O 1021.51 -1.8491 0.470431 0
M  V30 10714 C 1018.65 -3.2008 1.29006 0
M  V30 10715 C 1017.77 -3.50051 2.53156 0
M  V30 10716 C 1016.9 -4.7736 2.33025 0
M  V30 10717 C 1015.94 -5.00255 3.52719 0
M  V30 10718 N 1015.08 -6.18782 3.31743 0
M  V30 10719 H 1019.92 -1.80978 2.36751 0
M  V30 10720 H 1017.45 -0.883975 1.17577 0
M  V30 10721 H 1019.41 -3.99645 1.19749 0
M  V30 10722 H 1018.04 -3.20626 0.374014 0
M  V30 10723 H 1017.09 -2.64993 2.72916 0
M  V30 10724 H 1018.41 -3.62877 3.42231 0
M  V30 10725 H 1017.56 -5.64954 2.21159 0
M  V30 10726 H 1016.3 -4.66756 1.41386 0
M  V30 10727 H 1015.3 -4.11114 3.65055 0
M  V30 10728 H 1016.53 -5.12728 4.45295 0
M  V30 10729 H 1014.47 -6.09416 2.42791 0
M  V30 10730 H 1014.39 -6.32313 4.14386 0
M  V30 10731 H 1015.66 -7.09146 3.23623 0
M  V30 10732 N 1019.89 -1.26353 -0.941956 0
M  V30 10733 C 1020.82 -1.10341 -2.05784 0
M  V30 10734 C 1021.8 -0.00881565 -1.70098 0
M  V30 10735 O 1022.99 -0.180699 -1.93357 0
M  V30 10736 C 1020.12 -0.734788 -3.39438 0
M  V30 10737 C 1019.07 -1.78103 -3.89183 0
M  V30 10738 C 1018.4 -1.26675 -5.19478 0
M  V30 10739 C 1019.7 -3.1824 -4.14151 0
M  V30 10740 H 1021.39 -2.03684 -2.19438 0
M  V30 10741 H 1018.94 -0.980698 -1.05443 0
M  V30 10742 H 1020.89 -0.609653 -4.16967 0
M  V30 10743 H 1019.61 0.234354 -3.25758 0
M  V30 10744 H 1018.27 -1.89482 -3.13835 0
M  V30 10745 H 1017.92 -0.287472 -5.02178 0
M  V30 10746 H 1017.62 -1.96612 -5.53731 0
M  V30 10747 H 1019.14 -1.15427 -5.99591 0
M  V30 10748 H 1020.56 -3.09942 -4.82296 0
M  V30 10749 H 1018.95 -3.8576 -4.59684 0
M  V30 10750 H 1020.02 -3.64354 -3.19959 0
M  V30 10751 N 1021.37 1.14642 -1.08144 0
M  V30 10752 C 1022.62 1.8525 -0.807885 0
M  V30 10753 C 1022.94 1.83194 0.668213 0
M  V30 10754 O 1022.21 1.27848 1.48431 0
M  V30 10755 H 1020.79 0.685909 -0.295868 0
M  V30 10756 H 1023.45 1.38935 -1.36686 0
M  V30 10757 H 1022.54 2.90155 -1.14964 0
M  V30 10758 N 1022.85 0.866709 1.31628 0
M  V30 10759 C 1023.78 0.277328 2.27516 0
M  V30 10760 C 1024.79 -0.557786 1.52946 0
M  V30 10761 O 1025.98 -0.38031 1.74402 0
M  V30 10762 C 1023.08 -0.625742 3.33073 0
M  V30 10763 C 1022.25 0.176204 4.37045 0
M  V30 10764 C 1021.31 -0.654497 5.22114 0
M  V30 10765 O 1020.34 -0.0836961 5.69138 0
M  V30 10766 N 1021.54 -1.96708 5.46156 0
M  V30 10767 H 1024.3 1.10133 2.78731 0
M  V30 10768 H 1021.87 0.72787 1.44616 0
M  V30 10769 H 1023.86 -1.18709 3.86898 0
M  V30 10770 H 1022.43 -1.35042 2.81926 0
M  V30 10771 H 1021.65 0.918999 3.83338 0
M  V30 10772 H 1022.94 0.726594 5.03585 0
M  V30 10773 H 1022.33 -2.454 5.09701 0
M  V30 10774 H 1020.89 -2.47629 6.02929 0
M  V30 10775 N 1024.32 -1.44642 0.625825 0
M  V30 10776 C 1025.55 -2.06159 0.13492 0
M  V30 10777 C 1025.96 -1.46801 -1.19357 0
M  V30 10778 O 1025.3 -0.583345 -1.74192 0
M  V30 10779 C 1025.37 -3.5945 -0.0598481 0
M  V30 10780 C 1025.03 -4.41244 1.18965 0
M  V30 10781 C 1026.03 -4.75064 2.11212 0
M  V30 10782 C 1023.71 -4.81705 1.42359 0
M  V30 10783 C 1025.71 -5.48221 3.25165 0
M  V30 10784 C 1023.39 -5.54612 2.5661 0
M  V30 10785 C 1024.39 -5.87789 3.4784 0
M  V30 10786 O 1024.08 -6.59213 4.60101 0
M  V30 10787 H 1023.81 -0.671888 0.0744464 0
M  V30 10788 H 1026.37 -1.86586 0.858775 0
M  V30 10789 H 1024.6 -3.77493 -0.838792 0
M  V30 10790 H 1026.28 -4.02751 -0.504639 0
M  V30 10791 H 1027.05 -4.44348 1.94371 0
M  V30 10792 H 1022.93 -4.55305 0.722401 0
M  V30 10793 H 1026.47 -5.74035 3.96396 0
M  V30 10794 H 1022.37 -5.84743 2.73396 0
M  V30 10795 H 1023.14 -6.77678 4.59015 0
M  V30 10796 N 1025.8 -0.366053 -1.5329 0
M  V30 10797 C 1026.76 0.467904 -2.24373 0
M  V30 10798 C 1027.76 1.00934 -1.25176 0
M  V30 10799 O 1028.95 0.895015 -1.49449 0
M  V30 10800 C 1026.09 1.65405 -2.98084 0
M  V30 10801 H 1027.28 -0.154105 -2.99504 0
M  V30 10802 H 1024.83 -0.117751 -1.55856 0
M  V30 10803 H 1025.57 2.31413 -2.27197 0
M  V30 10804 H 1025.35 1.27277 -3.70868 0
M  V30 10805 H 1026.84 2.24503 -3.52119 0
M  V30 10806 N 1027.28 1.57312 -0.0952337 0
M  V30 10807 C 1028.5 1.99119 0.580206 0
M  V30 10808 C 1028.93 0.973955 1.60922 0
M  V30 10809 O 1028.29 -0.0575338 1.81209 0
M  V30 10810 C 1028.34 3.39893 1.20438 0
M  V30 10811 O 1027.44 3.40941 2.32019 0
M  V30 10812 H 1026.78 0.64748 0.147195 0
M  V30 10813 H 1029.31 2.03836 -0.176686 0
M  V30 10814 H 1029.32 3.7759 1.54564 0
M  V30 10815 H 1028 4.13453 0.450514 0
M  V30 10816 H 1026.57 3.1504 1.9951 0
M  V30 10817 N 1028.76 -0.17846 1.56586 0
M  V30 10818 C 1030.17 -0.741599 1.71339 0
M  V30 10819 C 1030.52 -1.83112 0.704579 0
M  V30 10820 O 1029.64 -2.15975 -0.135557 0
M  V30 10821 C 1030.24 -1.35198 3.10656 0
M  V30 10822 C 1028.8 -1.86202 3.27118 0
M  V30 10823 C 1027.95 -0.738255 2.67292 0
M  V30 10824 H 1030.9 0.0468424 1.58631 0
M  V30 10825 H 1030.92 -2.2216 3.0891 0
M  V30 10826 H 1030.43 -0.558776 3.84056 0
M  V30 10827 H 1028.53 -2.68188 2.58661 0
M  V30 10828 H 1028.64 -2.01237 4.34788 0
M  V30 10829 H 1027.01 -1.15686 2.26912 0
M  V30 10830 H 1027.79 0.0429821 3.43273 0
M  V30 10831 N 1030.24 -1.51135 -0.446768 0
M  V30 10832 C 1031.46 -1.67129 -1.21965 0
M  V30 10833 C 1031.88 -0.36467 -1.85245 0
M  V30 10834 O 1031.24 0.655908 -1.70306 0
M  V30 10835 C 1031.29 -2.78016 -2.31061 0
M  V30 10836 O 1031.01 -4.03615 -1.70371 0
M  V30 10837 C 1032.51 -3.05197 -3.21511 0
M  V30 10838 H 1029.73 -0.561111 -0.367961 0
M  V30 10839 H 1032.27 -1.97499 -0.530517 0
M  V30 10840 H 1030.43 -2.50272 -2.95707 0
M  V30 10841 H 1030.84 -4.65126 -2.424 0
M  V30 10842 H 1032.32 -3.8639 -3.94216 0
M  V30 10843 H 1032.79 -2.17228 -3.81718 0
M  V30 10844 H 1033.4 -3.34565 -2.62577 0
M  V30 10845 N 1031.71 0.701592 -1.41122 0
M  V30 10846 C 1032.68 1.79733 -1.42227 0
M  V30 10847 C 1033.68 1.57708 -0.313831 0
M  V30 10848 O 1034.87 1.64492 -0.573423 0
M  V30 10849 C 1032 3.18024 -1.22775 0
M  V30 10850 H 1033.19 1.80148 -2.39764 0
M  V30 10851 H 1030.74 0.908624 -1.27176 0
M  V30 10852 H 1031.48 3.23252 -0.260552 0
M  V30 10853 H 1031.26 3.35411 -2.0308 0
M  V30 10854 H 1032.75 3.98021 -1.2637 0
M  V30 10855 N 1033.19 1.2685 0.935242 0
M  V30 10856 C 1034.14 1.08923 2.03481 0
M  V30 10857 C 1035.11 -0.00749786 1.66098 0
M  V30 10858 O 1036.29 0.153401 1.90182 0
M  V30 10859 C 1033.43 0.734529 3.37192 0
M  V30 10860 C 1032.55 1.90812 3.87576 0
M  V30 10861 C 1031.68 1.49599 5.097 0
M  V30 10862 C 1030.72 2.63752 5.5236 0
M  V30 10863 N 1029.86 2.23179 6.65684 0
M  V30 10864 H 1034.7 2.03016 2.18148 0
M  V30 10865 H 1032.23 1.01072 1.06878 0
M  V30 10866 H 1034.19 0.509734 4.14074 0
M  V30 10867 H 1032.82 -0.169438 3.22355 0
M  V30 10868 H 1031.87 2.24567 3.0704 0
M  V30 10869 H 1033.19 2.7647 4.1517 0
M  V30 10870 H 1032.34 1.23199 5.9406 0
M  V30 10871 H 1031.08 0.61039 4.83865 0
M  V30 10872 H 1030.08 2.90874 4.66554 0
M  V30 10873 H 1031.31 3.5292 5.80193 0
M  V30 10874 H 1029.26 1.37061 6.41522 0
M  V30 10875 H 1029.17 3.02379 6.92895 0
M  V30 10876 H 1030.44 2.00007 7.53404 0
M  V30 10877 N 1034.67 -1.14067 1.0875 0
M  V30 10878 C 1036.09 -1.37173 0.815823 0
M  V30 10879 C 1036.29 -1.93175 -0.573215 0
M  V30 10880 O 1035.34 -2.14672 -1.32937 0
M  V30 10881 C 1036.66 -2.32955 1.90138 0
M  V30 10882 C 1038.2 -2.46586 1.9278 0
M  V30 10883 C 1038.68 -3.4567 3.0046 0
M  V30 10884 N 1040.17 -3.53216 2.99655 0
M  V30 10885 C 1040.9 -4.29743 3.79616 0
M  V30 10886 N 1040.4 -5.09484 4.69466 0
M  V30 10887 N 1042.19 -4.24975 3.67903 0
M  V30 10888 H 1034.34 -0.760648 1.98313 0
M  V30 10889 H 1036.61 -0.397135 0.860807 0
M  V30 10890 H 1036.31 -1.98949 2.90021 0
M  V30 10891 H 1036.19 -3.32897 1.77368 0
M  V30 10892 H 1038.57 -2.79882 0.935404 0
M  V30 10893 H 1038.66 -1.46593 2.09629 0
M  V30 10894 H 1038.3 -3.13106 3.99909 0
M  V30 10895 H 1038.23 -4.45452 2.80856 0
M  V30 10896 H 1040.72 -2.96314 2.34535 0
M  V30 10897 H 1041.03 -5.65163 5.27077 0
M  V30 10898 H 1039.38 -5.08741 4.73506 0
M  V30 10899 H 1042.57 -3.61751 2.97075 0
M  V30 10900 H 1042.74 -4.84364 4.30459 0
M  V30 10901 N 1036.15 -0.873678 -1.31166 0
M  V30 10902 C 1037.39 -0.493006 -1.98365 0
M  V30 10903 C 1037.75 0.937973 -1.67529 0
M  V30 10904 O 1038.95 1.42419 -2.2797 0
M  V30 10905 C 1037.22 -0.747128 -3.49504 0
M  V30 10906 S 1038.78 -0.466869 -4.36309 0
M  V30 10907 H 1035.6 -0.183882 -0.68681 0
M  V30 10908 H 1038.2 -1.13051 -1.59499 0
M  V30 10909 H 1036.91 -1.78731 -3.69437 0
M  V30 10910 H 1036.44 -0.096761 -3.93281 0
M  V30 10911 H 1038.45 0.699298 -4.91248 0
M  V30 10912 N 1037.63 1.44308 -0.633487 0
M  V30 10913 C 1038.87 2.03904 -0.14226 0
M  V30 10914 C 1039.23 1.48768 1.21376 0
M  V30 10915 O 1040.43 1.99882 1.79724 0
M  V30 10916 C 1038.7 3.5716 -0.130975 0
M  V30 10917 S 1040.26 4.37805 0.295287 0
M  V30 10918 H 1037.08 0.70827 -0.0622429 0
M  V30 10919 H 1039.68 1.76657 -0.837405 0
M  V30 10920 H 1038.39 3.94794 -1.12096 0
M  V30 10921 H 1037.92 3.89021 0.585342 0
M  V30 10922 H 1039.93 4.71732 1.53894 0
M  V30 10923 N 1039.1 0.374177 1.53094 0
M  V30 10924 C 1040.04 -0.503065 2.23611 0
M  V30 10925 C 1041.05 -1.03915 1.25321 0
M  V30 10926 O 1042.24 -0.944064 1.51492 0
M  V30 10927 C 1039.34 -1.70825 2.92698 0
M  V30 10928 C 1038.51 -1.30217 4.17567 0
M  V30 10929 C 1037.57 -2.37036 4.69788 0
M  V30 10930 O 1036.6 -1.99069 5.33254 0
M  V30 10931 N 1037.8 -3.68743 4.4834 0
M  V30 10932 H 1040.56 0.101013 2.9953 0
M  V30 10933 H 1038.12 0.199778 1.60663 0
M  V30 10934 H 1040.12 -2.41779 3.24538 0
M  V30 10935 H 1038.69 -2.219 2.2018 0
M  V30 10936 H 1037.91 -0.422121 3.91933 0
M  V30 10937 H 1039.19 -1.00728 4.9873 0
M  V30 10938 H 1038.59 -4.0236 3.97647 0
M  V30 10939 H 1037.15 -4.35776 4.84709 0
M  V30 10940 N 1040.58 -1.57259 0.103575 0
M  V30 10941 C 1041.86 -1.86143 -0.600852 0
M  V30 10942 C 1042.24 -1.00198 -1.85805 0
M  V30 10943 O 1041.59 -0.0766791 -2.28371 0
M  V30 10944 C 1041.8 -3.36978 -0.908108 0
M  V30 10945 C 1043.15 -4.05228 -1.26788 0
M  V30 10946 O 1044.17 -3.41908 -0.998859 0
M  V30 10947 O 1043.03 -5.16971 -1.7721 0
M  V30 10948 H 1040.12 -0.770064 -0.301547 0
M  V30 10949 H 1042.67 -1.69147 0.136914 0
M  V30 10950 H 1041.44 -3.91296 -0.0165615 0
M  V30 10951 H 1041.06 -3.5935 -1.70156 0
M  V30 10952 N 1042.06 0.170153 -1.56679 0
M  V30 10953 C 1043.31 0.884841 -1.817 0
M  V30 10954 C 1043.63 1.82731 -0.680763 0
M  V30 10955 O 1042.9 1.936 0.299294 0
M  V30 10956 H 1041.48 0.329738 -0.670285 0
M  V30 10957 H 1044.14 0.169691 -1.9416 0
M  V30 10958 H 1043.24 1.46104 -2.7579 0
M  V30 10959 N 1043.54 1.5137 0.438746 0
M  V30 10960 C 1044.78 1.64211 1.19006 0
M  V30 10961 C 1045.12 0.356607 1.90898 0
M  V30 10962 O 1044.39 -0.643722 1.83539 0
M  V30 10963 C 1044.68 2.8445 2.20817 0
M  V30 10964 C 1044.53 4.22972 1.53018 0
M  V30 10965 C 1045.85 3.00207 3.21813 0
M  V30 10966 H 1042.97 0.597628 0.431288 0
M  V30 10967 H 1045.61 1.8385 0.479487 0
M  V30 10968 H 1043.76 2.67836 2.81418 0
M  V30 10969 H 1045.43 4.5125 0.957654 0
M  V30 10970 H 1043.67 4.25736 0.832556 0
M  V30 10971 H 1044.34 5.03094 2.27158 0
M  V30 10972 H 1046.82 3.15522 2.71266 0
M  V30 10973 H 1045.7 3.85904 3.90345 0
M  V30 10974 H 1045.96 2.12216 3.87836 0
M  V30 10975 N 1045.02 -0.694098 1.41492 0
M  V30 10976 C 1046.24 -1.48286 1.44288 0
M  V30 10977 C 1046.66 -1.88737 0.0485783 0
M  V30 10978 O 1046.02 -1.56881 -0.932449 0
M  V30 10979 C 1046.07 -2.74446 2.3529 0
M  V30 10980 O 1045.79 -2.35698 3.69294 0
M  V30 10981 C 1047.29 -3.68175 2.46905 0
M  V30 10982 H 1044.51 -0.45692 0.491391 0
M  V30 10983 H 1047.05 -0.854477 1.85793 0
M  V30 10984 H 1045.21 -3.33518 1.9709 0
M  V30 10985 H 1045.62 -3.17029 4.17843 0
M  V30 10986 H 1047.1 -4.53476 3.14743 0
M  V30 10987 H 1047.57 -4.12763 1.50078 0
M  V30 10988 H 1048.18 -3.15006 2.85747 0
M  V30 10989 N 1046.49 -1.27344 -0.928501 0
M  V30 10990 C 1047.91 -1.04732 -1.2043 0
M  V30 10991 C 1048.11 0.219623 -2.003 0
M  V30 10992 O 1047.17 0.925333 -2.34934 0
M  V30 10993 C 1048.48 -2.28625 -1.95323 0
M  V30 10994 C 1050.03 -2.33655 -2.08265 0
M  V30 10995 C 1050.5 -3.57275 -2.86563 0
M  V30 10996 N 1051.99 -3.57828 -2.94132 0
M  V30 10997 C 1052.73 -4.50152 -3.55177 0
M  V30 10998 N 1052.22 -5.52779 -4.17621 0
M  V30 10999 N 1054.02 -4.37777 -3.52573 0
M  V30 11000 H 1046.17 -2.08697 -0.394892 0
M  V30 11001 H 1048.43 -0.91782 -0.2373 0
M  V30 11002 H 1048.14 -3.20845 -1.44054 0
M  V30 11003 H 1048.01 -2.33878 -2.95941 0
M  V30 11004 H 1050.4 -1.41942 -2.58721 0
M  V30 11005 H 1050.48 -2.32406 -1.0687 0
M  V30 11006 H 1050.12 -4.49325 -2.3679 0
M  V30 11007 H 1050.05 -3.55775 -3.88242 0
M  V30 11008 H 1052.54 -2.83607 -2.49751 0
M  V30 11009 H 1052.86 -6.19394 -4.62137 0
M  V30 11010 H 1051.2 -5.56622 -4.16169 0
M  V30 11011 H 1054.39 -3.56811 -3.02991 0
M  V30 11012 H 1054.57 -5.09919 -3.99858 0
M  V30 11013 N 1047.97 1.13488 -1.09353 0
M  V30 11014 C 1048.9 2.20988 -0.75409 0
M  V30 11015 C 1049.88 1.67977 0.267901 0
M  V30 11016 O 1051.07 1.93722 0.136128 0
M  V30 11017 C 1048.2 3.46869 -0.173042 0
M  V30 11018 C 1047.15 4.12965 -1.12446 0
M  V30 11019 C 1046.48 5.33163 -0.405157 0
M  V30 11020 C 1047.78 4.60388 -2.46658 0
M  V30 11021 H 1049.47 2.49639 -1.6529 0
M  V30 11022 H 1047.02 1.19987 -0.796182 0
M  V30 11023 H 1048.97 4.21331 0.0764988 0
M  V30 11024 H 1047.7 3.17611 0.760956 0
M  V30 11025 H 1046.35 3.40469 -1.35927 0
M  V30 11026 H 1046 5.00169 0.532955 0
M  V30 11027 H 1045.7 5.78332 -1.03952 0
M  V30 11028 H 1047.23 6.1038 -0.163899 0
M  V30 11029 H 1048.64 5.26276 -2.27389 0
M  V30 11030 H 1047.04 5.16294 -3.05876 0
M  V30 11031 H 1048.11 3.74949 -3.07476 0
M  V30 11032 N 1049.45 0.880621 1.30701 0
M  V30 11033 C 1050.86 0.547993 1.78477 0
M  V30 11034 C 1051.21 -0.935633 1.72454 0
M  V30 11035 O 1050.34 -1.73094 1.29874 0
M  V30 11036 C 1050.93 0.98795 3.24076 0
M  V30 11037 C 1049.49 0.706805 3.69704 0
M  V30 11038 C 1048.64 1.17335 2.51252 0
M  V30 11039 H 1051.59 1.06528 1.17633 0
M  V30 11040 H 1051.61 0.31508 3.79193 0
M  V30 11041 H 1051.12 2.06778 3.28427 0
M  V30 11042 H 1049.22 -0.36122 3.70845 0
M  V30 11043 H 1049.34 1.2913 4.6137 0
M  V30 11044 H 1047.7 0.592808 2.47705 0
M  V30 11045 H 1048.48 2.26083 2.58343 0
M  V30 11046 N 1050.93 -1.4397 0.641131 0
M  V30 11047 C 1051.86 -2.27948 -0.10731 0
M  V30 11048 C 1052.84 -1.39124 -0.841615 0
M  V30 11049 O 1054.02 -1.68566 -0.843662 0
M  V30 11050 C 1051.15 -3.18277 -1.15835 0
M  V30 11051 C 1050.2 -4.23276 -0.52345 0
M  V30 11052 S 1051.03 -5.30984 0.693969 0
M  V30 11053 C 1052.19 -6.24882 -0.356831 0
M  V30 11054 H 1052.42 -2.91077 0.605083 0
M  V30 11055 H 1049.95 -1.48303 0.429598 0
M  V30 11056 H 1051.91 -3.70867 -1.75977 0
M  V30 11057 H 1050.57 -2.54348 -1.84299 0
M  V30 11058 H 1049.76 -4.86533 -1.31536 0
M  V30 11059 H 1049.37 -3.74 0.00358355 0
M  V30 11060 H 1051.66 -6.66305 -1.22653 0
M  V30 11061 H 1052.6 -7.07692 0.240412 0
M  V30 11062 H 1053.01 -5.60301 -0.687217 0
M  V30 11063 N 1052.41 -0.382291 -1.52893 0
M  V30 11064 C 1053.34 0.500194 -2.22651 0
M  V30 11065 C 1054.32 1.06969 -1.22459 0
M  V30 11066 O 1055.5 1.12267 -1.51422 0
M  V30 11067 C 1052.63 1.6917 -2.93427 0
M  V30 11068 C 1051.68 1.24811 -4.07829 0
M  V30 11069 S 1052.51 0.235466 -5.34982 0
M  V30 11070 C 1053.66 1.43292 -6.09277 0
M  V30 11071 H 1053.9 -0.0921913 -2.97157 0
M  V30 11072 H 1051.43 -0.16645 -1.535 0
M  V30 11073 H 1053.39 2.37507 -3.34815 0
M  V30 11074 H 1052.05 2.25537 -2.18613 0
M  V30 11075 H 1051.24 2.13754 -4.56426 0
M  V30 11076 H 1050.84 0.643744 -3.68418 0
M  V30 11077 H 1053.14 2.36118 -6.35023 0
M  V30 11078 H 1054.08 0.988003 -7.01173 0
M  V30 11079 H 1054.49 1.64655 -5.39953 0
M  V30 11080 N 1053.89 1.57202 -0.111913 0
M  V30 11081 C 1055.3 1.57713 0.244702 0
M  V30 11082 C 1055.5 1.12419 1.67225 0
M  V30 11083 O 1054.56 0.808329 2.39212 0
M  V30 11084 C 1055.87 3.00695 0.0178289 0
M  V30 11085 C 1057.42 3.12887 0.0842781 0
M  V30 11086 C 1057.89 4.57856 -0.114812 0
M  V30 11087 N 1059.38 4.6316 -0.0605423 0
M  V30 11088 C 1060.12 5.73086 -0.189594 0
M  V30 11089 N 1059.62 6.91787 -0.37442 0
M  V30 11090 N 1061.41 5.6195 -0.12967 0
M  V30 11091 H 1053.56 1.84947 -1.04443 0
M  V30 11092 H 1055.82 0.854418 -0.4107 0
M  V30 11093 H 1055.53 3.38093 -0.968802 0
M  V30 11094 H 1055.4 3.69611 0.752815 0
M  V30 11095 H 1057.79 2.7535 1.06143 0
M  V30 11096 H 1057.87 2.46528 -0.682474 0
M  V30 11097 H 1057.51 4.9609 -1.0889 0
M  V30 11098 H 1057.44 5.22297 0.671839 0
M  V30 11099 H 1059.94 3.77817 0.0790856 0
M  V30 11100 H 1060.25 7.71406 -0.463948 0
M  V30 11101 H 1058.59 6.93788 -0.410303 0
M  V30 11102 H 1061.78 4.68098 0.0137115 0
M  V30 11103 H 1061.96 6.47578 -0.233688 0
M  V30 11104 N 1055.36 -0.161842 1.56767 0
M  V30 11105 C 1056.59 -0.896274 1.87034 0
M  V30 11106 C 1057.01 -1.74617 0.699314 0
M  V30 11107 O 1056.37 -1.77861 -0.351435 0
M  V30 11108 C 1056.42 -1.74105 3.15784 0
M  V30 11109 O 1055.52 -2.84372 2.98674 0
M  V30 11110 H 1054.86 -0.250523 0.614926 0
M  V30 11111 H 1057.39 -0.157127 2.03996 0
M  V30 11112 H 1057.4 -2.13907 3.4743 0
M  V30 11113 H 1056.08 -1.11684 4.00624 0
M  V30 11114 H 1054.66 -2.48084 2.78404 0
M  V30 11115 N 1056.84 -1.516 -0.430713 0
M  V30 11116 C 1058.08 -1.6626 -1.18899 0
M  V30 11117 C 1058.45 -0.373877 -1.88325 0
M  V30 11118 O 1059.65 -0.39632 -2.65862 0
M  V30 11119 C 1057.92 -2.83693 -2.17378 0
M  V30 11120 S 1059.48 -3.18717 -3.01604 0
M  V30 11121 H 1056.29 -0.585681 -0.403112 0
M  V30 11122 H 1058.9 -1.89528 -0.479538 0
M  V30 11123 H 1057.6 -3.75759 -1.65025 0
M  V30 11124 H 1057.13 -2.62634 -2.92894 0
M  V30 11125 H 1059.15 -2.65665 -4.1909 0
M  V30 11126 N 1058.32 0.686584 -1.41858 0
M  V30 11127 C 1059.23 1.83002 -1.46791 0
M  V30 11128 C 1060.25 1.70284 -0.357675 0
M  V30 11129 O 1061.42 1.92042 -0.606781 0
M  V30 11130 C 1058.49 3.19056 -1.35661 0
M  V30 11131 C 1057.55 3.43817 -2.57077 0
M  V30 11132 C 1056.78 4.7338 -2.46469 0
M  V30 11133 O 1057 5.50483 -1.49413 0
M  V30 11134 O 1055.94 4.99124 -3.36391 0
M  V30 11135 H 1059.76 1.81797 -2.43277 0
M  V30 11136 H 1057.35 0.840812 -1.23494 0
M  V30 11137 H 1059.23 4.00267 -1.31773 0
M  V30 11138 H 1057.91 3.20925 -0.422951 0
M  V30 11139 H 1056.81 2.625 -2.66541 0
M  V30 11140 H 1058.15 3.4677 -3.49302 0
M  V30 11141 N 1059.8 1.27835 0.921735 0
M  V30 11142 C 1060.73 1.06874 2.02758 0
M  V30 11143 C 1061.74 0.0229418 1.62784 0
M  V30 11144 O 1062.93 0.265145 1.7652 0
M  V30 11145 C 1060.03 0.60037 3.3354 0
M  V30 11146 C 1059.2 1.71979 4.02172 0
M  V30 11147 C 1058.26 1.24615 5.11231 0
M  V30 11148 O 1057.29 1.94692 5.34868 0
M  V30 11149 N 1058.49 0.105021 5.80405 0
M  V30 11150 H 1061.26 2.02105 2.213 0
M  V30 11151 H 1058.82 1.19481 1.09251 0
M  V30 11152 H 1060.81 0.267281 4.03816 0
M  V30 11153 H 1059.38 -0.258872 3.11526 0
M  V30 11154 H 1058.6 2.22287 3.25549 0
M  V30 11155 H 1059.89 2.47092 4.44773 0
M  V30 11156 H 1059.29 -0.479745 5.63662 0
M  V30 11157 H 1057.84 -0.168846 6.51581 0
M  V30 11158 N 1061.28 -1.12907 1.09954 0
M  V30 11159 C 1062.69 -1.363 0.830326 0
M  V30 11160 C 1062.89 -1.93772 -0.552694 0
M  V30 11161 O 1061.95 -2.1607 -1.30652 0
M  V30 11162 C 1063.26 -2.30925 1.92598 0
M  V30 11163 C 1064.81 -2.44528 1.95385 0
M  V30 11164 C 1065.28 -3.42464 3.0411 0
M  V30 11165 N 1066.77 -3.50018 3.03384 0
M  V30 11166 C 1067.51 -4.25693 3.84152 0
M  V30 11167 N 1067.01 -5.04476 4.74843 0
M  V30 11168 N 1068.8 -4.21049 3.7239 0
M  V30 11169 H 1060.95 -0.739571 1.99108 0
M  V30 11170 H 1063.21 -0.387983 0.86497 0
M  V30 11171 H 1062.92 -1.95861 2.92115 0
M  V30 11172 H 1062.79 -3.30997 1.80889 0
M  V30 11173 H 1065.18 -2.78875 0.965037 0
M  V30 11174 H 1065.26 -1.44361 2.11172 0
M  V30 11175 H 1064.9 -3.08847 4.03207 0
M  V30 11176 H 1064.83 -4.42448 2.85565 0
M  V30 11177 H 1067.33 -2.93809 2.37665 0
M  V30 11178 H 1067.64 -5.59541 5.33042 0
M  V30 11179 H 1065.98 -5.0369 4.78875 0
M  V30 11180 H 1069.17 -3.5858 3.00895 0
M  V30 11181 H 1069.35 -4.79771 4.35572 0
M  V30 11182 N 1062.75 -0.88754 -1.30232 0
M  V30 11183 C 1063.72 -0.361095 -2.26338 0
M  V30 11184 C 1064.72 0.497871 -1.52898 0
M  V30 11185 O 1065.91 0.30466 -1.71515 0
M  V30 11186 C 1063.04 0.485135 -3.3743 0
M  V30 11187 H 1064.23 -1.20973 -2.74419 0
M  V30 11188 H 1061.78 -0.664619 -1.41466 0
M  V30 11189 H 1062.52 1.35425 -2.9467 0
M  V30 11190 H 1062.3 -0.130173 -3.91884 0
M  V30 11191 H 1063.79 0.845169 -4.08958 0
M  V30 11192 N 1064.23 1.43628 -0.648757 0
M  V30 11193 C 1065.2 2.29172 0.0360713 0
M  V30 11194 C 1066.2 1.41974 0.754976 0
M  V30 11195 O 1067.39 1.63654 0.5969 0
M  V30 11196 C 1064.52 3.23942 1.0618 0
M  V30 11197 H 1065.71 2.91214 -0.716544 0
M  V30 11198 H 1063.26 1.50833 -0.409759 0
M  V30 11199 H 1064 2.66786 1.8438 0
M  V30 11200 H 1063.78 3.88223 0.550016 0
M  V30 11201 H 1065.27 3.8816 1.54019 0
M  V30 11202 N 1065.71 0.390394 1.52688 0
M  V30 11203 C 1067.13 0.0404028 1.59549 0
M  V30 11204 C 1067.33 -1.44503 1.40432 0
M  V30 11205 O 1066.38 -2.20968 1.22187 0
M  V30 11206 C 1067.7 0.518561 2.96195 0
M  V30 11207 C 1069.24 0.474913 3.09376 0
M  V30 11208 C 1069.72 0.929278 4.48473 0
M  V30 11209 N 1071.21 0.885335 4.5466 0
M  V30 11210 C 1071.94 1.2083 5.60524 0
M  V30 11211 N 1071.44 1.6018 6.74028 0
M  V30 11212 N 1073.23 1.12949 5.50635 0
M  V30 11213 H 1065.38 1.35743 1.63363 0
M  V30 11214 H 1067.65 0.556453 0.767505 0
M  V30 11215 H 1067.35 1.55606 3.15404 0
M  V30 11216 H 1067.23 -0.081779 3.77111 0
M  V30 11217 H 1069.61 -0.553503 2.89863 0
M  V30 11218 H 1069.7 1.11107 2.3041 0
M  V30 11219 H 1069.34 1.95593 4.68728 0
M  V30 11220 H 1069.27 0.270121 5.25907 0
M  V30 11221 H 1071.76 0.595787 3.73174 0
M  V30 11222 H 1072.07 1.83184 7.50775 0
M  V30 11223 H 1070.42 1.64067 6.75357 0
M  V30 11224 H 1073.61 0.821074 4.60843 0
M  V30 11225 H 1073.78 1.3845 6.33037 0
M  V30 11226 N 1067.19 -1.57141 0.120249 0
M  V30 11227 C 1068.43 -1.95527 -0.538245 0
M  V30 11228 C 1068.77 -1.00373 -1.6625 0
M  V30 11229 O 1068.04 -0.0411734 -1.94456 0
M  V30 11230 C 1068.33 -3.43843 -1.06976 0
M  V30 11231 C 1068.18 -4.49771 0.0511596 0
M  V30 11232 C 1069.5 -3.94035 -1.96022 0
M  V30 11233 H 1066.62 -0.710958 -0.194183 0
M  V30 11234 H 1069.26 -1.88986 0.196061 0
M  V30 11235 H 1067.41 -3.49548 -1.69553 0
M  V30 11236 H 1069.08 -4.56163 0.686503 0
M  V30 11237 H 1067.32 -4.27882 0.714127 0
M  V30 11238 H 1067.99 -5.50812 -0.361995 0
M  V30 11239 H 1070.47 -3.9064 -1.43315 0
M  V30 11240 H 1069.35 -4.98329 -2.3013 0
M  V30 11241 H 1069.61 -3.34803 -2.8872 0
M  V30 11242 N 1068.67 0.153526 -1.5685 0
M  V30 11243 C 1069.6 1.2147 -1.94365 0
M  V30 11244 C 1070.61 1.39532 -0.838726 0
M  V30 11245 O 1071.8 1.39219 -1.11715 0
M  V30 11246 C 1068.9 2.5806 -2.19677 0
M  V30 11247 C 1068.07 2.61062 -3.50949 0
M  V30 11248 C 1067.13 3.79144 -3.64878 0
M  V30 11249 O 1066.16 3.64319 -4.37333 0
M  V30 11250 N 1067.36 4.96333 -3.01054 0
M  V30 11251 H 1070.13 0.895889 -2.85996 0
M  V30 11252 H 1067.69 0.343147 -1.58222 0
M  V30 11253 H 1069.68 3.35553 -2.26243 0
M  V30 11254 H 1068.25 2.8226 -1.34343 0
M  V30 11255 H 1067.47 1.69533 -3.55882 0
M  V30 11256 H 1068.76 2.60094 -4.37297 0
M  V30 11257 H 1068.15 5.1128 -2.42093 0
M  V30 11258 H 1066.71 5.71625 -3.13191 0
M  V30 11259 N 1070.14 1.51827 0.422667 0
M  V30 11260 C 1071.08 1.70409 1.53275 0
M  V30 11261 C 1072.09 0.584584 1.51942 0
M  V30 11262 O 1073.28 0.859349 1.56453 0
M  V30 11263 C 1070.38 1.717 2.92185 0
M  V30 11264 C 1069.55 3.00472 3.17861 0
M  V30 11265 C 1068.61 2.93755 4.36571 0
M  V30 11266 O 1067.64 3.67682 4.3451 0
M  V30 11267 N 1068.84 2.10612 5.40946 0
M  V30 11268 H 1071.6 2.66176 1.37734 0
M  V30 11269 H 1069.16 1.49895 0.611799 0
M  V30 11270 H 1071.16 1.64756 3.69645 0
M  V30 11271 H 1069.73 0.834655 3.01251 0
M  V30 11272 H 1068.95 3.21171 2.28567 0
M  V30 11273 H 1070.23 3.85684 3.31851 0
M  V30 11274 H 1069.63 1.49954 5.45463 0
M  V30 11275 H 1068.19 2.09535 6.17202 0
M  V30 11276 N 1071.62 -0.679052 1.4222 0
M  V30 11277 C 1073.03 -1.25953 1.37815 0
M  V30 11278 C 1073.38 -1.96077 0.0693215 0
M  V30 11279 O 1072.51 -1.99765 -0.832047 0
M  V30 11280 C 1073.1 -2.29063 2.49631 0
M  V30 11281 C 1071.66 -2.82647 2.48571 0
M  V30 11282 C 1070.81 -1.56909 2.28637 0
M  V30 11283 H 1073.76 -0.472714 1.51496 0
M  V30 11284 H 1073.78 -3.10708 2.19638 0
M  V30 11285 H 1073.29 -1.77996 3.44876 0
M  V30 11286 H 1071.4 -3.37846 1.57132 0
M  V30 11287 H 1071.51 -3.31952 3.45463 0
M  V30 11288 H 1069.87 -1.83323 1.76819 0
M  V30 11289 H 1070.66 -1.07814 3.25931 0
M  V30 11290 N 1073.1 -1.28322 -0.914942 0
M  V30 11291 C 1074.38 -1.06111 -1.64316 0
M  V30 11292 C 1074.76 0.399934 -2.07277 0
M  V30 11293 O 1074.11 1.38577 -1.81683 0
M  V30 11294 C 1074.32 -2.03461 -2.83557 0
M  V30 11295 C 1075.66 -2.33541 -3.54604 0
M  V30 11296 O 1076.69 -2.01536 -2.93704 0
M  V30 11297 O 1075.55 -2.88158 -4.64357 0
M  V30 11298 H 1072.64 -0.405451 -0.72079 0
M  V30 11299 H 1075.19 -1.39636 -0.964352 0
M  V30 11300 H 1073.96 -3.01938 -2.48896 0
M  V30 11301 H 1073.58 -1.70574 -3.59152 0
M  V30 11302 N 1074.58 1.12322 -1.10551 0
M  V30 11303 C 1075.82 1.85497 -0.858492 0
M  V30 11304 C 1076.18 1.8222 0.604966 0
M  V30 11305 O 1077.38 2.5075 0.968382 0
M  V30 11306 C 1075.65 3.29124 -1.39327 0
M  V30 11307 S 1077.21 4.19659 -1.28186 0
M  V30 11308 H 1074.03 0.639768 -0.31019 0
M  V30 11309 H 1076.63 1.35298 -1.41119 0
M  V30 11310 H 1075.34 3.29069 -2.45238 0
M  V30 11311 H 1074.87 3.84388 -0.837203 0
M  V30 11312 H 1076.88 4.95618 -0.240325 0
M  V30 11313 N 1076.06 0.894434 1.2976 0
M  V30 11314 C 1077.47 0.589778 1.48303 0
M  V30 11315 C 1077.67 -0.870085 1.81746 0
M  V30 11316 O 1076.73 -1.65065 1.91076 0
M  V30 11317 C 1078.04 1.51107 2.59975 0
M  V30 11318 C 1079.59 1.51571 2.73853 0
M  V30 11319 C 1080.06 2.42316 3.88648 0
M  V30 11320 N 1081.56 2.40333 3.95973 0
M  V30 11321 C 1082.29 3.07254 4.84131 0
M  V30 11322 N 1081.79 3.83435 5.77018 0
M  V30 11323 N 1083.58 2.96438 4.77578 0
M  V30 11324 H 1075.73 1.83871 1.06327 0
M  V30 11325 H 1077.99 0.78758 0.527657 0
M  V30 11326 H 1077.7 2.55097 2.42112 0
M  V30 11327 H 1077.57 1.22767 3.56662 0
M  V30 11328 H 1079.96 0.483277 2.91116 0
M  V30 11329 H 1080.04 1.83946 1.77757 0
M  V30 11330 H 1079.69 3.4565 3.72141 0
M  V30 11331 H 1079.62 2.07252 4.84101 0
M  V30 11332 H 1082.11 1.84979 3.29532 0
M  V30 11333 H 1082.42 4.31565 6.4107 0
M  V30 11334 H 1080.76 3.87542 5.7692 0
M  V30 11335 H 1083.96 2.36442 4.03996 0
M  V30 11336 H 1084.13 3.48867 5.46073 0
M  V30 11337 N 1077.53 -1.43282 0.656365 0
M  V30 11338 C 1078.44 -2.34576 -0.033864 0
M  V30 11339 C 1079.46 -1.5406 -0.808793 0
M  V30 11340 O 1080.64 -1.867 -0.755322 0
M  V30 11341 C 1077.7 -3.32378 -0.986197 0
M  V30 11342 C 1076.76 -4.28797 -0.207851 0
M  V30 11343 C 1076 -5.21927 -1.11482 0
M  V30 11344 O 1076.22 -5.19554 -2.35414 0
M  V30 11345 O 1075.15 -5.99045 -0.585536 0
M  V30 11346 H 1078.98 -2.95099 0.717668 0
M  V30 11347 H 1076.56 -1.43475 0.416556 0
M  V30 11348 H 1078.45 -3.9251 -1.53341 0
M  V30 11349 H 1077.12 -2.74354 -1.7179 0
M  V30 11350 H 1076.03 -3.72134 0.383022 0
M  V30 11351 H 1077.36 -4.89811 0.48435 0
M  V30 11352 N 1079.01 -0.398486 -1.52479 0
M  V30 11353 C 1080.42 0.0735015 -1.86555 0
M  V30 11354 C 1080.78 1.45361 -1.31775 0
M  V30 11355 O 1079.9 2.0632 -0.652759 0
M  V30 11356 C 1080.5 0.140152 -3.3851 0
M  V30 11357 C 1079.05 0.556451 -3.72264 0
M  V30 11358 C 1078.2 -0.275792 -2.75925 0
M  V30 11359 H 1081.15 -0.615991 -1.46257 0
M  V30 11360 H 1081.17 0.957507 -3.68255 0
M  V30 11361 H 1080.69 -0.864442 -3.7835 0
M  V30 11362 H 1078.79 1.56808 -3.37997 0
M  V30 11363 H 1078.9 0.308227 -4.78107 0
M  V30 11364 H 1077.26 0.260304 -2.53366 0
M  V30 11365 H 1078.05 -1.27854 -3.18604 0
M  V30 11366 N 1080.49 1.57075 -0.12858 0
M  V30 11367 C 1081.74 1.9552 0.527087 0
M  V30 11368 C 1082.07 1.01243 1.66072 0
M  V30 11369 O 1081.32 0.0381076 1.95663 0
M  V30 11370 C 1081.62 3.40329 1.09138 0
M  V30 11371 C 1081.29 4.50832 0.0781039 0
M  V30 11372 C 1079.95 4.80782 -0.200493 0
M  V30 11373 C 1082.3 5.17595 -0.61192 0
M  V30 11374 C 1079.63 5.74809 -1.17524 0
M  V30 11375 C 1081.98 6.12671 -1.57536 0
M  V30 11376 C 1080.64 6.41008 -1.86184 0
M  V30 11377 H 1079.91 0.715458 0.192875 0
M  V30 11378 H 1082.56 1.90328 -0.211515 0
M  V30 11379 H 1080.87 3.42262 1.90694 0
M  V30 11380 H 1082.56 3.67393 1.60696 0
M  V30 11381 H 1079.15 4.2751 0.30543 0
M  V30 11382 H 1083.34 4.94605 -0.40986 0
M  V30 11383 H 1078.59 5.95065 -1.40384 0
M  V30 11384 H 1082.77 6.63486 -2.11565 0
M  V30 11385 H 1080.39 7.13673 -2.61868 0
M  V30 11386 N 1081.97 -0.145205 1.5693 0
M  V30 11387 C 1082.9 -1.18096 2.01434 0
M  V30 11388 C 1083.88 -1.447 0.894204 0
M  V30 11389 O 1085.07 -1.55589 1.16214 0
M  V30 11390 C 1082.2 -2.51369 2.39647 0
M  V30 11391 C 1081.15 -2.39283 3.54863 0
M  V30 11392 C 1080.48 -3.77283 3.78895 0
M  V30 11393 C 1081.78 -1.8754 4.87469 0
M  V30 11394 H 1083.47 -0.810897 2.8821 0
M  V30 11395 H 1081.02 -0.388624 1.38657 0
M  V30 11396 H 1082.97 -3.24054 2.69382 0
M  V30 11397 H 1081.69 -2.90214 1.49811 0
M  V30 11398 H 1080.35 -1.6905 3.25296 0
M  V30 11399 H 1080 -4.13567 2.86307 0
M  V30 11400 H 1079.7 -3.70057 4.56433 0
M  V30 11401 H 1081.22 -4.51514 4.11057 0
M  V30 11402 H 1082.64 -2.50019 5.1591 0
M  V30 11403 H 1081.03 -1.912 5.68826 0
M  V30 11404 H 1082.1 -0.831194 4.77723 0
M  V30 11405 N 1083.45 -1.52049 -0.414609 0
M  V30 11406 C 1084.67 -1.6997 -1.18848 0
M  V30 11407 C 1085.1 -0.406058 -1.83665 0
M  V30 11408 O 1084.46 0.635981 -1.69779 0
M  V30 11409 C 1084.5 -2.8327 -2.23138 0
M  V30 11410 O 1083.61 -2.48457 -3.29155 0
M  V30 11411 H 1082.95 -0.566003 -0.347183 0
M  V30 11412 H 1085.48 -1.98726 -0.486757 0
M  V30 11413 H 1085.49 -3.08022 -2.67557 0
M  V30 11414 H 1084.16 -3.7713 -1.75344 0
M  V30 11415 H 1082.74 -2.34357 -2.90054 0
M  V30 11416 N 1084.93 0.6715 -1.42579 0
M  V30 11417 C 1086.17 1.44353 -1.44712 0
M  V30 11418 C 1086.53 1.91898 -0.0626628 0
M  V30 11419 O 1087.73 2.68768 0.0412789 0
M  V30 11420 C 1086 2.60616 -2.44569 0
M  V30 11421 S 1087.56 3.49416 -2.65431 0
M  V30 11422 H 1084.38 0.492985 -0.512334 0
M  V30 11423 H 1086.98 0.781349 -1.79207 0
M  V30 11424 H 1085.68 2.23931 -3.43923 0
M  V30 11425 H 1085.22 3.31703 -2.1151 0
M  V30 11426 H 1087.23 4.56712 -1.9398 0
M  V30 11427 N 1086.4 1.28806 0.908124 0
M  V30 11428 C 1087.64 1.17546 1.67219 0
M  V30 11429 C 1088.01 -0.270396 1.90086 0
M  V30 11430 O 1089.21 -0.505808 2.63998 0
M  V30 11431 C 1087.48 1.95774 2.99011 0
M  V30 11432 S 1089.04 2.00953 3.90081 0
M  V30 11433 H 1085.86 0.419283 0.574215 0
M  V30 11434 H 1088.46 1.6298 1.07971 0
M  V30 11435 H 1087.16 2.99978 2.80074 0
M  V30 11436 H 1086.69 1.50911 3.63303 0
M  V30 11437 H 1088.71 1.1201 4.83392 0
M  V30 11438 N 1087.88 -1.11734 1.11145 0
M  V30 11439 C 1088.81 -2.17438 0.724804 0
M  V30 11440 C 1089.83 -1.6099 -0.242069 0
M  V30 11441 O 1091.02 -1.78482 -0.0254259 0
M  V30 11442 C 1088.12 -3.38863 0.050004 0
M  V30 11443 C 1087.29 -4.24785 1.04292 0
M  V30 11444 C 1086.35 -5.24691 0.398243 0
M  V30 11445 O 1085.37 -5.59408 1.05125 0
M  V30 11446 N 1086.58 -5.74388 -0.840184 0
M  V30 11447 H 1089.34 -2.51219 1.63429 0
M  V30 11448 H 1086.9 -1.27226 1.00125 0
M  V30 11449 H 1088.89 -4.02788 -0.392929 0
M  V30 11450 H 1087.46 -3.0317 -0.762005 0
M  V30 11451 H 1086.68 -3.57363 1.6639 0
M  V30 11452 H 1087.97 -4.79033 1.71478 0
M  V30 11453 H 1087.37 -5.48359 -1.38994 0
M  V30 11454 H 1085.93 -6.40163 -1.22615 0
M  V30 11455 N 1089.36 -0.901303 -1.29284 0
M  V30 11456 C 1090.61 -0.528043 -1.95494 0
M  V30 11457 C 1090.93 0.92597 -1.71044 0
M  V30 11458 O 1090.19 1.67185 -1.01723 0
M  V30 11459 C 1090.49 -0.768828 -3.49033 0
M  V30 11460 C 1090.15 -2.20045 -3.93562 0
M  V30 11461 C 1088.82 -2.59189 -4.05431 0
M  V30 11462 C 1091.17 -3.13266 -4.1655 0
M  V30 11463 C 1088.5 -3.90733 -4.37658 0
M  V30 11464 C 1090.85 -4.4436 -4.50252 0
M  V30 11465 C 1089.51 -4.83375 -4.60331 0
M  V30 11466 H 1088.78 -0.193225 -0.715364 0
M  V30 11467 H 1091.43 -1.14027 -1.53851 0
M  V30 11468 H 1089.73 -0.0736997 -3.91731 0
M  V30 11469 H 1091.43 -0.459384 -3.9836 0
M  V30 11470 H 1088.02 -1.88666 -3.84842 0
M  V30 11471 H 1092.21 -2.84237 -4.06845 0
M  V30 11472 H 1087.46 -4.2068 -4.43665 0
M  V30 11473 H 1091.64 -5.16618 -4.66989 0
M  V30 11474 H 1089.26 -5.8534 -4.85058 0
M  V30 11475 N 1090.84 1.42931 -0.663954 0
M  V30 11476 C 1091.8 2.29197 0.0117626 0
M  V30 11477 C 1092.8 1.42767 0.739875 0
M  V30 11478 O 1093.99 1.64278 0.579509 0
M  V30 11479 C 1091.12 3.2505 1.02738 0
M  V30 11480 H 1092.32 2.90438 -0.747391 0
M  V30 11481 H 1089.87 1.5039 -0.425733 0
M  V30 11482 H 1090.6 2.68726 1.8154 0
M  V30 11483 H 1090.39 3.88785 0.508809 0
M  V30 11484 H 1091.88 3.89771 1.49893 0
M  V30 11485 N 1092.32 0.406567 1.52266 0
M  V30 11486 C 1093.23 -0.4271 2.30679 0
M  V30 11487 C 1094.24 -1.0559 1.383 0
M  V30 11488 O 1095.42 -1.05797 1.71374 0
M  V30 11489 C 1092.48 -1.53008 3.1111 0
M  V30 11490 C 1091.54 -0.924604 4.19225 0
M  V30 11491 C 1090.78 -1.97502 4.95811 0
M  V30 11492 O 1091 -3.19277 4.72671 0
M  V30 11493 O 1089.93 -1.58268 5.80719 0
M  V30 11494 H 1093.76 0.212187 3.02958 0
M  V30 11495 H 1091.34 0.169835 1.48432 0
M  V30 11496 H 1093.23 -2.17046 3.61205 0
M  V30 11497 H 1091.9 -2.15401 2.41628 0
M  V30 11498 H 1090.81 -0.247009 3.73284 0
M  V30 11499 H 1092.14 -0.34463 4.90992 0
M  V30 11500 N 1093.79 -1.57004 0.136909 0
M  V30 11501 C 1095.02 -2.00587 -0.527209 0
M  V30 11502 C 1095.44 -1.01628 -1.58283 0
M  V30 11503 O 1094.8 0.00946934 -1.81298 0
M  V30 11504 C 1094.85 -3.42967 -1.11384 0
M  V30 11505 O 1093.95 -3.46973 -2.22898 0
M  V30 11506 H 1093.3 -0.651155 -0.129976 0
M  V30 11507 H 1095.83 -2.03296 0.230667 0
M  V30 11508 H 1095.84 -3.81555 -1.44499 0
M  V30 11509 H 1094.51 -4.14502 -0.340736 0
M  V30 11510 H 1093.09 -3.20219 -1.91087 0
M  V30 11511 N 1095.27 0.136881 -1.57004 0
M  V30 11512 C 1096.2 1.17026 -2.02057 0
M  V30 11513 C 1097.18 1.44223 -0.901866 0
M  V30 11514 O 1098.37 1.54971 -1.17037 0
M  V30 11515 C 1095.5 2.50095 -2.40977 0
M  V30 11516 C 1094.45 2.37398 -3.56127 0
M  V30 11517 C 1093.78 3.75268 -3.80891 0
M  V30 11518 C 1095.08 1.84952 -4.88457 0
M  V30 11519 H 1096.77 0.795601 -2.88636 0
M  V30 11520 H 1094.32 0.381266 -1.38861 0
M  V30 11521 H 1096.27 3.22621 -2.71097 0
M  V30 11522 H 1095 2.89416 -1.51348 0
M  V30 11523 H 1093.65 1.67322 -3.26188 0
M  V30 11524 H 1093.3 4.12043 -2.88496 0
M  V30 11525 H 1093 3.67631 -4.5839 0
M  V30 11526 H 1094.53 4.49327 -4.13446 0
M  V30 11527 H 1095.94 2.4728 -5.17229 0
M  V30 11528 H 1094.34 1.88181 -5.69832 0
M  V30 11529 H 1095.41 0.805848 -4.78157 0
M  V30 11530 N 1096.75 1.52266 0.40654 0
M  V30 11531 C 1098.17 1.41127 0.745348 0
M  V30 11532 C 1098.37 0.517802 1.94733 0
M  V30 11533 O 1097.42 -0.0154286 2.52495 0
M  V30 11534 C 1098.74 2.83696 0.996859 0
M  V30 11535 C 1100.28 2.93056 1.09942 0
M  V30 11536 C 1100.76 4.36599 1.38367 0
M  V30 11537 N 1102.25 4.39845 1.45226 0
M  V30 11538 C 1102.98 5.47975 1.68852 0
M  V30 11539 N 1102.48 6.66219 1.90065 0
M  V30 11540 N 1104.27 5.35494 1.70888 0
M  V30 11541 H 1096.42 2.08888 -0.384632 0
M  V30 11542 H 1098.69 0.941619 -0.109809 0
M  V30 11543 H 1098.39 3.51208 0.185986 0
M  V30 11544 H 1098.27 3.24895 1.91632 0
M  V30 11545 H 1100.65 2.25723 1.90088 0
M  V30 11546 H 1100.74 2.5531 0.158256 0
M  V30 11547 H 1100.38 5.04492 0.587373 0
M  V30 11548 H 1100.31 4.71883 2.33739 0
M  V30 11549 H 1102.8 3.54611 1.30612 0
M  V30 11550 H 1103.11 7.44408 2.0755 0
M  V30 11551 H 1101.46 6.69279 1.87325 0
M  V30 11552 H 1104.65 4.42093 1.53856 0
M  V30 11553 H 1104.82 6.19837 1.88962 0
M  V30 11554 N 1098.23 -0.663929 1.42933 0
M  V30 11555 C 1099.18 -1.77717 1.47259 0
M  V30 11556 C 1100.15 -1.62922 0.323387 0
M  V30 11557 O 1101.33 -1.83319 0.529021 0
M  V30 11558 C 1098.47 -3.15814 1.39124 0
M  V30 11559 C 1097.58 -3.4182 2.64165 0
M  V30 11560 C 1096.72 -4.69705 2.48094 0
M  V30 11561 C 1095.76 -4.88781 3.68456 0
M  V30 11562 N 1094.89 -6.07915 3.51261 0
M  V30 11563 H 1099.73 -1.73355 2.42388 0
M  V30 11564 H 1097.27 -0.846121 1.2033 0
M  V30 11565 H 1099.23 -3.95633 1.32403 0
M  V30 11566 H 1097.86 -3.19274 0.475829 0
M  V30 11567 H 1096.91 -2.56176 2.81208 0
M  V30 11568 H 1098.22 -3.51805 3.53602 0
M  V30 11569 H 1097.38 -5.57632 2.39021 0
M  V30 11570 H 1096.12 -4.62022 1.56164 0
M  V30 11571 H 1095.12 -3.99292 3.7795 0
M  V30 11572 H 1096.35 -4.98301 4.61381 0
M  V30 11573 H 1094.29 -6.01384 2.62057 0
M  V30 11574 H 1094.21 -6.1881 4.34293 0
M  V30 11575 H 1095.48 -6.98492 3.4602 0
M  V30 11576 N 1099.71 -1.29285 -0.901281 0
M  V30 11577 C 1100.65 -1.1428 -2.00521 0
M  V30 11578 C 1101.62 -0.0365428 -1.6606 0
M  V30 11579 O 1102.81 -0.203771 -1.89709 0
M  V30 11580 C 1099.95 -0.823671 -3.35126 0
M  V30 11581 C 1099.06 -2.01021 -3.8238 0
M  V30 11582 C 1098.2 -1.6306 -5.05554 0
M  V30 11583 C 1097.24 -2.78304 -5.45173 0
M  V30 11584 N 1096.37 -2.4075 -6.59533 0
M  V30 11585 H 1101.21 -2.08729 -2.12688 0
M  V30 11586 H 1098.75 -1.0387 -1.04161 0
M  V30 11587 H 1100.71 -0.61934 -4.12577 0
M  V30 11588 H 1099.34 0.0839113 -3.22691 0
M  V30 11589 H 1098.39 -2.32629 -3.00978 0
M  V30 11590 H 1099.7 -2.8738 -4.07694 0
M  V30 11591 H 1098.86 -1.38906 -5.90584 0
M  V30 11592 H 1097.59 -0.738464 -4.82077 0
M  V30 11593 H 1096.6 -3.03142 -4.58678 0
M  V30 11594 H 1097.82 -3.68179 -5.70632 0
M  V30 11595 H 1095.77 -1.54022 -6.37662 0
M  V30 11596 H 1095.69 -3.20643 -6.84634 0
M  V30 11597 H 1096.96 -2.19912 -7.47836 0
M  V30 11598 N 1101.18 1.11143 -1.11736 0
M  V30 11599 C 1102.41 1.87285 -0.891007 0
M  V30 11600 C 1102.83 1.79758 0.553971 0
M  V30 11601 O 1102.19 1.16221 1.39149 0
M  V30 11602 C 1102.24 3.33924 -1.36114 0
M  V30 11603 O 1101.34 4.08917 -0.534851 0
M  V30 11604 H 1100.69 0.581418 -0.320701 0
M  V30 11605 H 1103.22 1.40469 -1.4876 0
M  V30 11606 H 1103.23 3.84772 -1.35701 0
M  V30 11607 H 1101.9 3.38719 -2.41334 0
M  V30 11608 H 1100.48 3.67954 -0.605355 0
M  V30 11609 N 1102.66 0.908147 1.28804 0
M  V30 11610 C 1104.08 0.605474 1.47669 0
M  V30 11611 C 1104.28 -0.850759 1.82659 0
M  V30 11612 O 1103.33 -1.63029 1.92816 0
M  V30 11613 C 1104.65 1.53856 2.58358 0
M  V30 11614 C 1106.2 1.54467 2.7223 0
M  V30 11615 C 1106.67 2.46424 3.86056 0
M  V30 11616 N 1108.16 2.44519 3.93402 0
M  V30 11617 C 1108.9 3.12371 4.80845 0
M  V30 11618 N 1108.39 3.89533 5.72919 0
M  V30 11619 N 1110.19 3.01486 4.74407 0
M  V30 11620 H 1102.34 1.84988 1.04371 0
M  V30 11621 H 1104.6 0.793132 0.519274 0
M  V30 11622 H 1104.31 2.57651 2.39393 0
M  V30 11623 H 1104.18 1.26543 3.5534 0
M  V30 11624 H 1106.57 0.514127 2.90587 0
M  V30 11625 H 1106.65 1.85821 1.75796 0
M  V30 11626 H 1106.29 3.49577 3.68454 0
M  V30 11627 H 1106.22 2.12375 4.81876 0
M  V30 11628 H 1108.71 1.88464 3.27551 0
M  V30 11629 H 1109.03 4.3834 6.36457 0
M  V30 11630 H 1107.37 3.93639 5.72777 0
M  V30 11631 H 1110.56 2.40713 4.01466 0
M  V30 11632 H 1110.73 3.5464 5.42342 0
M  V30 11633 N 1104.14 -1.42577 0.671525 0
M  V30 11634 C 1105.42 -1.95222 0.121529 0
M  V30 11635 C 1105.8 -1.61209 -1.36289 0
M  V30 11636 O 1105.15 -0.906561 -2.09747 0
M  V30 11637 C 1105.36 -3.46846 0.387189 0
M  V30 11638 C 1106.7 -4.23525 0.301938 0
M  V30 11639 O 1107.73 -3.54753 0.320755 0
M  V30 11640 O 1106.59 -5.45967 0.241317 0
M  V30 11641 H 1103.68 -0.826999 0.000968615 0
M  V30 11642 H 1106.23 -1.52422 0.746029 0
M  V30 11643 H 1105 -3.64795 1.41563 0
M  V30 11644 H 1104.62 -3.96686 -0.26948 0
M  V30 11645 N 1105.62 -0.414636 -1.52048 0
M  V30 11646 C 1106.57 0.408141 -2.27163 0
M  V30 11647 C 1107.54 1.03636 -1.29803 0
M  V30 11648 O 1108.72 1.05959 -1.58674 0
M  V30 11649 C 1105.86 1.51588 -3.10024 0
M  V30 11650 C 1104.97 0.908034 -4.22349 0
M  V30 11651 C 1104.11 1.98893 -4.9256 0
M  V30 11652 C 1103.15 1.35831 -5.96839 0
M  V30 11653 N 1102.28 2.37958 -6.60545 0
M  V30 11654 H 1107.12 -0.238822 -2.97041 0
M  V30 11655 H 1104.66 -0.129614 -1.46528 0
M  V30 11656 H 1106.62 2.16916 -3.56375 0
M  V30 11657 H 1105.25 2.13279 -2.42305 0
M  V30 11658 H 1104.3 0.143652 -3.80129 0
M  V30 11659 H 1105.61 0.407426 -4.97133 0
M  V30 11660 H 1104.77 2.71935 -5.42343 0
M  V30 11661 H 1103.51 2.5232 -4.17356 0
M  V30 11662 H 1102.51 0.613246 -5.46369 0
M  V30 11663 H 1103.74 0.831655 -6.73988 0
M  V30 11664 H 1101.68 2.90508 -5.88167 0
M  V30 11665 H 1101.6 1.92725 -7.31022 0
M  V30 11666 H 1102.87 3.10553 -7.14966 0
M  V30 11667 N 1107.1 1.56929 -0.145233 0
M  V30 11668 C 1108.34 1.95681 0.50532 0
M  V30 11669 C 1108.67 1.03098 1.65516 0
M  V30 11670 O 1107.94 0.0921961 1.95683 0
M  V30 11671 H 1106.52 0.72252 0.189668 0
M  V30 11672 H 1109.18 1.93651 -0.220318 0
M  V30 11673 H 1108.27 2.99359 0.882631 0
M  V30 11674 N 1108.58 -0.128553 1.57075 0
M  V30 11675 C 1109.51 -1.18362 1.96273 0
M  V30 11676 C 1110.52 -1.3818 0.860818 0
M  V30 11677 O 1111.71 -1.37424 1.13916 0
M  V30 11678 C 1108.81 -2.54533 2.23755 0
M  V30 11679 C 1107.98 -2.55446 3.55058 0
M  V30 11680 C 1107.04 -3.73291 3.70864 0
M  V30 11681 O 1106.07 -3.57315 4.43074 0
M  V30 11682 N 1107.27 -4.91481 3.08912 0
M  V30 11683 H 1110.03 -0.850276 2.87385 0
M  V30 11684 H 1107.6 -0.317931 1.58748 0
M  V30 11685 H 1109.59 -3.31912 2.31553 0
M  V30 11686 H 1108.16 -2.80087 1.38816 0
M  V30 11687 H 1107.38 -1.6385 3.58534 0
M  V30 11688 H 1108.67 -2.53104 4.4138 0
M  V30 11689 H 1108.06 -5.07364 2.50196 0
M  V30 11690 H 1106.62 -5.6657 3.22245 0
M  V30 11691 N 1110.05 -1.5248 -0.398459 0
M  V30 11692 C 1111.02 -1.75949 -1.46883 0
M  V30 11693 C 1112.02 -0.629431 -1.47969 0
M  V30 11694 O 1113.21 -0.897407 -1.49306 0
M  V30 11695 C 1110.34 -1.85162 -2.8623 0
M  V30 11696 H 1111.53 -2.71513 -1.2736 0
M  V30 11697 H 1109.08 -1.43058 -0.629619 0
M  V30 11698 H 1109.82 -0.915505 -3.11109 0
M  V30 11699 H 1109.6 -2.67326 -2.86844 0
M  V30 11700 H 1111.09 -2.05025 -3.63805 0
M  V30 11701 N 1111.53 0.65634 -1.43283 0
M  V30 11702 C 1112.78 1.41347 -1.44449 0
M  V30 11703 C 1113.1 1.94879 -0.0687217 0
M  V30 11704 O 1112.37 1.74235 0.895492 0
M  V30 11705 H 1110.95 0.524578 -0.531815 0
M  V30 11706 H 1113.61 0.774292 -1.7886 0
M  V30 11707 H 1112.71 2.25737 -2.15521 0
M  V30 11708 N 1113.01 1.29761 0.894412 0
M  V30 11709 C 1113.94 1.17902 2.01547 0
M  V30 11710 C 1114.92 0.0719402 1.69948 0
M  V30 11711 O 1116.11 0.252338 1.92554 0
M  V30 11712 C 1113.24 0.860262 3.36477 0
M  V30 11713 C 1112.19 1.92424 3.82305 0
M  V30 11714 C 1111.52 1.45868 5.14419 0
M  V30 11715 C 1112.82 3.33391 4.02054 0
M  V30 11716 H 1114.51 2.11688 2.11727 0
M  V30 11717 H 1112.06 1.01916 1.01731 0
M  V30 11718 H 1114.01 0.763987 4.14417 0
M  V30 11719 H 1112.73 -0.113289 3.26403 0
M  V30 11720 H 1111.39 2.00999 3.06586 0
M  V30 11721 H 1111.04 0.473654 5.00765 0
M  V30 11722 H 1110.74 2.17028 5.46052 0
M  V30 11723 H 1112.26 1.37601 5.94894 0
M  V30 11724 H 1113.68 3.27628 4.7046 0
M  V30 11725 H 1112.07 4.02555 4.4505 0
M  V30 11726 H 1113.14 3.75978 3.06216 0
M  V30 11727 N 1114.49 -1.10549 1.12324 0
M  V30 11728 C 1115.42 -2.16657 0.747826 0
M  V30 11729 C 1116.43 -1.61238 -0.224981 0
M  V30 11730 O 1117.62 -1.78499 -0.00649408 0
M  V30 11731 C 1114.72 -3.38791 0.0859421 0
M  V30 11732 C 1113.89 -4.23655 1.08792 0
M  V30 11733 C 1112.95 -5.24239 0.453871 0
M  V30 11734 O 1111.98 -5.58262 1.11052 0
M  V30 11735 N 1113.18 -5.75246 -0.779215 0
M  V30 11736 H 1115.95 -2.49472 1.66084 0
M  V30 11737 H 1113.51 -1.26157 1.01469 0
M  V30 11738 H 1115.5 -4.03182 -0.350186 0
M  V30 11739 H 1114.07 -3.03961 -0.729807 0
M  V30 11740 H 1113.29 -3.55578 1.70171 0
M  V30 11741 H 1114.58 -4.77187 1.76549 0
M  V30 11742 H 1113.98 -5.49802 -1.3317 0
M  V30 11743 H 1112.53 -6.41428 -1.15818 0
M  V30 11744 N 1115.97 -0.914965 -1.28321 0
M  V30 11745 C 1117.38 -0.613297 -1.47346 0
M  V30 11746 C 1117.58 0.84106 -1.83108 0
M  V30 11747 O 1116.64 1.62004 -1.93678 0
M  V30 11748 C 1117.95 -1.55224 -2.57538 0
M  V30 11749 C 1119.5 -1.55909 -2.71407 0
M  V30 11750 C 1119.97 -2.48468 -3.84744 0
M  V30 11751 N 1121.46 -2.46602 -3.92099 0
M  V30 11752 C 1122.2 -3.14917 -4.79182 0
M  V30 11753 N 1121.7 -3.92566 -5.70845 0
M  V30 11754 N 1123.49 -3.03998 -4.72802 0
M  V30 11755 H 1115.64 -1.85539 -1.03388 0
M  V30 11756 H 1117.9 -0.795875 -0.515061 0
M  V30 11757 H 1117.61 -2.58917 -2.38023 0
M  V30 11758 H 1117.48 -1.28426 -3.54664 0
M  V30 11759 H 1119.87 -0.52953 -2.9031 0
M  V30 11760 H 1119.95 -1.86751 -1.74808 0
M  V30 11761 H 1119.59 -3.51526 -3.66595 0
M  V30 11762 H 1119.52 -2.14928 -4.80743 0
M  V30 11763 H 1122.02 -1.90199 -3.26547 0
M  V30 11764 H 1122.33 -4.41709 -6.34123 0
M  V30 11765 H 1120.67 -3.96671 -5.70681 0
M  V30 11766 H 1123.86 -2.42839 -4.00184 0
M  V30 11767 H 1124.04 -3.57511 -5.40454 0
M  V30 11768 N 1117.44 1.42219 -0.679077 0
M  V30 11769 C 1118.41 2.29197 -0.0125475 0
M  V30 11770 C 1119.41 1.43544 0.724691 0
M  V30 11771 O 1120.6 1.64884 0.562052 0
M  V30 11772 C 1117.73 3.26122 0.992846 0
M  V30 11773 H 1118.92 2.89629 -0.778154 0
M  V30 11774 H 1116.47 1.4993 -0.44166 0
M  V30 11775 H 1117.21 2.70637 1.78679 0
M  V30 11776 H 1116.99 3.89302 0.467544 0
M  V30 11777 H 1118.48 3.91339 1.45751 0
M  V30 11778 N 1118.92 0.422693 1.51826 0
M  V30 11779 C 1119.85 -0.386913 2.30272 0
M  V30 11780 C 1120.83 -1.03411 1.35056 0
M  V30 11781 O 1122.02 -1.04055 1.6397 0
M  V30 11782 C 1119.15 -1.49645 3.13407 0
M  V30 11783 C 1118.1 -0.973532 4.16781 0
M  V30 11784 C 1117.43 -2.1777 4.88344 0
M  V30 11785 C 1118.73 -0.0181194 5.22297 0
M  V30 11786 H 1120.42 0.267697 2.98201 0
M  V30 11787 H 1117.97 0.130186 1.4341 0
M  V30 11788 H 1119.92 -2.06993 3.67059 0
M  V30 11789 H 1118.64 -2.17914 2.43272 0
M  V30 11790 H 1117.3 -0.42237 3.64159 0
M  V30 11791 H 1116.95 -2.84625 4.14726 0
M  V30 11792 H 1116.65 -1.83427 5.58237 0
M  V30 11793 H 1118.18 -2.75699 5.44814 0
M  V30 11794 H 1119.59 -0.500822 5.71108 0
M  V30 11795 H 1117.99 0.237163 5.99631 0
M  V30 11796 H 1119.06 0.923065 4.76033 0
M  V30 11797 N 1120.4 -1.5685 0.153553 0
M  V30 11798 C 1121.31 -2.20664 -0.796528 0
M  V30 11799 C 1122.33 -1.19289 -1.26674 0
M  V30 11800 O 1123.5 -1.51889 -1.32256 0
M  V30 11801 C 1120.57 -2.82088 -2.01561 0
M  V30 11802 C 1119.63 -3.9861 -1.59401 0
M  V30 11803 C 1118.86 -4.57096 -2.75498 0
M  V30 11804 O 1119.08 -4.14462 -3.9189 0
M  V30 11805 O 1118.02 -5.47254 -2.50593 0
M  V30 11806 H 1121.84 -3.02376 -0.283282 0
M  V30 11807 H 1119.43 -1.49218 -0.0737927 0
M  V30 11808 H 1121.31 -3.21103 -2.72893 0
M  V30 11809 H 1119.99 -2.03385 -2.51826 0
M  V30 11810 H 1118.89 -3.64299 -0.850725 0
M  V30 11811 H 1120.23 -4.78853 -1.13845 0
M  V30 11812 N 1121.88 0.120221 -1.57141 0
M  V30 11813 C 1123.13 0.826791 -1.83976 0
M  V30 11814 C 1123.44 1.81102 -0.739014 0
M  V30 11815 O 1124.65 2.56368 -0.893736 0
M  V30 11816 C 1123.1 1.52108 -3.26176 0
M  V30 11817 C 1122.71 0.577902 -4.44257 0
M  V30 11818 C 1124.45 2.21286 -3.62261 0
M  V30 11819 C 1122.36 1.27535 -5.77485 0
M  V30 11820 H 1121.29 0.312508 -0.686189 0
M  V30 11821 H 1123.94 0.0795343 -1.83328 0
M  V30 11822 H 1122.32 2.31492 -3.2129 0
M  V30 11823 H 1123.5 -0.182629 -4.60438 0
M  V30 11824 H 1121.81 -0.00684348 -4.16399 0
M  V30 11825 H 1124.41 2.74154 -4.59068 0
M  V30 11826 H 1124.75 2.99029 -2.89634 0
M  V30 11827 H 1125.29 1.48791 -3.68925 0
M  V30 11828 H 1122.02 0.539237 -6.53278 0
M  V30 11829 H 1121.54 2.00792 -5.65192 0
M  V30 11830 H 1123.22 1.80888 -6.21199 0
M  V30 11831 N 1123.36 1.52689 0.390367 0
M  V30 11832 C 1124.29 1.80338 1.48325 0
M  V30 11833 C 1125.27 0.655338 1.56969 0
M  V30 11834 O 1126.45 0.902792 1.7194 0
M  V30 11835 C 1123.58 1.97101 2.85952 0
M  V30 11836 C 1122.54 3.12783 2.92148 0
M  V30 11837 C 1121.86 3.14798 4.32211 0
M  V30 11838 C 1123.16 4.5188 2.61919 0
M  V30 11839 H 1124.86 2.71857 1.25437 0
M  V30 11840 H 1122.4 1.30813 0.601995 0
M  V30 11841 H 1124.36 2.15027 3.62411 0
M  V30 11842 H 1123.08 1.02271 3.10174 0
M  V30 11843 H 1121.74 2.94638 2.18137 0
M  V30 11844 H 1121.39 2.17653 4.53471 0
M  V30 11845 H 1121.09 3.92507 4.37278 0
M  V30 11846 H 1122.61 3.34877 5.10578 0
M  V30 11847 H 1124.02 4.70134 3.28096 0
M  V30 11848 H 1122.42 5.31647 2.78337 0
M  V30 11849 H 1123.49 4.58689 1.57266 0
M  V30 11850 N 1124.83 -0.648732 1.43629 0
M  V30 11851 C 1125.77 -1.77417 1.45107 0
M  V30 11852 C 1126.78 -1.59067 0.346618 0
M  V30 11853 O 1127.97 -1.67705 0.611322 0
M  V30 11854 C 1125.07 -3.14906 1.25249 0
M  V30 11855 C 1124.24 -3.59874 2.48616 0
M  V30 11856 C 1123.3 -4.76181 2.23916 0
M  V30 11857 O 1122.33 -4.8539 2.97296 0
M  V30 11858 N 1123.53 -5.66691 1.25862 0
M  V30 11859 H 1126.29 -1.76626 2.42123 0
M  V30 11860 H 1123.85 -0.832725 1.38843 0
M  V30 11861 H 1125.85 -3.90408 1.06601 0
M  V30 11862 H 1124.42 -3.10443 0.366623 0
M  V30 11863 H 1123.64 -2.74768 2.82659 0
M  V30 11864 H 1124.92 -3.86665 3.30708 0
M  V30 11865 H 1124.32 -5.61927 0.652227 0
M  V30 11866 H 1122.88 -6.41895 1.13196 0
M  V30 11867 N 1126.31 -1.30234 -0.887518 0
M  V30 11868 C 1127.22 -1.18316 -2.02579 0
M  V30 11869 C 1128.24 -0.103658 -1.73691 0
M  V30 11870 O 1129.41 -0.3181 -1.98872 0
M  V30 11871 C 1126.48 -0.873222 -3.35523 0
M  V30 11872 C 1125.54 -2.03783 -3.7785 0
M  V30 11873 C 1124.77 -1.74258 -5.0445 0
M  V30 11874 O 1125 -0.669295 -5.6646 0
M  V30 11875 O 1123.93 -2.59423 -5.43124 0
M  V30 11876 H 1127.76 -2.13933 -2.15561 0
M  V30 11877 H 1125.34 -1.09803 -1.0131 0
M  V30 11878 H 1127.22 -0.715463 -4.15282 0
M  V30 11879 H 1125.9 0.053056 -3.23657 0
M  V30 11880 H 1124.81 -2.2509 -2.98806 0
M  V30 11881 H 1126.14 -2.94574 -3.94318 0
M  V30 11882 N 1127.79 1.09952 -1.12909 0
M  V30 11883 C 1128.7 2.19999 -0.81471 0
M  V30 11884 C 1129.72 1.72864 0.19851 0
M  V30 11885 O 1130.89 2.01376 0.0308832 0
M  V30 11886 C 1127.96 3.45573 -0.279363 0
M  V30 11887 C 1127.02 4.07417 -1.35314 0
M  V30 11888 C 1126.25 5.26996 -0.843247 0
M  V30 11889 O 1126.47 5.69495 0.321164 0
M  V30 11890 O 1125.41 5.79826 -1.61511 0
M  V30 11891 H 1129.23 2.49333 -1.73398 0
M  V30 11892 H 1126.82 1.18784 -0.906128 0
M  V30 11893 H 1128.7 4.21398 0.0140531 0
M  V30 11894 H 1127.38 3.17854 0.612401 0
M  V30 11895 H 1126.28 3.33253 -1.6998 0
M  V30 11896 H 1127.62 4.39349 -2.21885 0
M  V30 11897 N 1129.27 0.921757 1.27833 0
M  V30 11898 C 1130.55 0.477706 1.89677 0
M  V30 11899 C 1130.93 -1.04392 1.83481 0
M  V30 11900 O 1130.27 -1.89549 1.27606 0
M  V30 11901 C 1130.48 1.01709 3.33851 0
M  V30 11902 C 1131.83 1.074 4.10792 0
M  V30 11903 O 1132.86 0.966295 3.42843 0
M  V30 11904 O 1131.71 1.23909 5.32268 0
M  V30 11905 H 1128.81 0.15271 0.812778 0
M  V30 11906 H 1131.35 1.01306 1.36144 0
M  V30 11907 H 1130.13 2.061 3.32623 0
M  V30 11908 H 1129.75 0.463031 3.94895 0
M  V30 11909 N 1130.75 -1.41857 0.686609 0
M  V30 11910 C 1131.68 -2.33481 0.0298353 0
M  V30 11911 C 1132.66 -1.51329 -0.776756 0
M  V30 11912 O 1133.84 -1.79895 -0.731535 0
M  V30 11913 C 1130.97 -3.35065 -0.913707 0
M  V30 11914 C 1129.93 -4.2746 -0.214861 0
M  V30 11915 C 1129.25 -5.19346 -1.27215 0
M  V30 11916 C 1130.55 -5.14252 0.913367 0
M  V30 11917 H 1132.25 -2.8865 0.795067 0
M  V30 11918 H 1129.79 -1.38792 0.383785 0
M  V30 11919 H 1131.75 -3.98082 -1.38234 0
M  V30 11920 H 1130.47 -2.78226 -1.7105 0
M  V30 11921 H 1129.13 -3.65855 0.233651 0
M  V30 11922 H 1128.78 -4.58827 -2.06124 0
M  V30 11923 H 1128.48 -5.81996 -0.80961 0
M  V30 11924 H 1130 -5.85239 -1.74147 0
M  V30 11925 H 1131.41 -5.70887 0.525424 0
M  V30 11926 H 1129.81 -5.85796 1.30244 0
M  V30 11927 H 1130.88 -4.51949 1.75699 0
M  V30 11928 N 1132.22 -0.430739 -1.51599 0
M  V30 11929 C 1133.47 0.139396 -2.01218 0
M  V30 11930 C 1133.79 1.44361 -1.31982 0
M  V30 11931 O 1134.99 2.0963 -1.72533 0
M  V30 11932 C 1133.45 0.298969 -3.58656 0
M  V30 11933 C 1133.06 -0.994424 -4.36824 0
M  V30 11934 C 1134.8 0.82323 -4.16441 0
M  V30 11935 C 1132.71 -0.800855 -5.85952 0
M  V30 11936 H 1131.64 0.0558698 -0.751927 0
M  V30 11937 H 1134.29 -0.559493 -1.74762 0
M  V30 11938 H 1132.67 1.06071 -3.8153 0
M  V30 11939 H 1133.84 -1.76398 -4.257 0
M  V30 11940 H 1132.16 -1.44672 -3.9046 0
M  V30 11941 H 1134.76 0.984434 -5.2556 0
M  V30 11942 H 1135.1 1.80388 -3.75188 0
M  V30 11943 H 1135.63 0.119982 -3.97619 0
M  V30 11944 H 1132.37 -1.75369 -6.31606 0
M  V30 11945 H 1131.89 -0.0709793 -5.99758 0
M  V30 11946 H 1133.57 -0.451459 -6.45423 0
M  V30 11947 N 1133.7 1.56767 -0.161869 0
M  V30 11948 C 1134.98 1.88245 0.531352 0
M  V30 11949 C 1135.36 1.07025 1.81958 0
M  V30 11950 O 1134.71 0.161385 2.27929 0
M  V30 11951 C 1134.92 3.40117 0.782416 0
M  V30 11952 C 1136.27 4.09655 1.11661 0
M  V30 11953 O 1137.29 3.4538 0.871274 0
M  V30 11954 O 1136.15 5.23192 1.57901 0
M  V30 11955 H 1133.24 0.780725 0.272759 0
M  V30 11956 H 1135.79 1.68522 -0.199597 0
M  V30 11957 H 1134.56 3.91088 -0.128677 0
M  V30 11958 H 1134.18 3.65418 1.56702 0
M  V30 11959 N 1135.18 -0.111886 1.57202 0
M  V30 11960 C 1136.09 -1.1556 2.04165 0
M  V30 11961 C 1137.11 -1.44898 0.963354 0
M  V30 11962 O 1138.28 -1.55873 1.27536 0
M  V30 11963 C 1135.35 -2.46048 2.44256 0
M  V30 11964 C 1134.41 -2.24043 3.66201 0
M  V30 11965 C 1133.64 -3.4831 4.04371 0
M  V30 11966 O 1133.86 -4.55895 3.42806 0
M  V30 11967 O 1132.8 -3.38891 4.9743 0
M  V30 11968 H 1136.62 -0.786778 2.93332 0
M  V30 11969 H 1134.21 -0.323196 1.45862 0
M  V30 11970 H 1136.09 -3.22916 2.70745 0
M  V30 11971 H 1134.77 -2.8239 1.58233 0
M  V30 11972 H 1133.67 -1.4501 3.44852 0
M  V30 11973 H 1135.01 -1.92602 4.52952 0
M  V30 11974 N 1136.66 -1.52894 -0.382264 0
M  V30 11975 C 1137.94 -1.58853 -1.14127 0
M  V30 11976 C 1138.32 -0.38582 -2.07544 0
M  V30 11977 O 1137.66 0.625323 -2.19777 0
M  V30 11978 C 1137.87 -2.93068 -1.89504 0
M  V30 11979 C 1139.22 -3.47048 -2.44629 0
M  V30 11980 O 1140.25 -2.94987 -1.99652 0
M  V30 11981 O 1139.1 -4.3802 -3.26804 0
M  V30 11982 H 1136.2 -0.640969 -0.522578 0
M  V30 11983 H 1138.74 -1.65231 -0.386873 0
M  V30 11984 H 1137.52 -3.72047 -1.2123 0
M  V30 11985 H 1137.14 -2.90106 -2.7189 0
M  V30 11986 N 1138.14 0.641106 -1.43971 0
M  V30 11987 C 1139.41 1.39897 -1.36704 0
M  V30 11988 C 1139.79 2.1109 -0.0208051 0
M  V30 11989 O 1139.14 2.05638 0.99625 0
M  V30 11990 C 1139.35 2.37366 -2.55849 0
M  V30 11991 C 1140.7 3.01 -2.99473 0
M  V30 11992 O 1141.72 2.47692 -2.55982 0
M  V30 11993 O 1140.58 3.9768 -3.74851 0
M  V30 11994 H 1137.68 0.625623 -0.540855 0
M  V30 11995 H 1140.22 0.666997 -1.56042 0
M  V30 11996 H 1139 1.8379 -3.45452 0
M  V30 11997 H 1138.62 3.17995 -2.38673 0
M  V30 11998 N 1139.62 1.30703 0.880598 0
M  V30 11999 C 1140.86 1.19142 1.62752 0
M  V30 12000 C 1141.18 -0.251795 1.93973 0
M  V30 12001 O 1142.38 -0.488971 2.67061 0
M  V30 12002 C 1140.84 2.08503 2.93351 0
M  V30 12003 C 1140.45 3.57758 2.69653 0
M  V30 12004 C 1142.19 2.05715 3.71324 0
M  V30 12005 C 1140.1 4.39161 3.96096 0
M  V30 12006 H 1139.03 0.442332 0.610622 0
M  V30 12007 H 1141.68 1.55483 0.974547 0
M  V30 12008 H 1140.06 1.65049 3.59965 0
M  V30 12009 H 1141.24 4.09388 2.11513 0
M  V30 12010 H 1139.55 3.62414 2.0505 0
M  V30 12011 H 1142.15 2.63783 4.65105 0
M  V30 12012 H 1142.49 1.04168 4.03057 0
M  V30 12013 H 1143.02 2.47313 3.11579 0
M  V30 12014 H 1139.76 5.4142 3.69519 0
M  V30 12015 H 1139.28 3.92293 4.53725 0
M  V30 12016 H 1140.96 4.50823 4.64077 0
M  V30 12017 N 1141.09 -1.09351 1.1349 0
M  V30 12018 C 1142.5 -1.63035 0.909746 0
M  V30 12019 C 1142.86 -1.88229 -0.553573 0
M  V30 12020 O 1141.98 -1.63256 -1.42044 0
M  V30 12021 C 1142.58 -2.96186 1.64497 0
M  V30 12022 C 1141.13 -3.46692 1.46566 0
M  V30 12023 C 1140.28 -2.21095 1.67369 0
M  V30 12024 H 1143.23 -0.92704 1.28809 0
M  V30 12025 H 1143.25 -3.64177 1.10251 0
M  V30 12026 H 1142.77 -2.77818 2.70996 0
M  V30 12027 H 1140.87 -3.70183 0.423728 0
M  V30 12028 H 1140.98 -4.24078 2.22923 0
M  V30 12029 H 1139.34 -2.29789 1.0986 0
M  V30 12030 H 1140.13 -2.05245 2.7519 0
M  V30 12031 N 1142.57 -0.928524 -1.27343 0
M  V30 12032 C 1143.82 -0.570235 -1.94618 0
M  V30 12033 C 1144.15 0.886381 -1.72792 0
M  V30 12034 O 1143.43 1.63242 -1.05747 0
M  V30 12035 C 1143.71 -0.897964 -3.48724 0
M  V30 12036 C 1143.56 -2.40839 -3.7989 0
M  V30 12037 C 1144.88 -0.404429 -4.38238 0
M  V30 12038 H 1142 -0.208645 -0.70685 0
M  V30 12039 H 1144.64 -1.16045 -1.50444 0
M  V30 12040 H 1142.79 -0.395679 -3.8648 0
M  V30 12041 H 1144.46 -2.98243 -3.51921 0
M  V30 12042 H 1142.71 -2.85723 -3.26412 0
M  V30 12043 H 1143.38 -2.58823 -4.8756 0
M  V30 12044 H 1145.85 -0.834918 -4.07637 0
M  V30 12045 H 1144.73 -0.662684 -5.44885 0
M  V30 12046 H 1144.99 0.695507 -4.36595 0
M  V30 12047 N 1144.05 1.41491 -0.694123 0
M  V30 12048 C 1145.47 1.55358 -0.365532 0
M  V30 12049 C 1145.67 1.66994 1.12762 0
M  V30 12050 O 1144.72 1.64756 1.91342 0
M  V30 12051 C 1146.03 2.79352 -1.11279 0
M  V30 12052 C 1147.58 2.93147 -1.097 0
M  V30 12053 C 1148.06 4.20027 -1.82597 0
M  V30 12054 N 1149.55 4.26981 -1.7956 0
M  V30 12055 C 1150.28 5.24013 -2.32805 0
M  V30 12056 N 1149.78 6.27083 -2.94515 0
M  V30 12057 N 1151.57 5.15943 -2.23069 0
M  V30 12058 H 1143.72 1.32183 -1.66257 0
M  V30 12059 H 1145.99 0.637624 -0.701527 0
M  V30 12060 H 1145.69 2.76958 -2.16765 0
M  V30 12061 H 1145.57 3.70827 -0.690439 0
M  V30 12062 H 1147.95 2.95057 -0.0504037 0
M  V30 12063 H 1148.03 2.02849 -1.55839 0
M  V30 12064 H 1147.68 4.18878 -2.87235 0
M  V30 12065 H 1147.61 5.09294 -1.33893 0
M  V30 12066 H 1150.1 3.53129 -1.34567 0
M  V30 12067 H 1150.41 6.97511 -3.32714 0
M  V30 12068 H 1148.76 6.27589 -2.98592 0
M  V30 12069 H 1151.95 4.34346 -1.74532 0
M  V30 12070 H 1152.12 5.91396 -2.64868 0
M  V30 12071 N 1145.53 0.438773 1.51369 0
M  V30 12072 C 1146.75 -0.128221 2.07003 0
M  V30 12073 C 1147.18 -1.3557 1.30393 0
M  V30 12074 O 1146.54 -1.7804 0.342283 0
M  V30 12075 C 1146.58 -0.42761 3.58056 0
M  V30 12076 O 1145.69 -1.51382 3.83611 0
M  V30 12077 H 1145.03 -0.00123679 0.663999 0
M  V30 12078 H 1147.56 0.62052 1.94963 0
M  V30 12079 H 1147.57 -0.677645 4.02333 0
M  V30 12080 H 1146.24 0.469535 4.13241 0
M  V30 12081 H 1144.82 -1.25363 3.51196 0
M  V30 12082 N 1147.01 -1.56678 0.170181 0
M  V30 12083 C 1148.25 -1.96849 -0.475064 0
M  V30 12084 C 1148.58 -1.05611 -1.6333 0
M  V30 12085 O 1147.84 -0.0899708 -1.95493 0
M  V30 12086 C 1148.13 -3.43103 -1.00076 0
M  V30 12087 C 1147.8 -4.50881 0.0414538 0
M  V30 12088 C 1146.46 -4.80082 0.327894 0
M  V30 12089 C 1148.81 -5.15791 0.748936 0
M  V30 12090 C 1146.14 -5.71491 1.32722 0
M  V30 12091 C 1148.49 -6.08278 1.73724 0
M  V30 12092 C 1147.16 -6.35847 2.03114 0
M  V30 12093 H 1146.43 -0.72032 -0.173838 0
M  V30 12094 H 1149.08 -1.89701 0.261903 0
M  V30 12095 H 1147.38 -3.47197 -1.81553 0
M  V30 12096 H 1149.08 -3.71525 -1.50899 0
M  V30 12097 H 1145.67 -4.2817 -0.191976 0
M  V30 12098 H 1149.85 -4.93344 0.540852 0
M  V30 12099 H 1145.11 -5.91134 1.56112 0
M  V30 12100 H 1149.28 -6.57643 2.29082 0
M  V30 12101 H 1146.91 -7.06479 2.80698 0
M  V30 12102 N 1148.48 0.103547 -1.57259 0
M  V30 12103 C 1149.73 0.808576 -1.85656 0
M  V30 12104 C 1150.06 1.79143 -0.757502 0
M  V30 12105 O 1149.31 1.941 0.249723 0
M  V30 12106 C 1149.61 1.57946 -3.20605 0
M  V30 12107 C 1149.28 0.739502 -4.44795 0
M  V30 12108 C 1147.94 0.507921 -4.78512 0
M  V30 12109 C 1150.29 0.155034 -5.20969 0
M  V30 12110 C 1147.62 -0.318129 -5.85837 0
M  V30 12111 C 1149.97 -0.658292 -6.29166 0
M  V30 12112 C 1148.64 -0.900044 -6.61404 0
M  V30 12113 H 1147.91 0.295879 -0.679365 0
M  V30 12114 H 1150.55 0.0703604 -1.91371 0
M  V30 12115 H 1148.86 2.38902 -3.10537 0
M  V30 12116 H 1150.56 2.12921 -3.39803 0
M  V30 12117 H 1147.15 0.930103 -4.18386 0
M  V30 12118 H 1151.33 0.32113 -4.9526 0
M  V30 12119 H 1146.59 -0.514495 -6.09231 0
M  V30 12120 H 1150.76 -1.11809 -6.87366 0
M  V30 12121 H 1148.39 -1.54194 -7.44398 0
M  V30 12122 N 1149.96 1.53094 0.37415 0
M  V30 12123 C 1151.37 1.60641 0.951381 0
M  V30 12124 C 1151.72 0.468474 1.90525 0
M  V30 12125 O 1150.85 -0.406347 2.12551 0
M  V30 12126 C 1151.44 2.91166 1.73228 0
M  V30 12127 C 1150 3.01077 2.25898 0
M  V30 12128 C 1149.15 2.55873 1.06885 0
M  V30 12129 H 1152.1 1.57959 0.153214 0
M  V30 12130 H 1152.12 2.78487 2.59278 0
M  V30 12131 H 1151.63 3.73968 1.03778 0
M  V30 12132 H 1149.73 2.22844 2.98615 0
M  V30 12133 H 1149.85 4.05998 2.54367 0
M  V30 12134 H 1148.21 2.10544 1.43329 0
M  V30 12135 H 1148.99 3.41084 0.38947 0
M  V30 12136 N 1151.44 -0.633461 1.44309 0
M  V30 12137 C 1152.35 -1.77428 1.53481 0
M  V30 12138 C 1153.37 -1.68839 0.420628 0
M  V30 12139 O 1154.54 -1.89658 0.677638 0
M  V30 12140 C 1151.61 -3.13801 1.47409 0
M  V30 12141 C 1150.67 -3.34039 2.6966 0
M  V30 12142 C 1149.9 -4.63907 2.63868 0
M  V30 12143 O 1150.12 -5.44559 1.69741 0
M  V30 12144 O 1149.06 -4.86295 3.54684 0
M  V30 12145 H 1152.88 -1.72642 2.49857 0
M  V30 12146 H 1150.47 -0.794399 1.26529 0
M  V30 12147 H 1152.35 -3.95101 1.46537 0
M  V30 12148 H 1151.03 -3.19134 0.541769 0
M  V30 12149 H 1149.93 -2.52427 2.761 0
M  V30 12150 H 1151.27 -3.33566 3.61931 0
M  V30 12151 N 1152.92 -1.31168 -0.873655 0
M  V30 12152 C 1153.87 -1.18432 -2.00191 0
M  V30 12153 C 1154.86 -0.0934873 -1.69142 0
M  V30 12154 O 1156.07 -0.255126 -1.78183 0
M  V30 12155 H 1152.44 -0.366594 -0.656592 0
M  V30 12156 H 1154.41 -2.13896 -2.08065 0
M  V30 12157 C 1153.16 -0.904668 -3.35725 0
M  V30 12158 H 1152.48 -1.73617 -3.60135 0
M  V30 12159 H 1153.92 -0.855715 -4.15275 0
M  V30 12160 C 1152.38 0.392554 -3.34605 0
M  V30 12161 O 1152.91 1.41052 -3.76121 0
M  V30 12162 N 1151.12 0.40777 -2.87725 0
M  V30 12163 H 1150.67 -0.42112 -2.54134 0
M  V30 12164 H 1150.62 1.27564 -2.87358 0
M  V30 12165 N 1154.4 1.08748 -1.14068 0
M  V30 12166 C 1155.64 1.81504 -0.918035 0
M  V30 12167 C 1156 1.84381 0.549671 0
M  V30 12168 O 1155.29 1.30612 1.40183 0
M  V30 12169 C 1155.48 3.26734 -1.44843 0
M  V30 12170 C 1155.31 3.38006 -2.96617 0
M  V30 12171 C 1154.08 3.49401 -3.6503 0
M  V30 12172 C 1156.28 3.29952 -3.94507 0
M  V30 12173 N 1154.26 3.49428 -5.04751 0
M  V30 12174 C 1155.63 3.3693 -5.20459 0
M  V30 12175 C 1157.69 3.13666 -3.86676 0
M  V30 12176 C 1156.39 3.29299 -6.39496 0
M  V30 12177 C 1158.42 3.07363 -5.05254 0
M  V30 12178 C 1157.78 3.1494 -6.30073 0
M  V30 12179 H 1153.88 0.67814 -0.389423 0
M  V30 12180 H 1156.46 1.29916 -1.45017 0
M  V30 12181 H 1154.63 3.76776 -0.943112 0
M  V30 12182 H 1156.37 3.87537 -1.16606 0
M  V30 12183 H 1153.12 3.53145 -3.15572 0
M  V30 12184 H 1153.55 3.53007 -5.77681 0
M  V30 12185 H 1158.19 3.06673 -2.91053 0
M  V30 12186 H 1155.91 3.35054 -7.35367 0
M  V30 12187 H 1159.49 2.95887 -5.00941 0
M  V30 12188 H 1158.37 3.10088 -7.20288 0
M  V30 12189 N 1155.87 0.935264 1.26849 0
M  V30 12190 C 1156.8 0.457776 2.28969 0
M  V30 12191 C 1157.79 -0.48587 1.63013 0
M  V30 12192 O 1158.97 -0.388998 1.90264 0
M  V30 12193 C 1156.1 -0.283332 3.46142 0
M  V30 12194 C 1155.05 0.573196 4.24144 0
M  V30 12195 C 1154.38 -0.297525 5.33872 0
M  V30 12196 C 1155.68 1.84153 4.88759 0
M  V30 12197 H 1157.37 1.31125 2.69159 0
M  V30 12198 H 1154.92 0.631956 1.29392 0
M  V30 12199 H 1156.87 -0.628366 4.16689 0
M  V30 12200 H 1155.6 -1.1709 3.04889 0
M  V30 12201 H 1154.26 0.901043 3.55354 0
M  V30 12202 H 1153.9 -1.18427 4.8886 0
M  V30 12203 H 1153.6 0.272126 5.8697 0
M  V30 12204 H 1155.13 -0.637961 6.07258 0
M  V30 12205 H 1156.54 1.5641 5.51551 0
M  V30 12206 H 1154.94 2.35528 5.51948 0
M  V30 12207 H 1156.01 2.5565 4.12033 0
M  V30 12208 N 1157.35 -1.41121 0.701616 0
M  V30 12209 C 1158.6 -2.01928 0.244271 0
M  V30 12210 C 1158.95 -1.54597 -1.14532 0
M  V30 12211 O 1158.25 -0.749972 -1.76312 0
M  V30 12212 C 1158.44 -3.5654 0.247781 0
M  V30 12213 C 1158.27 -4.18879 1.63618 0
M  V30 12214 C 1157.04 -4.52913 2.24048 0
M  V30 12215 C 1159.24 -4.44679 2.5839 0
M  V30 12216 N 1157.22 -5.00571 3.55389 0
M  V30 12217 C 1158.59 -4.94178 3.74418 0
M  V30 12218 C 1160.65 -4.26698 2.56579 0
M  V30 12219 C 1159.35 -5.27584 4.88924 0
M  V30 12220 C 1161.37 -4.61198 3.70203 0
M  V30 12221 C 1160.74 -5.10873 4.84962 0
M  V30 12222 H 1156.84 -0.770275 0.134908 0
M  V30 12223 H 1159.42 -1.71571 0.920402 0
M  V30 12224 H 1157.59 -3.86357 -0.39786 0
M  V30 12225 H 1159.32 -4.04074 -0.224961 0
M  V30 12226 H 1156.08 -4.39572 1.76277 0
M  V30 12227 H 1156.5 -5.28799 4.2273 0
M  V30 12228 H 1161.14 -3.87525 1.69069 0
M  V30 12229 H 1158.86 -5.65678 5.77091 0
M  V30 12230 H 1162.45 -4.48939 3.70061 0
M  V30 12231 H 1161.33 -5.37067 5.71426 0
M  V30 12232 N 1158.83 -0.446794 -1.51134 0
M  V30 12233 C 1160.25 -0.0995905 -1.59289 0
M  V30 12234 C 1160.45 1.39191 -1.45699 0
M  V30 12235 O 1159.5 2.1628 -1.30303 0
M  V30 12236 C 1160.82 -0.628135 -2.94066 0
M  V30 12237 C 1162.36 -0.589409 -3.074 0
M  V30 12238 C 1162.84 -1.09509 -4.44715 0
M  V30 12239 N 1164.33 -1.05347 -4.51061 0
M  V30 12240 C 1165.06 -1.41551 -5.55654 0
M  V30 12241 N 1164.56 -1.85086 -6.67619 0
M  V30 12242 N 1166.35 -1.33307 -5.46064 0
M  V30 12243 H 1158.5 -1.41713 -1.58213 0
M  V30 12244 H 1160.77 -0.584555 -0.746324 0
M  V30 12245 H 1160.47 -1.67205 -3.09411 0
M  V30 12246 H 1160.35 -0.0582398 -3.77155 0
M  V30 12247 H 1162.73 0.445541 -2.91717 0
M  V30 12248 H 1162.82 -1.19582 -2.26128 0
M  V30 12249 H 1162.46 -2.12855 -4.61146 0
M  V30 12250 H 1162.39 -0.465122 -5.24542 0
M  V30 12251 H 1164.88 -0.733877 -3.70706 0
M  V30 12252 H 1165.19 -2.10923 -7.43459 0
M  V30 12253 H 1163.54 -1.8902 -6.68802 0
M  V30 12254 H 1166.73 -0.991547 -4.57478 0
M  V30 12255 H 1166.9 -1.6185 -6.27462 0
M  V30 12256 N 1160.31 1.56586 -0.178487 0
M  V30 12257 C 1161.55 1.9739 0.465306 0
M  V30 12258 C 1161.89 1.06474 1.6241 0
M  V30 12259 O 1161.16 0.113316 1.9417 0
M  V30 12260 C 1161.45 3.47577 0.941408 0
M  V30 12261 C 1161.3 4.49271 -0.218054 0
M  V30 12262 C 1162.62 4.01038 1.81263 0
M  V30 12263 H 1159.74 0.717676 0.167663 0
M  V30 12264 H 1162.38 1.88128 -0.266067 0
M  V30 12265 H 1160.53 3.556 1.56463 0
M  V30 12266 H 1162.2 4.53301 -0.855332 0
M  V30 12267 H 1160.44 4.24936 -0.872441 0
M  V30 12268 H 1161.11 5.51776 0.157315 0
M  V30 12269 H 1163.59 3.9569 1.28718 0
M  V30 12270 H 1162.47 5.06526 2.11476 0
M  V30 12271 H 1162.73 3.45288 2.76096 0
M  V30 12272 N 1161.79 -0.095206 1.57312 0
M  V30 12273 C 1162.7 -1.13388 2.05379 0
M  V30 12274 C 1163.71 -1.43868 0.978668 0
M  V30 12275 O 1164.89 -1.54512 1.29182 0
M  V30 12276 C 1161.95 -2.43444 2.46852 0
M  V30 12277 C 1161.01 -2.20146 3.68557 0
M  V30 12278 C 1160.25 -3.44001 4.08043 0
M  V30 12279 O 1160.47 -4.52233 3.47623 0
M  V30 12280 O 1159.4 -3.33596 5.00997 0
M  V30 12281 H 1163.23 -0.755622 2.9415 0
M  V30 12282 H 1160.82 -0.307707 1.46197 0
M  V30 12283 H 1162.7 -3.20027 2.74155 0
M  V30 12284 H 1161.37 -2.80696 1.61219 0
M  V30 12285 H 1160.28 -1.41345 3.46371 0
M  V30 12286 H 1161.61 -1.87787 4.54969 0
M  V30 12287 N 1163.26 -1.53291 -0.366026 0
M  V30 12288 C 1164.49 -1.73359 -1.12934 0
M  V30 12289 C 1164.91 -0.462352 -1.83051 0
M  V30 12290 O 1164.26 0.564711 -1.73543 0
M  V30 12291 C 1164.32 -2.89873 -2.15999 0
M  V30 12292 O 1164.04 -4.12079 -1.48737 0
M  V30 12293 C 1165.54 -3.21811 -3.04881 0
M  V30 12294 H 1162.76 -0.579827 -0.337701 0
M  V30 12295 H 1165.3 -2.00033 -0.425081 0
M  V30 12296 H 1163.46 -2.65595 -2.82025 0
M  V30 12297 H 1163.87 -4.77322 -2.17404 0
M  V30 12298 H 1165.34 -4.06744 -3.7318 0
M  V30 12299 H 1165.82 -2.37156 -3.69667 0
M  V30 12300 H 1166.43 -3.48013 -2.44473 0
M  V30 12301 N 1164.74 0.6258 -1.44643 0
M  V30 12302 C 1165.99 1.3873 -1.47925 0
M  V30 12303 C 1166.32 1.93868 -0.113469 0
M  V30 12304 O 1165.6 1.73976 0.869639 0
M  V30 12305 C 1165.88 2.54867 -2.54391 0
M  V30 12306 C 1165.73 2.05044 -4.00346 0
M  V30 12307 C 1167.05 3.57043 -2.57309 0
M  V30 12308 H 1164.17 0.503087 -0.538584 0
M  V30 12309 H 1166.81 0.707102 -1.76352 0
M  V30 12310 H 1164.96 3.12894 -2.30281 0
M  V30 12311 H 1166.63 1.51807 -4.35606 0
M  V30 12312 H 1164.88 1.36185 -4.11869 0
M  V30 12313 H 1165.55 2.88681 -4.70497 0
M  V30 12314 H 1168.02 3.08826 -2.78865 0
M  V30 12315 H 1166.9 4.35818 -3.33698 0
M  V30 12316 H 1167.16 4.11464 -1.61708 0
M  V30 12317 N 1166.22 1.31629 0.866686 0
M  V30 12318 C 1167.5 1.12136 1.60265 0
M  V30 12319 C 1167.88 -0.322729 2.08618 0
M  V30 12320 O 1167.23 -1.31738 1.86701 0
M  V30 12321 C 1167.44 2.13845 2.7581 0
M  V30 12322 C 1168.78 2.46541 3.45692 0
M  V30 12323 O 1169.81 2.12298 2.86021 0
M  V30 12324 O 1168.67 3.05194 4.53342 0
M  V30 12325 H 1165.76 0.431923 0.705246 0
M  V30 12326 H 1168.31 1.43119 0.911863 0
M  V30 12327 H 1167.08 3.10967 2.37518 0
M  V30 12328 H 1166.7 1.83786 3.52574 0
M  V30 12329 N 1167.7 -1.08142 1.14644 0
M  V30 12330 C 1169.12 -1.32656 0.887388 0
M  V30 12331 C 1169.32 -1.95942 -0.470012 0
M  V30 12332 O 1168.37 -2.21417 -1.21371 0
M  V30 12333 C 1169.68 -2.22549 2.02219 0
M  V30 12334 C 1171.23 -2.36021 2.0558 0
M  V30 12335 C 1171.71 -3.29257 3.18361 0
M  V30 12336 N 1173.2 -3.36835 3.17957 0
M  V30 12337 C 1173.93 -4.09017 4.01862 0
M  V30 12338 N 1173.43 -4.83882 4.95812 0
M  V30 12339 N 1175.22 -4.04875 3.89913 0
M  V30 12340 H 1167.37 -0.654457 2.02066 0
M  V30 12341 H 1169.64 -0.350947 0.880648 0
M  V30 12342 H 1169.34 -1.83296 3.00159 0
M  V30 12343 H 1169.22 -3.23027 1.94765 0
M  V30 12344 H 1171.6 -2.74531 1.08245 0
M  V30 12345 H 1171.68 -1.35275 2.17105 0
M  V30 12346 H 1171.33 -2.91468 4.15944 0
M  V30 12347 H 1171.26 -4.29938 3.04074 0
M  V30 12348 H 1173.75 -2.83465 2.49912 0
M  V30 12349 H 1174.06 -5.3643 5.56294 0
M  V30 12350 H 1172.41 -4.82926 4.99808 0
M  V30 12351 H 1175.6 -3.45496 3.15833 0
M  V30 12352 H 1175.77 -4.60866 4.55529 0
M  V30 12353 N 1169.18 -0.941978 -1.26351 0
M  V30 12354 C 1170.42 -0.589971 -1.93715 0
M  V30 12355 C 1170.75 0.871085 -1.73903 0
M  V30 12356 O 1170.01 1.63864 -1.06991 0
M  V30 12357 C 1170.31 -0.879481 -3.4641 0
M  V30 12358 C 1169.97 -2.32454 -3.86362 0
M  V30 12359 C 1168.63 -2.71957 -3.9698 0
M  V30 12360 C 1170.99 -3.2636 -4.06373 0
M  V30 12361 C 1168.31 -4.04459 -4.25006 0
M  V30 12362 C 1170.67 -4.58459 -4.35887 0
M  V30 12363 C 1169.33 -4.97775 -4.4472 0
M  V30 12364 H 1168.6 -0.215886 -0.708854 0
M  V30 12365 H 1171.25 -1.18863 -1.50146 0
M  V30 12366 H 1169.55 -0.198289 -3.91298 0
M  V30 12367 H 1171.25 -0.585887 -3.96697 0
M  V30 12368 H 1167.84 -2.00814 -3.78645 0
M  V30 12369 H 1172.02 -2.97037 -3.97596 0
M  V30 12370 H 1167.28 -4.34582 -4.30057 0
M  V30 12371 H 1171.45 -5.31213 -4.50317 0
M  V30 12372 H 1169.08 -6.00475 -4.66191 0
M  V30 12373 N 1170.66 1.40747 -0.709091 0
M  V30 12374 C 1171.59 2.29196 -0.0130359 0
M  V30 12375 C 1172.6 1.45491 0.730487 0
M  V30 12376 O 1173.79 1.6885 0.578944 0
M  V30 12377 C 1170.89 3.23632 1.00577 0
M  V30 12378 C 1170.06 4.3616 0.329105 0
M  V30 12379 C 1169.12 5.11079 1.25239 0
M  V30 12380 O 1168.15 5.64374 0.739641 0
M  V30 12381 N 1169.35 5.1982 2.58394 0
M  V30 12382 H 1172.11 2.89574 -0.772462 0
M  V30 12383 H 1169.68 1.52046 -0.556197 0
M  V30 12384 H 1171.67 3.70622 1.62546 0
M  V30 12385 H 1170.24 2.64467 1.66661 0
M  V30 12386 H 1169.46 3.9138 -0.470683 0
M  V30 12387 H 1170.75 5.08605 -0.140856 0
M  V30 12388 H 1170.14 4.77992 3.02556 0
M  V30 12389 H 1168.7 5.7034 3.15524 0
M  V30 12390 N 1172.13 0.454803 1.50895 0
M  V30 12391 C 1173.38 -0.107367 2.01414 0
M  V30 12392 C 1173.7 -1.42243 1.34262 0
M  V30 12393 O 1174.9 -2.06858 1.75846 0
M  V30 12394 C 1173.36 -0.241872 3.59086 0
M  V30 12395 C 1172.97 1.06379 4.35187 0
M  V30 12396 C 1174.71 -0.756873 4.17698 0
M  V30 12397 C 1172.62 0.893973 5.84604 0
M  V30 12398 H 1171.55 -0.0439003 0.752721 0
M  V30 12399 H 1174.2 0.587225 1.7385 0
M  V30 12400 H 1172.58 -0.999873 3.83169 0
M  V30 12401 H 1173.75 1.83148 4.2284 0
M  V30 12402 H 1172.07 1.50865 3.88109 0
M  V30 12403 H 1174.67 -0.900697 5.27059 0
M  V30 12404 H 1175.01 -1.74397 3.7801 0
M  V30 12405 H 1175.54 -0.0567088 3.9776 0
M  V30 12406 H 1172.28 1.85395 6.28736 0
M  V30 12407 H 1171.8 0.166387 5.99569 0
M  V30 12408 H 1173.48 0.554084 6.44623 0
M  V30 12409 N 1173.61 -1.56489 0.186789 0
M  V30 12410 C 1174.54 -2.21705 -0.732739 0
M  V30 12411 C 1175.52 -1.17751 -1.22755 0
M  V30 12412 O 1176.71 -1.46231 -1.27789 0
M  V30 12413 C 1173.84 -2.86992 -1.95584 0
M  V30 12414 C 1172.79 -3.97118 -1.59628 0
M  V30 12415 C 1172.12 -4.49529 -2.89531 0
M  V30 12416 C 1173.42 -5.15941 -0.812518 0
M  V30 12417 H 1175.11 -2.98802 -0.189094 0
M  V30 12418 H 1172.66 -1.43722 -0.0895099 0
M  V30 12419 H 1174.61 -3.31295 -2.60426 0
M  V30 12420 H 1173.33 -2.07287 -2.52388 0
M  V30 12421 H 1171.99 -3.53494 -0.971475 0
M  V30 12422 H 1171.64 -3.66596 -3.44407 0
M  V30 12423 H 1171.34 -5.23832 -2.66221 0
M  V30 12424 H 1172.87 -4.96528 -3.55376 0
M  V30 12425 H 1174.28 -5.56841 -1.36386 0
M  V30 12426 H 1172.68 -5.96259 -0.677862 0
M  V30 12427 H 1173.75 -4.84535 0.188095 0
M  V30 12428 N 1175.09 0.086862 -1.5736 0
M  V30 12429 C 1176.32 0.802167 -1.90717 0
M  V30 12430 C 1176.73 1.71875 -0.781304 0
M  V30 12431 O 1176.09 1.80831 0.246255 0
M  V30 12432 C 1176.14 1.60858 -3.23739 0
M  V30 12433 O 1175.86 0.728851 -4.31995 0
M  V30 12434 C 1177.36 2.42621 -3.71012 0
M  V30 12435 H 1174.58 0.228914 -0.630745 0
M  V30 12436 H 1177.13 0.061634 -2.04407 0
M  V30 12437 H 1175.28 2.30153 -3.11622 0
M  V30 12438 H 1175.7 1.2882 -5.08435 0
M  V30 12439 H 1177.17 2.94683 -4.66761 0
M  V30 12440 H 1177.65 3.21462 -2.99264 0
M  V30 12441 H 1178.25 1.78509 -3.86024 0
M  V30 12442 N 1176.57 1.53483 0.357892 0
M  V30 12443 C 1177.5 1.83444 1.44466 0
M  V30 12444 C 1178.48 0.688486 1.55544 0
M  V30 12445 O 1179.66 0.93906 1.69986 0
M  V30 12446 C 1176.79 2.03122 2.81707 0
M  V30 12447 C 1175.75 3.1891 2.85448 0
M  V30 12448 C 1175.07 3.23895 4.25436 0
M  V30 12449 C 1176.37 4.57334 2.52275 0
M  V30 12450 H 1178.07 2.74456 1.19642 0
M  V30 12451 H 1175.61 1.3206 0.574112 0
M  V30 12452 H 1177.57 2.22666 3.57768 0
M  V30 12453 H 1176.29 1.08827 3.07935 0
M  V30 12454 H 1174.95 2.99199 2.11838 0
M  V30 12455 H 1174.6 2.27223 4.48753 0
M  V30 12456 H 1174.3 4.01694 4.28854 0
M  V30 12457 H 1175.82 3.45632 5.0336 0
M  V30 12458 H 1177.24 4.76988 3.1805 0
M  V30 12459 H 1175.63 5.37431 2.66998 0
M  V30 12460 H 1176.7 4.61921 1.47501 0
M  V30 12461 N 1178.05 -0.61812 1.44973 0
M  V30 12462 C 1179.29 -1.37754 1.4965 0
M  V30 12463 C 1179.65 -1.91945 0.132201 0
M  V30 12464 O 1178.94 -1.71493 -0.854439 0
M  V30 12465 C 1179.13 -2.55143 2.50274 0
M  V30 12466 C 1178.96 -2.12446 3.96354 0
M  V30 12467 C 1177.73 -1.99112 4.64416 0
M  V30 12468 C 1179.93 -1.70557 4.85196 0
M  V30 12469 N 1177.91 -1.50114 5.95264 0
M  V30 12470 C 1179.28 -1.329 6.05589 0
M  V30 12471 C 1181.34 -1.58054 4.72147 0
M  V30 12472 C 1180.04 -0.839882 7.1438 0
M  V30 12473 C 1182.07 -1.10547 5.80976 0
M  V30 12474 C 1181.43 -0.738477 7.00518 0
M  V30 12475 H 1177.53 -0.498393 0.602601 0
M  V30 12476 H 1180.11 -0.70775 1.81381 0
M  V30 12477 H 1178.28 -3.19732 2.20513 0
M  V30 12478 H 1180.02 -3.21988 2.45166 0
M  V30 12479 H 1176.77 -2.19971 4.19416 0
M  V30 12480 H 1177.19 -1.27878 6.64813 0
M  V30 12481 H 1181.84 -1.85056 3.8015 0
M  V30 12482 H 1179.55 -0.557395 8.06175 0
M  V30 12483 H 1183.14 -1.01314 5.72911 0
M  V30 12484 H 1182.02 -0.376513 7.83296 0
M  V30 12485 N 1179.52 -1.32087 -0.859693 0
M  V30 12486 C 1180.45 -1.23204 -1.98351 0
M  V30 12487 C 1181.43 -0.116974 -1.69697 0
M  V30 12488 O 1182.62 -0.303301 -1.91817 0
M  V30 12489 C 1179.75 -0.949171 -3.34078 0
M  V30 12490 C 1178.7 -2.02493 -3.77069 0
M  V30 12491 C 1178.03 -1.59455 -5.1037 0
M  V30 12492 C 1179.33 -3.43934 -3.93074 0
M  V30 12493 H 1181.02 -2.17227 -2.0604 0
M  V30 12494 H 1178.57 -1.04577 -0.989931 0
M  V30 12495 H 1180.52 -0.873594 -4.12245 0
M  V30 12496 H 1179.25 0.0267095 -3.26589 0
M  V30 12497 H 1177.91 -2.09057 -3.01149 0
M  V30 12498 H 1177.55 -0.606256 -4.99333 0
M  V30 12499 H 1177.25 -2.31429 -5.40106 0
M  V30 12500 H 1178.78 -1.53325 -5.91036 0
M  V30 12501 H 1180.19 -3.39986 -4.61608 0
M  V30 12502 H 1178.59 -4.14214 -4.3422 0
M  V30 12503 H 1179.66 -3.83965 -2.9614 0
M  V30 12504 N 1181 1.07532 -1.15215 0
M  V30 12505 C 1182.41 1.61567 -0.935568 0
M  V30 12506 C 1182.76 1.89085 0.523557 0
M  V30 12507 O 1181.89 1.65495 1.39429 0
M  V30 12508 C 1182.48 2.93531 -1.69189 0
M  V30 12509 C 1181.04 3.44316 -1.52063 0
M  V30 12510 C 1180.19 2.18404 -1.70866 0
M  V30 12511 H 1183.14 0.906431 -1.30267 0
M  V30 12512 H 1183.16 3.62377 -1.16031 0
M  V30 12513 H 1182.67 2.73471 -2.75381 0
M  V30 12514 H 1180.77 3.69462 -0.482567 0
M  V30 12515 H 1180.89 4.20478 -2.29642 0
M  V30 12516 H 1179.25 2.28012 -1.13502 0
M  V30 12517 H 1180.03 2.00841 -2.7842 0
M  V30 12518 N 1182.48 0.948665 1.2585 0
M  V30 12519 C 1183.76 0.517832 1.88621 0
M  V30 12520 C 1184.14 -1.00477 1.85654 0
M  V30 12521 O 1183.49 -1.868 1.31598 0
M  V30 12522 C 1183.7 1.08768 3.31618 0
M  V30 12523 C 1185.04 1.16089 4.08422 0
M  V30 12524 O 1186.07 1.0388 3.40716 0
M  V30 12525 O 1184.93 1.35172 5.29519 0
M  V30 12526 H 1182.02 0.169916 0.809356 0
M  V30 12527 H 1184.57 1.04171 1.33964 0
M  V30 12528 H 1183.34 2.13109 3.28177 0
M  V30 12529 H 1182.96 0.54669 3.93824 0
M  V30 12530 N 1183.96 -1.40369 0.716545 0
M  V30 12531 C 1185.18 -2.05704 0.264729 0
M  V30 12532 C 1185.61 -1.53634 -1.08527 0
M  V30 12533 O 1184.97 -0.67212 -1.68381 0
M  V30 12534 C 1185.01 -3.59692 0.255778 0
M  V30 12535 O 1184.12 -4.05286 -0.762686 0
M  V30 12536 H 1183.46 -0.652301 0.124092 0
M  V30 12537 H 1185.99 -1.7975 0.977295 0
M  V30 12538 H 1186 -4.07892 0.0937944 0
M  V30 12539 H 1184.67 -3.96955 1.24095 0
M  V30 12540 H 1183.25 -3.68543 -0.568347 0
M  V30 12541 N 1185.44 -0.462799 -1.50652 0
M  V30 12542 C 1186.37 0.325724 -2.31217 0
M  V30 12543 C 1187.35 0.997942 -1.3775 0
M  V30 12544 O 1188.53 0.996707 -1.66671 0
M  V30 12545 C 1185.66 1.41283 -3.17264 0
M  V30 12546 C 1184.62 0.862687 -4.19216 0
M  V30 12547 C 1183.94 2.04746 -4.93946 0
M  V30 12548 C 1185.24 -0.120365 -5.22161 0
M  V30 12549 H 1186.94 -0.346666 -2.97386 0
M  V30 12550 H 1184.48 -0.168163 -1.43015 0
M  V30 12551 H 1186.44 1.97188 -3.72418 0
M  V30 12552 H 1185.16 2.11387 -2.48964 0
M  V30 12553 H 1183.82 0.325671 -3.65151 0
M  V30 12554 H 1183.47 2.73529 -4.22127 0
M  V30 12555 H 1183.17 1.68562 -5.62904 0
M  V30 12556 H 1184.69 2.61157 -5.51932 0
M  V30 12557 H 1186.1 0.349226 -5.72235 0
M  V30 12558 H 1184.5 -0.396061 -5.98792 0
M  V30 12559 H 1185.57 -1.04895 -4.73418 0
M  V30 12560 N 1186.91 1.56388 -0.195085 0
M  V30 12561 C 1188.14 2.01963 0.449289 0
M  V30 12562 C 1188.56 1.07522 1.55192 0
M  V30 12563 O 1187.91 0.0800915 1.82324 0
M  V30 12564 C 1187.97 3.47231 1.00561 0
M  V30 12565 O 1187.69 4.38068 -0.0530241 0
M  V30 12566 C 1189.19 4.08324 1.72587 0
M  V30 12567 H 1186.41 0.661452 0.112792 0
M  V30 12568 H 1188.95 2.02231 -0.303788 0
M  V30 12569 H 1187.11 3.47663 1.70907 0
M  V30 12570 H 1187.52 5.23256 0.361076 0
M  V30 12571 H 1188.99 5.11821 2.06744 0
M  V30 12572 H 1189.47 3.51782 2.62956 0
M  V30 12573 H 1190.08 4.11665 1.06826 0
M  V30 12574 N 1188.39 -0.0785156 1.57404 0
M  V30 12575 C 1189.62 -0.792042 1.9114 0
M  V30 12576 C 1190.04 -1.71458 0.790408 0
M  V30 12577 O 1189.39 -1.80959 -0.236662 0
M  V30 12578 C 1189.44 -1.59138 3.24588 0
M  V30 12579 O 1189.16 -0.705931 4.32375 0
M  V30 12580 C 1190.67 -2.4065 3.72293 0
M  V30 12581 H 1187.89 -0.225566 0.63195 0
M  V30 12582 H 1190.43 -0.0507929 2.04437 0
M  V30 12583 H 1188.58 -2.28498 3.12838 0
M  V30 12584 H 1189 -1.26121 5.09111 0
M  V30 12585 H 1190.47 -2.92204 4.68317 0
M  V30 12586 H 1190.95 -3.1987 3.00965 0
M  V30 12587 H 1191.56 -1.7646 3.86965 0
M  V30 12588 N 1189.87 -1.5367 -0.349747 0
M  V30 12589 C 1191.12 -1.71813 -1.08866 0
M  V30 12590 C 1191.47 -0.472299 -1.86513 0
M  V30 12591 O 1190.76 0.534996 -1.83979 0
M  V30 12592 C 1190.96 -2.91753 -2.06434 0
M  V30 12593 C 1190.79 -4.27881 -1.38377 0
M  V30 12594 C 1189.56 -4.92475 -1.13122 0
M  V30 12595 C 1191.76 -5.0783 -0.813198 0
M  V30 12596 N 1189.74 -6.1249 -0.415806 0
M  V30 12597 C 1191.11 -6.19581 -0.228008 0
M  V30 12598 C 1193.16 -4.92762 -0.713436 0
M  V30 12599 C 1191.87 -7.17908 0.447232 0
M  V30 12600 C 1193.89 -5.91377 -0.051947 0
M  V30 12601 C 1193.25 -7.02461 0.522299 0
M  V30 12602 H 1189.35 -0.681804 -0.382971 0
M  V30 12603 H 1191.94 -1.91093 -0.373029 0
M  V30 12604 H 1190.11 -2.73984 -2.75295 0
M  V30 12605 H 1191.84 -2.98644 -2.73118 0
M  V30 12606 H 1188.6 -4.51915 -1.41669 0
M  V30 12607 H 1189.02 -6.76961 -0.0730052 0
M  V30 12608 H 1193.66 -4.07053 -1.14315 0
M  V30 12609 H 1191.38 -8.03197 0.888855 0
M  V30 12610 H 1194.97 -5.81795 0.0245295 0
M  V30 12611 H 1193.85 -7.77459 1.02605 0
M  V30 12612 N 1191.35 0.610423 -1.45298 0
M  V30 12613 C 1192.26 1.74964 -1.56285 0
M  V30 12614 C 1193.27 1.68149 -0.447436 0
M  V30 12615 O 1194.45 1.88556 -0.707725 0
M  V30 12616 C 1191.52 3.11417 -1.52383 0
M  V30 12617 C 1190.58 3.29707 -2.7494 0
M  V30 12618 C 1189.81 4.5965 -2.71215 0
M  V30 12619 O 1190.03 5.41789 -1.78383 0
M  V30 12620 O 1188.97 4.80591 -3.62375 0
M  V30 12621 H 1192.79 1.68646 -2.52571 0
M  V30 12622 H 1190.38 0.774168 -1.27777 0
M  V30 12623 H 1192.26 3.9272 -1.52805 0
M  V30 12624 H 1190.93 3.18232 -0.592472 0
M  V30 12625 H 1189.84 2.48003 -2.80081 0
M  V30 12626 H 1191.17 3.27766 -3.67192 0
M  V30 12627 N 1192.83 1.32541 0.852676 0
M  V30 12628 C 1194.08 1.22567 1.60188 0
M  V30 12629 C 1194.39 -0.210594 1.94463 0
M  V30 12630 O 1195.59 -0.432214 2.68038 0
M  V30 12631 C 1194.05 2.14678 2.88862 0
M  V30 12632 C 1193.66 3.63398 2.62004 0
M  V30 12633 C 1195.4 2.13545 3.66877 0
M  V30 12634 C 1193.31 4.47464 3.86691 0
M  V30 12635 H 1192.24 0.455184 0.601102 0
M  V30 12636 H 1194.89 1.57515 0.941347 0
M  V30 12637 H 1193.27 1.72647 3.56383 0
M  V30 12638 H 1194.45 4.13783 2.02782 0
M  V30 12639 H 1192.76 3.66681 1.97316 0
M  V30 12640 H 1195.36 2.73589 4.59405 0
M  V30 12641 H 1195.7 1.12694 4.00756 0
M  V30 12642 H 1196.23 2.53866 3.06263 0
M  V30 12643 H 1192.97 5.49136 3.57952 0
M  V30 12644 H 1192.49 4.01829 4.45302 0
M  V30 12645 H 1194.17 4.60565 4.5441 0
M  V30 12646 N 1194.3 -1.0692 1.15784 0
M  V30 12647 C 1195.25 -2.12473 0.826994 0
M  V30 12648 C 1196.24 -1.59766 -0.19073 0
M  V30 12649 O 1197.43 -1.76998 0.00917115 0
M  V30 12650 C 1194.56 -3.41779 0.322847 0
M  V30 12651 C 1193.65 -4.01329 1.37098 0
M  V30 12652 N 1194.04 -4.35077 2.57957 0
M  V30 12653 C 1192.33 -4.28854 1.22475 0
M  V30 12654 C 1193.04 -4.82326 3.25171 0
M  V30 12655 N 1192.01 -4.81369 2.52556 0
M  V30 12656 H 1195.81 -2.36404 1.74614 0
M  V30 12657 H 1193.33 -1.244 1.04395 0
M  V30 12658 H 1195.32 -4.16845 0.0674576 0
M  V30 12659 H 1193.98 -3.19289 -0.590311 0
M  V30 12660 H 1195 -4.25626 2.95065 0
M  V30 12661 H 1191.67 -4.15841 0.371839 0
M  V30 12662 H 1193.06 -5.17695 4.28301 0
M  V30 12663 N 1195.78 -0.955326 -1.25345 0
M  V30 12664 C 1197.03 -0.609278 -1.92697 0
M  V30 12665 C 1197.35 0.856535 -1.75181 0
M  V30 12666 O 1196.62 1.61013 -1.11587 0
M  V30 12667 H 1195.2 -0.22235 -0.713141 0
M  V30 12668 H 1197.86 -1.21372 -1.52496 0
M  V30 12669 H 1196.96 -0.839198 -3.00606 0
M  V30 12670 N 1197.26 1.39987 -0.723979 0
M  V30 12671 C 1198.19 2.3332 -0.0917282 0
M  V30 12672 C 1199.17 1.53335 0.736361 0
M  V30 12673 O 1200.36 1.81771 0.683582 0
M  V30 12674 C 1197.49 3.3737 0.824549 0
M  V30 12675 C 1196.44 4.2788 0.101452 0
M  V30 12676 C 1195.77 5.22536 1.13401 0
M  V30 12677 C 1197.07 5.11649 -1.04939 0
M  V30 12678 H 1198.76 2.86441 -0.871318 0
M  V30 12679 H 1196.31 1.37725 -0.420448 0
M  V30 12680 H 1198.26 4.01607 1.27631 0
M  V30 12681 H 1196.98 2.82663 1.63613 0
M  V30 12682 H 1195.64 3.65107 -0.330569 0
M  V30 12683 H 1195.29 4.64131 1.93886 0
M  V30 12684 H 1194.99 5.83938 0.65502 0
M  V30 12685 H 1196.52 5.89651 1.58569 0
M  V30 12686 H 1197.93 5.69293 -0.6766 0
M  V30 12687 H 1196.33 5.82137 -1.45729 0
M  V30 12688 H 1197.4 4.47132 -1.8762 0
M  V30 12689 N 1198.74 0.470782 1.50404 0
M  V30 12690 C 1199.96 -0.084284 2.07229 0
M  V30 12691 C 1200.39 -1.32774 1.33239 0
M  V30 12692 O 1199.75 -1.77274 0.379971 0
M  V30 12693 C 1199.8 -0.351565 3.58882 0
M  V30 12694 O 1198.9 -1.43211 3.86736 0
M  V30 12695 H 1198.24 0.0128479 0.663876 0
M  V30 12696 H 1200.77 0.661735 1.93603 0
M  V30 12697 H 1200.78 -0.592151 4.0368 0
M  V30 12698 H 1199.46 0.557084 4.12152 0
M  V30 12699 H 1198.03 -1.17886 3.53776 0
M  V30 12700 N 1200.22 -1.56282 0.203376 0
M  V30 12701 C 1201.15 -2.2247 -0.709183 0
M  V30 12702 C 1202.13 -1.19046 -1.21499 0
M  V30 12703 O 1203.31 -1.47578 -1.26231 0
M  V30 12704 C 1200.44 -2.8905 -1.92529 0
M  V30 12705 C 1199.4 -3.98789 -1.55407 0
M  V30 12706 C 1198.72 -4.52574 -2.84747 0
M  V30 12707 C 1200.02 -5.16774 -0.75775 0
M  V30 12708 H 1201.72 -2.98986 -0.157392 0
M  V30 12709 H 1199.26 -1.43808 -0.0742613 0
M  V30 12710 H 1201.22 -3.34038 -2.56898 0
M  V30 12711 H 1199.94 -2.09952 -2.50175 0
M  V30 12712 H 1198.6 -3.54504 -0.933928 0
M  V30 12713 H 1198.25 -3.70229 -3.40499 0
M  V30 12714 H 1197.95 -5.26627 -2.6065 0
M  V30 12715 H 1199.47 -5.00269 -3.5009 0
M  V30 12716 H 1200.89 -5.58256 -1.30472 0
M  V30 12717 H 1199.28 -5.96945 -0.614583 0
M  V30 12718 H 1200.35 -4.84308 0.239476 0
M  V30 12719 N 1201.7 0.070167 -1.57444 0
M  V30 12720 C 1202.92 0.785703 -1.91941 0
M  V30 12721 C 1203.35 1.70243 -0.799932 0
M  V30 12722 O 1202.7 1.79608 0.247139 0
M  V30 12723 C 1202.75 1.55398 -3.25398 0
M  V30 12724 O 1201.86 2.66475 -3.14746 0
M  V30 12725 H 1201.2 0.214245 -0.628486 0
M  V30 12726 H 1203.73 0.0379243 -2.04565 0
M  V30 12727 H 1203.74 1.93287 -3.5931 0
M  V30 12728 H 1202.41 0.881366 -4.06454 0
M  V30 12729 H 1200.99 2.3143 -2.92394 0
M  V30 12730 N 1203.17 1.53854 0.341593 0
M  V30 12731 C 1204.12 1.81979 1.41959 0
M  V30 12732 C 1205.09 0.665616 1.5218 0
M  V30 12733 O 1206.28 0.910246 1.67688 0
M  V30 12734 C 1203.42 2.03681 2.78583 0
M  V30 12735 C 1202.53 3.31389 2.77137 0
M  V30 12736 C 1201.66 3.43148 4.05491 0
M  V30 12737 C 1200.7 4.64799 3.98282 0
M  V30 12738 N 1199.84 4.73581 5.18329 0
M  V30 12739 H 1204.68 2.73953 1.17275 0
M  V30 12740 H 1202.22 1.35689 0.568062 0
M  V30 12741 H 1204.17 2.14253 3.57983 0
M  V30 12742 H 1202.8 1.15017 3.01614 0
M  V30 12743 H 1201.86 3.29649 1.89832 0
M  V30 12744 H 1203.17 4.20885 2.67689 0
M  V30 12745 H 1202.32 3.53163 4.93316 0
M  V30 12746 H 1201.06 2.51712 4.17723 0
M  V30 12747 H 1200.07 4.54859 3.08842 0
M  V30 12748 H 1201.29 5.57601 3.87631 0
M  V30 12749 H 1199.24 3.85055 5.31102 0
M  V30 12750 H 1199.15 5.57016 5.11145 0
M  V30 12751 H 1200.42 4.87908 6.0792 0
M  V30 12752 N 1204.65 -0.602709 1.4562 0
M  V30 12753 C 1205.88 -1.3881 1.53426 0
M  V30 12754 C 1206.29 -1.88046 0.16851 0
M  V30 12755 O 1205.65 -1.62493 -0.830791 0
M  V30 12756 C 1205.7 -2.58927 2.52268 0
M  V30 12757 O 1205.42 -2.11735 3.83536 0
M  V30 12758 C 1206.92 -3.51728 2.69819 0
M  V30 12759 H 1204.14 -0.424744 0.519455 0
M  V30 12760 H 1206.69 -0.73459 1.90851 0
M  V30 12761 H 1204.84 -3.20309 2.17902 0
M  V30 12762 H 1205.26 -2.89814 4.37159 0
M  V30 12763 H 1206.73 -4.32542 3.42945 0
M  V30 12764 H 1207.21 -4.02383 1.76024 0
M  V30 12765 H 1207.81 -2.96196 3.05202 0
M  V30 12766 N 1206.13 -1.32992 -0.845635 0
M  V30 12767 C 1207.08 -1.22682 -1.95494 0
M  V30 12768 C 1208.05 -0.106942 -1.65755 0
M  V30 12769 O 1209.23 -0.28405 -1.88674 0
M  V30 12770 C 1206.37 -0.965068 -3.31331 0
M  V30 12771 C 1205.48 -2.17058 -3.7351 0
M  V30 12772 C 1204.62 -1.84355 -4.98183 0
M  V30 12773 C 1203.66 -3.01176 -5.32878 0
M  V30 12774 N 1202.8 -2.68506 -6.48729 0
M  V30 12775 H 1207.64 -2.17562 -2.03644 0
M  V30 12776 H 1205.17 -1.08194 -0.996613 0
M  V30 12777 H 1207.13 -0.793771 -4.09579 0
M  V30 12778 H 1205.76 -0.0530285 -3.22756 0
M  V30 12779 H 1204.81 -2.45185 -2.90841 0
M  V30 12780 H 1206.12 -3.04413 -3.95138 0
M  V30 12781 H 1205.28 -1.6383 -5.84162 0
M  V30 12782 H 1204.02 -0.942264 -4.78511 0
M  V30 12783 H 1203.02 -3.22323 -4.45408 0
M  V30 12784 H 1204.25 -3.9205 -5.54503 0
M  V30 12785 H 1202.19 -1.80929 -6.30556 0
M  V30 12786 H 1202.11 -3.49392 -6.70419 0
M  V30 12787 H 1203.38 -2.51432 -7.37836 0
M  V30 12788 N 1207.61 1.06304 -1.1635 0
M  V30 12789 C 1208.86 1.78747 -0.943074 0
M  V30 12790 C 1209.18 1.87646 0.530483 0
M  V30 12791 O 1208.45 1.38506 1.38538 0
M  V30 12792 H 1207.03 0.662072 -0.345932 0
M  V30 12793 H 1209.69 1.28413 -1.46615 0
M  V30 12794 H 1208.78 2.80828 -1.3617 0
M  V30 12795 N 1209.09 0.96196 1.24836 0
M  V30 12796 C 1210.02 0.506241 2.27946 0
M  V30 12797 C 1211 -0.451183 1.64007 0
M  V30 12798 O 1212.18 -0.348552 1.91046 0
M  V30 12799 C 1209.31 -0.209846 3.46665 0
M  V30 12800 C 1208.27 0.663035 4.22833 0
M  V30 12801 C 1207.59 -0.184216 5.34383 0
M  V30 12802 C 1208.89 1.94479 4.84742 0
M  V30 12803 H 1210.59 1.36805 2.66317 0
M  V30 12804 H 1208.13 0.65926 1.28023 0
M  V30 12805 H 1210.08 -0.539838 4.17928 0
M  V30 12806 H 1208.81 -1.10596 3.07305 0
M  V30 12807 H 1207.47 0.976216 3.53363 0
M  V30 12808 H 1207.12 -1.08031 4.91262 0
M  V30 12809 H 1206.82 0.39657 5.8626 0
M  V30 12810 H 1208.34 -0.509009 6.08475 0
M  V30 12811 H 1209.75 1.68074 5.48109 0
M  V30 12812 H 1208.15 2.47183 5.46828 0
M  V30 12813 H 1209.22 2.64332 4.06517 0
M  V30 12814 N 1210.56 -1.39601 0.731392 0
M  V30 12815 C 1211.8 -2.0244 0.282387 0
M  V30 12816 C 1212.17 -1.56776 -1.10839 0
M  V30 12817 O 1213.37 -2.11788 -1.65527 0
M  V30 12818 C 1211.64 -3.55409 0.376704 0
M  V30 12819 S 1213.2 -4.38799 0.00700932 0
M  V30 12820 H 1210.02 -0.7023 0.110886 0
M  V30 12821 H 1212.62 -1.70469 0.957111 0
M  V30 12822 H 1211.32 -3.86134 1.39027 0
M  V30 12823 H 1210.85 -3.92129 -0.315963 0
M  V30 12824 H 1212.87 -4.81213 -1.21032 0
M  V30 12825 N 1212.04 -0.478751 -1.50152 0
M  V30 12826 C 1213.29 0.073694 -2.02666 0
M  V30 12827 C 1213.62 1.38679 -1.35947 0
M  V30 12828 O 1212.9 1.88286 -0.4877 0
M  V30 12829 C 1213.18 0.249516 -3.59235 0
M  V30 12830 C 1213.03 -1.08514 -4.36514 0
M  V30 12831 C 1214.35 1.00053 -4.28576 0
M  V30 12832 H 1211.47 0.0253082 -0.736565 0
M  V30 12833 H 1214.11 -0.625834 -1.79397 0
M  V30 12834 H 1212.26 0.845343 -3.79192 0
M  V30 12835 H 1213.93 -1.71814 -4.28109 0
M  V30 12836 H 1212.18 -1.67992 -3.99952 0
M  V30 12837 H 1212.85 -0.915676 -5.44352 0
M  V30 12838 H 1215.32 0.495422 -4.1314 0
M  V30 12839 H 1214.2 1.09236 -5.37921 0
M  V30 12840 H 1214.46 2.03896 -3.92274 0
M  V30 12841 N 1213.52 1.56172 -0.211661 0
M  V30 12842 C 1214.48 2.18602 0.688906 0
M  V30 12843 C 1215.48 1.14508 1.12892 0
M  V30 12844 O 1216.67 1.39799 1.03932 0
M  V30 12845 C 1213.81 2.80141 1.94253 0
M  V30 12846 H 1215 2.9955 0.144765 0
M  V30 12847 H 1212.55 1.56254 0.0379615 0
M  V30 12848 H 1213.29 2.03035 2.52878 0
M  V30 12849 H 1213.07 3.56358 1.63558 0
M  V30 12850 H 1214.56 3.28026 2.58436 0
M  V30 12851 N 1215 -0.0618163 1.57479 0
M  V30 12852 C 1216.23 -0.771724 1.91969 0
M  V30 12853 C 1216.64 -1.7061 0.808549 0
M  V30 12854 O 1216 -1.812 -0.217455 0
M  V30 12855 C 1216.05 -1.55687 3.26257 0
M  V30 12856 O 1215.77 -0.660032 4.331 0
M  V30 12857 C 1217.27 -2.36688 3.74825 0
M  V30 12858 H 1214.49 -0.21885 0.634307 0
M  V30 12859 H 1217.04 -0.0291068 2.04479 0
M  V30 12860 H 1215.19 -2.25167 3.15244 0
M  V30 12861 H 1215.6 -1.20715 5.1042 0
M  V30 12862 H 1217.08 -2.8722 4.7139 0
M  V30 12863 H 1217.56 -3.1666 3.0434 0
M  V30 12864 H 1218.16 -1.72346 3.88815 0
M  V30 12865 N 1216.48 -1.54033 -0.333429 0
M  V30 12866 C 1217.89 -1.63107 -0.908455 0
M  V30 12867 C 1218.24 -0.518823 -1.89216 0
M  V30 12868 O 1217.36 0.34985 -2.13553 0
M  V30 12869 C 1217.96 -2.95657 -1.65447 0
M  V30 12870 C 1216.52 -3.0696 -2.17836 0
M  V30 12871 C 1215.66 -2.58617 -1.00063 0
M  V30 12872 H 1218.62 -1.58309 -0.11128 0
M  V30 12873 H 1218.64 -2.85263 -2.51804 0
M  V30 12874 H 1218.15 -3.76588 -0.938263 0
M  V30 12875 H 1216.25 -2.30683 -2.92602 0
M  V30 12876 H 1216.36 -4.12599 -2.43513 0
M  V30 12877 H 1214.73 -2.1427 -1.37697 0
M  V30 12878 H 1215.51 -3.41996 -0.298901 0
M  V30 12879 N 1217.95 0.594978 -1.45938 0
M  V30 12880 C 1219.2 1.35561 -1.50834 0
M  V30 12881 C 1219.53 1.93584 -0.154566 0
M  V30 12882 O 1218.81 1.75781 0.832541 0
M  V30 12883 C 1219.09 2.49414 -2.5974 0
M  V30 12884 C 1218.94 1.96506 -4.04605 0
M  V30 12885 C 1220.26 3.51505 -2.64825 0
M  V30 12886 H 1217.38 0.491549 -0.549134 0
M  V30 12887 H 1220.02 0.669536 -1.77812 0
M  V30 12888 H 1218.17 3.07939 -2.36866 0
M  V30 12889 H 1219.85 1.42533 -4.38728 0
M  V30 12890 H 1218.09 1.27418 -4.14665 0
M  V30 12891 H 1218.76 2.78636 -4.76515 0
M  V30 12892 H 1221.24 3.02841 -2.85353 0
M  V30 12893 H 1220.11 4.28641 -3.42867 0
M  V30 12894 H 1220.37 4.07942 -1.70399 0
M  V30 12895 N 1219.43 1.33438 0.838571 0
M  V30 12896 C 1220.36 1.19552 1.9555 0
M  V30 12897 C 1221.38 0.12642 1.62308 0
M  V30 12898 O 1222.57 0.376868 1.74476 0
M  V30 12899 C 1219.67 0.811273 3.29046 0
M  V30 12900 C 1218.84 1.97207 3.9042 0
M  V30 12901 C 1217.9 1.56875 5.02271 0
M  V30 12902 O 1216.92 2.28314 5.21403 0
M  V30 12903 N 1218.13 0.473924 5.78562 0
M  V30 12904 H 1220.89 2.15769 2.07999 0
M  V30 12905 H 1218.45 1.26187 1.01432 0
M  V30 12906 H 1220.44 0.523553 4.01299 0
M  V30 12907 H 1219.01 -0.0602291 3.12542 0
M  V30 12908 H 1218.23 2.4254 3.10754 0
M  V30 12909 H 1219.52 2.74878 4.28158 0
M  V30 12910 H 1218.92 -0.120306 5.65572 0
M  V30 12911 H 1217.48 0.245877 6.51336 0
M  V30 12912 N 1220.91 -1.05686 1.16912 0
M  V30 12913 C 1221.84 -2.15268 0.904532 0
M  V30 12914 C 1222.82 -1.69424 -0.151548 0
M  V30 12915 O 1224.01 -1.942 -0.00235371 0
M  V30 12916 C 1221.14 -3.44853 0.411581 0
M  V30 12917 C 1220.09 -4.04237 1.40628 0
M  V30 12918 C 1219.42 -5.29105 0.771479 0
M  V30 12919 C 1220.72 -4.42303 2.77787 0
M  V30 12920 H 1222.41 -2.37659 1.82094 0
M  V30 12921 H 1219.96 -1.14217 0.876947 0
M  V30 12922 H 1221.91 -4.20857 0.213929 0
M  V30 12923 H 1220.63 -3.22099 -0.540352 0
M  V30 12924 H 1219.29 -3.30297 1.59058 0
M  V30 12925 H 1218.94 -5.02652 -0.187133 0
M  V30 12926 H 1218.64 -5.69797 1.43545 0
M  V30 12927 H 1220.16 -6.07801 0.583988 0
M  V30 12928 H 1221.58 -5.09362 2.63103 0
M  V30 12929 H 1219.98 -4.93997 3.40716 0
M  V30 12930 H 1221.05 -3.52877 3.32575 0
M  V30 12931 N 1222.39 -0.968567 -1.24324 0
M  V30 12932 C 1223.8 -0.675239 -1.44612 0
M  V30 12933 C 1224 0.762641 -1.8651 0
M  V30 12934 O 1223.06 1.53644 -2.00374 0
M  V30 12935 C 1224.37 -1.66007 -2.50723 0
M  V30 12936 C 1225.92 -1.6728 -2.6455 0
M  V30 12937 C 1226.4 -2.64563 -3.73859 0
M  V30 12938 N 1227.89 -2.6301 -3.81287 0
M  V30 12939 C 1228.62 -3.34957 -4.65394 0
M  V30 12940 N 1228.12 -4.16424 -5.53681 0
M  V30 12941 N 1229.91 -3.23778 -4.59483 0
M  V30 12942 H 1222.06 -1.89757 -0.954257 0
M  V30 12943 H 1224.33 -0.817004 -0.480841 0
M  V30 12944 H 1224.03 -2.68779 -2.26827 0
M  V30 12945 H 1223.91 -1.43353 -3.48898 0
M  V30 12946 H 1226.29 -0.652184 -2.87803 0
M  V30 12947 H 1226.37 -1.93997 -1.6673 0
M  V30 12948 H 1226.02 -3.66759 -3.51355 0
M  V30 12949 H 1225.95 -2.35124 -4.71194 0
M  V30 12950 H 1228.44 -2.03877 -3.18186 0
M  V30 12951 H 1228.75 -4.68207 -6.14818 0
M  V30 12952 H 1227.1 -4.20518 -5.53344 0
M  V30 12953 H 1230.29 -2.59594 -3.89524 0
M  V30 12954 H 1230.46 -3.80112 -5.24804 0
M  V30 12955 N 1223.87 1.39211 -0.738786 0
M  V30 12956 C 1225.11 2.00733 -0.288817 0
M  V30 12957 C 1225.45 1.58494 1.1222 0
M  V30 12958 O 1224.72 0.815579 1.76575 0
M  V30 12959 C 1225 3.57928 -0.394956 0
M  V30 12960 C 1224.86 4.10174 -1.84601 0
M  V30 12961 C 1226.18 4.39548 0.220395 0
M  V30 12962 H 1223.29 0.729276 -0.106418 0
M  V30 12963 H 1225.94 1.65365 -0.935652 0
M  V30 12964 H 1224.09 3.88188 0.155744 0
M  V30 12965 H 1225.76 3.90618 -2.45388 0
M  V30 12966 H 1224 3.63593 -2.36607 0
M  V30 12967 H 1224.67 5.19305 -1.87152 0
M  V30 12968 H 1227.15 4.15354 -0.249098 0
M  V30 12969 H 1226.02 5.48778 0.115806 0
M  V30 12970 H 1226.29 4.22341 1.30691 0
M  V30 12971 N 1225.34 0.486708 1.49896 0
M  V30 12972 C 1226.59 -0.062852 2.02402 0
M  V30 12973 C 1226.92 -1.38306 1.36754 0
M  V30 12974 O 1226.17 -1.89531 0.487493 0
M  V30 12975 C 1226.47 -0.278643 3.56312 0
M  V30 12976 C 1226.14 0.961794 4.40523 0
M  V30 12977 C 1224.8 1.30185 4.63255 0
M  V30 12978 C 1227.15 1.78697 4.89609 0
M  V30 12979 C 1224.48 2.46686 5.32318 0
M  V30 12980 C 1226.83 2.9434 5.59953 0
M  V30 12981 C 1225.5 3.28742 5.80935 0
M  V30 12982 H 1224.77 -0.0229992 0.740643 0
M  V30 12983 H 1227.41 0.643963 1.80348 0
M  V30 12984 H 1225.72 -1.06785 3.76967 0
M  V30 12985 H 1227.42 -0.718078 3.94518 0
M  V30 12986 H 1224.01 0.686887 4.2306 0
M  V30 12987 H 1228.19 1.53742 4.71887 0
M  V30 12988 H 1223.45 2.73596 5.46768 0
M  V30 12989 H 1227.62 3.58616 5.96965 0
M  V30 12990 H 1225.25 4.19121 6.34225 0
M  V30 12991 N 1226.82 -1.56058 0.219941 0
M  V30 12992 C 1228.24 -1.59024 -0.135476 0
M  V30 12993 C 1228.44 -1.23672 -1.59083 0
M  V30 12994 O 1227.5 -0.971197 -2.33075 0
M  V30 12995 C 1228.81 -3.00103 0.189356 0
M  V30 12996 C 1230.36 -3.12724 0.131463 0
M  V30 12997 C 1230.83 -4.55977 0.429947 0
M  V30 12998 N 1232.32 -4.61643 0.37946 0
M  V30 12999 C 1233.06 -5.70419 0.58393 0
M  V30 13000 N 1232.55 -6.87565 0.850088 0
M  V30 13001 N 1234.35 -5.59722 0.516477 0
M  V30 13002 H 1226.5 -1.77313 1.16935 0
M  V30 13003 H 1228.76 -0.824096 0.468583 0
M  V30 13004 H 1228.47 -3.30616 1.19941 0
M  V30 13005 H 1228.34 -3.73919 -0.49641 0
M  V30 13006 H 1230.73 -2.82008 -0.869223 0
M  V30 13007 H 1230.81 -2.41241 0.85068 0
M  V30 13008 H 1230.45 -4.8741 1.42806 0
M  V30 13009 H 1230.38 -5.25684 -0.310444 0
M  V30 13010 H 1232.87 -3.77465 0.181373 0
M  V30 13011 H 1233.19 -7.66378 0.994251 0
M  V30 13012 H 1231.53 -6.89313 0.887265 0
M  V30 13013 H 1234.72 -4.6708 0.308784 0
M  V30 13014 H 1234.9 -6.4443 0.679236 0
M  V30 13015 N 1228.3 0.053464 -1.57509 0
M  V30 13016 C 1229.21 1.07902 -2.08313 0
M  V30 13017 C 1230.23 1.41223 -1.01647 0
M  V30 13018 O 1231.4 1.51032 -1.33233 0
M  V30 13019 C 1228.47 2.36813 -2.5322 0
M  V30 13020 C 1227.53 2.10297 -3.74264 0
M  V30 13021 C 1226.76 3.33062 -4.1702 0
M  V30 13022 O 1226.99 4.42857 -3.59491 0
M  V30 13023 O 1225.92 3.20195 -5.09665 0
M  V30 13024 H 1229.75 0.677368 -2.9605 0
M  V30 13025 H 1227.33 0.268838 -1.46961 0
M  V30 13026 H 1229.21 3.12645 -2.82544 0
M  V30 13027 H 1227.89 2.76323 -1.68605 0
M  V30 13028 H 1226.79 1.32111 -3.49996 0
M  V30 13029 H 1228.13 1.75658 -4.59788 0
M  V30 13030 N 1229.78 1.54207 0.325255 0
M  V30 13031 C 1231.03 1.72331 1.0634 0
M  V30 13032 C 1231.35 0.496115 1.88066 0
M  V30 13033 O 1230.61 -0.52214 1.88606 0
M  V30 13034 C 1230.91 2.95 2.01766 0
M  V30 13035 C 1230.57 4.29835 1.36208 0
M  V30 13036 C 1229.24 4.66493 1.18059 0
M  V30 13037 C 1231.59 5.13521 0.891404 0
M  V30 13038 C 1228.92 5.84436 0.514894 0
M  V30 13039 C 1231.27 6.32146 0.239534 0
M  V30 13040 C 1229.93 6.67484 0.0458839 0
M  V30 13041 H 1229.2 0.630605 0.389125 0
M  V30 13042 H 1231.85 1.88445 0.34072 0
M  V30 13043 H 1230.15 2.73567 2.80479 0
M  V30 13044 H 1231.85 3.06217 2.58906 0
M  V30 13045 H 1228.44 4.00993 1.51335 0
M  V30 13046 H 1232.63 4.85718 1.01941 0
M  V30 13047 H 1227.88 6.10376 0.353644 0
M  V30 13048 H 1232.06 6.96273 -0.133185 0
M  V30 13049 H 1229.68 7.58733 -0.471978 0
M  V30 13050 N 1231.26 -0.58723 1.46251 0
M  V30 13051 C 1232.21 -1.69141 1.5289 0
M  V30 13052 C 1233.19 -1.56096 0.39024 0
M  V30 13053 O 1234.38 -1.65087 0.638373 0
M  V30 13054 C 1231.51 -3.07922 1.51785 0
M  V30 13055 C 1230.6 -3.2628 2.70928 0
M  V30 13056 N 1230.99 -3.14815 3.95885 0
M  V30 13057 C 1229.29 -3.57207 2.67056 0
M  V30 13058 C 1229.99 -3.35055 4.75514 0
M  V30 13059 N 1228.96 -3.59999 4.0731 0
M  V30 13060 H 1232.77 -1.588 2.47305 0
M  V30 13061 H 1230.28 -0.791124 1.41827 0
M  V30 13062 H 1232.28 -3.87164 1.54628 0
M  V30 13063 H 1230.94 -3.19397 0.584435 0
M  V30 13064 H 1231.95 -2.92778 4.27202 0
M  V30 13065 H 1228.63 -3.75394 1.82717 0
M  V30 13066 H 1230.02 -3.31412 5.84479 0
M  V30 13067 N 1232.74 -1.33881 -0.831482 0
M  V30 13068 C 1233.67 -1.27384 -1.95693 0
M  V30 13069 C 1234.65 -0.152943 -1.69411 0
M  V30 13070 O 1235.83 -0.34392 -1.9113 0
M  V30 13071 C 1232.96 -1.01982 -3.31989 0
M  V30 13072 C 1231.92 -2.10445 -3.72689 0
M  V30 13073 C 1231.24 -1.70245 -5.06873 0
M  V30 13074 C 1232.54 -3.52194 -3.8569 0
M  V30 13075 H 1234.24 -2.21549 -2.01386 0
M  V30 13076 H 1231.78 -1.06653 -0.967526 0
M  V30 13077 H 1233.73 -0.960841 -4.103 0
M  V30 13078 H 1232.46 -0.0425709 -3.26572 0
M  V30 13079 H 1231.12 -2.15398 -2.96647 0
M  V30 13080 H 1230.77 -0.712036 -4.97935 0
M  V30 13081 H 1230.47 -2.42834 -5.35075 0
M  V30 13082 H 1231.99 -1.65827 -5.87651 0
M  V30 13083 H 1233.4 -3.49701 -4.54293 0
M  V30 13084 H 1231.8 -4.23331 -4.25336 0
M  V30 13085 H 1232.87 -3.9016 -2.87929 0
M  V30 13086 N 1234.21 1.05064 -1.1747 0
M  V30 13087 C 1235.16 2.11131 -0.860692 0
M  V30 13088 C 1236.15 1.60049 0.165288 0
M  V30 13089 O 1237.34 1.76961 -0.0373288 0
M  V30 13090 C 1234.47 3.41222 -0.37718 0
M  V30 13091 C 1233.55 3.99097 -1.43466 0
M  V30 13092 N 1233.95 4.30918 -2.64846 0
M  V30 13093 C 1232.24 4.26851 -1.29282 0
M  V30 13094 C 1232.94 4.77092 -3.32804 0
M  V30 13095 N 1231.92 4.77291 -2.60182 0
M  V30 13096 H 1235.72 2.33597 -1.78353 0
M  V30 13097 H 1233.24 1.22724 -1.06361 0
M  V30 13098 H 1235.23 4.16685 -0.133766 0
M  V30 13099 H 1233.89 3.20188 0.53944 0
M  V30 13100 H 1234.9 4.20877 -3.01799 0
M  V30 13101 H 1231.58 4.15197 -0.437949 0
M  V30 13102 H 1232.97 5.10815 -4.36483 0
M  V30 13103 N 1235.69 0.975146 1.23809 0
M  V30 13104 C 1236.62 0.530389 2.27396 0
M  V30 13105 C 1237.6 -0.433763 1.64476 0
M  V30 13106 O 1238.79 -0.32827 1.91405 0
M  V30 13107 C 1235.92 -0.173066 3.46869 0
M  V30 13108 C 1234.87 0.707844 4.22106 0
M  V30 13109 C 1234.2 -0.127527 5.34548 0
M  V30 13110 C 1235.5 1.99609 4.82652 0
M  V30 13111 H 1237.19 1.39622 2.64851 0
M  V30 13112 H 1234.74 0.672802 1.27316 0
M  V30 13113 H 1236.69 -0.495481 4.18477 0
M  V30 13114 H 1235.41 -1.0733 3.0846 0
M  V30 13115 H 1234.07 1.01364 3.52308 0
M  V30 13116 H 1233.72 -1.02814 4.9238 0
M  V30 13117 H 1233.42 0.458728 5.85807 0
M  V30 13118 H 1234.95 -0.444443 6.0898 0
M  V30 13119 H 1236.36 1.73878 5.46296 0
M  V30 13120 H 1234.76 2.52969 5.44175 0
M  V30 13121 H 1235.83 2.68629 4.03691 0
M  V30 13122 N 1237.17 -1.38817 0.746158 0
M  V30 13123 C 1238.59 -1.53894 0.42294 0
M  V30 13124 C 1238.79 -1.71064 -1.06486 0
M  V30 13125 O 1237.84 -1.71744 -1.85095 0
M  V30 13126 C 1239.15 -2.75029 1.2157 0
M  V30 13127 C 1240.7 -2.88873 1.20504 0
M  V30 13128 C 1241.18 -4.1296 1.9806 0
M  V30 13129 N 1242.67 -4.20022 1.95283 0
M  V30 13130 C 1243.4 -5.15011 2.52093 0
M  V30 13131 N 1242.9 -6.1572 3.17586 0
M  V30 13132 N 1244.69 -5.07308 2.42064 0
M  V30 13133 H 1236.84 -1.25921 1.71049 0
M  V30 13134 H 1239.11 -0.611148 0.724708 0
M  V30 13135 H 1238.81 -2.68722 2.26895 0
M  V30 13136 H 1238.69 -3.68009 0.827593 0
M  V30 13137 H 1241.07 -2.94667 0.159877 0
M  V30 13138 H 1241.15 -1.96925 1.63261 0
M  V30 13139 H 1240.8 -4.07929 3.02583 0
M  V30 13140 H 1240.73 -5.03974 1.52702 0
M  V30 13141 H 1243.22 -3.47892 1.4758 0
M  V30 13142 H 1243.53 -6.84682 3.58373 0
M  V30 13143 H 1241.88 -6.16075 3.21678 0
M  V30 13144 H 1245.07 -4.27569 1.90532 0
M  V30 13145 H 1245.24 -5.81158 2.86635 0
M  V30 13146 N 1238.65 -0.49465 -1.49636 0
M  V30 13147 C 1239.58 0.276606 -2.31856 0
M  V30 13148 C 1240.56 0.968499 -1.39836 0
M  V30 13149 O 1241.74 0.96113 -1.68748 0
M  V30 13150 C 1238.87 1.34522 -3.20189 0
M  V30 13151 C 1237.83 0.773571 -4.20951 0
M  V30 13152 C 1237.15 1.94223 -4.98178 0
M  V30 13153 C 1238.45 -0.231096 -5.21788 0
M  V30 13154 H 1240.15 -0.409668 -2.96584 0
M  V30 13155 H 1237.69 -0.198461 -1.42626 0
M  V30 13156 H 1239.65 1.89244 -3.76517 0
M  V30 13157 H 1238.37 2.06059 -2.53392 0
M  V30 13158 H 1237.03 0.248144 -3.65759 0
M  V30 13159 H 1236.68 2.64514 -4.27834 0
M  V30 13160 H 1236.38 1.56584 -5.66353 0
M  V30 13161 H 1237.9 2.49391 -5.57348 0
M  V30 13162 H 1239.32 0.227768 -5.72847 0
M  V30 13163 H 1237.71 -0.522984 -5.97817 0
M  V30 13164 H 1238.78 -1.14914 -4.71087 0
M  V30 13165 N 1240.13 1.55939 -0.228214 0
M  V30 13166 C 1241.54 1.84612 0.278417 0
M  V30 13167 C 1241.89 1.14973 1.58983 0
M  V30 13168 O 1241.01 0.421673 2.12252 0
M  V30 13169 C 1241.61 3.3491 0.511935 0
M  V30 13170 C 1240.17 3.63876 0.962861 0
M  V30 13171 C 1239.31 2.77284 0.0296246 0
M  V30 13172 H 1242.26 1.52149 -0.451245 0
M  V30 13173 H 1242.29 3.55477 1.35707 0
M  V30 13174 H 1241.8 3.85567 -0.442697 0
M  V30 13175 H 1239.9 3.18682 1.93062 0
M  V30 13176 H 1240.01 4.71809 0.832659 0
M  V30 13177 H 1238.38 2.48961 0.53763 0
M  V30 13178 H 1239.16 3.30742 -0.920044 0
M  V30 13179 N 1241.6 -0.0451101 1.57535 0
M  V30 13180 C 1242.54 -1.08327 2.00849 0
M  V30 13181 C 1243.52 -1.36083 0.889957 0
M  V30 13182 O 1244.7 -1.49009 1.15449 0
M  V30 13183 C 1241.83 -2.42171 2.36793 0
M  V30 13184 C 1240.87 -2.30378 3.58926 0
M  V30 13185 S 1241.71 -1.67244 5.08714 0
M  V30 13186 C 1242.86 -3.02611 5.47885 0
M  V30 13187 H 1243.09 -0.714274 2.88592 0
M  V30 13188 H 1240.63 -0.254561 1.52287 0
M  V30 13189 H 1242.59 -3.1915 2.58174 0
M  V30 13190 H 1241.25 -2.76224 1.49531 0
M  V30 13191 H 1240.44 -3.29146 3.81679 0
M  V30 13192 H 1240.04 -1.6154 3.37314 0
M  V30 13193 H 1242.33 -3.98941 5.47587 0
M  V30 13194 H 1243.28 -2.84609 6.48385 0
M  V30 13195 H 1243.68 -3.04445 4.75367 0
M  V30 13196 N 1243.08 -1.54377 -0.317073 0
M  V30 13197 C 1244.31 -1.77184 -1.07798 0
M  V30 13198 C 1244.73 -0.52204 -1.80711 0
M  V30 13199 O 1244.09 0.52672 -1.7348 0
M  V30 13200 C 1244.14 -2.96887 -2.04671 0
M  V30 13201 O 1243.24 -2.68887 -3.12688 0
M  V30 13202 H 1242.58 -0.586937 -0.310485 0
M  V30 13203 H 1245.11 -2.01419 -0.35939 0
M  V30 13204 H 1245.12 -3.24414 -2.47426 0
M  V30 13205 H 1243.8 -3.87518 -1.51005 0
M  V30 13206 H 1242.38 -2.52329 -2.74562 0
M  V30 13207 N 1244.56 0.579466 -1.4656 0
M  V30 13208 C 1245.81 1.33954 -1.52264 0
M  V30 13209 C 1246.14 1.93409 -0.175089 0
M  V30 13210 O 1245.41 1.76654 0.81385 0
M  V30 13211 C 1245.7 2.46645 -2.6237 0
M  V30 13212 C 1245.55 1.92204 -4.06667 0
M  V30 13213 C 1246.87 3.48676 -2.68538 0
M  V30 13214 H 1243.99 0.485697 -0.554317 0
M  V30 13215 H 1246.63 0.650639 -1.78512 0
M  V30 13216 H 1244.78 3.0541 -2.40119 0
M  V30 13217 H 1246.45 1.37871 -4.40215 0
M  V30 13218 H 1244.7 1.23012 -4.15993 0
M  V30 13219 H 1245.37 2.73566 -4.79443 0
M  V30 13220 H 1247.84 2.99798 -2.88549 0
M  V30 13221 H 1246.72 4.24981 -3.47394 0
M  V30 13222 H 1246.98 4.06112 -1.74716 0
M  V30 13223 N 1246.04 1.3432 0.824371 0
M  V30 13224 C 1247.45 1.1397 1.11727 0
M  V30 13225 C 1247.65 -0.0597597 2.01411 0
M  V30 13226 O 1246.71 -0.735717 2.41544 0
M  V30 13227 C 1248.02 2.43423 1.76538 0
M  V30 13228 C 1249.57 2.49466 1.89039 0
M  V30 13229 C 1250.05 3.78917 2.57266 0
M  V30 13230 N 1251.54 3.8007 2.64767 0
M  V30 13231 C 1252.27 4.76953 3.18282 0
M  V30 13232 N 1251.77 5.84217 3.72373 0
M  V30 13233 N 1253.56 4.6441 3.1667 0
M  V30 13234 H 1245.71 2.11175 0.227802 0
M  V30 13235 H 1247.98 0.933774 0.163615 0
M  V30 13236 H 1247.68 3.31278 1.18102 0
M  V30 13237 H 1247.56 2.56655 2.7642 0
M  V30 13238 H 1249.94 1.62052 2.46623 0
M  V30 13239 H 1250.02 2.40163 0.880635 0
M  V30 13240 H 1249.67 4.6672 2.00336 0
M  V30 13241 H 1249.6 3.85502 3.58742 0
M  V30 13242 H 1252.09 3.02556 2.26425 0
M  V30 13243 H 1252.4 6.54159 4.11455 0
M  V30 13244 H 1250.75 5.87933 3.70621 0
M  V30 13245 H 1253.94 3.7976 2.73678 0
M  V30 13246 H 1254.11 5.40081 3.58073 0
M  V30 13247 N 1247.52 -1.0444 1.18026 0
M  V30 13248 C 1248.93 -1.29766 0.929143 0
M  V30 13249 C 1249.13 -1.97338 -0.407436 0
M  V30 13250 O 1248.19 -2.25166 -1.14265 0
M  V30 13251 C 1249.5 -2.16002 2.09197 0
M  V30 13252 C 1251.05 -2.29361 2.12985 0
M  V30 13253 C 1251.52 -3.18962 3.28675 0
M  V30 13254 N 1253.02 -3.26549 3.28512 0
M  V30 13255 C 1253.75 -3.96025 4.14671 0
M  V30 13256 N 1253.25 -4.67863 5.10956 0
M  V30 13257 N 1255.04 -3.92266 4.02597 0
M  V30 13258 H 1247.19 -0.58984 2.04046 0
M  V30 13259 H 1249.45 -0.322752 0.891367 0
M  V30 13260 H 1249.16 -1.73653 3.05839 0
M  V30 13261 H 1249.03 -3.16667 2.04943 0
M  V30 13262 H 1251.42 -2.70948 1.16924 0
M  V30 13263 H 1251.5 -1.28299 2.21298 0
M  V30 13264 H 1251.15 -2.78087 4.25006 0
M  V30 13265 H 1251.08 -4.20047 3.17598 0
M  V30 13266 H 1253.57 -2.75371 2.58804 0
M  V30 13267 H 1253.88 -5.1846 5.73079 0
M  V30 13268 H 1252.22 -4.6678 5.14919 0
M  V30 13269 H 1255.42 -3.35273 3.26665 0
M  V30 13270 H 1255.59 -4.4614 4.69961 0
M  V30 13271 N 1248.99 -0.981699 -1.2329 0
M  V30 13272 C 1250.24 -0.651302 -1.9174 0
M  V30 13273 C 1250.57 0.815318 -1.76587 0
M  V30 13274 O 1249.82 1.60377 -1.1215 0
M  V30 13275 C 1250.12 -0.989244 -3.43437 0
M  V30 13276 C 1249.79 -2.44629 -3.78771 0
M  V30 13277 C 1248.45 -2.84449 -3.88127 0
M  V30 13278 C 1250.8 -3.39123 -3.95784 0
M  V30 13279 C 1248.13 -4.17775 -4.11923 0
M  V30 13280 C 1250.48 -4.72095 -4.21081 0
M  V30 13281 C 1249.15 -5.11672 -4.28659 0
M  V30 13282 H 1248.42 -0.238328 -0.701627 0
M  V30 13283 H 1251.06 -1.2358 -1.46288 0
M  V30 13284 H 1249.37 -0.322677 -3.90469 0
M  V30 13285 H 1251.07 -0.711796 -3.94632 0
M  V30 13286 H 1247.66 -2.12759 -3.72064 0
M  V30 13287 H 1251.84 -3.09536 -3.87945 0
M  V30 13288 H 1247.1 -4.48043 -4.16013 0
M  V30 13289 H 1251.27 -5.45271 -4.33189 0
M  V30 13290 H 1248.9 -6.15003 -4.46851 0
M  V30 13291 N 1250.47 1.3842 -0.753509 0
M  V30 13292 C 1251.38 2.34252 -0.127811 0
M  V30 13293 C 1252.4 1.59266 0.700743 0
M  V30 13294 O 1253.57 1.9146 0.624914 0
M  V30 13295 C 1250.64 3.38382 0.754886 0
M  V30 13296 C 1249.7 4.2921 -0.0880312 0
M  V30 13297 C 1248.93 5.28367 0.75263 0
M  V30 13298 O 1249.16 5.34537 1.99064 0
M  V30 13299 O 1248.09 6.01656 0.171475 0
M  V30 13300 H 1251.92 2.89454 -0.91925 0
M  V30 13301 H 1249.5 1.40265 -0.514404 0
M  V30 13302 H 1251.38 4.02141 1.25938 0
M  V30 13303 H 1250.06 2.85536 1.52482 0
M  V30 13304 H 1248.97 3.68611 -0.638468 0
M  V30 13305 H 1250.3 4.85311 -0.82062 0
M  V30 13306 N 1251.95 0.502579 1.49372 0
M  V30 13307 C 1252.88 -0.311743 2.2707 0
M  V30 13308 C 1253.9 -0.929204 1.33677 0
M  V30 13309 O 1255.08 -0.812277 1.58948 0
M  V30 13310 C 1252.18 -1.45404 3.06122 0
M  V30 13311 C 1251.36 -0.943591 4.27101 0
M  V30 13312 C 1250.42 -1.96368 4.88186 0
M  V30 13313 O 1249.44 -1.5316 5.48207 0
M  V30 13314 N 1250.64 -3.29419 4.77978 0
M  V30 13315 H 1253.41 0.354503 2.97596 0
M  V30 13316 H 1250.97 0.335222 1.58392 0
M  V30 13317 H 1252.96 -2.13404 3.43862 0
M  V30 13318 H 1251.53 -2.02441 2.38194 0
M  V30 13319 H 1250.75 -0.0884372 3.94101 0
M  V30 13320 H 1252.04 -0.580983 5.05472 0
M  V30 13321 H 1251.44 -3.67211 4.30317 0
M  V30 13322 H 1250 -3.93129 5.19897 0
M  V30 13323 N 1253.43 -1.55816 0.23648 0
M  V30 13324 C 1254.36 -2.23924 -0.661834 0
M  V30 13325 C 1255.34 -1.21597 -1.18946 0
M  V30 13326 O 1256.52 -1.50222 -1.23073 0
M  V30 13327 C 1253.65 -2.93069 -1.86355 0
M  V30 13328 C 1252.61 -4.01996 -1.46913 0
M  V30 13329 C 1251.93 -4.58512 -2.75083 0
M  V30 13330 C 1253.23 -5.18265 -0.647964 0
M  V30 13331 H 1254.93 -2.99253 -0.0939368 0
M  V30 13332 H 1252.47 -1.43934 -0.0437407 0
M  V30 13333 H 1254.43 -3.39412 -2.49755 0
M  V30 13334 H 1253.15 -2.15212 -2.45665 0
M  V30 13335 H 1251.81 -3.56406 -0.858522 0
M  V30 13336 H 1251.46 -3.77368 -3.3257 0
M  V30 13337 H 1251.16 -5.32037 -2.49421 0
M  V30 13338 H 1252.68 -5.07583 -3.39399 0
M  V30 13339 H 1254.1 -5.60898 -1.18602 0
M  V30 13340 H 1252.49 -5.98114 -0.487823 0
M  V30 13341 H 1253.56 -4.83691 0.342151 0
M  V30 13342 N 1254.91 0.036755 -1.57557 0
M  V30 13343 C 1255.82 1.05687 -2.09446 0
M  V30 13344 C 1256.83 1.40137 -1.03139 0
M  V30 13345 O 1258.01 1.49611 -1.34828 0
M  V30 13346 C 1255.07 2.34114 -2.55717 0
M  V30 13347 C 1254.13 2.06316 -3.76473 0
M  V30 13348 C 1253.37 3.2862 -4.20529 0
M  V30 13349 O 1253.59 4.3902 -3.64167 0
M  V30 13350 O 1252.52 3.14772 -5.13033 0
M  V30 13351 H 1256.35 0.64593 -2.96751 0
M  V30 13352 H 1253.94 0.253235 -1.47238 0
M  V30 13353 H 1255.82 3.09631 -2.85844 0
M  V30 13354 H 1254.49 2.74519 -1.71526 0
M  V30 13355 H 1253.4 1.28392 -3.51378 0
M  V30 13356 H 1254.73 1.70772 -4.61625 0
M  V30 13357 N 1256.39 1.54543 0.308881 0
M  V30 13358 C 1257.32 1.87947 1.38557 0
M  V30 13359 C 1258.3 0.737622 1.53275 0
M  V30 13360 O 1259.48 0.992664 1.66913 0
M  V30 13361 C 1256.61 2.11982 2.75102 0
M  V30 13362 C 1255.57 3.2783 2.75158 0
M  V30 13363 C 1254.89 3.37266 4.14917 0
M  V30 13364 C 1256.19 4.65129 2.37598 0
M  V30 13365 H 1257.89 2.78123 1.1085 0
M  V30 13366 H 1255.43 1.3382 0.531808 0
M  V30 13367 H 1257.38 2.33935 3.50503 0
M  V30 13368 H 1256.11 1.18569 3.04317 0
M  V30 13369 H 1254.77 3.05787 2.02212 0
M  V30 13370 H 1254.42 2.41384 4.41296 0
M  V30 13371 H 1254.12 4.15135 4.15857 0
M  V30 13372 H 1255.64 3.61471 4.92109 0
M  V30 13373 H 1257.05 4.86865 3.02714 0
M  V30 13374 H 1255.45 5.45653 2.49765 0
M  V30 13375 H 1256.52 4.6638 1.32731 0
M  V30 13376 N 1257.86 -0.571685 1.46866 0
M  V30 13377 C 1259.28 -0.896172 1.32064 0
M  V30 13378 C 1259.48 -1.9925 0.300291 0
M  V30 13379 O 1258.54 -2.50791 -0.293284 0
M  V30 13380 C 1259.85 -1.3031 2.70998 0
M  V30 13381 C 1261.4 -1.41533 2.79173 0
M  V30 13382 C 1261.87 -1.85587 4.18714 0
M  V30 13383 N 1263.36 -1.92762 4.21185 0
M  V30 13384 C 1264.1 -2.28148 5.26057 0
M  V30 13385 N 1263.59 -2.62248 6.41247 0
M  V30 13386 N 1265.39 -2.28797 5.13428 0
M  V30 13387 H 1257.54 0.152349 2.11853 0
M  V30 13388 H 1259.8 0.00548777 0.947984 0
M  V30 13389 H 1259.51 -0.571469 3.47026 0
M  V30 13390 H 1259.38 -2.26233 3.01826 0
M  V30 13391 H 1261.77 -2.1378 2.03426 0
M  V30 13392 H 1261.85 -0.438342 2.52016 0
M  V30 13393 H 1261.49 -1.13915 4.9496 0
M  V30 13394 H 1261.42 -2.84264 4.43285 0
M  V30 13395 H 1263.91 -1.68854 3.38078 0
M  V30 13396 H 1264.23 -2.88234 7.17036 0
M  V30 13397 H 1262.57 -2.59861 6.44591 0
M  V30 13398 H 1265.76 -2.01587 4.22469 0
M  V30 13399 H 1265.94 -2.56045 5.95269 0
M  V30 13400 N 1259.34 -1.34755 -0.817236 0
M  V30 13401 C 1260.75 -1.24594 -1.39044 0
M  V30 13402 C 1261.1 0.126184 -1.95794 0
M  V30 13403 O 1260.23 1.02675 -1.90491 0
M  V30 13404 C 1260.82 -2.25592 -2.52772 0
M  V30 13405 C 1259.38 -2.19204 -3.05984 0
M  V30 13406 C 1258.53 -2.11884 -1.78886 0
M  V30 13407 H 1261.48 -1.46039 -0.621155 0
M  V30 13408 H 1261.5 -1.87622 -3.31026 0
M  V30 13409 H 1261.01 -3.25447 -2.11438 0
M  V30 13410 H 1259.11 -1.22725 -3.51809 0
M  V30 13411 H 1259.23 -3.10707 -3.64689 0
M  V30 13412 H 1257.59 -1.57694 -2.00012 0
M  V30 13413 H 1258.37 -3.13582 -1.39719 0
M  V30 13414 N 1260.82 1.03812 -1.18578 0
M  V30 13415 C 1262.07 1.77319 -0.984173 0
M  V30 13416 C 1262.4 1.88052 0.484789 0
M  V30 13417 O 1261.67 1.3905 1.35998 0
M  V30 13418 C 1261.96 3.20448 -1.6427 0
M  V30 13419 C 1261.81 3.17643 -3.1847 0
M  V30 13420 C 1263.13 4.18623 -1.35805 0
M  V30 13421 H 1260.25 0.643681 -0.358949 0
M  V30 13422 H 1262.89 1.21249 -1.46283 0
M  V30 13423 H 1261.04 3.68324 -1.23572 0
M  V30 13424 H 1262.71 2.77738 -3.6832 0
M  V30 13425 H 1260.95 2.55606 -3.50497 0
M  V30 13426 H 1261.63 4.18724 -3.59686 0
M  V30 13427 H 1264.1 3.79306 -1.71073 0
M  V30 13428 H 1262.98 5.16982 -1.84446 0
M  V30 13429 H 1263.24 4.41203 -0.281418 0
M  V30 13430 N 1262.3 0.988223 1.22768 0
M  V30 13431 C 1263.23 0.554478 2.26821 0
M  V30 13432 C 1264.21 -0.416293 1.64927 0
M  V30 13433 O 1265.39 -0.30795 1.91743 0
M  V30 13434 C 1262.52 -0.136266 3.47033 0
M  V30 13435 C 1261.48 0.752575 4.21332 0
M  V30 13436 C 1260.8 -0.0708236 5.34653 0
M  V30 13437 C 1262.1 2.04717 4.80508 0
M  V30 13438 H 1263.8 1.42423 2.63355 0
M  V30 13439 H 1261.34 0.686267 1.26595 0
M  V30 13440 H 1263.3 -0.451068 4.18979 0
M  V30 13441 H 1262.02 -1.04053 3.09581 0
M  V30 13442 H 1260.68 1.05095 3.51213 0
M  V30 13443 H 1260.33 -0.975859 4.93443 0
M  V30 13444 H 1260.03 0.520835 5.85287 0
M  V30 13445 H 1261.55 -0.379828 6.09417 0
M  V30 13446 H 1262.97 1.79663 5.44421 0
M  V30 13447 H 1261.36 2.58726 5.41462 0
M  V30 13448 H 1262.43 2.72896 4.00819 0
M  V30 13449 N 1263.78 -1.38018 0.760839 0
M  V30 13450 C 1265.01 -2.03934 0.330804 0
M  V30 13451 C 1265.41 -1.57509 -1.04821 0
M  V30 13452 O 1264.76 -0.746718 -1.67839 0
M  V30 13453 C 1264.82 -3.58384 0.28303 0
M  V30 13454 C 1264.48 -4.27896 1.6048 0
M  V30 13455 C 1265.48 -4.52769 2.5553 0
M  V30 13456 C 1263.16 -4.65943 1.87624 0
M  V30 13457 C 1265.16 -5.14732 3.75938 0
M  V30 13458 C 1262.85 -5.27629 3.08304 0
M  V30 13459 C 1263.84 -5.51959 4.02281 0
M  V30 13460 O 1263.53 -6.12358 5.20838 0
M  V30 13461 H 1263.26 -0.661733 0.138148 0
M  V30 13462 H 1265.82 -1.77551 1.03271 0
M  V30 13463 H 1264.05 -3.83769 -0.47517 0
M  V30 13464 H 1265.74 -4.05727 -0.118464 0
M  V30 13465 H 1266.5 -4.23798 2.35839 0
M  V30 13466 H 1262.38 -4.46346 1.15308 0
M  V30 13467 H 1265.93 -5.33639 4.49305 0
M  V30 13468 H 1261.82 -5.56023 3.27886 0
M  V30 13469 H 1262.59 -6.30842 5.21517 0
M  V30 13470 N 1265.25 -0.510493 -1.49103 0
M  V30 13471 C 1266.2 0.276449 -2.30951 0
M  V30 13472 C 1267.2 0.953893 -1.3999 0
M  V30 13473 O 1268.4 0.880499 -1.56994 0
M  V30 13474 H 1264.78 0.108013 -0.744202 0
M  V30 13475 H 1266.75 -0.433725 -2.95231 0
M  V30 13476 C 1265.5 1.32234 -3.21573 0
M  V30 13477 H 1264.82 0.810468 -3.91499 0
M  V30 13478 H 1266.26 1.84476 -3.81765 0
M  V30 13479 C 1264.72 2.3456 -2.41833 0
M  V30 13480 O 1265.25 3.40627 -2.12922 0
M  V30 13481 N 1263.45 2.07272 -2.03682 0
M  V30 13482 H 1263 1.21036 -2.27394 0
M  V30 13483 H 1262.96 2.75963 -1.50638 0
M  V30 13484 N 1266.73 1.55688 -0.24474 0
M  V30 13485 C 1267.96 2.02995 0.38425 0
M  V30 13486 C 1268.37 1.12339 1.52239 0
M  V30 13487 O 1267.71 0.129803 1.83241 0
M  V30 13488 C 1267.77 3.46564 0.955701 0
M  V30 13489 C 1267.44 4.56973 -0.0499176 0
M  V30 13490 C 1268.44 5.1276 -0.858682 0
M  V30 13491 C 1266.12 5.01994 -0.175383 0
M  V30 13492 C 1268.11 6.12059 -1.77939 0
M  V30 13493 C 1265.8 6.01126 -1.0996 0
M  V30 13494 C 1266.8 6.56037 -1.90013 0
M  V30 13495 O 1266.49 7.53235 -2.80877 0
M  V30 13496 H 1266.22 0.669189 0.0957212 0
M  V30 13497 H 1268.77 2.02121 -0.36555 0
M  V30 13498 H 1267 3.44581 1.75502 0
M  V30 13499 H 1268.69 3.77383 1.49454 0
M  V30 13500 H 1269.46 4.78811 -0.772325 0
M  V30 13501 H 1265.34 4.58918 0.437644 0
M  V30 13502 H 1268.88 6.54845 -2.40465 0
M  V30 13503 H 1264.78 6.34494 -1.18689 0
M  V30 13504 H 1265.55 7.70844 -2.75214 0
M  V30 13505 N 1268.21 -0.0283989 1.57574 0
M  V30 13506 C 1269.14 -1.02828 2.09639 0
M  V30 13507 C 1270.12 -1.37668 0.999076 0
M  V30 13508 O 1271.31 -1.4654 1.27435 0
M  V30 13509 C 1268.44 -2.329 2.57633 0
M  V30 13510 C 1267.39 -2.12301 3.71635 0
M  V30 13511 C 1266.72 -3.48138 4.05837 0
M  V30 13512 C 1268.02 -1.50864 5.00037 0
M  V30 13513 H 1269.71 -0.594876 2.93431 0
M  V30 13514 H 1267.26 -0.284701 1.41158 0
M  V30 13515 H 1269.21 -3.03179 2.92678 0
M  V30 13516 H 1267.93 -2.78302 1.70926 0
M  V30 13517 H 1266.59 -1.44454 3.3694 0
M  V30 13518 H 1266.24 -3.9119 3.16195 0
M  V30 13519 H 1265.94 -3.3518 4.82626 0
M  V30 13520 H 1267.46 -4.19779 4.43417 0
M  V30 13521 H 1268.88 -2.11062 5.33035 0
M  V30 13522 H 1267.27 -1.48479 5.81441 0
M  V30 13523 H 1268.34 -0.474541 4.82572 0
M  V30 13524 N 1269.69 -1.54705 -0.300681 0
M  V30 13525 C 1270.96 -1.6468 -1.05546 0
M  V30 13526 C 1271.34 -0.495292 -2.05207 0
M  V30 13527 O 1270.69 0.507944 -2.22783 0
M  V30 13528 C 1270.9 -3.02702 -1.73703 0
M  V30 13529 C 1272.25 -3.59527 -2.25888 0
M  V30 13530 O 1273.27 -3.05156 -1.83735 0
M  V30 13531 O 1272.13 -4.54727 -3.03126 0
M  V30 13532 H 1269.23 -0.667769 -0.487867 0
M  V30 13533 H 1271.77 -1.6705 -0.298743 0
M  V30 13534 H 1270.55 -3.7795 -1.01338 0
M  V30 13535 H 1270.17 -3.0411 -2.5613 0
M  V30 13536 N 1271.17 0.563888 -1.47167 0
M  V30 13537 C 1272.11 1.67151 -1.59152 0
M  V30 13538 C 1273.08 1.60307 -0.434852 0
M  V30 13539 O 1274.27 1.7924 -0.654049 0
M  V30 13540 C 1271.41 3.0548 -1.60549 0
M  V30 13541 C 1270.52 3.2281 -2.87085 0
M  V30 13542 C 1269.66 4.51498 -2.79862 0
M  V30 13543 C 1268.7 4.62237 -4.01252 0
M  V30 13544 N 1267.83 5.82273 -3.92305 0
M  V30 13545 H 1272.67 1.56245 -2.53755 0
M  V30 13546 H 1270.21 0.761219 -1.25872 0
M  V30 13547 H 1272.17 3.85572 -1.59343 0
M  V30 13548 H 1270.8 3.15237 -0.69464 0
M  V30 13549 H 1269.85 2.36196 -2.98188 0
M  V30 13550 H 1271.16 3.2661 -3.76997 0
M  V30 13551 H 1270.32 5.39842 -2.76867 0
M  V30 13552 H 1269.05 4.50166 -1.87621 0
M  V30 13553 H 1268.06 3.72307 -4.04558 0
M  V30 13554 H 1269.28 4.65334 -4.94612 0
M  V30 13555 H 1267.23 5.81902 -3.02862 0
M  V30 13556 H 1267.15 5.87422 -4.7589 0
M  V30 13557 H 1268.42 6.72996 -3.93315 0
M  V30 13558 N 1272.64 1.35187 0.810078 0
M  V30 13559 C 1273.59 1.27848 1.94313 0
M  V30 13560 C 1274.59 0.174081 1.68503 0
M  V30 13561 O 1275.79 0.339848 1.76763 0
M  V30 13562 H 1272.17 0.397504 0.638353 0
M  V30 13563 H 1274.14 2.23579 1.97623 0
M  V30 13564 C 1272.89 1.06382 3.31026 0
M  V30 13565 H 1272.21 1.90601 3.51441 0
M  V30 13566 H 1273.65 1.05287 4.1072 0
M  V30 13567 C 1272.11 -0.232462 3.36097 0
M  V30 13568 O 1272.64 -1.22946 3.82423 0
M  V30 13569 N 1270.85 -0.270028 2.89343 0
M  V30 13570 H 1270.39 0.541891 2.51836 0
M  V30 13571 H 1270.35 -1.13708 2.93117 0
M  V30 13572 N 1274.12 -1.03182 1.19127 0
M  V30 13573 C 1275.05 -2.13301 0.94999 0
M  V30 13574 C 1276.03 -1.69707 -0.115577 0
M  V30 13575 O 1277.22 -1.94161 0.0388395 0
M  V30 13576 C 1274.35 -3.43902 0.484637 0
M  V30 13577 C 1273.3 -4.01164 1.4917 0
M  V30 13578 C 1272.63 -5.2735 0.883537 0
M  V30 13579 C 1273.93 -4.36311 2.87107 0
M  V30 13580 H 1275.62 -2.33743 1.87095 0
M  V30 13581 H 1273.17 -1.12332 0.900977 0
M  V30 13582 H 1275.12 -4.20308 0.30315 0
M  V30 13583 H 1273.85 -3.23173 -0.471909 0
M  V30 13584 H 1272.5 -3.26849 1.66028 0
M  V30 13585 H 1272.15 -5.02936 -0.0804712 0
M  V30 13586 H 1271.85 -5.66624 1.55599 0
M  V30 13587 H 1273.38 -6.06425 0.71278 0
M  V30 13588 H 1274.79 -5.03666 2.73848 0
M  V30 13589 H 1273.19 -4.86659 3.51117 0
M  V30 13590 H 1274.26 -3.45743 3.39985 0
M  V30 13591 N 1275.6 -0.99472 -1.22242 0
M  V30 13592 C 1276.83 -0.690097 -1.95052 0
M  V30 13593 C 1277.24 0.745543 -1.73456 0
M  V30 13594 O 1276.6 1.50329 -1.03477 0
M  V30 13595 C 1276.65 -0.988798 -3.47714 0
M  V30 13596 O 1276.37 -2.36803 -3.68587 0
M  V30 13597 C 1277.87 -0.702132 -4.37704 0
M  V30 13598 H 1275.09 -0.255142 -0.620599 0
M  V30 13599 H 1277.64 -1.32998 -1.55344 0
M  V30 13600 H 1275.79 -0.394684 -3.85384 0
M  V30 13601 H 1276.21 -2.4687 -4.62769 0
M  V30 13602 H 1277.68 -0.961389 -5.43564 0
M  V30 13603 H 1278.16 0.363866 -4.3769 0
M  V30 13604 H 1278.76 -1.27738 -4.05664 0
M  V30 13605 N 1277.08 1.37613 -0.768148 0
M  V30 13606 C 1278.32 2.00075 -0.331331 0
M  V30 13607 C 1278.66 1.60839 1.08833 0
M  V30 13608 O 1277.93 0.852849 1.74805 0
M  V30 13609 C 1278.22 3.57009 -0.470789 0
M  V30 13610 C 1278.07 4.06166 -1.9326 0
M  V30 13611 C 1279.39 4.39916 0.127111 0
M  V30 13612 H 1276.51 0.726855 -0.121864 0
M  V30 13613 H 1279.15 1.63343 -0.970518 0
M  V30 13614 H 1277.3 3.88431 0.0733688 0
M  V30 13615 H 1278.97 3.85325 -2.53618 0
M  V30 13616 H 1277.21 3.58492 -2.44266 0
M  V30 13617 H 1277.88 5.15219 -1.98125 0
M  V30 13618 H 1280.36 4.14732 -0.337144 0
M  V30 13619 H 1279.24 5.489 -0.000624226 0
M  V30 13620 H 1279.5 4.25018 1.21704 0
M  V30 13621 N 1278.56 0.518393 1.4883 0
M  V30 13622 C 1279.78 -0.0183131 2.07392 0
M  V30 13623 C 1280.21 -1.28468 1.37396 0
M  V30 13624 O 1279.56 -1.75975 0.436177 0
M  V30 13625 C 1279.61 -0.237211 3.59819 0
M  V30 13626 O 1278.72 -1.30835 3.91096 0
M  V30 13627 H 1278.06 0.0339621 0.663131 0
M  V30 13628 H 1280.59 0.722993 1.914 0
M  V30 13629 H 1280.6 -0.463424 4.0536 0
M  V30 13630 H 1279.27 0.687925 4.10171 0
M  V30 13631 H 1277.85 -1.06571 3.57347 0
M  V30 13632 N 1280.03 -1.55556 0.252993 0
M  V30 13633 C 1281.28 -1.99385 -0.370599 0
M  V30 13634 C 1281.61 -1.14101 -1.57145 0
M  V30 13635 O 1280.89 -0.205828 -1.93408 0
M  V30 13636 C 1281.17 -3.51672 -0.774503 0
M  V30 13637 C 1281.02 -4.47719 0.432159 0
M  V30 13638 C 1282.34 -4.0923 -1.61923 0
M  V30 13639 H 1279.46 -0.724858 -0.133231 0
M  V30 13640 H 1282.1 -1.86644 0.355522 0
M  V30 13641 H 1280.25 -3.62661 -1.39318 0
M  V30 13642 H 1281.93 -4.48704 1.07063 0
M  V30 13643 H 1280.17 -4.2029 1.07419 0
M  V30 13644 H 1280.84 -5.51898 0.106123 0
M  V30 13645 H 1283.32 -4.01381 -1.09693 0
M  V30 13646 H 1282.19 -5.16039 -1.87068 0
M  V30 13647 H 1282.45 -3.58067 -2.59307 0
M  V30 13648 N 1281.51 0.0200419 -1.57587 0
M  V30 13649 C 1282.46 1.0259 -2.03615 0
M  V30 13650 C 1283.45 1.31504 -0.927116 0
M  V30 13651 O 1284.64 1.30938 -1.19098 0
M  V30 13652 C 1281.77 2.32424 -2.52654 0
M  V30 13653 C 1280.85 2.06561 -3.70396 0
M  V30 13654 N 1281.24 1.50787 -4.82801 0
M  V30 13655 C 1279.54 2.36802 -3.77943 0
M  V30 13656 C 1280.24 1.40935 -5.64369 0
M  V30 13657 N 1279.22 1.88806 -5.09758 0
M  V30 13658 H 1283.02 0.588835 -2.87941 0
M  V30 13659 H 1280.54 0.226163 -1.60817 0
M  V30 13660 H 1282.53 3.05303 -2.83894 0
M  V30 13661 H 1281.19 2.76801 -1.69738 0
M  V30 13662 H 1282.2 1.18935 -5.04058 0
M  V30 13663 H 1278.88 2.84192 -3.05845 0
M  V30 13664 H 1280.27 0.982261 -6.64681 0
M  V30 13665 N 1282.99 1.54862 0.292472 0
M  V30 13666 C 1284.24 1.74807 1.02813 0
M  V30 13667 C 1284.57 0.536935 1.8663 0
M  V30 13668 O 1283.84 -0.465854 1.88839 0
M  V30 13669 C 1284.13 3.04202 1.927 0
M  V30 13670 C 1283.98 4.35631 1.12006 0
M  V30 13671 C 1285.3 3.29514 2.91734 0
M  V30 13672 H 1282.42 0.636015 0.372362 0
M  V30 13673 H 1285.06 1.87583 0.302069 0
M  V30 13674 H 1283.21 2.9344 2.54608 0
M  V30 13675 H 1284.88 4.58323 0.52319 0
M  V30 13676 H 1283.13 4.31733 0.42298 0
M  V30 13677 H 1283.8 5.22454 1.78172 0
M  V30 13678 H 1286.27 3.39941 2.39957 0
M  V30 13679 H 1285.15 4.21352 3.51786 0
M  V30 13680 H 1285.41 2.48216 3.65843 0
M  V30 13681 N 1284.47 -0.556076 1.47464 0
M  V30 13682 C 1285.69 -1.3434 1.58011 0
M  V30 13683 C 1286.12 -1.86674 0.231138 0
M  V30 13684 O 1285.48 -1.63029 -0.793174 0
M  V30 13685 C 1285.52 -2.48844 2.60977 0
M  V30 13686 O 1284.63 -3.51108 2.16326 0
M  V30 13687 H 1283.97 -0.398986 0.53076 0
M  V30 13688 H 1286.5 -0.671898 1.93253 0
M  V30 13689 H 1286.51 -2.95398 2.81432 0
M  V30 13690 H 1285.18 -2.10109 3.58925 0
M  V30 13691 H 1283.76 -3.10852 2.05975 0
M  V30 13692 N 1285.95 -1.35615 -0.802897 0
M  V30 13693 C 1287.36 -1.26062 -1.37715 0
M  V30 13694 C 1287.71 0.105411 -1.95917 0
M  V30 13695 O 1286.83 1.00648 -1.91569 0
M  V30 13696 C 1287.43 -2.28261 -2.50365 0
M  V30 13697 C 1285.99 -2.22437 -3.03642 0
M  V30 13698 C 1285.14 -2.1377 -1.76629 0
M  V30 13699 H 1288.09 -1.46689 -0.605631 0
M  V30 13700 H 1288.11 -1.91122 -3.29017 0
M  V30 13701 H 1287.62 -3.27671 -2.07975 0
M  V30 13702 H 1285.72 -1.2645 -3.50487 0
M  V30 13703 H 1285.83 -3.14558 -3.61373 0
M  V30 13704 H 1284.2 -1.59806 -1.98328 0
M  V30 13705 H 1284.98 -3.15046 -1.36385 0
M  V30 13706 N 1287.43 1.02549 -1.19673 0
M  V30 13707 C 1288.67 1.76265 -1.00293 0
M  V30 13708 C 1289 1.88555 0.464816 0
M  V30 13709 O 1288.28 1.40484 1.34515 0
M  V30 13710 C 1288.56 3.18688 -1.6766 0
M  V30 13711 C 1288.42 3.14247 -3.21821 0
M  V30 13712 C 1289.73 4.17159 -1.40238 0
M  V30 13713 H 1286.85 0.639837 -0.365756 0
M  V30 13714 H 1289.5 1.19691 -1.4756 0
M  V30 13715 H 1287.65 3.66992 -1.27472 0
M  V30 13716 H 1289.32 2.73815 -3.71245 0
M  V30 13717 H 1287.56 2.51874 -3.53188 0
M  V30 13718 H 1288.23 4.14886 -3.64107 0
M  V30 13719 H 1290.71 3.77471 -1.75086 0
M  V30 13720 H 1289.58 5.14997 -1.89919 0
M  V30 13721 H 1289.84 4.4088 -0.328197 0
M  V30 13722 N 1288.9 1.00119 1.21713 0
M  V30 13723 C 1289.81 0.567582 2.27631 0
M  V30 13724 C 1290.83 -0.387593 1.69628 0
M  V30 13725 O 1292.01 -0.252372 1.99813 0
M  V30 13726 C 1289.07 -0.102745 3.46548 0
M  V30 13727 C 1288.13 0.896433 4.19836 0
M  V30 13728 C 1287.36 0.258 5.33076 0
M  V30 13729 O 1287.59 -0.946118 5.62499 0
M  V30 13730 O 1286.52 0.967021 5.94081 0
M  V30 13731 H 1290.35 1.44898 2.66905 0
M  V30 13732 H 1287.93 0.769862 1.28037 0
M  V30 13733 H 1289.81 -0.477846 4.18682 0
M  V30 13734 H 1288.49 -0.958576 3.09181 0
M  V30 13735 H 1287.4 1.32262 3.49939 0
M  V30 13736 H 1288.73 1.72173 4.61104 0
M  V30 13737 N 1290.38 -1.37203 0.775435 0
M  V30 13738 C 1291.63 -1.99207 0.340756 0
M  V30 13739 C 1291.95 -1.61861 -1.08747 0
M  V30 13740 O 1291.22 -0.88583 -1.74728 0
M  V30 13741 H 1289.8 -0.736803 0.123004 0
M  V30 13742 H 1292.46 -1.67625 0.994379 0
M  V30 13743 H 1291.56 -3.09243 0.421346 0
M  V30 13744 N 1291.86 -0.526279 -1.48553 0
M  V30 13745 C 1292.79 0.227364 -2.3239 0
M  V30 13746 C 1293.77 0.93862 -1.41859 0
M  V30 13747 O 1294.96 0.925119 -1.70749 0
M  V30 13748 C 1292.09 1.277 -3.22971 0
M  V30 13749 C 1291.04 0.684107 -4.22497 0
M  V30 13750 C 1290.37 1.83612 -5.02186 0
M  V30 13751 C 1291.67 -0.341723 -5.21181 0
M  V30 13752 H 1293.36 -0.472486 -2.95648 0
M  V30 13753 H 1290.91 -0.228669 -1.42173 0
M  V30 13754 H 1292.86 1.81215 -3.80446 0
M  V30 13755 H 1291.58 2.00638 -2.57705 0
M  V30 13756 H 1290.24 0.170505 -3.66203 0
M  V30 13757 H 1289.89 2.55379 -4.33348 0
M  V30 13758 H 1289.59 1.44536 -5.69547 0
M  V30 13759 H 1291.11 2.37513 -5.62512 0
M  V30 13760 H 1292.53 0.106207 -5.73202 0
M  V30 13761 H 1290.92 -0.649673 -5.96573 0
M  V30 13762 H 1291.99 -1.2488 -4.68543 0
M  V30 13763 N 1293.34 1.5542 -0.261239 0
M  V30 13764 C 1294.58 2.0119 0.360848 0
M  V30 13765 C 1294.94 1.14558 1.5408 0
M  V30 13766 O 1296.14 1.49846 2.23158 0
M  V30 13767 C 1294.41 3.49513 0.74668 0
M  V30 13768 S 1295.97 4.17281 1.35726 0
M  V30 13769 H 1292.79 0.701978 0.112903 0
M  V30 13770 H 1295.39 1.91775 -0.379829 0
M  V30 13771 H 1294.1 4.10221 -0.121172 0
M  V30 13772 H 1293.63 3.62884 1.51917 0
M  V30 13773 H 1295.64 4.19756 2.64612 0
M  V30 13774 N 1294.82 -0.0116844 1.57596 0
M  V30 13775 C 1295.75 -1.00599 2.10718 0
M  V30 13776 C 1296.73 -1.36601 1.01362 0
M  V30 13777 O 1297.91 -1.4518 1.28982 0
M  V30 13778 C 1295.04 -2.30155 2.60089 0
M  V30 13779 C 1294 -2.08347 3.73866 0
M  V30 13780 C 1293.32 -3.43814 4.09507 0
M  V30 13781 C 1294.62 -1.45552 5.01609 0
M  V30 13782 H 1296.32 -0.563721 2.94045 0
M  V30 13783 H 1293.86 -0.269714 1.41452 0
M  V30 13784 H 1295.81 -3.00058 2.95877 0
M  V30 13785 H 1294.54 -2.76473 1.73868 0
M  V30 13786 H 1293.2 -1.40872 3.38453 0
M  V30 13787 H 1292.85 -3.87814 3.20326 0
M  V30 13788 H 1292.55 -3.30043 4.86154 0
M  V30 13789 H 1294.07 -4.15052 4.47844 0
M  V30 13790 H 1295.48 -2.05396 5.35243 0
M  V30 13791 H 1293.88 -1.42304 5.82983 0
M  V30 13792 H 1294.95 -0.423331 4.83049 0
M  V30 13793 N 1296.29 -1.55015 -0.284256 0
M  V30 13794 C 1297.26 -1.8636 -1.33426 0
M  V30 13795 C 1298.26 -0.737457 -1.42892 0
M  V30 13796 O 1299.45 -1.00569 -1.42238 0
M  V30 13797 C 1296.58 -2.05884 -2.71707 0
M  V30 13798 H 1297.77 -2.80212 -1.06869 0
M  V30 13799 H 1295.32 -1.47334 -0.521767 0
M  V30 13800 H 1296.06 -1.14376 -3.03461 0
M  V30 13801 H 1295.84 -2.87867 -2.66224 0
M  V30 13802 H 1297.33 -2.31447 -3.47595 0
M  V30 13803 N 1297.77 0.548248 -1.47757 0
M  V30 13804 C 1299.02 1.30243 -1.54535 0
M  V30 13805 C 1299.34 1.93832 -0.213089 0
M  V30 13806 O 1298.61 1.80397 0.763782 0
M  V30 13807 H 1297.19 0.483684 -0.569262 0
M  V30 13808 H 1299.85 0.639485 -1.8411 0
M  V30 13809 H 1298.95 2.09128 -2.31672 0
M  V30 13810 N 1299.25 1.36039 0.795694 0
M  V30 13811 C 1300.5 1.29663 1.55023 0
M  V30 13812 C 1300.82 -0.125588 1.94595 0
M  V30 13813 O 1300.09 -1.06447 1.64456 0
M  V30 13814 H 1298.67 0.476962 0.574906 0
M  V30 13815 H 1301.33 1.70265 0.948471 0
M  V30 13816 H 1300.43 1.91982 2.46068 0
M  V30 13817 N 1300.73 -1.01913 1.20215 0
M  V30 13818 C 1301.98 -1.75124 1.00876 0
M  V30 13819 C 1302.3 -1.89485 -0.460475 0
M  V30 13820 O 1301.57 -1.43552 -1.33302 0
M  V30 13821 H 1300.15 -0.648777 0.370266 0
M  V30 13822 H 1302.81 -1.22883 1.5128 0
M  V30 13823 H 1301.91 -2.7558 1.46499 0
M  V30 13824 N 1302.21 -1.00763 -1.2118 0
M  V30 13825 C 1303.45 -0.690459 -1.8994 0
M  V30 13826 C 1303.78 0.781464 -1.78656 0
M  V30 13827 O 1303.05 1.56135 -1.18316 0
M  V30 13828 H 1301.63 -0.252397 -0.703068 0
M  V30 13829 H 1304.29 -1.2773 -1.47211 0
M  V30 13830 H 1303.38 -0.96594 -2.96776 0
M  V30 13831 N 1303.68 1.3679 -0.7827 0
M  V30 13832 C 1304.61 2.32721 -0.190604 0
M  V30 13833 C 1305.6 1.56321 0.670663 0
M  V30 13834 O 1306.78 1.84507 0.605871 0
M  V30 13835 C 1303.91 3.40564 0.680717 0
M  V30 13836 C 1302.86 4.27925 -0.080118 0
M  V30 13837 C 1302.19 5.26876 0.911361 0
M  V30 13838 C 1303.49 5.06738 -1.26545 0
M  V30 13839 H 1305.18 2.82488 -0.992023 0
M  V30 13840 H 1302.73 1.35818 -0.478484 0
M  V30 13841 H 1304.68 4.06659 1.10482 0
M  V30 13842 H 1303.41 2.89348 1.51477 0
M  V30 13843 H 1302.07 3.63376 -0.485125 0
M  V30 13844 H 1301.71 4.71936 1.74026 0
M  V30 13845 H 1301.41 5.8619 0.406762 0
M  V30 13846 H 1302.94 5.95846 1.33418 0
M  V30 13847 H 1304.35 5.65911 -0.917448 0
M  V30 13848 H 1302.75 5.75432 -1.70289 0
M  V30 13849 H 1303.82 4.38772 -2.06415 0
M  V30 13850 N 1305.16 0.53415 1.48272 0
M  V30 13851 C 1306.13 -0.215641 2.28183 0
M  V30 13852 C 1307.13 -0.863966 1.35618 0
M  V30 13853 O 1308.32 -0.723375 1.58471 0
M  V30 13854 C 1305.45 -1.31251 3.1462 0
M  V30 13855 H 1306.64 0.486014 2.95936 0
M  V30 13856 H 1304.19 0.290237 1.53582 0
M  V30 13857 H 1304.93 -2.04729 2.51508 0
M  V30 13858 H 1304.71 -0.852706 3.82716 0
M  V30 13859 H 1306.2 -1.83978 3.74889 0
M  V30 13860 N 1306.64 -1.55279 0.269478 0
M  V30 13861 C 1307.57 -2.19684 -0.653573 0
M  V30 13862 C 1308.59 -1.17985 -1.12176 0
M  V30 13863 O 1309.77 -1.44739 -1.04464 0
M  V30 13864 C 1306.87 -2.80438 -1.90284 0
M  V30 13865 C 1306.05 -4.07774 -1.58239 0
M  V30 13866 C 1305.11 -4.52629 -2.68354 0
M  V30 13867 O 1304.13 -5.18524 -2.3478 0
M  V30 13868 N 1305.33 -4.22297 -3.98303 0
M  V30 13869 H 1308.1 -2.99525 -0.102379 0
M  V30 13870 H 1305.66 -1.61648 0.0903465 0
M  V30 13871 H 1307.65 -3.07392 -2.63234 0
M  V30 13872 H 1306.22 -2.04622 -2.36323 0
M  V30 13873 H 1305.44 -3.88168 -0.686983 0
M  V30 13874 H 1306.73 -4.90749 -1.34323 0
M  V30 13875 H 1306.13 -3.69441 -4.28404 0
M  V30 13876 H 1304.69 -4.54035 -4.67649 0
M  V30 13877 N 1308.12 0.00332656 -1.576 0
M  V30 13878 C 1309.05 1.02391 -2.05058 0
M  V30 13879 C 1310.06 1.30903 -0.967901 0
M  V30 13880 O 1311.25 1.27937 -1.24476 0
M  V30 13881 C 1308.35 2.35947 -2.43274 0
M  V30 13882 C 1307.53 2.26423 -3.74234 0
M  V30 13883 C 1306.58 3.4264 -3.99355 0
M  V30 13884 O 1305.61 3.20977 -4.70067 0
M  V30 13885 N 1306.81 4.65379 -3.46991 0
M  V30 13886 H 1309.58 0.619216 -2.93233 0
M  V30 13887 H 1307.14 0.190777 -1.60772 0
M  V30 13888 H 1309.13 3.12462 -2.57196 0
M  V30 13889 H 1307.7 2.6817 -1.60635 0
M  V30 13890 H 1306.92 1.34841 -3.70421 0
M  V30 13891 H 1308.21 2.17229 -4.60097 0
M  V30 13892 H 1307.61 4.85878 -2.89723 0
M  V30 13893 H 1306.16 5.39171 -3.66249 0
M  V30 13894 N 1309.6 1.55164 0.276031 0
M  V30 13895 C 1310.84 1.75887 1.00953 0
M  V30 13896 C 1311.18 0.5567 1.8605 0
M  V30 13897 O 1310.45 -0.445799 1.89322 0
M  V30 13898 C 1310.73 3.06228 1.89463 0
M  V30 13899 C 1310.59 4.36795 1.07379 0
M  V30 13900 C 1311.91 3.32589 2.88223 0
M  V30 13901 H 1309.02 0.639929 0.365596 0
M  V30 13902 H 1311.67 1.87893 0.282156 0
M  V30 13903 H 1309.82 2.96124 2.51481 0
M  V30 13904 H 1311.49 4.58853 0.474549 0
M  V30 13905 H 1309.73 4.32157 0.377165 0
M  V30 13906 H 1310.4 5.24315 1.72621 0
M  V30 13907 H 1312.88 3.42467 2.36338 0
M  V30 13908 H 1311.75 4.2506 3.47297 0
M  V30 13909 H 1312.02 2.52083 3.6319 0
M  V30 13910 N 1311.07 -0.540404 1.48045 0
M  V30 13911 C 1312 -1.65538 1.6468 0
M  V30 13912 C 1312.99 -1.62713 0.495847 0
M  V30 13913 O 1314.17 -1.80072 0.727172 0
M  V30 13914 C 1311.3 -3.0415 1.67661 0
M  V30 13915 C 1310.25 -3.2183 2.82152 0
M  V30 13916 C 1309.58 -4.61397 2.70216 0
M  V30 13917 C 1310.88 -3.05596 4.23567 0
M  V30 13918 H 1312.57 -1.51873 2.58021 0
M  V30 13919 H 1310.12 -0.729208 1.24171 0
M  V30 13920 H 1312.07 -3.82013 1.77887 0
M  V30 13921 H 1310.8 -3.18814 0.708907 0
M  V30 13922 H 1309.46 -2.4638 2.71463 0
M  V30 13923 H 1309.1 -4.72883 1.71437 0
M  V30 13924 H 1308.8 -4.74174 3.47035 0
M  V30 13925 H 1310.33 -5.41374 2.82395 0
M  V30 13926 H 1311.74 -3.73261 4.35143 0
M  V30 13927 H 1310.14 -3.29871 5.01303 0
M  V30 13928 H 1311.21 -2.0214 4.40758 0
M  V30 13929 N 1312.55 -1.36459 -0.788468 0
M  V30 13930 C 1313.8 -1.30935 -1.54867 0
M  V30 13931 C 1314.13 0.110916 -1.93883 0
M  V30 13932 O 1313.41 1.06452 -1.62783 0
M  V30 13933 C 1313.69 -2.23294 -2.8251 0
M  V30 13934 C 1313.54 -3.74022 -2.49856 0
M  V30 13935 C 1314.86 -2.14407 -3.84341 0
M  V30 13936 H 1311.98 -0.476958 -0.561854 0
M  V30 13937 H 1314.62 -1.67018 -0.905805 0
M  V30 13938 H 1312.77 -1.92652 -3.37369 0
M  V30 13939 H 1314.44 -4.15187 -2.01041 0
M  V30 13940 H 1312.69 -3.93411 -1.82785 0
M  V30 13941 H 1313.36 -4.34057 -3.41026 0
M  V30 13942 H 1315.83 -2.41381 -3.38932 0
M  V30 13943 H 1314.71 -2.81199 -4.71401 0
M  V30 13944 H 1314.97 -1.13166 -4.27371 0
M  V30 13945 N 1314.03 1.01274 -1.20754 0
M  V30 13946 C 1315.44 1.56381 -1.0199 0
M  V30 13947 C 1315.79 1.91595 0.422591 0
M  V30 13948 O 1314.92 1.72653 1.3046 0
M  V30 13949 C 1315.51 2.8415 -1.8451 0
M  V30 13950 C 1314.07 3.35772 -1.70101 0
M  V30 13951 C 1313.22 2.0904 -1.82202 0
M  V30 13952 H 1316.17 0.836105 -1.34889 0
M  V30 13953 H 1316.19 3.55717 -1.35076 0
M  V30 13954 H 1315.7 2.5849 -2.8949 0
M  V30 13955 H 1313.8 3.66384 -0.677732 0
M  V30 13956 H 1313.92 4.07714 -2.51607 0
M  V30 13957 H 1312.28 2.21675 -1.25429 0
M  V30 13958 H 1313.06 1.858 -2.88675 0
M  V30 13959 N 1315.51 1.01404 1.20644 0
M  V30 13960 C 1316.47 0.586941 2.21557 0
M  V30 13961 C 1317.47 -0.341543 1.57131 0
M  V30 13962 O 1318.66 -0.130585 1.7371 0
M  V30 13963 C 1315.79 -0.143248 3.40599 0
M  V30 13964 H 1316.99 1.47964 2.60858 0
M  V30 13965 H 1314.54 0.803551 1.34063 0
M  V30 13966 H 1315.28 -1.05097 3.06798 0
M  V30 13967 H 1315.06 0.523716 3.88587 0
M  V30 13968 H 1316.55 -0.429504 4.15385 0
M  V30 13969 N 1316.99 -1.36373 0.789944 0
M  V30 13970 C 1318.24 -1.98834 0.361866 0
M  V30 13971 C 1318.56 -1.63006 -1.07024 0
M  V30 13972 O 1317.83 -0.904312 -1.73779 0
M  V30 13973 H 1316.41 -0.735457 0.130812 0
M  V30 13974 H 1319.07 -1.66561 1.0121 0
M  V30 13975 H 1318.16 -3.08778 0.454122 0
M  V30 13976 N 1318.47 -0.542005 -1.47987 0
M  V30 13977 C 1319.69 -0.0146835 -2.07395 0
M  V30 13978 C 1320.12 1.26266 -1.39422 0
M  V30 13979 O 1319.47 1.75259 -0.464118 0
M  V30 13980 C 1319.52 0.179937 -3.60151 0
M  V30 13981 O 1318.63 1.24596 -3.93128 0
M  V30 13982 H 1317.97 -0.0445076 -0.662507 0
M  V30 13983 H 1320.5 -0.753352 -1.90226 0
M  V30 13984 H 1320.51 0.398876 -4.06046 0
M  V30 13985 H 1319.18 -0.753093 -4.09025 0
M  V30 13986 H 1317.76 1.00872 -3.58997 0
M  V30 13987 N 1319.94 1.55134 -0.277709 0
M  V30 13988 C 1320.91 2.21327 0.595569 0
M  V30 13989 C 1321.91 1.19193 1.07933 0
M  V30 13990 O 1323.1 1.44081 0.979093 0
M  V30 13991 C 1320.23 2.88127 1.82196 0
M  V30 13992 H 1321.42 2.99895 0.0175855 0
M  V30 13993 H 1318.97 1.56274 -0.0283453 0
M  V30 13994 H 1319.71 2.13578 2.44039 0
M  V30 13995 H 1319.49 3.62974 1.48297 0
M  V30 13996 H 1320.98 3.38691 2.44291 0
M  V30 13997 N 1321.42 0.00503138 1.57599 0
M  V30 13998 C 1322.84 -0.351109 1.5569 0
M  V30 13999 C 1323.04 -1.74465 1.00818 0
M  V30 14000 O 1322.09 -2.44144 0.64422 0
M  V30 14001 C 1323.41 -0.221738 2.99881 0
M  V30 14002 C 1324.95 -0.296303 3.11594 0
M  V30 14003 C 1325.43 -0.195998 4.5758 0
M  V30 14004 N 1326.92 -0.253741 4.62504 0
M  V30 14005 C 1327.66 -0.199546 5.73053 0
M  V30 14006 N 1327.15 -0.0956553 6.92734 0
M  V30 14007 N 1328.94 -0.251779 5.61536 0
M  V30 14008 H 1321.1 0.916578 1.91605 0
M  V30 14009 H 1323.36 0.351802 0.880306 0
M  V30 14010 H 1323.06 0.737255 3.43886 0
M  V30 14011 H 1322.94 -1.00178 3.63654 0
M  V30 14012 H 1325.33 -1.24574 2.67517 0
M  V30 14013 H 1325.41 0.513692 2.50589 0
M  V30 14014 H 1325.05 0.749918 5.02333 0
M  V30 14015 H 1324.98 -1.02455 5.16537 0
M  V30 14016 H 1327.47 -0.335163 3.76411 0
M  V30 14017 H 1327.78 -0.0603357 7.72776 0
M  V30 14018 H 1326.13 -0.0612113 6.94973 0
M  V30 14019 H 1329.32 -0.331173 4.66927 0
M  V30 14020 H 1329.49 -0.206078 6.47672 0
M  V30 14021 N 1322.9 -1.55308 -0.267798 0
M  V30 14022 C 1324.31 -1.66814 -0.838459 0
M  V30 14023 C 1324.66 -0.598609 -1.86845 0
M  V30 14024 O 1323.79 0.25896 -2.14845 0
M  V30 14025 C 1324.38 -3.02408 -1.52758 0
M  V30 14026 C 1322.94 -3.15923 -2.04621 0
M  V30 14027 C 1322.09 -2.62628 -0.890044 0
M  V30 14028 H 1325.04 -1.58639 -0.0440354 0
M  V30 14029 H 1325.06 -2.95687 -2.39478 0
M  V30 14030 H 1324.57 -3.80228 -0.777695 0
M  V30 14031 H 1322.67 -2.42886 -2.82555 0
M  V30 14032 H 1322.79 -4.22556 -2.25794 0
M  V30 14033 H 1321.15 -2.19918 -1.28485 0
M  V30 14034 H 1321.93 -3.42956 -0.153579 0
M  V30 14035 N 1324.38 0.532545 -1.4833 0
M  V30 14036 C 1325.62 1.29042 -1.56448 0
M  V30 14037 C 1325.96 1.92754 -0.236532 0
M  V30 14038 O 1325.23 1.79154 0.757237 0
M  V30 14039 C 1325.51 2.38173 -2.70084 0
M  V30 14040 C 1325.37 1.79169 -4.12576 0
M  V30 14041 C 1326.69 3.39957 -2.79495 0
M  V30 14042 H 1323.81 0.467816 -0.569488 0
M  V30 14043 H 1326.45 0.593517 -1.80492 0
M  V30 14044 H 1324.6 2.97616 -2.49714 0
M  V30 14045 H 1326.27 1.23797 -4.44378 0
M  V30 14046 H 1324.51 1.09716 -4.19696 0
M  V30 14047 H 1325.18 2.58174 -4.87904 0
M  V30 14048 H 1327.66 2.90466 -2.97941 0
M  V30 14049 H 1326.54 4.13714 -3.60739 0
M  V30 14050 H 1326.8 4.00347 -1.87548 0
M  V30 14051 N 1325.86 1.36875 0.78122 0
M  V30 14052 C 1326.82 1.31706 1.8758 0
M  V30 14053 C 1327.82 0.223044 1.59246 0
M  V30 14054 O 1329.01 0.478327 1.67504 0
M  V30 14055 C 1326.14 1.0437 3.2453 0
M  V30 14056 H 1327.33 2.29059 1.93576 0
M  V30 14057 H 1324.89 1.21766 0.979931 0
M  V30 14058 H 1325.62 0.0750941 3.24213 0
M  V30 14059 H 1325.41 1.83548 3.46486 0
M  V30 14060 H 1326.9 1.0338 4.04602 0
M  V30 14061 N 1327.33 -1.00632 1.21289 0
M  V30 14062 C 1328.58 -1.74388 1.02932 0
M  V30 14063 C 1328.91 -1.8952 -0.437327 0
M  V30 14064 O 1328.16 -1.42551 -1.3408 0
M  V30 14065 C 1328.46 -3.1598 1.67007 0
M  V30 14066 C 1328.13 -3.208 3.16857 0
M  V30 14067 C 1326.79 -3.21823 3.57748 0
M  V30 14068 C 1329.14 -3.18147 4.12834 0
M  V30 14069 C 1326.47 -3.17877 4.93124 0
M  V30 14070 C 1328.82 -3.15743 5.48169 0
M  V30 14071 C 1327.49 -3.15074 5.88459 0
M  V30 14072 H 1326.76 -0.638133 0.376653 0
M  V30 14073 H 1329.4 -1.17953 1.50862 0
M  V30 14074 H 1327.71 -3.75639 1.11365 0
M  V30 14075 H 1329.41 -3.71764 1.50307 0
M  V30 14076 H 1326 -3.20746 2.84289 0
M  V30 14077 H 1330.18 -3.16519 3.82269 0
M  V30 14078 H 1325.44 -3.15696 5.2359 0
M  V30 14079 H 1329.61 -3.12644 6.22275 0
M  V30 14080 H 1327.24 -3.11771 6.93327 0
M  V30 14081 N 1328.81 -1.02043 -1.20104 0
M  V30 14082 C 1330.04 -0.731142 -1.94085 0
M  V30 14083 C 1330.46 0.702467 -1.74491 0
M  V30 14084 O 1329.82 1.48387 -1.04168 0
M  V30 14085 C 1329.87 -1.07691 -3.44144 0
M  V30 14086 O 1328.97 -0.190751 -4.11959 0
M  V30 14087 H 1328.31 -0.270917 -0.606218 0
M  V30 14088 H 1330.84 -1.36483 -1.52426 0
M  V30 14089 H 1330.85 -1.03023 -3.94779 0
M  V30 14090 H 1329.53 -2.1214 -3.57728 0
M  V30 14091 H 1328.1 -0.29529 -3.71729 0
M  V30 14092 N 1330.29 1.35952 -0.797165 0
M  V30 14093 C 1331.54 1.99327 -0.373695 0
M  V30 14094 C 1331.87 1.63111 1.05396 0
M  V30 14095 O 1331.14 0.889736 1.72956 0
M  V30 14096 C 1331.43 3.5593 -0.54641 0
M  V30 14097 C 1331.28 4.01975 -2.01832 0
M  V30 14098 C 1332.6 4.40087 0.0337694 0
M  V30 14099 H 1329.72 0.724107 -0.137254 0
M  V30 14100 H 1332.36 1.61248 -1.00495 0
M  V30 14101 H 1330.51 3.88499 -0.00903959 0
M  V30 14102 H 1332.18 3.79859 -2.61735 0
M  V30 14103 H 1330.43 3.5323 -2.51815 0
M  V30 14104 H 1331.1 5.109 -2.09009 0
M  V30 14105 H 1333.57 4.13923 -0.425039 0
M  V30 14106 H 1332.45 5.48775 -0.117054 0
M  V30 14107 H 1332.71 4.27504 1.12661 0
M  V30 14108 N 1331.77 0.549846 1.47697 0
M  V30 14109 C 1333.01 0.0230845 2.02787 0
M  V30 14110 C 1333.35 -1.32035 1.42409 0
M  V30 14111 O 1332.62 -1.85745 0.576978 0
M  V30 14112 C 1332.91 -0.0778363 3.60016 0
M  V30 14113 C 1332.76 1.29217 4.3084 0
M  V30 14114 C 1334.08 -0.794909 4.32862 0
M  V30 14115 H 1331.2 0.00986307 0.736934 0
M  V30 14116 H 1333.84 0.710714 1.76207 0
M  V30 14117 H 1331.99 -0.663464 3.82793 0
M  V30 14118 H 1333.66 1.92044 4.19424 0
M  V30 14119 H 1331.9 1.86883 3.91481 0
M  V30 14120 H 1332.57 1.17435 5.39364 0
M  V30 14121 H 1335.05 -0.297743 4.15033 0
M  V30 14122 H 1333.93 -0.834466 5.4252 0
M  V30 14123 H 1334.19 -1.84948 4.01555 0
M  V30 14124 N 1333.25 -1.54984 0.285932 0
M  V30 14125 C 1334.66 -1.85519 -0.209707 0
M  V30 14126 C 1335.01 -1.20794 -1.54606 0
M  V30 14127 O 1334.13 -0.500159 -2.10541 0
M  V30 14128 C 1334.73 -3.36579 -0.387283 0
M  V30 14129 C 1333.29 -3.67199 -0.827148 0
M  V30 14130 C 1332.43 -2.77203 0.073308 0
M  V30 14131 H 1335.39 -1.5037 0.507404 0
M  V30 14132 H 1335.41 -3.60269 -1.2242 0
M  V30 14133 H 1334.92 -3.83658 0.585493 0
M  V30 14134 H 1333.02 -3.25627 -1.81101 0
M  V30 14135 H 1333.13 -4.74574 -0.656976 0
M  V30 14136 H 1331.5 -2.50785 -0.444859 0
M  V30 14137 H 1332.28 -3.27099 1.04216 0
M  V30 14138 N 1334.72 -0.0133892 -1.57594 0
M  V30 14139 C 1335.95 0.679255 -1.95432 0
M  V30 14140 C 1336.37 1.66558 -0.889028 0
M  V30 14141 O 1335.72 1.82031 0.130755 0
M  V30 14142 C 1335.78 1.39943 -3.33314 0
M  V30 14143 O 1335.5 0.452643 -4.35755 0
M  V30 14144 C 1337 2.18535 -3.85691 0
M  V30 14145 H 1334.22 0.188337 -0.644026 0
M  V30 14146 H 1336.76 -0.0684861 -2.04385 0
M  V30 14147 H 1334.92 2.0987 -3.25628 0
M  V30 14148 H 1335.33 0.962243 -5.15598 0
M  V30 14149 H 1336.8 2.64403 -4.84557 0
M  V30 14150 H 1337.28 3.01779 -3.19102 0
M  V30 14151 H 1337.89 1.53598 -3.96595 0
M  V30 14152 N 1336.2 1.55448 0.259558 0
M  V30 14153 C 1337.17 1.88459 1.30445 0
M  V30 14154 C 1338.17 0.760096 1.41701 0
M  V30 14155 O 1339.36 1.02819 1.4062 0
M  V30 14156 C 1336.49 2.10181 2.68397 0
M  V30 14157 H 1337.68 2.81877 1.02398 0
M  V30 14158 H 1335.23 1.48145 0.498262 0
M  V30 14159 H 1335.97 1.19189 3.01603 0
M  V30 14160 H 1335.75 2.92066 2.6161 0
M  V30 14161 H 1337.24 2.36947 3.43869 0
M  V30 14162 N 1337.68 -0.524672 1.4861 0
M  V30 14163 C 1338.64 -1.61092 1.63039 0
M  V30 14164 C 1339.64 -1.52718 0.503387 0
M  V30 14165 O 1340.83 -1.56293 0.769304 0
M  V30 14166 C 1337.97 -3.00722 1.60558 0
M  V30 14167 H 1339.16 -1.49636 2.59902 0
M  V30 14168 H 1336.71 -0.747135 1.37287 0
M  V30 14169 H 1337.45 -3.1768 0.651926 0
M  V30 14170 H 1337.23 -3.0821 2.42382 0
M  V30 14171 H 1338.72 -3.79688 1.73859 0
M  V30 14172 N 1339.16 -1.37287 -0.77395 0
M  V30 14173 C 1340.12 -1.32699 -1.86878 0
M  V30 14174 C 1341.12 -0.231486 -1.59125 0
M  V30 14175 O 1342.31 -0.487203 -1.67248 0
M  V30 14176 C 1339.44 -1.0609 -3.23972 0
M  V30 14177 H 1340.64 -2.30083 -1.92359 0
M  V30 14178 H 1338.19 -1.22284 -0.973459 0
M  V30 14179 H 1338.92 -0.0922868 -3.24169 0
M  V30 14180 H 1338.71 -1.85383 -3.45508 0
M  V30 14181 H 1340.2 -1.05524 -4.04048 0
M  V30 14182 N 1340.64 0.999871 -1.21821 0
M  V30 14183 C 1341.6 2.07024 -0.983541 0
M  V30 14184 C 1342.6 1.6073 0.0474011 0
M  V30 14185 O 1343.79 1.73156 -0.190398 0
M  V30 14186 C 1340.92 3.37444 -0.484199 0
M  V30 14187 H 1342.11 2.29276 -1.9332 0
M  V30 14188 H 1339.67 1.1704 -1.03592 0
M  V30 14189 H 1340.4 3.20874 0.470138 0
M  V30 14190 H 1340.19 3.72378 -1.2279 0
M  V30 14191 H 1341.68 4.16213 -0.34004 0
M  V30 14192 N 1342.11 1.02678 1.19562 0
M  V30 14193 C 1343.36 0.723086 1.89471 0
M  V30 14194 C 1343.69 -0.746269 1.79289 0
M  V30 14195 O 1342.97 -1.54322 1.18384 0
M  V30 14196 C 1343.25 1.17224 3.40486 0
M  V30 14197 C 1343.1 2.70266 3.5955 0
M  V30 14198 C 1344.42 0.751397 4.33638 0
M  V30 14199 H 1341.54 0.264155 0.688034 0
M  V30 14200 H 1344.18 1.27633 1.40747 0
M  V30 14201 H 1342.33 0.701544 3.82113 0
M  V30 14202 H 1344.01 3.25266 3.27108 0
M  V30 14203 H 1342.25 3.10758 3.02675 0
M  V30 14204 H 1342.92 2.96748 4.65451 0
M  V30 14205 H 1345.4 1.15621 3.99714 0
M  V30 14206 H 1344.27 1.09358 5.37896 0
M  V30 14207 H 1344.53 -0.346367 4.40741 0
M  V30 14208 N 1343.59 -1.35528 0.804364 0
M  V30 14209 C 1344.82 -2.03604 0.395013 0
M  V30 14210 C 1345.24 -1.60225 -0.985371 0
M  V30 14211 O 1344.6 -0.777844 -1.63766 0
M  V30 14212 C 1344.65 -3.57337 0.484011 0
M  V30 14213 O 1343.75 -4.09316 -0.503395 0
M  V30 14214 H 1343.09 -0.643089 0.165325 0
M  V30 14215 H 1345.62 -1.73171 1.08963 0
M  V30 14216 H 1345.63 -4.0647 0.353009 0
M  V30 14217 H 1344.31 -3.8826 1.49088 0
M  V30 14218 H 1342.89 -3.71412 -0.332817 0
M  V30 14219 N 1345.07 -0.557671 -1.47404 0
M  V30 14220 C 1346 0.178019 -2.3282 0
M  V30 14221 C 1346.98 0.908318 -1.43818 0
M  V30 14222 O 1348.17 0.888693 -1.72673 0
M  V30 14223 C 1345.3 1.2082 -3.25607 0
M  V30 14224 C 1344.25 0.594335 -4.23853 0
M  V30 14225 C 1343.58 1.72919 -5.05968 0
M  V30 14226 C 1344.88 -0.452196 -5.20339 0
M  V30 14227 H 1346.57 -0.535091 -2.9458 0
M  V30 14228 H 1344.12 -0.258775 -1.41656 0
M  V30 14229 H 1346.07 1.73104 -3.84204 0
M  V30 14230 H 1344.79 1.95126 -2.61903 0
M  V30 14231 H 1343.45 0.0927898 -3.66483 0
M  V30 14232 H 1343.1 2.4613 -4.38668 0
M  V30 14233 H 1342.8 1.32422 -5.72484 0
M  V30 14234 H 1344.33 2.25527 -5.67424 0
M  V30 14235 H 1345.74 -0.0154011 -5.73298 0
M  V30 14236 H 1344.14 -0.776068 -5.95061 0
M  V30 14237 H 1345.21 -1.34791 -4.65789 0
M  V30 14238 N 1346.55 1.54831 -0.294147 0
M  V30 14239 C 1347.5 2.23263 0.58499 0
M  V30 14240 C 1348.47 1.21278 1.13494 0
M  V30 14241 O 1349.65 1.49878 1.18073 0
M  V30 14242 C 1346.79 2.97185 1.75429 0
M  V30 14243 C 1345.9 4.1393 1.23638 0
M  V30 14244 C 1345.04 4.7545 2.36899 0
M  V30 14245 C 1344.08 5.84352 1.82207 0
M  V30 14246 N 1343.22 6.39855 2.89015 0
M  V30 14247 H 1348.06 2.98 -0.00519329 0
M  V30 14248 H 1345.59 1.47093 -0.0143313 0
M  V30 14249 H 1347.55 3.38271 2.4419 0
M  V30 14250 H 1346.18 2.24837 2.3162 0
M  V30 14251 H 1345.23 3.77832 0.441247 0
M  V30 14252 H 1346.54 4.92409 0.795946 0
M  V30 14253 H 1345.7 5.19353 3.1362 0
M  V30 14254 H 1344.44 3.96288 2.84266 0
M  V30 14255 H 1343.44 5.39879 1.03974 0
M  V30 14256 H 1344.67 6.65393 1.35753 0
M  V30 14257 H 1342.61 5.6358 3.35729 0
M  V30 14258 H 1342.53 7.13661 2.49447 0
M  V30 14259 H 1343.8 6.88417 3.65654 0
M  V30 14260 N 1348.03 0.0217466 1.57585 0
M  V30 14261 C 1349.27 -0.659463 1.91778 0
M  V30 14262 C 1349.61 -1.72201 0.897801 0
M  V30 14263 O 1348.88 -1.94333 -0.080509 0
M  V30 14264 C 1349.16 -1.28269 3.36481 0
M  V30 14265 C 1349.02 -0.230201 4.49211 0
M  V30 14266 C 1350.34 -2.20279 3.81005 0
M  V30 14267 H 1347.46 -0.238263 0.697424 0
M  V30 14268 H 1350.1 0.0774967 1.89842 0
M  V30 14269 H 1348.25 -1.9108 3.38262 0
M  V30 14270 H 1349.92 0.399901 4.59563 0
M  V30 14271 H 1348.16 0.445157 4.3151 0
M  V30 14272 H 1348.83 -0.705732 5.4747 0
M  V30 14273 H 1351.31 -1.67463 3.80914 0
M  V30 14274 H 1350.19 -2.60842 4.82962 0
M  V30 14275 H 1350.45 -3.09092 3.16093 0
M  V30 14276 N 1349.51 -1.55583 -0.251311 0
M  V30 14277 C 1350.75 -1.77471 -0.981418 0
M  V30 14278 C 1351.08 -0.586228 -1.85141 0
M  V30 14279 O 1350.36 0.415623 -1.90007 0
M  V30 14280 C 1350.64 -3.09204 -1.84567 0
M  V30 14281 C 1350.5 -4.38448 -1.00417 0
M  V30 14282 C 1351.81 -3.37133 -2.82895 0
M  V30 14283 H 1348.93 -0.645664 -0.355369 0
M  V30 14284 H 1351.58 -1.88318 -0.252228 0
M  V30 14285 H 1349.73 -3.00087 -2.46738 0
M  V30 14286 H 1351.4 -4.5955 -0.40149 0
M  V30 14287 H 1349.64 -4.32703 -0.308365 0
M  V30 14288 H 1350.31 -5.26995 -1.64258 0
M  V30 14289 H 1352.79 -3.46183 -2.3086 0
M  V30 14290 H 1351.66 -4.30531 -3.40491 0
M  V30 14291 H 1351.92 -2.57829 -3.59133 0
M  V30 14292 N 1350.98 0.516783 -1.48886 0
M  V30 14293 C 1351.95 1.60226 -1.63891 0
M  V30 14294 C 1352.95 1.52448 -0.511479 0
M  V30 14295 O 1354.14 1.55882 -0.777582 0
M  V30 14296 C 1351.27 2.99867 -1.62151 0
M  V30 14297 H 1352.46 1.48256 -2.60692 0
M  V30 14298 H 1350.01 0.739844 -1.37681 0
M  V30 14299 H 1350.75 3.1733 -0.668764 0
M  V30 14300 H 1350.53 3.0692 -2.44013 0
M  V30 14301 H 1352.02 3.7876 -1.7587 0
M  V30 14302 N 1352.46 1.37696 0.766659 0
M  V30 14303 C 1353.88 1.18607 1.06792 0
M  V30 14304 C 1354.08 0.0257195 2.01484 0
M  V30 14305 O 1353.13 -0.632608 2.44447 0
M  V30 14306 C 1354.45 2.50692 1.66054 0
M  V30 14307 C 1355.99 2.57259 1.78288 0
M  V30 14308 C 1356.47 3.89488 2.40963 0
M  V30 14309 N 1357.96 3.90957 2.48408 0
M  V30 14310 C 1358.7 4.90023 2.97767 0
M  V30 14311 N 1358.19 5.99485 3.4726 0
M  V30 14312 N 1359.98 4.77423 2.96688 0
M  V30 14313 H 1352.14 2.11951 0.138031 0
M  V30 14314 H 1354.4 0.939873 0.123863 0
M  V30 14315 H 1354.1 3.35989 1.03945 0
M  V30 14316 H 1353.98 2.68148 2.65286 0
M  V30 14317 H 1356.37 1.72366 2.39528 0
M  V30 14318 H 1356.45 2.43682 0.777981 0
M  V30 14319 H 1356.09 4.74797 1.8036 0
M  V30 14320 H 1356.02 4.0037 3.42069 0
M  V30 14321 H 1358.51 3.11888 2.13388 0
M  V30 14322 H 1358.82 6.71022 3.8334 0
M  V30 14323 H 1357.17 6.03123 3.45351 0
M  V30 14324 H 1360.36 3.91026 2.57325 0
M  V30 14325 H 1360.53 5.54783 3.34844 0
M  V30 14326 N 1353.94 -0.993397 1.22349 0
M  V30 14327 C 1355.19 -1.72945 1.04568 0
M  V30 14328 C 1355.51 -1.90419 -0.420178 0
M  V30 14329 O 1354.78 -1.46348 -1.30227 0
M  V30 14330 H 1353.36 -0.640777 0.383945 0
M  V30 14331 H 1356.02 -1.19647 1.53853 0
M  V30 14332 H 1355.12 -2.72411 1.52311 0
M  V30 14333 N 1355.42 -1.03311 -1.19015 0
M  V30 14334 C 1356.64 -0.751686 -1.93299 0
M  V30 14335 C 1357.07 0.68392 -1.75226 0
M  V30 14336 O 1356.43 1.47274 -1.05736 0
M  V30 14337 C 1356.47 -1.11335 -3.42982 0
M  V30 14338 O 1355.58 -0.234434 -4.11733 0
M  V30 14339 H 1354.92 -0.277331 -0.60331 0
M  V30 14340 H 1357.45 -1.38092 -1.5097 0
M  V30 14341 H 1357.46 -1.07204 -3.93664 0
M  V30 14342 H 1356.13 -2.15922 -3.55458 0
M  V30 14343 H 1354.71 -0.3347 -3.71395 0
M  V30 14344 N 1356.9 1.35099 -0.81154 0
M  V30 14345 C 1358.14 1.98625 -0.394231 0
M  V30 14346 C 1358.47 1.6437 1.03985 0
M  V30 14347 O 1357.73 0.901496 1.737 0
M  V30 14348 C 1358.02 3.53444 -0.530322 0
M  V30 14349 C 1357.69 4.0758 -1.92844 0
M  V30 14350 C 1356.35 4.22077 -2.31094 0
M  V30 14351 C 1358.7 4.36838 -2.84292 0
M  V30 14352 C 1356.03 4.63153 -3.60148 0
M  V30 14353 C 1358.38 4.79355 -4.12798 0
M  V30 14354 C 1357.05 4.92057 -4.51039 0
M  V30 14355 H 1356.32 0.726822 -0.144259 0
M  V30 14356 H 1358.97 1.61231 -1.03329 0
M  V30 14357 H 1357.27 3.91328 0.192166 0
M  V30 14358 H 1358.97 4.00558 -0.188134 0
M  V30 14359 H 1355.56 3.96752 -1.62129 0
M  V30 14360 H 1359.74 4.25187 -2.55988 0
M  V30 14361 H 1355 4.71176 -3.89619 0
M  V30 14362 H 1359.17 5.00954 -4.83754 0
M  V30 14363 H 1356.8 5.23643 -5.51092 0
M  V30 14364 N 1358.37 0.56548 1.47106 0
M  V30 14365 C 1359.28 -0.180488 2.33905 0
M  V30 14366 C 1360.3 -0.90355 1.48701 0
M  V30 14367 O 1361.48 -0.870595 1.81611 0
M  V30 14368 C 1358.54 -1.19212 3.2556 0
M  V30 14369 C 1357.6 -0.475589 4.26658 0
M  V30 14370 C 1356.83 -1.43902 5.13934 0
M  V30 14371 O 1357.06 -2.67443 5.03816 0
M  V30 14372 O 1355.99 -0.958998 5.94211 0
M  V30 14373 H 1359.82 0.531726 2.99009 0
M  V30 14374 H 1357.4 0.32602 1.45799 0
M  V30 14375 H 1359.28 -1.77586 3.82153 0
M  V30 14376 H 1357.96 -1.8861 2.63074 0
M  V30 14377 H 1356.87 0.149561 3.73801 0
M  V30 14378 H 1358.2 0.177103 4.91881 0
M  V30 14379 N 1359.85 -1.54672 0.302354 0
M  V30 14380 C 1361.1 -2.00167 -0.306524 0
M  V30 14381 C 1361.43 -1.19073 -1.53791 0
M  V30 14382 O 1360.68 -0.255328 -1.94027 0
M  V30 14383 C 1360.98 -3.5035 -0.70638 0
M  V30 14384 C 1360.65 -4.48907 0.423429 0
M  V30 14385 C 1359.31 -4.75575 0.733586 0
M  V30 14386 C 1361.66 -5.07588 1.18338 0
M  V30 14387 C 1358.99 -5.58186 1.80679 0
M  V30 14388 C 1361.34 -5.91367 2.24651 0
M  V30 14389 C 1360.01 -6.16345 2.56272 0
M  V30 14390 H 1359.28 -0.732462 -0.112165 0
M  V30 14391 H 1361.92 -1.86798 0.421732 0
M  V30 14392 H 1360.23 -3.61335 -1.51474 0
M  V30 14393 H 1361.92 -3.82977 -1.18869 0
M  V30 14394 H 1358.51 -4.28256 0.171591 0
M  V30 14395 H 1362.7 -4.86985 0.957018 0
M  V30 14396 H 1357.95 -5.75776 2.05649 0
M  V30 14397 H 1362.13 -6.35862 2.83994 0
M  V30 14398 H 1359.76 -6.80148 3.39563 0
M  V30 14399 N 1361.33 -0.0301034 -1.57571 0
M  V30 14400 C 1362.74 0.508591 -1.79639 0
M  V30 14401 C 1363.09 1.72191 -0.940458 0
M  V30 14402 O 1362.22 2.15872 -0.151138 0
M  V30 14403 C 1362.81 0.929446 -3.25802 0
M  V30 14404 C 1361.37 1.41325 -3.48861 0
M  V30 14405 C 1360.52 0.378433 -2.74706 0
M  V30 14406 H 1363.47 -0.256131 -1.56619 0
M  V30 14407 H 1363.49 1.79374 -3.35567 0
M  V30 14408 H 1363 0.0461738 -3.88073 0
M  V30 14409 H 1361.1 2.31641 -2.91844 0
M  V30 14410 H 1361.22 1.41995 -4.57574 0
M  V30 14411 H 1359.58 0.846744 -2.40213 0
M  V30 14412 H 1360.36 -0.49639 -3.39692 0
M  V30 14413 N 1362.81 1.55714 0.243056 0
M  V30 14414 C 1364.05 1.77989 0.971993 0
M  V30 14415 C 1364.39 0.596038 1.84827 0
M  V30 14416 O 1363.66 -0.40554 1.90225 0
M  V30 14417 C 1363.95 3.10178 1.82925 0
M  V30 14418 C 1363.8 4.38974 0.9809 0
M  V30 14419 C 1365.12 3.38628 2.81103 0
M  V30 14420 H 1362.24 0.64754 0.35194 0
M  V30 14421 H 1364.88 1.88449 0.242237 0
M  V30 14422 H 1363.03 3.01392 2.45143 0
M  V30 14423 H 1364.7 4.59756 0.377113 0
M  V30 14424 H 1362.94 4.3286 0.285414 0
M  V30 14425 H 1363.61 5.27858 1.61461 0
M  V30 14426 H 1366.09 3.47403 2.29021 0
M  V30 14427 H 1364.97 4.32331 3.38203 0
M  V30 14428 H 1365.23 2.5973 3.57761 0
M  V30 14429 N 1364.29 -0.50888 1.49158 0
M  V30 14430 C 1365.53 -1.261 1.57934 0
M  V30 14431 C 1365.86 -1.93199 0.264405 0
M  V30 14432 O 1365.13 -1.82359 -0.715684 0
M  V30 14433 H 1363.71 -0.468421 0.581886 0
M  V30 14434 H 1366.37 -0.590447 1.85741 0
M  V30 14435 H 1365.46 -2.02913 2.37135 0
M  V30 14436 N 1365.76 -1.381 -0.759346 0
M  V30 14437 C 1367.04 -1.24517 -1.50847 0
M  V30 14438 C 1367.42 0.155929 -2.10523 0
M  V30 14439 O 1366.77 1.16485 -1.96579 0
M  V30 14440 C 1366.98 -2.35086 -2.57945 0
M  V30 14441 C 1368.33 -2.73232 -3.25007 0
M  V30 14442 O 1369.35 -2.34355 -2.68247 0
M  V30 14443 O 1368.21 -3.40254 -4.27656 0
M  V30 14444 H 1365.3 -0.486599 -0.668693 0
M  V30 14445 H 1367.85 -1.49913 -0.795249 0
M  V30 14446 H 1366.62 -3.28858 -2.12056 0
M  V30 14447 H 1366.25 -2.11222 -3.36854 0
M  V30 14448 N 1367.24 0.986894 -1.22875 0
M  V30 14449 C 1368.21 2.0597 -1.00544 0
M  V30 14450 C 1369.21 1.60771 0.0303509 0
M  V30 14451 O 1370.4 1.72945 -0.208753 0
M  V30 14452 C 1367.53 3.36911 -0.519962 0
M  V30 14453 H 1368.72 2.27213 -1.9574 0
M  V30 14454 H 1366.27 1.15935 -1.04827 0
M  V30 14455 H 1367.01 3.21355 0.436078 0
M  V30 14456 H 1366.79 3.71054 -1.26732 0
M  V30 14457 H 1368.28 4.15829 -0.384166 0
M  V30 14458 N 1368.72 1.0394 1.18466 0
M  V30 14459 C 1369.97 0.743141 1.88694 0
M  V30 14460 C 1370.3 -0.727211 1.8007 0
M  V30 14461 O 1369.57 -1.53058 1.20014 0
M  V30 14462 C 1369.86 1.20829 3.39223 0
M  V30 14463 C 1369.71 2.74064 3.56664 0
M  V30 14464 C 1371.03 0.797348 4.32817 0
M  V30 14465 H 1368.15 0.271437 0.685194 0
M  V30 14466 H 1370.79 1.29119 1.39386 0
M  V30 14467 H 1368.94 0.742033 3.81348 0
M  V30 14468 H 1370.61 3.28717 3.2364 0
M  V30 14469 H 1368.86 3.1395 2.99362 0
M  V30 14470 H 1369.53 3.01668 4.62277 0
M  V30 14471 H 1372 1.19854 3.98465 0
M  V30 14472 H 1370.88 1.15057 5.36706 0
M  V30 14473 H 1371.14 -0.299601 4.41084 0
M  V30 14474 N 1370.2 -1.34667 0.818693 0
M  V30 14475 C 1371.42 -2.03173 0.416585 0
M  V30 14476 C 1371.85 -1.61261 -0.968321 0
M  V30 14477 O 1371.21 -0.79517 -1.62932 0
M  V30 14478 C 1371.25 -3.56803 0.521884 0
M  V30 14479 O 1370.36 -4.09827 -0.459953 0
M  V30 14480 H 1369.7 -0.6413 0.172136 0
M  V30 14481 H 1372.23 -1.72006 1.10794 0
M  V30 14482 H 1372.24 -4.06073 0.3961 0
M  V30 14483 H 1370.91 -3.86656 1.53198 0
M  V30 14484 H 1369.49 -3.71744 -0.293405 0
M  V30 14485 N 1371.68 -0.573274 -1.46804 0
M  V30 14486 C 1372.62 0.165358 -2.30207 0
M  V30 14487 C 1373.59 0.89312 -1.40045 0
M  V30 14488 O 1374.78 0.885653 -1.68999 0
M  V30 14489 C 1371.92 1.17915 -3.2433 0
M  V30 14490 C 1371.03 0.455805 -4.29589 0
M  V30 14491 C 1370.17 1.45629 -5.10848 0
M  V30 14492 C 1369.21 0.718822 -6.07865 0
M  V30 14493 N 1368.34 1.66691 -6.82025 0
M  V30 14494 H 1373.18 -0.551947 -2.92844 0
M  V30 14495 H 1370.72 -0.28401 -1.44332 0
M  V30 14496 H 1372.68 1.77969 -3.77337 0
M  V30 14497 H 1371.31 1.86429 -2.63523 0
M  V30 14498 H 1370.36 -0.259584 -3.79513 0
M  V30 14499 H 1371.67 -0.121161 -4.98653 0
M  V30 14500 H 1370.83 2.1299 -5.68084 0
M  V30 14501 H 1369.56 2.06718 -4.41723 0
M  V30 14502 H 1368.57 0.0313773 -5.49791 0
M  V30 14503 H 1369.79 0.113452 -6.79005 0
M  V30 14504 H 1367.74 2.26608 -6.15617 0
M  V30 14505 H 1367.66 1.14251 -7.47317 0
M  V30 14506 H 1368.93 2.33117 -7.43826 0
M  V30 14507 N 1373.15 1.5451 -0.310553 0
M  V30 14508 C 1374.4 2.00623 0.296343 0
M  V30 14509 C 1374.73 1.19855 1.52802 0
M  V30 14510 O 1374.01 0.277468 1.92511 0
M  V30 14511 C 1374.29 3.54305 0.643448 0
M  V30 14512 C 1374.14 4.45807 -0.598029 0
M  V30 14513 C 1375.46 4.14958 1.46623 0
M  V30 14514 H 1372.58 0.729303 0.106236 0
M  V30 14515 H 1375.22 1.85196 -0.424549 0
M  V30 14516 H 1373.37 3.67581 1.25762 0
M  V30 14517 H 1375.05 4.44421 -1.23643 0
M  V30 14518 H 1373.29 4.16014 -1.22944 0
M  V30 14519 H 1373.96 5.51124 -0.310883 0
M  V30 14520 H 1376.44 4.05176 0.947199 0
M  V30 14521 H 1375.31 5.22627 1.67787 0
M  V30 14522 H 1375.57 3.67445 2.45839 0
M  V30 14523 N 1374.63 0.0384594 1.57553 0
M  V30 14524 C 1375.56 -0.938444 2.13812 0
M  V30 14525 C 1376.54 -1.33307 1.05657 0
M  V30 14526 O 1377.73 -1.41003 1.33535 0
M  V30 14527 C 1374.86 -2.21764 2.67279 0
M  V30 14528 C 1373.81 -1.96347 3.80305 0
M  V30 14529 C 1373.14 -3.30612 4.20238 0
M  V30 14530 C 1374.44 -1.2952 5.05986 0
M  V30 14531 H 1376.13 -0.469887 2.9569 0
M  V30 14532 H 1373.68 -0.224576 1.42238 0
M  V30 14533 H 1375.63 -2.90493 3.05273 0
M  V30 14534 H 1374.36 -2.70802 1.82576 0
M  V30 14535 H 1373.02 -1.30033 3.42764 0
M  V30 14536 H 1372.66 -3.77427 3.32502 0
M  V30 14537 H 1372.36 -3.14409 4.96408 0
M  V30 14538 H 1373.89 -4.00594 4.60822 0
M  V30 14539 H 1375.3 -1.88264 5.41507 0
M  V30 14540 H 1373.7 -1.23685 5.87216 0
M  V30 14541 H 1374.77 -0.269439 4.84151 0
M  V30 14542 N 1376.11 -1.55841 -0.234795 0
M  V30 14543 C 1377.04 -1.87793 -1.31402 0
M  V30 14544 C 1378.06 -0.765113 -1.43701 0
M  V30 14545 O 1379.25 -1.04332 -1.44834 0
M  V30 14546 C 1376.35 -2.05976 -2.69123 0
M  V30 14547 C 1375.52 -3.36914 -2.7894 0
M  V30 14548 C 1374.58 -3.44691 -3.97586 0
M  V30 14549 O 1373.6 -4.17818 -3.86545 0
M  V30 14550 N 1374.81 -2.74866 -5.11301 0
M  V30 14551 H 1377.57 -2.80957 -1.04324 0
M  V30 14552 H 1375.13 -1.56226 -0.424872 0
M  V30 14553 H 1377.12 -2.08507 -3.46853 0
M  V30 14554 H 1375.69 -1.195 -2.88857 0
M  V30 14555 H 1374.91 -3.46595 -1.87791 0
M  V30 14556 H 1376.2 -4.23196 -2.82458 0
M  V30 14557 H 1375.6 -2.15208 -5.23165 0
M  V30 14558 H 1374.16 -2.83075 -5.87122 0
M  V30 14559 N 1377.59 0.500963 -1.49426 0
M  V30 14560 C 1378.84 1.25171 -1.58162 0
M  V30 14561 C 1379.15 1.93678 -0.273556 0
M  V30 14562 O 1380.36 2.70442 -0.239462 0
M  V30 14563 C 1378.81 2.27276 -2.79059 0
M  V30 14564 C 1378.42 1.64708 -4.16624 0
M  V30 14565 C 1380.17 3.03178 -2.97125 0
M  V30 14566 C 1378.07 2.64923 -5.28743 0
M  V30 14567 H 1377 0.470867 -0.588897 0
M  V30 14568 H 1379.65 0.525569 -1.75812 0
M  V30 14569 H 1378.04 3.03052 -2.54903 0
M  V30 14570 H 1379.21 0.949231 -4.50917 0
M  V30 14571 H 1377.52 1.01195 -4.03916 0
M  V30 14572 H 1380.12 3.78122 -3.78058 0
M  V30 14573 H 1380.46 3.60793 -2.07687 0
M  V30 14574 H 1381 2.34517 -3.2132 0
M  V30 14575 H 1377.74 2.12089 -6.20241 0
M  V30 14576 H 1377.26 3.32948 -4.98904 0
M  V30 14577 H 1378.94 3.27349 -5.58079 0
M  V30 14578 N 1379.07 1.38501 0.752011 0
M  V30 14579 C 1379.98 1.38094 1.8965 0
M  V30 14580 C 1380.99 0.277851 1.71767 0
M  V30 14581 O 1382.17 0.516536 1.94663 0
M  V30 14582 C 1379.23 1.2063 3.25037 0
M  V30 14583 C 1378.3 2.40758 3.55435 0
M  V30 14584 C 1377.53 2.24118 4.84362 0
M  V30 14585 O 1377.75 1.23571 5.56854 0
M  V30 14586 O 1376.69 3.12741 5.14273 0
M  V30 14587 H 1380.51 2.34532 1.92947 0
M  V30 14588 H 1378.1 1.19437 0.897504 0
M  V30 14589 H 1379.98 1.12957 4.05979 0
M  V30 14590 H 1378.65 0.272785 3.22549 0
M  V30 14591 H 1377.56 2.54006 2.74648 0
M  V30 14592 H 1378.89 3.32745 3.62686 0
M  V30 14593 N 1380.55 -0.980364 1.23396 0
M  V30 14594 C 1381.49 -2.07275 1.01516 0
M  V30 14595 C 1382.46 -1.65963 -0.0673729 0
M  V30 14596 O 1383.65 -1.90612 0.0847392 0
M  V30 14597 C 1380.79 -3.39621 0.61249 0
M  V30 14598 C 1379.9 -3.94203 1.76715 0
M  V30 14599 C 1379.04 -5.14761 1.31126 0
M  V30 14600 C 1378.07 -5.61509 2.43667 0
M  V30 14601 N 1377.21 -6.73297 1.99035 0
M  V30 14602 H 1382.05 -2.25325 1.9502 0
M  V30 14603 H 1379.59 -1.10452 0.971532 0
M  V30 14604 H 1381.55 -4.15643 0.360126 0
M  V30 14605 H 1380.18 -3.21535 -0.285539 0
M  V30 14606 H 1379.23 -3.14937 2.13352 0
M  V30 14607 H 1380.54 -4.24867 2.61323 0
M  V30 14608 H 1379.69 -5.98115 1.01702 0
M  V30 14609 H 1378.43 -4.85751 0.435555 0
M  V30 14610 H 1377.44 -4.76737 2.73865 0
M  V30 14611 H 1378.66 -5.92539 3.31774 0
M  V30 14612 H 1376.61 -6.46046 1.13845 0
M  V30 14613 H 1376.53 -7.03345 2.77203 0
M  V30 14614 H 1377.79 -7.60125 1.72716 0
M  V30 14615 N 1382.02 -1.04567 -1.17913 0
M  V30 14616 C 1382.93 -0.651674 -2.25367 0
M  V30 14617 C 1383.95 0.32437 -1.7095 0
M  V30 14618 O 1385.13 0.178039 -2.00612 0
M  V30 14619 C 1382.19 -0.0259452 -3.4669 0
M  V30 14620 C 1381.25 -1.05163 -4.1622 0
M  V30 14621 C 1380.48 -0.45567 -5.31751 0
M  V30 14622 O 1380.71 0.736698 -5.65623 0
M  V30 14623 O 1379.64 -1.18684 -5.90083 0
M  V30 14624 H 1383.47 -1.54704 -2.61344 0
M  V30 14625 H 1381.05 -0.816852 -1.25092 0
M  V30 14626 H 1382.93 0.322126 -4.20167 0
M  V30 14627 H 1381.61 0.843165 -3.12526 0
M  V30 14628 H 1380.52 -1.45159 -3.44789 0
M  V30 14629 H 1381.85 -1.89168 -4.54397 0
M  V30 14630 N 1383.5 1.34231 -0.825823 0
M  V30 14631 C 1384.75 1.97805 -0.414456 0
M  V30 14632 C 1385.07 1.65786 1.02664 0
M  V30 14633 O 1384.34 0.950069 1.7132 0
M  V30 14634 H 1382.92 0.73173 -0.150265 0
M  V30 14635 H 1385.58 1.63819 -1.05591 0
M  V30 14636 H 1384.68 3.07466 -0.535829 0
M  V30 14637 N 1384.98 0.581051 1.46498 0
M  V30 14638 C 1385.94 -0.142937 2.28754 0
M  V30 14639 C 1386.94 -0.820383 1.38298 0
M  V30 14640 O 1388.13 -0.672592 1.60692 0
M  V30 14641 C 1385.26 -1.21176 3.18637 0
M  V30 14642 H 1386.46 0.579918 2.9424 0
M  V30 14643 H 1384.01 0.338951 1.52581 0
M  V30 14644 H 1384.75 -1.96624 2.57894 0
M  V30 14645 H 1384.53 -0.730517 3.85235 0
M  V30 14646 H 1386.02 -1.71958 3.80552 0
M  V30 14647 N 1386.46 -1.54343 0.318742 0
M  V30 14648 C 1387.71 -1.9966 -0.286146 0
M  V30 14649 C 1388.02 -1.21073 -1.53625 0
M  V30 14650 O 1389.23 -1.56744 -2.21684 0
M  V30 14651 C 1387.68 -3.5551 -0.560405 0
M  V30 14652 C 1387.29 -4.42926 0.672373 0
M  V30 14653 C 1389.03 -4.09307 -1.12551 0
M  V30 14654 C 1386.94 -5.9024 0.370285 0
M  V30 14655 H 1385.87 -0.74583 -0.110698 0
M  V30 14656 H 1388.52 -1.78386 0.430215 0
M  V30 14657 H 1386.9 -3.72753 -1.33683 0
M  V30 14658 H 1388.08 -4.37458 1.448 0
M  V30 14659 H 1386.39 -3.99993 1.15736 0
M  V30 14660 H 1388.99 -5.16955 -1.36607 0
M  V30 14661 H 1389.33 -3.60994 -2.07338 0
M  V30 14662 H 1389.87 -3.95677 -0.410385 0
M  V30 14663 H 1386.6 -6.42738 1.28719 0
M  V30 14664 H 1386.12 -5.98672 -0.367731 0
M  V30 14665 H 1387.8 -6.46996 -0.0216582 0
M  V30 14666 N 1387.94 -0.0468143 -1.5753 0
M  V30 14667 C 1388.89 0.938619 -2.07783 0
M  V30 14668 C 1389.87 1.27454 -0.982057 0
M  V30 14669 O 1391.06 1.25769 -1.24544 0
M  V30 14670 C 1388.19 2.21499 -2.62285 0
M  V30 14671 C 1387.28 1.90665 -3.78824 0
M  V30 14672 N 1387.67 1.30174 -4.88762 0
M  V30 14673 C 1385.97 2.20559 -3.87646 0
M  V30 14674 C 1386.67 1.16872 -5.69838 0
M  V30 14675 N 1385.64 1.67016 -5.17307 0
M  V30 14676 H 1389.44 0.466179 -2.90179 0
M  V30 14677 H 1386.96 0.157752 -1.61632 0
M  V30 14678 H 1388.96 2.92987 -2.96588 0
M  V30 14679 H 1387.62 2.69353 -1.81326 0
M  V30 14680 H 1388.63 0.974495 -5.08649 0
M  V30 14681 H 1385.3 2.70964 -3.17623 0
M  V30 14682 H 1386.69 0.699463 -6.68249 0
M  V30 14683 N 1389.41 1.55964 0.226527 0
M  V30 14684 C 1390.83 1.48844 0.575999 0
M  V30 14685 C 1391.03 0.740966 1.87382 0
M  V30 14686 O 1390.09 0.278599 2.50958 0
M  V30 14687 C 1391.4 2.93371 0.65984 0
M  V30 14688 C 1392.95 3.03862 0.750802 0
M  V30 14689 C 1393.42 4.49738 0.86603 0
M  V30 14690 N 1394.91 4.5376 0.930379 0
M  V30 14691 C 1395.65 5.63905 1.03916 0
M  V30 14692 N 1395.14 6.83814 1.1122 0
M  V30 14693 N 1396.94 5.51746 1.07391 0
M  V30 14694 H 1389.09 2.02991 -0.625179 0
M  V30 14695 H 1391.35 0.922435 -0.218674 0
M  V30 14696 H 1391.06 3.50985 -0.22411 0
M  V30 14697 H 1390.93 3.44994 1.52509 0
M  V30 14698 H 1393.32 2.46316 1.6252 0
M  V30 14699 H 1393.4 2.55416 -0.140019 0
M  V30 14700 H 1393.04 5.079 -0.00388632 0
M  V30 14701 H 1392.97 4.95884 1.77219 0
M  V30 14702 H 1395.46 3.67404 0.884451 0
M  V30 14703 H 1395.78 7.63507 1.19484 0
M  V30 14704 H 1394.12 6.86535 1.08142 0
M  V30 14705 H 1397.31 4.56997 1.01347 0
M  V30 14706 H 1397.49 6.37619 1.15523 0
M  V30 14707 N 1390.89 -0.493031 1.4969 0
M  V30 14708 C 1391.8 -1.61991 1.69694 0
M  V30 14709 C 1392.82 -1.64061 0.579641 0
M  V30 14710 O 1393.99 -1.82335 0.855323 0
M  V30 14711 C 1391.06 -2.98323 1.76648 0
M  V30 14712 C 1390.12 -3.06816 3.00271 0
M  V30 14713 C 1389.35 -4.36644 3.06883 0
M  V30 14714 O 1389.58 -5.25901 2.20872 0
M  V30 14715 O 1388.51 -4.50275 3.99419 0
M  V30 14716 H 1392.34 -1.48042 2.65174 0
M  V30 14717 H 1389.92 -0.670182 1.33525 0
M  V30 14718 H 1391.8 -3.79335 1.83529 0
M  V30 14719 H 1390.48 -3.12517 0.843482 0
M  V30 14720 H 1389.39 -2.24962 2.98903 0
M  V30 14721 H 1390.72 -2.97551 3.92077 0
M  V30 14722 N 1392.37 -1.38898 -0.744656 0
M  V30 14723 C 1393.28 -1.39098 -1.88915 0
M  V30 14724 C 1394.3 -0.286956 -1.71617 0
M  V30 14725 O 1395.47 -0.526852 -1.94387 0
M  V30 14726 C 1392.54 -1.22352 -3.24393 0
M  V30 14727 C 1391.6 -2.4264 -3.54153 0
M  V30 14728 C 1390.83 -2.26683 -4.83167 0
M  V30 14729 O 1391.05 -1.26523 -5.56191 0
M  V30 14730 O 1389.99 -3.15464 -5.12607 0
M  V30 14731 H 1393.81 -2.35551 -1.91701 0
M  V30 14732 H 1391.4 -1.19911 -0.891158 0
M  V30 14733 H 1393.28 -1.15109 -4.05374 0
M  V30 14734 H 1391.96 -0.289886 -3.22399 0
M  V30 14735 H 1390.86 -2.55459 -2.73298 0
M  V30 14736 H 1392.2 -3.34664 -3.60917 0
M  V30 14737 N 1393.85 0.973806 -1.23914 0
M  V30 14738 C 1394.78 2.08526 -1.05068 0
M  V30 14739 C 1395.76 1.70065 0.0344761 0
M  V30 14740 O 1396.94 1.93755 -0.131432 0
M  V30 14741 C 1394.07 3.41198 -0.648165 0
M  V30 14742 C 1393.03 3.9359 -1.6814 0
M  V30 14743 C 1392.35 5.22534 -1.13414 0
M  V30 14744 C 1393.65 4.22116 -3.07597 0
M  V30 14745 H 1395.35 2.24551 -1.98034 0
M  V30 14746 H 1392.89 1.07905 -0.953546 0
M  V30 14747 H 1394.85 4.18383 -0.50334 0
M  V30 14748 H 1393.57 3.25056 0.317182 0
M  V30 14749 H 1392.23 3.18555 -1.81434 0
M  V30 14750 H 1391.88 5.02747 -0.159578 0
M  V30 14751 H 1391.58 5.58555 -1.82456 0
M  V30 14752 H 1393.1 6.02334 -1.0013 0
M  V30 14753 H 1394.52 4.90027 -2.97567 0
M  V30 14754 H 1392.91 4.69352 -3.73937 0
M  V30 14755 H 1393.98 3.29128 -3.56094 0
M  V30 14756 N 1395.33 1.05191 1.17357 0
M  V30 14757 C 1396.57 0.763113 1.87895 0
M  V30 14758 C 1396.91 -0.708071 1.80831 0
M  V30 14759 O 1396.18 -1.51777 1.21631 0
M  V30 14760 C 1396.46 1.2442 3.37923 0
M  V30 14761 C 1396.32 2.77832 3.53737 0
M  V30 14762 C 1397.64 0.843209 4.31947 0
M  V30 14763 H 1394.75 0.27869 0.682276 0
M  V30 14764 H 1397.4 1.3059 1.38008 0
M  V30 14765 H 1395.55 0.782438 3.80539 0
M  V30 14766 H 1397.22 3.32131 3.20135 0
M  V30 14767 H 1395.46 3.17108 2.96015 0
M  V30 14768 H 1396.13 3.06555 4.59052 0
M  V30 14769 H 1398.61 1.24073 3.97171 0
M  V30 14770 H 1397.48 1.20743 5.35455 0
M  V30 14771 H 1397.75 -0.252802 4.41377 0
M  V30 14772 N 1396.8 -1.33791 0.83293 0
M  V30 14773 C 1398.03 -2.01894 0.43844 0
M  V30 14774 C 1398.44 -1.62844 -0.963247 0
M  V30 14775 O 1397.79 -0.834636 -1.63644 0
M  V30 14776 C 1397.85 -3.5638 0.472604 0
M  V30 14777 C 1397.51 -4.18788 1.82937 0
M  V30 14778 C 1398.51 -4.38588 2.79172 0
M  V30 14779 C 1396.19 -4.55342 2.12058 0
M  V30 14780 C 1398.19 -4.94081 4.02694 0
M  V30 14781 C 1395.87 -5.10544 3.35839 0
M  V30 14782 C 1396.87 -5.29859 4.30974 0
M  V30 14783 O 1396.56 -5.83889 5.52566 0
M  V30 14784 H 1396.29 -0.65348 0.173031 0
M  V30 14785 H 1398.85 -1.71827 1.12537 0
M  V30 14786 H 1397.08 -3.85749 -0.271074 0
M  V30 14787 H 1398.77 -4.05785 0.0967701 0
M  V30 14788 H 1399.53 -4.10701 2.57972 0
M  V30 14789 H 1395.41 -4.39607 1.38806 0
M  V30 14790 H 1398.95 -5.09072 4.7696 0
M  V30 14791 H 1394.85 -5.3786 3.56898 0
M  V30 14792 H 1395.62 -6.02311 5.54224 0
M  V30 14793 N 1398.28 -0.588812 -1.46187 0
M  V30 14794 C 1399.19 0.143253 -2.34162 0
M  V30 14795 C 1400.21 0.879779 -1.5012 0
M  V30 14796 O 1401.38 0.841592 -1.82973 0
M  V30 14797 C 1398.45 1.14017 -3.27416 0
M  V30 14798 C 1397.51 0.407651 -4.2736 0
M  V30 14799 C 1396.74 1.35708 -5.16158 0
M  V30 14800 O 1396.97 2.59394 -5.08007 0
M  V30 14801 O 1395.9 0.864343 -5.95662 0
M  V30 14802 H 1399.73 -0.579228 -2.98125 0
M  V30 14803 H 1397.31 -0.349174 -1.45262 0
M  V30 14804 H 1399.19 1.71484 -3.8493 0
M  V30 14805 H 1397.87 1.84401 -2.66041 0
M  V30 14806 H 1396.78 -0.209011 -3.73516 0
M  V30 14807 H 1398.11 -0.255334 -4.91537 0
M  V30 14808 N 1399.76 1.54172 -0.326923 0
M  V30 14809 C 1400.69 2.27402 0.530154 0
M  V30 14810 C 1401.67 1.28325 1.11655 0
M  V30 14811 O 1402.86 1.57142 1.14105 0
M  V30 14812 C 1399.99 3.03435 1.68951 0
M  V30 14813 C 1398.94 4.09877 1.23226 0
M  V30 14814 C 1398.27 4.7377 2.47882 0
M  V30 14815 C 1399.57 5.21161 0.344698 0
M  V30 14816 H 1401.26 2.99291 -0.0806959 0
M  V30 14817 H 1398.81 1.43944 -0.0402511 0
M  V30 14818 H 1400.76 3.53396 2.29541 0
M  V30 14819 H 1399.48 2.29169 2.327 0
M  V30 14820 H 1398.14 3.60805 0.649267 0
M  V30 14821 H 1397.79 3.96116 3.10002 0
M  V30 14822 H 1397.49 5.45674 2.17977 0
M  V30 14823 H 1399.01 5.26507 3.09229 0
M  V30 14824 H 1400.43 5.66859 0.856979 0
M  V30 14825 H 1398.83 5.99941 0.138276 0
M  V30 14826 H 1399.9 4.80874 -0.623575 0
M  V30 14827 N 1401.24 0.0551678 1.57503 0
M  V30 14828 C 1402.19 -0.935665 2.12951 0
M  V30 14829 C 1403.18 -1.31954 1.06229 0
M  V30 14830 O 1404.39 -1.29873 1.24632 0
M  V30 14831 H 1400.76 -0.319618 0.680697 0
M  V30 14832 H 1402.73 -0.442937 2.95094 0
M  V30 14833 C 1401.48 -2.19977 2.69268 0
M  V30 14834 H 1400.8 -1.91319 3.51051 0
M  V30 14835 H 1402.24 -2.87456 3.11681 0
M  V30 14836 C 1400.7 -2.94714 1.63233 0
M  V30 14837 O 1401.23 -3.87803 1.04747 0
M  V30 14838 N 1399.44 -2.57518 1.34659 0
M  V30 14839 H 1398.99 -1.81894 1.82407 0
M  V30 14840 H 1398.94 -3.07829 0.639425 0
M  V30 14841 N 1402.72 -1.56081 -0.218252 0
M  V30 14842 C 1404.13 -1.69397 -0.784964 0
M  V30 14843 C 1404.48 -0.65775 -1.84846 0
M  V30 14844 O 1403.6 0.190478 -2.1556 0
M  V30 14845 C 1404.2 -3.07114 -1.4306 0
M  V30 14846 C 1402.76 -3.22273 -1.94466 0
M  V30 14847 C 1401.9 -2.65327 -0.80604 0
M  V30 14848 H 1404.86 -1.58699 0.0064566 0
M  V30 14849 H 1404.88 -3.03156 -2.2995 0
M  V30 14850 H 1404.39 -3.8251 -0.656335 0
M  V30 14851 H 1402.49 -2.51752 -2.74684 0
M  V30 14852 H 1402.6 -4.29526 -2.12237 0
M  V30 14853 H 1400.97 -2.23894 -1.21423 0
M  V30 14854 H 1401.75 -3.43271 -0.0443928 0
M  V30 14855 N 1404.2 0.485086 -1.49949 0
M  V30 14856 C 1405.13 1.59312 -1.7071 0
M  V30 14857 C 1406.11 1.6076 -0.555896 0
M  V30 14858 O 1407.29 1.77249 -0.793504 0
M  V30 14859 C 1404.42 2.97718 -1.78834 0
M  V30 14860 C 1403.38 3.11136 -2.93902 0
M  V30 14861 C 1402.7 4.51051 -2.87154 0
M  V30 14862 C 1404 2.89665 -4.34617 0
M  V30 14863 H 1405.7 1.42192 -2.6348 0
M  V30 14864 H 1403.24 0.68262 -1.26792 0
M  V30 14865 H 1405.19 3.75148 -1.91943 0
M  V30 14866 H 1403.92 3.15963 -0.826744 0
M  V30 14867 H 1402.58 2.36135 -2.80421 0
M  V30 14868 H 1402.23 4.66195 -1.88869 0
M  V30 14869 H 1401.93 4.60967 -3.64394 0
M  V30 14870 H 1403.45 5.3052 -3.02293 0
M  V30 14871 H 1404.86 3.56853 -4.48697 0
M  V30 14872 H 1403.26 3.11039 -5.13201 0
M  V30 14873 H 1404.33 1.85642 -4.47956 0
M  V30 14874 N 1405.67 1.39291 0.737279 0
M  V30 14875 C 1406.95 1.26901 1.48847 0
M  V30 14876 C 1407.33 -0.122417 2.10745 0
M  V30 14877 O 1406.68 -1.13343 1.98408 0
M  V30 14878 C 1406.89 2.3916 2.54172 0
M  V30 14879 C 1408.24 2.78368 3.20619 0
M  V30 14880 O 1409.26 2.38593 2.64484 0
M  V30 14881 O 1408.12 3.47014 4.22189 0
M  V30 14882 H 1405.21 0.497176 0.660867 0
M  V30 14883 H 1407.76 1.51159 0.771299 0
M  V30 14884 H 1406.53 3.3219 2.06797 0
M  V30 14885 H 1406.15 2.16555 3.33451 0
M  V30 14886 N 1407.15 -0.967221 1.24429 0
M  V30 14887 C 1408.1 -2.047 1.00409 0
M  V30 14888 C 1409.09 -1.60807 -0.0546412 0
M  V30 14889 O 1410.28 -1.76283 0.159145 0
M  V30 14890 C 1407.41 -3.37813 0.611345 0
M  V30 14891 C 1406.49 -3.88266 1.70618 0
M  V30 14892 N 1406.88 -4.1165 2.93901 0
M  V30 14893 C 1405.18 -4.16931 1.5838 0
M  V30 14894 C 1405.88 -4.53032 3.64879 0
M  V30 14895 N 1404.86 -4.58233 2.92444 0
M  V30 14896 H 1408.66 -2.20755 1.94021 0
M  V30 14897 H 1406.17 -1.15105 1.14562 0
M  V30 14898 H 1408.17 -4.14774 0.420493 0
M  V30 14899 H 1406.83 -3.23143 -0.317588 0
M  V30 14900 H 1407.84 -3.99087 3.30075 0
M  V30 14901 H 1404.52 -4.11193 0.722929 0
M  V30 14902 H 1405.91 -4.79533 4.70635 0
M  V30 14903 N 1408.63 -1.05812 -1.16797 0
M  V30 14904 C 1410.05 -0.780649 -1.39205 0
M  V30 14905 C 1410.25 0.622191 -1.91653 0
M  V30 14906 O 1409.3 1.38357 -2.11219 0
M  V30 14907 C 1410.61 -1.84148 -2.37718 0
M  V30 14908 C 1412.16 -1.86442 -2.51413 0
M  V30 14909 C 1412.64 -2.91566 -3.53204 0
M  V30 14910 N 1414.13 -2.90568 -3.60727 0
M  V30 14911 C 1414.86 -3.68556 -4.39265 0
M  V30 14912 N 1414.36 -4.56348 -5.21266 0
M  V30 14913 N 1416.15 -3.56969 -4.342 0
M  V30 14914 H 1408.3 -1.96313 -0.810871 0
M  V30 14915 H 1410.57 -0.850421 -0.418913 0
M  V30 14916 H 1410.27 -2.84864 -2.06265 0
M  V30 14917 H 1410.15 -1.68838 -3.37303 0
M  V30 14918 H 1412.53 -0.863873 -2.82172 0
M  V30 14919 H 1412.61 -2.0583 -1.5188 0
M  V30 14920 H 1412.26 -3.91811 -3.23182 0
M  V30 14921 H 1412.19 -2.69429 -4.52455 0
M  V30 14922 H 1414.68 -2.26918 -3.02186 0
M  V30 14923 H 1414.99 -5.12523 -5.78394 0
M  V30 14924 H 1413.34 -4.60406 -5.20626 0
M  V30 14925 H 1416.53 -2.87772 -3.69195 0
M  V30 14926 H 1416.7 -4.17993 -4.95162 0
M  V30 14927 N 1410.11 1.33347 -0.840014 0
M  V30 14928 C 1411.36 1.97354 -0.435412 0
M  V30 14929 C 1411.68 1.66866 1.009 0
M  V30 14930 O 1410.95 0.968186 1.70303 0
M  V30 14931 H 1409.53 0.730096 -0.158017 0
M  V30 14932 H 1412.19 1.6269 -1.07322 0
M  V30 14933 H 1411.28 3.0688 -0.56841 0
M  V30 14934 N 1411.59 0.596556 1.45873 0
M  V30 14935 C 1413 0.259317 1.57479 0
M  V30 14936 C 1413.2 -1.23829 1.58961 0
M  V30 14937 O 1412.26 -2.02076 1.51399 0
M  V30 14938 C 1413.57 0.920755 2.86256 0
M  V30 14939 C 1415.12 0.895638 2.99912 0
M  V30 14940 C 1415.59 1.53688 4.31444 0
M  V30 14941 N 1417.08 1.50186 4.38176 0
M  V30 14942 C 1417.82 1.96727 5.38596 0
M  V30 14943 N 1417.32 2.51304 6.45615 0
M  V30 14944 N 1419.11 1.87561 5.29884 0
M  V30 14945 H 1411.26 1.56909 1.43155 0
M  V30 14946 H 1413.52 0.656664 0.683737 0
M  V30 14947 H 1413.23 1.97481 2.91023 0
M  V30 14948 H 1413.1 0.437331 3.74656 0
M  V30 14949 H 1415.49 -0.149838 2.94719 0
M  V30 14950 H 1415.57 1.41722 2.12952 0
M  V30 14951 H 1415.21 2.58163 4.37395 0
M  V30 14952 H 1415.14 0.990408 5.17203 0
M  V30 14953 H 1417.64 1.10305 3.61443 0
M  V30 14954 H 1417.95 2.84639 7.18471 0
M  V30 14955 H 1416.29 2.55337 6.46396 0
M  V30 14956 H 1419.48 1.4467 4.45183 0
M  V30 14957 H 1419.66 2.24146 6.07999 0
M  V30 14958 N 1413.06 -1.53996 0.335095 0
M  V30 14959 C 1414.29 -2.05188 -0.26563 0
M  V30 14960 C 1414.71 -1.21058 -1.44881 0
M  V30 14961 O 1414.06 -0.243919 -1.80863 0
M  V30 14962 C 1414.11 -3.54875 -0.688904 0
M  V30 14963 O 1413.84 -4.35811 0.447217 0
M  V30 14964 C 1415.34 -4.22204 -1.35123 0
M  V30 14965 H 1412.56 -0.668921 -0.0527806 0
M  V30 14966 H 1415.1 -1.98675 0.48463 0
M  V30 14967 H 1413.26 -3.61638 -1.38912 0
M  V30 14968 H 1413.67 -5.24381 0.111495 0
M  V30 14969 H 1415.14 -5.28356 -1.59823 0
M  V30 14970 H 1415.62 -3.74029 -2.30216 0
M  V30 14971 H 1416.23 -4.19611 -0.693283 0
M  V30 14972 N 1414.54 -0.0635198 -1.57472 0
M  V30 14973 C 1415.47 0.90431 -2.15278 0
M  V30 14974 C 1416.45 1.31609 -1.07764 0
M  V30 14975 O 1417.64 1.38861 -1.35762 0
M  V30 14976 C 1414.77 2.17483 -2.70774 0
M  V30 14977 C 1413.72 1.90272 -3.8338 0
M  V30 14978 C 1413.05 3.23885 -4.25444 0
M  V30 14979 C 1414.35 1.21454 -5.07983 0
M  V30 14980 H 1416.04 0.422786 -2.964 0
M  V30 14981 H 1413.59 0.201918 -1.42577 0
M  V30 14982 H 1415.54 2.856 -3.09856 0
M  V30 14983 H 1414.26 2.67863 -1.86861 0
M  V30 14984 H 1412.92 1.24564 -3.44789 0
M  V30 14985 H 1412.57 3.72089 -3.38465 0
M  V30 14986 H 1412.27 3.06472 -5.01347 0
M  V30 14987 H 1413.8 3.93212 -4.67137 0
M  V30 14988 H 1415.21 1.79625 -5.44433 0
M  V30 14989 H 1413.61 1.14327 -5.89109 0
M  V30 14990 H 1414.68 0.19238 -4.84518 0
M  V30 14991 N 1416.02 1.56195 0.209972 0
M  V30 14992 C 1416.93 1.96539 1.28101 0
M  V30 14993 C 1417.95 0.870858 1.50639 0
M  V30 14994 O 1419.12 1.17539 1.63544 0
M  V30 14995 C 1416.19 2.28392 2.60841 0
M  V30 14996 C 1415.25 3.51474 2.46505 0
M  V30 14997 C 1414.48 3.81798 3.72915 0
M  V30 14998 O 1414.7 3.13627 4.76439 0
M  V30 14999 O 1413.64 4.75264 3.69334 0
M  V30 15000 H 1417.46 2.87838 0.968671 0
M  V30 15001 H 1415.05 1.43556 0.413777 0
M  V30 15002 H 1416.93 2.50022 3.39215 0
M  V30 15003 H 1415.61 1.40264 2.91732 0
M  V30 15004 H 1414.51 3.35109 1.66292 0
M  V30 15005 H 1415.85 4.40021 2.2055 0
M  V30 15006 N 1417.5 -0.477127 1.50204 0
M  V30 15007 C 1418.75 -1.22639 1.60133 0
M  V30 15008 C 1419.06 -1.93218 0.304333 0
M  V30 15009 O 1420.27 -2.70027 0.282457 0
M  V30 15010 C 1418.72 -2.22807 2.82639 0
M  V30 15011 C 1418.33 -1.58059 4.19191 0
M  V30 15012 C 1420.07 -2.98413 3.01911 0
M  V30 15013 C 1417.98 -2.56478 5.32891 0
M  V30 15014 H 1416.91 -0.461439 0.596314 0
M  V30 15015 H 1419.56 -0.497533 1.76626 0
M  V30 15016 H 1417.94 -2.98959 2.59692 0
M  V30 15017 H 1419.12 -0.877374 4.5237 0
M  V30 15018 H 1417.43 -0.947563 4.05475 0
M  V30 15019 H 1420.03 -3.72059 3.84026 0
M  V30 15020 H 1420.37 -3.57444 2.134 0
M  V30 15021 H 1420.91 -2.29375 3.25011 0
M  V30 15022 H 1417.64 -2.02194 6.23536 0
M  V30 15023 H 1417.16 -3.24969 5.04138 0
M  V30 15024 H 1418.84 -3.18429 5.63216 0
M  V30 15025 N 1418.98 -1.3968 -0.729882 0
M  V30 15026 C 1420.39 -1.33184 -1.30839 0
M  V30 15027 C 1420.74 0.00141129 -1.962 0
M  V30 15028 O 1419.86 0.903523 -1.96635 0
M  V30 15029 C 1420.46 -2.41211 -2.37913 0
M  V30 15030 C 1419.02 -2.3822 -2.91424 0
M  V30 15031 C 1418.16 -2.22832 -1.65049 0
M  V30 15032 H 1421.12 -1.49694 -0.527023 0
M  V30 15033 H 1421.14 -2.08294 -3.18424 0
M  V30 15034 H 1420.65 -3.38234 -1.90313 0
M  V30 15035 H 1418.75 -1.4485 -3.43292 0
M  V30 15036 H 1418.86 -3.33271 -3.44191 0
M  V30 15037 H 1417.23 -1.70095 -1.89578 0
M  V30 15038 H 1418.01 -3.21832 -1.19494 0
M  V30 15039 N 1420.45 0.960609 -1.2494 0
M  V30 15040 C 1421.7 1.70111 -1.09117 0
M  V30 15041 C 1422.02 1.91466 0.369544 0
M  V30 15042 O 1421.29 1.49749 1.26302 0
M  V30 15043 H 1419.87 0.630372 -0.400799 0
M  V30 15044 H 1422.54 1.15525 -1.56971 0
M  V30 15045 H 1421.63 2.68277 -1.5948 0
M  V30 15046 N 1421.93 1.0643 1.16234 0
M  V30 15047 C 1422.88 0.670457 2.22728 0
M  V30 15048 C 1423.87 -0.31428 1.66459 0
M  V30 15049 O 1425.08 -0.178996 1.79108 0
M  V30 15050 H 1421.46 0.198692 0.725276 0
M  V30 15051 H 1423.43 1.57846 2.53233 0
M  V30 15052 C 1422.18 0.074379 3.4762 0
M  V30 15053 H 1421.5 0.823227 3.91233 0
M  V30 15054 H 1422.94 -0.163652 4.23684 0
M  V30 15055 C 1421.4 -1.18242 3.15469 0
M  V30 15056 O 1421.93 -2.27018 3.314 0
M  V30 15057 N 1420.13 -1.08493 2.69588 0
M  V30 15058 H 1419.68 -0.199714 2.56825 0
M  V30 15059 H 1419.64 -1.92666 2.48449 0
M  V30 15060 N 1423.41 -1.329 0.847073 0
M  V30 15061 C 1424.64 -2.02244 0.459588 0
M  V30 15062 C 1425.06 -1.63279 -0.933897 0
M  V30 15063 O 1424.42 -0.829551 -1.61208 0
M  V30 15064 C 1424.47 -3.55616 0.59745 0
M  V30 15065 O 1423.57 -4.1071 -0.372919 0
M  V30 15066 H 1422.91 -0.637504 0.1857 0
M  V30 15067 H 1425.44 -1.69617 1.14417 0
M  V30 15068 H 1425.45 -4.05141 0.482145 0
M  V30 15069 H 1424.13 -3.8332 1.61365 0
M  V30 15070 H 1422.7 -3.72283 -0.214487 0
M  V30 15071 N 1424.89 -0.604284 -1.45555 0
M  V30 15072 C 1426.17 -0.0303285 -1.95576 0
M  V30 15073 C 1426.55 1.43661 -1.54676 0
M  V30 15074 O 1425.89 2.13747 -0.807731 0
M  V30 15075 C 1426.1 -0.22497 -3.48274 0
M  V30 15076 C 1427.45 -0.104042 -4.24473 0
M  V30 15077 O 1428.48 -0.154919 -3.55863 0
M  V30 15078 O 1427.33 0.0136297 -5.46498 0
M  V30 15079 H 1424.43 0.0376106 -0.826144 0
M  V30 15080 H 1426.97 -0.674114 -1.55736 0
M  V30 15081 H 1425.75 -1.24391 -3.71002 0
M  V30 15082 H 1425.37 0.454234 -3.94997 0
M  V30 15083 N 1426.37 1.53816 -0.343257 0
M  V30 15084 C 1427.78 1.86169 0.140709 0
M  V30 15085 C 1428.13 1.26449 1.50017 0
M  V30 15086 O 1427.25 0.577955 2.08539 0
M  V30 15087 C 1427.85 3.37785 0.262097 0
M  V30 15088 C 1426.41 3.70016 0.690294 0
M  V30 15089 C 1425.55 2.7674 -0.17614 0
M  V30 15090 H 1428.51 1.48383 -0.562863 0
M  V30 15091 H 1428.53 3.64564 1.08964 0
M  V30 15092 H 1428.04 3.81221 -0.727481 0
M  V30 15093 H 1426.14 3.32124 1.68891 0
M  V30 15094 H 1426.25 4.76686 0.480388 0
M  V30 15095 H 1424.62 2.52263 0.351476 0
M  V30 15096 H 1425.4 3.23006 -1.16285 0
M  V30 15097 N 1427.84 0.0718701 1.57436 0
M  V30 15098 C 1428.79 -0.913026 2.13931 0
M  V30 15099 C 1429.79 -1.3082 1.07622 0
M  V30 15100 O 1430.99 -1.28544 1.26002 0
M  V30 15101 H 1427.37 -0.31238 0.684049 0
M  V30 15102 H 1429.34 -0.411613 2.95547 0
M  V30 15103 C 1428.09 -2.17109 2.71586 0
M  V30 15104 H 1427.41 -1.87585 3.53061 0
M  V30 15105 H 1428.85 -2.84134 3.14712 0
M  V30 15106 C 1427.31 -2.92967 1.6635 0
M  V30 15107 O 1427.84 -3.8667 1.08854 0
M  V30 15108 N 1426.05 -2.56075 1.37383 0
M  V30 15109 H 1425.59 -1.79949 1.84326 0
M  V30 15110 H 1425.55 -3.07134 0.672039 0
M  V30 15111 N 1429.32 -1.56304 -0.201686 0
M  V30 15112 C 1430.26 -1.8907 -1.27781 0
M  V30 15113 C 1431.23 -0.75009 -1.44265 0
M  V30 15114 O 1432.42 -1.00044 -1.59761 0
M  V30 15115 C 1429.54 -2.11513 -2.64537 0
M  V30 15116 C 1428.59 -3.34214 -2.64959 0
M  V30 15117 S 1429.42 -4.89541 -2.17047 0
M  V30 15118 C 1430.58 -5.15044 -3.55641 0
M  V30 15119 H 1430.81 -2.8005 -0.997971 0
M  V30 15120 H 1428.35 -1.48997 -0.404872 0
M  V30 15121 H 1430.3 -2.25126 -3.43262 0
M  V30 15122 H 1428.96 -1.21295 -2.89735 0
M  V30 15123 H 1428.16 -3.47023 -3.65501 0
M  V30 15124 H 1427.76 -3.1956 -1.94312 0
M  V30 15125 H 1430.05 -5.05161 -4.51463 0
M  V30 15126 H 1430.99 -6.16838 -3.47731 0
M  V30 15127 H 1431.4 -4.42704 -3.50248 0
M  V30 15128 N 1430.8 0.469154 -1.50455 0
M  V30 15129 C 1432.05 1.21788 -1.60781 0
M  V30 15130 C 1432.36 1.93054 -0.314576 0
M  V30 15131 O 1433.57 2.69873 -0.296773 0
M  V30 15132 C 1432.02 2.21305 -2.83817 0
M  V30 15133 C 1431.63 1.55833 -4.20024 0
M  V30 15134 C 1433.38 2.96808 -3.03489 0
M  V30 15135 C 1431.28 2.53648 -5.34244 0
M  V30 15136 H 1430.21 0.45827 -0.598752 0
M  V30 15137 H 1432.86 0.488159 -1.76888 0
M  V30 15138 H 1431.25 2.97577 -2.61273 0
M  V30 15139 H 1432.42 0.853371 -4.52829 0
M  V30 15140 H 1430.74 0.926046 -4.05972 0
M  V30 15141 H 1433.33 3.70017 -3.85994 0
M  V30 15142 H 1433.68 3.56307 -2.15293 0
M  V30 15143 H 1434.21 2.27648 -3.26223 0
M  V30 15144 H 1430.95 1.98885 -6.246 0
M  V30 15145 H 1430.47 3.22291 -5.05854 0
M  V30 15146 H 1432.15 3.15438 -5.64897 0
M  V30 15147 N 1432.28 1.40065 0.722464 0
M  V30 15148 C 1433.69 1.33876 1.30131 0
M  V30 15149 C 1434.04 0.00899369 1.96198 0
M  V30 15150 O 1433.17 -0.893082 1.97112 0
M  V30 15151 C 1433.76 2.42469 2.36631 0
M  V30 15152 C 1432.32 2.39762 2.90157 0
M  V30 15153 C 1431.47 2.23704 1.63865 0
M  V30 15154 H 1434.42 1.49971 0.519077 0
M  V30 15155 H 1434.44 2.0998 3.17315 0
M  V30 15156 H 1433.95 3.39239 1.88517 0
M  V30 15157 H 1432.05 1.46669 3.42519 0
M  V30 15158 H 1432.16 3.35092 3.42419 0
M  V30 15159 H 1430.53 1.71098 1.88674 0
M  V30 15160 H 1431.31 3.22462 1.17785 0
M  V30 15161 N 1433.76 -0.95397 1.25448 0
M  V30 15162 C 1435.03 -1.67502 1.01008 0
M  V30 15163 C 1435.41 -2.05949 -0.463483 0
M  V30 15164 O 1434.76 -1.77336 -1.44098 0
M  V30 15165 C 1434.97 -2.89679 1.94645 0
M  V30 15166 C 1436.32 -3.61617 2.22526 0
M  V30 15167 O 1437.34 -2.99762 1.92409 0
M  V30 15168 O 1436.2 -4.72998 2.73743 0
M  V30 15169 H 1433.3 -0.732917 0.383094 0
M  V30 15170 H 1435.84 -1.00684 1.36605 0
M  V30 15171 H 1434.62 -2.58063 2.94141 0
M  V30 15172 H 1434.24 -3.64228 1.59449 0
M  V30 15173 N 1435.24 -1.07045 -1.15668 0
M  V30 15174 C 1436.48 -0.790172 -1.86013 0
M  V30 15175 C 1436.8 0.685663 -1.82548 0
M  V30 15176 O 1436.07 1.49644 -1.26426 0
M  V30 15177 H 1434.65 -0.28931 -0.688701 0
M  V30 15178 H 1437.32 -1.35354 -1.40233 0
M  V30 15179 H 1436.41 -1.1219 -2.91239 0
M  V30 15180 N 1436.71 1.32449 -0.85411 0
M  V30 15181 C 1437.99 1.91902 -0.378533 0
M  V30 15182 C 1438.37 1.77811 1.13782 0
M  V30 15183 O 1437.72 1.17588 1.95922 0
M  V30 15184 C 1437.93 3.38683 -0.842299 0
M  V30 15185 C 1439.28 4.15817 -0.859161 0
M  V30 15186 O 1440.3 3.47399 -0.786901 0
M  V30 15187 O 1439.16 5.37985 -0.960933 0
M  V30 15188 H 1436.25 0.819614 -0.110284 0
M  V30 15189 H 1438.8 1.41222 -0.940974 0
M  V30 15190 H 1437.57 3.4288 -1.88544 0
M  V30 15191 H 1437.19 3.96767 -0.257278 0
M  V30 15192 N 1438.19 0.611994 1.45232 0
M  V30 15193 C 1439.44 0.108911 2.02207 0
M  V30 15194 C 1439.77 -1.26219 1.47983 0
M  V30 15195 O 1439.02 -1.84718 0.646368 0
M  V30 15196 C 1439.32 0.0243361 3.57392 0
M  V30 15197 C 1438.99 1.33168 4.30787 0
M  V30 15198 C 1437.65 1.68978 4.50555 0
M  V30 15199 C 1440 2.19549 4.72703 0
M  V30 15200 C 1437.33 2.90913 5.09496 0
M  V30 15201 C 1439.68 3.40737 5.32993 0
M  V30 15202 C 1438.34 3.76794 5.50983 0
M  V30 15203 H 1437.61 0.0398534 0.739927 0
M  V30 15204 H 1440.26 0.794492 1.74241 0
M  V30 15205 H 1438.57 -0.74453 3.84661 0
M  V30 15206 H 1440.26 -0.381139 3.99185 0
M  V30 15207 H 1436.85 1.04296 4.15717 0
M  V30 15208 H 1441.04 1.93181 4.57159 0
M  V30 15209 H 1436.29 3.1895 5.21614 0
M  V30 15210 H 1440.47 4.07919 5.64425 0
M  V30 15211 H 1438.09 4.71364 5.96423 0
M  V30 15212 N 1439.67 -1.53632 0.351409 0
M  V30 15213 C 1440.62 -2.26782 -0.516983 0
M  V30 15214 C 1441.61 -1.29222 -1.09536 0
M  V30 15215 O 1442.82 -1.46901 -1.04019 0
M  V30 15216 H 1439.19 -0.728783 -0.185417 0
M  V30 15217 H 1441.16 -2.98151 0.121909 0
M  V30 15218 C 1439.91 -3.05943 -1.6521 0
M  V30 15219 H 1439.24 -3.80848 -1.21633 0
M  V30 15220 H 1440.68 -3.60328 -2.23472 0
M  V30 15221 C 1439.13 -2.15917 -2.58614 0
M  V30 15222 O 1439.66 -1.76049 -3.61067 0
M  V30 15223 N 1437.87 -1.80837 -2.27478 0
M  V30 15224 H 1437.42 -2.13456 -1.44202 0
M  V30 15225 H 1437.38 -1.20886 -2.90231 0
M  V30 15226 N 1441.15 -0.0802183 -1.57396 0
M  V30 15227 C 1442.37 0.599179 -1.98556 0
M  V30 15228 C 1442.8 1.61844 -0.958555 0
M  V30 15229 O 1442.16 1.81146 0.0748226 0
M  V30 15230 C 1442.2 1.23675 -3.38728 0
M  V30 15231 O 1441.31 2.35262 -3.38712 0
M  V30 15232 H 1440.65 0.153366 -0.646045 0
M  V30 15233 H 1443.18 -0.157227 -2.03995 0
M  V30 15234 H 1443.19 1.5816 -3.76098 0
M  V30 15235 H 1441.86 0.489946 -4.13004 0
M  V30 15236 H 1440.44 2.02507 -3.13122 0
M  V30 15237 N 1442.63 1.56409 0.193394 0
M  V30 15238 C 1443.86 1.84569 0.928328 0
M  V30 15239 C 1444.26 0.660788 1.77286 0
M  V30 15240 O 1443.61 -0.379752 1.79732 0
M  V30 15241 C 1443.67 3.06854 1.87299 0
M  V30 15242 C 1443.33 4.40684 1.21025 0
M  V30 15243 C 1444.33 5.16583 0.58635 0
M  V30 15244 C 1442.01 4.87419 1.21359 0
M  V30 15245 C 1444.01 6.37395 -0.0253573 0
M  V30 15246 C 1441.7 6.08167 0.598052 0
M  V30 15247 C 1442.69 6.82997 -0.0203414 0
M  V30 15248 O 1442.38 8.01457 -0.626232 0
M  V30 15249 H 1442.11 0.616966 0.276277 0
M  V30 15250 H 1444.67 2.04373 0.205102 0
M  V30 15251 H 1442.9 2.82938 2.63596 0
M  V30 15252 H 1444.59 3.21645 2.47587 0
M  V30 15253 H 1445.35 4.81569 0.575894 0
M  V30 15254 H 1441.23 4.29129 1.68432 0
M  V30 15255 H 1444.78 6.95743 -0.508644 0
M  V30 15256 H 1440.67 6.42649 0.606017 0
M  V30 15257 H 1441.44 8.16825 -0.523305 0
M  V30 15258 N 1444.1 -0.461169 1.50702 0
M  V30 15259 C 1445.35 -1.21431 1.62427 0
M  V30 15260 C 1445.68 -1.91406 0.328228 0
M  V30 15261 O 1444.96 -1.82563 -0.670898 0
M  V30 15262 C 1445.24 -2.25016 2.8114 0
M  V30 15263 C 1445.09 -1.5928 4.20654 0
M  V30 15264 C 1446.41 -3.26234 2.95397 0
M  V30 15265 H 1443.53 -0.440113 0.59116 0
M  V30 15266 H 1446.17 -0.506726 1.83118 0
M  V30 15267 H 1444.32 -2.85363 2.63629 0
M  V30 15268 H 1446 -1.02454 4.49779 0
M  V30 15269 H 1444.24 -0.895665 4.24453 0
M  V30 15270 H 1444.91 -2.34602 4.99666 0
M  V30 15271 H 1447.39 -2.7592 3.1146 0
M  V30 15272 H 1446.26 -3.96031 3.80067 0
M  V30 15273 H 1446.52 -3.90943 2.06436 0
M  V30 15274 N 1445.58 -1.40446 -0.715026 0
M  V30 15275 C 1447 -1.22488 -1.02317 0
M  V30 15276 C 1447.2 -0.100481 -2.01249 0
M  V30 15277 O 1446.25 0.541447 -2.46626 0
M  V30 15278 C 1447.57 -2.56682 -1.56636 0
M  V30 15279 C 1449.11 -2.63699 -1.68617 0
M  V30 15280 C 1449.59 -3.98163 -2.26342 0
M  V30 15281 N 1451.08 -3.99907 -2.33727 0
M  V30 15282 C 1451.82 -5.00737 -2.79375 0
M  V30 15283 N 1451.31 -6.11961 -3.24771 0
M  V30 15284 N 1453.1 -4.88106 -2.78764 0
M  V30 15285 H 1445.26 -2.12317 -0.0592712 0
M  V30 15286 H 1447.52 -0.943823 -0.088895 0
M  V30 15287 H 1447.22 -3.39615 -0.914036 0
M  V30 15288 H 1447.1 -2.77809 -2.55151 0
M  V30 15289 H 1449.49 -1.81138 -2.32966 0
M  V30 15290 H 1449.57 -2.46402 -0.687004 0
M  V30 15291 H 1449.21 -4.81164 -1.62614 0
M  V30 15292 H 1449.14 -4.1279 -3.26974 0
M  V30 15293 H 1451.63 -3.19592 -2.01666 0
M  V30 15294 H 1451.94 -6.84787 -3.58171 0
M  V30 15295 H 1450.29 -6.15525 -3.22729 0
M  V30 15296 H 1453.48 -4.00307 -2.42635 0
M  V30 15297 H 1453.65 -5.66828 -3.14023 0
M  V30 15298 N 1447.06 0.947303 -1.25952 0
M  V30 15299 C 1448.31 1.6953 -1.11299 0
M  V30 15300 C 1448.64 1.9113 0.343961 0
M  V30 15301 O 1447.91 1.48755 1.25309 0
M  V30 15302 C 1448.2 3.0738 -1.87588 0
M  V30 15303 C 1448.05 2.93145 -3.41154 0
M  V30 15304 C 1449.37 4.07396 -1.66483 0
M  V30 15305 H 1446.49 0.615281 -0.405707 0
M  V30 15306 H 1449.13 1.10064 -1.54874 0
M  V30 15307 H 1447.28 3.58143 -1.50553 0
M  V30 15308 H 1448.95 2.49651 -3.87907 0
M  V30 15309 H 1447.19 2.28902 -3.68492 0
M  V30 15310 H 1447.87 3.9089 -3.89755 0
M  V30 15311 H 1450.34 3.65572 -1.98738 0
M  V30 15312 H 1449.22 5.01876 -2.22287 0
M  V30 15313 H 1449.48 4.379 -0.607916 0
M  V30 15314 N 1448.54 1.07657 1.15099 0
M  V30 15315 C 1449.77 0.822825 1.89835 0
M  V30 15316 C 1450.18 -0.624281 1.7818 0
M  V30 15317 O 1449.54 -1.42844 1.13587 0
M  V30 15318 C 1449.59 1.22598 3.40076 0
M  V30 15319 O 1449.31 2.61631 3.51398 0
M  V30 15320 C 1450.81 1.00199 4.31828 0
M  V30 15321 H 1448.03 0.297288 0.601549 0
M  V30 15322 H 1450.58 1.43384 1.45813 0
M  V30 15323 H 1448.73 0.65923 3.8175 0
M  V30 15324 H 1449.14 2.78163 4.44664 0
M  V30 15325 H 1450.62 1.33355 5.35649 0
M  V30 15326 H 1451.1 -0.0614865 4.39157 0
M  V30 15327 H 1451.7 1.5538 3.959 0
M  V30 15328 N 1450.02 -1.31994 0.861122 0
M  V30 15329 C 1450.98 -2.27019 0.315421 0
M  V30 15330 C 1451.98 -1.51864 -0.528575 0
M  V30 15331 O 1453.17 -1.70867 -0.339154 0
M  V30 15332 C 1450.3 -3.36384 -0.553021 0
M  V30 15333 H 1451.49 -2.768 1.1542 0
M  V30 15334 H 1449.05 -1.42776 0.635982 0
M  V30 15335 H 1449.78 -2.91882 -1.41335 0
M  V30 15336 H 1449.57 -3.92067 0.0511919 0
M  V30 15337 H 1451.06 -4.07172 -0.927392 0
M  V30 15338 N 1451.49 -0.619688 -1.44906 0
M  V30 15339 C 1452.72 -0.124598 -2.07025 0
M  V30 15340 C 1453.14 1.18698 -1.45919 0
M  V30 15341 O 1452.5 1.72552 -0.556366 0
M  V30 15342 C 1452.55 -0.0112238 -3.60598 0
M  V30 15343 O 1451.65 1.03582 -3.9918 0
M  V30 15344 H 1451 -0.0795631 -0.659216 0
M  V30 15345 H 1453.53 -0.853127 -1.85965 0
M  V30 15346 H 1453.54 0.183079 -4.07589 0
M  V30 15347 H 1452.21 -0.968849 -4.04458 0
M  V30 15348 H 1450.79 0.817008 -3.6384 0
M  V30 15349 N 1452.97 1.53444 -0.359552 0
M  V30 15350 C 1454.25 1.93467 0.288106 0
M  V30 15351 C 1454.63 1.29256 1.66901 0
M  V30 15352 O 1453.98 0.449402 2.24037 0
M  V30 15353 C 1454.19 3.47297 0.344359 0
M  V30 15354 C 1455.54 4.20515 0.587585 0
M  V30 15355 O 1456.56 3.53646 0.425818 0
M  V30 15356 O 1455.42 5.39003 0.902119 0
M  V30 15357 H 1452.51 0.809033 0.171451 0
M  V30 15358 H 1455.06 1.64625 -0.411896 0
M  V30 15359 H 1453.83 3.86292 -0.624064 0
M  V30 15360 H 1453.45 3.82353 1.0905 0
M  V30 15361 N 1454.45 0.0885642 1.57351 0
M  V30 15362 C 1455.86 -0.441569 1.81403 0
M  V30 15363 C 1456.21 -1.68582 1.00372 0
M  V30 15364 O 1455.34 -2.15162 0.231153 0
M  V30 15365 C 1455.93 -0.807886 3.29027 0
M  V30 15366 C 1454.49 -1.2828 3.53866 0
M  V30 15367 C 1453.64 -0.276217 2.75921 0
M  V30 15368 H 1456.59 0.314083 1.55561 0
M  V30 15369 H 1456.61 -1.66797 3.41993 0
M  V30 15370 H 1456.12 0.0978886 3.87977 0
M  V30 15371 H 1454.22 -2.2065 3.0024 0
M  V30 15372 H 1454.34 -1.24914 4.62529 0
M  V30 15373 H 1452.7 -0.757007 2.4319 0
M  V30 15374 H 1453.48 0.622123 3.37616 0
M  V30 15375 N 1455.93 -1.56509 -0.185096 0
M  V30 15376 C 1456.86 -1.98363 -1.23184 0
M  V30 15377 C 1457.84 -0.85709 -1.46929 0
M  V30 15378 O 1459.02 -1.12216 -1.58497 0
M  V30 15379 C 1456.15 -2.33172 -2.57387 0
M  V30 15380 C 1455.11 -3.48658 -2.48236 0
M  V30 15381 C 1454.43 -3.69171 -3.86804 0
M  V30 15382 C 1455.73 -4.82538 -1.99885 0
M  V30 15383 H 1457.43 -2.86053 -0.883982 0
M  V30 15384 H 1454.97 -1.37623 -0.423786 0
M  V30 15385 H 1456.93 -2.61048 -3.30805 0
M  V30 15386 H 1455.65 -1.42377 -2.93933 0
M  V30 15387 H 1454.31 -3.20889 -1.77273 0
M  V30 15388 H 1453.96 -2.75689 -4.20719 0
M  V30 15389 H 1453.66 -4.46868 -3.81553 0
M  V30 15390 H 1455.18 -3.99433 -4.61829 0
M  V30 15391 H 1456.6 -5.0938 -2.63068 0
M  V30 15392 H 1454.99 -5.63775 -2.05614 0
M  V30 15393 H 1456.06 -4.75453 -0.952503 0
M  V30 15394 N 1457.41 0.45317 -1.50944 0
M  V30 15395 C 1458.68 1.21413 -1.53357 0
M  V30 15396 C 1459.06 2.09118 -0.288584 0
M  V30 15397 O 1458.41 2.16621 0.727164 0
M  V30 15398 C 1458.62 2.02969 -2.83909 0
M  V30 15399 C 1459.97 2.60551 -3.35258 0
M  V30 15400 O 1460.99 2.13196 -2.85353 0
M  V30 15401 O 1459.85 3.46881 -4.22298 0
M  V30 15402 H 1456.95 0.551909 -0.615894 0
M  V30 15403 H 1459.49 0.463529 -1.63247 0
M  V30 15404 H 1458.26 1.38453 -3.65987 0
M  V30 15405 H 1457.89 2.85127 -2.77107 0
M  V30 15406 N 1458.88 1.40823 0.707568 0
M  V30 15407 C 1460.11 1.42866 1.49656 0
M  V30 15408 C 1460.53 0.0305663 1.88775 0
M  V30 15409 O 1459.88 -0.947376 1.55984 0
M  V30 15410 C 1459.94 2.32661 2.76679 0
M  V30 15411 O 1459.66 3.67028 2.39211 0
M  V30 15412 C 1461.16 2.4338 3.70514 0
M  V30 15413 H 1458.38 0.487009 0.461588 0
M  V30 15414 H 1460.92 1.84969 0.872167 0
M  V30 15415 H 1459.08 1.93898 3.35384 0
M  V30 15416 H 1459.49 4.14799 3.21002 0
M  V30 15417 H 1460.96 3.10401 4.56459 0
M  V30 15418 H 1461.44 1.46132 4.14176 0
M  V30 15419 H 1462.05 2.82728 3.17718 0
M  V30 15420 N 1460.36 -0.94061 1.26453 0
M  V30 15421 C 1461.29 -2.05667 1.10559 0
M  V30 15422 C 1462.27 -1.70097 0.0106258 0
M  V30 15423 O 1463.46 -1.93338 0.182756 0
M  V30 15424 C 1460.59 -3.3936 0.7384 0
M  V30 15425 C 1459.54 -3.88993 1.78517 0
M  V30 15426 C 1458.87 -5.19343 1.27228 0
M  V30 15427 C 1460.17 -4.13812 3.1868 0
M  V30 15428 H 1461.86 -2.19221 2.03918 0
M  V30 15429 H 1459.41 -1.05339 0.98182 0
M  V30 15430 H 1461.36 -4.16902 0.61409 0
M  V30 15431 H 1460.09 -3.25783 -0.230887 0
M  V30 15432 H 1458.74 -3.13633 1.89816 0
M  V30 15433 H 1458.39 -5.02147 0.292816 0
M  V30 15434 H 1458.09 -5.53521 1.97201 0
M  V30 15435 H 1459.62 -5.99468 1.16065 0
M  V30 15436 H 1461.03 -4.81966 3.10455 0
M  V30 15437 H 1459.43 -4.59273 3.86249 0
M  V30 15438 H 1460.5 -3.19571 3.64695 0
M  V30 15439 N 1461.84 -1.08266 -1.14527 0
M  V30 15440 C 1463.09 -0.809856 -1.85164 0
M  V30 15441 C 1463.41 0.666263 -1.83265 0
M  V30 15442 O 1462.68 1.48295 -1.28006 0
M  V30 15443 H 1461.26 -0.296598 -0.685594 0
M  V30 15444 H 1463.92 -1.36834 -1.38789 0
M  V30 15445 H 1463.02 -1.15272 -2.90032 0
M  V30 15446 N 1463.32 1.31536 -0.86811 0
M  V30 15447 C 1464.54 2.01487 -0.491705 0
M  V30 15448 C 1464.97 1.64744 0.907803 0
M  V30 15449 O 1464.33 0.855093 1.59868 0
M  V30 15450 C 1464.38 3.54621 -0.65395 0
M  V30 15451 O 1463.48 4.11252 0.307532 0
M  V30 15452 H 1462.82 0.634469 -0.195819 0
M  V30 15453 H 1465.35 1.67775 -1.17101 0
M  V30 15454 H 1465.36 4.04323 -0.546539 0
M  V30 15455 H 1464.04 3.80704 -1.67443 0
M  V30 15456 H 1462.61 3.72577 0.155233 0
M  V30 15457 N 1464.8 0.627364 1.44575 0
M  V30 15458 C 1465.71 -0.0811184 2.3446 0
M  V30 15459 C 1466.72 -0.839668 1.52399 0
M  V30 15460 O 1467.9 -0.792784 1.8514 0
M  V30 15461 C 1464.96 -1.05296 3.30323 0
M  V30 15462 C 1464.03 -0.294201 4.28291 0
M  V30 15463 C 1463.26 -1.21975 5.19575 0
M  V30 15464 O 1463.48 -2.45834 5.14706 0
M  V30 15465 O 1462.42 -0.70611 5.97744 0
M  V30 15466 H 1466.24 0.658067 2.96485 0
M  V30 15467 H 1463.83 0.387565 1.44285 0
M  V30 15468 H 1465.71 -1.61218 3.89341 0
M  V30 15469 H 1464.38 -1.77283 2.70837 0
M  V30 15470 H 1463.29 0.307969 3.7283 0
M  V30 15471 H 1464.62 0.385567 4.90687 0
M  V30 15472 N 1466.28 -1.53251 0.367684 0
M  V30 15473 C 1467.52 -2.00889 -0.220914 0
M  V30 15474 C 1467.84 -1.25662 -1.4911 0
M  V30 15475 O 1467.11 -0.370491 -1.92365 0
M  V30 15476 H 1465.69 -0.742191 -0.0846233 0
M  V30 15477 H 1468.36 -1.88525 0.494402 0
M  V30 15478 H 1467.45 -3.08891 -0.446414 0
M  V30 15479 N 1467.75 -0.0969077 -1.57302 0
M  V30 15480 C 1468.72 0.846895 -2.1298 0
M  V30 15481 C 1469.72 1.20962 -1.05947 0
M  V30 15482 O 1470.91 1.13876 -1.31826 0
M  V30 15483 C 1468.04 2.14215 -2.65188 0
M  V30 15484 H 1469.23 0.363398 -2.9769 0
M  V30 15485 H 1466.78 0.152107 -1.55558 0
M  V30 15486 H 1467.52 2.67046 -1.84002 0
M  V30 15487 H 1467.3 1.89176 -3.43445 0
M  V30 15488 H 1468.79 2.81728 -3.08252 0
M  V30 15489 N 1469.23 1.56605 0.176793 0
M  V30 15490 C 1470.16 1.99014 1.2213 0
M  V30 15491 C 1471.14 0.86487 1.46472 0
M  V30 15492 O 1472.33 1.13055 1.57899 0
M  V30 15493 C 1469.46 2.34534 2.56146 0
M  V30 15494 C 1468.41 3.4997 2.46384 0
M  V30 15495 C 1467.74 3.71217 3.8484 0
M  V30 15496 C 1469.04 4.83592 1.97323 0
M  V30 15497 H 1470.73 2.86517 0.8688 0
M  V30 15498 H 1468.28 1.37846 0.416481 0
M  V30 15499 H 1470.23 2.62799 3.29416 0
M  V30 15500 H 1468.95 1.43933 2.93174 0
M  V30 15501 H 1467.61 3.21824 1.75569 0
M  V30 15502 H 1467.26 2.77916 4.19251 0
M  V30 15503 H 1466.96 4.48885 3.79178 0
M  V30 15504 H 1468.49 4.01877 4.59704 0
M  V30 15505 H 1469.9 5.10768 2.60363 0
M  V30 15506 H 1468.3 5.64858 2.02622 0
M  V30 15507 H 1469.37 4.75951 0.927275 0
M  V30 15508 N 1470.71 -0.445159 1.51182 0
M  V30 15509 C 1471.93 -1.22249 1.67541 0
M  V30 15510 C 1472.36 -1.84446 0.368972 0
M  V30 15511 O 1471.72 -1.68463 -0.670058 0
M  V30 15512 C 1471.77 -2.288 2.78717 0
M  V30 15513 O 1470.87 -3.34094 2.41775 0
M  V30 15514 H 1470.21 -0.358516 0.558894 0
M  V30 15515 H 1472.74 -0.526696 1.97704 0
M  V30 15516 H 1472.75 -2.73708 3.02569 0
M  V30 15517 H 1471.43 -1.82906 3.73521 0
M  V30 15518 H 1470 -2.94717 2.28466 0
M  V30 15519 N 1472.19 -1.41197 -0.700089 0
M  V30 15520 C 1473.6 -1.3593 -1.27985 0
M  V30 15521 C 1473.95 -0.0402059 -1.96159 0
M  V30 15522 O 1473.07 0.861611 -1.98508 0
M  V30 15523 C 1473.67 -2.46203 -2.32743 0
M  V30 15524 C 1472.23 -2.44348 -2.86306 0
M  V30 15525 C 1471.38 -2.26283 -1.60285 0
M  V30 15526 H 1474.33 -1.50778 -0.495152 0
M  V30 15527 H 1474.35 -2.15001 -3.13934 0
M  V30 15528 H 1473.86 -3.42195 -1.83096 0
M  V30 15529 H 1471.96 -1.521 -3.40142 0
M  V30 15530 H 1472.07 -3.40497 -3.37044 0
M  V30 15531 H 1470.44 -1.74078 -1.85928 0
M  V30 15532 H 1471.22 -3.24295 -1.1264 0
M  V30 15533 N 1473.67 0.933891 -1.2695 0
M  V30 15534 C 1474.91 1.67759 -1.12701 0
M  V30 15535 C 1475.23 1.92207 0.328848 0
M  V30 15536 O 1474.5 1.52394 1.23097 0
M  V30 15537 H 1473.08 0.621729 -0.41408 0
M  V30 15538 H 1475.75 1.1217 -1.59386 0
M  V30 15539 H 1474.84 2.64834 -1.65135 0
M  V30 15540 N 1475.14 1.08871 1.13951 0
M  V30 15541 C 1476.39 0.819665 1.84732 0
M  V30 15542 C 1476.71 -0.656535 1.83615 0
M  V30 15543 O 1475.98 -1.47614 1.28791 0
M  V30 15544 H 1474.56 0.30023 0.684011 0
M  V30 15545 H 1477.22 1.37568 1.38062 0
M  V30 15546 H 1476.32 1.16809 2.89417 0
M  V30 15547 N 1476.62 -1.31073 0.875073 0
M  V30 15548 C 1477.87 -1.96809 0.489273 0
M  V30 15549 C 1478.2 -1.68979 -0.957073 0
M  V30 15550 O 1477.48 -0.989061 -1.67475 0
M  V30 15551 C 1477.76 -3.52139 0.752998 0
M  V30 15552 C 1477.61 -3.89524 2.24925 0
M  V30 15553 C 1478.93 -4.39535 0.222871 0
M  V30 15554 H 1476.05 -0.714873 0.179238 0
M  V30 15555 H 1478.69 -1.55114 1.09725 0
M  V30 15556 H 1476.84 -3.87785 0.23553 0
M  V30 15557 H 1478.51 -3.63953 2.83436 0
M  V30 15558 H 1476.76 -3.37948 2.71981 0
M  V30 15559 H 1477.43 -4.97845 2.38441 0
M  V30 15560 H 1479.9 -4.10741 0.665645 0
M  V30 15561 H 1478.78 -5.47159 0.436806 0
M  V30 15562 H 1479.04 -4.33346 -0.875445 0
M  V30 15563 N 1478.1 -0.635022 -1.4424 0
M  V30 15564 C 1479.06 0.0579377 -2.29127 0
M  V30 15565 C 1480.06 0.768489 -1.41248 0
M  V30 15566 O 1481.25 0.612489 -1.63077 0
M  V30 15567 C 1478.39 1.09266 -3.22914 0
M  V30 15568 H 1479.58 -0.688723 -2.91885 0
M  V30 15569 H 1477.13 -0.395347 -1.51217 0
M  V30 15570 H 1477.87 1.86917 -2.65014 0
M  V30 15571 H 1477.65 0.587036 -3.87681 0
M  V30 15572 H 1479.14 1.57716 -3.86672 0
M  V30 15573 N 1479.58 1.53054 -0.375806 0
M  V30 15574 C 1480.8 2.06296 0.213708 0
M  V30 15575 C 1481.23 1.24675 1.40846 0
M  V30 15576 O 1480.59 0.268371 1.79303 0
M  V30 15577 C 1480.63 3.55981 0.575301 0
M  V30 15578 O 1479.74 3.77023 1.67115 0
M  V30 15579 H 1479.08 0.66338 0.0286922 0
M  V30 15580 H 1481.61 1.97362 -0.539371 0
M  V30 15581 H 1481.62 3.99187 0.843431 0
M  V30 15582 H 1480.29 4.14829 -0.298258 0
M  V30 15583 H 1478.87 3.45712 1.39778 0
M  V30 15584 N 1481.06 0.105248 1.57248 0
M  V30 15585 C 1481.99 -0.846915 2.176 0
M  V30 15586 C 1482.97 -1.28706 1.11216 0
M  V30 15587 O 1484.15 -1.35213 1.39396 0
M  V30 15588 C 1481.28 -2.10228 2.76445 0
M  V30 15589 C 1480.24 -1.80041 3.8829 0
M  V30 15590 C 1479.56 -3.12491 4.33882 0
M  V30 15591 C 1480.86 -1.07943 5.11024 0
M  V30 15592 H 1482.56 -0.344052 2.97417 0
M  V30 15593 H 1480.1 -0.164045 1.43063 0
M  V30 15594 H 1482.06 -2.77284 3.17319 0
M  V30 15595 H 1480.78 -2.62815 1.93897 0
M  V30 15596 H 1479.44 -1.15379 3.4797 0
M  V30 15597 H 1479.09 -3.62985 3.48211 0
M  V30 15598 H 1478.79 -2.93072 5.09296 0
M  V30 15599 H 1480.31 -3.80688 4.77398 0
M  V30 15600 H 1481.72 -1.65127 5.49004 0
M  V30 15601 H 1480.12 -0.986674 5.91933 0
M  V30 15602 H 1481.19 -0.0638511 4.84858 0
M  V30 15603 N 1482.53 -1.56697 -0.168486 0
M  V30 15604 C 1483.46 -1.99659 -1.21073 0
M  V30 15605 C 1484.45 -0.872625 -1.46011 0
M  V30 15606 O 1485.63 -1.13891 -1.57297 0
M  V30 15607 C 1482.76 -2.35889 -2.54899 0
M  V30 15608 C 1481.71 -3.51272 -2.44524 0
M  V30 15609 C 1481.04 -3.73253 -3.82866 0
M  V30 15610 C 1482.34 -4.84631 -1.94756 0
M  V30 15611 H 1484.03 -2.86974 -0.853593 0
M  V30 15612 H 1481.58 -1.38065 -0.409165 0
M  V30 15613 H 1483.53 -2.64542 -3.28017 0
M  V30 15614 H 1482.26 -1.45486 -2.92406 0
M  V30 15615 H 1480.92 -3.22751 -1.7386 0
M  V30 15616 H 1480.56 -2.80136 -4.17772 0
M  V30 15617 H 1480.26 -4.5089 -3.76792 0
M  V30 15618 H 1481.79 -4.04309 -4.57566 0
M  V30 15619 H 1483.2 -5.12142 -2.5765 0
M  V30 15620 H 1481.6 -5.65925 -1.99623 0
M  V30 15621 H 1482.67 -4.76436 -0.902021 0
M  V30 15622 N 1484.01 0.437135 -1.51416 0
M  V30 15623 C 1485.43 0.773631 -1.39596 0
M  V30 15624 C 1485.63 1.95737 -0.478463 0
M  V30 15625 O 1484.68 2.52413 0.0662971 0
M  V30 15626 C 1486 1.05381 -2.8163 0
M  V30 15627 C 1487.55 1.15824 -2.90782 0
M  V30 15628 C 1488.02 1.47135 -4.33722 0
M  V30 15629 N 1489.51 1.54059 -4.3683 0
M  V30 15630 C 1490.25 1.79858 -5.44462 0
M  V30 15631 N 1489.74 2.03449 -6.62254 0
M  V30 15632 N 1491.54 1.81642 -5.31942 0
M  V30 15633 H 1483.69 -0.342468 -2.09621 0
M  V30 15634 H 1485.95 -0.0908158 -0.94364 0
M  V30 15635 H 1485.66 0.256708 -3.50762 0
M  V30 15636 H 1485.53 1.98139 -3.20968 0
M  V30 15637 H 1487.92 1.94597 -2.21847 0
M  V30 15638 H 1488 0.209663 -2.54939 0
M  V30 15639 H 1487.64 0.688897 -5.03206 0
M  V30 15640 H 1487.57 2.43199 -4.67078 0
M  V30 15641 H 1490.06 1.3773 -3.51907 0
M  V30 15642 H 1490.38 2.22506 -7.40075 0
M  V30 15643 H 1488.72 2.00771 -6.65369 0
M  V30 15644 H 1491.91 1.62731 -4.38903 0
M  V30 15645 H 1492.08 2.01411 -6.15904 0
M  V30 15646 N 1485.49 1.41566 0.692592 0
M  V30 15647 C 1486.42 1.46423 1.81886 0
M  V30 15648 C 1487.4 0.32258 1.67013 0
M  V30 15649 O 1488.59 0.534437 1.86701 0
M  V30 15650 C 1485.72 1.3486 3.20047 0
M  V30 15651 C 1484.67 2.46867 3.49629 0
M  V30 15652 C 1484 2.20369 4.87177 0
M  V30 15653 C 1485.3 3.89205 3.48306 0
M  V30 15654 H 1486.99 2.40683 1.78079 0
M  V30 15655 H 1484.54 1.15845 0.855334 0
M  V30 15656 H 1486.49 1.36869 3.98553 0
M  V30 15657 H 1485.21 0.370859 3.24488 0
M  V30 15658 H 1483.87 2.44146 2.73475 0
M  V30 15659 H 1483.52 1.20931 4.88247 0
M  V30 15660 H 1483.22 2.95426 5.07934 0
M  V30 15661 H 1484.74 2.24099 5.6799 0
M  V30 15662 H 1486.16 3.93626 4.16811 0
M  V30 15663 H 1484.56 4.63969 3.80595 0
M  V30 15664 H 1485.63 4.17144 2.47222 0
M  V30 15665 N 1486.97 -0.927146 1.27443 0
M  V30 15666 C 1488.38 -1.48984 1.1252 0
M  V30 15667 C 1488.73 -1.94051 -0.289602 0
M  V30 15668 O 1487.86 -1.8123 -1.18257 0
M  V30 15669 C 1488.45 -2.70765 2.03646 0
M  V30 15670 C 1487.01 -3.23256 1.92827 0
M  V30 15671 C 1486.16 -1.95991 1.9617 0
M  V30 15672 H 1489.11 -0.741196 1.40328 0
M  V30 15673 H 1489.13 -3.45567 1.5926 0
M  V30 15674 H 1488.64 -2.37933 3.0661 0
M  V30 15675 H 1486.74 -3.60845 0.928516 0
M  V30 15676 H 1486.85 -3.89413 2.79096 0
M  V30 15677 H 1485.22 -2.12508 1.40402 0
M  V30 15678 H 1486 -1.65473 3.00788 0
M  V30 15679 N 1488.45 -1.09474 -1.13372 0
M  V30 15680 C 1489.86 -0.824541 -1.36651 0
M  V30 15681 C 1490.06 0.560903 -1.93536 0
M  V30 15682 O 1489.12 1.31567 -2.15514 0
M  V30 15683 C 1490.43 -1.91618 -2.31739 0
M  V30 15684 C 1491.98 -1.94346 -2.45354 0
M  V30 15685 C 1492.45 -3.02655 -3.4375 0
M  V30 15686 N 1493.95 -3.01898 -3.513 0
M  V30 15687 C 1494.68 -3.82344 -4.27318 0
M  V30 15688 N 1494.18 -4.727 -5.06484 0
M  V30 15689 N 1495.97 -3.70602 -4.22623 0
M  V30 15690 H 1488.12 -1.98793 -0.748005 0
M  V30 15691 H 1490.38 -0.863318 -0.391646 0
M  V30 15692 H 1490.09 -2.91282 -1.97098 0
M  V30 15693 H 1489.96 -1.79484 -3.31761 0
M  V30 15694 H 1492.35 -0.953206 -2.79281 0
M  V30 15695 H 1492.43 -2.10558 -1.45255 0
M  V30 15696 H 1492.08 -4.01894 -3.10553 0
M  V30 15697 H 1492.01 -2.83687 -4.43655 0
M  V30 15698 H 1494.5 -2.36417 -2.94814 0
M  V30 15699 H 1494.81 -5.30665 -5.61796 0
M  V30 15700 H 1493.15 -4.76736 -5.05715 0
M  V30 15701 H 1496.35 -2.99372 -3.59853 0
M  V30 15702 H 1496.52 -4.33535 -4.81614 0
M  V30 15703 N 1489.92 1.30607 -0.882012 0
M  V30 15704 C 1491.17 1.95869 -0.497978 0
M  V30 15705 C 1491.49 1.69991 0.955405 0
M  V30 15706 O 1490.76 1.02188 1.67136 0
M  V30 15707 H 1489.34 0.724699 -0.181165 0
M  V30 15708 H 1492.01 1.59193 -1.12444 0
M  V30 15709 H 1491.1 3.04917 -0.665754 0
M  V30 15710 N 1491.4 0.642663 1.43901 0
M  V30 15711 C 1492.64 0.15524 2.0381 0
M  V30 15712 C 1493.01 -1.20426 1.49538 0
M  V30 15713 O 1494.21 -1.78447 2.01022 0
M  V30 15714 C 1492.48 0.153714 3.57069 0
M  V30 15715 S 1494.04 -0.267404 4.37984 0
M  V30 15716 H 1490.86 0.0667514 0.70786 0
M  V30 15717 H 1493.46 0.848636 1.7612 0
M  V30 15718 H 1492.16 1.14608 3.94073 0
M  V30 15719 H 1491.69 -0.56056 3.89386 0
M  V30 15720 H 1493.71 -1.50887 4.72702 0
M  V30 15721 N 1492.88 -1.52852 0.383918 0
M  V30 15722 C 1494.13 -2.01112 -0.199594 0
M  V30 15723 C 1494.45 -1.27237 -1.47769 0
M  V30 15724 O 1493.72 -0.390873 -1.91961 0
M  V30 15725 H 1492.3 -0.743047 -0.0767466 0
M  V30 15726 H 1494.96 -1.8799 0.51437 0
M  V30 15727 H 1494.06 -3.09347 -0.413627 0
M  V30 15728 N 1494.36 -0.113586 -1.5719 0
M  V30 15729 C 1495.27 0.852428 -2.18565 0
M  V30 15730 C 1496.29 1.29668 -1.16026 0
M  V30 15731 O 1497.46 1.36079 -1.48474 0
M  V30 15732 C 1494.53 2.08675 -2.76867 0
M  V30 15733 C 1493.59 1.69493 -3.94424 0
M  V30 15734 C 1492.82 2.87042 -4.49936 0
M  V30 15735 O 1493.04 4.02311 -4.04354 0
M  V30 15736 O 1491.98 2.64439 -5.40699 0
M  V30 15737 H 1495.8 0.360144 -3.01557 0
M  V30 15738 H 1493.39 0.111744 -1.48982 0
M  V30 15739 H 1495.27 2.80976 -3.14054 0
M  V30 15740 H 1493.95 2.5692 -1.9691 0
M  V30 15741 H 1492.85 0.943161 -3.62016 0
M  V30 15742 H 1494.19 1.25995 -4.758 0
M  V30 15743 N 1495.84 1.56784 0.160173 0
M  V30 15744 C 1496.77 1.93848 1.22293 0
M  V30 15745 C 1497.78 0.832803 1.39886 0
M  V30 15746 O 1498.97 1.11124 1.39692 0
M  V30 15747 C 1496.07 2.18581 2.58989 0
M  V30 15748 C 1495.24 3.49839 2.62548 0
M  V30 15749 C 1494.3 3.63268 3.80687 0
M  V30 15750 O 1493.33 4.35785 3.6617 0
M  V30 15751 N 1494.53 2.98948 4.97605 0
M  V30 15752 H 1497.3 2.85614 0.908004 0
M  V30 15753 H 1494.86 1.58075 0.349851 0
M  V30 15754 H 1496.85 2.24819 3.36509 0
M  V30 15755 H 1495.42 1.33145 2.82827 0
M  V30 15756 H 1494.64 3.5516 1.7104 0
M  V30 15757 H 1495.93 4.3619 2.61945 0
M  V30 15758 H 1495.33 2.39924 5.12302 0
M  V30 15759 H 1493.88 3.10765 5.72947 0
M  V30 15760 N 1497.32 -0.429099 1.51646 0
M  V30 15761 C 1498.54 -1.20006 1.68541 0
M  V30 15762 C 1498.96 -1.84806 0.386264 0
M  V30 15763 O 1498.32 -1.7106 -0.635988 0
M  V30 15764 C 1498.37 -2.27801 2.80694 0
M  V30 15765 O 1498.09 -1.65649 4.05576 0
M  V30 15766 C 1499.59 -3.17927 3.08929 0
M  V30 15767 H 1496.81 -0.361388 0.565367 0
M  V30 15768 H 1499.35 -0.507432 1.98104 0
M  V30 15769 H 1497.51 -2.92766 2.53706 0
M  V30 15770 H 1497.92 -2.36955 4.67924 0
M  V30 15771 H 1499.4 -3.8968 3.90965 0
M  V30 15772 H 1499.87 -3.79157 2.21668 0
M  V30 15773 H 1500.48 -2.58654 3.37606 0
M  V30 15774 N 1498.79 -1.41931 -0.685074 0
M  V30 15775 C 1499.73 -1.39028 -1.8096 0
M  V30 15776 C 1500.7 -0.256001 -1.60572 0
M  V30 15777 O 1501.89 -0.44459 -1.83182 0
M  V30 15778 C 1499.02 -1.17125 -3.17804 0
M  V30 15779 C 1498.06 -2.33411 -3.56961 0
M  V30 15780 S 1498.89 -3.9592 -3.60565 0
M  V30 15781 C 1500.05 -3.7634 -5.00119 0
M  V30 15782 H 1500.28 -2.34189 -1.83146 0
M  V30 15783 H 1497.82 -1.2858 -0.854778 0
M  V30 15784 H 1499.77 -1.05175 -3.96798 0
M  V30 15785 H 1498.44 -0.235668 -3.13215 0
M  V30 15786 H 1497.63 -2.13807 -4.56402 0
M  V30 15787 H 1497.23 -2.41823 -2.85303 0
M  V30 15788 H 1499.52 -3.36695 -5.87914 0
M  V30 15789 H 1500.47 -4.7542 -5.24768 0
M  V30 15790 H 1500.87 -3.09407 -4.72152 0
M  V30 15791 N 1500.27 0.920374 -1.27933 0
M  V30 15792 C 1501.52 1.66338 -1.14081 0
M  V30 15793 C 1501.83 1.93107 0.311324 0
M  V30 15794 O 1503.04 2.65431 0.570862 0
M  V30 15795 C 1501.5 2.99624 -1.99383 0
M  V30 15796 C 1501.1 2.80527 -3.49297 0
M  V30 15797 C 1502.85 3.77474 -1.94199 0
M  V30 15798 C 1500.75 4.09413 -4.26773 0
M  V30 15799 H 1499.68 0.623935 -0.423346 0
M  V30 15800 H 1502.34 1.0219 -1.52412 0
M  V30 15801 H 1500.72 3.6487 -1.53902 0
M  V30 15802 H 1501.89 2.24002 -4.02691 0
M  V30 15803 H 1500.21 2.16097 -3.55937 0
M  V30 15804 H 1502.8 4.72997 -2.49356 0
M  V30 15805 H 1503.15 4.06069 -0.917249 0
M  V30 15806 H 1503.68 3.19036 -2.37614 0
M  V30 15807 H 1500.42 3.85994 -5.29801 0
M  V30 15808 H 1499.94 4.65574 -3.78155 0
M  V30 15809 H 1501.62 4.77721 -4.36339 0
M  V30 15810 N 1501.75 1.10074 1.1279 0
M  V30 15811 C 1502.98 0.861655 1.87774 0
M  V30 15812 C 1503.39 -0.591184 1.79727 0
M  V30 15813 O 1502.73 -1.4191 1.1665 0
M  V30 15814 C 1502.79 1.22668 3.37924 0
M  V30 15815 C 1502.46 2.68579 3.69749 0
M  V30 15816 C 1503.45 3.66821 3.68427 0
M  V30 15817 C 1501.14 3.04869 3.99199 0
M  V30 15818 C 1503.13 4.99377 3.96108 0
M  V30 15819 C 1500.82 4.37615 4.2654 0
M  V30 15820 C 1501.82 5.34678 4.24981 0
M  V30 15821 O 1501.51 6.65034 4.51647 0
M  V30 15822 H 1501.24 0.309289 0.601096 0
M  V30 15823 H 1503.79 1.46802 1.43661 0
M  V30 15824 H 1502.02 0.563393 3.82574 0
M  V30 15825 H 1503.71 0.965675 3.94246 0
M  V30 15826 H 1504.48 3.40128 3.45742 0
M  V30 15827 H 1500.36 2.29947 3.99557 0
M  V30 15828 H 1503.9 5.7513 3.94806 0
M  V30 15829 H 1499.8 4.64047 4.48698 0
M  V30 15830 H 1500.56 6.70608 4.69283 0
M  V30 15831 N 1503.23 -1.30138 0.888926 0
M  V30 15832 C 1504.16 -2.3047 0.374934 0
M  V30 15833 C 1505.14 -1.61156 -0.544322 0
M  V30 15834 O 1506.32 -1.88738 -0.457337 0
M  V30 15835 C 1503.45 -3.44896 -0.407935 0
M  V30 15836 C 1502.41 -4.25935 0.419916 0
M  V30 15837 C 1501.73 -5.32452 -0.489797 0
M  V30 15838 C 1503.03 -4.9508 1.66413 0
M  V30 15839 H 1504.73 -2.73711 1.21337 0
M  V30 15840 H 1502.27 -1.31586 0.584899 0
M  V30 15841 H 1504.23 -4.14153 -0.778177 0
M  V30 15842 H 1502.95 -3.0047 -1.28005 0
M  V30 15843 H 1501.61 -3.58372 0.772348 0
M  V30 15844 H 1501.26 -4.84273 -1.35974 0
M  V30 15845 H 1500.96 -5.87569 0.0603412 0
M  V30 15846 H 1502.48 -6.04563 -0.856468 0
M  V30 15847 H 1503.9 -5.56831 1.36425 0
M  V30 15848 H 1502.29 -5.6008 2.15477 0
M  V30 15849 H 1503.36 -4.20981 2.4063 0
M  V30 15850 N 1504.71 -0.650285 -1.43559 0
M  V30 15851 C 1505.67 0.0336325 -2.29175 0
M  V30 15852 C 1506.67 0.753465 -1.42055 0
M  V30 15853 O 1507.86 0.595158 -1.63718 0
M  V30 15854 C 1504.99 1.05835 -3.24055 0
M  V30 15855 H 1506.18 -0.719643 -2.91138 0
M  V30 15856 H 1503.74 -0.411363 -1.5079 0
M  V30 15857 H 1504.47 1.84096 -2.66982 0
M  V30 15858 H 1504.26 0.545884 -3.88281 0
M  V30 15859 H 1505.75 1.53606 -3.88323 0
M  V30 15860 N 1506.18 1.52647 -0.392018 0
M  V30 15861 C 1507.59 1.86522 0.0814091 0
M  V30 15862 C 1507.95 1.31158 1.45918 0
M  V30 15863 O 1507.07 0.644007 2.06595 0
M  V30 15864 C 1507.67 3.38448 0.1545 0
M  V30 15865 C 1506.22 3.72025 0.572227 0
M  V30 15866 C 1505.37 2.7604 -0.264093 0
M  V30 15867 H 1508.32 1.46517 -0.609785 0
M  V30 15868 H 1508.34 3.67846 0.973109 0
M  V30 15869 H 1507.86 3.78713 -0.848396 0
M  V30 15870 H 1505.96 3.37329 1.58239 0
M  V30 15871 H 1506.07 4.77973 0.328491 0
M  V30 15872 H 1504.43 2.53254 0.271042 0
M  V30 15873 H 1505.22 3.19143 -1.26502 0
M  V30 15874 N 1507.66 0.121921 1.57128 0
M  V30 15875 C 1508.89 -0.543012 1.99647 0
M  V30 15876 C 1509.31 -1.60038 1.00165 0
M  V30 15877 O 1508.66 -1.82499 -0.00504688 0
M  V30 15878 C 1508.71 -1.1665 3.42162 0
M  V30 15879 O 1508.43 -0.151385 4.37838 0
M  V30 15880 C 1509.94 -1.91447 3.99829 0
M  V30 15881 H 1507.16 -0.143524 0.655471 0
M  V30 15882 H 1509.7 0.20912 2.03428 0
M  V30 15883 H 1507.85 -1.86939 3.39312 0
M  V30 15884 H 1508.27 -0.604773 5.21002 0
M  V30 15885 H 1509.74 -2.30394 5.0162 0
M  V30 15886 H 1510.22 -2.7908 3.39133 0
M  V30 15887 H 1510.83 -1.25913 4.06234 0
M  V30 15888 N 1509.14 -1.56867 -0.151857 0
M  V30 15889 C 1510.07 -2.00932 -1.18949 0
M  V30 15890 C 1511.05 -0.888062 -1.45077 0
M  V30 15891 O 1512.24 -1.15553 -1.56081 0
M  V30 15892 C 1509.37 -2.3858 -2.52383 0
M  V30 15893 C 1508.32 -3.53845 -2.40785 0
M  V30 15894 C 1507.65 -3.77292 -3.78886 0
M  V30 15895 C 1508.95 -4.8667 -1.89605 0
M  V30 15896 H 1510.64 -2.87863 -0.823107 0
M  V30 15897 H 1508.19 -1.38491 -0.394499 0
M  V30 15898 H 1510.14 -2.68006 -3.25193 0
M  V30 15899 H 1508.86 -1.48579 -2.90847 0
M  V30 15900 H 1507.52 -3.24577 -1.70427 0
M  V30 15901 H 1507.17 -2.84551 -4.14777 0
M  V30 15902 H 1506.87 -4.54861 -3.71989 0
M  V30 15903 H 1508.39 -4.09139 -4.53252 0
M  V30 15904 H 1509.81 -5.14846 -2.52204 0
M  V30 15905 H 1508.21 -5.6801 -1.93609 0
M  V30 15906 H 1509.28 -4.77366 -0.851438 0
M  V30 15907 N 1510.62 0.421051 -1.51871 0
M  V30 15908 C 1511.58 1.49478 -1.73749 0
M  V30 15909 C 1512.58 1.48887 -0.607395 0
M  V30 15910 O 1513.77 1.50622 -0.875143 0
M  V30 15911 C 1510.9 2.88947 -1.80893 0
M  V30 15912 H 1512.1 1.31377 -2.69593 0
M  V30 15913 H 1509.65 0.650786 -1.42107 0
M  V30 15914 H 1510.38 3.12434 -0.86922 0
M  V30 15915 H 1510.17 2.90781 -2.63038 0
M  V30 15916 H 1511.66 3.66809 -1.99602 0
M  V30 15917 N 1512.1 1.42293 0.677538 0
M  V30 15918 C 1513.06 1.45258 1.77293 0
M  V30 15919 C 1514.06 0.340554 1.57152 0
M  V30 15920 O 1515.25 0.601259 1.63495 0
M  V30 15921 C 1512.38 1.28156 3.15894 0
M  V30 15922 H 1513.57 2.42787 1.76052 0
M  V30 15923 H 1511.13 1.287 0.886908 0
M  V30 15924 H 1511.86 0.315381 3.22763 0
M  V30 15925 H 1511.65 2.08744 3.31916 0
M  V30 15926 H 1513.14 1.33107 3.95818 0
M  V30 15927 N 1513.57 -0.913576 1.28419 0
M  V30 15928 C 1514.8 -1.70178 1.18551 0
M  V30 15929 C 1515.22 -1.864 -0.252307 0
M  V30 15930 O 1514.58 -1.37427 -1.18252 0
M  V30 15931 C 1514.63 -3.07145 1.8893 0
M  V30 15932 O 1513.73 -3.9465 1.19688 0
M  V30 15933 H 1513.08 -0.521092 0.411533 0
M  V30 15934 H 1515.61 -1.14228 1.69744 0
M  V30 15935 H 1515.62 -3.57375 1.96843 0
M  V30 15936 H 1514.29 -2.94655 2.93515 0
M  V30 15937 H 1512.87 -3.53085 1.19939 0
M  V30 15938 N 1515.05 -1.1067 -1.12204 0
M  V30 15939 C 1516.47 -0.838988 -1.35769 0
M  V30 15940 C 1516.67 0.540345 -1.9412 0
M  V30 15941 O 1515.72 1.29274 -2.16897 0
M  V30 15942 C 1517.04 -1.94065 -2.29694 0
M  V30 15943 C 1518.59 -1.96938 -2.43279 0
M  V30 15944 C 1519.06 -3.06284 -3.4052 0
M  V30 15945 N 1520.55 -3.05607 -3.48079 0
M  V30 15946 C 1521.29 -3.86855 -4.23238 0
M  V30 15947 N 1520.78 -4.78046 -5.01442 0
M  V30 15948 N 1522.58 -3.75064 -4.18669 0
M  V30 15949 H 1514.73 -1.99575 -0.726878 0
M  V30 15950 H 1516.99 -0.867423 -0.382467 0
M  V30 15951 H 1516.7 -2.93356 -1.93997 0
M  V30 15952 H 1516.57 -1.82992 -3.29839 0
M  V30 15953 H 1518.96 -0.982774 -2.78254 0
M  V30 15954 H 1519.04 -2.12087 -1.43014 0
M  V30 15955 H 1518.68 -4.05165 -3.06273 0
M  V30 15956 H 1518.61 -2.88376 -4.40621 0
M  V30 15957 H 1521.1 -2.39531 -2.9229 0
M  V30 15958 H 1521.42 -5.36594 -5.56136 0
M  V30 15959 H 1519.76 -4.82073 -5.0063 0
M  V30 15960 H 1522.95 -3.03172 -3.56657 0
M  V30 15961 H 1523.12 -4.38618 -4.76988 0
M  V30 15962 N 1516.53 1.29665 -0.895815 0
M  V30 15963 C 1517.76 1.99572 -0.534267 0
M  V30 15964 C 1518.17 1.67254 0.884455 0
M  V30 15965 O 1517.51 0.911762 1.59476 0
M  V30 15966 C 1517.57 3.53719 -0.642099 0
M  V30 15967 C 1517.24 4.09583 -2.02709 0
M  V30 15968 C 1518.23 4.24769 -2.99779 0
M  V30 15969 C 1515.92 4.44706 -2.33542 0
M  V30 15970 C 1517.91 4.74305 -4.25809 0
M  V30 15971 C 1515.6 4.93939 -3.59815 0
M  V30 15972 C 1516.6 5.08693 -4.55763 0
M  V30 15973 O 1516.29 5.5686 -5.79795 0
M  V30 15974 H 1516.02 0.644481 -0.204012 0
M  V30 15975 H 1518.57 1.66262 -1.20607 0
M  V30 15976 H 1516.8 3.86603 0.0867197 0
M  V30 15977 H 1518.49 4.04861 -0.290265 0
M  V30 15978 H 1519.26 3.97925 -2.77273 0
M  V30 15979 H 1515.14 4.32483 -1.59622 0
M  V30 15980 H 1518.68 4.85736 -5.00706 0
M  V30 15981 H 1514.58 5.2022 -3.82154 0
M  V30 15982 H 1515.35 5.75182 -5.82329 0
M  V30 15983 N 1518.01 0.657889 1.43212 0
M  V30 15984 C 1518.94 -0.0172114 2.33494 0
M  V30 15985 C 1519.92 -0.807087 1.49733 0
M  V30 15986 O 1521.1 -0.767631 1.78385 0
M  V30 15987 C 1518.23 -0.981029 3.33156 0
M  V30 15988 C 1517.19 -0.30094 4.26941 0
M  V30 15989 C 1516.51 -1.37653 5.16678 0
M  V30 15990 C 1517.81 0.809572 5.15988 0
M  V30 15991 H 1519.51 0.736749 2.90194 0
M  V30 15992 H 1517.05 0.355744 1.39537 0
M  V30 15993 H 1519.01 -1.46226 3.95216 0
M  V30 15994 H 1517.73 -1.76621 2.74723 0
M  V30 15995 H 1516.39 0.159893 3.66251 0
M  V30 15996 H 1516.04 -2.15326 4.54581 0
M  V30 15997 H 1515.74 -0.926704 5.80246 0
M  V30 15998 H 1517.26 -1.85903 5.81612 0
M  V30 15999 H 1518.68 0.410297 5.7183 0
M  V30 16000 H 1517.07 1.18415 5.88301 0
M  V30 16001 H 1518.14 1.66558 4.55397 0
M  V30 16002 N 1519.49 -1.52437 0.400108 0
M  V30 16003 C 1520.76 -1.94162 -0.23671 0
M  V30 16004 C 1521.14 -1.33636 -1.63416 0
M  V30 16005 O 1520.49 -0.508643 -2.22767 0
M  V30 16006 C 1520.7 -3.48088 -0.252159 0
M  V30 16007 C 1522.05 -4.21925 -0.475887 0
M  V30 16008 O 1523.07 -3.5465 -0.331905 0
M  V30 16009 O 1521.93 -5.41205 -0.758895 0
M  V30 16010 H 1519.03 -0.813294 -0.14994 0
M  V30 16011 H 1521.57 -1.63475 0.455399 0
M  V30 16012 H 1520.34 -3.84501 0.726263 0
M  V30 16013 H 1519.97 -3.8511 -0.988742 0
M  V30 16014 N 1520.96 -0.130252 -1.57061 0
M  V30 16015 C 1521.91 0.815767 -2.15902 0
M  V30 16016 C 1522.88 1.2558 -1.08715 0
M  V30 16017 O 1524.07 1.33132 -1.36677 0
M  V30 16018 C 1521.21 2.0561 -2.77162 0
M  V30 16019 C 1520.32 1.6634 -3.98692 0
M  V30 16020 C 1519.45 2.85425 -4.48002 0
M  V30 16021 C 1518.49 2.42449 -5.62036 0
M  V30 16022 N 1517.63 3.54486 -6.0604 0
M  V30 16023 H 1522.47 0.307164 -2.96413 0
M  V30 16024 H 1520.01 0.139913 -1.46433 0
M  V30 16025 H 1521.97 2.78298 -3.10815 0
M  V30 16026 H 1520.6 2.5391 -1.99323 0
M  V30 16027 H 1519.65 0.834817 -3.71127 0
M  V30 16028 H 1520.96 1.30765 -4.81354 0
M  V30 16029 H 1520.11 3.66325 -4.83623 0
M  V30 16030 H 1518.85 3.24235 -3.64312 0
M  V30 16031 H 1517.86 1.59985 -5.26008 0
M  V30 16032 H 1519.08 2.04744 -6.475 0
M  V30 16033 H 1517.03 3.92948 -5.25289 0
M  V30 16034 H 1516.95 3.22871 -6.83586 0
M  V30 16035 H 1518.21 4.35792 -6.46302 0
M  V30 16036 N 1522.44 1.56945 0.143535 0
M  V30 16037 C 1523.67 1.87701 0.870401 0
M  V30 16038 C 1524.09 0.718833 1.7458 0
M  V30 16039 O 1523.44 -0.311286 1.79826 0
M  V30 16040 C 1523.49 3.1773 1.72424 0
M  V30 16041 O 1523.22 4.29086 0.884115 0
M  V30 16042 C 1524.72 3.62024 2.55839 0
M  V30 16043 H 1521.94 0.622083 0.251504 0
M  V30 16044 H 1524.48 2.04052 0.135285 0
M  V30 16045 H 1522.64 3.03122 2.41238 0
M  V30 16046 H 1523.05 5.0346 1.47065 0
M  V30 16047 H 1524.52 4.55834 3.11319 0
M  V30 16048 H 1525 2.87481 3.32041 0
M  V30 16049 H 1525.61 3.79338 1.9231 0
M  V30 16050 N 1523.92 -0.412991 1.52093 0
M  V30 16051 C 1524.83 -1.52768 1.78042 0
M  V30 16052 C 1525.85 -1.60758 0.665791 0
M  V30 16053 O 1527.02 -1.77545 0.950772 0
M  V30 16054 C 1524.09 -2.8854 1.92213 0
M  V30 16055 C 1523.15 -2.90468 3.16112 0
M  V30 16056 C 1522.38 -4.19763 3.29598 0
M  V30 16057 O 1522.61 -5.13454 2.48438 0
M  V30 16058 O 1521.54 -4.2847 4.22726 0
M  V30 16059 H 1525.37 -1.33777 2.72649 0
M  V30 16060 H 1522.95 -0.598461 1.3689 0
M  V30 16061 H 1524.83 -3.69073 2.03379 0
M  V30 16062 H 1523.51 -3.07607 1.00795 0
M  V30 16063 H 1522.41 -2.08801 3.10408 0
M  V30 16064 H 1523.75 -2.76349 4.07298 0
M  V30 16065 N 1525.4 -1.4265 -0.669982 0
M  V30 16066 C 1526.33 -1.42457 -1.79551 0
M  V30 16067 C 1527.34 -0.322966 -1.59564 0
M  V30 16068 O 1528.53 -0.586359 -1.68594 0
M  V30 16069 C 1525.63 -1.20561 -3.16731 0
M  V30 16070 C 1524.81 -2.43246 -3.63525 0
M  V30 16071 C 1523.87 -2.16823 -4.79452 0
M  V30 16072 O 1522.89 -2.90058 -4.8975 0
M  V30 16073 N 1524.09 -1.17436 -5.68497 0
M  V30 16074 H 1526.86 -2.39474 -1.80201 0
M  V30 16075 H 1524.42 -1.37591 -0.853244 0
M  V30 16076 H 1526.41 -1.00794 -3.91947 0
M  V30 16077 H 1524.98 -0.320497 -3.10953 0
M  V30 16078 H 1524.2 -2.78549 -2.78934 0
M  V30 16079 H 1525.49 -3.24931 -3.91532 0
M  V30 16080 H 1524.89 -0.568736 -5.62834 0
M  V30 16081 H 1523.44 -1.03655 -6.43505 0
M  V30 16082 N 1526.88 0.906753 -1.28902 0
M  V30 16083 C 1528.12 1.65925 -1.17646 0
M  V30 16084 C 1528.48 1.90484 0.270837 0
M  V30 16085 O 1527.77 1.49914 1.19317 0
M  V30 16086 C 1527.97 3.0171 -1.91588 0
M  V30 16087 C 1527.79 2.90403 -3.4336 0
M  V30 16088 C 1526.56 2.91551 -4.12706 0
M  V30 16089 C 1528.76 2.67955 -4.38981 0
M  V30 16090 N 1526.74 2.70907 -5.50893 0
M  V30 16091 C 1528.12 2.56222 -5.6458 0
M  V30 16092 C 1530.17 2.53007 -4.28826 0
M  V30 16093 C 1528.87 2.31064 -6.81177 0
M  V30 16094 C 1530.9 2.2923 -5.45167 0
M  V30 16095 C 1530.26 2.18257 -6.69734 0
M  V30 16096 H 1526.36 0.613064 -0.485466 0
M  V30 16097 H 1528.94 1.07031 -1.62642 0
M  V30 16098 H 1527.12 3.58676 -1.49016 0
M  V30 16099 H 1528.85 3.66021 -1.72657 0
M  V30 16100 H 1525.6 3.02571 -3.64346 0
M  V30 16101 H 1526.03 2.63657 -6.2355 0
M  V30 16102 H 1530.67 2.60238 -3.33221 0
M  V30 16103 H 1528.39 2.22572 -7.76844 0
M  V30 16104 H 1531.97 2.18518 -5.39204 0
M  V30 16105 H 1530.85 2.00112 -7.58238 0
M  V30 16106 N 1528.36 1.11264 1.11616 0
M  V30 16107 C 1529.58 0.88306 1.87661 0
M  V30 16108 C 1530.01 -0.561586 1.79521 0
M  V30 16109 O 1529.36 -1.3964 1.1563 0
M  V30 16110 C 1529.41 1.34698 3.34498 0
M  V30 16111 O 1528.52 0.517512 4.0914 0
M  V30 16112 H 1527.86 0.318233 0.582772 0
M  V30 16113 H 1530.39 1.48164 1.41098 0
M  V30 16114 H 1530.4 1.34068 3.85344 0
M  V30 16115 H 1529.07 2.39896 3.39739 0
M  V30 16116 H 1527.65 0.589751 3.68207 0
M  V30 16117 N 1529.83 -1.29188 0.902679 0
M  V30 16118 C 1531.06 -1.99576 0.545635 0
M  V30 16119 C 1531.48 -1.67541 -0.870372 0
M  V30 16120 O 1530.83 -0.922082 -1.57493 0
M  V30 16121 C 1530.88 -3.54013 0.731916 0
M  V30 16122 O 1530.61 -3.84914 2.09219 0
M  V30 16123 C 1532.11 -4.41666 0.38022 0
M  V30 16124 H 1529.33 -0.637593 0.209083 0
M  V30 16125 H 1531.87 -1.64652 1.21284 0
M  V30 16126 H 1530.03 -3.87239 0.111849 0
M  V30 16127 H 1530.44 -4.79581 2.12373 0
M  V30 16128 H 1531.91 -5.49138 0.561382 0
M  V30 16129 H 1532.39 -4.33858 -0.682915 0
M  V30 16130 H 1533 -4.13918 0.977354 0
M  V30 16131 N 1531.31 -0.665475 -1.42861 0
M  V30 16132 C 1532.24 0.00482845 -2.335 0
M  V30 16133 C 1533.22 0.799135 -1.50159 0
M  V30 16134 O 1534.41 0.75816 -1.78789 0
M  V30 16135 C 1531.54 0.963347 -3.33672 0
M  V30 16136 C 1530.49 0.278294 -4.27094 0
M  V30 16137 C 1529.82 1.34911 -5.174 0
M  V30 16138 C 1531.12 -0.836925 -5.15551 0
M  V30 16139 H 1532.81 -0.752129 -2.89799 0
M  V30 16140 H 1530.36 -0.363139 -1.39346 0
M  V30 16141 H 1532.31 1.44128 -3.95986 0
M  V30 16142 H 1531.03 1.75161 -2.75656 0
M  V30 16143 H 1529.69 -0.179314 -3.66161 0
M  V30 16144 H 1529.34 2.12912 -4.55716 0
M  V30 16145 H 1529.04 0.895919 -5.8073 0
M  V30 16146 H 1530.57 1.82816 -5.8259 0
M  V30 16147 H 1531.98 -0.440617 -5.71604 0
M  V30 16148 H 1530.38 -1.21533 -5.87665 0
M  V30 16149 H 1531.45 -1.6897 -4.54507 0
M  V30 16150 N 1532.79 1.52222 -0.408187 0
M  V30 16151 C 1534.2 1.86598 0.0616213 0
M  V30 16152 C 1534.55 1.32698 1.44519 0
M  V30 16153 O 1533.68 0.665883 2.059 0
M  V30 16154 C 1534.27 3.38592 0.118595 0
M  V30 16155 C 1532.83 3.72611 0.532737 0
M  V30 16156 C 1531.98 2.75744 -0.293356 0
M  V30 16157 H 1534.93 1.45862 -0.625291 0
M  V30 16158 H 1534.95 3.68858 0.934039 0
M  V30 16159 H 1534.46 3.77792 -0.888516 0
M  V30 16160 H 1532.56 3.38989 1.54652 0
M  V30 16161 H 1532.68 4.78294 0.277777 0
M  V30 16162 H 1531.04 2.53527 0.244166 0
M  V30 16163 H 1531.82 3.17783 -1.2988 0
M  V30 16164 N 1534.27 0.138579 1.5699 0
M  V30 16165 C 1535.68 -0.383633 1.82716 0
M  V30 16166 C 1536.03 -1.65304 1.05684 0
M  V30 16167 O 1535.15 -2.14318 0.299488 0
M  V30 16168 C 1535.75 -0.7028 3.3143 0
M  V30 16169 C 1534.31 -1.16957 3.57768 0
M  V30 16170 C 1533.46 -0.188295 2.7666 0
M  V30 16171 H 1536.41 0.363415 1.54483 0
M  V30 16172 H 1536.43 -1.55832 3.47126 0
M  V30 16173 H 1535.94 0.221271 3.87469 0
M  V30 16174 H 1534.04 -2.10987 3.07108 0
M  V30 16175 H 1534.15 -1.10136 4.66269 0
M  V30 16176 H 1532.52 -0.679255 2.45475 0
M  V30 16177 H 1533.3 0.729218 3.35466 0
M  V30 16178 N 1535.75 -1.57019 -0.13521 0
M  V30 16179 C 1536.66 -2.02427 -1.18578 0
M  V30 16180 C 1537.67 -0.941738 -1.46312 0
M  V30 16181 O 1538.85 -1.25208 -1.57749 0
M  V30 16182 C 1535.91 -2.40577 -2.49647 0
M  V30 16183 C 1534.97 -3.62835 -2.29455 0
M  V30 16184 C 1534.21 -3.99156 -3.54274 0
M  V30 16185 O 1534.43 -3.36001 -4.60933 0
M  V30 16186 O 1533.36 -4.92345 -3.46238 0
M  V30 16187 H 1537.19 -2.92131 -0.830237 0
M  V30 16188 H 1534.77 -1.45366 -0.344814 0
M  V30 16189 H 1536.66 -2.65922 -3.269 0
M  V30 16190 H 1535.33 -1.54023 -2.84708 0
M  V30 16191 H 1534.24 -3.42661 -1.50114 0
M  V30 16192 H 1535.57 -4.50043 -1.99305 0
M  V30 16193 N 1537.22 0.404919 -1.52309 0
M  V30 16194 C 1538.45 1.17309 -1.70429 0
M  V30 16195 C 1538.87 1.84169 -0.415617 0
M  V30 16196 O 1538.22 1.7205 0.608693 0
M  V30 16197 C 1538.28 2.23306 -2.84282 0
M  V30 16198 O 1538 1.59176 -4.0816 0
M  V30 16199 C 1539.5 3.12972 -3.13948 0
M  V30 16200 H 1536.72 0.352348 -0.571045 0
M  V30 16201 H 1539.26 0.475851 -1.98887 0
M  V30 16202 H 1537.42 2.88693 -2.58332 0
M  V30 16203 H 1537.83 2.29481 -4.71634 0
M  V30 16204 H 1539.3 3.83411 -3.97115 0
M  V30 16205 H 1539.78 3.75582 -2.27672 0
M  V30 16206 H 1540.39 2.53251 -3.41678 0
M  V30 16207 N 1538.7 1.43003 0.662408 0
M  V30 16208 C 1539.65 1.47448 1.77561 0
M  V30 16209 C 1540.62 0.325121 1.62887 0
M  V30 16210 O 1541.8 0.530971 1.83263 0
M  V30 16211 C 1538.94 1.3946 3.15666 0
M  V30 16212 C 1538.06 2.64529 3.41539 0
M  V30 16213 C 1537.19 2.48594 4.69441 0
M  V30 16214 C 1536.23 3.68976 4.88388 0
M  V30 16215 N 1535.37 3.51908 6.0754 0
M  V30 16216 H 1540.21 2.42573 1.73097 0
M  V30 16217 H 1537.75 1.2042 0.84484 0
M  V30 16218 H 1539.7 1.32824 3.95492 0
M  V30 16219 H 1538.33 0.479227 3.19223 0
M  V30 16220 H 1537.39 2.81481 2.55877 0
M  V30 16221 H 1538.7 3.53977 3.51429 0
M  V30 16222 H 1537.85 2.39614 5.57378 0
M  V30 16223 H 1536.59 1.56656 4.61855 0
M  V30 16224 H 1535.6 3.78374 3.9889 0
M  V30 16225 H 1536.82 4.61911 4.9781 0
M  V30 16226 H 1534.77 2.62697 6.01104 0
M  V30 16227 H 1534.68 4.34951 6.18347 0
M  V30 16228 H 1535.95 3.46763 6.98123 0
M  V30 16229 N 1540.18 -0.899904 1.29381 0
M  V30 16230 C 1541.46 -1.63067 1.08021 0
M  V30 16231 C 1541.84 -2.0773 -0.375716 0
M  V30 16232 O 1541.19 -1.83288 -1.36447 0
M  V30 16233 C 1541.4 -2.81163 2.06757 0
M  V30 16234 C 1542.74 -3.51854 2.37664 0
M  V30 16235 O 1543.77 -2.91332 2.0495 0
M  V30 16236 O 1542.63 -4.60962 2.93558 0
M  V30 16237 H 1539.72 -0.71601 0.413835 0
M  V30 16238 H 1542.27 -0.947991 1.40752 0
M  V30 16239 H 1541.04 -2.45355 3.04822 0
M  V30 16240 H 1540.66 -3.57137 1.74754 0
M  V30 16241 N 1541.66 -1.11854 -1.11024 0
M  V30 16242 C 1542.61 -0.749858 -2.15316 0
M  V30 16243 C 1543.59 0.248202 -1.58974 0
M  V30 16244 O 1544.78 0.054644 -1.76916 0
M  V30 16245 C 1541.91 -0.199423 -3.4272 0
M  V30 16246 C 1541 -1.22541 -4.06011 0
M  V30 16247 N 1541.39 -2.42104 -4.44094 0
M  V30 16248 C 1539.69 -1.06935 -4.32991 0
M  V30 16249 C 1540.39 -3.07572 -4.93735 0
M  V30 16250 N 1539.37 -2.35038 -4.90161 0
M  V30 16251 H 1543.17 -1.65978 -2.42546 0
M  V30 16252 H 1540.68 -0.998423 -1.28083 0
M  V30 16253 H 1542.68 0.0828628 -4.16818 0
M  V30 16254 H 1541.34 0.705033 -3.16953 0
M  V30 16255 H 1542.35 -2.79529 -4.35986 0
M  V30 16256 H 1539.03 -0.221683 -4.16911 0
M  V30 16257 H 1540.42 -4.0936 -5.32799 0
M  V30 16258 N 1543.14 1.28707 -0.909517 0
M  V30 16259 C 1544.1 2.25692 -0.39946 0
M  V30 16260 C 1545.1 1.53721 0.471848 0
M  V30 16261 O 1546.29 1.72008 0.275504 0
M  V30 16262 C 1543.42 3.38205 0.427793 0
M  V30 16263 H 1544.61 2.72326 -1.25613 0
M  V30 16264 H 1542.17 1.40317 -0.688535 0
M  V30 16265 H 1542.9 2.96926 1.30404 0
M  V30 16266 H 1542.69 3.91606 -0.19667 0
M  V30 16267 H 1544.18 4.10334 0.775634 0
M  V30 16268 N 1544.61 0.673042 1.42506 0
M  V30 16269 C 1545.86 0.194864 2.01862 0
M  V30 16270 C 1546.19 -1.19491 1.53087 0
M  V30 16271 O 1545.47 -1.80187 0.732322 0
M  V30 16272 C 1545.75 0.227559 3.5938 0
M  V30 16273 C 1545.6 1.65266 4.18338 0
M  V30 16274 C 1546.92 -0.425197 4.38041 0
M  V30 16275 H 1544.04 0.0722831 0.733447 0
M  V30 16276 H 1546.68 0.857493 1.6955 0
M  V30 16277 H 1544.83 -0.336658 3.87039 0
M  V30 16278 H 1546.51 2.26899 4.0164 0
M  V30 16279 H 1544.75 2.19388 3.74234 0
M  V30 16280 H 1545.42 1.62724 5.2747 0
M  V30 16281 H 1547.9 0.0550709 4.16064 0
M  V30 16282 H 1546.77 -0.371675 5.4764 0
M  V30 16283 H 1547.03 -1.50251 4.15785 0
M  V30 16284 N 1546.09 -1.52004 0.416254 0
M  V30 16285 C 1547.37 -1.94403 -0.216103 0
M  V30 16286 C 1547.75 -1.35362 -1.61989 0
M  V30 16287 O 1547.1 -0.532242 -2.22215 0
M  V30 16288 C 1547.31 -3.48336 -0.215225 0
M  V30 16289 C 1548.66 -4.22406 -0.431109 0
M  V30 16290 O 1549.68 -3.54982 -0.294271 0
M  V30 16291 O 1548.54 -5.4198 -0.70145 0
M  V30 16292 H 1545.63 -0.814838 -0.141306 0
M  V30 16293 H 1548.18 -1.62983 0.472712 0
M  V30 16294 H 1546.95 -3.83709 0.767004 0
M  V30 16295 H 1546.57 -3.86137 -0.947841 0
M  V30 16296 N 1547.57 -0.146903 -1.56914 0
M  V30 16297 C 1548.5 0.788924 -2.19769 0
M  V30 16298 C 1549.48 1.25712 -1.14589 0
M  V30 16299 O 1550.67 1.3147 -1.42931 0
M  V30 16300 C 1547.8 2.02824 -2.81921 0
M  V30 16301 C 1546.75 1.69683 -3.92927 0
M  V30 16302 C 1546.08 3.00877 -4.42015 0
M  V30 16303 C 1547.38 0.943559 -5.13706 0
M  V30 16304 H 1549.07 0.265076 -2.98224 0
M  V30 16305 H 1546.62 0.126057 -1.43447 0
M  V30 16306 H 1548.57 2.68773 -3.2456 0
M  V30 16307 H 1547.29 2.57581 -2.00797 0
M  V30 16308 H 1545.95 1.06112 -3.50907 0
M  V30 16309 H 1545.6 3.53625 -3.57713 0
M  V30 16310 H 1545.3 2.79466 -5.16888 0
M  V30 16311 H 1546.82 3.67897 -4.87323 0
M  V30 16312 H 1548.24 1.50513 -5.5319 0
M  V30 16313 H 1546.64 0.829387 -5.94341 0
M  V30 16314 H 1547.71 -0.0647228 -4.84857 0
M  V30 16315 N 1549.05 1.57088 0.126881 0
M  V30 16316 C 1550.3 1.83624 0.834582 0
M  V30 16317 C 1550.61 0.731331 1.81414 0
M  V30 16318 O 1551.82 0.88286 2.56745 0
M  V30 16319 C 1550.27 3.25529 1.5349 0
M  V30 16320 C 1549.88 4.44008 0.59673 0
M  V30 16321 C 1551.62 3.6132 2.22819 0
M  V30 16322 C 1549.53 5.76939 1.29982 0
M  V30 16323 H 1548.46 0.684858 0.315414 0
M  V30 16324 H 1551.11 1.83292 0.087305 0
M  V30 16325 H 1549.49 3.20306 2.32852 0
M  V30 16326 H 1550.67 4.60511 -0.163109 0
M  V30 16327 H 1548.98 4.16399 0.0108081 0
M  V30 16328 H 1551.58 4.57902 2.76098 0
M  V30 16329 H 1551.92 2.88363 3.00254 0
M  V30 16330 H 1552.46 3.68291 1.50354 0
M  V30 16331 H 1549.2 6.53044 0.566925 0
M  V30 16332 H 1548.72 5.64336 2.03187 0
M  V30 16333 H 1550.39 6.20427 1.8352 0
M  V30 16334 N 1550.53 -0.396836 1.52522 0
M  V30 16335 C 1551.46 -1.50361 1.72986 0
M  V30 16336 C 1552.47 -1.50928 0.610289 0
M  V30 16337 O 1553.66 -1.54972 0.88578 0
M  V30 16338 C 1550.76 -2.89229 1.76635 0
M  V30 16339 C 1549.93 -3.12715 3.05824 0
M  V30 16340 C 1548.99 -4.31523 3.01122 0
M  V30 16341 O 1548.02 -4.28207 3.75004 0
M  V30 16342 N 1549.22 -5.37294 2.19763 0
M  V30 16343 H 1551.99 -1.33196 2.68475 0
M  V30 16344 H 1549.55 -0.586269 1.50912 0
M  V30 16345 H 1551.54 -3.66796 1.71006 0
M  V30 16346 H 1550.11 -2.99791 0.885667 0
M  V30 16347 H 1549.33 -2.23083 3.25004 0
M  V30 16348 H 1550.62 -3.25257 3.91261 0
M  V30 16349 H 1550.01 -5.4284 1.5919 0
M  V30 16350 H 1548.57 -6.13557 2.19981 0
M  V30 16351 N 1552.01 -1.43353 -0.654814 0
M  V30 16352 C 1552.95 -1.48387 -1.76776 0
M  V30 16353 C 1553.92 -0.333755 -1.62712 0
M  V30 16354 O 1555.11 -0.540683 -1.82979 0
M  V30 16355 C 1552.25 -1.41132 -3.14922 0
M  V30 16356 C 1551.36 -2.66336 -3.40131 0
M  V30 16357 C 1550.5 -2.5108 -4.68116 0
M  V30 16358 C 1549.53 -3.71561 -4.86425 0
M  V30 16359 N 1548.67 -3.55125 -6.05666 0
M  V30 16360 H 1553.51 -2.43487 -1.71808 0
M  V30 16361 H 1551.05 -1.20866 -0.838442 0
M  V30 16362 H 1553.01 -1.3492 -3.94782 0
M  V30 16363 H 1551.64 -0.496149 -3.18964 0
M  V30 16364 H 1550.69 -2.82834 -2.5438 0
M  V30 16365 H 1552 -3.55835 -3.49546 0
M  V30 16366 H 1551.15 -2.42567 -5.56099 0
M  V30 16367 H 1549.89 -1.59103 -4.61018 0
M  V30 16368 H 1548.9 -3.80484 -3.96877 0
M  V30 16369 H 1550.12 -4.64545 -4.95353 0
M  V30 16370 H 1548.07 -2.65881 -5.99703 0
M  V30 16371 H 1547.99 -4.38224 -6.16032 0
M  V30 16372 H 1549.25 -3.5046 -6.96274 0
M  V30 16373 N 1553.48 0.89303 -1.29857 0
M  V30 16374 C 1554.73 1.64088 -1.17981 0
M  V30 16375 C 1555.05 1.93156 0.267533 0
M  V30 16376 O 1554.32 1.56233 1.18186 0
M  V30 16377 H 1552.9 0.608241 -0.43365 0
M  V30 16378 H 1555.56 1.07042 -1.62874 0
M  V30 16379 H 1554.66 2.59446 -1.73477 0
M  V30 16380 N 1554.96 1.12442 1.10429 0
M  V30 16381 C 1556.19 0.901291 1.85904 0
M  V30 16382 C 1556.6 -0.552928 1.8094 0
M  V30 16383 O 1555.94 -1.39404 1.19633 0
M  V30 16384 C 1556 1.29808 3.35246 0
M  V30 16385 C 1555.67 2.76361 3.63969 0
M  V30 16386 C 1556.67 3.74553 3.60564 0
M  V30 16387 C 1554.35 3.13268 3.92643 0
M  V30 16388 C 1556.34 5.07667 3.85426 0
M  V30 16389 C 1554.03 4.46564 4.17162 0
M  V30 16390 C 1555.03 5.43572 4.13544 0
M  V30 16391 O 1554.72 6.74465 4.37439 0
M  V30 16392 H 1554.45 0.321969 0.5944 0
M  V30 16393 H 1557 1.49816 1.40514 0
M  V30 16394 H 1555.23 0.644416 3.81293 0
M  V30 16395 H 1556.92 1.04908 3.92108 0
M  V30 16396 H 1557.69 3.47385 3.3845 0
M  V30 16397 H 1553.57 2.3837 3.94589 0
M  V30 16398 H 1557.11 5.83375 3.82518 0
M  V30 16399 H 1553.01 4.73461 4.38754 0
M  V30 16400 H 1553.78 6.80412 4.54953 0
M  V30 16401 N 1556.44 -1.28223 0.91633 0
M  V30 16402 C 1557.37 -2.25482 0.351128 0
M  V30 16403 C 1558.35 -1.53155 -0.546108 0
M  V30 16404 O 1559.53 -1.82042 -0.489182 0
M  V30 16405 C 1556.66 -3.35021 -0.497832 0
M  V30 16406 C 1555.71 -4.25187 0.334384 0
M  V30 16407 S 1556.54 -5.06348 1.74276 0
M  V30 16408 C 1557.7 -6.19378 0.901172 0
M  V30 16409 H 1557.93 -2.73075 1.17547 0
M  V30 16410 H 1555.46 -1.36703 0.717752 0
M  V30 16411 H 1557.42 -3.98586 -0.98182 0
M  V30 16412 H 1556.08 -2.8609 -1.29658 0
M  V30 16413 H 1555.27 -5.03015 -0.314884 0
M  V30 16414 H 1554.88 -3.66359 0.75212 0
M  V30 16415 H 1557.17 -6.77371 0.131985 0
M  V30 16416 H 1558.11 -6.88558 1.65208 0
M  V30 16417 H 1558.52 -5.62718 0.448206 0
M  V30 16418 N 1557.92 -0.68059 -1.42147 0
M  V30 16419 C 1559.33 -0.350691 -1.55699 0
M  V30 16420 C 1559.53 1.1435 -1.6591 0
M  V30 16421 O 1558.59 1.92905 -1.62923 0
M  V30 16422 C 1559.9 -1.08608 -2.80401 0
M  V30 16423 C 1561.45 -1.06897 -2.9418 0
M  V30 16424 C 1561.93 -1.78581 -4.2175 0
M  V30 16425 N 1563.42 -1.75477 -4.28675 0
M  V30 16426 C 1564.15 -2.27794 -5.26211 0
M  V30 16427 N 1563.65 -2.88518 -6.29865 0
M  V30 16428 N 1565.44 -2.18135 -5.18048 0
M  V30 16429 H 1557.59 -1.64988 -1.33763 0
M  V30 16430 H 1559.85 -0.695411 -0.644289 0
M  V30 16431 H 1559.56 -2.14113 -2.79014 0
M  V30 16432 H 1559.43 -0.655022 -3.71469 0
M  V30 16433 H 1561.82 -0.0222464 -2.95092 0
M  V30 16434 H 1561.9 -1.53897 -2.04327 0
M  V30 16435 H 1561.55 -2.83225 -4.21599 0
M  V30 16436 H 1561.48 -1.29027 -5.10548 0
M  V30 16437 H 1563.97 -1.31191 -3.54397 0
M  V30 16438 H 1564.28 -3.26043 -7.00654 0
M  V30 16439 H 1562.63 -2.92589 -6.3041 0
M  V30 16440 H 1565.82 -1.7038 -4.35991 0
M  V30 16441 H 1565.99 -2.59213 -5.93896 0
M  V30 16442 N 1559.4 1.51781 -0.424309 0
M  V30 16443 C 1560.64 2.01157 0.147925 0
M  V30 16444 C 1560.96 1.31369 1.44919 0
M  V30 16445 O 1562.16 1.71643 2.10359 0
M  V30 16446 C 1560.62 3.58526 0.31417 0
M  V30 16447 C 1560.23 4.37242 -0.975898 0
M  V30 16448 C 1561.97 4.16088 0.840876 0
M  V30 16449 C 1559.88 5.86287 -0.776009 0
M  V30 16450 H 1558.81 0.751684 0.0590568 0
M  V30 16451 H 1561.46 1.74998 -0.552079 0
M  V30 16452 H 1559.84 3.81077 1.07687 0
M  V30 16453 H 1561.02 4.26444 -1.74592 0
M  V30 16454 H 1559.33 3.9107 -1.43015 0
M  V30 16455 H 1561.93 5.25138 1.0067 0
M  V30 16456 H 1562.27 3.7442 1.81977 0
M  V30 16457 H 1562.8 3.97565 0.136836 0
M  V30 16458 H 1559.54 6.32343 -1.7269 0
M  V30 16459 H 1559.06 5.99783 -0.0455544 0
M  V30 16460 H 1560.74 6.45609 -0.424095 0
M  V30 16461 N 1560.87 0.155222 1.56834 0
M  V30 16462 C 1561.81 -0.812448 2.14317 0
M  V30 16463 C 1562.82 -1.20502 1.09467 0
M  V30 16464 O 1564.01 -1.14767 1.36714 0
M  V30 16465 C 1561.11 -2.10279 2.65774 0
M  V30 16466 C 1560.28 -1.8763 3.95112 0
M  V30 16467 C 1559.34 -3.0073 4.31796 0
M  V30 16468 O 1558.37 -2.72064 4.9997 0
M  V30 16469 N 1559.57 -4.28114 3.92044 0
M  V30 16470 H 1562.33 -0.321106 2.97975 0
M  V30 16471 H 1559.89 -0.0280861 1.61876 0
M  V30 16472 H 1561.89 -2.85005 2.87323 0
M  V30 16473 H 1560.46 -2.50652 1.86796 0
M  V30 16474 H 1559.68 -0.968958 3.82106 0
M  V30 16475 H 1560.96 -1.69845 4.79614 0
M  V30 16476 H 1560.36 -4.54269 3.37129 0
M  V30 16477 H 1558.92 -4.99594 4.18627 0
M  V30 16478 N 1562.35 -1.57153 -0.118549 0
M  V30 16479 C 1563.28 -1.97022 -1.1711 0
M  V30 16480 C 1564.3 -0.869599 -1.37629 0
M  V30 16481 O 1565.49 -1.14788 -1.36696 0
M  V30 16482 C 1562.59 -2.25371 -2.53103 0
M  V30 16483 C 1561.76 -3.56677 -2.5318 0
M  V30 16484 C 1560.82 -3.73233 -3.70922 0
M  V30 16485 O 1559.84 -4.4534 -3.54487 0
M  V30 16486 N 1561.05 -3.12036 -4.89504 0
M  V30 16487 H 1563.81 -2.87921 -0.831959 0
M  V30 16488 H 1561.37 -1.58947 -0.307817 0
M  V30 16489 H 1563.36 -2.33662 -3.3043 0
M  V30 16490 H 1561.93 -1.40597 -2.79197 0
M  V30 16491 H 1561.15 -3.5957 -1.61564 0
M  V30 16492 H 1562.44 -4.42982 -2.50288 0
M  V30 16493 H 1561.84 -2.53422 -5.05761 0
M  V30 16494 H 1560.4 -3.25846 -5.64506 0
M  V30 16495 N 1563.83 0.388742 -1.5273 0
M  V30 16496 C 1565.08 1.13375 -1.67787 0
M  V30 16497 C 1565.4 1.89957 -0.417925 0
M  V30 16498 O 1564.66 1.86286 0.599682 0
M  V30 16499 C 1564.96 2.13792 -2.86405 0
M  V30 16500 C 1564.62 1.53865 -4.23835 0
M  V30 16501 C 1563.29 1.37248 -4.61212 0
M  V30 16502 C 1565.64 1.10298 -5.09395 0
M  V30 16503 C 1562.97 0.756119 -5.81807 0
M  V30 16504 C 1565.32 0.500723 -6.30615 0
M  V30 16505 C 1563.98 0.321851 -6.66724 0
M  V30 16506 H 1563.25 0.414868 -0.613975 0
M  V30 16507 H 1565.9 0.418351 -1.86874 0
M  V30 16508 H 1564.2 2.91551 -2.61735 0
M  V30 16509 H 1565.9 2.71346 -2.95249 0
M  V30 16510 H 1562.49 1.67787 -3.94393 0
M  V30 16511 H 1566.68 1.21938 -4.81087 0
M  V30 16512 H 1561.93 0.605734 -6.08392 0
M  V30 16513 H 1566.11 0.154839 -6.96228 0
M  V30 16514 H 1563.73 -0.157836 -7.60036 0
M  V30 16515 N 1565.31 1.43698 0.647203 0
M  V30 16516 C 1566.72 1.27231 0.963563 0
M  V30 16517 C 1566.92 0.196385 2.00541 0
M  V30 16518 O 1565.98 -0.423162 2.48929 0
M  V30 16519 C 1567.29 2.63863 1.44211 0
M  V30 16520 C 1568.84 2.71444 1.55844 0
M  V30 16521 C 1569.32 4.08508 2.07087 0
M  V30 16522 N 1570.81 4.10603 2.14381 0
M  V30 16523 C 1571.54 5.13496 2.55166 0
M  V30 16524 N 1571.04 6.26759 2.95203 0
M  V30 16525 N 1572.83 5.0085 2.55158 0
M  V30 16526 H 1564.98 2.12358 -0.0420956 0
M  V30 16527 H 1567.24 0.946989 0.0437628 0
M  V30 16528 H 1566.95 3.43589 0.75096 0
M  V30 16529 H 1566.82 2.89666 2.41605 0
M  V30 16530 H 1569.21 1.92046 2.24058 0
M  V30 16531 H 1569.29 2.49399 0.56866 0
M  V30 16532 H 1568.94 4.88375 1.39472 0
M  V30 16533 H 1568.87 4.2792 3.06907 0
M  V30 16534 H 1571.36 3.2885 1.86188 0
M  V30 16535 H 1571.67 7.01096 3.25091 0
M  V30 16536 H 1570.02 6.30222 2.92993 0
M  V30 16537 H 1573.21 4.11428 2.2326 0
M  V30 16538 H 1573.38 5.81165 2.86621 0
M  V30 16539 N 1566.79 -0.886131 1.30328 0
M  V30 16540 C 1567.73 -1.99174 1.16612 0
M  V30 16541 C 1568.7 -1.66006 0.0559202 0
M  V30 16542 O 1569.89 -1.89458 0.225897 0
M  V30 16543 C 1567.03 -3.34142 0.862726 0
M  V30 16544 C 1566.14 -3.80008 2.05469 0
M  V30 16545 C 1565.28 -5.03617 1.68949 0
M  V30 16546 C 1564.32 -5.41888 2.84647 0
M  V30 16547 N 1563.45 -6.56678 2.48431 0
M  V30 16548 H 1568.29 -2.10238 2.11197 0
M  V30 16549 H 1565.83 -1.02941 1.05079 0
M  V30 16550 H 1567.79 -4.11826 0.667447 0
M  V30 16551 H 1566.42 -3.22767 -0.0462461 0
M  V30 16552 H 1565.47 -2.98243 2.36126 0
M  V30 16553 H 1566.78 -4.04312 2.92119 0
M  V30 16554 H 1565.94 -5.88923 1.45789 0
M  V30 16555 H 1564.67 -4.81182 0.794674 0
M  V30 16556 H 1563.68 -4.55109 3.08474 0
M  V30 16557 H 1564.9 -5.66296 3.74813 0
M  V30 16558 H 1562.85 -6.35821 1.61453 0
M  V30 16559 H 1562.77 -6.80846 3.28611 0
M  V30 16560 H 1564.04 -7.45219 2.28624 0
M  V30 16561 N 1568.26 -1.13026 -1.09832 0
M  V30 16562 C 1569.23 -0.806832 -2.14529 0
M  V30 16563 C 1570.23 0.18175 -1.5977 0
M  V30 16564 O 1571.42 -0.0448155 -1.74142 0
M  V30 16565 C 1568.55 -0.200093 -3.40312 0
M  V30 16566 H 1569.74 -1.73453 -2.44651 0
M  V30 16567 H 1567.3 -0.934331 -1.25299 0
M  V30 16568 H 1568.03 0.737028 -3.15814 0
M  V30 16569 H 1567.82 -0.911945 -3.81348 0
M  V30 16570 H 1569.31 0.00948247 -4.17599 0
M  V30 16571 N 1569.74 1.27735 -0.923117 0
M  V30 16572 C 1571.02 1.89626 -0.479724 0
M  V30 16573 C 1571.4 1.83592 1.04197 0
M  V30 16574 O 1570.75 1.27808 1.89413 0
M  V30 16575 C 1570.96 3.33742 -1.02064 0
M  V30 16576 C 1572.31 4.10678 -1.07837 0
M  V30 16577 O 1573.33 3.4274 -0.969943 0
M  V30 16578 O 1572.19 5.32135 -1.24476 0
M  V30 16579 H 1569.28 0.812615 -0.153575 0
M  V30 16580 H 1571.83 1.36036 -1.01451 0
M  V30 16581 H 1570.6 3.32404 -2.06454 0
M  V30 16582 H 1570.22 3.94845 -0.467234 0
M  V30 16583 N 1571.22 0.688118 1.41784 0
M  V30 16584 C 1572.47 0.215517 2.00948 0
M  V30 16585 C 1572.79 -1.18656 1.54744 0
M  V30 16586 O 1572.06 -1.79925 0.774831 0
M  V30 16587 H 1570.64 0.0766876 0.743053 0
M  V30 16588 H 1573.3 0.88761 1.73515 0
M  V30 16589 H 1572.4 0.227139 3.11272 0
M  V30 16590 N 1572.7 -1.51554 0.432352 0
M  V30 16591 C 1573.92 -2.06947 -0.136995 0
M  V30 16592 C 1574.35 -1.29817 -1.36122 0
M  V30 16593 O 1573.71 -0.334733 -1.78183 0
M  V30 16594 C 1573.75 -3.57871 -0.442785 0
M  V30 16595 O 1572.86 -3.82966 -1.53007 0
M  V30 16596 H 1572.2 -0.663988 -0.00405152 0
M  V30 16597 H 1574.73 -1.95225 0.612249 0
M  V30 16598 H 1574.74 -4.02042 -0.694694 0
M  V30 16599 H 1573.41 -4.13436 0.452013 0
M  V30 16600 H 1571.99 -3.50661 -1.26851 0
M  V30 16601 N 1574.18 -0.163538 -1.56749 0
M  V30 16602 C 1575.41 0.489178 -2.00725 0
M  V30 16603 C 1575.81 1.57869 -1.04279 0
M  V30 16604 O 1575.16 1.83668 -0.0344434 0
M  V30 16605 C 1575.22 1.13443 -3.41132 0
M  V30 16606 C 1574.88 0.187525 -4.56615 0
M  V30 16607 C 1575.88 -0.591169 -5.16528 0
M  V30 16608 C 1573.57 0.0856149 -5.02227 0
M  V30 16609 C 1575.56 -1.45905 -6.20476 0
M  V30 16610 C 1573.25 -0.785859 -6.06026 0
M  V30 16611 C 1574.24 -1.55678 -6.65021 0
M  V30 16612 O 1573.93 -2.41371 -7.66809 0
M  V30 16613 H 1573.66 0.130353 -0.663313 0
M  V30 16614 H 1576.22 -0.260065 -2.03747 0
M  V30 16615 H 1574.45 1.93165 -3.34999 0
M  V30 16616 H 1576.14 1.68856 -3.69111 0
M  V30 16617 H 1576.9 -0.522563 -4.82177 0
M  V30 16618 H 1572.78 0.675439 -4.56025 0
M  V30 16619 H 1576.33 -2.06125 -6.66452 0
M  V30 16620 H 1572.22 -0.855696 -6.39803 0
M  V30 16621 H 1572.99 -2.34801 -7.84099 0
M  V30 16622 N 1575.65 1.57214 0.110213 0
M  V30 16623 C 1576.62 2.00034 1.11888 0
M  V30 16624 C 1577.62 0.891697 1.33811 0
M  V30 16625 O 1578.81 1.15754 1.3018 0
M  V30 16626 C 1575.94 2.34806 2.47142 0
M  V30 16627 H 1577.13 2.90354 0.750647 0
M  V30 16628 H 1574.69 1.5222 0.35479 0
M  V30 16629 H 1575.42 1.47393 2.8887 0
M  V30 16630 H 1575.21 3.15671 2.32581 0
M  V30 16631 H 1576.7 2.68644 3.19719 0
M  V30 16632 N 1577.13 -0.380637 1.52934 0
M  V30 16633 C 1578.1 -1.44819 1.77652 0
M  V30 16634 C 1579.1 -1.47224 0.646657 0
M  V30 16635 O 1580.29 -1.48248 0.91477 0
M  V30 16636 C 1577.42 -2.8405 1.8849 0
M  V30 16637 H 1578.61 -1.24183 2.72981 0
M  V30 16638 H 1576.16 -0.61288 1.43783 0
M  V30 16639 H 1576.9 -3.1002 0.951751 0
M  V30 16640 H 1576.68 -2.83704 2.70655 0
M  V30 16641 H 1578.17 -3.61388 2.09257 0
M  V30 16642 N 1578.61 -1.44039 -0.639573 0
M  V30 16643 C 1579.86 -1.47589 -1.39961 0
M  V30 16644 C 1580.21 -0.103692 -1.9212 0
M  V30 16645 O 1579.5 0.879803 -1.70206 0
M  V30 16646 C 1579.7 -2.46459 -2.5883 0
M  V30 16647 C 1579.53 -3.93157 -2.18306 0
M  V30 16648 C 1578.3 -4.61409 -2.05984 0
M  V30 16649 C 1580.5 -4.8261 -1.77741 0
M  V30 16650 N 1578.48 -5.9297 -1.58935 0
M  V30 16651 C 1579.85 -6.03549 -1.41875 0
M  V30 16652 C 1581.9 -4.69749 -1.65046 0
M  V30 16653 C 1580.61 -7.13054 -0.94584 0
M  V30 16654 C 1582.63 -5.79271 -1.1916 0
M  V30 16655 C 1581.99 -6.99345 -0.842389 0
M  V30 16656 H 1578.09 -0.595136 -0.507284 0
M  V30 16657 H 1580.68 -1.8031 -0.734598 0
M  V30 16658 H 1578.85 -2.15742 -3.22971 0
M  V30 16659 H 1580.58 -2.40359 -3.25592 0
M  V30 16660 H 1577.34 -4.16104 -2.26173 0
M  V30 16661 H 1577.76 -6.62841 -1.37733 0
M  V30 16662 H 1582.4 -3.77361 -1.90679 0
M  V30 16663 H 1580.12 -8.05259 -0.677011 0
M  V30 16664 H 1583.71 -5.71344 -1.09808 0
M  V30 16665 H 1582.59 -7.8265 -0.492752 0
M  V30 16666 N 1580.09 0.879207 -1.30796 0
M  V30 16667 C 1581.02 2.00158 -1.20246 0
M  V30 16668 C 1582 1.69852 -0.091769 0
M  V30 16669 O 1583.18 1.92246 -0.274792 0
M  V30 16670 C 1580.31 3.3545 -0.899472 0
M  V30 16671 C 1579.27 3.80033 -1.96873 0
M  V30 16672 C 1578.59 5.12681 -1.51861 0
M  V30 16673 C 1579.89 3.98136 -3.38061 0
M  V30 16674 H 1581.59 2.09242 -2.14145 0
M  V30 16675 H 1579.13 1.00535 -1.03096 0
M  V30 16676 H 1581.09 4.13497 -0.812299 0
M  V30 16677 H 1579.81 3.26513 0.075189 0
M  V30 16678 H 1578.47 3.04219 -2.04564 0
M  V30 16679 H 1578.12 5.00178 -0.532063 0
M  V30 16680 H 1577.82 5.43482 -2.23386 0
M  V30 16681 H 1579.34 5.93247 -1.44534 0
M  V30 16682 H 1580.76 4.66604 -3.33096 0
M  V30 16683 H 1579.15 4.40321 -4.07722 0
M  V30 16684 H 1580.22 3.01807 -3.79526 0
M  V30 16685 N 1581.57 1.13606 1.09231 0
M  V30 16686 C 1582.79 0.922667 1.85746 0
M  V30 16687 C 1583.22 -0.523381 1.80672 0
M  V30 16688 O 1582.58 -1.37156 1.18566 0
M  V30 16689 C 1582.62 1.41762 3.31566 0
M  V30 16690 O 1581.73 0.60418 4.0795 0
M  V30 16691 H 1581.07 0.330523 0.575891 0
M  V30 16692 H 1583.6 1.51123 1.37924 0
M  V30 16693 H 1583.61 1.42212 3.82413 0
M  V30 16694 H 1582.28 2.47048 3.34574 0
M  V30 16695 H 1580.86 0.667721 3.66873 0
M  V30 16696 N 1583.05 -1.27244 0.929878 0
M  V30 16697 C 1584.46 -1.4662 0.630451 0
M  V30 16698 C 1584.66 -1.84077 -0.819633 0
M  V30 16699 O 1583.72 -1.95555 -1.59733 0
M  V30 16700 C 1585.03 -2.55709 1.58219 0
M  V30 16701 C 1586.58 -2.69569 1.59065 0
M  V30 16702 C 1587.05 -3.81818 2.52941 0
M  V30 16703 N 1588.54 -3.89195 2.51161 0
M  V30 16704 C 1589.28 -4.75474 3.20488 0
M  V30 16705 N 1588.78 -5.66225 3.99201 0
M  V30 16706 N 1590.57 -4.69222 3.09495 0
M  V30 16707 H 1582.72 -1.01216 1.86733 0
M  V30 16708 H 1584.98 -0.505737 0.801832 0
M  V30 16709 H 1584.69 -2.34985 2.61677 0
M  V30 16710 H 1584.56 -3.53141 1.32556 0
M  V30 16711 H 1586.95 -2.89672 0.563375 0
M  V30 16712 H 1587.03 -1.72616 1.88778 0
M  V30 16713 H 1586.67 -3.62467 3.55781 0
M  V30 16714 H 1586.6 -4.78202 2.20524 0
M  V30 16715 H 1589.1 -3.24305 1.93997 0
M  V30 16716 H 1589.41 -6.28925 4.4908 0
M  V30 16717 H 1587.75 -5.66013 4.03304 0
M  V30 16718 H 1590.94 -3.97322 2.47493 0
M  V30 16719 H 1591.12 -5.36244 3.63794 0
M  V30 16720 N 1584.52 -0.695628 -1.41417 0
M  V30 16721 C 1585.8 -0.154646 -1.94988 0
M  V30 16722 C 1586.18 1.33534 -1.63499 0
M  V30 16723 O 1585.53 2.08178 -0.942031 0
M  V30 16724 C 1585.74 -0.446004 -3.46138 0
M  V30 16725 C 1587.09 -0.37378 -4.22952 0
M  V30 16726 O 1588.11 -0.380921 -3.54157 0
M  V30 16727 O 1586.97 -0.33395 -5.45479 0
M  V30 16728 H 1584.06 -0.0150053 -0.826864 0
M  V30 16729 H 1586.61 -0.771792 -1.51134 0
M  V30 16730 H 1585.38 -1.47734 -3.6234 0
M  V30 16731 H 1585 0.202111 -3.97086 0
M  V30 16732 N 1586 1.51322 -0.440383 0
M  V30 16733 C 1587.23 2.07017 0.126018 0
M  V30 16734 C 1587.65 1.30537 1.35431 0
M  V30 16735 O 1587.01 0.344178 1.78003 0
M  V30 16736 C 1587.06 3.58101 0.4238 0
M  V30 16737 O 1586.16 3.83772 1.50973 0
M  V30 16738 H 1585.5 0.664 0.000530178 0
M  V30 16739 H 1588.03 1.94897 -0.622594 0
M  V30 16740 H 1588.04 4.02405 0.673363 0
M  V30 16741 H 1586.72 4.13191 -0.473932 0
M  V30 16742 H 1585.29 3.51329 1.24989 0
M  V30 16743 N 1587.48 0.171848 1.5666 0
M  V30 16744 C 1588.7 -0.482396 2.01712 0
M  V30 16745 C 1589.13 -1.5598 1.05128 0
M  V30 16746 O 1588.49 -1.81274 0.0309178 0
M  V30 16747 C 1588.54 -1.03716 3.45363 0
M  V30 16748 O 1587.64 -2.15114 3.51852 0
M  V30 16749 H 1586.98 -0.115439 0.653888 0
M  V30 16750 H 1589.51 0.275895 2.02731 0
M  V30 16751 H 1589.52 -1.35964 3.84679 0
M  V30 16752 H 1588.2 -0.24832 4.15158 0
M  V30 16753 H 1586.77 -1.83907 3.24396 0
M  V30 16754 N 1588.96 -1.5727 -0.101874 0
M  V30 16755 C 1590.19 -1.89943 -0.820329 0
M  V30 16756 C 1590.6 -0.764867 -1.72613 0
M  V30 16757 O 1589.96 0.263499 -1.80588 0
M  V30 16758 C 1590.01 -3.2219 -1.63939 0
M  V30 16759 O 1589.73 -4.31279 -0.770039 0
M  V30 16760 C 1591.23 -3.6868 -2.46151 0
M  V30 16761 H 1588.45 -0.628532 -0.234922 0
M  V30 16762 H 1590.99 -2.04339 -0.0811362 0
M  V30 16763 H 1589.15 -3.09411 -2.33117 0
M  V30 16764 H 1589.56 -5.07182 -1.33665 0
M  V30 16765 H 1591.04 -4.63928 -2.99124 0
M  V30 16766 H 1591.51 -2.96183 -3.24303 0
M  V30 16767 H 1592.12 -3.84303 -1.82185 0
M  V30 16768 N 1590.44 0.372521 -1.53134 0
M  V30 16769 C 1591.68 1.11405 -1.70178 0
M  V30 16770 C 1592.04 1.87194 -0.444559 0
M  V30 16771 O 1591.33 1.83165 0.562249 0
M  V30 16772 C 1591.52 2.10742 -2.88656 0
M  V30 16773 C 1591.35 1.44713 -4.25779 0
M  V30 16774 C 1590.12 1.2042 -4.90741 0
M  V30 16775 C 1592.32 0.888496 -5.06567 0
M  V30 16776 N 1590.3 0.506685 -6.11805 0
M  V30 16777 C 1591.67 0.319961 -6.19174 0
M  V30 16778 C 1593.73 0.786508 -4.91649 0
M  V30 16779 C 1592.43 -0.340609 -7.18493 0
M  V30 16780 C 1594.46 0.139732 -5.91235 0
M  V30 16781 C 1593.82 -0.41796 -7.03159 0
M  V30 16782 H 1589.92 0.393051 -0.676044 0
M  V30 16783 H 1592.5 0.401356 -1.90518 0
M  V30 16784 H 1590.67 2.79332 -2.69867 0
M  V30 16785 H 1592.41 2.77522 -2.94557 0
M  V30 16786 H 1589.16 1.48362 -4.49762 0
M  V30 16787 H 1589.58 0.173493 -6.76778 0
M  V30 16788 H 1594.23 1.20345 -4.05311 0
M  V30 16789 H 1591.94 -0.769521 -8.04428 0
M  V30 16790 H 1595.53 0.0618412 -5.81767 0
M  V30 16791 H 1594.41 -0.910519 -7.78896 0
M  V30 16792 N 1591.91 1.44376 0.631925 0
M  V30 16793 C 1592.84 1.54005 1.75512 0
M  V30 16794 C 1593.82 0.393126 1.65495 0
M  V30 16795 O 1595.01 0.613143 1.84267 0
M  V30 16796 C 1592.14 1.48313 3.14039 0
M  V30 16797 C 1591.09 2.61474 3.38844 0
M  V30 16798 C 1590.42 2.40834 4.77392 0
M  V30 16799 C 1591.72 4.03627 3.31485 0
M  V30 16800 H 1593.41 2.48019 1.6771 0
M  V30 16801 H 1590.96 1.19368 0.80543 0
M  V30 16802 H 1592.91 1.5365 3.9239 0
M  V30 16803 H 1591.64 0.508152 3.22623 0
M  V30 16804 H 1590.3 2.55525 2.62874 0
M  V30 16805 H 1589.94 1.4153 4.82678 0
M  V30 16806 H 1589.64 3.16703 4.94947 0
M  V30 16807 H 1591.17 2.47988 5.57974 0
M  V30 16808 H 1592.58 4.1095 3.99741 0
M  V30 16809 H 1590.98 4.79694 3.60574 0
M  V30 16810 H 1592.05 4.27255 2.29307 0
M  V30 16811 N 1593.39 -0.872258 1.31261 0
M  V30 16812 C 1594.62 -1.65795 1.23772 0
M  V30 16813 C 1595.03 -1.87766 -0.197351 0
M  V30 16814 O 1594.39 -1.43418 -1.1286 0
M  V30 16815 C 1594.44 -3.02722 1.9759 0
M  V30 16816 O 1594.16 -2.81734 3.35496 0
M  V30 16817 C 1595.66 -3.97165 1.96913 0
M  V30 16818 H 1592.88 -0.516959 0.427778 0
M  V30 16819 H 1595.43 -1.0889 1.73099 0
M  V30 16820 H 1593.58 -3.56322 1.5203 0
M  V30 16821 H 1594 -3.6869 3.73052 0
M  V30 16822 H 1595.47 -4.90566 2.53079 0
M  V30 16823 H 1595.95 -4.28778 0.951089 0
M  V30 16824 H 1596.55 -3.495 2.42342 0
M  V30 16825 N 1594.87 -1.14184 -1.08627 0
M  V30 16826 C 1595.83 -0.82954 -2.13662 0
M  V30 16827 C 1596.83 0.164794 -1.59953 0
M  V30 16828 O 1598.02 -0.0632831 -1.74085 0
M  V30 16829 C 1595.15 -0.236176 -3.40081 0
M  V30 16830 H 1596.35 -1.76038 -2.42797 0
M  V30 16831 H 1593.9 -0.947568 -1.24301 0
M  V30 16832 H 1594.64 0.70349 -3.16578 0
M  V30 16833 H 1594.42 -0.952341 -3.80359 0
M  V30 16834 H 1595.91 -0.03481 -4.17585 0
M  V30 16835 N 1596.35 1.26749 -0.936613 0
M  V30 16836 C 1597.6 1.93964 -0.581754 0
M  V30 16837 C 1597.92 1.73532 0.878449 0
M  V30 16838 O 1597.18 1.06295 1.64316 0
M  V30 16839 C 1597.48 3.4678 -0.864789 0
M  V30 16840 C 1597.14 3.87344 -2.30815 0
M  V30 16841 C 1595.81 3.98129 -2.70271 0
M  V30 16842 C 1598.16 4.07752 -3.24634 0
M  V30 16843 C 1595.49 4.26717 -4.02653 0
M  V30 16844 C 1597.84 4.37827 -4.56607 0
M  V30 16845 C 1596.5 4.46826 -4.95886 0
M  V30 16846 H 1595.77 0.709763 -0.212879 0
M  V30 16847 H 1598.42 1.50648 -1.18226 0
M  V30 16848 H 1596.72 3.91378 -0.181699 0
M  V30 16849 H 1598.42 3.96942 -0.569065 0
M  V30 16850 H 1595.01 3.79492 -1.99207 0
M  V30 16851 H 1599.19 3.98852 -2.95349 0
M  V30 16852 H 1594.45 4.31895 -4.32755 0
M  V30 16853 H 1598.62 4.52565 -5.293 0
M  V30 16854 H 1596.25 4.68732 -5.98494 0
M  V30 16855 N 1597.83 0.703118 1.41046 0
M  V30 16856 C 1599.07 0.237638 2.01403 0
M  V30 16857 C 1599.41 -1.16217 1.55587 0
M  V30 16858 O 1598.68 -1.78593 0.770377 0
M  V30 16859 C 1598.96 0.303738 3.58817 0
M  V30 16860 C 1598.82 1.74103 4.14739 0
M  V30 16861 C 1600.14 -0.332186 4.38845 0
M  V30 16862 H 1597.25 0.0878243 0.731749 0
M  V30 16863 H 1599.9 0.893264 1.67693 0
M  V30 16864 H 1598.05 -0.254485 3.87666 0
M  V30 16865 H 1599.72 2.35368 3.96736 0
M  V30 16866 H 1597.96 2.27277 3.69496 0
M  V30 16867 H 1598.63 1.73876 5.239 0
M  V30 16868 H 1601.11 0.143312 4.15853 0
M  V30 16869 H 1599.98 -0.255429 5.48305 0
M  V30 16870 H 1600.25 -1.41397 4.18878 0
M  V30 16871 N 1599.3 -1.51086 0.448402 0
M  V30 16872 C 1600.23 -2.30896 -0.347773 0
M  V30 16873 C 1601.22 -1.36792 -1.01104 0
M  V30 16874 O 1602.4 -1.65713 -1.01257 0
M  V30 16875 C 1599.53 -3.15901 -1.44304 0
M  V30 16876 C 1598.48 -4.18373 -0.90265 0
M  V30 16877 C 1597.81 -4.9197 -2.0945 0
M  V30 16878 C 1599.11 -5.22252 0.0705335 0
M  V30 16879 H 1600.8 -2.97704 0.318273 0
M  V30 16880 H 1598.35 -1.43169 0.154509 0
M  V30 16881 H 1600.3 -3.70519 -2.00733 0
M  V30 16882 H 1599.03 -2.46935 -2.13753 0
M  V30 16883 H 1597.69 -3.64823 -0.3605 0
M  V30 16884 H 1597.33 -4.19497 -2.77545 0
M  V30 16885 H 1597.03 -5.6127 -1.73926 0
M  V30 16886 H 1598.56 -5.49415 -2.66412 0
M  V30 16887 H 1599.97 -5.71876 -0.403814 0
M  V30 16888 H 1598.37 -5.99142 0.338905 0
M  V30 16889 H 1599.44 -4.74398 1.00373 0
M  V30 16890 N 1600.78 -0.180154 -1.56567 0
M  V30 16891 C 1601.73 0.746666 -2.18389 0
M  V30 16892 C 1602.7 1.22058 -1.12655 0
M  V30 16893 O 1603.88 1.28716 -1.40843 0
M  V30 16894 C 1601.02 1.96688 -2.83563 0
M  V30 16895 C 1600.14 1.53572 -4.03782 0
M  V30 16896 C 1599.27 2.71028 -4.56856 0
M  V30 16897 C 1598.31 2.24445 -5.69465 0
M  V30 16898 N 1597.45 3.35026 -6.17011 0
M  V30 16899 H 1602.29 0.212707 -2.9724 0
M  V30 16900 H 1599.83 0.093256 -1.46804 0
M  V30 16901 H 1601.78 2.68269 -3.19511 0
M  V30 16902 H 1600.41 2.4744 -2.073 0
M  V30 16903 H 1599.47 0.716323 -3.73595 0
M  V30 16904 H 1600.78 1.15385 -4.85271 0
M  V30 16905 H 1599.93 3.50753 -4.95032 0
M  V30 16906 H 1598.67 3.1248 -3.74443 0
M  V30 16907 H 1597.68 1.43169 -5.30832 0
M  V30 16908 H 1598.9 1.84041 -6.53686 0
M  V30 16909 H 1596.85 3.76037 -5.37524 0
M  V30 16910 H 1596.76 3.0096 -6.93512 0
M  V30 16911 H 1598.03 4.15009 -6.59839 0
M  V30 16912 N 1602.26 1.57322 0.0935319 0
M  V30 16913 C 1603.51 1.86443 0.797919 0
M  V30 16914 C 1603.84 0.769491 1.78304 0
M  V30 16915 O 1603.11 -0.222383 1.93225 0
M  V30 16916 C 1603.4 3.26201 1.52528 0
M  V30 16917 C 1603.25 4.46325 0.558031 0
M  V30 16918 C 1604.57 3.63879 2.47548 0
M  V30 16919 H 1601.69 0.678136 0.288618 0
M  V30 16920 H 1604.33 1.899 0.0615161 0
M  V30 16921 H 1602.48 3.23385 2.15301 0
M  V30 16922 H 1604.15 4.61257 -0.0628154 0
M  V30 16923 H 1602.4 4.3361 -0.128462 0
M  V30 16924 H 1603.07 5.40845 1.10413 0
M  V30 16925 H 1605.54 3.6765 1.94866 0
M  V30 16926 H 1604.42 4.62598 2.95456 0
M  V30 16927 H 1604.68 2.92647 3.31376 0
M  V30 16928 N 1603.74 -0.364395 1.53329 0
M  V30 16929 C 1604.67 -1.45243 1.8283 0
M  V30 16930 C 1605.65 -1.55834 0.681886 0
M  V30 16931 O 1606.83 -1.70383 0.931845 0
M  V30 16932 C 1603.96 -2.82565 2.01926 0
M  V30 16933 C 1602.92 -2.86797 3.17697 0
M  V30 16934 C 1602.24 -4.26806 3.22089 0
M  V30 16935 C 1603.54 -2.54212 4.56261 0
M  V30 16936 H 1605.24 -1.20804 2.73946 0
M  V30 16937 H 1602.78 -0.579705 1.31816 0
M  V30 16938 H 1604.74 -3.58709 2.21147 0
M  V30 16939 H 1603.46 -3.08394 1.07521 0
M  V30 16940 H 1602.12 -2.13105 2.98298 0
M  V30 16941 H 1601.77 -4.49712 2.25318 0
M  V30 16942 H 1601.47 -4.30553 3.99873 0
M  V30 16943 H 1602.99 -5.04821 3.43495 0
M  V30 16944 H 1604.41 -3.20069 4.75635 0
M  V30 16945 H 1602.8 -2.69273 5.36295 0
M  V30 16946 H 1603.87 -1.49458 4.61292 0
M  V30 16947 N 1605.22 -1.44709 -0.62426 0
M  V30 16948 C 1606.44 -1.51573 -1.41564 0
M  V30 16949 C 1606.87 -0.143806 -1.87549 0
M  V30 16950 O 1606.22 0.868361 -1.59151 0
M  V30 16951 C 1606.27 -2.49085 -2.60747 0
M  V30 16952 O 1605.38 -1.99712 -3.60817 0
M  V30 16953 H 1604.72 -0.51157 -0.423311 0
M  V30 16954 H 1607.25 -1.89908 -0.761316 0
M  V30 16955 H 1607.26 -2.67346 -3.08205 0
M  V30 16956 H 1605.93 -3.48733 -2.26624 0
M  V30 16957 H 1604.51 -1.9125 -3.20122 0
M  V30 16958 N 1606.69 0.865285 -1.31722 0
M  V30 16959 C 1607.62 1.98871 -1.22362 0
M  V30 16960 C 1608.61 1.69745 -0.109779 0
M  V30 16961 O 1609.79 1.91944 -0.295167 0
M  V30 16962 C 1606.92 3.34477 -0.935 0
M  V30 16963 C 1605.87 3.77924 -2.00892 0
M  V30 16964 C 1605.2 5.11042 -1.57291 0
M  V30 16965 C 1606.5 3.94528 -3.42264 0
M  V30 16966 H 1608.19 2.06959 -2.16352 0
M  V30 16967 H 1605.74 0.994355 -1.04157 0
M  V30 16968 H 1607.69 4.12612 -0.856111 0
M  V30 16969 H 1606.42 3.26575 0.0405536 0
M  V30 16970 H 1605.08 3.02032 -2.07779 0
M  V30 16971 H 1604.72 4.99586 -0.585084 0
M  V30 16972 H 1604.42 5.41082 -2.29138 0
M  V30 16973 H 1605.95 5.91681 -1.50818 0
M  V30 16974 H 1607.36 4.63045 -3.38027 0
M  V30 16975 H 1605.76 4.35972 -4.12369 0
M  V30 16976 H 1606.83 2.97765 -3.82706 0
M  V30 16977 N 1608.17 1.14759 1.0802 0
M  V30 16978 C 1609.14 0.840859 2.13219 0
M  V30 16979 C 1610.14 -0.156309 1.60038 0
M  V30 16980 O 1611.33 0.0725143 1.74049 0
M  V30 16981 C 1608.46 0.254208 3.39951 0
M  V30 16982 H 1609.65 1.77323 2.4186 0
M  V30 16983 H 1607.2 0.954146 1.23797 0
M  V30 16984 H 1607.94 -0.686692 3.16946 0
M  V30 16985 H 1607.72 0.972499 3.79848 0
M  V30 16986 H 1609.21 0.0569551 4.17561 0
M  V30 16987 N 1609.65 -1.26251 0.943322 0
M  V30 16988 C 1610.58 -2.25468 0.411904 0
M  V30 16989 C 1611.6 -1.55988 -0.466005 0
M  V30 16990 O 1612.78 -1.76352 -0.276106 0
M  V30 16991 C 1609.88 -3.362 -0.426909 0
M  V30 16992 C 1609.06 -4.35228 0.435346 0
M  V30 16993 C 1608.12 -5.25078 -0.343388 0
M  V30 16994 O 1607.14 -5.68632 0.254322 0
M  V30 16995 N 1608.34 -5.5687 -1.63939 0
M  V30 16996 H 1611.11 -2.71701 1.26486 0
M  V30 16997 H 1608.67 -1.40039 0.812438 0
M  V30 16998 H 1610.66 -3.93263 -0.955316 0
M  V30 16999 H 1609.23 -2.89446 -1.18067 0
M  V30 17000 H 1608.45 -3.77206 1.14495 0
M  V30 17001 H 1609.74 -4.98384 1.02427 0
M  V30 17002 H 1609.14 -5.2337 -2.14709 0
M  V30 17003 H 1607.7 -6.16566 -2.11399 0
M  V30 17004 N 1611.13 -0.710588 -1.40671 0
M  V30 17005 C 1612.04 -0.0557164 -2.34534 0
M  V30 17006 C 1613.06 0.749387 -1.57036 0
M  V30 17007 O 1614.23 0.683493 -1.89447 0
M  V30 17008 C 1611.3 0.858583 -3.35901 0
M  V30 17009 C 1610.36 0.043995 -4.29277 0
M  V30 17010 C 1609.59 0.91475 -5.25802 0
M  V30 17011 O 1609.81 2.15407 -5.28163 0
M  V30 17012 O 1608.75 0.356407 -6.00844 0
M  V30 17013 H 1612.57 -0.829807 -2.92144 0
M  V30 17014 H 1610.16 -0.471028 -1.4178 0
M  V30 17015 H 1612.04 1.38244 -3.98079 0
M  V30 17016 H 1610.72 1.61191 -2.80712 0
M  V30 17017 H 1609.62 -0.524815 -3.704 0
M  V30 17018 H 1610.96 -0.670996 -4.87605 0
M  V30 17019 N 1612.61 1.50847 -0.456408 0
M  V30 17020 C 1613.54 2.26004 0.381421 0
M  V30 17021 C 1614.55 1.30757 0.969872 0
M  V30 17022 O 1615.74 1.56375 0.86077 0
M  V30 17023 C 1612.84 3.01506 1.54748 0
M  V30 17024 C 1612.01 4.23997 1.07448 0
M  V30 17025 C 1611.07 4.81917 2.11288 0
M  V30 17026 O 1610.1 5.43238 1.69945 0
M  V30 17027 N 1611.3 4.67622 3.43962 0
M  V30 17028 H 1614.07 2.98545 -0.262823 0
M  V30 17029 H 1611.63 1.59347 -0.286357 0
M  V30 17030 H 1613.62 3.37137 2.23877 0
M  V30 17031 H 1612.19 2.31856 2.0967 0
M  V30 17032 H 1611.41 3.93642 0.209584 0
M  V30 17033 H 1612.7 5.03446 0.736144 0
M  V30 17034 H 1612.1 4.18821 3.8027 0
M  V30 17035 H 1610.65 5.07562 4.0893 0
M  V30 17036 N 1614.09 0.188454 1.56469 0
M  V30 17037 C 1615.33 -0.452728 1.97682 0
M  V30 17038 C 1615.66 -1.61729 1.07506 0
M  V30 17039 O 1614.94 -1.94094 0.125677 0
M  V30 17040 C 1615.22 -0.919257 3.48169 0
M  V30 17041 C 1615.08 0.246656 4.49123 0
M  V30 17042 C 1616.39 -1.78706 4.02184 0
M  V30 17043 H 1613.51 -0.16309 0.718729 0
M  V30 17044 H 1616.16 0.27804 1.87955 0
M  V30 17045 H 1614.31 -1.54195 3.5659 0
M  V30 17046 H 1615.98 0.884178 4.52747 0
M  V30 17047 H 1614.22 0.89948 4.24372 0
M  V30 17048 H 1614.89 -0.122179 5.51865 0
M  V30 17049 H 1617.37 -1.26196 3.96502 0
M  V30 17050 H 1616.24 -2.08247 5.07863 0
M  V30 17051 H 1616.5 -2.73891 3.47039 0
M  V30 17052 N 1615.56 -1.5737 -0.0851874 0
M  V30 17053 C 1616.81 -1.86219 -0.7853 0
M  V30 17054 C 1617.13 -0.77857 -1.78783 0
M  V30 17055 O 1616.4 0.194176 -1.94935 0
M  V30 17056 H 1614.98 -0.687134 -0.293013 0
M  V30 17057 H 1617.64 -1.94793 -0.0644597 0
M  V30 17058 H 1616.74 -2.83286 -1.30978 0
M  V30 17059 N 1617.04 0.356258 -1.53521 0
M  V30 17060 C 1618.29 1.09573 -1.69818 0
M  V30 17061 C 1618.61 1.89559 -0.457406 0
M  V30 17062 O 1617.88 1.88633 0.528616 0
M  V30 17063 H 1616.46 0.407512 -0.626054 0
M  V30 17064 H 1619.12 0.400612 -1.90738 0
M  V30 17065 H 1618.22 1.7803 -2.56343 0
M  V30 17066 N 1618.52 1.45038 0.616577 0
M  V30 17067 C 1619.74 1.52321 1.40759 0
M  V30 17068 C 1620.17 0.15375 1.87471 0
M  V30 17069 O 1619.53 -0.859908 1.5961 0
M  V30 17070 C 1619.58 2.50464 2.59423 0
M  V30 17071 O 1618.68 2.01623 3.59753 0
M  V30 17072 H 1618.02 0.513808 0.420592 0
M  V30 17073 H 1620.55 1.90309 0.751234 0
M  V30 17074 H 1620.56 2.68977 3.06783 0
M  V30 17075 H 1619.24 3.4993 2.24771 0
M  V30 17076 H 1617.81 1.92945 3.19103 0
M  V30 17077 N 1620 -0.858287 1.32179 0
M  V30 17078 C 1621.41 -1.4281 1.20259 0
M  V30 17079 C 1621.76 -1.95313 -0.186332 0
M  V30 17080 O 1620.88 -1.87244 -1.08484 0
M  V30 17081 C 1621.48 -2.59589 2.17713 0
M  V30 17082 C 1620.04 -3.1258 2.09691 0
M  V30 17083 C 1619.19 -1.85317 2.06283 0
M  V30 17084 H 1622.14 -0.665769 1.4406 0
M  V30 17085 H 1622.16 -3.36639 1.77354 0
M  V30 17086 H 1621.67 -2.21346 3.18791 0
M  V30 17087 H 1619.77 -3.55416 1.11849 0
M  V30 17088 H 1619.88 -3.74071 2.99346 0
M  V30 17089 H 1618.25 -2.04766 1.51469 0
M  V30 17090 H 1619.03 -1.49296 3.09137 0
M  V30 17091 N 1621.48 -1.1533 -1.07409 0
M  V30 17092 C 1622.39 -0.863514 -2.1813 0
M  V30 17093 C 1623.4 0.159954 -1.73263 0
M  V30 17094 O 1624.58 -0.0139818 -2.01395 0
M  V30 17095 C 1621.64 -0.356271 -3.44865 0
M  V30 17096 C 1620.7 -1.44356 -4.04302 0
M  V30 17097 C 1619.94 -0.960429 -5.24987 0
M  V30 17098 O 1620.16 0.194227 -5.70069 0
M  V30 17099 O 1619.09 -1.74387 -5.76084 0
M  V30 17100 H 1622.92 -1.78909 -2.45408 0
M  V30 17101 H 1620.5 -0.932362 -1.16736 0
M  V30 17102 H 1622.39 -0.0798183 -4.21324 0
M  V30 17103 H 1621.06 0.541445 -3.1914 0
M  V30 17104 H 1619.97 -1.77361 -3.29384 0
M  V30 17105 H 1621.3 -2.31617 -4.34298 0
M  V30 17106 N 1622.95 1.25748 -0.950004 0
M  V30 17107 C 1623.9 2.26061 -0.46531 0
M  V30 17108 C 1624.87 1.59021 0.479742 0
M  V30 17109 O 1626.06 1.86687 0.394011 0
M  V30 17110 C 1623.2 3.44156 0.255146 0
M  V30 17111 C 1622.31 4.25846 -0.726604 0
M  V30 17112 C 1621.44 5.31198 0.0159429 0
M  V30 17113 C 1620.48 6.04572 -0.957046 0
M  V30 17114 N 1619.62 7.0167 -0.245676 0
M  V30 17115 H 1624.46 2.66891 -1.32563 0
M  V30 17116 H 1622 1.31216 -0.664882 0
M  V30 17117 H 1623.95 4.11465 0.689381 0
M  V30 17118 H 1622.58 3.04213 1.07954 0
M  V30 17119 H 1621.64 3.58242 -1.27933 0
M  V30 17120 H 1622.95 4.76669 -1.46928 0
M  V30 17121 H 1622.1 6.04561 0.509037 0
M  V30 17122 H 1620.84 4.81235 0.791442 0
M  V30 17123 H 1619.85 5.30028 -1.46118 0
M  V30 17124 H 1621.07 6.56624 -1.7327 0
M  V30 17125 H 1619.02 6.54005 0.51117 0
M  V30 17126 H 1618.93 7.50289 -0.927527 0
M  V30 17127 H 1620.2 7.79172 0.226034 0
M  V30 17128 N 1624.43 0.718038 1.40292 0
M  V30 17129 C 1625.36 0.0818367 2.33357 0
M  V30 17130 C 1626.34 -0.742854 1.53022 0
M  V30 17131 O 1627.53 -0.691281 1.8148 0
M  V30 17132 C 1624.66 -0.838843 3.37017 0
M  V30 17133 C 1623.61 -0.119589 4.27833 0
M  V30 17134 C 1622.94 -1.15615 5.22051 0
M  V30 17135 C 1624.24 1.02769 5.1209 0
M  V30 17136 H 1625.93 0.859167 2.86808 0
M  V30 17137 H 1623.48 0.414606 1.37902 0
M  V30 17138 H 1625.43 -1.29332 4.01063 0
M  V30 17139 H 1624.15 -1.6481 2.81967 0
M  V30 17140 H 1622.81 0.315088 3.65243 0
M  V30 17141 H 1622.46 -1.95852 4.63304 0
M  V30 17142 H 1622.16 -0.679767 5.83655 0
M  V30 17143 H 1623.69 -1.61068 5.88973 0
M  V30 17144 H 1625.1 0.652461 5.69575 0
M  V30 17145 H 1623.5 1.4326 5.82749 0
M  V30 17146 H 1624.57 1.85723 4.47923 0
M  V30 17147 N 1625.91 -1.50602 0.464402 0
M  V30 17148 C 1626.84 -2.26203 -0.36943 0
M  V30 17149 C 1627.86 -1.31269 -0.962924 0
M  V30 17150 O 1629.04 -1.56829 -0.852465 0
M  V30 17151 C 1626.14 -3.02323 -1.53147 0
M  V30 17152 C 1625.32 -4.24561 -1.05198 0
M  V30 17153 C 1624.38 -4.83031 -2.08729 0
M  V30 17154 O 1623.4 -5.44131 -1.67062 0
M  V30 17155 N 1624.6 -4.6944 -3.41477 0
M  V30 17156 H 1627.37 -2.98402 0.278652 0
M  V30 17157 H 1624.93 -1.59193 0.294803 0
M  V30 17158 H 1626.92 -3.38319 -2.22086 0
M  V30 17159 H 1625.49 -2.32965 -2.08438 0
M  V30 17160 H 1624.71 -3.93748 -0.188705 0
M  V30 17161 H 1626 -5.0383 -0.709434 0
M  V30 17162 H 1625.4 -4.20832 -3.78044 0
M  V30 17163 H 1623.96 -5.09724 -4.06233 0
M  V30 17164 N 1627.39 -0.19675 -1.56367 0
M  V30 17165 C 1628.3 0.735372 -2.22777 0
M  V30 17166 C 1629.31 1.23336 -1.22737 0
M  V30 17167 O 1630.49 1.28017 -1.55479 0
M  V30 17168 C 1627.56 1.93706 -2.8754 0
M  V30 17169 C 1626.62 1.48348 -4.02854 0
M  V30 17170 C 1625.85 2.62788 -4.64519 0
M  V30 17171 O 1626.07 3.80311 -4.25111 0
M  V30 17172 O 1625.01 2.35406 -5.53956 0
M  V30 17173 H 1628.83 0.199788 -3.03042 0
M  V30 17174 H 1626.42 0.0326149 -1.49364 0
M  V30 17175 H 1628.3 2.63934 -3.28507 0
M  V30 17176 H 1626.97 2.46121 -2.10252 0
M  V30 17177 H 1625.88 0.749939 -3.66506 0
M  V30 17178 H 1627.21 1.00597 -4.8181 0
M  V30 17179 N 1628.87 1.57413 0.0768405 0
M  V30 17180 C 1630.09 1.91224 0.790007 0
M  V30 17181 C 1630.51 0.792232 1.71374 0
M  V30 17182 O 1629.87 -0.234736 1.80984 0
M  V30 17183 C 1629.92 3.24757 1.58793 0
M  V30 17184 O 1629.64 4.3245 0.701329 0
M  V30 17185 C 1631.14 3.72549 2.40254 0
M  V30 17186 H 1628.36 0.63219 0.224893 0
M  V30 17187 H 1630.9 2.04442 0.0486173 0
M  V30 17188 H 1629.06 3.13081 2.28165 0
M  V30 17189 H 1629.47 5.09245 1.2558 0
M  V30 17190 H 1630.95 4.68628 2.91705 0
M  V30 17191 H 1631.42 3.01305 3.1955 0
M  V30 17192 H 1632.03 3.87153 1.76048 0
M  V30 17193 N 1630.34 -0.348112 1.53707 0
M  V30 17194 C 1631.57 -1.11346 1.74976 0
M  V30 17195 C 1631.99 -1.81726 0.485525 0
M  V30 17196 O 1631.35 -1.72384 -0.561565 0
M  V30 17197 C 1631.4 -2.10611 2.92703 0
M  V30 17198 O 1630.5 -3.18042 2.62532 0
M  V30 17199 H 1629.85 -0.322247 0.580563 0
M  V30 17200 H 1632.38 -0.399898 2.00654 0
M  V30 17201 H 1632.39 -2.53912 3.19363 0
M  V30 17202 H 1631.06 -1.58782 3.84397 0
M  V30 17203 H 1629.64 -2.79591 2.46746 0
M  V30 17204 N 1631.82 -1.45363 -0.608876 0
M  V30 17205 C 1632.77 -1.54268 -1.7408 0
M  V30 17206 C 1633.76 -0.412752 -1.64295 0
M  V30 17207 O 1634.97 -0.58861 -1.70104 0
M  V30 17208 H 1631.35 -0.484528 -0.575097 0
M  V30 17209 H 1633.32 -2.49492 -1.63696 0
M  V30 17210 C 1632.07 -1.5253 -3.12458 0
M  V30 17211 H 1631.39 -2.38801 -3.20646 0
M  V30 17212 H 1632.83 -1.62819 -3.91492 0
M  V30 17213 C 1631.29 -0.249525 -3.35975 0
M  V30 17214 O 1631.82 0.671159 -3.96053 0
M  V30 17215 N 1630.02 -0.145625 -2.90235 0
M  V30 17216 H 1629.57 -0.895714 -2.41526 0
M  V30 17217 H 1629.53 0.707167 -3.06344 0
M  V30 17218 N 1633.3 0.851265 -1.32632 0
M  V30 17219 C 1634.55 1.60785 -1.24578 0
M  V30 17220 C 1634.9 1.91462 0.189803 0
M  V30 17221 O 1634.19 1.54839 1.12851 0
M  V30 17222 C 1634.39 2.93312 -2.04212 0
M  V30 17223 C 1634.22 2.75579 -3.55368 0
M  V30 17224 C 1632.99 2.73784 -4.247 0
M  V30 17225 C 1635.19 2.49095 -4.49951 0
M  V30 17226 N 1633.17 2.47298 -5.61887 0
M  V30 17227 C 1634.54 2.32046 -5.74939 0
M  V30 17228 C 1636.59 2.34591 -4.39171 0
M  V30 17229 C 1635.3 2.01965 -6.90364 0
M  V30 17230 C 1637.32 2.05902 -5.54399 0
M  V30 17231 C 1636.68 1.89655 -6.78388 0
M  V30 17232 H 1632.78 0.591922 -0.511031 0
M  V30 17233 H 1635.37 1.00037 -1.67035 0
M  V30 17234 H 1633.54 3.52033 -1.64095 0
M  V30 17235 H 1635.27 3.58369 -1.88026 0
M  V30 17236 H 1632.03 2.86845 -3.76851 0
M  V30 17237 H 1632.45 2.36973 -6.34171 0
M  V30 17238 H 1637.09 2.45871 -3.43959 0
M  V30 17239 H 1634.81 1.89423 -7.85585 0
M  V30 17240 H 1638.4 1.95452 -5.47987 0
M  V30 17241 H 1637.28 1.67772 -7.66043 0
M  V30 17242 N 1634.78 1.15898 1.06796 0
M  V30 17243 C 1635.71 0.88395 2.16122 0
M  V30 17244 C 1636.69 -0.167708 1.69271 0
M  V30 17245 O 1637.87 -0.0208846 1.94189 0
M  V30 17246 C 1635 0.378656 3.4523 0
M  V30 17247 C 1633.96 1.36764 4.05561 0
M  V30 17248 C 1633.28 0.720956 5.29817 0
M  V30 17249 C 1634.58 2.73554 4.44933 0
M  V30 17250 H 1636.28 1.79818 2.39386 0
M  V30 17251 H 1633.82 0.866008 1.15049 0
M  V30 17252 H 1635.78 0.17376 4.21042 0
M  V30 17253 H 1634.5 -0.571063 3.21569 0
M  V30 17254 H 1633.16 1.55899 3.318 0
M  V30 17255 H 1632.81 -0.235089 5.0245 0
M  V30 17256 H 1632.51 1.38101 5.71141 0
M  V30 17257 H 1634.03 0.525963 6.0833 0
M  V30 17258 H 1635.45 2.58231 5.11849 0
M  V30 17259 H 1633.84 3.35986 4.97226 0
M  V30 17260 H 1634.91 3.29192 3.56034 0
M  V30 17261 N 1636.26 -1.25243 0.956659 0
M  V30 17262 C 1637.19 -2.28159 0.496574 0
M  V30 17263 C 1638.17 -1.63814 -0.458132 0
M  V30 17264 O 1639.35 -1.90897 -0.356648 0
M  V30 17265 C 1636.48 -3.46573 -0.22454 0
M  V30 17266 C 1635.44 -4.2311 0.645104 0
M  V30 17267 C 1634.76 -5.343 -0.206867 0
M  V30 17268 C 1636.06 -4.85562 1.92422 0
M  V30 17269 H 1637.76 -2.66895 1.35675 0
M  V30 17270 H 1635.3 -1.28301 0.653827 0
M  V30 17271 H 1637.26 -4.17695 -0.55755 0
M  V30 17272 H 1635.98 -3.06833 -1.11898 0
M  V30 17273 H 1634.64 -3.53774 0.961228 0
M  V30 17274 H 1634.29 -4.908 -1.10112 0
M  V30 17275 H 1633.99 -5.86423 0.371714 0
M  V30 17276 H 1635.51 -6.08253 -0.534798 0
M  V30 17277 H 1636.92 -5.48817 1.65749 0
M  V30 17278 H 1635.32 -5.47871 2.44862 0
M  V30 17279 H 1636.39 -4.07634 2.62607 0
M  V30 17280 N 1637.73 -0.725468 -1.3991 0
M  V30 17281 C 1638.96 -0.277821 -2.05531 0
M  V30 17282 C 1639.38 1.07547 -1.54322 0
M  V30 17283 O 1638.74 1.6795 -0.682828 0
M  V30 17284 C 1638.79 -0.278676 -3.59522 0
M  V30 17285 O 1637.89 0.736864 -4.05764 0
M  V30 17286 H 1637.24 -0.128243 -0.651498 0
M  V30 17287 H 1639.77 -0.988721 -1.79124 0
M  V30 17288 H 1639.78 -0.119765 -4.07824 0
M  V30 17289 H 1638.45 -1.2662 -3.96157 0
M  V30 17290 H 1637.03 0.544869 -3.68898 0
M  V30 17291 N 1639.21 1.50354 -0.472382 0
M  V30 17292 C 1640.14 2.26396 0.357429 0
M  V30 17293 C 1641.16 1.31778 0.955949 0
M  V30 17294 O 1642.35 1.57279 0.844136 0
M  V30 17295 C 1639.45 3.03131 1.51542 0
M  V30 17296 C 1638.62 4.25113 1.02945 0
M  V30 17297 C 1637.68 4.84131 2.06164 0
M  V30 17298 O 1636.7 5.4501 1.64174 0
M  V30 17299 N 1637.91 4.71244 3.38983 0
M  V30 17300 H 1640.67 2.9825 -0.294473 0
M  V30 17301 H 1638.23 1.59035 -0.303242 0
M  V30 17302 H 1640.22 3.39492 2.20289 0
M  V30 17303 H 1638.79 2.34067 2.07199 0
M  V30 17304 H 1638.01 3.93843 0.167821 0
M  V30 17305 H 1639.3 5.04199 0.682705 0
M  V30 17306 H 1638.7 4.22831 3.75807 0
M  V30 17307 H 1637.26 5.11871 4.03524 0
M  V30 17308 N 1640.69 0.205039 1.56261 0
M  V30 17309 C 1641.62 -0.743854 2.16794 0
M  V30 17310 C 1642.64 -1.16959 1.13245 0
M  V30 17311 O 1643.83 -1.1036 1.40296 0
M  V30 17312 C 1640.93 -2.01717 2.7233 0
M  V30 17313 C 1640.1 -1.74965 4.00882 0
M  V30 17314 C 1639.16 -2.86841 4.41145 0
M  V30 17315 O 1638.18 -2.5602 5.08372 0
M  V30 17316 N 1639.39 -4.15425 4.05466 0
M  V30 17317 H 1642.15 -0.226145 2.98846 0
M  V30 17318 H 1639.71 0.0234276 1.61883 0
M  V30 17319 H 1641.7 -2.7572 2.96244 0
M  V30 17320 H 1640.27 -2.44582 1.94675 0
M  V30 17321 H 1639.49 -0.846903 3.84995 0
M  V30 17322 H 1640.78 -1.54501 4.84775 0
M  V30 17323 H 1640.18 -4.43314 3.5141 0
M  V30 17324 H 1638.74 -4.86023 4.3431 0
M  V30 17325 N 1642.17 -1.57451 -0.0684915 0
M  V30 17326 C 1643.1 -2.00648 -1.10783 0
M  V30 17327 C 1644.11 -0.912944 -1.34793 0
M  V30 17328 O 1645.3 -1.19079 -1.32975 0
M  V30 17329 C 1642.4 -2.33309 -2.45805 0
M  V30 17330 C 1641.58 -3.64551 -2.41704 0
M  V30 17331 C 1640.64 -3.84845 -3.5886 0
M  V30 17332 O 1639.66 -4.56392 -3.40139 0
M  V30 17333 N 1640.86 -3.27451 -4.79329 0
M  V30 17334 H 1643.63 -2.90422 -0.739938 0
M  V30 17335 H 1641.19 -1.59846 -0.257093 0
M  V30 17336 H 1643.18 -2.44056 -3.22829 0
M  V30 17337 H 1641.75 -1.49408 -2.74583 0
M  V30 17338 H 1640.97 -3.64528 -1.50043 0
M  V30 17339 H 1642.26 -4.50721 -2.36068 0
M  V30 17340 H 1641.66 -2.69384 -4.97442 0
M  V30 17341 H 1640.21 -3.43641 -5.53854 0
M  V30 17342 N 1643.65 0.339955 -1.5389 0
M  V30 17343 C 1644.61 1.40058 -1.81429 0
M  V30 17344 C 1645.61 1.45458 -0.685463 0
M  V30 17345 O 1646.8 1.45771 -0.953754 0
M  V30 17346 C 1643.93 2.78952 -1.95955 0
M  V30 17347 H 1645.13 1.16902 -2.76178 0
M  V30 17348 H 1642.68 0.574543 -1.45357 0
M  V30 17349 H 1643.41 3.07387 -1.03361 0
M  V30 17350 H 1643.2 2.76429 -2.78082 0
M  V30 17351 H 1644.69 3.55713 -2.18765 0
M  V30 17352 N 1645.13 1.45684 0.601159 0
M  V30 17353 C 1646.4 1.4051 1.36074 0
M  V30 17354 C 1646.78 0.0790095 2.10952 0
M  V30 17355 O 1646.13 -0.939162 2.08307 0
M  V30 17356 C 1646.34 2.62297 2.3022 0
M  V30 17357 C 1647.69 3.0766 2.92627 0
M  V30 17358 O 1648.71 2.62716 2.40539 0
M  V30 17359 O 1647.57 3.85675 3.87191 0
M  V30 17360 H 1644.67 0.557902 0.61047 0
M  V30 17361 H 1647.21 1.57822 0.623712 0
M  V30 17362 H 1645.98 3.50389 1.74194 0
M  V30 17363 H 1645.61 2.47351 3.11293 0
M  V30 17364 N 1646.6 -0.84422 1.33082 0
M  V30 17365 C 1647.85 -1.59596 1.2399 0
M  V30 17366 C 1648.17 -1.94016 -0.19566 0
M  V30 17367 O 1647.44 -1.60512 -1.12306 0
M  V30 17368 H 1646.02 -0.591727 0.455926 0
M  V30 17369 H 1648.68 -1.00924 1.66735 0
M  V30 17370 H 1647.78 -2.52829 1.82986 0
M  V30 17371 N 1648.08 -1.16463 -1.0618 0
M  V30 17372 C 1649.31 -0.97159 -1.83235 0
M  V30 17373 C 1649.73 0.475295 -1.81996 0
M  V30 17374 O 1649.09 1.33964 -1.22161 0
M  V30 17375 C 1649.14 -1.50504 -3.2769 0
M  V30 17376 O 1648.24 -0.712128 -4.06205 0
M  V30 17377 H 1647.58 -0.345676 -0.566925 0
M  V30 17378 H 1650.11 -1.54727 -1.33868 0
M  V30 17379 H 1650.12 -1.52301 -3.78508 0
M  V30 17380 H 1648.8 -2.55832 -3.27907 0
M  V30 17381 H 1647.37 -0.764756 -3.64974 0
M  V30 17382 N 1649.56 1.24734 -0.963288 0
M  V30 17383 C 1650.81 1.92686 -0.622766 0
M  V30 17384 C 1651.13 1.75357 0.841442 0
M  V30 17385 O 1650.39 1.09757 1.62025 0
M  V30 17386 C 1650.69 3.44867 -0.938151 0
M  V30 17387 C 1650.35 3.82361 -2.38979 0
M  V30 17388 C 1649.02 3.92307 -2.78655 0
M  V30 17389 C 1651.37 4.00775 -3.3321 0
M  V30 17390 C 1648.7 4.1808 -4.11614 0
M  V30 17391 C 1651.05 4.28043 -4.65792 0
M  V30 17392 C 1649.71 4.36207 -5.05252 0
M  V30 17393 H 1648.98 0.705088 -0.227886 0
M  V30 17394 H 1651.63 1.48107 -1.21395 0
M  V30 17395 H 1649.93 3.90905 -0.264676 0
M  V30 17396 H 1651.63 3.95645 -0.653134 0
M  V30 17397 H 1648.22 3.75182 -2.07212 0
M  V30 17398 H 1652.41 3.92497 -3.03743 0
M  V30 17399 H 1647.66 4.22619 -4.41818 0
M  V30 17400 H 1651.84 4.41236 -5.3878 0
M  V30 17401 H 1649.46 4.55931 -6.08301 0
M  V30 17402 N 1651.04 0.732878 1.39523 0
M  V30 17403 C 1651.97 0.0519358 2.29141 0
M  V30 17404 C 1652.98 -0.705687 1.4671 0
M  V30 17405 O 1654.17 -0.550202 1.69809 0
M  V30 17406 C 1651.27 -0.950691 3.25292 0
M  V30 17407 C 1650.44 -0.255028 4.36656 0
M  V30 17408 C 1649.5 -1.16546 5.13131 0
M  V30 17409 O 1648.53 -0.643742 5.65548 0
M  V30 17410 N 1649.73 -2.49534 5.24131 0
M  V30 17411 H 1652.5 0.8215 2.88221 0
M  V30 17412 H 1650.06 0.581924 1.5108 0
M  V30 17413 H 1652.05 -1.56232 3.73328 0
M  V30 17414 H 1650.62 -1.62148 2.67258 0
M  V30 17415 H 1649.84 0.537045 3.90525 0
M  V30 17416 H 1651.13 0.227162 5.08293 0
M  V30 17417 H 1650.53 -2.944 4.83058 0
M  V30 17418 H 1649.08 -3.05798 5.75613 0
M  V30 17419 N 1652.52 -1.50101 0.480349 0
M  V30 17420 C 1653.79 -1.95144 -0.133456 0
M  V30 17421 C 1654.17 -1.4211 -1.56102 0
M  V30 17422 O 1653.52 -0.626012 -2.19757 0
M  V30 17423 C 1653.73 -3.48935 -0.0672904 0
M  V30 17424 C 1655.08 -4.23854 -0.251564 0
M  V30 17425 O 1656.1 -3.55911 -0.143446 0
M  V30 17426 O 1654.96 -5.44467 -0.470947 0
M  V30 17427 H 1652.06 -0.820098 -0.106619 0
M  V30 17428 H 1654.6 -1.60832 0.541413 0
M  V30 17429 H 1653.37 -3.80111 0.929058 0
M  V30 17430 H 1653 -3.8981 -0.783214 0
M  V30 17431 N 1653.99 -0.213323 -1.5615 0
M  V30 17432 C 1655.4 0.29602 -1.84338 0
M  V30 17433 C 1655.76 1.60073 -1.13451 0
M  V30 17434 O 1654.88 2.12645 -0.4014 0
M  V30 17435 C 1655.48 0.54387 -3.34406 0
M  V30 17436 C 1654.03 0.997539 -3.62941 0
M  V30 17437 C 1653.18 0.0560823 -2.77243 0
M  V30 17438 H 1656.13 -0.436707 -1.52573 0
M  V30 17439 H 1656.15 1.39093 -3.54166 0
M  V30 17440 H 1655.67 -0.405885 -3.85972 0
M  V30 17441 H 1653.77 1.96094 -3.16825 0
M  V30 17442 H 1653.88 0.877642 -4.70993 0
M  V30 17443 H 1652.24 0.561362 -2.48437 0
M  V30 17444 H 1653.03 -0.888442 -3.31605 0
M  V30 17445 N 1655.47 1.57485 0.0601405 0
M  V30 17446 C 1656.71 1.89654 0.762278 0
M  V30 17447 C 1657.08 0.808458 1.74149 0
M  V30 17448 O 1658.28 1.01355 2.48959 0
M  V30 17449 C 1656.55 3.27038 1.44156 0
M  V30 17450 S 1658.11 3.8098 2.17715 0
M  V30 17451 H 1654.93 0.664373 0.253239 0
M  V30 17452 H 1657.53 1.95492 0.0179261 0
M  V30 17453 H 1656.23 4.0412 0.715225 0
M  V30 17454 H 1655.76 3.24427 2.2251 0
M  V30 17455 H 1657.78 3.57204 3.44413 0
M  V30 17456 N 1656.95 -0.331789 1.54068 0
M  V30 17457 C 1658.36 -0.906719 1.63204 0
M  V30 17458 C 1658.71 -1.89161 0.520837 0
M  V30 17459 O 1657.84 -2.1359 -0.347577 0
M  V30 17460 C 1658.43 -1.65132 2.95832 0
M  V30 17461 C 1656.99 -2.17509 3.07192 0
M  V30 17462 C 1656.14 -0.99788 2.58723 0
M  V30 17463 H 1659.09 -0.109595 1.58321 0
M  V30 17464 H 1659.11 -2.515 2.85531 0
M  V30 17465 H 1658.62 -0.934255 3.76687 0
M  V30 17466 H 1656.72 -2.92356 2.30995 0
M  V30 17467 H 1656.84 -2.43074 4.12858 0
M  V30 17468 H 1655.2 -1.37469 2.14417 0
M  V30 17469 H 1655.98 -0.295261 3.42028 0
M  V30 17470 N 1658.43 -1.46001 -0.593424 0
M  V30 17471 C 1659.67 -1.50978 -1.35401 0
M  V30 17472 C 1660.01 -0.156626 -1.93567 0
M  V30 17473 O 1659.28 0.83067 -1.7587 0
M  V30 17474 C 1659.57 -2.60005 -2.49137 0
M  V30 17475 C 1659.42 -4.04814 -1.96075 0
M  V30 17476 C 1660.74 -2.65199 -3.51223 0
M  V30 17477 H 1657.86 -0.549657 -0.490965 0
M  V30 17478 H 1660.5 -1.77883 -0.667644 0
M  V30 17479 H 1658.65 -2.37194 -3.07687 0
M  V30 17480 H 1660.32 -4.38879 -1.42066 0
M  V30 17481 H 1658.56 -4.148 -1.26976 0
M  V30 17482 H 1659.23 -4.76811 -2.78128 0
M  V30 17483 H 1661.71 -2.85675 -3.02537 0
M  V30 17484 H 1660.59 -3.43323 -4.28276 0
M  V30 17485 H 1660.85 -1.70833 -4.0776 0
M  V30 17486 N 1659.91 0.83715 -1.33527 0
M  V30 17487 C 1660.84 1.96231 -1.26553 0
M  V30 17488 C 1661.82 1.69474 -0.14576 0
M  V30 17489 O 1663 1.91274 -0.335815 0
M  V30 17490 C 1660.13 3.32419 -1.00574 0
M  V30 17491 C 1659.09 3.73577 -2.08864 0
M  V30 17492 C 1658.41 5.07591 -1.68095 0
M  V30 17493 C 1659.71 3.87179 -3.50556 0
M  V30 17494 H 1661.41 2.02324 -2.20693 0
M  V30 17495 H 1658.95 0.972038 -1.06242 0
M  V30 17496 H 1660.91 4.10703 -0.943439 0
M  V30 17497 H 1659.63 3.26587 -0.0287268 0
M  V30 17498 H 1658.29 2.97557 -2.14139 0
M  V30 17499 H 1657.94 4.98232 -0.690922 0
M  V30 17500 H 1657.64 5.361 -2.40563 0
M  V30 17501 H 1659.16 5.88349 -1.63334 0
M  V30 17502 H 1660.57 4.55771 -3.47772 0
M  V30 17503 H 1658.97 4.27127 -4.21524 0
M  V30 17504 H 1660.04 2.8958 -3.88936 0
M  V30 17505 N 1661.38 1.17024 1.05561 0
M  V30 17506 C 1662.66 0.86635 1.75367 0
M  V30 17507 C 1663.04 -0.634217 2.01348 0
M  V30 17508 O 1662.39 -1.58434 1.64654 0
M  V30 17509 C 1662.6 1.69719 3.04953 0
M  V30 17510 C 1663.95 1.91482 3.78972 0
M  V30 17511 O 1664.97 1.66647 3.14813 0
M  V30 17512 O 1663.83 2.33197 4.94248 0
M  V30 17513 H 1660.92 0.320412 0.762407 0
M  V30 17514 H 1663.47 1.277 1.11763 0
M  V30 17515 H 1662.24 2.71512 2.81775 0
M  V30 17516 H 1661.87 1.28408 3.76294 0
M  V30 17517 N 1662.86 -1.24221 0.969889 0
M  V30 17518 C 1664.28 -1.4454 0.676778 0
M  V30 17519 C 1664.48 -1.86591 -0.760656 0
M  V30 17520 O 1663.53 -2.00538 -1.5343 0
M  V30 17521 C 1664.85 -2.50546 1.66274 0
M  V30 17522 C 1666.4 -2.64372 1.67561 0
M  V30 17523 C 1666.87 -3.73577 2.6496 0
M  V30 17524 N 1668.36 -3.81007 2.63416 0
M  V30 17525 C 1669.1 -4.65037 3.35452 0
M  V30 17526 N 1668.59 -5.53238 4.17013 0
M  V30 17527 N 1670.39 -4.59138 3.24266 0
M  V30 17528 H 1662.54 -0.952237 1.89858 0
M  V30 17529 H 1664.8 -0.479972 0.817515 0
M  V30 17530 H 1664.51 -2.26541 2.6902 0
M  V30 17531 H 1664.38 -3.48745 1.43724 0
M  V30 17532 H 1666.77 -2.87733 0.655247 0
M  V30 17533 H 1666.85 -1.66523 1.94174 0
M  V30 17534 H 1666.49 -3.50965 3.67132 0
M  V30 17535 H 1666.42 -4.70944 2.35626 0
M  V30 17536 H 1668.91 -3.17969 2.04216 0
M  V30 17537 H 1669.23 -6.1432 4.68861 0
M  V30 17538 H 1667.57 -5.52896 4.21107 0
M  V30 17539 H 1670.76 -3.89247 2.60008 0
M  V30 17540 H 1670.93 -5.24399 3.8067 0
M  V30 17541 N 1664.34 -0.740267 -1.39132 0
M  V30 17542 C 1665.57 -0.299605 -2.05225 0
M  V30 17543 C 1665.99 1.05904 -1.55454 0
M  V30 17544 O 1665.35 1.67216 -0.700603 0
M  V30 17545 C 1665.4 -0.316792 -3.59206 0
M  V30 17546 O 1664.5 0.693786 -4.06522 0
M  V30 17547 H 1663.84 -0.135146 -0.650101 0
M  V30 17548 H 1666.37 -1.00766 -1.78065 0
M  V30 17549 H 1666.38 -0.163013 -4.07674 0
M  V30 17550 H 1665.06 -1.30814 -3.94792 0
M  V30 17551 H 1663.63 0.505712 -3.69455 0
M  V30 17552 N 1665.82 1.49844 -0.488302 0
M  V30 17553 C 1666.75 2.25604 0.343226 0
M  V30 17554 C 1667.73 1.29642 0.981415 0
M  V30 17555 O 1668.91 1.58904 1.014 0
M  V30 17556 C 1666.04 3.04541 1.48231 0
M  V30 17557 C 1665.09 4.15561 0.959774 0
M  V30 17558 S 1665.92 5.35319 -0.139328 0
M  V30 17559 C 1667.08 6.17808 1.00322 0
M  V30 17560 H 1667.31 2.95784 -0.299825 0
M  V30 17561 H 1664.84 1.5196 -0.273415 0
M  V30 17562 H 1666.8 3.50608 2.13505 0
M  V30 17563 H 1665.46 2.33854 2.09693 0
M  V30 17564 H 1664.65 4.7026 1.81304 0
M  V30 17565 H 1664.26 3.72019 0.384461 0
M  V30 17566 H 1666.55 6.49984 1.91121 0
M  V30 17567 H 1667.49 7.06367 0.495116 0
M  V30 17568 H 1667.9 5.50148 1.26482 0
M  V30 17569 N 1667.3 0.221601 1.56034 0
M  V30 17570 C 1668.23 -0.720818 2.1757 0
M  V30 17571 C 1669.24 -1.15751 1.14479 0
M  V30 17572 O 1670.43 -1.08865 1.41459 0
M  V30 17573 C 1667.53 -1.98817 2.74454 0
M  V30 17574 C 1666.7 -1.70703 4.02715 0
M  V30 17575 C 1665.76 -2.82146 4.44162 0
M  V30 17576 O 1664.79 -2.50614 5.11059 0
M  V30 17577 N 1665.99 -4.11101 4.09849 0
M  V30 17578 H 1668.76 -0.194436 2.99069 0
M  V30 17579 H 1666.32 0.0405962 1.61849 0
M  V30 17580 H 1668.31 -2.72562 2.99152 0
M  V30 17581 H 1666.88 -2.42503 1.97258 0
M  V30 17582 H 1666.1 -0.806022 3.85872 0
M  V30 17583 H 1667.39 -1.49351 4.86387 0
M  V30 17584 H 1666.78 -4.39562 3.56092 0
M  V30 17585 H 1665.34 -4.81389 4.3944 0
M  V30 17586 N 1668.77 -1.57515 -0.0517878 0
M  V30 17587 C 1670.02 -1.87843 -0.745624 0
M  V30 17588 C 1670.34 -0.816318 -1.77091 0
M  V30 17589 O 1669.61 0.152784 -1.95303 0
M  V30 17590 H 1668.19 -0.693194 -0.278372 0
M  V30 17591 H 1670.86 -1.94886 -0.0231267 0
M  V30 17592 H 1669.95 -2.86001 -1.2494 0
M  V30 17593 N 1670.25 0.323614 -1.54242 0
M  V30 17594 C 1671.5 1.05947 -1.72104 0
M  V30 17595 C 1671.82 1.88547 -0.497512 0
M  V30 17596 O 1671.09 1.89712 0.488485 0
M  V30 17597 H 1669.67 0.394141 -0.634557 0
M  V30 17598 H 1672.33 0.360063 -1.91545 0
M  V30 17599 H 1671.43 1.72552 -2.60062 0
M  V30 17600 N 1671.73 1.46313 0.585673 0
M  V30 17601 C 1672.66 1.59511 1.70524 0
M  V30 17602 C 1673.64 0.445578 1.6416 0
M  V30 17603 O 1674.83 0.671455 1.82223 0
M  V30 17604 C 1671.96 1.58229 3.09162 0
M  V30 17605 C 1670.91 2.72122 3.30354 0
M  V30 17606 C 1670.24 2.559 4.69489 0
M  V30 17607 C 1671.54 4.13969 3.18476 0
M  V30 17608 H 1673.23 2.53229 1.59735 0
M  V30 17609 H 1670.78 1.2187 0.767046 0
M  V30 17610 H 1672.73 1.66056 3.87303 0
M  V30 17611 H 1671.45 0.610535 3.20843 0
M  V30 17612 H 1670.11 2.63759 2.54611 0
M  V30 17613 H 1669.76 1.56814 4.77931 0
M  V30 17614 H 1669.46 3.32289 4.84621 0
M  V30 17615 H 1670.99 2.65613 5.49802 0
M  V30 17616 H 1672.4 4.23459 3.86465 0
M  V30 17617 H 1670.8 4.90922 3.45131 0
M  V30 17618 H 1671.87 4.34334 2.15598 0
M  V30 17619 N 1673.21 -0.830057 1.33969 0
M  V30 17620 C 1674.46 -1.58821 1.26111 0
M  V30 17621 C 1674.79 -1.9345 -0.170484 0
M  V30 17622 O 1674.06 -1.59433 -1.11407 0
M  V30 17623 C 1674.35 -2.89243 2.14501 0
M  V30 17624 C 1674.2 -2.61239 3.66162 0
M  V30 17625 C 1675.52 -3.90752 2.02487 0
M  V30 17626 H 1672.64 -0.576255 0.459455 0
M  V30 17627 H 1675.28 -0.956736 1.64154 0
M  V30 17628 H 1673.43 -3.43133 1.82186 0
M  V30 17629 H 1675.1 -2.13713 4.08809 0
M  V30 17630 H 1673.34 -1.94796 3.87604 0
M  V30 17631 H 1674.02 -3.54212 4.23365 0
M  V30 17632 H 1676.49 -3.46194 2.30844 0
M  V30 17633 H 1675.37 -4.79825 2.6657 0
M  V30 17634 H 1675.63 -4.30649 0.999704 0
M  V30 17635 N 1674.69 -1.17582 -1.04939 0
M  V30 17636 C 1675.94 -0.96387 -1.77634 0
M  V30 17637 C 1676.26 0.508548 -1.88252 0
M  V30 17638 O 1675.53 1.36913 -1.40113 0
M  V30 17639 H 1674.11 -0.353636 -0.65799 0
M  V30 17640 H 1676.77 -1.48104 -1.26693 0
M  V30 17641 H 1675.86 -1.39438 -2.79219 0
M  V30 17642 N 1676.17 1.23705 -0.976463 0
M  V30 17643 C 1677.11 2.27034 -0.505813 0
M  V30 17644 C 1678.11 1.63716 0.435148 0
M  V30 17645 O 1679.31 1.7732 0.309474 0
M  V30 17646 H 1675.69 0.737862 -0.145131 0
M  V30 17647 H 1677.66 2.64097 -1.38908 0
M  V30 17648 C 1676.41 3.47234 0.179987 0
M  V30 17649 H 1675.73 3.96205 -0.534969 0
M  V30 17650 H 1677.17 4.21353 0.472996 0
M  V30 17651 C 1675.63 3.05979 1.40991 0
M  V30 17652 O 1676.16 3.13914 2.50641 0
M  V30 17653 N 1674.37 2.60934 1.27913 0
M  V30 17654 H 1673.91 2.54677 0.38696 0
M  V30 17655 H 1673.87 2.33697 2.10316 0
M  V30 17656 N 1677.64 0.747635 1.38738 0
M  V30 17657 C 1678.92 0.226908 1.94279 0
M  V30 17658 C 1679.3 -1.27373 1.68343 0
M  V30 17659 O 1678.65 -2.04538 1.01865 0
M  V30 17660 C 1678.86 0.574164 3.44245 0
M  V30 17661 C 1680.21 0.530498 4.21273 0
M  V30 17662 O 1681.23 0.512102 3.525 0
M  V30 17663 O 1680.09 0.536171 5.43863 0
M  V30 17664 H 1677.18 0.0456834 0.825737 0
M  V30 17665 H 1679.73 0.827353 1.48165 0
M  V30 17666 H 1678.5 1.6108 3.56607 0
M  V30 17667 H 1678.12 -0.0545964 3.97563 0
M  V30 17668 N 1679.12 -1.49583 0.496242 0
M  V30 17669 C 1680.03 -2.32808 -0.289404 0
M  V30 17670 C 1681.05 -1.44324 -0.971933 0
M  V30 17671 O 1682.22 -1.77352 -0.954366 0
M  V30 17672 C 1679.29 -3.19645 -1.34269 0
M  V30 17673 C 1678.35 -4.23975 -0.6741 0
M  V30 17674 C 1677.58 -5.06661 -1.6772 0
M  V30 17675 O 1677.81 -4.90792 -2.90654 0
M  V30 17676 O 1676.74 -5.89091 -1.23514 0
M  V30 17677 H 1680.57 -3.01164 0.391664 0
M  V30 17678 H 1678.15 -1.47162 0.257652 0
M  V30 17679 H 1680.03 -3.73453 -1.9522 0
M  V30 17680 H 1678.71 -2.53989 -2.00677 0
M  V30 17681 H 1677.61 -3.74092 -0.0249732 0
M  V30 17682 H 1678.95 -4.92172 -0.0525442 0
M  V30 17683 N 1680.6 -0.229873 -1.55915 0
M  V30 17684 C 1681.83 0.404189 -2.02914 0
M  V30 17685 C 1682.24 1.52758 -1.10952 0
M  V30 17686 O 1681.6 1.82101 -0.120685 0
M  V30 17687 C 1681.65 0.928016 -3.49385 0
M  V30 17688 O 1681.37 -0.150592 -4.37841 0
M  V30 17689 C 1682.87 1.63448 -4.12067 0
M  V30 17690 H 1680.09 0.0980294 -0.663801 0
M  V30 17691 H 1682.64 -0.34876 -2.01504 0
M  V30 17692 H 1680.79 1.63121 -3.51384 0
M  V30 17693 H 1681.21 0.244429 -5.2393 0
M  V30 17694 H 1682.68 1.95292 -5.16299 0
M  V30 17695 H 1683.16 2.55055 -3.57553 0
M  V30 17696 H 1683.76 0.976292 -4.13943 0
M  V30 17697 N 1682.08 1.5754 0.0434337 0
M  V30 17698 C 1683.32 1.88887 0.7382 0
M  V30 17699 C 1683.66 0.825827 1.75766 0
M  V30 17700 O 1682.93 -0.160797 1.93834 0
M  V30 17701 C 1683.21 3.30889 1.42072 0
M  V30 17702 C 1683.07 4.47874 0.415754 0
M  V30 17703 C 1684.39 3.71571 2.35846 0
M  V30 17704 H 1681.51 0.686975 0.266897 0
M  V30 17705 H 1684.15 1.9 0.00106957 0
M  V30 17706 H 1682.3 3.30071 2.04903 0
M  V30 17707 H 1683.97 4.60824 -0.209529 0
M  V30 17708 H 1682.21 4.32982 -0.266346 0
M  V30 17709 H 1682.88 5.44084 0.931509 0
M  V30 17710 H 1685.36 3.73663 1.83071 0
M  V30 17711 H 1684.24 4.71763 2.80589 0
M  V30 17712 H 1684.5 3.03041 3.21898 0
M  V30 17713 N 1683.56 -0.31543 1.54411 0
M  V30 17714 C 1684.52 -1.37154 1.83634 0
M  V30 17715 C 1685.52 -1.44349 0.708518 0
M  V30 17716 O 1686.71 -1.44235 0.976824 0
M  V30 17717 C 1683.84 -2.758 2.00368 0
M  V30 17718 H 1685.03 -1.12493 2.78002 0
M  V30 17719 H 1682.59 -0.551346 1.46253 0
M  V30 17720 H 1683.32 -3.05704 1.08238 0
M  V30 17721 H 1683.11 -2.7197 2.82445 0
M  V30 17722 H 1684.6 -3.52187 2.24397 0
M  V30 17723 N 1685.03 -1.46622 -0.577906 0
M  V30 17724 C 1685.96 -1.60413 -1.69676 0
M  V30 17725 C 1686.95 -0.454277 -1.63922 0
M  V30 17726 O 1688.13 -0.68111 -1.81864 0
M  V30 17727 C 1685.26 -1.59866 -3.08318 0
M  V30 17728 C 1684.21 -2.7387 -3.28906 0
M  V30 17729 C 1683.54 -2.58386 -4.68125 0
M  V30 17730 C 1684.84 -4.15652 -3.16276 0
M  V30 17731 H 1686.53 -2.54073 -1.5839 0
M  V30 17732 H 1684.08 -1.22275 -0.760572 0
M  V30 17733 H 1686.03 -1.68108 -3.86417 0
M  V30 17734 H 1684.76 -0.627541 -3.20514 0
M  V30 17735 H 1683.42 -2.65105 -2.53209 0
M  V30 17736 H 1683.06 -1.59347 -4.77093 0
M  V30 17737 H 1682.76 -3.34855 -4.82852 0
M  V30 17738 H 1684.29 -2.68525 -5.48385 0
M  V30 17739 H 1685.7 -4.25503 -3.84214 0
M  V30 17740 H 1684.1 -4.92746 -3.42523 0
M  V30 17741 H 1685.17 -4.35471 -2.13291 0
M  V30 17742 N 1686.51 0.822941 -1.34408 0
M  V30 17743 C 1687.74 1.61087 -1.2984 0
M  V30 17744 C 1688.16 1.88369 0.127527 0
M  V30 17745 O 1687.51 1.47508 1.0746 0
M  V30 17746 C 1687.56 2.9518 -2.08689 0
M  V30 17747 O 1687.28 2.69089 -3.45721 0
M  V30 17748 C 1688.79 3.89583 -2.11518 0
M  V30 17749 H 1686.01 0.500726 -0.44667 0
M  V30 17750 H 1688.55 1.02391 -1.77021 0
M  V30 17751 H 1686.7 3.50434 -1.6515 0
M  V30 17752 H 1687.12 3.5459 -3.86479 0
M  V30 17753 H 1688.59 4.80835 -2.71111 0
M  V30 17754 H 1689.07 4.24953 -1.10957 0
M  V30 17755 H 1689.68 3.40265 -2.55146 0
M  V30 17756 N 1687.99 1.18137 1.04314 0
M  V30 17757 C 1688.95 0.908268 2.10436 0
M  V30 17758 C 1689.95 -0.105315 1.60455 0
M  V30 17759 O 1691.14 0.12785 1.7373 0
M  V30 17760 C 1688.28 0.362233 3.3897 0
M  V30 17761 H 1689.47 1.84928 2.36096 0
M  V30 17762 H 1687.02 0.993048 1.20699 0
M  V30 17763 H 1687.76 -0.58551 3.18971 0
M  V30 17764 H 1687.54 1.09285 3.76562 0
M  V30 17765 H 1689.03 0.18977 4.17169 0
M  V30 17766 N 1689.47 -1.23186 0.98301 0
M  V30 17767 C 1690.72 -1.91671 0.653342 0
M  V30 17768 C 1691.04 -1.76673 -0.813438 0
M  V30 17769 O 1690.3 -1.1232 -1.60258 0
M  V30 17770 C 1690.6 -3.43331 0.992898 0
M  V30 17771 C 1690.26 -3.78511 2.45032 0
M  V30 17772 C 1688.93 -3.87824 2.84861 0
M  V30 17773 C 1691.28 -3.95423 3.39544 0
M  V30 17774 C 1688.61 -4.11479 4.18213 0
M  V30 17775 C 1690.96 -4.20579 4.72543 0
M  V30 17776 C 1689.62 -4.28114 5.12128 0
M  V30 17777 H 1688.89 -0.701373 0.239075 0
M  V30 17778 H 1691.54 -1.46157 1.23736 0
M  V30 17779 H 1689.84 -3.90434 0.326832 0
M  V30 17780 H 1691.54 -3.94556 0.715995 0
M  V30 17781 H 1688.13 -3.71838 2.13154 0
M  V30 17782 H 1692.31 -3.87615 3.09949 0
M  V30 17783 H 1687.57 -4.15536 4.48486 0
M  V30 17784 H 1691.74 -4.32608 5.45732 0
M  V30 17785 H 1689.37 -4.46196 6.15478 0
M  V30 17786 N 1690.95 -0.754982 -1.38339 0
M  V30 17787 C 1692.19 -0.312224 -2.00382 0
M  V30 17788 C 1692.53 1.10362 -1.59793 0
M  V30 17789 O 1691.8 1.75611 -0.83613 0
M  V30 17790 C 1692.08 -0.436701 -3.57442 0
M  V30 17791 C 1691.94 -1.89376 -4.07991 0
M  V30 17792 C 1693.26 0.169083 -4.39775 0
M  V30 17793 H 1690.37 -0.114922 -0.727985 0
M  V30 17794 H 1693.02 -0.954887 -1.64262 0
M  V30 17795 H 1691.17 0.11043 -3.88343 0
M  V30 17796 H 1692.84 -2.4993 -3.87728 0
M  V30 17797 H 1691.08 -2.40834 -3.60807 0
M  V30 17798 H 1691.75 -1.932 -5.17086 0
M  V30 17799 H 1694.23 -0.297554 -4.15035 0
M  V30 17800 H 1693.1 0.0517531 -5.48876 0
M  V30 17801 H 1693.37 1.25754 -4.23838 0
M  V30 17802 N 1692.42 1.49318 -0.504168 0
M  V30 17803 C 1693.65 2.06869 0.0359415 0
M  V30 17804 C 1694.07 1.3641 1.30529 0
M  V30 17805 O 1693.42 0.443416 1.77031 0
M  V30 17806 C 1693.48 3.60333 0.290233 0
M  V30 17807 O 1693.2 4.28141 -0.928801 0
M  V30 17808 C 1694.7 4.34606 0.873628 0
M  V30 17809 H 1691.92 0.670643 -0.0218893 0
M  V30 17810 H 1694.46 1.92058 -0.702432 0
M  V30 17811 H 1692.62 3.74836 0.978594 0
M  V30 17812 H 1693.03 5.19894 -0.693595 0
M  V30 17813 H 1694.5 5.42846 1.00112 0
M  V30 17814 H 1694.98 3.97297 1.87221 0
M  V30 17815 H 1695.59 4.24717 0.222638 0
M  V30 17816 N 1693.9 0.238138 1.5579 0
M  V30 17817 C 1695.15 -0.389474 1.97904 0
M  V30 17818 C 1695.46 -1.59707 1.1293 0
M  V30 17819 O 1696.67 -2.29526 1.45017 0
M  V30 17820 C 1695.13 -0.744319 3.52119 0
M  V30 17821 C 1694.73 0.441387 4.4582 0
M  V30 17822 C 1696.48 -1.33661 4.02908 0
M  V30 17823 C 1694.39 0.063184 5.91366 0
M  V30 17824 H 1693.32 -0.149291 0.739072 0
M  V30 17825 H 1695.97 0.336972 1.80379 0
M  V30 17826 H 1694.35 -1.52865 3.65306 0
M  V30 17827 H 1695.52 1.21881 4.44389 0
M  V30 17828 H 1693.84 0.948017 4.05465 0
M  V30 17829 H 1696.43 -1.63276 5.09161 0
M  V30 17830 H 1696.78 -2.2581 3.49737 0
M  V30 17831 H 1697.31 -0.615366 3.93012 0
M  V30 17832 H 1694.05 0.951584 6.48556 0
M  V30 17833 H 1693.57 -0.678216 5.95953 0
M  V30 17834 H 1695.25 -0.357712 6.4601 0
M  V30 17835 N 1695.38 -1.57561 -0.0350783 0
M  V30 17836 C 1696.34 -2.05145 -1.02217 0
M  V30 17837 C 1697.34 -0.954524 -1.29404 0
M  V30 17838 O 1698.53 -1.21833 -1.24509 0
M  V30 17839 C 1695.67 -2.4633 -2.35658 0
M  V30 17840 H 1696.86 -2.93605 -0.61126 0
M  V30 17841 H 1694.41 -1.53739 -0.28176 0
M  V30 17842 H 1695.15 -1.61008 -2.81508 0
M  V30 17843 H 1694.93 -3.26408 -2.17256 0
M  V30 17844 H 1696.42 -2.83592 -3.06537 0
M  V30 17845 N 1696.86 0.307236 -1.54576 0
M  V30 17846 C 1697.79 1.38357 -1.88095 0
M  V30 17847 C 1698.77 1.53196 -0.739253 0
M  V30 17848 O 1699.95 1.66807 -0.99444 0
M  V30 17849 C 1697.08 2.74876 -2.12274 0
M  V30 17850 C 1696.04 2.74809 -3.28122 0
M  V30 17851 C 1695.36 4.14557 -3.37707 0
M  V30 17852 C 1696.66 2.37103 -4.65381 0
M  V30 17853 H 1698.36 1.10554 -2.78241 0
M  V30 17854 H 1695.9 0.530383 -1.33877 0
M  V30 17855 H 1697.86 3.50254 -2.34308 0
M  V30 17856 H 1696.58 3.04191 -1.18893 0
M  V30 17857 H 1695.24 2.01887 -3.06002 0
M  V30 17858 H 1694.89 4.41039 -2.41854 0
M  V30 17859 H 1694.59 4.15415 -4.15577 0
M  V30 17860 H 1696.11 4.91724 -3.61994 0
M  V30 17861 H 1697.53 3.02196 -4.87186 0
M  V30 17862 H 1695.92 2.49184 -5.45919 0
M  V30 17863 H 1696.99 1.32235 -4.66521 0
M  V30 17864 N 1698.34 1.46926 0.570122 0
M  V30 17865 C 1699.29 1.54854 1.67345 0
M  V30 17866 C 1700.27 0.40843 1.5563 0
M  V30 17867 O 1701.46 0.657596 1.64331 0
M  V30 17868 C 1698.59 1.55369 3.0613 0
M  V30 17869 C 1697.68 2.74718 3.23096 0
M  V30 17870 N 1698.07 3.99532 3.10173 0
M  V30 17871 C 1696.37 2.71207 3.54066 0
M  V30 17872 C 1697.07 4.79391 3.29483 0
M  V30 17873 N 1696.04 4.11484 3.55221 0
M  V30 17874 H 1699.85 2.49141 1.55903 0
M  V30 17875 H 1697.36 1.42741 0.774518 0
M  V30 17876 H 1699.36 1.59136 3.85333 0
M  V30 17877 H 1698.02 0.62167 3.18693 0
M  V30 17878 H 1699.03 4.3059 2.87772 0
M  V30 17879 H 1695.7 1.87086 3.73236 0
M  V30 17880 H 1697.09 5.88307 3.24569 0
M  V30 17881 N 1699.82 -0.815801 1.34842 0
M  V30 17882 C 1700.77 -1.9162 1.23555 0
M  V30 17883 C 1701.75 -1.6035 0.132922 0
M  V30 17884 O 1702.94 -1.73232 0.363269 0
M  V30 17885 C 1700.07 -3.284 1.00043 0
M  V30 17886 C 1699.16 -3.65765 2.14655 0
M  V30 17887 N 1699.55 -3.74639 3.39822 0
M  V30 17888 C 1697.85 -3.9566 2.05837 0
M  V30 17889 C 1698.55 -4.07478 4.15135 0
M  V30 17890 N 1697.52 -4.21075 3.43797 0
M  V30 17891 H 1701.32 -1.96669 2.184 0
M  V30 17892 H 1698.84 -1.00987 1.27183 0
M  V30 17893 H 1700.84 -4.07059 0.900462 0
M  V30 17894 H 1699.5 -3.24643 0.0607337 0
M  V30 17895 H 1700.51 -3.57951 3.74288 0
M  V30 17896 H 1697.18 -3.99982 1.19667 0
M  V30 17897 H 1698.57 -4.21488 5.23257 0
M  V30 17898 N 1701.29 -1.18689 -1.03686 0
M  V30 17899 C 1702.54 -0.982656 -1.76602 0
M  V30 17900 C 1702.86 0.488553 -1.88781 0
M  V30 17901 O 1702.13 1.35419 -1.41558 0
M  V30 17902 H 1700.71 -0.360595 -0.654202 0
M  V30 17903 H 1703.37 -1.49439 -1.25115 0
M  V30 17904 H 1702.47 -1.42392 -2.77725 0
M  V30 17905 N 1702.77 1.22662 -0.989529 0
M  V30 17906 C 1703.7 2.26762 -0.556891 0
M  V30 17907 C 1704.68 1.64971 0.414538 0
M  V30 17908 O 1705.87 1.91775 0.305909 0
M  V30 17909 C 1703 3.47047 0.132573 0
M  V30 17910 C 1701.95 4.21251 -0.757058 0
M  V30 17911 C 1701.28 5.3466 0.065134 0
M  V30 17912 C 1702.58 4.8029 -2.05229 0
M  V30 17913 H 1704.27 2.63204 -1.42703 0
M  V30 17914 H 1701.82 1.26522 -0.687614 0
M  V30 17915 H 1703.77 4.19027 0.446609 0
M  V30 17916 H 1702.49 3.09692 1.03723 0
M  V30 17917 H 1701.15 3.51101 -1.05469 0
M  V30 17918 H 1700.8 4.93547 0.970607 0
M  V30 17919 H 1700.5 5.85231 -0.527063 0
M  V30 17920 H 1702.03 6.09458 0.373342 0
M  V30 17921 H 1703.44 5.44229 -1.80242 0
M  V30 17922 H 1701.84 5.41186 -2.59302 0
M  V30 17923 H 1702.91 4.00529 -2.73322 0
M  V30 17924 N 1704.25 0.762308 1.37937 0
M  V30 17925 C 1705.21 0.148588 2.28718 0
M  V30 17926 C 1706.21 -0.638198 1.47593 0
M  V30 17927 O 1707.4 -0.463178 1.67929 0
M  V30 17928 C 1704.53 -0.797492 3.31441 0
M  V30 17929 H 1705.73 0.94872 2.84498 0
M  V30 17930 H 1703.28 0.529888 1.47044 0
M  V30 17931 H 1704.02 -1.62298 2.80767 0
M  V30 17932 H 1703.8 -0.23561 3.91391 0
M  V30 17933 H 1705.29 -1.22262 3.99302 0
M  V30 17934 N 1705.73 -1.49049 0.51208 0
M  V30 17935 C 1706.97 -2.0278 -0.0285311 0
M  V30 17936 C 1707.31 -1.39003 -1.35617 0
M  V30 17937 O 1706.58 -0.52952 -1.87153 0
M  V30 17938 C 1706.86 -3.59701 -0.169433 0
M  V30 17939 C 1706.72 -4.33989 1.18211 0
M  V30 17940 C 1708.04 -4.30698 -0.904812 0
M  V30 17941 H 1705.16 -0.736946 -0.00889467 0
M  V30 17942 H 1707.8 -1.77959 0.66564 0
M  V30 17943 H 1705.95 -3.8098 -0.760667 0
M  V30 17944 H 1707.62 -4.24176 1.81307 0
M  V30 17945 H 1705.86 -3.9611 1.76859 0
M  V30 17946 H 1706.53 -5.42177 1.03671 0
M  V30 17947 H 1709.01 -4.14141 -0.40327 0
M  V30 17948 H 1707.89 -5.40221 -0.972264 0
M  V30 17949 H 1708.15 -3.96718 -1.95108 0
M  V30 17950 N 1707.21 -0.246397 -1.55662 0
M  V30 17951 C 1708.45 0.378487 -1.98931 0
M  V30 17952 C 1708.78 1.57984 -1.13452 0
M  V30 17953 O 1708.04 1.94822 -0.185214 0
M  V30 17954 C 1708.33 0.832225 -3.47576 0
M  V30 17955 C 1708 -0.261318 -4.50142 0
M  V30 17956 C 1706.66 -0.56166 -4.77911 0
M  V30 17957 C 1709.01 -0.999618 -5.11524 0
M  V30 17958 C 1706.34 -1.60438 -5.64337 0
M  V30 17959 C 1708.69 -2.03186 -5.99081 0
M  V30 17960 C 1707.36 -2.33885 -6.25183 0
M  V30 17961 H 1706.63 0.138498 -0.727942 0
M  V30 17962 H 1709.28 -0.354116 -1.88197 0
M  V30 17963 H 1707.58 1.64402 -3.55639 0
M  V30 17964 H 1709.28 1.32598 -3.78442 0
M  V30 17965 H 1705.87 -0.0170894 -4.28597 0
M  V30 17966 H 1710.05 -0.780833 -4.90119 0
M  V30 17967 H 1705.31 -1.84758 -5.82816 0
M  V30 17968 H 1709.48 -2.60886 -6.45687 0
M  V30 17969 H 1707.11 -3.14822 -6.91947 0
M  V30 17970 N 1708.68 1.57577 0.026722 0
M  V30 17971 C 1709.62 2.03515 1.05424 0
M  V30 17972 C 1710.63 0.948362 1.32325 0
M  V30 17973 O 1711.82 1.22563 1.29771 0
M  V30 17974 C 1708.92 2.39744 2.39533 0
M  V30 17975 C 1708.09 3.70832 2.31954 0
M  V30 17976 C 1707.15 3.94224 3.48531 0
M  V30 17977 O 1706.18 4.6525 3.27919 0
M  V30 17978 N 1707.38 3.40044 4.70479 0
M  V30 17979 H 1710.14 2.92282 0.662678 0
M  V30 17980 H 1707.7 1.60471 0.214623 0
M  V30 17981 H 1709.7 2.52529 3.16245 0
M  V30 17982 H 1708.27 1.56636 2.70525 0
M  V30 17983 H 1707.49 3.68378 1.40325 0
M  V30 17984 H 1708.77 4.56821 2.24035 0
M  V30 17985 H 1708.17 2.82478 4.90125 0
M  V30 17986 H 1706.73 3.58205 5.44548 0
M  V30 17987 N 1710.16 -0.299034 1.54737 0
M  V30 17988 C 1711.44 -1.05371 1.64792 0
M  V30 17989 C 1711.82 -2.05155 0.497475 0
M  V30 17990 O 1711.17 -2.22837 -0.505573 0
M  V30 17991 C 1711.38 -1.73381 3.02886 0
M  V30 17992 C 1712.72 -2.25506 3.59767 0
M  V30 17993 O 1713.75 -1.8341 3.05351 0
M  V30 17994 O 1712.61 -3.02642 4.55049 0
M  V30 17995 H 1709.7 -0.487156 0.668287 0
M  V30 17996 H 1712.25 -0.296965 1.67081 0
M  V30 17997 H 1711.02 -1.00936 3.78058 0
M  V30 17998 H 1710.64 -2.55806 3.04383 0
M  V30 17999 N 1711.64 -1.47227 -0.562322 0
M  V30 18000 C 1712.55 -1.61953 -1.69731 0
M  V30 18001 C 1713.57 -0.502478 -1.66587 0
M  V30 18002 O 1714.74 -0.769335 -1.86127 0
M  V30 18003 C 1711.81 -1.62539 -3.06238 0
M  V30 18004 C 1710.87 -2.85632 -3.20489 0
M  V30 18005 C 1710.1 -2.86181 -4.50485 0
M  V30 18006 O 1710.32 -1.96099 -5.35632 0
M  V30 18007 O 1709.26 -3.7798 -4.68417 0
M  V30 18008 H 1713.08 -2.5798 -1.6025 0
M  V30 18009 H 1710.67 -1.30253 -0.73174 0
M  V30 18010 H 1712.55 -1.65634 -3.87483 0
M  V30 18011 H 1711.23 -0.696779 -3.16112 0
M  V30 18012 H 1710.13 -2.88084 -2.3866 0
M  V30 18013 H 1711.47 -3.7777 -3.15517 0
M  V30 18014 N 1713.12 0.808639 -1.35273 0
M  V30 18015 C 1714.37 1.56253 -1.28177 0
M  V30 18016 C 1714.69 1.94466 0.144151 0
M  V30 18017 O 1713.96 1.63433 1.08011 0
M  V30 18018 H 1712.54 0.579431 -0.471454 0
M  V30 18019 H 1715.2 0.964675 -1.69352 0
M  V30 18020 H 1714.29 2.47888 -1.89625 0
M  V30 18021 N 1714.6 1.19237 1.03055 0
M  V30 18022 C 1715.56 0.930536 2.0946 0
M  V30 18023 C 1716.56 -0.0882907 1.60557 0
M  V30 18024 O 1717.75 0.146269 1.73585 0
M  V30 18025 C 1714.88 0.398165 3.38567 0
M  V30 18026 H 1716.07 1.87422 2.34122 0
M  V30 18027 H 1713.63 1.00579 1.19639 0
M  V30 18028 H 1714.36 -0.551646 3.19574 0
M  V30 18029 H 1714.15 1.13273 3.75382 0
M  V30 18030 H 1715.64 0.234006 4.16944 0
M  V30 18031 N 1716.07 -1.22136 0.99602 0
M  V30 18032 C 1716.98 -2.27869 0.557927 0
M  V30 18033 C 1718 -1.69462 -0.394781 0
M  V30 18034 O 1719.18 -1.99704 -0.26084 0
M  V30 18035 C 1716.24 -3.46501 -0.117434 0
M  V30 18036 C 1715.3 -4.20213 0.878627 0
M  V30 18037 C 1714.54 -5.33181 0.2354 0
M  V30 18038 O 1714.76 -5.62093 -0.969954 0
M  V30 18039 O 1713.69 -5.94486 0.941828 0
M  V30 18040 H 1717.52 -2.67517 1.43765 0
M  V30 18041 H 1715.1 -1.28362 0.764428 0
M  V30 18042 H 1716.99 -4.18476 -0.49559 0
M  V30 18043 H 1715.66 -3.08772 -0.971674 0
M  V30 18044 H 1714.57 -3.50497 1.30777 0
M  V30 18045 H 1715.9 -4.6183 1.70217 0
M  V30 18046 N 1717.55 -0.769612 -1.37531 0
M  V30 18047 C 1718.96 -0.398644 -1.82394 0
M  V30 18048 C 1719.31 1.07493 -1.64133 0
M  V30 18049 O 1718.44 1.83234 -1.15127 0
M  V30 18050 C 1719.03 -0.716789 -3.31131 0
M  V30 18051 C 1717.59 -0.398903 -3.7428 0
M  V30 18052 C 1716.74 -0.96173 -2.60089 0
M  V30 18053 H 1719.69 -0.964441 -1.26033 0
M  V30 18054 H 1719.71 -0.00067688 -3.805 0
M  V30 18055 H 1719.22 -1.78933 -3.4439 0
M  V30 18056 H 1717.33 0.666412 -3.66592 0
M  V30 18057 H 1717.44 -0.90566 -4.70462 0
M  V30 18058 H 1715.8 -0.386103 -2.51757 0
M  V30 18059 H 1716.59 -2.03963 -2.76141 0
M  V30 18060 N 1719.03 1.48775 -0.519977 0
M  V30 18061 C 1719.96 2.32292 0.237213 0
M  V30 18062 C 1720.94 1.4146 0.944625 0
M  V30 18063 O 1722.13 1.70355 0.932349 0
M  V30 18064 C 1719.26 3.22426 1.29068 0
M  V30 18065 C 1718.21 4.22204 0.702011 0
M  V30 18066 C 1717.54 5.01403 1.85739 0
M  V30 18067 C 1718.84 5.21321 -0.319626 0
M  V30 18068 H 1720.53 2.95846 -0.459949 0
M  V30 18069 H 1718.08 1.42268 -0.222641 0
M  V30 18070 H 1720.03 3.79674 1.82826 0
M  V30 18071 H 1718.75 2.56853 2.01728 0
M  V30 18072 H 1717.41 3.66128 0.186027 0
M  V30 18073 H 1717.06 4.32262 2.57214 0
M  V30 18074 H 1716.76 5.68929 1.46949 0
M  V30 18075 H 1718.28 5.615 2.39895 0
M  V30 18076 H 1719.7 5.73151 0.130505 0
M  V30 18077 H 1718.1 5.96843 -0.624377 0
M  V30 18078 H 1719.17 4.69069 -1.22893 0
M  V30 18079 N 1720.51 0.254649 1.55529 0
M  V30 18080 C 1721.46 -0.64162 2.21702 0
M  V30 18081 C 1722.43 -1.16544 1.1835 0
M  V30 18082 O 1723.61 -1.2185 1.46824 0
M  V30 18083 C 1720.75 -1.82935 2.92624 0
M  V30 18084 C 1719.86 -1.34132 4.10649 0
M  V30 18085 C 1719 -2.48922 4.69267 0
M  V30 18086 C 1718.04 -1.9702 5.79525 0
M  V30 18087 N 1717.17 -3.05206 6.32293 0
M  V30 18088 H 1722.01 -0.0706476 2.97916 0
M  V30 18089 H 1719.55 -0.0231077 1.47082 0
M  V30 18090 H 1721.51 -2.52719 3.31947 0
M  V30 18091 H 1720.14 -2.37267 2.1887 0
M  V30 18092 H 1719.19 -0.53726 3.76587 0
M  V30 18093 H 1720.5 -0.921003 4.90223 0
M  V30 18094 H 1719.66 -3.26735 5.11203 0
M  V30 18095 H 1718.4 -2.94259 3.88925 0
M  V30 18096 H 1717.4 -1.17679 5.37058 0
M  V30 18097 H 1718.63 -1.52643 6.61723 0
M  V30 18098 H 1716.57 -3.49963 5.54853 0
M  V30 18099 H 1716.49 -2.67528 7.07082 0
M  V30 18100 H 1717.76 -3.83055 6.78888 0
M  V30 18101 N 1721.99 -1.57589 -0.0183649 0
M  V30 18102 C 1722.92 -2.04071 -1.04343 0
M  V30 18103 C 1723.93 -0.955366 -1.3182 0
M  V30 18104 O 1725.12 -1.23249 -1.29119 0
M  V30 18105 C 1722.22 -2.41011 -2.38258 0
M  V30 18106 C 1721.39 -3.72057 -2.29984 0
M  V30 18107 C 1720.45 -3.96067 -3.46435 0
M  V30 18108 O 1719.48 -4.66982 -3.25447 0
M  V30 18109 N 1720.68 -3.42535 -4.68669 0
M  V30 18110 H 1723.45 -2.92629 -0.647168 0
M  V30 18111 H 1721.01 -1.60583 -0.20611 0
M  V30 18112 H 1723 -2.54203 -3.14902 0
M  V30 18113 H 1721.57 -1.58068 -2.69691 0
M  V30 18114 H 1720.79 -3.69117 -1.38369 0
M  V30 18115 H 1722.08 -4.58003 -2.2161 0
M  V30 18116 H 1721.47 -2.85073 -4.8862 0
M  V30 18117 H 1720.03 -3.61087 -5.42641 0
M  V30 18118 N 1723.46 0.290824 -1.54893 0
M  V30 18119 C 1724.88 0.637054 -1.46334 0
M  V30 18120 C 1725.08 1.90285 -0.66285 0
M  V30 18121 O 1724.14 2.51896 -0.174589 0
M  V30 18122 C 1725.45 0.780585 -2.90392 0
M  V30 18123 C 1727 0.875807 -3.00497 0
M  V30 18124 C 1727.47 1.05126 -4.45772 0
M  V30 18125 N 1728.96 1.11721 -4.49525 0
M  V30 18126 C 1729.7 1.27145 -5.59126 0
M  V30 18127 N 1729.19 1.39401 -6.7863 0
M  V30 18128 N 1730.99 1.30114 -5.46833 0
M  V30 18129 H 1723.14 -0.540707 -2.05402 0
M  V30 18130 H 1725.4 -0.180344 -0.930688 0
M  V30 18131 H 1725.11 -0.0787855 -3.51612 0
M  V30 18132 H 1724.98 1.66644 -3.38392 0
M  V30 18133 H 1727.37 1.72566 -2.39385 0
M  V30 18134 H 1727.45 -0.0342844 -2.55777 0
M  V30 18135 H 1727.09 0.206135 -5.07482 0
M  V30 18136 H 1727.02 1.97573 -4.88132 0
M  V30 18137 H 1729.51 1.03562 -3.63433 0
M  V30 18138 H 1729.83 1.50953 -7.57914 0
M  V30 18139 H 1728.17 1.36438 -6.81476 0
M  V30 18140 H 1731.36 1.20157 -4.52416 0
M  V30 18141 H 1731.54 1.4179 -6.32297 0
M  V30 18142 N 1724.94 1.47523 0.554506 0
M  V30 18143 C 1726.19 1.54515 1.3135 0
M  V30 18144 C 1726.52 0.207892 1.93084 0
M  V30 18145 O 1725.8 -0.783749 1.7801 0
M  V30 18146 C 1726.08 2.66519 2.42156 0
M  V30 18147 C 1725.93 4.0987 1.85274 0
M  V30 18148 C 1727.25 2.74418 3.44068 0
M  V30 18149 H 1724.37 0.562481 0.476219 0
M  V30 18150 H 1727.01 1.79591 0.620246 0
M  V30 18151 H 1725.16 2.45268 3.0129 0
M  V30 18152 H 1726.83 4.42492 1.3038 0
M  V30 18153 H 1725.08 4.18021 1.15934 0
M  V30 18154 H 1725.75 4.84017 2.65389 0
M  V30 18155 H 1728.22 2.93596 2.94857 0
M  V30 18156 H 1727.1 3.54557 4.19023 0
M  V30 18157 H 1727.36 1.81584 4.03088 0
M  V30 18158 N 1726.42 -0.801453 1.357 0
M  V30 18159 C 1727.33 -1.94505 1.31167 0
M  V30 18160 C 1728.35 -1.72657 0.215747 0
M  V30 18161 O 1729.52 -1.96399 0.446022 0
M  V30 18162 C 1726.59 -3.29175 1.08834 0
M  V30 18163 C 1725.65 -3.63883 2.27788 0
M  V30 18164 C 1724.88 -4.92127 2.06511 0
M  V30 18165 O 1725.1 -5.60947 1.03416 0
M  V30 18166 O 1724.04 -5.25213 2.93998 0
M  V30 18167 H 1727.86 -2.01277 2.27423 0
M  V30 18168 H 1725.45 -0.939979 1.16124 0
M  V30 18169 H 1727.33 -4.09787 0.98248 0
M  V30 18170 H 1726.01 -3.23322 0.156326 0
M  V30 18171 H 1724.91 -2.83627 2.4394 0
M  V30 18172 H 1726.25 -3.74446 3.19454 0
M  V30 18173 N 1727.9 -1.19782 -1.02421 0
M  V30 18174 C 1728.86 -0.941631 -2.08964 0
M  V30 18175 C 1729.86 0.0797747 -1.60602 0
M  V30 18176 O 1731.05 -0.155473 -1.73505 0
M  V30 18177 C 1728.18 -0.416114 -3.38351 0
M  V30 18178 H 1729.38 -1.88661 -2.33125 0
M  V30 18179 H 1726.93 -1.01212 -1.19104 0
M  V30 18180 H 1727.66 0.53469 -3.19862 0
M  V30 18181 H 1727.45 -1.15262 -3.74776 0
M  V30 18182 H 1728.94 -0.256114 -4.16814 0
M  V30 18183 N 1729.38 1.21606 -1.00248 0
M  V30 18184 C 1730.6 1.95149 -0.702249 0
M  V30 18185 C 1731.03 1.73429 0.728293 0
M  V30 18186 O 1730.39 1.01953 1.49917 0
M  V30 18187 C 1730.43 3.45705 -1.0257 0
M  V30 18188 O 1729.54 4.12196 -0.129575 0
M  V30 18189 H 1728.88 0.610173 -0.261888 0
M  V30 18190 H 1731.41 1.54435 -1.34205 0
M  V30 18191 H 1731.42 3.96265 -0.97151 0
M  V30 18192 H 1730.09 3.60838 -2.06806 0
M  V30 18193 H 1728.67 3.72126 -0.240074 0
M  V30 18194 N 1730.86 0.776895 1.37121 0
M  V30 18195 C 1732.1 0.340209 1.9881 0
M  V30 18196 C 1732.42 -1.09071 1.62367 0
M  V30 18197 O 1733.62 -1.62904 2.17197 0
M  V30 18198 C 1732.08 0.557325 3.55559 0
M  V30 18199 C 1731.69 1.99884 4.00937 0
M  V30 18200 C 1733.43 0.184519 4.24099 0
M  V30 18201 C 1731.34 2.16328 5.50415 0
M  V30 18202 H 1730.27 0.12346 0.743824 0
M  V30 18203 H 1732.92 0.956754 1.56584 0
M  V30 18204 H 1731.3 -0.128752 3.95791 0
M  V30 18205 H 1732.48 2.72029 3.71937 0
M  V30 18206 H 1730.79 2.32872 3.45195 0
M  V30 18207 H 1733.39 0.285827 5.33935 0
M  V30 18208 H 1733.73 -0.865859 4.07196 0
M  V30 18209 H 1734.26 0.823343 3.89186 0
M  V30 18210 H 1731 3.19703 5.7225 0
M  V30 18211 H 1730.52 1.48673 5.81082 0
M  V30 18212 H 1732.2 1.96437 6.16459 0
M  V30 18213 N 1732.33 -1.48497 0.527859 0
M  V30 18214 C 1733.56 -2.07399 -0.00510725 0
M  V30 18215 C 1733.98 -1.38211 -1.2759 0
M  V30 18216 O 1733.34 -0.447373 -1.75694 0
M  V30 18217 C 1733.39 -3.59963 -0.214295 0
M  V30 18218 O 1732.49 -3.91921 -1.28342 0
M  V30 18219 H 1731.83 -0.662901 0.0381838 0
M  V30 18220 H 1734.36 -1.90936 0.735166 0
M  V30 18221 H 1734.37 -4.05646 -0.437604 0
M  V30 18222 H 1733.05 -4.09725 0.714028 0
M  V30 18223 H 1731.63 -3.58019 -1.04293 0
M  V30 18224 N 1733.81 -0.262893 -1.55392 0
M  V30 18225 C 1734.76 0.629853 -2.22039 0
M  V30 18226 C 1735.73 1.15915 -1.18966 0
M  V30 18227 O 1736.91 1.21069 -1.47468 0
M  V30 18228 C 1734.05 1.8138 -2.9359 0
M  V30 18229 C 1733.17 1.31952 -4.11355 0
M  V30 18230 C 1732.3 2.4643 -4.7058 0
M  V30 18231 C 1731.34 1.93944 -5.80562 0
M  V30 18232 N 1730.48 3.01848 -6.33902 0
M  V30 18233 H 1735.32 0.0548473 -2.9795 0
M  V30 18234 H 1732.85 0.0153072 -1.47092 0
M  V30 18235 H 1734.81 2.50955 -3.33283 0
M  V30 18236 H 1733.44 2.36103 -2.20125 0
M  V30 18237 H 1732.49 0.517281 -3.76866 0
M  V30 18238 H 1733.81 0.894993 -4.90705 0
M  V30 18239 H 1732.96 3.2402 -5.12929 0
M  V30 18240 H 1731.7 2.92193 -3.9048 0
M  V30 18241 H 1730.7 1.1483 -5.37675 0
M  V30 18242 H 1731.93 1.49132 -6.62523 0
M  V30 18243 H 1729.88 3.47015 -5.56701 0
M  V30 18244 H 1729.79 2.63775 -7.08491 0
M  V30 18245 H 1731.06 3.79449 -6.8091 0
M  V30 18246 N 1735.29 1.57597 0.0100073 0
M  V30 18247 C 1736.25 2.06745 0.989401 0
M  V30 18248 C 1737.25 0.97499 1.27869 0
M  V30 18249 O 1738.44 1.23798 1.22555 0
M  V30 18250 C 1735.57 2.50048 2.31709 0
M  V30 18251 H 1736.77 2.9454 0.564473 0
M  V30 18252 H 1734.32 1.54168 0.257266 0
M  V30 18253 H 1735.06 1.65466 2.78911 0
M  V30 18254 H 1734.84 3.29823 2.12035 0
M  V30 18255 H 1736.33 2.88433 3.01987 0
M  V30 18256 N 1736.77 -0.282606 1.55045 0
M  V30 18257 C 1737.72 -1.36902 1.88044 0
M  V30 18258 C 1738.71 -1.51603 0.755845 0
M  V30 18259 O 1739.92 -1.53501 0.940074 0
M  V30 18260 H 1736.29 -0.457666 0.596696 0
M  V30 18261 H 1738.26 -1.06317 2.78818 0
M  V30 18262 C 1737.01 -2.72426 2.16054 0
M  V30 18263 H 1736.33 -2.61903 3.02071 0
M  V30 18264 H 1737.77 -3.47409 2.43071 0
M  V30 18265 C 1736.23 -3.22784 0.964996 0
M  V30 18266 O 1736.76 -4.01228 0.194759 0
M  V30 18267 N 1734.97 -2.80341 0.765322 0
M  V30 18268 H 1734.52 -2.16665 1.39335 0
M  V30 18269 H 1734.47 -3.14383 -0.0330026 0
M  V30 18270 N 1738.25 -1.47815 -0.546675 0
M  V30 18271 C 1739.47 -1.58864 -1.33331 0
M  V30 18272 C 1739.9 -0.24302 -1.86524 0
M  V30 18273 O 1739.25 0.782777 -1.63531 0
M  V30 18274 C 1739.3 -2.62556 -2.47177 0
M  V30 18275 O 1738.41 -2.18558 -3.49723 0
M  V30 18276 H 1737.75 -0.53329 -0.395598 0
M  V30 18277 H 1740.28 -1.93677 -0.659579 0
M  V30 18278 H 1740.29 -2.83307 -2.936 0
M  V30 18279 H 1738.96 -3.60255 -2.0782 0
M  V30 18280 H 1737.54 -2.0795 -3.09534 0
M  V30 18281 N 1739.72 0.794246 -1.36123 0
M  V30 18282 C 1740.97 1.55191 -1.30084 0
M  V30 18283 C 1741.3 1.94122 0.121259 0
M  V30 18284 O 1740.55 1.62573 1.08942 0
M  V30 18285 C 1740.85 2.84387 -2.16469 0
M  V30 18286 C 1740.52 2.64617 -3.65087 0
M  V30 18287 C 1739.18 2.58934 -4.05594 0
M  V30 18288 C 1741.53 2.46293 -4.59336 0
M  V30 18289 C 1738.86 2.32885 -5.38499 0
M  V30 18290 C 1741.21 2.21771 -5.92453 0
M  V30 18291 C 1739.88 2.14518 -6.32091 0
M  V30 18292 H 1739.15 0.567885 -0.476013 0
M  V30 18293 H 1741.79 0.916723 -1.68132 0
M  V30 18294 H 1740.1 3.52348 -1.71342 0
M  V30 18295 H 1741.8 3.42152 -2.09124 0
M  V30 18296 H 1738.39 2.69894 -3.32949 0
M  V30 18297 H 1742.57 2.49688 -4.28917 0
M  V30 18298 H 1737.83 2.25748 -5.68197 0
M  V30 18299 H 1742 2.06586 -6.65053 0
M  V30 18300 H 1739.63 1.94096 -7.35004 0
M  V30 18301 N 1741.2 1.20323 1.01785 0
M  V30 18302 C 1742.13 0.974819 2.12178 0
M  V30 18303 C 1743.11 -0.0957637 1.6983 0
M  V30 18304 O 1744.3 0.0614963 1.94103 0
M  V30 18305 C 1741.43 0.524739 3.43313 0
M  V30 18306 C 1740.38 1.53842 3.99395 0
M  V30 18307 C 1739.71 0.945021 5.26283 0
M  V30 18308 C 1741.01 2.92179 4.3293 0
M  V30 18309 H 1742.7 1.8981 2.31544 0
M  V30 18310 H 1740.25 0.914025 1.11273 0
M  V30 18311 H 1742.2 0.352182 4.19926 0
M  V30 18312 H 1740.92 -0.434161 3.23701 0
M  V30 18313 H 1739.58 1.69832 3.24889 0
M  V30 18314 H 1739.23 -0.0217709 5.02995 0
M  V30 18315 H 1738.93 1.62201 5.64769 0
M  V30 18316 H 1740.46 0.783504 6.05552 0
M  V30 18317 H 1741.87 2.79708 5.00436 0
M  V30 18318 H 1740.27 3.56773 4.82528 0
M  V30 18319 H 1741.34 3.43997 3.41752 0
M  V30 18320 N 1742.68 -1.21073 1.00892 0
M  V30 18321 C 1743.93 -1.89866 0.69248 0
M  V30 18322 C 1744.25 -1.7874 -0.779562 0
M  V30 18323 O 1743.52 -1.18482 -1.56009 0
M  V30 18324 H 1742.1 -0.702799 0.253145 0
M  V30 18325 H 1744.76 -1.47075 1.27887 0
M  V30 18326 H 1743.86 -2.96673 0.969098 0
M  V30 18327 N 1744.16 -0.784156 -1.36707 0
M  V30 18328 C 1745.07 -0.179959 -2.33909 0
M  V30 18329 C 1746.08 0.665092 -1.60787 0
M  V30 18330 O 1747.26 0.582111 -1.92804 0
M  V30 18331 C 1744.33 0.679323 -3.3998 0
M  V30 18332 C 1743.39 -0.183618 -4.28907 0
M  V30 18333 C 1742.62 0.634747 -5.29912 0
M  V30 18334 O 1742.84 1.87107 -5.38839 0
M  V30 18335 O 1741.78 0.0374113 -6.01888 0
M  V30 18336 H 1745.6 -0.983499 -2.87334 0
M  V30 18337 H 1743.19 -0.545521 -1.39084 0
M  V30 18338 H 1745.07 1.16948 -4.04847 0
M  V30 18339 H 1743.74 1.46084 -2.88862 0
M  V30 18340 H 1742.65 -0.720419 -3.67098 0
M  V30 18341 H 1743.98 -0.928522 -4.83363 0
M  V30 18342 N 1745.64 1.48215 -0.535727 0
M  V30 18343 C 1746.58 2.29711 0.223891 0
M  V30 18344 C 1747.55 1.37727 0.928471 0
M  V30 18345 O 1748.74 1.66691 0.928375 0
M  V30 18346 C 1745.88 3.21224 1.26131 0
M  V30 18347 C 1744.99 4.2829 0.564985 0
M  V30 18348 C 1744.13 5.06976 1.58583 0
M  V30 18349 C 1743.17 6.05838 0.873288 0
M  V30 18350 N 1742.3 6.77562 1.83994 0
M  V30 18351 H 1747.14 2.94154 -0.477242 0
M  V30 18352 H 1744.68 1.45008 -0.247186 0
M  V30 18353 H 1746.64 3.72685 1.87514 0
M  V30 18354 H 1745.27 2.58693 1.93075 0
M  V30 18355 H 1744.32 3.80051 -0.162916 0
M  V30 18356 H 1745.63 4.988 0.00578231 0
M  V30 18357 H 1744.79 5.6248 2.27379 0
M  V30 18358 H 1743.52 4.36319 2.17893 0
M  V30 18359 H 1742.53 5.49533 0.171286 0
M  V30 18360 H 1743.75 6.78497 0.286219 0
M  V30 18361 H 1741.7 6.09651 2.42202 0
M  V30 18362 H 1741.62 7.44167 1.33233 0
M  V30 18363 H 1742.89 7.37652 2.51971 0
M  V30 18364 N 1747.11 0.27113 1.5525 0
M  V30 18365 C 1748.08 -0.604946 2.21072 0
M  V30 18366 C 1749.08 -1.08438 1.18735 0
M  V30 18367 O 1750.27 -0.985192 1.43665 0
M  V30 18368 C 1747.4 -1.83416 2.87353 0
M  V30 18369 H 1748.59 -0.0302981 2.99885 0
M  V30 18370 H 1746.15 0.0217204 1.56285 0
M  V30 18371 H 1746.88 -2.44942 2.12542 0
M  V30 18372 H 1746.67 -1.49834 3.62343 0
M  V30 18373 H 1748.16 -2.45724 3.37653 0
M  V30 18374 N 1748.59 -1.576 -0.00164943 0
M  V30 18375 C 1749.82 -1.95176 -0.701511 0
M  V30 18376 C 1750.24 -0.873191 -1.66604 0
M  V30 18377 O 1749.6 0.168818 -1.80512 0
M  V30 18378 C 1749.65 -3.31847 -1.41104 0
M  V30 18379 O 1748.75 -3.26034 -2.52539 0
M  V30 18380 H 1748.09 -0.637207 -0.186718 0
M  V30 18381 H 1750.62 -2.04536 0.0510494 0
M  V30 18382 H 1750.63 -3.67374 -1.77483 0
M  V30 18383 H 1749.31 -4.09901 -0.70382 0
M  V30 18384 H 1747.89 -3.0218 -2.18499 0
M  V30 18385 N 1750.07 0.274379 -1.55193 0
M  V30 18386 C 1751.03 1.32237 -1.87206 0
M  V30 18387 C 1752.03 1.4242 -0.74654 0
M  V30 18388 O 1753.22 1.41595 -1.01472 0
M  V30 18389 C 1750.36 2.7039 -2.0761 0
M  V30 18390 H 1751.55 1.05083 -2.80887 0
M  V30 18391 H 1749.1 0.512375 -1.47663 0
M  V30 18392 H 1749.84 3.02727 -1.16306 0
M  V30 18393 H 1749.62 2.64385 -2.89556 0
M  V30 18394 H 1751.11 3.46114 -2.33655 0
M  V30 18395 N 1751.55 1.48103 0.538828 0
M  V30 18396 C 1752.8 1.55362 1.29256 0
M  V30 18397 C 1753.12 0.225427 1.93693 0
M  V30 18398 O 1752.39 -0.75228 1.8088 0
M  V30 18399 H 1750.97 0.57233 0.480049 0
M  V30 18400 H 1753.63 1.84514 0.627749 0
M  V30 18401 H 1752.73 2.32998 2.07649 0
M  V30 18402 N 1753.03 -0.787016 1.36542 0
M  V30 18403 C 1753.96 -1.91399 1.33749 0
M  V30 18404 C 1754.94 -1.68817 0.208559 0
M  V30 18405 O 1756.12 -1.89896 0.406574 0
M  V30 18406 C 1753.25 -3.28457 1.12842 0
M  V30 18407 C 1752.21 -3.65568 2.22585 0
M  V30 18408 C 1751.53 -5.01002 1.86818 0
M  V30 18409 C 1752.83 -3.73902 3.64684 0
M  V30 18410 H 1754.53 -1.93993 2.2805 0
M  V30 18411 H 1752.07 -0.931937 1.09777 0
M  V30 18412 H 1754.03 -4.06919 1.09522 0
M  V30 18413 H 1752.75 -3.26256 0.149918 0
M  V30 18414 H 1751.41 -2.89405 2.25035 0
M  V30 18415 H 1751.06 -4.95325 0.875361 0
M  V30 18416 H 1750.76 -5.26802 2.60294 0
M  V30 18417 H 1752.28 -5.81881 1.85058 0
M  V30 18418 H 1753.69 -4.4255 3.64448 0
M  V30 18419 H 1752.09 -4.11188 4.37086 0
M  V30 18420 H 1753.16 -2.74946 3.99416 0
M  V30 18421 N 1754.5 -1.20861 -1.01145 0
M  V30 18422 C 1755.43 -0.986058 -2.11658 0
M  V30 18423 C 1756.42 0.0867558 -1.69879 0
M  V30 18424 O 1757.6 -0.0717892 -1.94067 0
M  V30 18425 C 1754.73 -0.542938 -3.4303 0
M  V30 18426 C 1753.68 -1.55958 -3.98574 0
M  V30 18427 C 1753.01 -0.972917 -5.25774 0
M  V30 18428 C 1754.31 -2.94471 -4.31375 0
M  V30 18429 H 1756 -1.91035 -2.30534 0
M  V30 18430 H 1753.55 -0.919914 -1.10786 0
M  V30 18431 H 1755.5 -0.374446 -4.19733 0
M  V30 18432 H 1754.23 0.416988 -3.23927 0
M  V30 18433 H 1752.89 -1.71552 -3.23984 0
M  V30 18434 H 1752.53 -0.00490446 -5.03 0
M  V30 18435 H 1752.23 -1.65194 -5.63901 0
M  V30 18436 H 1753.76 -0.815607 -6.05128 0
M  V30 18437 H 1755.17 -2.82358 -4.98946 0
M  V30 18438 H 1753.57 -3.59327 -4.80629 0
M  V30 18439 H 1754.64 -3.45804 -3.39923 0
M  V30 18440 N 1755.98 1.20536 -1.01532 0
M  V30 18441 C 1757.23 1.89496 -0.70254 0
M  V30 18442 C 1757.55 1.7915 0.770072 0
M  V30 18443 O 1756.82 1.19308 1.55379 0
M  V30 18444 H 1755.4 0.701447 -0.256868 0
M  V30 18445 H 1758.06 1.46394 -1.28665 0
M  V30 18446 H 1757.16 2.96155 -0.984817 0
M  V30 18447 N 1757.46 0.791395 1.36289 0
M  V30 18448 C 1758.42 0.197069 2.28351 0
M  V30 18449 C 1759.42 -0.606748 1.48913 0
M  V30 18450 O 1760.61 -0.427453 1.68874 0
M  V30 18451 C 1757.75 -0.727009 3.33058 0
M  V30 18452 H 1758.94 1.00885 2.82422 0
M  V30 18453 H 1756.49 0.560959 1.45887 0
M  V30 18454 H 1757.23 -1.56306 2.84146 0
M  V30 18455 H 1757.01 -0.152537 3.91803 0
M  V30 18456 H 1758.5 -1.13765 4.01805 0
M  V30 18457 N 1758.94 -1.47929 0.54358 0
M  V30 18458 C 1759.89 -2.26818 -0.23183 0
M  V30 18459 C 1760.87 -1.33532 -0.897665 0
M  V30 18460 O 1762.07 -1.57979 -0.798223 0
M  V30 18461 C 1759.19 -3.18956 -1.26972 0
M  V30 18462 C 1758.28 -4.19719 -0.607991 0
M  V30 18463 N 1758.67 -5.04824 0.314122 0
M  V30 18464 C 1756.97 -4.3756 -0.863569 0
M  V30 18465 C 1757.67 -5.77507 0.697198 0
M  V30 18466 N 1756.65 -5.43572 0.055142 0
M  V30 18467 H 1760.45 -2.89997 0.477356 0
M  V30 18468 H 1757.96 -1.58301 0.362553 0
M  V30 18469 H 1759.96 -3.74144 -1.83907 0
M  V30 18470 H 1758.62 -2.57333 -1.98014 0
M  V30 18471 H 1759.63 -5.13316 0.687517 0
M  V30 18472 H 1756.31 -3.87117 -1.56353 0
M  V30 18473 H 1757.7 -6.55977 1.45411 0
M  V30 18474 N 1760.42 -0.27936 -1.55104 0
M  V30 18475 C 1761.38 0.593214 -2.2139 0
M  V30 18476 C 1762.38 1.07807 -1.19308 0
M  V30 18477 O 1763.57 0.97756 -1.44185 0
M  V30 18478 C 1760.7 1.81889 -2.88321 0
M  V30 18479 H 1761.9 0.0143941 -2.99897 0
M  V30 18480 H 1759.45 -0.0300083 -1.56271 0
M  V30 18481 H 1760.18 2.43811 -2.13838 0
M  V30 18482 H 1759.97 1.4791 -3.63132 0
M  V30 18483 H 1761.46 2.4393 -3.38951 0
M  V30 18484 N 1761.9 1.57599 -0.0067085 0
M  V30 18485 C 1762.86 2.07783 0.967417 0
M  V30 18486 C 1763.86 0.988498 1.26828 0
M  V30 18487 O 1765.05 1.25091 1.21235 0
M  V30 18488 C 1762.18 2.52491 2.29044 0
M  V30 18489 H 1763.37 2.95122 0.533201 0
M  V30 18490 H 1760.93 1.54432 0.2409 0
M  V30 18491 H 1761.66 1.68415 2.77141 0
M  V30 18492 H 1761.45 3.32054 2.08525 0
M  V30 18493 H 1762.94 2.9162 2.98911 0
M  V30 18494 N 1763.37 -0.266145 1.55336 0
M  V30 18495 C 1764.34 -1.31242 1.87904 0
M  V30 18496 C 1765.34 -1.42022 0.754083 0
M  V30 18497 O 1766.53 -1.41054 1.02222 0
M  V30 18498 C 1763.66 -2.69285 2.09041 0
M  V30 18499 H 1764.85 -1.03592 2.81441 0
M  V30 18500 H 1762.4 -0.504537 1.47933 0
M  V30 18501 H 1763.14 -3.02106 1.17909 0
M  V30 18502 H 1762.92 -2.62846 2.90954 0
M  V30 18503 H 1764.41 -3.4487 2.35488 0
M  V30 18504 N 1764.85 -1.48386 -0.530967 0
M  V30 18505 C 1766.1 -1.55608 -1.28332 0
M  V30 18506 C 1766.41 -0.234479 -1.94189 0
M  V30 18507 O 1767.62 -0.184926 -2.70869 0
M  V30 18508 C 1766.08 -2.74423 -2.32852 0
M  V30 18509 C 1765.68 -4.13221 -1.73068 0
M  V30 18510 C 1767.43 -2.90956 -3.09103 0
M  V30 18511 C 1765.33 -5.23299 -2.75522 0
M  V30 18512 H 1764.26 -0.579291 -0.482637 0
M  V30 18513 H 1766.92 -1.74718 -0.560885 0
M  V30 18514 H 1765.3 -2.48745 -3.08126 0
M  V30 18515 H 1766.47 -4.48913 -1.03989 0
M  V30 18516 H 1764.79 -4.01796 -1.09312 0
M  V30 18517 H 1767.38 -3.70363 -3.85662 0
M  V30 18518 H 1767.73 -2.00376 -3.64905 0
M  V30 18519 H 1768.26 -3.1653 -2.40943 0
M  V30 18520 H 1765 -6.15842 -2.24542 0
M  V30 18521 H 1764.52 -4.92095 -3.42932 0
M  V30 18522 H 1766.2 -5.5137 -3.38526 0
M  V30 18523 N 1766.33 0.779763 -1.36958 0
M  V30 18524 C 1767.56 1.56875 -1.34899 0
M  V30 18525 C 1767.97 1.88679 0.0675345 0
M  V30 18526 O 1767.33 1.50852 1.02712 0
M  V30 18527 C 1767.38 2.88391 -2.17975 0
M  V30 18528 O 1767.1 2.57954 -3.54107 0
M  V30 18529 C 1768.6 3.82657 -2.23805 0
M  V30 18530 H 1765.82 0.486262 -0.462374 0
M  V30 18531 H 1768.37 0.967072 -1.80189 0
M  V30 18532 H 1766.52 3.45003 -1.76215 0
M  V30 18533 H 1766.94 3.42115 -3.97564 0
M  V30 18534 H 1768.41 4.71967 -2.86272 0
M  V30 18535 H 1768.89 4.21208 -1.24421 0
M  V30 18536 H 1769.49 3.31976 -2.65843 0
M  V30 18537 N 1767.81 1.21396 1.00503 0
M  V30 18538 C 1768.77 0.974756 2.07439 0
M  V30 18539 C 1769.77 -0.0542142 1.60709 0
M  V30 18540 O 1770.96 0.183056 1.73236 0
M  V30 18541 C 1768.09 0.46989 3.37646 0
M  V30 18542 H 1769.29 1.92346 2.30094 0
M  V30 18543 H 1766.84 1.03095 1.17479 0
M  V30 18544 H 1767.57 -0.483735 3.20672 0
M  V30 18545 H 1767.36 1.2121 3.72895 0
M  V30 18546 H 1768.85 0.322393 4.16354 0
M  V30 18547 N 1769.29 -1.19996 1.0217 0
M  V30 18548 C 1770.52 -1.93186 0.732311 0
M  V30 18549 C 1770.92 -1.75303 -0.711724 0
M  V30 18550 O 1770.27 -1.06756 -1.49495 0
M  V30 18551 C 1770.33 -3.45466 0.994655 0
M  V30 18552 C 1769.99 -3.87114 2.42882 0
M  V30 18553 C 1770.99 -3.92459 3.40987 0
M  V30 18554 C 1768.67 -4.18958 2.77091 0
M  V30 18555 C 1770.67 -4.29067 4.7136 0
M  V30 18556 C 1768.36 -4.5524 4.07676 0
M  V30 18557 C 1769.35 -4.60267 5.04622 0
M  V30 18558 O 1769.04 -4.95713 6.32869 0
M  V30 18559 H 1768.77 -0.62069 0.267806 0
M  V30 18560 H 1771.33 -1.53287 1.3672 0
M  V30 18561 H 1769.56 -3.85514 0.30261 0
M  V30 18562 H 1771.25 -3.99887 0.696049 0
M  V30 18563 H 1772.01 -3.68016 3.15895 0
M  V30 18564 H 1767.89 -4.14233 2.02317 0
M  V30 18565 H 1771.44 -4.32905 5.47027 0
M  V30 18566 H 1767.33 -4.7914 4.32545 0
M  V30 18567 H 1768.1 -5.13687 6.37234 0
M  V30 18568 N 1770.76 -0.798611 -1.35867 0
M  V30 18569 C 1771.73 -0.209177 -2.28243 0
M  V30 18570 C 1772.73 0.598842 -1.49233 0
M  V30 18571 O 1773.92 0.418491 -1.69098 0
M  V30 18572 C 1771.05 0.709336 -3.33438 0
M  V30 18573 H 1772.24 -1.02382 -2.81883 0
M  V30 18574 H 1769.79 -0.568687 -1.45587 0
M  V30 18575 H 1770.53 1.54797 -2.84971 0
M  V30 18576 H 1770.31 0.131756 -3.91879 0
M  V30 18577 H 1771.8 1.11632 -4.02403 0
M  V30 18578 N 1772.24 1.47639 -0.551417 0
M  V30 18579 C 1773.17 2.32743 0.187887 0
M  V30 18580 C 1774.15 1.43432 0.914407 0
M  V30 18581 O 1775.34 1.72295 0.896005 0
M  V30 18582 C 1772.47 3.25092 1.22199 0
M  V30 18583 C 1771.42 4.23598 0.612298 0
M  V30 18584 C 1770.75 5.0523 1.75062 0
M  V30 18585 C 1772.05 5.20526 -0.430135 0
M  V30 18586 H 1773.74 2.94804 -0.522598 0
M  V30 18587 H 1771.29 1.41764 -0.252768 0
M  V30 18588 H 1773.24 3.83467 1.74731 0
M  V30 18589 H 1771.96 2.61074 1.96235 0
M  V30 18590 H 1770.62 3.6644 0.108324 0
M  V30 18591 H 1770.27 4.3762 2.47987 0
M  V30 18592 H 1769.97 5.71918 1.34848 0
M  V30 18593 H 1771.5 5.66463 2.27931 0
M  V30 18594 H 1772.91 5.73299 0.00890168 0
M  V30 18595 H 1771.31 5.95384 -0.750836 0
M  V30 18596 H 1772.38 4.66356 -1.32815 0
M  V30 18597 N 1773.72 0.287581 1.54954 0
M  V30 18598 C 1774.95 -0.328601 2.04274 0
M  V30 18599 C 1775.36 -1.48535 1.16545 0
M  V30 18600 O 1774.72 -1.81527 0.188187 0
M  V30 18601 C 1774.77 -0.797705 3.52589 0
M  V30 18602 O 1774.49 0.31299 4.36981 0
M  V30 18603 C 1775.99 -1.48042 4.1785 0
M  V30 18604 H 1773.21 -0.0733253 0.666982 0
M  V30 18605 H 1775.76 0.423307 2.00071 0
M  V30 18606 H 1773.91 -1.49967 3.57196 0
M  V30 18607 H 1774.33 -0.0498078 5.24476 0
M  V30 18608 H 1775.8 -1.75995 5.23192 0
M  V30 18609 H 1776.28 -2.41608 3.66772 0
M  V30 18610 H 1776.88 -0.821988 4.17281 0
M  V30 18611 N 1775.2 -1.57593 0.0150662 0
M  V30 18612 C 1776.13 -2.12395 -0.970081 0
M  V30 18613 C 1777.11 -1.03666 -1.34861 0
M  V30 18614 O 1778.29 -1.31427 -1.4297 0
M  V30 18615 C 1775.42 -2.63958 -2.25707 0
M  V30 18616 C 1774.38 -3.77348 -2.01971 0
M  V30 18617 C 1773.7 -4.15284 -3.36814 0
M  V30 18618 C 1775 -5.04008 -1.37017 0
M  V30 18619 H 1776.7 -2.9496 -0.513731 0
M  V30 18620 H 1774.24 -1.41889 -0.245666 0
M  V30 18621 H 1776.2 -3.00927 -2.94993 0
M  V30 18622 H 1774.92 -1.78535 -2.73483 0
M  V30 18623 H 1773.58 -3.40795 -1.35107 0
M  V30 18624 H 1773.23 -3.26863 -3.82321 0
M  V30 18625 H 1772.93 -4.91686 -3.21744 0
M  V30 18626 H 1774.45 -4.54824 -4.07391 0
M  V30 18627 H 1775.87 -5.38652 -1.96282 0
M  V30 18628 H 1774.26 -5.85315 -1.32388 0
M  V30 18629 H 1775.33 -4.83698 -0.341281 0
M  V30 18630 N 1776.68 0.257904 -1.55475 0
M  V30 18631 C 1777.9 1.00531 -1.80834 0
M  V30 18632 C 1778.32 1.79369 -0.589263 0
M  V30 18633 O 1777.68 1.77068 0.441935 0
M  V30 18634 C 1777.73 1.95194 -3.04272 0
M  V30 18635 O 1777.45 1.19548 -4.21473 0
M  V30 18636 C 1778.95 2.81624 -3.42349 0
M  V30 18637 H 1776.17 0.296315 -0.602029 0
M  V30 18638 H 1778.71 0.284118 -2.02517 0
M  V30 18639 H 1776.87 2.62756 -2.84672 0
M  V30 18640 H 1777.28 1.83483 -4.9136 0
M  V30 18641 H 1778.76 3.43815 -4.31851 0
M  V30 18642 H 1779.23 3.52172 -2.62434 0
M  V30 18643 H 1779.84 2.19531 -3.64261 0
M  V30 18644 N 1778.15 1.48666 0.52309 0
M  V30 18645 C 1779.1 1.63701 1.62698 0
M  V30 18646 C 1780.07 0.478895 1.59047 0
M  V30 18647 O 1781.26 0.703229 1.77368 0
M  V30 18648 C 1778.4 1.68912 3.00936 0
M  V30 18649 C 1777.51 2.95878 3.1477 0
M  V30 18650 C 1776.64 2.92206 4.43609 0
M  V30 18651 C 1775.68 4.13846 4.50996 0
M  V30 18652 N 1774.82 4.08213 5.71233 0
M  V30 18653 H 1779.66 2.57967 1.49188 0
M  V30 18654 H 1777.2 1.27924 0.726217 0
M  V30 18655 H 1779.16 1.69915 3.81031 0
M  V30 18656 H 1777.79 0.781309 3.13202 0
M  V30 18657 H 1776.84 3.04588 2.27883 0
M  V30 18658 H 1778.15 3.85861 3.1609 0
M  V30 18659 H 1777.3 2.91649 5.32002 0
M  V30 18660 H 1776.04 1.99964 4.44821 0
M  V30 18661 H 1775.05 4.14671 3.61009 0
M  V30 18662 H 1776.27 5.07256 4.51517 0
M  V30 18663 H 1774.22 3.18794 5.73329 0
M  V30 18664 H 1774.14 4.91908 5.74075 0
M  V30 18665 H 1775.4 4.11725 6.61893 0
M  V30 18666 N 1779.63 -0.772489 1.37369 0
M  V30 18667 C 1780.6 -1.86737 1.32898 0
M  V30 18668 C 1781.6 -1.591 0.23318 0
M  V30 18669 O 1782.79 -1.67196 0.488983 0
M  V30 18670 C 1779.92 -3.23859 1.06435 0
M  V30 18671 H 1781.11 -1.92114 2.30287 0
M  V30 18672 H 1778.66 -0.972158 1.22388 0
M  V30 18673 H 1779.4 -3.24159 0.0957365 0
M  V30 18674 H 1779.18 -3.4531 1.85751 0
M  V30 18675 H 1780.67 -4.03935 1.05954 0
M  V30 18676 N 1781.11 -1.21927 -0.998575 0
M  V30 18677 C 1782.52 -1.03808 -1.5518 0
M  V30 18678 C 1782.87 0.400202 -1.92075 0
M  V30 18679 O 1782 1.28436 -1.74164 0
M  V30 18680 C 1782.59 -1.87814 -2.81978 0
M  V30 18681 C 1781.15 -1.74008 -3.33764 0
M  V30 18682 C 1780.3 -1.8463 -2.06899 0
M  V30 18683 H 1783.25 -1.35855 -0.820305 0
M  V30 18684 H 1783.27 -1.39219 -3.54116 0
M  V30 18685 H 1782.78 -2.92487 -2.55094 0
M  V30 18686 H 1780.88 -0.720445 -3.65569 0
M  V30 18687 H 1781 -2.56348 -4.0475 0
M  V30 18688 H 1779.36 -1.28007 -2.20196 0
M  V30 18689 H 1780.14 -2.90824 -1.82419 0
M  V30 18690 N 1782.59 1.19452 -1.02805 0
M  V30 18691 C 1783.83 1.89394 -0.725101 0
M  V30 18692 C 1784.17 1.79368 0.744361 0
M  V30 18693 O 1783.44 1.18548 1.54196 0
M  V30 18694 C 1783.73 3.40361 -1.17586 0
M  V30 18695 C 1783.58 3.59263 -2.70648 0
M  V30 18696 C 1784.9 4.33558 -0.756011 0
M  V30 18697 H 1782.02 0.687753 -0.264887 0
M  V30 18698 H 1784.66 1.40611 -1.27783 0
M  V30 18699 H 1782.81 3.82038 -0.70561 0
M  V30 18700 H 1784.48 3.26762 -3.25614 0
M  V30 18701 H 1782.72 3.02344 -3.1108 0
M  V30 18702 H 1783.39 4.65135 -2.97244 0
M  V30 18703 H 1785.87 3.9959 -1.16046 0
M  V30 18704 H 1784.75 5.37779 -1.09931 0
M  V30 18705 H 1785.01 4.40778 0.341677 0
M  V30 18706 N 1784.07 0.805805 1.35442 0
M  V30 18707 C 1785.34 0.309105 1.93142 0
M  V30 18708 C 1785.72 -1.20119 1.73593 0
M  V30 18709 O 1785.07 -2.00034 1.10448 0
M  V30 18710 C 1785.28 0.719653 3.415 0
M  V30 18711 C 1786.63 0.708697 4.18644 0
M  V30 18712 O 1787.65 0.661148 3.5001 0
M  V30 18713 O 1786.51 0.76636 5.411 0
M  V30 18714 H 1783.61 0.0806647 0.823057 0
M  V30 18715 H 1786.15 0.88945 1.44523 0
M  V30 18716 H 1784.92 1.7606 3.49455 0
M  V30 18717 H 1784.55 0.114073 3.97436 0
M  V30 18718 N 1785.54 -1.47344 0.559239 0
M  V30 18719 C 1786.47 -2.32839 -0.175542 0
M  V30 18720 C 1787.46 -1.43914 -0.906787 0
M  V30 18721 O 1788.64 -1.72767 -0.886855 0
M  V30 18722 C 1785.77 -3.25735 -1.20474 0
M  V30 18723 C 1784.72 -4.23916 -0.589825 0
M  V30 18724 C 1784.05 -5.06151 -1.7238 0
M  V30 18725 C 1785.35 -5.2029 0.457733 0
M  V30 18726 H 1787.04 -2.94522 0.538225 0
M  V30 18727 H 1784.59 -1.41628 0.260282 0
M  V30 18728 H 1786.54 -3.84388 -1.72695 0
M  V30 18729 H 1785.27 -2.62111 -1.94847 0
M  V30 18730 H 1783.93 -3.66492 -0.0888897 0
M  V30 18731 H 1783.57 -4.38929 -2.45663 0
M  V30 18732 H 1783.27 -5.72625 -1.31813 0
M  V30 18733 H 1784.8 -5.67663 -2.24923 0
M  V30 18734 H 1786.21 -5.73296 0.0215019 0
M  V30 18735 H 1784.61 -5.94978 0.7824 0
M  V30 18736 H 1785.68 -4.65645 1.35286 0
M  V30 18737 N 1787.02 -0.295795 -1.54799 0
M  V30 18738 C 1787.95 0.575863 -2.26288 0
M  V30 18739 C 1788.93 1.14217 -1.26049 0
M  V30 18740 O 1790.12 1.17248 -1.54812 0
M  V30 18741 C 1787.25 1.7503 -2.9997 0
M  V30 18742 C 1786.2 1.31459 -4.07311 0
M  V30 18743 C 1785.53 2.57377 -4.6868 0
M  V30 18744 C 1786.83 0.449629 -5.20361 0
M  V30 18745 H 1788.52 -0.0203797 -2.99393 0
M  V30 18746 H 1786.07 -0.0112418 -1.43996 0
M  V30 18747 H 1788.02 2.36615 -3.487 0
M  V30 18748 H 1786.75 2.3727 -2.24434 0
M  V30 18749 H 1785.4 0.721829 -3.59423 0
M  V30 18750 H 1785.05 3.1792 -3.89789 0
M  V30 18751 H 1784.75 2.28927 -5.41171 0
M  V30 18752 H 1786.28 3.19774 -5.2017 0
M  V30 18753 H 1787.69 0.971014 -5.65017 0
M  V30 18754 H 1786.09 0.259121 -5.9954 0
M  V30 18755 H 1787.16 -0.526564 -4.82032 0
M  V30 18756 N 1788.5 1.57583 -0.0234236 0
M  V30 18757 C 1789.75 1.91186 0.655152 0
M  V30 18758 C 1790.07 0.89988 1.72995 0
M  V30 18759 O 1789.34 -0.0594278 1.9581 0
M  V30 18760 H 1787.92 0.705686 0.244982 0
M  V30 18761 H 1790.58 1.94775 -0.0698824 0
M  V30 18762 H 1789.68 2.91636 1.11152 0
M  V30 18763 N 1789.98 -0.249655 1.5561 0
M  V30 18764 C 1791.23 -0.979529 1.77576 0
M  V30 18765 C 1791.56 -1.85078 0.588198 0
M  V30 18766 O 1790.83 -1.90052 -0.4136 0
M  V30 18767 C 1791.12 -1.84238 3.094 0
M  V30 18768 C 1790.97 -0.9995 4.38554 0
M  V30 18769 C 1792.29 -2.82536 3.37433 0
M  V30 18770 H 1789.41 -0.354681 0.646042 0
M  V30 18771 H 1792.05 -0.250224 1.88345 0
M  V30 18772 H 1790.2 -2.46419 3.0035 0
M  V30 18773 H 1791.87 -0.396599 4.59592 0
M  V30 18774 H 1790.11 -0.30376 4.32735 0
M  V30 18775 H 1790.79 -1.63697 5.27169 0
M  V30 18776 H 1793.26 -2.30491 3.46429 0
M  V30 18777 H 1792.14 -3.40033 4.30893 0
M  V30 18778 H 1792.4 -3.58859 2.58211 0
M  V30 18779 N 1791.46 -1.48941 -0.515198 0
M  V30 18780 C 1792.42 -1.64062 -1.60051 0
M  V30 18781 C 1793.42 -0.513101 -1.52394 0
M  V30 18782 O 1794.61 -0.77924 -1.558 0
M  V30 18783 C 1791.74 -1.6247 -2.99694 0
M  V30 18784 H 1792.94 -2.60849 -1.47978 0
M  V30 18785 H 1790.49 -1.37759 -0.738378 0
M  V30 18786 H 1791.22 -0.672141 -3.17258 0
M  V30 18787 H 1791.01 -2.4434 -3.0666 0
M  V30 18788 H 1792.5 -1.76273 -3.78573 0
M  V30 18789 N 1792.94 0.765193 -1.37777 0
M  V30 18790 C 1793.89 1.86902 -1.30582 0
M  V30 18791 C 1794.87 1.59746 -0.192343 0
M  V30 18792 O 1796.06 1.71764 -0.427313 0
M  V30 18793 C 1793.19 3.2446 -1.12162 0
M  V30 18794 C 1792.28 3.57546 -2.28082 0
M  V30 18795 N 1792.67 3.61769 -3.53493 0
M  V30 18796 C 1790.97 3.87748 -2.2038 0
M  V30 18797 C 1791.67 3.9179 -4.29972 0
M  V30 18798 N 1790.64 4.08025 -3.59188 0
M  V30 18799 H 1794.44 1.88428 -2.25549 0
M  V30 18800 H 1791.96 0.96197 -1.30843 0
M  V30 18801 H 1793.96 4.03437 -1.05092 0
M  V30 18802 H 1792.62 3.24194 -0.181181 0
M  V30 18803 H 1793.63 3.43813 -3.87315 0
M  V30 18804 H 1790.3 3.95266 -1.3443 0
M  V30 18805 H 1791.69 4.01777 -5.3854 0
M  V30 18806 N 1794.41 1.22455 0.992094 0
M  V30 18807 C 1795.36 0.992597 2.10357 0
M  V30 18808 C 1796.36 -0.0645514 1.69277 0
M  V30 18809 O 1797.56 0.0879577 1.79785 0
M  V30 18810 H 1793.94 0.303808 0.687899 0
M  V30 18811 H 1795.91 1.93574 2.27094 0
M  V30 18812 C 1794.66 0.587852 3.42695 0
M  V30 18813 H 1793.98 1.39298 3.74748 0
M  V30 18814 H 1795.42 0.464975 4.21443 0
M  V30 18815 C 1793.88 -0.702681 3.29491 0
M  V30 18816 O 1794.41 -1.7549 3.61339 0
M  V30 18817 N 1792.61 -0.674141 2.82672 0
M  V30 18818 H 1792.16 0.182446 2.56953 0
M  V30 18819 H 1792.12 -1.53789 2.7422 0
M  V30 18820 N 1795.89 -1.18905 1.03437 0
M  V30 18821 C 1796.84 -2.24362 0.613557 0
M  V30 18822 C 1797.83 -1.65605 -0.356541 0
M  V30 18823 O 1799.04 -1.78594 -0.22452 0
M  V30 18824 H 1795.41 -0.730098 0.18017 0
M  V30 18825 H 1797.39 -2.57168 1.51351 0
M  V30 18826 C 1796.13 -3.47697 -0.0141125 0
M  V30 18827 H 1795.46 -3.93201 0.723394 0
M  V30 18828 H 1796.9 -4.2313 -0.271424 0
M  V30 18829 C 1795.36 -3.12357 -1.26232 0
M  V30 18830 O 1795.89 -3.25515 -2.35378 0
M  V30 18831 N 1794.09 -2.6674 -1.15318 0
M  V30 18832 H 1793.64 -2.56233 -0.26501 0
M  V30 18833 H 1793.6 -2.43466 -1.98927 0
M  V30 18834 N 1797.37 -0.812977 -1.35013 0
M  V30 18835 C 1798.3 -0.242397 -2.32238 0
M  V30 18836 C 1799.28 0.635676 -1.57776 0
M  V30 18837 O 1800.47 0.564621 -1.85811 0
M  V30 18838 C 1797.6 0.604686 -3.41995 0
M  V30 18839 C 1796.55 -0.17542 -4.2764 0
M  V30 18840 C 1795.88 0.793772 -5.28775 0
M  V30 18841 C 1797.18 -1.37802 -5.03794 0
M  V30 18842 H 1798.87 -1.0547 -2.80208 0
M  V30 18843 H 1796.42 -0.508619 -1.34718 0
M  V30 18844 H 1798.37 1.01396 -4.09019 0
M  V30 18845 H 1797.09 1.44994 -2.9265 0
M  V30 18846 H 1795.75 -0.565948 -3.62205 0
M  V30 18847 H 1795.4 1.63471 -4.75696 0
M  V30 18848 H 1795.1 0.276085 -5.86951 0
M  V30 18849 H 1796.62 1.20112 -5.9867 0
M  V30 18850 H 1798.04 -1.04328 -5.63727 0
M  V30 18851 H 1796.43 -1.83064 -5.71496 0
M  V30 18852 H 1797.5 -2.16138 -4.34065 0
M  V30 18853 N 1798.85 1.47045 -0.567045 0
M  V30 18854 C 1799.78 2.27106 0.223156 0
M  V30 18855 C 1800.76 1.34662 0.911315 0
M  V30 18856 O 1801.94 1.64055 0.92834 0
M  V30 18857 C 1799.07 3.1197 1.31879 0
M  V30 18858 C 1798.12 4.20064 0.738145 0
M  V30 18859 S 1798.95 5.33828 -0.422892 0
M  V30 18860 C 1800.1 6.22257 0.674324 0
M  V30 18861 H 1800.34 2.93779 -0.456193 0
M  V30 18862 H 1797.87 1.50297 -0.353581 0
M  V30 18863 H 1799.83 3.61432 1.9462 0
M  V30 18864 H 1798.49 2.44641 1.97002 0
M  V30 18865 H 1797.68 4.7921 1.56122 0
M  V30 18866 H 1797.28 3.73534 0.186721 0
M  V30 18867 H 1799.58 6.59201 1.56398 0
M  V30 18868 H 1800.52 7.07998 0.11999 0
M  V30 18869 H 1800.93 5.56079 0.971422 0
M  V30 18870 N 1800.33 0.304 1.5464 0
M  V30 18871 C 1801.29 -0.557917 2.22306 0
M  V30 18872 C 1802.29 -1.05895 1.21008 0
M  V30 18873 O 1803.48 -0.954497 1.45722 0
M  V30 18874 C 1800.61 -1.77279 2.91178 0
M  V30 18875 H 1801.8 0.0333187 2.99881 0
M  V30 18876 H 1799.36 0.0548659 1.56204 0
M  V30 18877 H 1800.09 -2.40378 2.17689 0
M  V30 18878 H 1799.88 -1.42115 3.65439 0
M  V30 18879 H 1801.37 -2.38507 3.42789 0
M  V30 18880 N 1801.8 -1.57568 0.0317802 0
M  V30 18881 C 1802.74 -2.05894 -0.984021 0
M  V30 18882 C 1803.71 -0.955271 -1.3158 0
M  V30 18883 O 1804.9 -1.22579 -1.43201 0
M  V30 18884 C 1802.03 -2.48323 -2.30334 0
M  V30 18885 C 1801.07 -3.69736 -2.12598 0
M  V30 18886 S 1801.9 -5.16266 -1.42233 0
M  V30 18887 C 1803.06 -5.61992 -2.75528 0
M  V30 18888 H 1803.29 -2.91732 -0.572665 0
M  V30 18889 H 1800.83 -1.53347 -0.179981 0
M  V30 18890 H 1802.78 -2.73433 -3.06178 0
M  V30 18891 H 1801.45 -1.62825 -2.68602 0
M  V30 18892 H 1800.64 -3.97279 -3.10138 0
M  V30 18893 H 1800.24 -3.44792 -1.44896 0
M  V30 18894 H 1802.53 -5.66394 -3.71758 0
M  V30 18895 H 1803.48 -6.61495 -2.52646 0
M  V30 18896 H 1803.88 -4.8965 -2.80897 0
M  V30 18897 N 1803.28 0.241399 -1.5574 0
M  V30 18898 C 1804.25 1.28236 -1.89969 0
M  V30 18899 C 1805.25 1.40804 -0.776582 0
M  V30 18900 O 1806.44 1.3941 -1.04453 0
M  V30 18901 C 1803.57 2.65926 -2.13299 0
M  V30 18902 H 1804.76 0.991011 -2.83053 0
M  V30 18903 H 1802.31 0.480939 -1.48717 0
M  V30 18904 H 1803.05 3.00192 -1.22701 0
M  V30 18905 H 1802.83 2.58184 -2.95099 0
M  V30 18906 H 1804.32 3.4108 -2.40944 0
M  V30 18907 N 1804.76 1.49212 0.507292 0
M  V30 18908 C 1805.69 1.61529 1.62606 0
M  V30 18909 C 1806.71 0.498303 1.54986 0
M  V30 18910 O 1807.89 0.7701 1.61033 0
M  V30 18911 C 1804.99 1.55015 3.0137 0
M  V30 18912 C 1804.17 2.8214 3.34239 0
M  V30 18913 C 1803.23 2.68765 4.52385 0
M  V30 18914 O 1802.25 3.42691 4.54479 0
M  V30 18915 N 1803.45 1.7989 5.51924 0
M  V30 18916 H 1806.22 2.58018 1.52469 0
M  V30 18917 H 1803.78 1.46222 0.695042 0
M  V30 18918 H 1805.77 1.4373 3.78317 0
M  V30 18919 H 1804.34 0.6641 3.05464 0
M  V30 18920 H 1803.56 3.07823 2.46249 0
M  V30 18921 H 1804.85 3.66432 3.52994 0
M  V30 18922 H 1804.25 1.19074 5.53026 0
M  V30 18923 H 1802.81 1.74531 6.27999 0
M  V30 18924 N 1806.24 -0.757876 1.38181 0
M  V30 18925 C 1807.15 -1.90234 1.37289 0
M  V30 18926 C 1808.16 -1.71883 0.270567 0
M  V30 18927 O 1809.34 -1.94881 0.508279 0
M  V30 18928 C 1806.41 -3.25546 1.19251 0
M  V30 18929 C 1805.47 -3.56452 2.39249 0
M  V30 18930 C 1804.7 -4.85308 2.22063 0
M  V30 18931 O 1804.92 -5.57373 1.2121 0
M  V30 18932 O 1803.86 -5.15594 3.10558 0
M  V30 18933 H 1807.68 -1.9394 2.33711 0
M  V30 18934 H 1805.27 -0.902559 1.19056 0
M  V30 18935 H 1807.15 -4.06454 1.11235 0
M  V30 18936 H 1805.82 -3.22661 0.259109 0
M  V30 18937 H 1804.73 -2.75723 2.52839 0
M  V30 18938 H 1806.06 -3.64094 3.31205 0
M  V30 18939 N 1807.72 -1.22979 -0.985586 0
M  V30 18940 C 1808.94 -1.0853 -1.7615 0
M  V30 18941 C 1809.36 0.36363 -1.85265 0
M  V30 18942 O 1808.72 1.25173 -1.32808 0
M  V30 18943 C 1808.77 -1.69872 -3.19101 0
M  V30 18944 O 1808.49 -3.09098 -3.10467 0
M  V30 18945 C 1809.99 -1.60795 -4.1311 0
M  V30 18946 H 1807.21 -0.380086 -0.55297 0
M  V30 18947 H 1809.75 -1.62724 -1.2386 0
M  V30 18948 H 1807.91 -1.19724 -3.68436 0
M  V30 18949 H 1808.32 -3.38769 -4.00419 0
M  V30 18950 H 1809.8 -2.08428 -5.11138 0
M  V30 18951 H 1810.27 -0.565817 -4.3554 0
M  V30 18952 H 1810.88 -2.10284 -3.69676 0
M  V30 18953 N 1809.19 1.18355 -1.04066 0
M  V30 18954 C 1810.44 1.87963 -0.742576 0
M  V30 18955 C 1810.76 1.80744 0.731899 0
M  V30 18956 O 1810.03 1.22576 1.52813 0
M  V30 18957 H 1808.61 0.69584 -0.271689 0
M  V30 18958 H 1811.28 1.43632 -1.31741 0
M  V30 18959 H 1810.37 2.93999 -1.04741 0
M  V30 18960 N 1810.67 0.820125 1.3458 0
M  V30 18961 C 1811.95 0.329573 1.92803 0
M  V30 18962 C 1812.33 -1.18271 1.74858 0
M  V30 18963 O 1811.68 -1.98851 1.12564 0
M  V30 18964 C 1811.89 0.755833 3.40717 0
M  V30 18965 C 1813.24 0.75306 4.17869 0
M  V30 18966 O 1814.26 0.698235 3.49289 0
M  V30 18967 O 1813.12 0.823708 5.40257 0
M  V30 18968 H 1810.21 0.0893898 0.822155 0
M  V30 18969 H 1812.76 0.904729 1.43571 0
M  V30 18970 H 1811.53 1.79757 3.47568 0
M  V30 18971 H 1811.15 0.15622 3.97293 0
M  V30 18972 N 1812.15 -1.46743 0.574835 0
M  V30 18973 C 1813.1 -2.31935 -0.175778 0
M  V30 18974 C 1814.09 -1.44005 -0.892128 0
M  V30 18975 O 1815.3 -1.60674 -0.81141 0
M  V30 18976 H 1811.67 -0.748195 -0.0755558 0
M  V30 18977 H 1813.64 -2.93066 0.561671 0
M  V30 18978 C 1812.39 -3.27018 -1.18128 0
M  V30 18979 H 1811.72 -3.94652 -0.639492 0
M  V30 18980 H 1813.16 -3.89424 -1.67704 0
M  V30 18981 C 1811.62 -2.51802 -2.23824 0
M  V30 18982 O 1812.15 -2.2753 -3.31048 0
M  V30 18983 N 1810.35 -2.12501 -1.98221 0
M  V30 18984 H 1809.9 -2.32441 -1.11035 0
M  V30 18985 H 1809.86 -1.62494 -2.69153 0
M  V30 18986 N 1813.63 -0.312197 -1.54477 0
M  V30 18987 C 1814.56 0.551829 -2.26886 0
M  V30 18988 C 1815.54 1.12874 -1.27254 0
M  V30 18989 O 1816.72 1.15599 -1.56046 0
M  V30 18990 C 1813.85 1.71839 -3.01809 0
M  V30 18991 C 1812.81 1.27131 -4.08683 0
M  V30 18992 C 1812.13 2.52392 -4.71384 0
M  V30 18993 C 1813.43 0.394413 -5.20809 0
M  V30 18994 H 1815.13 -0.0521331 -2.99355 0
M  V30 18995 H 1812.67 -0.0265138 -1.43976 0
M  V30 18996 H 1814.63 2.32903 -3.5119 0
M  V30 18997 H 1813.35 2.34876 -2.26938 0
M  V30 18998 H 1812.01 0.683666 -3.60169 0
M  V30 18999 H 1811.66 3.13768 -3.93139 0
M  V30 19000 H 1811.36 2.23174 -5.43569 0
M  V30 19001 H 1812.88 3.14239 -5.23533 0
M  V30 19002 H 1814.3 0.911031 -5.66015 0
M  V30 19003 H 1812.69 0.195517 -5.99781 0
M  V30 19004 H 1813.76 -0.577661 -4.81447 0
M  V30 19005 N 1815.11 1.57549 -0.040136 0
M  V30 19006 C 1816.34 1.96272 0.645049 0
M  V30 19007 C 1816.74 0.915804 1.65559 0
M  V30 19008 O 1816.09 -0.109666 1.83372 0
M  V30 19009 C 1816.15 3.31187 1.3984 0
M  V30 19010 C 1815.81 4.53739 0.544953 0
M  V30 19011 C 1816.81 5.19573 -0.184369 0
M  V30 19012 C 1814.5 5.0001 0.479119 0
M  V30 19013 C 1816.49 6.30006 -0.968081 0
M  V30 19014 C 1814.18 6.10322 -0.30829 0
M  V30 19015 C 1815.17 6.7518 -1.03059 0
M  V30 19016 O 1814.86 7.83373 -1.80507 0
M  V30 19017 H 1814.59 0.651051 0.181958 0
M  V30 19018 H 1817.15 2.05159 -0.0995179 0
M  V30 19019 H 1815.38 3.18823 2.18835 0
M  V30 19020 H 1817.07 3.54735 1.97276 0
M  V30 19021 H 1817.83 4.84789 -0.142908 0
M  V30 19022 H 1813.71 4.49325 1.0309 0
M  V30 19023 H 1817.26 6.80562 -1.53237 0
M  V30 19024 H 1813.15 6.44543 -0.351428 0
M  V30 19025 H 1813.92 8.00094 -1.72601 0
M  V30 19026 N 1816.58 -0.233136 1.55866 0
M  V30 19027 C 1817.83 -0.956309 1.79517 0
M  V30 19028 C 1818.19 -1.82431 0.611291 0
M  V30 19029 O 1817.48 -1.87483 -0.395056 0
M  V30 19030 C 1817.67 -1.83897 3.06458 0
M  V30 19031 C 1817.5 -1.05791 4.37079 0
M  V30 19032 C 1816.27 -0.757479 4.9959 0
M  V30 19033 C 1818.47 -0.428808 5.12509 0
M  V30 19034 N 1816.45 0.0462021 6.13883 0
M  V30 19035 C 1817.82 0.238803 6.1954 0
M  V30 19036 C 1819.88 -0.340665 4.96733 0
M  V30 19037 C 1818.58 0.98611 7.12509 0
M  V30 19038 C 1820.61 0.393145 5.90092 0
M  V30 19039 C 1819.97 1.04934 6.9654 0
M  V30 19040 H 1816.07 -0.330588 0.708686 0
M  V30 19041 H 1818.65 -0.228196 1.93358 0
M  V30 19042 H 1816.82 -2.539 2.93921 0
M  V30 19043 H 1818.55 -2.49875 3.18347 0
M  V30 19044 H 1815.31 -1.07266 4.61293 0
M  V30 19045 H 1815.73 0.436538 6.75591 0
M  V30 19046 H 1820.38 -0.833649 4.145 0
M  V30 19047 H 1818.09 1.49065 7.94232 0
M  V30 19048 H 1821.68 0.462195 5.79961 0
M  V30 19049 H 1820.56 1.60809 7.67535 0
M  V30 19050 N 1818.06 -1.49479 -0.499372 0
M  V30 19051 C 1819.31 -1.58734 -1.25092 0
M  V30 19052 C 1819.63 -0.276701 -1.93027 0
M  V30 19053 O 1818.9 0.704058 -1.82811 0
M  V30 19054 H 1817.48 -0.584857 -0.464706 0
M  V30 19055 H 1820.14 -1.86113 -0.578608 0
M  V30 19056 H 1819.24 -2.38422 -2.01399 0
M  V30 19057 N 1819.54 0.750537 -1.38581 0
M  V30 19058 C 1820.77 1.54489 -1.38376 0
M  V30 19059 C 1821.19 1.88085 0.023634 0
M  V30 19060 O 1820.55 1.50794 1.00652 0
M  V30 19061 C 1820.6 2.81875 -2.24897 0
M  V30 19062 O 1819.7 3.77155 -1.66817 0
M  V30 19063 H 1819.04 0.467148 -0.471878 0
M  V30 19064 H 1821.57 0.927264 -1.82381 0
M  V30 19065 H 1821.58 3.30769 -2.38864 0
M  V30 19066 H 1820.26 2.56753 -3.27186 0
M  V30 19067 H 1818.83 3.35868 -1.62009 0
M  V30 19068 N 1821.02 1.235 0.979051 0
M  V30 19069 C 1822.27 1.06949 1.72307 0
M  V30 19070 C 1822.6 -0.392491 1.90192 0
M  V30 19071 O 1821.87 -1.29054 1.45518 0
M  V30 19072 C 1822.16 1.79705 3.12055 0
M  V30 19073 C 1822.01 3.33583 3.01732 0
M  V30 19074 C 1823.33 1.56062 4.11501 0
M  V30 19075 H 1820.45 0.389917 0.625407 0
M  V30 19076 H 1823.09 1.52022 1.1397 0
M  V30 19077 H 1821.24 1.4139 3.61858 0
M  V30 19078 H 1822.91 3.81428 2.59443 0
M  V30 19079 H 1821.15 3.62547 2.38206 0
M  V30 19080 H 1821.83 3.79681 4.00683 0
M  V30 19081 H 1824.3 1.8937 3.70511 0
M  V30 19082 H 1823.18 2.09442 5.07371 0
M  V30 19083 H 1823.44 0.496276 4.39306 0
M  V30 19084 N 1822.5 -1.17802 1.04693 0
M  V30 19085 C 1823.73 -1.91867 0.774246 0
M  V30 19086 C 1824.14 -1.76534 -0.669425 0
M  V30 19087 O 1823.5 -1.09915 -1.45688 0
M  V30 19088 C 1823.55 -3.43086 1.13904 0
M  V30 19089 O 1823.27 -3.57943 2.52604 0
M  V30 19090 C 1824.77 -4.34238 0.891767 0
M  V30 19091 H 1821.99 -0.60892 0.281882 0
M  V30 19092 H 1824.53 -1.49414 1.39627 0
M  V30 19093 H 1822.69 -3.83304 0.561863 0
M  V30 19094 H 1823.1 -4.51599 2.66756 0
M  V30 19095 H 1824.58 -5.3887 1.1968 0
M  V30 19096 H 1825.05 -4.38858 -0.17323 0
M  V30 19097 H 1825.66 -3.99727 1.45254 0
M  V30 19098 N 1823.98 -0.827251 -1.34143 0
M  V30 19099 C 1825.22 -0.41656 -1.9776 0
M  V30 19100 C 1825.54 1.02488 -1.65895 0
M  V30 19101 O 1824.81 1.71219 -0.951891 0
M  V30 19102 H 1823.39 -0.151044 -0.73157 0
M  V30 19103 H 1826.06 -1.05765 -1.63706 0
M  V30 19104 H 1825.15 -0.539101 -3.07409 0
M  V30 19105 N 1825.45 1.46436 -0.582609 0
M  V30 19106 C 1826.68 2.07275 -0.0718712 0
M  V30 19107 C 1827.1 1.42851 1.22373 0
M  V30 19108 O 1826.46 0.512272 1.73912 0
M  V30 19109 C 1826.51 3.6051 0.08055 0
M  V30 19110 O 1825.61 3.96414 1.13707 0
M  V30 19111 H 1824.95 0.661027 -0.0627607 0
M  V30 19112 H 1827.48 1.88076 -0.805524 0
M  V30 19113 H 1827.49 4.06991 0.286749 0
M  V30 19114 H 1826.17 4.06792 -0.865603 0
M  V30 19115 H 1824.75 3.61643 0.909338 0
M  V30 19116 N 1826.93 0.320385 1.54309 0
M  V30 19117 C 1827.86 -0.580992 2.21714 0
M  V30 19118 C 1828.88 -1.08236 1.21609 0
M  V30 19119 O 1830.07 -0.996489 1.48096 0
M  V30 19120 C 1827.17 -1.80961 2.86542 0
M  V30 19121 C 1826.34 -1.44746 4.12756 0
M  V30 19122 C 1825.4 -2.53327 4.61207 0
M  V30 19123 O 1824.42 -2.17605 5.25963 0
M  V30 19124 N 1825.63 -3.84204 4.35164 0
M  V30 19125 H 1828.39 -0.00384608 2.997 0
M  V30 19126 H 1825.95 0.143444 1.61263 0
M  V30 19127 H 1827.94 -2.52985 3.1588 0
M  V30 19128 H 1826.51 -2.29468 2.12281 0
M  V30 19129 H 1825.73 -0.55899 3.90217 0
M  V30 19130 H 1827.02 -1.18116 4.949 0
M  V30 19131 H 1826.42 -4.16026 3.83326 0
M  V30 19132 H 1824.98 -4.52468 4.69165 0
M  V30 19133 N 1828.41 -1.57525 0.0484906 0
M  V30 19134 C 1829.63 -1.97309 -0.639062 0
M  V30 19135 C 1830.06 -0.925753 -1.63742 0
M  V30 19136 O 1829.42 0.111304 -1.80958 0
M  V30 19137 C 1829.47 -3.36168 -1.30475 0
M  V30 19138 O 1828.57 -3.33903 -2.42038 0
M  V30 19139 H 1827.91 -0.642824 -0.166351 0
M  V30 19140 H 1830.44 -2.0427 0.116095 0
M  V30 19141 H 1830.45 -3.72835 -1.65705 0
M  V30 19142 H 1829.13 -4.11933 -0.573057 0
M  V30 19143 H 1827.7 -3.08978 -2.08775 0
M  V30 19144 N 1829.89 0.224867 -1.55988 0
M  V30 19145 C 1830.84 1.29829 -1.92995 0
M  V30 19146 C 1831.83 1.48693 -0.81159 0
M  V30 19147 O 1833.04 1.49906 -0.996397 0
M  V30 19148 H 1829.41 0.435205 -0.61327 0
M  V30 19149 H 1831.38 0.958953 -2.82571 0
M  V30 19150 C 1830.13 2.6422 -2.26016 0
M  V30 19151 H 1829.45 2.50511 -3.11584 0
M  V30 19152 H 1830.89 3.38148 -2.55797 0
M  V30 19153 C 1829.35 3.1898 -1.08413 0
M  V30 19154 O 1829.88 4.00228 -0.343538 0
M  V30 19155 N 1828.09 2.77308 -0.868842 0
M  V30 19156 H 1827.64 2.11344 -1.4728 0
M  V30 19157 H 1827.59 3.14289 -0.0837012 0
M  V30 19158 N 1831.37 1.49742 0.491438 0
M  V30 19159 C 1832.33 1.66587 1.57421 0
M  V30 19160 C 1833.33 0.537281 1.51558 0
M  V30 19161 O 1834.52 0.803928 1.5454 0
M  V30 19162 C 1831.65 1.67217 2.97071 0
M  V30 19163 H 1832.84 2.63171 1.4381 0
M  V30 19164 H 1830.4 1.38917 0.716368 0
M  V30 19165 H 1831.13 0.722529 3.16149 0
M  V30 19166 H 1830.92 2.49187 3.02734 0
M  V30 19167 H 1832.41 1.82274 3.75721 0
M  V30 19168 N 1832.84 -0.743177 1.38977 0
M  V30 19169 C 1834.09 -1.50479 1.35956 0
M  V30 19170 C 1834.42 -1.94143 -0.0471116 0
M  V30 19171 O 1833.7 -1.66195 -1.01042 0
M  V30 19172 C 1833.98 -2.75016 2.32461 0
M  V30 19173 C 1833.83 -2.37423 3.82034 0
M  V30 19174 C 1835.15 -3.77084 2.26927 0
M  V30 19175 H 1832.27 -0.545869 0.495172 0
M  V30 19176 H 1834.91 -0.850403 1.69906 0
M  V30 19177 H 1833.06 -3.30852 2.03639 0
M  V30 19178 H 1834.74 -1.87282 4.21572 0
M  V30 19179 H 1832.98 -1.69752 3.99208 0
M  V30 19180 H 1833.65 -3.2657 4.45035 0
M  V30 19181 H 1836.13 -3.30812 2.52394 0
M  V30 19182 H 1835 -4.61901 2.96545 0
M  V30 19183 H 1835.26 -4.23419 1.27156 0
M  V30 19184 N 1834.32 -1.24018 -0.972487 0
M  V30 19185 C 1835.55 -1.10483 -1.75523 0
M  V30 19186 C 1835.97 0.338985 -1.8502 0
M  V30 19187 O 1835.33 1.24534 -1.31761 0
M  V30 19188 C 1835.38 -1.74396 -3.15624 0
M  V30 19189 O 1834.48 -1.01148 -3.99804 0
M  V30 19190 H 1833.82 -0.386777 -0.539722 0
M  V30 19191 H 1836.35 -1.64231 -1.22022 0
M  V30 19192 H 1836.36 -1.79958 -3.66168 0
M  V30 19193 H 1835.04 -2.7945 -3.08026 0
M  V30 19194 H 1833.62 -1.03338 -3.58296 0
M  V30 19195 N 1835.8 1.17245 -1.05316 0
M  V30 19196 C 1837.21 1.69167 -0.789906 0
M  V30 19197 C 1837.56 1.83751 0.687762 0
M  V30 19198 O 1836.69 1.52596 1.53438 0
M  V30 19199 C 1837.28 3.07269 -1.42728 0
M  V30 19200 C 1835.84 3.56352 -1.21204 0
M  V30 19201 C 1834.99 2.3258 -1.51003 0
M  V30 19202 H 1837.94 1.01744 -1.21794 0
M  V30 19203 H 1837.96 3.71175 -0.837236 0
M  V30 19204 H 1837.47 2.96622 -2.50273 0
M  V30 19205 H 1835.57 3.72274 -0.155891 0
M  V30 19206 H 1835.69 4.39038 -1.91787 0
M  V30 19207 H 1834.05 2.37107 -0.930172 0
M  V30 19208 H 1834.83 2.2454 -2.59685 0
M  V30 19209 N 1837.28 0.834353 1.33702 0
M  V30 19210 C 1838.51 0.441228 2.02141 0
M  V30 19211 C 1838.92 -0.956226 1.62794 0
M  V30 19212 O 1838.28 -1.6207 0.839027 0
M  V30 19213 C 1838.33 0.547035 3.57337 0
M  V30 19214 O 1838.05 1.88942 3.95262 0
M  V30 19215 C 1839.55 0.150282 4.43045 0
M  V30 19216 H 1836.77 0.175681 0.647593 0
M  V30 19217 H 1839.32 1.12568 1.7073 0
M  V30 19218 H 1837.47 -0.0894532 3.87297 0
M  V30 19219 H 1837.88 1.87174 4.89965 0
M  V30 19220 H 1839.36 0.275374 5.51313 0
M  V30 19221 H 1839.84 -0.907361 4.29725 0
M  V30 19222 H 1840.44 0.761025 4.18436 0
M  V30 19223 N 1838.76 -1.46125 0.590367 0
M  V30 19224 C 1840.17 -1.85962 0.165876 0
M  V30 19225 C 1840.52 -1.49296 -1.27299 0
M  V30 19226 O 1839.64 -0.911461 -1.96269 0
M  V30 19227 C 1840.24 -3.3752 0.294262 0
M  V30 19228 C 1838.8 -3.76324 -0.0754118 0
M  V30 19229 C 1837.94 -2.70126 0.626682 0
M  V30 19230 H 1840.9 -1.3717 0.79812 0
M  V30 19231 H 1840.92 -3.77482 -0.4783 0
M  V30 19232 H 1840.43 -3.64175 1.34159 0
M  V30 19233 H 1838.53 -3.55287 -1.12258 0
M  V30 19234 H 1838.64 -4.7812 0.306241 0
M  V30 19235 H 1837.01 -2.54614 0.0661219 0
M  V30 19236 H 1837.79 -2.99619 1.6758 0
M  V30 19237 N 1840.23 -0.328564 -1.54137 0
M  V30 19238 C 1841.2 0.52248 -2.23165 0
M  V30 19239 C 1842.2 1.03956 -1.22677 0
M  V30 19240 O 1843.39 0.931193 -1.47222 0
M  V30 19241 C 1840.52 1.72624 -2.93962 0
M  V30 19242 H 1841.71 -0.081023 -2.99791 0
M  V30 19243 H 1839.27 -0.0797096 -1.56097 0
M  V30 19244 H 1840 2.36885 -2.21486 0
M  V30 19245 H 1839.79 1.36283 -3.67654 0
M  V30 19246 H 1841.28 2.33023 -3.4654 0
M  V30 19247 N 1841.71 1.57497 -0.0568439 0
M  V30 19248 C 1843.12 1.80477 0.478027 0
M  V30 19249 C 1843.47 0.969549 1.7057 0
M  V30 19250 O 1842.6 0.187756 2.15584 0
M  V30 19251 C 1843.19 3.27332 0.874013 0
M  V30 19252 C 1841.75 3.5121 1.35383 0
M  V30 19253 C 1840.9 2.75308 0.331752 0
M  V30 19254 H 1843.85 1.56162 -0.282678 0
M  V30 19255 H 1843.87 3.38563 1.73653 0
M  V30 19256 H 1843.38 3.88095 -0.019701 0
M  V30 19257 H 1841.49 2.95734 2.26655 0
M  V30 19258 H 1841.6 4.59919 1.34208 0
M  V30 19259 H 1839.96 2.41616 0.805851 0
M  V30 19260 H 1840.75 3.38801 -0.553975 0
M  V30 19261 N 1843.19 -0.216591 1.56105 0
M  V30 19262 C 1844.61 -0.56651 1.49207 0
M  V30 19263 C 1844.81 -1.86906 0.752882 0
M  V30 19264 O 1843.86 -2.50776 0.294573 0
M  V30 19265 C 1845.18 -0.641146 2.93785 0
M  V30 19266 C 1846.72 -0.731439 3.04334 0
M  V30 19267 C 1847.2 -0.837376 4.5028 0
M  V30 19268 N 1848.69 -0.901468 4.54343 0
M  V30 19269 C 1849.42 -1.00323 5.64555 0
M  V30 19270 N 1848.92 -1.06864 6.84509 0
M  V30 19271 N 1850.71 -1.03876 5.52419 0
M  V30 19272 H 1842.86 0.638091 2.02589 0
M  V30 19273 H 1845.13 0.224543 0.921024 0
M  V30 19274 H 1844.83 0.246454 3.50835 0
M  V30 19275 H 1844.71 -1.5031 3.45958 0
M  V30 19276 H 1847.09 -1.60948 2.47346 0
M  V30 19277 H 1847.18 0.15628 2.55322 0
M  V30 19278 H 1846.82 0.0362262 5.07887 0
M  V30 19279 H 1846.75 -1.74058 4.97002 0
M  V30 19280 H 1849.24 -0.861039 3.6796 0
M  V30 19281 H 1849.55 -1.1462 7.64253 0
M  V30 19282 H 1847.9 -1.03768 6.8721 0
M  V30 19283 H 1851.09 -0.984348 4.57633 0
M  V30 19284 H 1851.26 -1.11461 6.38342 0
M  V30 19285 N 1844.67 -1.5 -0.48349 0
M  V30 19286 C 1845.62 -1.68467 -1.6038 0
M  V30 19287 C 1846.61 -0.550508 -1.60205 0
M  V30 19288 O 1847.82 -0.730656 -1.64504 0
M  V30 19289 H 1844.19 -0.531525 -0.531964 0
M  V30 19290 H 1846.16 -2.62468 -1.41962 0
M  V30 19291 C 1844.91 -1.78462 -2.98407 0
M  V30 19292 H 1844.23 -2.65117 -2.99254 0
M  V30 19293 H 1845.67 -1.95413 -3.76284 0
M  V30 19294 C 1844.13 -0.533368 -3.32651 0
M  V30 19295 O 1844.66 0.333087 -4.00317 0
M  V30 19296 N 1842.87 -0.391077 -2.87957 0
M  V30 19297 H 1842.42 -1.09719 -2.33066 0
M  V30 19298 H 1842.37 0.444995 -3.11235 0
M  V30 19299 N 1846.15 0.735796 -1.39369 0
M  V30 19300 C 1847.56 1.31402 -1.32628 0
M  V30 19301 C 1847.91 1.96198 0.00972836 0
M  V30 19302 O 1847.03 1.9625 0.91185 0
M  V30 19303 C 1847.63 2.38934 -2.402 0
M  V30 19304 C 1846.19 2.92432 -2.36982 0
M  V30 19305 C 1845.33 1.65992 -2.2213 0
M  V30 19306 H 1848.29 0.533364 -1.49469 0
M  V30 19307 H 1848.31 3.19304 -2.06942 0
M  V30 19308 H 1847.82 1.91745 -3.37425 0
M  V30 19309 H 1845.92 3.43903 -1.43394 0
M  V30 19310 H 1846.03 3.456 -3.31809 0
M  V30 19311 H 1844.4 1.90298 -1.69289 0
M  V30 19312 H 1845.18 1.20857 -3.21323 0
M  V30 19313 N 1847.63 1.24532 0.965897 0
M  V30 19314 C 1848.85 1.11412 1.74934 0
M  V30 19315 C 1849.28 -0.329168 1.85197 0
M  V30 19316 O 1848.63 -1.23833 1.3242 0
M  V30 19317 C 1848.68 1.76068 3.14694 0
M  V30 19318 O 1847.79 1.03267 3.99261 0
M  V30 19319 H 1847.13 0.389633 0.537663 0
M  V30 19320 H 1849.66 1.64875 1.2115 0
M  V30 19321 H 1849.67 1.81897 3.65209 0
M  V30 19322 H 1848.34 2.8108 3.0654 0
M  V30 19323 H 1846.92 1.05236 3.57743 0
M  V30 19324 N 1849.1 -1.16685 1.05936 0
M  V30 19325 C 1850.38 -1.8312 0.6875 0
M  V30 19326 C 1850.76 -1.94035 -0.831474 0
M  V30 19327 O 1850.11 -1.48067 -1.74036 0
M  V30 19328 C 1850.32 -3.20331 1.38524 0
M  V30 19329 C 1851.67 -3.96149 1.52811 0
M  V30 19330 O 1852.69 -3.29837 1.34485 0
M  V30 19331 O 1851.55 -5.15005 1.82845 0
M  V30 19332 H 1848.64 -0.790513 0.242937 0
M  V30 19333 H 1851.19 -1.23918 1.15941 0
M  V30 19334 H 1849.96 -3.074 2.42118 0
M  V30 19335 H 1849.58 -3.87206 0.903164 0
M  V30 19336 N 1850.58 -0.841432 -1.33258 0
M  V30 19337 C 1851.99 -0.494767 -1.80025 0
M  V30 19338 C 1852.34 0.986416 -1.696 0
M  V30 19339 O 1851.47 1.76874 -1.24678 0
M  V30 19340 C 1852.06 -0.891306 -3.26866 0
M  V30 19341 C 1850.62 -0.59674 -3.7164 0
M  V30 19342 C 1849.77 -1.09825 -2.54625 0
M  V30 19343 H 1852.72 -1.02989 -1.20743 0
M  V30 19344 H 1852.74 -0.202371 -3.79961 0
M  V30 19345 H 1852.25 -1.96937 -3.34421 0
M  V30 19346 H 1850.35 0.471153 -3.69609 0
M  V30 19347 H 1850.47 -1.15377 -4.65 0
M  V30 19348 H 1848.83 -0.519011 -2.49356 0
M  V30 19349 H 1849.61 -2.18314 -2.64941 0
M  V30 19350 N 1852.06 1.4581 -0.598108 0
M  V30 19351 C 1852.99 2.27529 0.174933 0
M  V30 19352 C 1853.97 1.36565 0.882546 0
M  V30 19353 O 1855.15 1.65987 0.893332 0
M  V30 19354 C 1852.28 3.14698 1.25232 0
M  V30 19355 C 1851.33 4.21535 0.648877 0
M  V30 19356 S 1852.16 5.3281 -0.53603 0
M  V30 19357 C 1853.32 6.23547 0.542182 0
M  V30 19358 H 1853.55 2.92745 -0.518405 0
M  V30 19359 H 1851.08 1.49513 -0.385382 0
M  V30 19360 H 1853.04 3.65479 1.86909 0
M  V30 19361 H 1851.7 2.48764 1.91768 0
M  V30 19362 H 1850.89 4.82414 1.45922 0
M  V30 19363 H 1850.5 3.73846 0.107447 0
M  V30 19364 H 1852.79 6.6237 1.4238 0
M  V30 19365 H 1853.73 7.08094 -0.0302138 0
M  V30 19366 H 1854.14 5.58014 0.85325 0
M  V30 19367 N 1853.54 0.336733 1.53961 0
M  V30 19368 C 1854.95 -0.148599 1.86108 0
M  V30 19369 C 1855.3 -1.50551 1.25812 0
M  V30 19370 O 1854.42 -2.08782 0.569109 0
M  V30 19371 C 1855.02 -0.276413 3.37671 0
M  V30 19372 C 1853.58 -0.705973 3.6972 0
M  V30 19373 C 1852.73 0.164407 2.76812 0
M  V30 19374 H 1855.68 0.556568 1.4862 0
M  V30 19375 H 1855.7 -1.10509 3.64099 0
M  V30 19376 H 1855.21 0.711315 3.81526 0
M  V30 19377 H 1853.31 -1.70297 3.31406 0
M  V30 19378 H 1853.42 -0.500591 4.76478 0
M  V30 19379 H 1851.79 -0.362166 2.52112 0
M  V30 19380 H 1852.57 1.14914 3.23496 0
M  V30 19381 N 1855.02 -1.57465 0.0651956 0
M  V30 19382 C 1855.95 -2.09315 -0.933793 0
M  V30 19383 C 1856.96 -1.0239 -1.26571 0
M  V30 19384 O 1858.15 -1.29921 -1.22405 0
M  V30 19385 C 1855.25 -2.53302 -2.25147 0
M  V30 19386 C 1854.42 -3.83724 -2.09939 0
M  V30 19387 C 1853.48 -4.13874 -3.24953 0
M  V30 19388 O 1852.51 -4.83577 -3.00236 0
M  V30 19389 N 1853.71 -3.66896 -4.49853 0
M  V30 19390 H 1856.47 -2.95648 -0.491142 0
M  V30 19391 H 1854.04 -1.61449 -0.120698 0
M  V30 19392 H 1856.03 -2.70538 -3.00984 0
M  V30 19393 H 1854.6 -1.72142 -2.60933 0
M  V30 19394 H 1853.82 -3.75933 -1.18609 0
M  V30 19395 H 1855.11 -4.69106 -1.9702 0
M  V30 19396 H 1854.5 -3.10573 -4.72822 0
M  V30 19397 H 1853.06 -3.89344 -5.22738 0
M  V30 19398 N 1856.49 0.20831 -1.56217 0
M  V30 19399 C 1857.46 1.24178 -1.92646 0
M  V30 19400 C 1858.46 1.39125 -0.806274 0
M  V30 19401 O 1859.65 1.37163 -1.07386 0
M  V30 19402 C 1856.78 2.61342 -2.18891 0
M  V30 19403 H 1857.97 0.930748 -2.85091 0
M  V30 19404 H 1855.52 0.449285 -1.49703 0
M  V30 19405 H 1856.26 2.97521 -1.29041 0
M  V30 19406 H 1856.04 2.51866 -3.00509 0
M  V30 19407 H 1857.53 3.35892 -2.48125 0
M  V30 19408 N 1857.97 1.50255 0.475528 0
M  V30 19409 C 1859.38 1.53931 1.05651 0
M  V30 19410 C 1859.73 0.340226 1.93228 0
M  V30 19411 O 1858.86 -0.547349 2.09363 0
M  V30 19412 C 1859.45 2.78951 1.92281 0
M  V30 19413 C 1858.01 2.85323 2.45495 0
M  V30 19414 C 1857.16 2.48166 1.2373 0
M  V30 19415 H 1860.11 1.56583 0.258332 0
M  V30 19416 H 1860.13 2.60555 2.77293 0
M  V30 19417 H 1859.64 3.66205 1.28514 0
M  V30 19418 H 1857.74 2.0241 3.12827 0
M  V30 19419 H 1857.86 3.88109 2.80906 0
M  V30 19420 H 1856.22 2.00505 1.57066 0
M  V30 19421 H 1857 3.37722 0.616324 0
M  V30 19422 N 1859.45 -0.728395 1.39758 0
M  V30 19423 C 1860.41 -1.82415 1.38772 0
M  V30 19424 C 1861.41 -1.58278 0.283678 0
M  V30 19425 O 1862.6 -1.65556 0.541927 0
M  V30 19426 C 1859.73 -3.20309 1.16684 0
M  V30 19427 H 1860.93 -1.8469 2.36283 0
M  V30 19428 H 1858.48 -0.932729 1.25419 0
M  V30 19429 H 1859.22 -3.2369 0.198817 0
M  V30 19430 H 1859 -3.39226 1.96643 0
M  V30 19431 H 1860.49 -4.0036 1.18751 0
M  V30 19432 N 1860.93 -1.25042 -0.959279 0
M  V30 19433 C 1861.86 -1.07494 -2.07285 0
M  V30 19434 C 1862.84 0.0146264 -1.70094 0
M  V30 19435 O 1864.02 -0.154035 -1.93588 0
M  V30 19436 C 1861.15 -0.68794 -3.40418 0
M  V30 19437 C 1860.11 -1.72722 -3.91601 0
M  V30 19438 C 1859.43 -1.19504 -5.21175 0
M  V30 19439 C 1860.73 -3.12502 -4.18497 0
M  V30 19440 H 1862.43 -2.00641 -2.22224 0
M  V30 19441 H 1859.97 -0.966074 -1.06785 0
M  V30 19442 H 1861.93 -0.552133 -4.17767 0
M  V30 19443 H 1860.65 0.279224 -3.25404 0
M  V30 19444 H 1859.31 -1.85139 -3.16416 0
M  V30 19445 H 1858.96 -0.218239 -5.02526 0
M  V30 19446 H 1858.66 -1.88962 -5.56387 0
M  V30 19447 H 1860.18 -1.07153 -6.01124 0
M  V30 19448 H 1861.6 -3.03266 -4.86521 0
M  V30 19449 H 1859.99 -3.79389 -4.64956 0
M  V30 19450 H 1861.06 -3.5991 -3.2495 0
M  V30 19451 N 1862.41 1.16121 -1.06553 0
M  V30 19452 C 1863.65 1.87228 -0.794807 0
M  V30 19453 C 1864.01 1.803 0.671546 0
M  V30 19454 O 1863.3 1.20961 1.4859 0
M  V30 19455 C 1863.49 3.35676 -1.22705 0
M  V30 19456 C 1863.32 3.57056 -2.73388 0
M  V30 19457 C 1862.09 3.72992 -3.40888 0
M  V30 19458 C 1864.29 3.55555 -3.71598 0
M  V30 19459 N 1862.27 3.82348 -4.80295 0
M  V30 19460 C 1863.64 3.70927 -4.96803 0
M  V30 19461 C 1865.7 3.38782 -3.64871 0
M  V30 19462 C 1864.4 3.7126 -6.16083 0
M  V30 19463 C 1866.43 3.4041 -4.83606 0
M  V30 19464 C 1865.79 3.56304 -6.07641 0
M  V30 19465 H 1861.89 0.702626 -0.343278 0
M  V30 19466 H 1864.47 1.39308 -1.3602 0
M  V30 19467 H 1862.64 3.82232 -0.689456 0
M  V30 19468 H 1864.38 3.94458 -0.904716 0
M  V30 19469 H 1861.13 3.73426 -2.91291 0
M  V30 19470 H 1861.56 3.90788 -5.52823 0
M  V30 19471 H 1866.2 3.2542 -2.69928 0
M  V30 19472 H 1863.92 3.83403 -7.11356 0
M  V30 19473 H 1867.5 3.28672 -4.80069 0
M  V30 19474 H 1866.38 3.57486 -6.97978 0
M  V30 19475 N 1863.88 0.848487 1.3281 0
M  V30 19476 C 1865.13 0.445116 1.96727 0
M  V30 19477 C 1865.45 -1.00311 1.6792 0
M  V30 19478 O 1866.65 -1.51162 2.25527 0
M  V30 19479 C 1865.11 0.745015 3.52104 0
M  V30 19480 C 1864.72 2.20856 3.89778 0
M  V30 19481 C 1866.46 0.409065 4.22524 0
M  V30 19482 C 1864.37 2.452 5.38174 0
M  V30 19483 H 1863.3 0.162715 0.736233 0
M  V30 19484 H 1865.95 1.03841 1.51292 0
M  V30 19485 H 1864.33 0.0812291 3.95917 0
M  V30 19486 H 1865.5 2.91362 3.56994 0
M  V30 19487 H 1863.82 2.50842 3.32366 0
M  V30 19488 H 1866.42 0.568453 5.3167 0
M  V30 19489 H 1866.76 -0.648796 4.11213 0
M  V30 19490 H 1867.29 1.02848 3.84275 0
M  V30 19491 H 1864.03 3.49588 5.54499 0
M  V30 19492 H 1863.55 1.79265 5.72384 0
M  V30 19493 H 1865.23 2.28838 6.0518 0
M  V30 19494 N 1865.36 -1.4549 0.605832 0
M  V30 19495 C 1866.27 -2.34313 -0.115915 0
M  V30 19496 C 1867.29 -1.51136 -0.862199 0
M  V30 19497 O 1868.46 -1.83943 -0.820181 0
M  V30 19498 C 1865.53 -3.28724 -1.10188 0
M  V30 19499 C 1864.59 -4.27807 -0.357749 0
M  V30 19500 C 1863.82 -5.17707 -1.29675 0
M  V30 19501 O 1864.05 -5.10999 -2.53448 0
M  V30 19502 O 1862.98 -5.9663 -0.794767 0
M  V30 19503 H 1866.81 -2.97429 0.613981 0
M  V30 19504 H 1864.39 -1.44845 0.366103 0
M  V30 19505 H 1866.27 -3.86905 -1.6698 0
M  V30 19506 H 1864.95 -2.68175 -1.81284 0
M  V30 19507 H 1863.86 -3.73246 0.252588 0
M  V30 19508 H 1865.19 -4.91206 0.312682 0
M  V30 19509 N 1866.84 -0.344893 -1.5378 0
M  V30 19510 C 1868.07 0.252559 -2.05353 0
M  V30 19511 C 1868.48 1.44107 -1.21978 0
M  V30 19512 O 1867.84 1.80704 -0.25543 0
M  V30 19513 C 1867.89 0.666294 -3.55307 0
M  V30 19514 O 1867.61 -0.474957 -4.35518 0
M  V30 19515 C 1869.11 1.32432 -4.23056 0
M  V30 19516 H 1866.33 0.0485202 -0.669243 0
M  V30 19517 H 1868.88 -0.497271 -1.98362 0
M  V30 19518 H 1867.03 1.36606 -3.62515 0
M  V30 19519 H 1867.45 -0.144883 -5.243 0
M  V30 19520 H 1868.92 1.56456 -5.29363 0
M  V30 19521 H 1869.4 2.27829 -3.75487 0
M  V30 19522 H 1870 0.66655 -4.20044 0
M  V30 19523 N 1868.32 1.57428 -0.0735454 0
M  V30 19524 C 1869.55 1.97883 0.604148 0
M  V30 19525 C 1869.96 0.951968 1.63043 0
M  V30 19526 O 1869.32 -0.0611641 1.82397 0
M  V30 19527 C 1869.37 3.38414 1.27116 0
M  V30 19528 O 1869.09 4.37166 0.285951 0
M  V30 19529 C 1870.59 3.93753 2.03651 0
M  V30 19530 H 1867.81 0.650747 0.163613 0
M  V30 19531 H 1870.36 2.03975 -0.146466 0
M  V30 19532 H 1868.51 3.33403 1.97285 0
M  V30 19533 H 1868.92 5.18896 0.764698 0
M  V30 19534 H 1870.4 4.94298 2.45711 0
M  V30 19535 H 1870.88 3.30391 2.89376 0
M  V30 19536 H 1871.48 4.0217 1.38345 0
M  V30 19537 N 1869.8 -0.200022 1.56326 0
M  V30 19538 C 1870.76 -1.23155 1.93302 0
M  V30 19539 C 1871.76 -1.38696 0.81364 0
M  V30 19540 O 1872.95 -1.36592 1.08112 0
M  V30 19541 C 1870.08 -2.60177 2.20274 0
M  V30 19542 H 1871.27 -0.915616 2.85581 0
M  V30 19543 H 1868.83 -0.44134 1.4994 0
M  V30 19544 H 1869.56 -2.96833 1.30617 0
M  V30 19545 H 1869.35 -2.50269 3.01841 0
M  V30 19546 H 1870.84 -3.34572 2.49903 0
M  V30 19547 N 1871.27 -1.50505 -0.467553 0
M  V30 19548 C 1872.5 -1.65193 -1.24076 0
M  V30 19549 C 1872.91 -0.336102 -1.86191 0
M  V30 19550 O 1872.26 0.692299 -1.70156 0
M  V30 19551 C 1872.32 -2.68798 -2.38721 0
M  V30 19552 C 1871.98 -4.12256 -1.97216 0
M  V30 19553 C 1872.98 -4.98012 -1.49267 0
M  V30 19554 C 1870.66 -4.58192 -2.05829 0
M  V30 19555 C 1872.66 -6.27753 -1.10477 0
M  V30 19556 C 1870.34 -5.87938 -1.66651 0
M  V30 19557 C 1871.34 -6.72544 -1.19053 0
M  V30 19558 O 1871.03 -7.99867 -0.804197 0
M  V30 19559 H 1870.76 -0.55823 -0.381254 0
M  V30 19560 H 1873.32 -1.97502 -0.564089 0
M  V30 19561 H 1871.55 -2.31739 -3.09571 0
M  V30 19562 H 1873.24 -2.7267 -3.00675 0
M  V30 19563 H 1874 -4.63737 -1.42031 0
M  V30 19564 H 1869.88 -3.92482 -2.41825 0
M  V30 19565 H 1873.42 -6.93743 -0.732554 0
M  V30 19566 H 1869.32 -6.21733 -1.73546 0
M  V30 19567 H 1870.09 -8.13168 -0.932733 0
M  V30 19568 N 1872.75 0.720973 -1.40142 0
M  V30 19569 C 1873.72 1.81676 -1.39737 0
M  V30 19570 C 1874.72 1.58125 -0.292068 0
M  V30 19571 O 1875.91 1.65266 -0.550699 0
M  V30 19572 C 1873.04 3.19685 -1.18381 0
M  V30 19573 H 1874.23 1.83435 -2.37259 0
M  V30 19574 H 1871.78 0.926064 -1.25912 0
M  V30 19575 H 1872.52 3.2358 -0.21598 0
M  V30 19576 H 1872.3 3.38178 -1.98439 0
M  V30 19577 H 1873.79 3.99724 -1.20873 0
M  V30 19578 N 1874.23 1.25549 0.952634 0
M  V30 19579 C 1875.16 1.08592 2.06712 0
M  V30 19580 C 1876.14 -0.00560571 1.70099 0
M  V30 19581 O 1877.33 0.164299 1.93504 0
M  V30 19582 C 1874.46 0.705984 3.40049 0
M  V30 19583 C 1873.41 1.74797 3.90679 0
M  V30 19584 C 1872.74 1.22266 5.20533 0
M  V30 19585 C 1874.04 3.14717 4.16834 0
M  V30 19586 H 1875.73 2.01816 2.21157 0
M  V30 19587 H 1873.28 0.971723 1.06271 0
M  V30 19588 H 1875.23 0.57428 4.17469 0
M  V30 19589 H 1873.95 -0.261964 3.25548 0
M  V30 19590 H 1872.61 1.86815 3.1543 0
M  V30 19591 H 1872.26 0.244887 5.02404 0
M  V30 19592 H 1871.96 1.9191 5.55377 0
M  V30 19593 H 1873.48 1.10339 6.00548 0
M  V30 19594 H 1874.9 3.05842 4.84906 0
M  V30 19595 H 1873.3 3.81849 4.62938 0
M  V30 19596 H 1874.37 3.61629 3.23037 0
M  V30 19597 N 1875.71 -1.15554 1.07168 0
M  V30 19598 C 1876.64 -2.22387 0.71178 0
M  V30 19599 C 1877.62 -1.67435 -0.299908 0
M  V30 19600 O 1878.8 -1.93427 -0.173073 0
M  V30 19601 C 1875.93 -3.47136 0.106815 0
M  V30 19602 C 1874.89 -4.15035 1.04545 0
M  V30 19603 C 1874.21 -5.33839 0.303337 0
M  V30 19604 C 1875.51 -4.65011 2.37827 0
M  V30 19605 H 1877.21 -2.52748 1.60496 0
M  V30 19606 H 1874.75 -1.21485 0.773139 0
M  V30 19607 H 1876.71 -4.21108 -0.15689 0
M  V30 19608 H 1875.43 -3.16101 -0.821429 0
M  V30 19609 H 1874.09 -3.43001 1.29405 0
M  V30 19610 H 1873.74 -4.9906 -0.628308 0
M  V30 19611 H 1873.44 -5.8021 0.928964 0
M  V30 19612 H 1874.96 -6.10582 0.0473869 0
M  V30 19613 H 1876.38 -5.3052 2.17305 0
M  V30 19614 H 1874.77 -5.22038 2.95967 0
M  V30 19615 H 1875.84 -3.80748 3.00264 0
M  V30 19616 N 1877.19 -0.855519 -1.32358 0
M  V30 19617 C 1878.14 -0.27253 -2.26365 0
M  V30 19618 C 1879.12 0.582114 -1.50001 0
M  V30 19619 O 1880.31 0.431356 -1.71663 0
M  V30 19620 C 1877.44 0.53739 -3.39068 0
M  V30 19621 C 1876.53 -0.329689 -4.22817 0
M  V30 19622 N 1876.92 -1.41635 -4.85565 0
M  V30 19623 C 1875.22 -0.11959 -4.4584 0
M  V30 19624 C 1875.92 -1.94986 -5.48047 0
M  V30 19625 N 1874.89 -1.2489 -5.29059 0
M  V30 19626 H 1878.7 -1.10327 -2.72406 0
M  V30 19627 H 1876.21 -0.701726 -1.46457 0
M  V30 19628 H 1878.21 0.971464 -4.05423 0
M  V30 19629 H 1876.87 1.36591 -2.94572 0
M  V30 19630 H 1877.88 -1.79928 -4.8564 0
M  V30 19631 H 1874.56 0.674149 -4.12021 0
M  V30 19632 H 1875.95 -2.86078 -6.07955 0
M  V30 19633 N 1878.67 1.45167 -0.61354 0
M  V30 19634 C 1879.6 2.3333 0.089004 0
M  V30 19635 C 1880.58 1.47181 0.85275 0
M  V30 19636 O 1881.76 1.7594 0.822122 0
M  V30 19637 C 1878.89 3.29982 1.08301 0
M  V30 19638 C 1877.85 4.25813 0.432084 0
M  V30 19639 C 1877.17 5.122 1.53476 0
M  V30 19640 C 1878.47 5.18233 -0.65052 0
M  V30 19641 H 1880.17 2.92322 -0.647165 0
M  V30 19642 H 1877.71 1.40565 -0.312667 0
M  V30 19643 H 1879.66 3.90533 1.5831 0
M  V30 19644 H 1878.39 2.69162 1.84985 0
M  V30 19645 H 1877.05 3.6657 -0.0471927 0
M  V30 19646 H 1876.7 4.47744 2.29203 0
M  V30 19647 H 1876.4 5.77122 1.10469 0
M  V30 19648 H 1877.92 5.7562 2.037 0
M  V30 19649 H 1879.33 5.72821 -0.234262 0
M  V30 19650 H 1877.73 5.91664 -1.00268 0
M  V30 19651 H 1878.8 4.60304 -1.52475 0
M  V30 19652 N 1880.14 0.353044 1.53595 0
M  V30 19653 C 1881.07 -0.491481 2.28269 0
M  V30 19654 C 1882.05 -1.0946 1.30201 0
M  V30 19655 O 1883.24 -1.11421 1.59056 0
M  V30 19656 C 1880.37 -1.63776 3.06259 0
M  V30 19657 C 1879.32 -1.16251 4.1191 0
M  V30 19658 C 1878.65 -2.39805 4.7791 0
M  V30 19659 C 1879.95 -0.256191 5.21671 0
M  V30 19660 H 1881.64 0.131483 2.99111 0
M  V30 19661 H 1879.19 0.0646771 1.43855 0
M  V30 19662 H 1881.14 -2.2351 3.57241 0
M  V30 19663 H 1879.87 -2.28777 2.33085 0
M  V30 19664 H 1878.53 -0.587934 3.61855 0
M  V30 19665 H 1878.17 -3.03234 4.0132 0
M  V30 19666 H 1877.87 -2.08684 5.49295 0
M  V30 19667 H 1879.4 -3.00248 5.3168 0
M  V30 19668 H 1880.81 -0.760642 5.68232 0
M  V30 19669 H 1879.21 -0.0364273 6.00089 0
M  V30 19670 H 1880.28 0.705105 4.79746 0
M  V30 19671 N 1881.62 -1.57387 0.0818932 0
M  V30 19672 C 1882.55 -2.16318 -0.879124 0
M  V30 19673 C 1883.53 -1.09293 -1.30342 0
M  V30 19674 O 1884.72 -1.37373 -1.37267 0
M  V30 19675 C 1881.85 -2.73293 -2.14308 0
M  V30 19676 C 1880.8 -3.85575 -1.85785 0
M  V30 19677 C 1880.13 -4.29195 -3.18897 0
M  V30 19678 C 1881.43 -5.09365 -1.15517 0
M  V30 19679 H 1883.12 -2.96873 -0.388166 0
M  V30 19680 H 1880.67 -1.42803 -0.185265 0
M  V30 19681 H 1882.62 -3.13168 -2.81964 0
M  V30 19682 H 1881.34 -1.89974 -2.65664 0
M  V30 19683 H 1880 -3.46219 -1.20532 0
M  V30 19684 H 1879.65 -3.42784 -3.68114 0
M  V30 19685 H 1879.35 -5.04889 -3.006 0
M  V30 19686 H 1880.88 -4.71694 -3.87734 0
M  V30 19687 H 1882.29 -5.46493 -1.73259 0
M  V30 19688 H 1880.69 -5.90403 -1.07444 0
M  V30 19689 H 1881.76 -4.8471 -0.135822 0
M  V30 19690 N 1883.1 0.191729 -1.56429 0
M  V30 19691 C 1884.05 1.24177 -1.91217 0
M  V30 19692 C 1885.03 1.40828 -0.778219 0
M  V30 19693 O 1886.23 1.43142 -1.04112 0
M  V30 19694 C 1883.35 2.58584 -2.25808 0
M  V30 19695 C 1882.44 2.45712 -3.45668 0
M  V30 19696 N 1882.83 2.02524 -4.63484 0
M  V30 19697 C 1881.13 2.76595 -3.49873 0
M  V30 19698 C 1881.83 2.01625 -5.45639 0
M  V30 19699 N 1880.81 2.43256 -4.86135 0
M  V30 19700 H 1884.61 0.899247 -2.79805 0
M  V30 19701 H 1882.12 0.400144 -1.57393 0
M  V30 19702 H 1884.12 3.34434 -2.48917 0
M  V30 19703 H 1882.78 2.93657 -1.38549 0
M  V30 19704 H 1883.79 1.7318 -4.88087 0
M  V30 19705 H 1880.47 3.15842 -2.73038 0
M  V30 19706 H 1881.86 1.70106 -6.5001 0
M  V30 19707 N 1884.58 1.50751 0.459565 0
M  V30 19708 C 1885.49 1.7326 1.58171 0
M  V30 19709 C 1886.5 0.616042 1.6273 0
M  V30 19710 O 1887.68 0.895726 1.80385 0
M  V30 19711 C 1884.74 1.83249 2.94314 0
M  V30 19712 C 1883.81 3.07031 3.00051 0
M  V30 19713 C 1883.04 3.16534 4.297 0
M  V30 19714 O 1883.26 2.32532 5.2085 0
M  V30 19715 O 1882.2 4.0935 4.41266 0
M  V30 19716 H 1886.02 2.68406 1.42098 0
M  V30 19717 H 1883.61 1.34985 0.640273 0
M  V30 19718 H 1885.49 1.91933 3.75153 0
M  V30 19719 H 1884.16 0.912887 3.10561 0
M  V30 19720 H 1883.07 3.0384 2.18248 0
M  V30 19721 H 1884.4 3.98608 2.88743 0
M  V30 19722 N 1886.06 -0.713531 1.40522 0
M  V30 19723 C 1887.3 -1.47052 1.38637 0
M  V30 19724 C 1887.62 -1.94998 -0.00984474 0
M  V30 19725 O 1886.89 -1.70486 -0.964959 0
M  V30 19726 H 1885.47 -0.545577 0.51025 0
M  V30 19727 H 1888.14 -0.84572 1.75595 0
M  V30 19728 H 1887.23 -2.34237 2.06251 0
M  V30 19729 N 1887.53 -1.26053 -0.945962 0
M  V30 19730 C 1888.48 -1.07194 -2.04397 0
M  V30 19731 C 1889.45 0.0215796 -1.66086 0
M  V30 19732 O 1890.64 -0.137272 -1.90306 0
M  V30 19733 C 1887.78 -0.705915 -3.37803 0
M  V30 19734 C 1886.89 -1.87519 -3.89179 0
M  V30 19735 C 1886.02 -1.45272 -5.1095 0
M  V30 19736 C 1885.06 -2.59059 -5.54576 0
M  V30 19737 N 1884.2 -2.17527 -6.67552 0
M  V30 19738 H 1889.04 -2.01159 -2.19861 0
M  V30 19739 H 1886.58 -1.00162 -1.07731 0
M  V30 19740 H 1888.53 -0.474611 -4.14492 0
M  V30 19741 H 1887.16 0.196761 -3.222 0
M  V30 19742 H 1886.22 -2.21956 -3.08933 0
M  V30 19743 H 1887.53 -2.7294 -4.17499 0
M  V30 19744 H 1886.68 -1.18158 -5.95083 0
M  V30 19745 H 1885.42 -0.569345 -4.84365 0
M  V30 19746 H 1884.43 -2.86908 -4.69003 0
M  V30 19747 H 1885.65 -3.47989 -5.83164 0
M  V30 19748 H 1883.6 -1.31618 -6.42661 0
M  V30 19749 H 1883.51 -2.96493 -6.95433 0
M  V30 19750 H 1884.78 -1.93612 -7.55073 0
M  V30 19751 N 1889.01 1.14984 -1.07779 0
M  V30 19752 C 1889.97 2.1806 -0.705879 0
M  V30 19753 C 1890.97 1.58748 0.256082 0
M  V30 19754 O 1892.16 1.74162 0.0364678 0
M  V30 19755 C 1889.3 3.40875 -0.0411253 0
M  V30 19756 H 1890.49 2.52476 -1.61852 0
M  V30 19757 H 1888.04 1.29522 -0.874863 0
M  V30 19758 H 1888.78 3.12032 0.883548 0
M  V30 19759 H 1888.56 3.85186 -0.73306 0
M  V30 19760 H 1890.05 4.171 0.204275 0
M  V30 19761 N 1890.49 0.862526 1.31902 0
M  V30 19762 C 1891.4 0.316029 2.32462 0
M  V30 19763 C 1892.42 -0.570217 1.64391 0
M  V30 19764 O 1893.59 -0.46871 1.9587 0
M  V30 19765 C 1890.66 -0.479949 3.43362 0
M  V30 19766 C 1889.72 0.43337 4.27107 0
M  V30 19767 C 1888.95 -0.324714 5.32711 0
M  V30 19768 O 1889.17 -1.55373 5.48831 0
M  V30 19769 O 1888.11 0.313571 6.01083 0
M  V30 19770 H 1891.93 1.14935 2.81111 0
M  V30 19771 H 1889.52 0.625683 1.35667 0
M  V30 19772 H 1891.4 -0.931458 4.10977 0
M  V30 19773 H 1890.08 -1.28994 2.96888 0
M  V30 19774 H 1888.98 0.933222 3.62273 0
M  V30 19775 H 1890.32 1.20876 4.77127 0
M  V30 19776 N 1891.97 -1.4484 0.62123 0
M  V30 19777 C 1892.9 -2.27778 -0.138713 0
M  V30 19778 C 1893.88 -1.37951 -0.860708 0
M  V30 19779 O 1895.06 -1.67388 -0.866812 0
M  V30 19780 C 1892.19 -3.1665 -1.2021 0
M  V30 19781 C 1891.24 -4.22514 -0.581732 0
M  V30 19782 S 1892.07 -5.3189 0.620728 0
M  V30 19783 C 1893.23 -6.24331 -0.442913 0
M  V30 19784 H 1893.46 -2.91884 0.564912 0
M  V30 19785 H 1890.99 -1.48881 0.409119 0
M  V30 19786 H 1892.95 -3.68407 -1.81071 0
M  V30 19787 H 1891.61 -2.51784 -1.87786 0
M  V30 19788 H 1890.8 -4.84674 -1.38229 0
M  V30 19789 H 1890.41 -3.73969 -0.0479578 0
M  V30 19790 H 1892.7 -6.64551 -1.31824 0
M  V30 19791 H 1893.64 -7.07956 0.142862 0
M  V30 19792 H 1894.05 -5.59301 -0.764367 0
M  V30 19793 N 1893.45 -0.361184 -1.53405 0
M  V30 19794 C 1894.41 0.475026 -2.24223 0
M  V30 19795 C 1895.41 1.01331 -1.24855 0
M  V30 19796 O 1896.6 0.899756 -1.49164 0
M  V30 19797 C 1893.73 1.6635 -2.97557 0
M  V30 19798 H 1894.92 -0.144595 -2.99551 0
M  V30 19799 H 1892.48 -0.112802 -1.55892 0
M  V30 19800 H 1893.21 2.32133 -2.26461 0
M  V30 19801 H 1893 1.28454 -3.70462 0
M  V30 19802 H 1894.49 2.2562 -3.51405 0
M  V30 19803 N 1894.92 1.57341 -0.0902386 0
M  V30 19804 C 1896.2 1.85627 0.616611 0
M  V30 19805 C 1896.58 0.986193 1.86648 0
M  V30 19806 O 1895.93 0.0573148 2.28428 0
M  V30 19807 C 1896.14 3.36196 0.936645 0
M  V30 19808 C 1897.49 4.04139 1.30219 0
M  V30 19809 O 1898.51 3.41049 1.02781 0
M  V30 19810 O 1897.37 5.1545 1.81586 0
M  V30 19811 H 1894.46 0.76748 0.308065 0
M  V30 19812 H 1897.01 1.69257 -0.122568 0
M  V30 19813 H 1895.78 3.91268 0.0497354 0
M  V30 19814 H 1895.41 3.57895 1.73197 0
M  V30 19815 N 1896.4 -0.183431 1.56529 0
M  V30 19816 C 1897.33 -1.25157 1.92011 0
M  V30 19817 C 1898.35 -1.41107 0.811945 0
M  V30 19818 O 1899.54 -1.41326 1.09038 0
M  V30 19819 C 1896.64 -2.62206 2.14712 0
M  V30 19820 C 1895.81 -2.67712 3.45903 0
M  V30 19821 C 1894.87 -3.86038 3.57576 0
M  V30 19822 O 1893.89 -3.72599 4.30301 0
M  V30 19823 N 1895.1 -5.01988 2.91528 0
M  V30 19824 H 1897.86 -0.950304 2.84235 0
M  V30 19825 H 1895.42 -0.373278 1.57538 0
M  V30 19826 H 1897.41 -3.3981 2.19798 0
M  V30 19827 H 1895.98 -2.84772 1.28932 0
M  V30 19828 H 1895.2 -1.76294 3.52582 0
M  V30 19829 H 1896.49 -2.68392 4.32254 0
M  V30 19830 H 1895.89 -5.15807 2.32292 0
M  V30 19831 H 1894.45 -5.77497 3.02225 0
M  V30 19832 N 1897.88 -1.50992 -0.451564 0
M  V30 19833 C 1898.84 -1.70703 -1.52949 0
M  V30 19834 C 1899.84 -0.577275 -1.50081 0
M  V30 19835 O 1901.03 -0.844619 -1.52354 0
M  V30 19836 C 1898.17 -1.75035 -2.92533 0
M  V30 19837 H 1899.36 -2.66891 -1.36782 0
M  V30 19838 H 1896.91 -1.40767 -0.679285 0
M  V30 19839 H 1897.65 -0.806096 -3.14122 0
M  V30 19840 H 1897.43 -2.57126 -2.96021 0
M  V30 19841 H 1898.92 -1.92171 -3.70756 0
M  V30 19842 N 1899.36 0.706069 -1.40899 0
M  V30 19843 C 1900.58 1.50008 -1.43221 0
M  V30 19844 C 1901.01 1.88065 -0.0362158 0
M  V30 19845 O 1900.37 1.5392 0.958036 0
M  V30 19846 C 1900.41 2.74578 -2.33751 0
M  V30 19847 O 1899.52 3.71657 -1.78731 0
M  V30 19848 H 1898.86 0.451899 -0.486501 0
M  V30 19849 H 1901.39 0.868772 -1.85239 0
M  V30 19850 H 1901.4 3.23002 -2.49266 0
M  V30 19851 H 1900.07 2.46214 -3.35189 0
M  V30 19852 H 1898.65 3.30544 -1.72612 0
M  V30 19853 N 1900.84 1.26553 0.939264 0
M  V30 19854 C 1901.8 1.08335 2.01981 0
M  V30 19855 C 1902.8 0.0310501 1.6077 0
M  V30 19856 O 1903.99 0.274627 1.72022 0
M  V30 19857 C 1901.12 0.648208 3.34681 0
M  V30 19858 H 1902.31 2.04272 2.19574 0
M  V30 19859 H 1899.87 1.09177 1.11849 0
M  V30 19860 H 1900.6 -0.313074 3.22785 0
M  V30 19861 H 1900.39 1.40806 3.65946 0
M  V30 19862 H 1901.88 0.54264 4.14059 0
M  V30 19863 N 1902.31 -1.14411 1.08387 0
M  V30 19864 C 1903.56 -1.8594 0.824492 0
M  V30 19865 C 1903.92 -1.81345 -0.642777 0
M  V30 19866 O 1903.21 -1.2331 -1.46647 0
M  V30 19867 C 1903.4 -3.33681 1.2803 0
M  V30 19868 C 1903.23 -3.52661 2.79034 0
M  V30 19869 C 1902 -3.67522 3.46779 0
M  V30 19870 C 1904.2 -3.49598 3.77208 0
M  V30 19871 N 1902.18 -3.74658 4.86317 0
M  V30 19872 C 1903.55 -3.62976 5.02641 0
M  V30 19873 C 1905.61 -3.32935 3.70215 0
M  V30 19874 C 1904.31 -3.61412 6.21912 0
M  V30 19875 C 1906.34 -3.32674 4.8896 0
M  V30 19876 C 1905.7 -3.46591 6.13232 0
M  V30 19877 H 1901.8 -0.697076 0.354413 0
M  V30 19878 H 1904.38 -1.37126 1.38219 0
M  V30 19879 H 1902.55 -3.81086 0.750178 0
M  V30 19880 H 1904.28 -3.92969 0.967357 0
M  V30 19881 H 1901.04 -3.68744 2.97195 0
M  V30 19882 H 1901.46 -3.81944 5.5897 0
M  V30 19883 H 1906.11 -3.21085 2.75071 0
M  V30 19884 H 1903.82 -3.72037 7.17366 0
M  V30 19885 H 1907.41 -3.20993 4.85237 0
M  V30 19886 H 1906.29 -3.46336 7.03577 0
M  V30 19887 N 1903.79 -0.869509 -1.31443 0
M  V30 19888 C 1904.72 -0.340679 -2.31001 0
M  V30 19889 C 1905.7 0.568186 -1.6033 0
M  V30 19890 O 1906.89 0.485305 -1.88038 0
M  V30 19891 C 1904.02 0.45909 -3.44252 0
M  V30 19892 C 1902.97 -0.356639 -4.26512 0
M  V30 19893 C 1902.3 0.568786 -5.31666 0
M  V30 19894 C 1903.6 -1.59045 -4.97496 0
M  V30 19895 H 1905.29 -1.1726 -2.75482 0
M  V30 19896 H 1902.84 -0.5653 -1.3244 0
M  V30 19897 H 1904.79 0.839573 -4.12952 0
M  V30 19898 H 1903.52 1.32451 -2.98537 0
M  V30 19899 H 1902.17 -0.719063 -3.59479 0
M  V30 19900 H 1901.82 1.43148 -4.82201 0
M  V30 19901 H 1901.52 0.0268906 -5.87594 0
M  V30 19902 H 1903.05 0.946122 -6.03225 0
M  V30 19903 H 1904.46 -1.28144 -5.58795 0
M  V30 19904 H 1902.86 -2.07139 -5.63217 0
M  V30 19905 H 1903.93 -2.34354 -4.24507 0
M  V30 19906 N 1905.27 1.44508 -0.628902 0
M  V30 19907 C 1906.5 2.06429 -0.13951 0
M  V30 19908 C 1906.91 1.46981 1.18499 0
M  V30 19909 O 1906.27 0.591856 1.72636 0
M  V30 19910 C 1906.32 3.61496 -0.016195 0
M  V30 19911 O 1906.04 4.18729 -1.28831 0
M  V30 19912 C 1907.54 4.40447 0.502154 0
M  V30 19913 H 1904.76 0.666375 -0.0786479 0
M  V30 19914 H 1907.31 1.85414 -0.862674 0
M  V30 19915 H 1905.46 3.81781 0.657398 0
M  V30 19916 H 1905.88 5.12145 -1.13171 0
M  V30 19917 H 1907.35 5.49377 0.537458 0
M  V30 19918 H 1907.83 4.11735 1.52876 0
M  V30 19919 H 1908.43 4.25076 -0.138113 0
M  V30 19920 N 1906.75 0.369315 1.53212 0
M  V30 19921 C 1908.17 0.0184115 1.59589 0
M  V30 19922 C 1908.37 -1.46424 1.38428 0
M  V30 19923 O 1907.42 -2.2263 1.1913 0
M  V30 19924 C 1908.73 0.477693 2.96881 0
M  V30 19925 C 1910.28 0.432233 3.10001 0
M  V30 19926 C 1910.76 0.867386 4.49711 0
M  V30 19927 N 1912.25 0.822594 4.55837 0
M  V30 19928 C 1912.98 1.13094 5.62136 0
M  V30 19929 N 1912.48 1.50876 6.76172 0
M  V30 19930 N 1914.27 1.0535 5.52139 0
M  V30 19931 H 1906.42 1.33479 1.65218 0
M  V30 19932 H 1908.69 0.545823 0.775101 0
M  V30 19933 H 1908.39 1.51245 3.17518 0
M  V30 19934 H 1908.27 -0.133741 3.76963 0
M  V30 19935 H 1910.65 -0.593397 2.89072 0
M  V30 19936 H 1910.73 1.07921 2.3192 0
M  V30 19937 H 1910.38 1.89115 4.71379 0
M  V30 19938 H 1910.31 0.19762 5.26229 0
M  V30 19939 H 1912.8 0.544303 3.7396 0
M  V30 19940 H 1913.11 1.72821 7.53228 0
M  V30 19941 H 1911.46 1.54745 6.77554 0
M  V30 19942 H 1914.65 0.757487 4.6193 0
M  V30 19943 H 1914.82 1.29713 6.34885 0
M  V30 19944 N 1908.23 -1.57291 0.0985816 0
M  V30 19945 C 1909.16 -2.11249 -0.889184 0
M  V30 19946 C 1910.17 -1.05051 -1.24371 0
M  V30 19947 O 1911.36 -1.32488 -1.19621 0
M  V30 19948 C 1908.46 -2.58021 -2.19724 0
M  V30 19949 C 1907.63 -3.88091 -2.01752 0
M  V30 19950 C 1906.69 -4.20674 -3.16101 0
M  V30 19951 O 1905.72 -4.89837 -2.89911 0
M  V30 19952 N 1906.92 -3.76356 -4.41969 0
M  V30 19953 H 1909.69 -2.96624 -0.42832 0
M  V30 19954 H 1907.25 -1.61669 -0.0864254 0
M  V30 19955 H 1909.24 -2.76861 -2.95178 0
M  V30 19956 H 1907.81 -1.77638 -2.57223 0
M  V30 19957 H 1907.03 -3.78364 -1.10608 0
M  V30 19958 H 1908.32 -4.7318 -1.87026 0
M  V30 19959 H 1907.72 -3.20533 -4.66128 0
M  V30 19960 H 1906.27 -4.00344 -5.14361 0
M  V30 19961 N 1909.71 0.175127 -1.56624 0
M  V30 19962 C 1910.95 0.890605 -1.81418 0
M  V30 19963 C 1911.27 1.82946 -0.674958 0
M  V30 19964 O 1910.54 1.93504 0.305439 0
M  V30 19965 H 1909.12 0.331864 -0.669235 0
M  V30 19966 H 1911.79 0.175855 -1.94105 0
M  V30 19967 H 1910.88 1.46979 -2.75325 0
M  V30 19968 N 1911.18 1.5123 0.44355 0
M  V30 19969 C 1912.41 1.67671 1.2207 0
M  V30 19970 C 1912.83 0.370934 1.84406 0
M  V30 19971 O 1912.19 -0.668265 1.68535 0
M  V30 19972 C 1912.24 2.7896 2.28503 0
M  V30 19973 O 1911.34 2.4213 3.33837 0
M  V30 19974 H 1910.68 0.559275 0.357921 0
M  V30 19975 H 1913.21 1.9776 0.524592 0
M  V30 19976 H 1913.22 3.0286 2.73386 0
M  V30 19977 H 1911.9 3.73716 1.82509 0
M  V30 19978 H 1910.48 2.28779 2.94473 0
M  V30 19979 N 1912.66 -0.698586 1.41271 0
M  V30 19980 C 1913.91 -1.45861 1.40466 0
M  V30 19981 C 1914.24 -1.94496 0.0127551 0
M  V30 19982 O 1913.49 -1.69692 -0.974843 0
M  V30 19983 C 1913.79 -2.688 2.35545 0
M  V30 19984 C 1913.46 -2.38839 3.82449 0
M  V30 19985 C 1912.12 -2.30378 4.22468 0
M  V30 19986 C 1914.47 -2.14065 4.75211 0
M  V30 19987 C 1911.8 -1.95236 5.53263 0
M  V30 19988 C 1914.15 -1.80432 6.06323 0
M  V30 19989 C 1912.81 -1.70465 6.45367 0
M  V30 19990 H 1912.08 -0.533744 0.514002 0
M  V30 19991 H 1914.73 -0.798723 1.74048 0
M  V30 19992 H 1913.04 -3.39708 1.95207 0
M  V30 19993 H 1914.73 -3.26933 2.32197 0
M  V30 19994 H 1911.32 -2.46317 3.50751 0
M  V30 19995 H 1915.51 -2.19548 4.45098 0
M  V30 19996 H 1910.76 -1.86069 5.82399 0
M  V30 19997 H 1914.94 -1.60281 6.77704 0
M  V30 19998 H 1912.56 -1.43002 7.46629 0
M  V30 19999 N 1914.14 -1.27049 -0.93254 0
M  V30 20000 C 1915.07 -1.05151 -2.03656 0
M  V30 20001 C 1916.08 -0.00913996 -1.62797 0
M  V30 20002 O 1917.27 -0.25017 -1.76738 0
M  V30 20003 C 1914.37 -0.572071 -3.34037 0
M  V30 20004 C 1913.55 -1.68563 -4.03615 0
M  V30 20005 C 1912.61 -1.20276 -5.12269 0
M  V30 20006 O 1911.63 -1.9015 -5.36499 0
M  V30 20007 N 1912.83 -0.0558099 -5.80473 0
M  V30 20008 H 1915.6 -2.00221 -2.23006 0
M  V30 20009 H 1913.16 -1.18551 -1.1026 0
M  V30 20010 H 1915.15 -0.233036 -4.04029 0
M  V30 20011 H 1913.72 0.285274 -3.11296 0
M  V30 20012 H 1912.94 -2.19519 -3.27422 0
M  V30 20013 H 1914.23 -2.43313 -4.46852 0
M  V30 20014 H 1913.63 0.527516 -5.63235 0
M  V30 20015 H 1912.18 0.224082 -6.51415 0
M  V30 20016 N 1915.62 1.13835 -1.08993 0
M  V30 20017 C 1916.87 1.84645 -0.82163 0
M  V30 20018 C 1917.19 1.83685 0.65458 0
M  V30 20019 O 1916.46 1.28948 1.47477 0
M  V30 20020 H 1915.04 0.683691 -0.300958 0
M  V30 20021 H 1917.7 1.37915 -1.37715 0
M  V30 20022 H 1916.79 2.89292 -1.17117 0
M  V30 20023 N 1917.1 0.876467 1.3098 0
M  V30 20024 C 1918.34 0.489671 1.96078 0
M  V30 20025 C 1918.66 -0.962603 1.69585 0
M  V30 20026 O 1917.93 -1.67568 1.01478 0
M  V30 20027 H 1916.51 0.178091 0.72546 0
M  V30 20028 H 1919.18 1.11768 1.59668 0
M  V30 20029 H 1918.27 0.652822 3.05196 0
M  V30 20030 N 1918.57 -1.44173 0.636557 0
M  V30 20031 C 1919.82 -2.01993 0.143216 0
M  V30 20032 C 1920.15 -1.50104 -1.23689 0
M  V30 20033 O 1919.4 -0.677627 -1.83594 0
M  V30 20034 C 1919.7 -3.57299 0.0849933 0
M  V30 20035 C 1919.37 -4.28464 1.40461 0
M  V30 20036 C 1918.03 -4.47622 1.76601 0
M  V30 20037 C 1920.38 -4.68908 2.27541 0
M  V30 20038 C 1917.71 -5.04485 2.99519 0
M  V30 20039 C 1920.06 -5.27133 3.49734 0
M  V30 20040 C 1918.73 -5.44509 3.86091 0
M  V30 20041 H 1918 -0.739144 0.0524066 0
M  V30 20042 H 1920.64 -1.72868 0.823952 0
M  V30 20043 H 1918.95 -3.85869 -0.679134 0
M  V30 20044 H 1920.65 -3.99774 -0.31333 0
M  V30 20045 H 1917.24 -4.13886 1.11337 0
M  V30 20046 H 1921.42 -4.53815 2.00913 0
M  V30 20047 H 1916.68 -5.16125 3.27758 0
M  V30 20048 H 1920.85 -5.5742 4.1744 0
M  V30 20049 H 1918.48 -5.88336 4.81419 0
M  V30 20050 N 1920.05 -0.377435 -1.53014 0
M  V30 20051 C 1921.47 -0.0268747 -1.59577 0
M  V30 20052 C 1921.67 1.45688 -1.39202 0
M  V30 20053 O 1920.72 2.21996 -1.20309 0
M  V30 20054 C 1922.04 -0.493431 -2.96624 0
M  V30 20055 C 1923.58 -0.448667 -3.09768 0
M  V30 20056 C 1924.06 -0.891223 -4.49245 0
M  V30 20057 N 1925.55 -0.846756 -4.55395 0
M  V30 20058 C 1926.29 -1.16074 -5.61529 0
M  V30 20059 N 1925.78 -1.5446 -6.75362 0
M  V30 20060 N 1927.57 -1.08276 -5.51573 0
M  V30 20061 H 1919.73 -1.34353 -1.64508 0
M  V30 20062 H 1921.99 -0.549926 -0.772195 0
M  V30 20063 H 1921.69 -1.52927 -3.16712 0
M  V30 20064 H 1921.57 0.113748 -3.77028 0
M  V30 20065 H 1923.96 0.578058 -2.89383 0
M  V30 20066 H 1924.04 -1.0915 -2.31344 0
M  V30 20067 H 1923.68 -1.91612 -4.70369 0
M  V30 20068 H 1923.61 -0.225524 -5.26117 0
M  V30 20069 H 1926.1 -0.564127 -3.73666 0
M  V30 20070 H 1926.41 -1.76813 -7.52301 0
M  V30 20071 H 1924.76 -1.58336 -6.76724 0
M  V30 20072 H 1927.95 -0.781974 -4.61522 0
M  V30 20073 H 1928.12 -1.33078 -6.34188 0
M  V30 20074 N 1921.53 1.57237 -0.106922 0
M  V30 20075 C 1922.76 1.99545 0.565392 0
M  V30 20076 C 1923.18 0.985887 1.60193 0
M  V30 20077 O 1922.54 -0.0440657 1.81246 0
M  V30 20078 C 1922.59 3.40779 1.17908 0
M  V30 20079 O 1921.69 3.42656 2.29479 0
M  V30 20080 H 1921.03 0.648556 0.142379 0
M  V30 20081 H 1923.56 2.03699 -0.191829 0
M  V30 20082 H 1923.57 3.78728 1.51754 0
M  V30 20083 H 1922.25 4.13776 0.419776 0
M  V30 20084 H 1920.82 3.16514 1.97164 0
M  V30 20085 N 1923.01 -0.166818 1.56715 0
M  V30 20086 C 1924.24 -0.898169 1.86388 0
M  V30 20087 C 1924.65 -1.75628 0.692837 0
M  V30 20088 O 1924.01 -1.79344 -0.337947 0
M  V30 20089 C 1924.06 -1.77122 3.15135 0
M  V30 20090 O 1923.78 -0.947716 4.27727 0
M  V30 20091 C 1925.28 -2.61185 3.58186 0
M  V30 20092 H 1922.5 -0.260711 0.61828 0
M  V30 20093 H 1925.05 -0.165561 2.03829 0
M  V30 20094 H 1923.2 -2.45711 2.99507 0
M  V30 20095 H 1923.61 -1.54523 5.01221 0
M  V30 20096 H 1925.09 -3.18052 4.51162 0
M  V30 20097 H 1925.57 -3.36273 2.8252 0
M  V30 20098 H 1926.17 -1.9792 3.76441 0
M  V30 20099 N 1924.49 -1.51463 -0.435524 0
M  V30 20100 C 1925.42 -1.69104 -1.54715 0
M  V30 20101 C 1926.43 -0.571681 -1.52432 0
M  V30 20102 O 1927.62 -0.846054 -1.57176 0
M  V30 20103 C 1924.72 -1.69217 -2.9363 0
M  V30 20104 C 1923.89 -2.97766 -3.20397 0
M  V30 20105 C 1922.95 -2.90043 -4.39046 0
M  V30 20106 O 1921.98 -3.63985 -4.37611 0
M  V30 20107 N 1923.18 -2.06018 -5.42712 0
M  V30 20108 H 1925.95 -2.64998 -1.39985 0
M  V30 20109 H 1923.51 -1.49371 -0.624486 0
M  V30 20110 H 1925.5 -1.61616 -3.71029 0
M  V30 20111 H 1924.07 -0.809085 -3.01948 0
M  V30 20112 H 1923.29 -3.19222 -2.31282 0
M  V30 20113 H 1924.58 -3.82857 -3.35109 0
M  V30 20114 H 1923.97 -1.45324 -5.46715 0
M  V30 20115 H 1922.53 -2.04295 -6.18956 0
M  V30 20116 N 1925.96 0.691085 -1.4164 0
M  V30 20117 C 1927.24 1.44595 -1.31726 0
M  V30 20118 C 1927.62 2.11033 0.0530624 0
M  V30 20119 O 1926.97 2.02027 1.06759 0
M  V30 20120 C 1927.18 2.46172 -2.47387 0
M  V30 20121 C 1928.53 3.11293 -2.88759 0
M  V30 20122 O 1929.55 2.56497 -2.47159 0
M  V30 20123 O 1928.41 4.10551 -3.60707 0
M  V30 20124 H 1925.5 0.644163 -0.518635 0
M  V30 20125 H 1928.05 0.721184 -1.53613 0
M  V30 20126 H 1926.82 1.95764 -3.3881 0
M  V30 20127 H 1926.45 3.26151 -2.27401 0
M  V30 20128 N 1927.44 1.27542 0.925789 0
M  V30 20129 C 1928.67 1.1681 1.70772 0
M  V30 20130 C 1929.09 -0.274824 1.86789 0
M  V30 20131 O 1928.44 -1.18694 1.38629 0
M  V30 20132 C 1928.49 1.84904 3.10633 0
M  V30 20133 O 1928.21 3.23559 2.95366 0
M  V30 20134 C 1929.72 1.80322 4.04968 0
M  V30 20135 H 1926.94 0.406036 0.534206 0
M  V30 20136 H 1929.48 1.68448 1.15955 0
M  V30 20137 H 1927.63 1.37166 3.62304 0
M  V30 20138 H 1928.05 3.57488 3.838 0
M  V30 20139 H 1929.52 2.32577 5.00611 0
M  V30 20140 H 1930 0.772975 4.32344 0
M  V30 20141 H 1930.61 2.27683 3.59222 0
M  V30 20142 N 1928.92 -1.13255 1.09595 0
M  V30 20143 C 1930.17 -1.84844 0.83429 0
M  V30 20144 C 1930.5 -1.83403 -0.638518 0
M  V30 20145 O 1929.77 -1.27337 -1.47022 0
M  V30 20146 C 1930.06 -3.32926 1.3723 0
M  V30 20147 C 1929.91 -3.42872 2.91134 0
M  V30 20148 C 1931.23 -4.28413 1.0075 0
M  V30 20149 H 1928.35 -0.671139 0.304534 0
M  V30 20150 H 1930.99 -1.32922 1.35764 0
M  V30 20151 H 1929.14 -3.77275 0.927149 0
M  V30 20152 H 1930.81 -3.07222 3.44111 0
M  V30 20153 H 1929.06 -2.83693 3.28178 0
M  V30 20154 H 1929.73 -4.47013 3.23857 0
M  V30 20155 H 1932.2 -3.92145 1.39146 0
M  V30 20156 H 1931.08 -5.30455 1.41098 0
M  V30 20157 H 1931.34 -4.4202 -0.0841095 0
M  V30 20158 N 1930.4 -0.883401 -1.30514 0
M  V30 20159 C 1931.65 -0.497118 -1.95478 0
M  V30 20160 C 1931.96 0.958235 -1.7052 0
M  V30 20161 O 1933.17 1.45129 -2.29455 0
M  V30 20162 C 1931.62 -0.838108 -3.50005 0
M  V30 20163 C 1931.23 -2.31113 -3.83785 0
M  V30 20164 C 1932.97 -0.520947 -4.21291 0
M  V30 20165 C 1930.88 -2.59383 -5.31483 0
M  V30 20166 H 1929.81 -0.182178 -0.731661 0
M  V30 20167 H 1932.46 -1.07816 -1.48486 0
M  V30 20168 H 1930.84 -0.186171 -3.95562 0
M  V30 20169 H 1932.02 -3.00725 -3.49144 0
M  V30 20170 H 1930.33 -2.59566 -3.25598 0
M  V30 20171 H 1932.93 -0.709216 -5.29976 0
M  V30 20172 H 1933.27 0.539542 -4.12789 0
M  V30 20173 H 1933.81 -1.13001 -3.81413 0
M  V30 20174 H 1930.55 -3.64166 -5.45035 0
M  V30 20175 H 1930.07 -1.94378 -5.6743 0
M  V30 20176 H 1931.74 -2.44803 -5.989 0
M  V30 20177 N 1931.88 1.43833 -0.644194 0
M  V30 20178 C 1932.84 2.29159 0.0433471 0
M  V30 20179 C 1933.84 1.41734 0.75948 0
M  V30 20180 O 1935.03 1.63464 0.602093 0
M  V30 20181 C 1932.16 3.23604 1.07208 0
M  V30 20182 H 1933.35 2.9144 -0.707295 0
M  V30 20183 H 1930.91 1.50963 -0.404968 0
M  V30 20184 H 1931.64 2.66199 1.85226 0
M  V30 20185 H 1931.43 3.88047 0.562339 0
M  V30 20186 H 1932.92 3.87669 1.55251 0
M  V30 20187 N 1933.35 0.385544 1.52811 0
M  V30 20188 C 1934.28 -0.442951 2.2926 0
M  V30 20189 C 1935.27 -1.06674 1.32494 0
M  V30 20190 O 1936.45 -1.08022 1.61384 0
M  V30 20191 C 1933.58 -1.57243 3.09664 0
M  V30 20192 C 1932.53 -1.07488 4.14283 0
M  V30 20193 C 1931.86 -2.29614 4.82889 0
M  V30 20194 C 1933.16 -0.145479 5.22097 0
M  V30 20195 H 1934.85 0.1949 2.98765 0
M  V30 20196 H 1932.4 0.0951762 1.43685 0
M  V30 20197 H 1934.35 -2.15882 3.61902 0
M  V30 20198 H 1933.08 -2.23781 2.37885 0
M  V30 20199 H 1931.74 -0.511047 3.6302 0
M  V30 20200 H 1931.38 -2.94653 4.07662 0
M  V30 20201 H 1931.08 -1.96985 5.53598 0
M  V30 20202 H 1932.61 -2.88902 5.37929 0
M  V30 20203 H 1934.02 -0.639941 5.69717 0
M  V30 20204 H 1932.42 0.0908687 6.00031 0
M  V30 20205 H 1933.49 0.806707 4.78142 0
M  V30 20206 N 1934.83 -1.57178 0.115259 0
M  V30 20207 C 1936.11 -1.86584 -0.587002 0
M  V30 20208 C 1936.49 -1.01576 -1.85055 0
M  V30 20209 O 1935.84 -0.0936485 -2.28308 0
M  V30 20210 C 1936.05 -3.37644 -0.883041 0
M  V30 20211 C 1937.4 -4.06159 -1.23773 0
M  V30 20212 O 1938.42 -3.42641 -0.973422 0
M  V30 20213 O 1937.28 -5.18274 -1.73363 0
M  V30 20214 H 1934.37 -0.772284 -0.295816 0
M  V30 20215 H 1936.92 -1.6904 0.14948 0
M  V30 20216 H 1935.69 -3.91298 0.0125183 0
M  V30 20217 H 1935.31 -3.60605 -1.67481 0
M  V30 20218 N 1936.31 0.158505 -1.56801 0
M  V30 20219 C 1937.27 1.17986 -1.96499 0
M  V30 20220 C 1938.27 1.3649 -0.850127 0
M  V30 20221 O 1939.46 1.33678 -1.11696 0
M  V30 20222 C 1936.6 2.54245 -2.27095 0
M  V30 20223 H 1937.79 0.839577 -2.87908 0
M  V30 20224 H 1935.34 0.401431 -1.51057 0
M  V30 20225 H 1936.08 2.93266 -1.38441 0
M  V30 20226 H 1935.86 2.42179 -3.0837 0
M  V30 20227 H 1937.35 3.27829 -2.58686 0
M  V30 20228 N 1937.79 1.51692 0.427485 0
M  V30 20229 C 1938.72 1.76668 1.52679 0
M  V30 20230 C 1939.7 0.616865 1.58521 0
M  V30 20231 O 1940.89 0.860595 1.7409 0
M  V30 20232 C 1938.02 1.9007 2.90673 0
M  V30 20233 C 1936.97 3.05566 2.99689 0
M  V30 20234 C 1936.3 3.04165 4.39759 0
M  V30 20235 C 1937.6 4.45359 2.72861 0
M  V30 20236 H 1939.29 2.68717 1.32029 0
M  V30 20237 H 1936.84 1.29306 0.633716 0
M  V30 20238 H 1938.79 2.06125 3.67546 0
M  V30 20239 H 1937.51 0.946769 3.12576 0
M  V30 20240 H 1936.17 2.89231 2.25257 0
M  V30 20241 H 1935.82 2.0653 4.58644 0
M  V30 20242 H 1935.52 3.81727 4.46719 0
M  V30 20243 H 1937.04 3.22326 5.18592 0
M  V30 20244 H 1938.46 4.61993 3.39463 0
M  V30 20245 H 1936.85 5.24701 2.91219 0
M  V30 20246 H 1937.92 4.54717 1.68405 0
M  V30 20247 N 1939.27 -0.683564 1.42004 0
M  V30 20248 C 1940.49 -1.47711 1.45589 0
M  V30 20249 C 1940.92 -1.87984 0.0661307 0
M  V30 20250 O 1940.28 -1.55425 -0.933428 0
M  V30 20251 C 1940.32 -2.70824 2.3809 0
M  V30 20252 O 1939.43 -3.68766 1.84622 0
M  V30 20253 H 1938.77 -0.444102 0.493629 0
M  V30 20254 H 1941.3 -0.839192 1.86598 0
M  V30 20255 H 1941.31 -3.18996 2.54373 0
M  V30 20256 H 1939.98 -2.4085 3.39063 0
M  V30 20257 H 1938.56 -3.27756 1.77849 0
M  V30 20258 N 1940.75 -1.28031 -0.919012 0
M  V30 20259 C 1941.71 -1.11534 -2.00232 0
M  V30 20260 C 1942.71 -0.0566233 -1.607 0
M  V30 20261 O 1943.9 -0.30196 -1.71563 0
M  V30 20262 C 1941.03 -0.701371 -3.33607 0
M  V30 20263 H 1942.22 -2.0774 -2.16297 0
M  V30 20264 H 1939.78 -1.10942 -1.10098 0
M  V30 20265 H 1940.51 0.261682 -3.23243 0
M  V30 20266 H 1940.3 -1.4661 -3.63659 0
M  V30 20267 H 1941.79 -0.608444 -4.13144 0
M  V30 20268 N 1942.22 1.12672 -1.10194 0
M  V30 20269 C 1943.45 1.87682 -0.863653 0
M  V30 20270 C 1943.86 1.79789 0.589271 0
M  V30 20271 O 1943.2 1.16801 1.41786 0
M  V30 20272 C 1943.27 3.37794 -1.23028 0
M  V30 20273 C 1942.93 3.69463 -2.68972 0
M  V30 20274 C 1943.93 3.68037 -3.67212 0
M  V30 20275 C 1941.61 3.98875 -3.05294 0
M  V30 20276 C 1943.61 3.95576 -4.99798 0
M  V30 20277 C 1941.29 4.26074 -4.38068 0
M  V30 20278 C 1942.29 4.24411 -5.3513 0
M  V30 20279 O 1941.98 4.50939 -6.65515 0
M  V30 20280 H 1941.71 0.600767 -0.309928 0
M  V30 20281 H 1944.27 1.43504 -1.46955 0
M  V30 20282 H 1942.5 3.82514 -0.567464 0
M  V30 20283 H 1944.18 3.94143 -0.969869 0
M  V30 20284 H 1944.95 3.4538 -3.40496 0
M  V30 20285 H 1940.83 3.99312 -2.30372 0
M  V30 20286 H 1944.37 3.94193 -5.7555 0
M  V30 20287 H 1940.27 4.48204 -4.64525 0
M  V30 20288 H 1941.04 4.68569 -6.71107 0
M  V30 20289 N 1943.7 0.89031 1.30043 0
M  V30 20290 C 1944.95 0.521592 1.96599 0
M  V30 20291 C 1945.3 -0.920162 1.6897 0
M  V30 20292 O 1944.6 -1.64226 0.986941 0
M  V30 20293 C 1944.79 0.739209 3.49672 0
M  V30 20294 C 1944.62 2.20056 3.9218 0
M  V30 20295 C 1943.39 2.84618 4.17517 0
M  V30 20296 C 1945.59 3.17488 4.04605 0
M  V30 20297 N 1943.57 4.21295 4.46525 0
M  V30 20298 C 1944.94 4.39254 4.37557 0
M  V30 20299 C 1946.99 3.13205 3.87049 0
M  V30 20300 C 1945.7 5.57284 4.54782 0
M  V30 20301 C 1947.72 4.30512 4.05479 0
M  V30 20302 C 1947.09 5.51045 4.38781 0
M  V30 20303 H 1943.18 0.240293 0.744166 0
M  V30 20304 H 1945.77 1.14916 1.5717 0
M  V30 20305 H 1943.94 0.141088 3.88144 0
M  V30 20306 H 1945.67 0.33686 4.03296 0
M  V30 20307 H 1942.43 2.35459 4.10921 0
M  V30 20308 H 1942.85 4.91896 4.65153 0
M  V30 20309 H 1947.49 2.21112 3.60374 0
M  V30 20310 H 1945.21 6.49877 4.80298 0
M  V30 20311 H 1948.8 4.28674 3.93358 0
M  V30 20312 H 1947.68 6.40304 4.52747 0
M  V30 20313 N 1945.18 -1.43489 0.651812 0
M  V30 20314 C 1946.43 -2.01049 0.161972 0
M  V30 20315 C 1946.74 -1.52018 -1.23085 0
M  V30 20316 O 1947.95 -2.01842 -1.81583 0
M  V30 20317 C 1946.4 -3.59107 0.238761 0
M  V30 20318 C 1946.01 -4.17131 1.63419 0
M  V30 20319 C 1947.76 -4.24059 -0.193548 0
M  V30 20320 C 1945.66 -5.67479 1.66498 0
M  V30 20321 H 1944.59 -0.751858 0.0567901 0
M  V30 20322 H 1947.24 -1.64475 0.813641 0
M  V30 20323 H 1945.63 -3.93075 -0.48039 0
M  V30 20324 H 1946.8 -3.94665 2.37858 0
M  V30 20325 H 1945.11 -3.64546 2.01235 0
M  V30 20326 H 1947.71 -5.34361 -0.190368 0
M  V30 20327 H 1948.05 -3.97877 -1.22472 0
M  V30 20328 H 1948.59 -3.94968 0.473805 0
M  V30 20329 H 1945.33 -5.98426 2.6752 0
M  V30 20330 H 1944.85 -5.92006 0.963819 0
M  V30 20331 H 1946.53 -6.31492 1.40809 0
M  V30 20332 N 1946.66 -0.393643 -1.52605 0
M  V30 20333 C 1947.62 0.427358 -2.25181 0
M  V30 20334 C 1948.62 0.986595 -1.26976 0
M  V30 20335 O 1949.81 0.867913 -1.51039 0
M  V30 20336 C 1946.94 1.60001 -3.01019 0
M  V30 20337 H 1948.14 -0.208101 -2.99177 0
M  V30 20338 H 1945.69 -0.145844 -1.55618 0
M  V30 20339 H 1946.42 2.27278 -2.31334 0
M  V30 20340 H 1946.21 1.20567 -3.73103 0
M  V30 20341 H 1947.7 2.18115 -3.56112 0
M  V30 20342 N 1948.14 1.57115 -0.123593 0
M  V30 20343 C 1949.36 2.00133 0.544196 0
M  V30 20344 C 1949.79 1.00282 1.59139 0
M  V30 20345 O 1949.14 -0.0248396 1.81283 0
M  V30 20346 C 1949.19 3.4201 1.14287 0
M  V30 20347 O 1948.3 3.45071 2.25832 0
M  V30 20348 H 1947.64 0.650029 0.135492 0
M  V30 20349 H 1950.17 2.03484 -0.213423 0
M  V30 20350 H 1950.18 3.80316 1.47728 0
M  V30 20351 H 1948.85 4.14198 0.375866 0
M  V30 20352 H 1947.43 3.18587 1.93795 0
M  V30 20353 N 1949.61 -0.150187 1.56883 0
M  V30 20354 C 1950.56 -1.19064 1.94442 0
M  V30 20355 C 1951.55 -1.38715 0.815284 0
M  V30 20356 O 1952.74 -1.40331 1.07871 0
M  V30 20357 C 1949.87 -2.52506 2.32585 0
M  V30 20358 C 1948.95 -2.3646 3.52062 0
M  V30 20359 N 1949.35 -1.90165 4.68691 0
M  V30 20360 C 1947.64 -2.67222 3.57083 0
M  V30 20361 C 1948.34 -1.87087 5.50793 0
M  V30 20362 N 1947.32 -2.30281 4.92414 0
M  V30 20363 H 1951.12 -0.824746 2.82091 0
M  V30 20364 H 1948.64 -0.358273 1.58399 0
M  V30 20365 H 1950.63 -3.27717 2.57696 0
M  V30 20366 H 1949.29 -2.8988 1.46286 0
M  V30 20367 H 1950.3 -1.60179 4.92507 0
M  V30 20368 H 1946.98 -3.08492 2.81316 0
M  V30 20369 H 1948.37 -1.52813 6.54292 0
M  V30 20370 N 1951.09 -1.51916 -0.419434 0
M  V30 20371 C 1952.32 -1.69302 -1.1893 0
M  V30 20372 C 1952.74 -0.398024 -1.84557 0
M  V30 20373 O 1952.09 0.625083 -1.71461 0
M  V30 20374 C 1952.14 -2.82139 -2.26009 0
M  V30 20375 O 1951.86 -4.06623 -1.63064 0
M  V30 20376 C 1953.37 -3.10947 -3.15954 0
M  V30 20377 H 1950.59 -0.567657 -0.357781 0
M  V30 20378 H 1953.13 -1.98424 -0.494807 0
M  V30 20379 H 1951.28 -2.55565 -2.91144 0
M  V30 20380 H 1951.7 -4.69423 -2.33971 0
M  V30 20381 H 1953.17 -3.93438 -3.87183 0
M  V30 20382 H 1953.65 -2.24078 -3.77738 0
M  V30 20383 H 1954.26 -3.39246 -2.56499 0
M  V30 20384 N 1952.57 0.676023 -1.42365 0
M  V30 20385 C 1953.8 1.46436 -1.46164 0
M  V30 20386 C 1954.21 1.8866 -0.0726092 0
M  V30 20387 O 1953.57 1.58056 0.912395 0
M  V30 20388 C 1953.62 2.71428 -2.38766 0
M  V30 20389 O 1953.34 2.30976 -3.72266 0
M  V30 20390 C 1954.84 3.65001 -2.51573 0
M  V30 20391 H 1952.06 0.450625 -0.49717 0
M  V30 20392 H 1954.61 0.830748 -1.86866 0
M  V30 20393 H 1952.76 3.30981 -2.01321 0
M  V30 20394 H 1953.18 3.11682 -4.21846 0
M  V30 20395 H 1954.65 4.49432 -3.20492 0
M  V30 20396 H 1955.13 4.10818 -1.55322 0
M  V30 20397 H 1955.73 3.11342 -2.89735 0
M  V30 20398 N 1954.05 1.28517 0.912209 0
M  V30 20399 C 1954.96 1.14429 2.048 0
M  V30 20400 C 1955.97 0.0704926 1.73857 0
M  V30 20401 O 1957.15 0.280091 1.99443 0
M  V30 20402 C 1954.22 0.809034 3.37128 0
M  V30 20403 C 1953.28 1.96535 3.8167 0
M  V30 20404 C 1952.51 1.646 5.07684 0
M  V30 20405 O 1952.73 0.561072 5.67634 0
M  V30 20406 O 1951.67 2.49011 5.47975 0
M  V30 20407 H 1955.49 2.0978 2.19604 0
M  V30 20408 H 1953.08 1.0785 1.03387 0
M  V30 20409 H 1954.96 0.636082 4.16572 0
M  V30 20410 H 1953.63 -0.114812 3.23496 0
M  V30 20411 H 1952.54 2.19347 3.03047 0
M  V30 20412 H 1953.87 2.86996 3.99868 0
M  V30 20413 N 1955.53 -1.12086 1.1079 0
M  V30 20414 C 1956.44 -2.21514 0.772578 0
M  V30 20415 C 1957.45 -1.72454 -0.231462 0
M  V30 20416 O 1958.63 -2.01281 -0.0693074 0
M  V30 20417 C 1955.69 -3.46043 0.213364 0
M  V30 20418 C 1954.75 -4.09925 1.27515 0
M  V30 20419 C 1953.99 -5.28509 0.742524 0
M  V30 20420 O 1954.21 -5.68779 -0.429786 0
M  V30 20421 O 1953.14 -5.82802 1.50417 0
M  V30 20422 H 1956.97 -2.52596 1.68608 0
M  V30 20423 H 1954.56 -1.20492 0.883294 0
M  V30 20424 H 1956.44 -4.21294 -0.0944683 0
M  V30 20425 H 1955.11 -3.16628 -0.672947 0
M  V30 20426 H 1954.02 -3.36436 1.63589 0
M  V30 20427 H 1955.35 -4.43504 2.13461 0
M  V30 20428 N 1957 -0.897194 -1.29569 0
M  V30 20429 C 1958.42 -0.592933 -1.48177 0
M  V30 20430 C 1958.62 0.866214 -1.81931 0
M  V30 20431 O 1957.68 1.64658 -1.91427 0
M  V30 20432 C 1958.99 -1.5166 -2.59653 0
M  V30 20433 C 1960.54 -1.52153 -2.73529 0
M  V30 20434 C 1961.01 -2.43142 -3.88131 0
M  V30 20435 N 1962.5 -2.41175 -3.9546 0
M  V30 20436 C 1963.24 -3.08283 -4.83476 0
M  V30 20437 N 1962.73 -3.84662 -5.76201 0
M  V30 20438 N 1964.53 -2.97453 -4.76946 0
M  V30 20439 H 1956.68 -1.84096 -1.05935 0
M  V30 20440 H 1958.94 -0.788701 -0.52598 0
M  V30 20441 H 1958.65 -2.55612 -2.41569 0
M  V30 20442 H 1958.52 -1.23526 -3.564 0
M  V30 20443 H 1960.91 -0.489472 -2.91012 0
M  V30 20444 H 1960.99 -1.84324 -1.77365 0
M  V30 20445 H 1960.63 -3.46441 -3.71404 0
M  V30 20446 H 1960.56 -2.08282 -4.83659 0
M  V30 20447 H 1963.05 -1.8568 -3.29137 0
M  V30 20448 H 1963.37 -4.32929 -6.4015 0
M  V30 20449 H 1961.71 -3.88769 -5.76094 0
M  V30 20450 H 1964.9 -2.37301 -4.03492 0
M  V30 20451 H 1965.08 -3.50029 -5.45329 0
M  V30 20452 N 1958.48 1.43142 -0.659413 0
M  V30 20453 C 1959.73 2.01341 -0.174987 0
M  V30 20454 C 1960.05 1.52322 1.21749 0
M  V30 20455 O 1959.32 0.738424 1.8145 0
M  V30 20456 H 1957.9 0.744447 -0.0617013 0
M  V30 20457 H 1960.56 1.75268 -0.852471 0
M  V30 20458 H 1959.66 3.11667 -0.164379 0
M  V30 20459 N 1959.96 0.40173 1.52394 0
M  V30 20460 C 1960.89 -0.41861 2.29717 0
M  V30 20461 C 1961.87 -1.05263 1.33618 0
M  V30 20462 O 1963.06 -1.06304 1.62521 0
M  V30 20463 C 1960.19 -1.5395 3.11314 0
M  V30 20464 C 1959.14 -1.03088 4.154 0
M  V30 20465 C 1958.47 -2.2448 4.85297 0
M  V30 20466 C 1959.77 -0.0900956 5.22222 0
M  V30 20467 H 1961.46 0.226577 2.98541 0
M  V30 20468 H 1959.01 0.110411 1.43576 0
M  V30 20469 H 1960.96 -2.12031 3.64171 0
M  V30 20470 H 1959.68 -2.21246 2.40246 0
M  V30 20471 H 1958.34 -0.472515 3.63542 0
M  V30 20472 H 1957.99 -2.90313 4.10764 0
M  V30 20473 H 1957.69 -1.91103 5.55656 0
M  V30 20474 H 1959.21 -2.83181 5.40963 0
M  V30 20475 H 1960.63 -0.579479 5.70364 0
M  V30 20476 H 1959.03 0.154505 5.99901 0
M  V30 20477 H 1960.1 0.857375 4.7726 0
M  V30 20478 N 1961.44 -1.57047 0.131923 0
M  V30 20479 C 1962.39 -2.17261 -0.830686 0
M  V30 20480 C 1963.38 -1.12538 -1.26616 0
M  V30 20481 O 1964.59 -1.30818 -1.23639 0
M  V30 20482 H 1960.96 -0.695476 -0.286037 0
M  V30 20483 H 1962.93 -2.96903 -0.29848 0
M  V30 20484 C 1961.68 -2.79677 -2.06582 0
M  V30 20485 H 1961 -3.59965 -1.73969 0
M  V30 20486 H 1962.44 -3.2533 -2.71912 0
M  V30 20487 C 1960.9 -1.77413 -2.86402 0
M  V30 20488 O 1961.43 -1.23537 -3.82232 0
M  V30 20489 N 1959.64 -1.47059 -2.50643 0
M  V30 20490 H 1959.19 -1.91062 -1.7278 0
M  V30 20491 H 1959.14 -0.788806 -3.04344 0
M  V30 20492 N 1962.92 0.141865 -1.5696 0
M  V30 20493 C 1964.16 0.854874 -1.83901 0
M  V30 20494 C 1964.5 1.80586 -0.714297 0
M  V30 20495 O 1963.77 1.92449 0.281695 0
M  V30 20496 C 1964.05 1.62486 -3.21357 0
M  V30 20497 C 1963.91 0.695015 -4.44398 0
M  V30 20498 C 1965.23 2.5862 -3.56095 0
M  V30 20499 H 1962.34 0.309334 -0.66894 0
M  V30 20500 H 1964.99 0.119882 -1.89621 0
M  V30 20501 H 1963.14 2.25143 -3.16612 0
M  V30 20502 H 1964.81 0.0790536 -4.61232 0
M  V30 20503 H 1963.05 0.00493655 -4.338 0
M  V30 20504 H 1963.72 1.26992 -5.37194 0
M  V30 20505 H 1966.2 2.06079 -3.61484 0
M  V30 20506 H 1965.07 3.09542 -4.53294 0
M  V30 20507 H 1965.34 3.40219 -2.82319 0
M  V30 20508 N 1964.39 1.52136 0.411372 0
M  V30 20509 C 1965.62 1.6993 1.18031 0
M  V30 20510 C 1966.04 0.407806 1.84343 0
M  V30 20511 O 1965.39 -0.615981 1.7179 0
M  V30 20512 C 1965.45 2.83333 2.2451 0
M  V30 20513 O 1965.17 4.07482 1.60905 0
M  V30 20514 C 1966.67 3.12618 3.143 0
M  V30 20515 H 1963.89 0.569546 0.354765 0
M  V30 20516 H 1966.43 1.98683 0.484277 0
M  V30 20517 H 1964.59 2.57106 2.89785 0
M  V30 20518 H 1965 4.70657 2.31478 0
M  V30 20519 H 1966.47 3.95486 3.85091 0
M  V30 20520 H 1966.95 2.26078 3.76544 0
M  V30 20521 H 1967.56 3.40602 2.54697 0
M  V30 20522 N 1965.87 -0.668464 1.42721 0
M  V30 20523 C 1966.8 -1.79375 1.49489 0
M  V30 20524 C 1967.78 -1.66442 0.350881 0
M  V30 20525 O 1968.97 -1.85767 0.566049 0
M  V30 20526 C 1966.1 -3.17712 1.40273 0
M  V30 20527 C 1965.05 -3.45389 2.52766 0
M  V30 20528 C 1964.38 -4.83367 2.28606 0
M  V30 20529 C 1965.68 -3.4165 3.95061 0
M  V30 20530 H 1967.37 -1.73968 2.43671 0
M  V30 20531 H 1964.92 -0.835548 1.1728 0
M  V30 20532 H 1966.87 -3.96173 1.43614 0
M  V30 20533 H 1965.6 -3.23811 0.425882 0
M  V30 20534 H 1964.26 -2.69292 2.48752 0
M  V30 20535 H 1963.9 -4.86124 1.292 0
M  V30 20536 H 1963.6 -5.02847 3.04005 0
M  V30 20537 H 1965.13 -5.64104 2.33707 0
M  V30 20538 H 1966.54 -4.1007 4.00644 0
M  V30 20539 H 1964.94 -3.72666 4.70362 0
M  V30 20540 H 1966.01 -2.40106 4.2128 0
M  V30 20541 N 1967.35 -1.28999 -0.905381 0
M  V30 20542 C 1968.58 -1.19632 -1.69419 0
M  V30 20543 C 1969 0.240433 -1.86557 0
M  V30 20544 O 1968.36 1.17374 -1.38177 0
M  V30 20545 C 1968.41 -1.90881 -3.05936 0
M  V30 20546 O 1967.51 -1.22198 -3.9388 0
M  V30 20547 H 1966.85 -0.414842 -0.518461 0
M  V30 20548 H 1969.38 -1.70468 -1.13145 0
M  V30 20549 H 1969.39 -1.99115 -3.56114 0
M  V30 20550 H 1968.07 -2.95385 -2.9278 0
M  V30 20551 H 1966.64 -1.22185 -3.52314 0
M  V30 20552 N 1968.83 1.11497 -1.11383 0
M  V30 20553 C 1970.05 1.87567 -0.885056 0
M  V30 20554 C 1970.48 1.79581 0.559675 0
M  V30 20555 O 1969.84 1.15779 1.39517 0
M  V30 20556 C 1969.89 3.34354 -1.35053 0
M  V30 20557 O 1968.99 4.09085 -0.521865 0
M  V30 20558 H 1968.33 0.582433 -0.318853 0
M  V30 20559 H 1970.86 1.4094 -1.48314 0
M  V30 20560 H 1970.87 3.85201 -1.34478 0
M  V30 20561 H 1969.55 3.39484 -2.40257 0
M  V30 20562 H 1968.12 3.68144 -0.593669 0
M  V30 20563 N 1970.31 0.904053 1.29092 0
M  V30 20564 C 1971.54 0.547758 1.99517 0
M  V30 20565 C 1971.95 -0.868589 1.67633 0
M  V30 20566 O 1971.31 -1.57394 0.923758 0
M  V30 20567 C 1971.36 0.735683 3.53935 0
M  V30 20568 O 1971.08 2.09629 3.84691 0
M  V30 20569 C 1972.58 0.38492 4.41626 0
M  V30 20570 H 1969.8 0.209762 0.63737 0
M  V30 20571 H 1972.34 1.2146 1.64523 0
M  V30 20572 H 1970.5 0.11597 3.87226 0
M  V30 20573 H 1970.91 2.12883 4.79355 0
M  V30 20574 H 1972.39 0.567226 5.49078 0
M  V30 20575 H 1972.86 -0.678298 4.33931 0
M  V30 20576 H 1973.47 0.981759 4.13813 0
M  V30 20577 N 1971.79 -1.4279 0.666995 0
M  V30 20578 C 1973.03 -2.01245 0.185662 0
M  V30 20579 C 1973.35 -1.52966 -1.2094 0
M  V30 20580 O 1972.62 -0.748036 -1.81056 0
M  V30 20581 H 1971.2 -0.74411 0.0656484 0
M  V30 20582 H 1973.87 -1.74814 0.861754 0
M  V30 20583 H 1972.96 -3.11575 0.180905 0
M  V30 20584 N 1973.26 -0.409806 -1.52179 0
M  V30 20585 C 1974.68 -0.0607174 -1.59484 0
M  V30 20586 C 1974.88 1.42703 -1.42261 0
M  V30 20587 O 1973.94 2.19394 -1.24991 0
M  V30 20588 C 1975.25 -0.556238 -2.95511 0
M  V30 20589 C 1976.8 -0.514272 -3.08746 0
M  V30 20590 C 1977.27 -0.986314 -4.47254 0
M  V30 20591 N 1978.76 -0.943162 -4.53496 0
M  V30 20592 C 1979.5 -1.27959 -5.5894 0
M  V30 20593 N 1978.99 -1.6875 -6.71934 0
M  V30 20594 N 1980.79 -1.19951 -5.49152 0
M  V30 20595 H 1972.94 -1.37813 -1.61621 0
M  V30 20596 H 1975.2 -0.566181 -0.760357 0
M  V30 20597 H 1974.91 -1.5961 -3.13397 0
M  V30 20598 H 1974.78 0.033749 -3.77185 0
M  V30 20599 H 1977.17 0.516546 -2.90544 0
M  V30 20600 H 1977.25 -1.14032 -2.28977 0
M  V30 20601 H 1976.89 -2.01546 -4.66199 0
M  V30 20602 H 1976.82 -0.337071 -5.2552 0
M  V30 20603 H 1979.31 -0.64326 -3.72385 0
M  V30 20604 H 1979.63 -1.9273 -7.48381 0
M  V30 20605 H 1977.97 -1.72654 -6.73213 0
M  V30 20606 H 1981.16 -0.879693 -4.5976 0
M  V30 20607 H 1981.34 -1.465 -6.31222 0
M  V30 20608 N 1974.74 1.56975 -0.14025 0
M  V30 20609 C 1975.69 2.17699 0.819153 0
M  V30 20610 C 1976.68 1.13208 1.26017 0
M  V30 20611 O 1977.89 1.31472 1.22944 0
M  V30 20612 H 1974.26 0.696983 0.282345 0
M  V30 20613 H 1976.24 2.97058 0.28273 0
M  V30 20614 C 1974.98 2.80769 2.05096 0
M  V30 20615 H 1974.31 3.60882 1.72058 0
M  V30 20616 H 1975.75 3.26768 2.70183 0
M  V30 20617 C 1974.21 1.7893 2.85457 0
M  V30 20618 O 1974.74 1.25562 3.81572 0
M  V30 20619 N 1972.94 1.48386 2.4986 0
M  V30 20620 H 1972.49 1.91976 1.71765 0
M  V30 20621 H 1972.45 0.804935 3.03921 0
M  V30 20622 N 1976.22 -0.133539 1.57033 0
M  V30 20623 C 1977.47 -0.842192 1.83716 0
M  V30 20624 C 1977.79 -1.81092 0.723225 0
M  V30 20625 O 1977.06 -1.94246 -0.254028 0
M  V30 20626 H 1975.64 -0.314004 0.677798 0
M  V30 20627 H 1978.3 -0.124329 1.94503 0
M  V30 20628 H 1977.4 -1.39628 2.79125 0
M  V30 20629 N 1977.7 -1.52352 -0.403298 0
M  V30 20630 C 1978.94 -1.66697 -1.14971 0
M  V30 20631 C 1979.27 -0.39978 -1.90347 0
M  V30 20632 O 1978.53 0.617431 -1.85705 0
M  V30 20633 C 1978.83 -2.84352 -2.16515 0
M  V30 20634 C 1978.49 -4.22348 -1.57903 0
M  V30 20635 C 1977.15 -4.59881 -1.41643 0
M  V30 20636 C 1979.51 -5.0832 -1.15154 0
M  V30 20637 C 1976.83 -5.81059 -0.811602 0
M  V30 20638 C 1979.19 -6.30109 -0.560875 0
M  V30 20639 C 1977.85 -6.66386 -0.385456 0
M  V30 20640 H 1977.12 -0.609988 -0.420708 0
M  V30 20641 H 1979.77 -1.86467 -0.436164 0
M  V30 20642 H 1978.07 -2.58941 -2.94036 0
M  V30 20643 H 1979.77 -2.92647 -2.74151 0
M  V30 20644 H 1976.36 -3.92774 -1.71543 0
M  V30 20645 H 1980.54 -4.79902 -1.26523 0
M  V30 20646 H 1975.8 -6.07786 -0.66376 0
M  V30 20647 H 1979.97 -6.96048 -0.221267 0
M  V30 20648 H 1977.6 -7.60152 0.0853049 0
M  V30 20649 N 1979.18 0.660885 -1.43074 0
M  V30 20650 C 1980.12 1.77404 -1.47637 0
M  V30 20651 C 1981.09 1.62852 -0.326854 0
M  V30 20652 O 1982.28 1.83206 -0.532921 0
M  V30 20653 C 1979.42 3.15517 -1.39796 0
M  V30 20654 C 1978.53 3.41257 -2.64892 0
M  V30 20655 C 1977.67 4.69176 -2.49093 0
M  V30 20656 C 1976.7 4.87995 -3.69496 0
M  V30 20657 N 1975.84 6.07166 -3.52554 0
M  V30 20658 H 1980.68 1.72838 -2.42757 0
M  V30 20659 H 1978.22 0.843558 -1.20509 0
M  V30 20660 H 1980.18 3.9535 -1.33245 0
M  V30 20661 H 1978.81 3.19172 -0.482623 0
M  V30 20662 H 1977.86 2.55577 -2.81753 0
M  V30 20663 H 1979.17 3.51052 -3.5435 0
M  V30 20664 H 1978.32 5.57122 -2.40207 0
M  V30 20665 H 1977.06 4.61688 -1.57147 0
M  V30 20666 H 1976.07 3.98487 -3.78799 0
M  V30 20667 H 1977.29 4.97318 -4.62441 0
M  V30 20668 H 1975.24 6.00825 -2.63336 0
M  V30 20669 H 1975.16 6.17884 -4.35609 0
M  V30 20670 H 1976.42 6.97754 -3.47506 0
M  V30 20671 N 1980.65 1.29477 0.898527 0
M  V30 20672 C 1981.88 1.20529 1.68783 0
M  V30 20673 C 1982.3 -0.230536 1.86682 0
M  V30 20674 O 1981.66 -1.1664 1.38798 0
M  V30 20675 C 1981.71 1.92501 3.04919 0
M  V30 20676 O 1980.81 1.24286 3.93226 0
M  V30 20677 H 1980.16 0.417586 0.516254 0
M  V30 20678 H 1982.69 1.71066 1.1224 0
M  V30 20679 H 1982.7 2.01001 3.55053 0
M  V30 20680 H 1981.37 2.96934 2.9121 0
M  V30 20681 H 1979.95 1.24052 3.51661 0
M  V30 20682 N 1982.13 -1.10905 1.11972 0
M  V30 20683 C 1983.08 -2.15236 0.752149 0
M  V30 20684 C 1984.07 -1.59 -0.246511 0
M  V30 20685 O 1985.26 -1.76921 -0.0527613 0
M  V30 20686 C 1982.39 -3.42699 0.20307 0
M  V30 20687 C 1981.47 -4.0588 1.22973 0
M  V30 20688 N 1981.86 -4.43836 2.42576 0
M  V30 20689 C 1980.16 -4.32877 1.07395 0
M  V30 20690 C 1980.86 -4.93408 3.08097 0
M  V30 20691 N 1979.84 -4.89911 2.35559 0
M  V30 20692 H 1983.64 -2.42369 1.66236 0
M  V30 20693 H 1981.16 -1.27977 0.999785 0
M  V30 20694 H 1983.15 -4.16826 -0.0784271 0
M  V30 20695 H 1981.81 -3.17028 -0.70166 0
M  V30 20696 H 1982.82 -4.35688 2.79993 0
M  V30 20697 H 1979.5 -4.16887 0.22612 0
M  V30 20698 H 1980.89 -5.32363 4.09926 0
M  V30 20699 N 1983.61 -0.910886 -1.2861 0
M  V30 20700 C 1984.57 -0.401862 -2.2565 0
M  V30 20701 C 1985.57 0.470212 -1.53771 0
M  V30 20702 O 1986.76 0.273674 -1.72037 0
M  V30 20703 C 1983.9 0.424193 -3.38251 0
M  V30 20704 H 1985.09 -1.25903 -2.72192 0
M  V30 20705 H 1982.64 -0.690027 -1.40244 0
M  V30 20706 H 1983.38 1.30088 -2.97065 0
M  V30 20707 H 1983.16 -0.200837 -3.91585 0
M  V30 20708 H 1984.65 0.771267 -4.10416 0
M  V30 20709 N 1985.09 1.42434 -0.674558 0
M  V30 20710 C 1986.02 2.33498 -0.0100395 0
M  V30 20711 C 1987 1.50665 0.789558 0
M  V30 20712 O 1988.18 1.79268 0.74676 0
M  V30 20713 C 1985.31 3.34279 0.942081 0
M  V30 20714 C 1984.27 4.27263 0.251094 0
M  V30 20715 C 1983.59 5.18249 1.31614 0
M  V30 20716 C 1984.89 5.15008 -0.869735 0
M  V30 20717 H 1986.59 2.89314 -0.770566 0
M  V30 20718 H 1984.13 1.39112 -0.372004 0
M  V30 20719 H 1986.09 3.96896 1.41604 0
M  V30 20720 H 1984.81 2.76765 1.73403 0
M  V30 20721 H 1983.47 3.6604 -0.202625 0
M  V30 20722 H 1983.12 4.57063 2.10006 0
M  V30 20723 H 1982.82 5.81288 0.858923 0
M  V30 20724 H 1984.34 5.83742 1.79103 0
M  V30 20725 H 1985.76 5.71312 -0.477004 0
M  V30 20726 H 1984.15 5.86879 -1.25273 0
M  V30 20727 H 1985.22 4.53422 -1.71861 0
M  V30 20728 N 1986.57 0.417871 1.51959 0
M  V30 20729 C 1987.5 -0.438814 2.2496 0
M  V30 20730 C 1988.51 -1.00283 1.28246 0
M  V30 20731 O 1989.7 -0.900288 1.54133 0
M  V30 20732 C 1986.8 -1.62371 2.97471 0
M  V30 20733 C 1985.97 -1.18204 4.21125 0
M  V30 20734 C 1985.03 -2.23484 4.76384 0
M  V30 20735 O 1984.06 -1.83715 5.38737 0
M  V30 20736 N 1985.26 -3.55751 4.58717 0
M  V30 20737 H 1988.03 0.18676 2.99118 0
M  V30 20738 H 1985.59 0.245711 1.60025 0
M  V30 20739 H 1987.58 -2.32385 3.3133 0
M  V30 20740 H 1986.15 -2.15503 2.26445 0
M  V30 20741 H 1985.37 -0.309696 3.92982 0
M  V30 20742 H 1986.66 -0.86403 5.0141 0
M  V30 20743 H 1986.05 -3.90806 4.09008 0
M  V30 20744 H 1984.61 -4.21715 4.96991 0
M  V30 20745 N 1988.04 -1.56898 0.148573 0
M  V30 20746 C 1988.97 -2.19852 -0.786585 0
M  V30 20747 C 1989.96 -1.14723 -1.2559 0
M  V30 20748 O 1991.14 -1.43071 -1.31317 0
M  V30 20749 C 1988.27 -2.82137 -2.02524 0
M  V30 20750 C 1987.22 -3.93108 -1.69264 0
M  V30 20751 C 1986.55 -4.42335 -3.00407 0
M  V30 20752 C 1987.85 -5.13807 -0.938092 0
M  V30 20753 H 1989.54 -2.98252 -0.261903 0
M  V30 20754 H 1987.09 -1.43461 -0.124531 0
M  V30 20755 H 1989.04 -3.24845 -2.68428 0
M  V30 20756 H 1987.77 -2.01071 -2.57368 0
M  V30 20757 H 1986.43 -3.5102 -1.05739 0
M  V30 20758 H 1986.07 -3.58089 -3.53244 0
M  V30 20759 H 1985.77 -5.17185 -2.78915 0
M  V30 20760 H 1987.3 -4.87714 -3.67378 0
M  V30 20761 H 1988.71 -5.53349 -1.49924 0
M  V30 20762 H 1987.11 -5.94429 -0.823062 0
M  V30 20763 H 1988.18 -4.8485 0.0698825 0
M  V30 20764 N 1989.52 0.125209 -1.57102 0
M  V30 20765 C 1990.47 1.17292 -2.00861 0
M  V30 20766 C 1991.46 1.4323 -0.904511 0
M  V30 20767 O 1992.67 1.43266 -1.08972 0
M  V30 20768 H 1989.05 0.395322 -0.639706 0
M  V30 20769 H 1991.02 0.777307 -2.88098 0
M  V30 20770 C 1989.77 2.49311 -2.42362 0
M  V30 20771 H 1989.09 2.30188 -3.26884 0
M  V30 20772 H 1990.53 3.21196 -2.76784 0
M  V30 20773 C 1988.99 3.1144 -1.2848 0
M  V30 20774 O 1989.52 3.97233 -0.597373 0
M  V30 20775 N 1987.72 2.71221 -1.04344 0
M  V30 20776 H 1987.27 2.0155 -1.60423 0
M  V30 20777 H 1987.23 3.1312 -0.283408 0
M  V30 20778 N 1991 1.52564 0.395213 0
M  V30 20779 C 1991.95 1.77531 1.50285 0
M  V30 20780 C 1992.94 0.642976 1.56723 0
M  V30 20781 O 1994.15 0.825323 1.59964 0
M  V30 20782 H 1990.52 0.561636 0.500069 0
M  V30 20783 H 1992.49 2.70298 1.26418 0
M  V30 20784 C 1991.24 1.95557 2.87494 0
M  V30 20785 H 1990.57 2.82114 2.83288 0
M  V30 20786 H 1992.01 2.17019 3.64251 0
M  V30 20787 C 1990.47 0.726406 3.28976 0
M  V30 20788 O 1991 -0.0991246 4.01578 0
M  V30 20789 N 1989.2 0.558299 2.85187 0
M  V30 20790 H 1988.75 1.2312 2.26272 0
M  V30 20791 H 1988.71 -0.262779 3.133 0
M  V30 20792 N 1992.48 -0.653289 1.43422 0
M  V30 20793 C 1993.89 -0.968948 1.26821 0
M  V30 20794 C 1994.09 -2.00622 0.187882 0
M  V30 20795 O 1993.15 -2.48747 -0.43371 0
M  V30 20796 C 1994.46 -1.45328 2.63249 0
M  V30 20797 C 1996.01 -1.56993 2.70781 0
M  V30 20798 C 1996.49 -2.08817 4.07627 0
M  V30 20799 N 1997.98 -2.16119 4.09691 0
M  V30 20800 C 1998.71 -2.5734 5.1241 0
M  V30 20801 N 1998.21 -2.97858 6.25502 0
M  V30 20802 N 2000 -2.57279 4.99764 0
M  V30 20803 H 1992.15 0.0330932 2.12374 0
M  V30 20804 H 1994.42 -0.0477768 0.946795 0
M  V30 20805 H 1994.12 -0.765519 3.43268 0
M  V30 20806 H 1994 -2.42831 2.8864 0
M  V30 20807 H 1996.38 -2.24871 1.91095 0
M  V30 20808 H 1996.46 -0.579228 2.49156 0
M  V30 20809 H 1996.11 -1.41541 4.87779 0
M  V30 20810 H 1996.04 -3.08718 4.26616 0
M  V30 20811 H 1998.53 -1.8758 3.28058 0
M  V30 20812 H 1998.84 -3.2806 6.99712 0
M  V30 20813 H 1997.19 -2.95662 6.28974 0
M  V30 20814 H 2000.38 -2.25002 4.10478 0
M  V30 20815 H 2000.55 -2.89082 5.79944 0
M  V30 20816 N 1993.96 -1.29952 -0.891648 0
M  V30 20817 C 1994.89 -1.11577 -2.00208 0
M  V30 20818 C 1995.9 -0.0609281 -1.62686 0
M  V30 20819 O 1997.09 -0.306271 -1.75853 0
M  V30 20820 C 1994.19 -0.678052 -3.32048 0
M  V30 20821 C 1993.36 -1.81318 -3.98048 0
M  V30 20822 C 1992.42 -1.36513 -5.08184 0
M  V30 20823 O 1991.45 -2.07122 -5.30178 0
M  V30 20824 N 1992.65 -0.240455 -5.80002 0
M  V30 20825 H 1995.42 -2.07214 -2.16523 0
M  V30 20826 H 1992.98 -1.21998 -1.06433 0
M  V30 20827 H 1994.97 -0.361457 -4.03083 0
M  V30 20828 H 1993.54 0.186094 -3.12046 0
M  V30 20829 H 1992.76 -2.29824 -3.20272 0
M  V30 20830 H 1994.05 -2.57406 -4.38885 0
M  V30 20831 H 1993.44 0.34806 -5.64628 0
M  V30 20832 H 1992 0.016726 -6.51798 0
M  V30 20833 N 1995.44 1.1031 -1.12559 0
M  V30 20834 C 1996.68 1.81665 -0.876399 0
M  V30 20835 C 1997 1.86186 0.599506 0
M  V30 20836 O 1998.2 2.53759 0.965337 0
M  V30 20837 C 1996.66 3.26308 -1.51826 0
M  V30 20838 C 1996.27 3.30081 -3.02904 0
M  V30 20839 C 1998.01 4.02482 -1.34939 0
M  V30 20840 C 1995.92 4.69192 -3.60018 0
M  V30 20841 H 1994.85 0.680734 -0.324218 0
M  V30 20842 H 1997.5 1.24044 -1.35223 0
M  V30 20843 H 1995.88 3.83934 -0.970087 0
M  V30 20844 H 1997.06 2.82272 -3.64224 0
M  V30 20845 H 1995.37 2.67393 -3.19202 0
M  V30 20846 H 1997.97 5.05241 -1.7503 0
M  V30 20847 H 1998.31 4.15266 -0.293208 0
M  V30 20848 H 1998.84 3.51274 -1.86685 0
M  V30 20849 H 1995.58 4.61608 -4.65401 0
M  V30 20850 H 1995.1 5.17363 -3.03473 0
M  V30 20851 H 1996.78 5.38161 -3.59153 0
M  V30 20852 N 1996.91 0.917694 1.28125 0
M  V30 20853 C 1998.33 0.616431 1.47215 0
M  V30 20854 C 1998.53 -0.837161 1.83286 0
M  V30 20855 O 1997.59 -1.61591 1.94022 0
M  V30 20856 C 1998.9 1.55772 2.57207 0
M  V30 20857 C 2000.45 1.56486 2.71074 0
M  V30 20858 C 2000.92 2.49286 3.84214 0
M  V30 20859 N 2002.41 2.47436 3.91573 0
M  V30 20860 C 2003.15 3.15936 4.7851 0
M  V30 20861 N 2002.64 3.9378 5.70008 0
M  V30 20862 N 2004.44 3.05004 4.72154 0
M  V30 20863 H 1996.59 1.85758 1.02993 0
M  V30 20864 H 1998.85 0.796969 0.513366 0
M  V30 20865 H 1998.56 2.59423 2.37471 0
M  V30 20866 H 1998.43 1.2918 3.5439 0
M  V30 20867 H 2000.82 0.535708 2.90197 0
M  V30 20868 H 2000.9 1.87122 1.7441 0
M  V30 20869 H 2000.54 3.52306 3.65846 0
M  V30 20870 H 2000.47 2.1595 4.80284 0
M  V30 20871 H 2002.96 1.90893 3.26141 0
M  V30 20872 H 2003.28 4.43058 6.33182 0
M  V30 20873 H 2001.62 3.97885 5.69836 0
M  V30 20874 H 2004.81 2.4369 3.99666 0
M  V30 20875 H 2004.99 3.5866 5.39691 0
M  V30 20876 N 1998.39 -1.42074 0.682102 0
M  V30 20877 C 1999.64 -2.01037 0.206997 0
M  V30 20878 C 1999.96 -1.5424 -1.19311 0
M  V30 20879 O 1999.23 -0.767197 -1.80252 0
M  V30 20880 H 1997.81 -0.743372 0.073537 0
M  V30 20881 H 2000.47 -1.7389 0.880247 0
M  V30 20882 H 1999.57 -3.11366 0.213942 0
M  V30 20883 N 1999.87 -0.425924 -1.51735 0
M  V30 20884 C 2000.8 0.382011 -2.30354 0
M  V30 20885 C 2001.78 1.03124 -1.35276 0
M  V30 20886 O 2002.97 1.03705 -1.64191 0
M  V30 20887 C 2000.1 1.48978 -3.13724 0
M  V30 20888 C 1999.05 0.964659 -4.16987 0
M  V30 20889 C 1998.38 2.1673 -4.88807 0
M  V30 20890 C 1999.68 0.00700314 -5.223 0
M  V30 20891 H 2001.37 -0.274043 -2.98143 0
M  V30 20892 H 1998.92 -0.133238 -1.43382 0
M  V30 20893 H 2000.87 2.06211 -3.67498 0
M  V30 20894 H 1999.59 2.17396 -2.43735 0
M  V30 20895 H 1998.25 0.414618 -3.64248 0
M  V30 20896 H 1997.9 2.83741 -4.15331 0
M  V30 20897 H 1997.6 1.82239 -5.58626 0
M  V30 20898 H 1999.12 2.74538 -5.454 0
M  V30 20899 H 2000.54 0.488665 -5.71214 0
M  V30 20900 H 1998.93 -0.249924 -5.99579 0
M  V30 20901 H 2000 -0.933195 -4.75836 0
M  V30 20902 N 2001.35 1.56817 -0.156891 0
M  V30 20903 C 2002.26 2.20833 0.79183 0
M  V30 20904 C 2003.27 1.19558 1.26419 0
M  V30 20905 O 2004.45 1.5217 1.31933 0
M  V30 20906 C 2001.51 2.82517 2.00961 0
M  V30 20907 C 2000.58 3.98948 1.58552 0
M  V30 20908 C 1999.81 4.57681 2.74525 0
M  V30 20909 O 2000.03 4.15295 3.91007 0
M  V30 20910 O 1998.97 5.47786 2.49428 0
M  V30 20911 H 2002.79 3.02436 0.276846 0
M  V30 20912 H 2000.38 1.49233 0.0706167 0
M  V30 20913 H 2002.26 3.21683 2.72209 0
M  V30 20914 H 2000.93 2.03921 2.51392 0
M  V30 20915 H 1999.84 3.64479 0.84297 0
M  V30 20916 H 2001.17 4.79094 1.12826 0
M  V30 20917 N 2002.83 -0.116876 1.57166 0
M  V30 20918 C 2003.74 -1.16207 2.03797 0
M  V30 20919 C 2004.75 -1.45203 0.958749 0
M  V30 20920 O 2005.93 -1.56277 1.27041 0
M  V30 20921 C 2002.99 -2.46823 2.43474 0
M  V30 20922 C 2002.05 -2.25205 3.65488 0
M  V30 20923 C 2001.29 -3.49592 4.03263 0
M  V30 20924 O 2001.51 -4.56981 3.41357 0
M  V30 20925 O 2000.44 -3.40468 4.96352 0
M  V30 20926 H 2004.27 -0.796087 2.9308 0
M  V30 20927 H 2001.85 -0.327825 1.45759 0
M  V30 20928 H 2003.74 -3.23774 2.69719 0
M  V30 20929 H 2002.41 -2.82891 1.57335 0
M  V30 20930 H 2001.32 -1.46104 3.4439 0
M  V30 20931 H 2002.65 -1.94039 4.52338 0
M  V30 20932 N 2004.3 -1.52772 -0.387116 0
M  V30 20933 C 2005.21 -1.8061 -1.49724 0
M  V30 20934 C 2006.23 -0.692981 -1.59605 0
M  V30 20935 O 2007.41 -0.98077 -1.75906 0
M  V30 20936 C 2004.47 -1.97083 -2.85236 0
M  V30 20937 C 2003.53 -3.20997 -2.8506 0
M  V30 20938 C 2002.76 -3.36675 -4.14108 0
M  V30 20939 O 2002.99 -2.57118 -5.09163 0
M  V30 20940 O 2001.92 -4.29938 -4.21233 0
M  V30 20941 H 2005.75 -2.7488 -1.2913 0
M  V30 20942 H 2003.33 -1.37886 -0.57514 0
M  V30 20943 H 2005.21 -2.09614 -3.65568 0
M  V30 20944 H 2003.89 -1.06002 -3.05852 0
M  V30 20945 H 2002.8 -3.13907 -2.03503 0
M  V30 20946 H 2004.13 -4.1193 -2.69396 0
M  V30 20947 N 2005.78 0.645673 -1.43767 0
M  V30 20948 C 2006.71 1.76974 -1.52324 0
M  V30 20949 C 2007.69 1.65862 -0.377316 0
M  V30 20950 O 2008.88 1.84843 -0.595532 0
M  V30 20951 C 2006.01 3.1544 -1.4531 0
M  V30 20952 C 2004.96 3.41324 -2.58229 0
M  V30 20953 C 2004.29 4.79669 -2.36267 0
M  V30 20954 C 2005.59 3.35321 -4.00446 0
M  V30 20955 H 2007.28 1.70069 -2.46408 0
M  V30 20956 H 2004.83 0.816784 -1.18594 0
M  V30 20957 H 2006.78 3.93838 -1.49899 0
M  V30 20958 H 2005.5 3.23093 -0.477344 0
M  V30 20959 H 2004.16 2.653 -2.53005 0
M  V30 20960 H 2003.81 4.84007 -1.36918 0
M  V30 20961 H 2003.51 4.97947 -3.11966 0
M  V30 20962 H 2005.04 5.60315 -2.42652 0
M  V30 20963 H 2006.45 4.03644 -4.07117 0
M  V30 20964 H 2004.85 3.65135 -4.76231 0
M  V30 20965 H 2005.92 2.33373 -4.25047 0
M  V30 20966 N 2007.26 1.30423 0.884744 0
M  V30 20967 C 2008.19 1.12637 1.99613 0
M  V30 20968 C 2009.2 0.0695549 1.62651 0
M  V30 20969 O 2010.39 0.315593 1.75688 0
M  V30 20970 C 2007.49 0.695652 3.31683 0
M  V30 20971 C 2006.67 1.83427 3.97081 0
M  V30 20972 C 2005.73 1.39206 5.07453 0
M  V30 20973 O 2004.75 2.09931 5.29072 0
M  V30 20974 N 2005.95 0.27121 5.79866 0
M  V30 20975 H 2008.72 2.0836 2.15421 0
M  V30 20976 H 2006.28 1.22561 1.05784 0
M  V30 20977 H 2008.27 0.382828 4.02885 0
M  V30 20978 H 2006.84 -0.169542 3.1214 0
M  V30 20979 H 2006.06 2.31519 3.19049 0
M  V30 20980 H 2007.35 2.5973 4.37513 0
M  V30 20981 H 2006.75 -0.318111 5.64805 0
M  V30 20982 H 2005.3 0.0178406 6.51798 0
M  V30 20983 N 2008.74 -1.09711 1.13142 0
M  V30 20984 C 2009.98 -1.81827 0.891354 0
M  V30 20985 C 2010.31 -1.8557 -0.582598 0
M  V30 20986 O 2009.57 -1.31754 -1.44704 0
M  V30 20987 C 2009.87 -3.27951 1.42067 0
M  V30 20988 C 2009.53 -3.44346 2.91096 0
M  V30 20989 C 2008.19 -3.48528 3.31786 0
M  V30 20990 C 2010.55 -3.49124 3.86991 0
M  V30 20991 C 2007.87 -3.55064 4.67061 0
M  V30 20992 C 2010.23 -3.57194 5.22106 0
M  V30 20993 C 2008.89 -3.59644 5.62328 0
M  V30 20994 H 2008.16 -0.665353 0.32617 0
M  V30 20995 H 2010.81 -1.29268 1.41287 0
M  V30 20996 H 2009.11 -3.83128 0.819786 0
M  V30 20997 H 2010.81 -3.82276 1.21103 0
M  V30 20998 H 2007.4 -3.41773 2.58629 0
M  V30 20999 H 2011.58 -3.45136 3.56643 0
M  V30 21000 H 2006.84 -3.55246 4.97604 0
M  V30 21001 H 2011.01 -3.59836 5.9623 0
M  V30 21002 H 2008.64 -3.64461 6.67137 0
M  V30 21003 N 2010.22 -0.924476 -1.27637 0
M  V30 21004 C 2011.44 -0.57884 -1.99159 0
M  V30 21005 C 2011.87 0.83532 -1.68535 0
M  V30 21006 O 2011.22 1.55999 -0.92379 0
M  V30 21007 C 2011.27 -0.807508 -3.51442 0
M  V30 21008 O 2010.38 0.128443 -4.122 0
M  V30 21009 H 2009.72 -0.223218 -0.625356 0
M  V30 21010 H 2012.25 -1.24285 -1.62525 0
M  V30 21011 H 2012.26 -0.721808 -4.01564 0
M  V30 21012 H 2010.93 -1.83836 -3.73064 0
M  V30 21013 H 2009.51 -0.00689785 -3.72899 0
M  V30 21014 N 2011.69 1.41711 -0.689627 0
M  V30 21015 C 2012.62 2.33474 -0.0348045 0
M  V30 21016 C 2013.61 1.51494 0.773533 0
M  V30 21017 O 2014.79 1.8005 0.727705 0
M  V30 21018 C 2011.92 3.35259 0.906573 0
M  V30 21019 C 2010.87 4.27505 0.205762 0
M  V30 21020 C 2010.2 5.19616 1.26109 0
M  V30 21021 C 2011.5 5.14056 -0.92431 0
M  V30 21022 H 2013.19 2.88481 -0.801208 0
M  V30 21023 H 2010.74 1.3871 -0.386738 0
M  V30 21024 H 2012.69 3.98375 1.37386 0
M  V30 21025 H 2011.42 2.78589 1.70457 0
M  V30 21026 H 2010.08 3.65804 -0.241437 0
M  V30 21027 H 2009.72 4.59264 2.05147 0
M  V30 21028 H 2009.42 5.82167 0.797221 0
M  V30 21029 H 2010.95 5.85609 1.72901 0
M  V30 21030 H 2012.36 5.70774 -0.537573 0
M  V30 21031 H 2010.76 5.85517 -1.3149 0
M  V30 21032 H 2011.83 4.51574 -1.7666 0
M  V30 21033 N 2013.17 0.433965 1.51507 0
M  V30 21034 C 2014.42 -0.133365 2.01659 0
M  V30 21035 C 2014.74 -1.43506 1.32026 0
M  V30 21036 O 2014.01 -1.90572 0.453774 0
M  V30 21037 H 2012.59 -0.0522753 0.745169 0
M  V30 21038 H 2015.25 0.575899 1.86197 0
M  V30 21039 H 2014.35 -0.311697 3.1054 0
M  V30 21040 N 2014.65 -1.56732 0.165206 0
M  V30 21041 C 2015.88 -2.01506 -0.490943 0
M  V30 21042 C 2016.3 -1.04466 -1.56424 0
M  V30 21043 O 2015.66 -0.0232331 -1.81285 0
M  V30 21044 C 2015.71 -3.4492 -1.05179 0
M  V30 21045 O 2014.81 -3.50937 -2.16603 0
M  V30 21046 H 2014.15 -0.653393 -0.11821 0
M  V30 21047 H 2016.68 -2.02846 0.267298 0
M  V30 21048 H 2016.69 -3.84099 -1.37593 0
M  V30 21049 H 2015.37 -4.15049 -0.265916 0
M  V30 21050 H 2013.94 -3.23613 -1.85281 0
M  V30 21051 N 2016.13 0.10854 -1.57226 0
M  V30 21052 C 2017.08 1.1326 -2.01099 0
M  V30 21053 C 2018.05 1.40564 -0.884932 0
M  V30 21054 O 2019.23 1.52253 -1.14994 0
M  V30 21055 C 2016.37 2.45125 -2.42915 0
M  V30 21056 C 2015.48 2.24667 -3.68983 0
M  V30 21057 C 2014.62 3.49836 -3.99736 0
M  V30 21058 C 2013.66 3.24581 -5.18954 0
M  V30 21059 N 2012.79 4.4198 -5.45525 0
M  V30 21060 H 2017.63 0.751475 -2.88369 0
M  V30 21061 H 2015.17 0.359547 -1.42638 0
M  V30 21062 H 2017.13 3.22063 -2.652 0
M  V30 21063 H 2015.76 2.8111 -1.58673 0
M  V30 21064 H 2014.81 1.38595 -3.54253 0
M  V30 21065 H 2016.12 2.01989 -4.56072 0
M  V30 21066 H 2015.28 4.35188 -4.22725 0
M  V30 21067 H 2014.02 3.75555 -3.11143 0
M  V30 21068 H 2013.02 2.37621 -4.95799 0
M  V30 21069 H 2014.25 3.00222 -6.09134 0
M  V30 21070 H 2012.19 4.678 -4.5989 0
M  V30 21071 H 2012.11 4.22445 -6.26958 0
M  V30 21072 H 2013.38 5.28436 -5.73041 0
M  V30 21073 N 2017.61 1.52975 0.379009 0
M  V30 21074 C 2018.86 1.67728 1.12028 0
M  V30 21075 C 2019.17 0.428628 1.90846 0
M  V30 21076 O 2020.37 0.456461 2.67635 0
M  V30 21077 C 2018.83 2.96454 2.04066 0
M  V30 21078 C 2018.44 4.28534 1.30624 0
M  V30 21079 C 2020.18 3.20574 2.78267 0
M  V30 21080 C 2018.09 5.4836 2.21485 0
M  V30 21081 H 2017.02 0.624902 0.421917 0
M  V30 21082 H 2019.67 1.79474 0.382288 0
M  V30 21083 H 2018.05 2.78478 2.81542 0
M  V30 21084 H 2019.23 4.57097 0.583043 0
M  V30 21085 H 2017.54 4.10754 0.683407 0
M  V30 21086 H 2020.14 4.07279 3.4645 0
M  V30 21087 H 2020.48 2.36066 3.42898 0
M  V30 21088 H 2021.01 3.39162 2.0788 0
M  V30 21089 H 2017.75 6.35305 1.61455 0
M  V30 21090 H 2017.27 5.24095 2.91692 0
M  V30 21091 H 2018.95 5.82626 2.81346 0
M  V30 21092 N 2019.08 -0.63804 1.44107 0
M  V30 21093 C 2020.03 -1.77153 1.5073 0
M  V30 21094 C 2021.03 -1.65093 0.379567 0
M  V30 21095 O 2022.23 -1.71255 0.554218 0
M  V30 21096 H 2018.61 -0.584742 0.472843 0
M  V30 21097 H 2020.58 -1.68689 2.46143 0
M  V30 21098 C 2019.33 -3.15467 1.46204 0
M  V30 21099 H 2018.65 -3.25392 2.32293 0
M  V30 21100 H 2020.09 -3.94693 1.54899 0
M  V30 21101 C 2018.55 -3.36409 0.181784 0
M  V30 21102 O 2019.08 -3.94621 -0.750818 0
M  V30 21103 N 2017.29 -2.90469 0.0871207 0
M  V30 21104 H 2016.83 -2.43281 0.846871 0
M  V30 21105 H 2016.79 -3.04857 -0.768744 0
M  V30 21106 N 2020.56 -1.3089 -0.877815 0
M  V30 21107 C 2021.81 -1.20303 -1.63264 0
M  V30 21108 C 2022.14 0.240114 -1.9271 0
M  V30 21109 O 2021.42 1.17082 -1.55313 0
M  V30 21110 C 2021.7 -2.03934 -2.96788 0
M  V30 21111 C 2021.55 -3.56506 -2.74269 0
M  V30 21112 C 2022.87 -1.88268 -3.97798 0
M  V30 21113 H 2019.99 -0.438382 -0.592445 0
M  V30 21114 H 2022.63 -1.60598 -1.01529 0
M  V30 21115 H 2020.78 -1.69698 -3.49478 0
M  V30 21116 H 2022.45 -4.00838 -2.28312 0
M  V30 21117 H 2020.7 -3.8033 -2.08643 0
M  V30 21118 H 2021.37 -4.1032 -3.69244 0
M  V30 21119 H 2023.84 -2.18214 -3.54291 0
M  V30 21120 H 2022.72 -2.49098 -4.89123 0
M  V30 21121 H 2022.98 -0.843802 -4.33973 0
M  V30 21122 N 2022.04 1.0911 -1.13723 0
M  V30 21123 C 2022.99 2.15834 -0.817576 0
M  V30 21124 C 2023.96 1.64613 0.221749 0
M  V30 21125 O 2025.14 1.90572 0.0932703 0
M  V30 21126 C 2022.28 3.43851 -0.293315 0
M  V30 21127 C 2021.4 4.08956 -1.39208 0
M  V30 21128 C 2020.53 5.24741 -0.825823 0
M  V30 21129 C 2019.57 5.81774 -1.90277 0
M  V30 21130 N 2018.71 6.88916 -1.35421 0
M  V30 21131 H 2023.55 2.42519 -1.73172 0
M  V30 21132 H 2021.08 1.19026 -0.864368 0
M  V30 21133 H 2023.04 4.1719 0.0288002 0
M  V30 21134 H 2021.67 3.17474 0.583951 0
M  V30 21135 H 2020.72 3.33449 -1.83073 0
M  V30 21136 H 2022.04 4.47372 -2.2059 0
M  V30 21137 H 2021.19 6.0499 -0.455184 0
M  V30 21138 H 2019.93 4.87696 0.0190362 0
M  V30 21139 H 2018.93 5.00185 -2.28244 0
M  V30 21140 H 2020.16 6.2088 -2.75109 0
M  V30 21141 H 2018.1 6.53844 -0.531412 0
M  V30 21142 H 2018.02 7.26118 -2.10448 0
M  V30 21143 H 2019.29 7.72913 -1.01125 0
M  V30 21144 N 2023.52 0.931232 1.27145 0
M  V30 21145 C 2024.76 0.574376 1.94496 0
M  V30 21146 C 2025.1 -0.882702 1.7298 0
M  V30 21147 O 2024.37 -1.63016 1.06094 0
M  V30 21148 C 2024.66 0.905384 3.48532 0
M  V30 21149 C 2024.51 2.41647 3.79377 0
M  V30 21150 C 2025.83 0.413756 4.38151 0
M  V30 21151 H 2022.95 0.210149 0.706404 0
M  V30 21152 H 2025.59 1.16365 1.50197 0
M  V30 21153 H 2023.74 0.403903 3.86395 0
M  V30 21154 H 2025.41 2.98992 3.51286 0
M  V30 21155 H 2023.65 2.86417 3.25803 0
M  V30 21156 H 2024.32 2.5986 4.87008 0
M  V30 21157 H 2026.8 0.843592 4.07459 0
M  V30 21158 H 2025.68 0.67428 5.44743 0
M  V30 21159 H 2025.94 -0.686214 4.36742 0
M  V30 21160 N 2025 -1.41343 0.697132 0
M  V30 21161 C 2026.25 -2.00806 0.228308 0
M  V30 21162 C 2026.57 -1.55497 -1.17668 0
M  V30 21163 O 2025.84 -0.786272 -1.79428 0
M  V30 21164 H 2024.42 -0.74255 0.0814173 0
M  V30 21165 H 2027.08 -1.72946 0.898641 0
M  V30 21166 H 2026.17 -3.11121 0.246954 0
M  V30 21167 N 2026.48 -0.441993 -1.51275 0
M  V30 21168 C 2027.72 0.122669 -2.01727 0
M  V30 21169 C 2028.04 1.42804 -1.32786 0
M  V30 21170 O 2027.31 1.90329 -0.463874 0
M  V30 21171 H 2025.89 0.0483227 -0.745435 0
M  V30 21172 H 2028.56 -0.585765 -1.85889 0
M  V30 21173 H 2027.65 0.295224 -3.10701 0
M  V30 21174 N 2027.95 1.56642 -0.173515 0
M  V30 21175 C 2028.9 2.19387 0.772791 0
M  V30 21176 C 2029.9 1.15856 1.23587 0
M  V30 21177 O 2031.1 1.3405 1.20127 0
M  V30 21178 H 2027.48 0.702815 0.267497 0
M  V30 21179 H 2029.45 2.9759 0.219656 0
M  V30 21180 C 2028.2 2.85056 1.99094 0
M  V30 21181 H 2027.52 3.64451 1.64364 0
M  V30 21182 H 2028.96 3.32425 2.63191 0
M  V30 21183 C 2027.42 1.84944 2.81598 0
M  V30 21184 O 2027.95 1.33628 3.78823 0
M  V30 21185 N 2026.15 1.53653 2.46656 0
M  V30 21186 H 2025.7 1.95576 1.67654 0
M  V30 21187 H 2025.66 0.86922 3.02146 0
M  V30 21188 N 2029.43 -0.1002 1.57281 0
M  V30 21189 C 2030.66 -0.82219 1.90407 0
M  V30 21190 C 2031.08 -1.71739 0.767297 0
M  V30 21191 O 2030.44 -1.79103 -0.281369 0
M  V30 21192 C 2030.49 -1.61579 3.22373 0
M  V30 21193 O 2029.59 -2.72433 3.09603 0
M  V30 21194 H 2028.93 -0.2262 0.624283 0
M  V30 21195 H 2031.46 -0.0769557 2.04455 0
M  V30 21196 H 2031.47 -2.00109 3.55556 0
M  V30 21197 H 2030.15 -0.958772 4.04698 0
M  V30 21198 H 2028.72 -2.36968 2.87925 0
M  V30 21199 N 2030.91 -1.53174 -0.370891 0
M  V30 21200 C 2031.86 -1.79236 -1.45406 0
M  V30 21201 C 2032.83 -0.636453 -1.53423 0
M  V30 21202 O 2034.01 -0.878079 -1.69394 0
M  V30 21203 C 2031.15 -1.98327 -2.82419 0
M  V30 21204 C 2030.26 -3.2604 -2.83411 0
M  V30 21205 C 2029.4 -3.35348 -4.11965 0
M  V30 21206 C 2028.44 -4.57114 -4.07079 0
M  V30 21207 N 2027.58 -4.63603 -5.27272 0
M  V30 21208 H 2032.42 -2.71666 -1.22482 0
M  V30 21209 H 2029.95 -1.3458 -0.593853 0
M  V30 21210 H 2031.91 -2.07382 -3.62006 0
M  V30 21211 H 2030.54 -1.0924 -3.03754 0
M  V30 21212 H 2029.59 -3.25966 -1.96088 0
M  V30 21213 H 2030.9 -4.157 -2.75672 0
M  V30 21214 H 2030.06 -3.43685 -4.99966 0
M  V30 21215 H 2028.8 -2.43695 -4.2245 0
M  V30 21216 H 2027.8 -4.48883 -3.17466 0
M  V30 21217 H 2029.03 -5.50102 -3.98201 0
M  V30 21218 H 2026.97 -3.74849 -5.38353 0
M  V30 21219 H 2026.89 -5.4716 -5.21682 0
M  V30 21220 H 2028.16 -4.76218 -6.1712 0
M  V30 21221 N 2032.39 0.630389 -1.44443 0
M  V30 21222 C 2033.64 1.38719 -1.46975 0
M  V30 21223 C 2033.96 1.94723 -0.103861 0
M  V30 21224 O 2033.23 1.75822 0.863919 0
M  V30 21225 H 2031.81 0.5149 -0.54119 0
M  V30 21226 H 2034.47 0.741905 -1.80227 0
M  V30 21227 H 2033.56 2.21813 -2.19557 0
M  V30 21228 N 2033.87 1.31354 0.870861 0
M  V30 21229 C 2035.09 1.23948 1.65664 0
M  V30 21230 C 2035.51 -0.195353 1.87787 0
M  V30 21231 O 2034.87 -1.12708 1.43538 0
M  V30 21232 C 2034.92 1.97912 3.02511 0
M  V30 21233 O 2034.64 3.35795 2.81377 0
M  V30 21234 C 2036.14 1.97336 3.96955 0
M  V30 21235 H 2033.36 0.428328 0.516504 0
M  V30 21236 H 2035.9 1.73214 1.08706 0
M  V30 21237 H 2034.06 1.52409 3.5616 0
M  V30 21238 H 2034.47 3.73444 3.68293 0
M  V30 21239 H 2035.95 2.53601 4.90297 0
M  V30 21240 H 2036.42 0.955651 4.28677 0
M  V30 21241 H 2037.03 2.42714 3.49242 0
M  V30 21242 N 2035.34 -1.08505 1.143 0
M  V30 21243 C 2036.27 -2.1741 0.851769 0
M  V30 21244 C 2037.25 -1.69004 -0.192818 0
M  V30 21245 O 2038.44 -1.94136 -0.0497098 0
M  V30 21246 C 2035.57 -3.45754 0.327364 0
M  V30 21247 C 2034.52 -4.07547 1.30728 0
M  V30 21248 C 2033.85 -5.30829 0.642225 0
M  V30 21249 C 2035.15 -4.48945 2.66919 0
M  V30 21250 H 2036.84 -2.42029 1.76245 0
M  V30 21251 H 2034.39 -1.16322 0.848834 0
M  V30 21252 H 2036.34 -4.21253 0.111237 0
M  V30 21253 H 2035.07 -3.20686 -0.618737 0
M  V30 21254 H 2033.73 -3.34077 1.50956 0
M  V30 21255 H 2033.37 -5.02046 -0.309652 0
M  V30 21256 H 2033.07 -5.73128 1.29608 0
M  V30 21257 H 2034.6 -6.09044 0.435598 0
M  V30 21258 H 2036.01 -5.15626 2.50604 0
M  V30 21259 H 2034.41 -5.02158 3.28568 0
M  V30 21260 H 2035.48 -3.60882 3.23871 0
M  V30 21261 N 2036.82 -0.937962 -1.26649 0
M  V30 21262 C 2037.77 -0.443717 -2.26495 0
M  V30 21263 C 2038.74 0.494894 -1.58556 0
M  V30 21264 O 2039.92 0.411807 -1.86303 0
M  V30 21265 C 2037.06 0.287974 -3.43896 0
M  V30 21266 C 2036.18 -0.685936 -4.2652 0
M  V30 21267 C 2035.31 0.0666303 -5.31158 0
M  V30 21268 C 2034.35 -0.899313 -6.05457 0
M  V30 21269 N 2033.49 -0.17871 -7.01873 0
M  V30 21270 H 2038.33 -1.3001 -2.68144 0
M  V30 21271 H 2035.86 -0.652331 -1.31845 0
M  V30 21272 H 2037.82 0.728613 -4.10788 0
M  V30 21273 H 2036.45 1.10852 -3.03169 0
M  V30 21274 H 2035.5 -1.24509 -3.59446 0
M  V30 21275 H 2036.82 -1.42373 -4.7805 0
M  V30 21276 H 2035.97 0.566702 -6.04047 0
M  V30 21277 H 2034.71 0.837326 -4.80458 0
M  V30 21278 H 2033.71 -1.41054 -5.31398 0
M  V30 21279 H 2034.94 -1.66996 -6.58247 0
M  V30 21280 H 2032.89 0.573553 -6.53488 0
M  V30 21281 H 2032.8 -0.855891 -7.51139 0
M  V30 21282 H 2034.07 0.300374 -7.78921 0
M  V30 21283 N 2038.3 1.40971 -0.704618 0
M  V30 21284 C 2039.55 2.01377 -0.239781 0
M  V30 21285 C 2039.88 1.5571 1.16051 0
M  V30 21286 O 2039.15 0.772278 1.78511 0
M  V30 21287 C 2039.44 3.58784 -0.307556 0
M  V30 21288 C 2039.29 4.14553 -1.74544 0
M  V30 21289 C 2040.61 4.3888 0.327516 0
M  V30 21290 H 2037.73 0.731655 -0.088603 0
M  V30 21291 H 2040.37 1.67597 -0.895048 0
M  V30 21292 H 2038.52 3.87692 0.25036 0
M  V30 21293 H 2040.19 3.96486 -2.3579 0
M  V30 21294 H 2038.43 3.69254 -2.2767 0
M  V30 21295 H 2039.11 5.23715 -1.74433 0
M  V30 21296 H 2041.58 4.15838 -0.147737 0
M  V30 21297 H 2040.46 5.48332 0.249594 0
M  V30 21298 H 2040.72 4.19029 1.40952 0
M  V30 21299 N 2039.78 0.45001 1.51039 0
M  V30 21300 C 2040.71 -0.345315 2.30933 0
M  V30 21301 C 2041.69 -1.00959 1.36899 0
M  V30 21302 O 2042.87 -1.0108 1.6582 0
M  V30 21303 C 2040 -1.43968 3.16055 0
M  V30 21304 C 2038.96 -0.898198 4.18469 0
M  V30 21305 C 2038.28 -2.08927 4.92193 0
M  V30 21306 C 2039.58 0.0760911 5.22245 0
M  V30 21307 H 2041.28 0.321441 2.97669 0
M  V30 21308 H 2038.82 0.156032 1.43152 0
M  V30 21309 H 2040.78 -2.00338 3.70732 0
M  V30 21310 H 2039.5 -2.1349 2.47163 0
M  V30 21311 H 2038.16 -0.356617 3.64861 0
M  V30 21312 H 2037.81 -2.77098 4.19792 0
M  V30 21313 H 2037.51 -1.73328 5.61454 0
M  V30 21314 H 2039.03 -2.65827 5.49698 0
M  V30 21315 H 2040.45 -0.397728 5.71919 0
M  V30 21316 H 2038.84 0.345281 5.99106 0
M  V30 21317 H 2039.91 1.00878 4.74291 0
M  V30 21318 N 2041.26 -1.56548 0.18182 0
M  V30 21319 C 2042.67 -1.58646 -0.174214 0
M  V30 21320 C 2042.87 -1.19756 -1.62052 0
M  V30 21321 O 2041.93 -0.914071 -2.35374 0
M  V30 21322 C 2043.24 -3.00476 0.116117 0
M  V30 21323 C 2044.79 -3.12951 0.0551643 0
M  V30 21324 C 2045.26 -4.5689 0.318626 0
M  V30 21325 N 2046.76 -4.62431 0.266773 0
M  V30 21326 C 2047.49 -5.71673 0.444657 0
M  V30 21327 N 2046.99 -6.89433 0.682169 0
M  V30 21328 N 2048.78 -5.60815 0.379832 0
M  V30 21329 H 2040.93 -1.80112 1.12576 0
M  V30 21330 H 2043.19 -0.835277 0.448348 0
M  V30 21331 H 2042.9 -3.33443 1.11843 0
M  V30 21332 H 2042.77 -3.72598 -0.587444 0
M  V30 21333 H 2045.16 -2.79805 -0.937734 0
M  V30 21334 H 2045.24 -2.43243 0.791599 0
M  V30 21335 H 2044.89 -4.90748 1.30878 0
M  V30 21336 H 2044.82 -5.24771 -0.438543 0
M  V30 21337 H 2047.31 -3.77795 0.0892717 0
M  V30 21338 H 2047.62 -7.68574 0.80707 0
M  V30 21339 H 2045.96 -6.91272 0.718908 0
M  V30 21340 H 2049.16 -4.67695 0.194792 0
M  V30 21341 H 2049.33 -6.45895 0.521886 0
M  V30 21342 N 2042.73 0.0918577 -1.57332 0
M  V30 21343 C 2043.96 0.808218 -1.90461 0
M  V30 21344 C 2044.38 1.72122 -0.775843 0
M  V30 21345 O 2043.73 1.80752 0.251995 0
M  V30 21346 C 2043.79 1.61885 -3.23227 0
M  V30 21347 O 2043.51 0.742563 -4.31761 0
M  V30 21348 C 2045.01 2.43798 -3.7024 0
M  V30 21349 H 2042.23 0.230915 -0.630015 0
M  V30 21350 H 2044.77 0.0681235 -2.04387 0
M  V30 21351 H 2042.93 2.31142 -3.1089 0
M  V30 21352 H 2043.34 1.30433 -5.08023 0
M  V30 21353 H 2044.81 2.96164 -4.65823 0
M  V30 21354 H 2045.29 3.2241 -2.98242 0
M  V30 21355 H 2045.9 1.79734 -3.85455 0
M  V30 21356 N 2044.21 1.53368 0.362763 0
M  V30 21357 C 2045.44 1.73348 1.12402 0
M  V30 21358 C 2045.85 0.463567 1.83433 0
M  V30 21359 O 2045.19 -0.573438 1.7452 0
M  V30 21360 C 2045.26 2.84605 2.19637 0
M  V30 21361 C 2044.92 4.24862 1.68348 0
M  V30 21362 C 2045.92 5.07111 1.14605 0
M  V30 21363 C 2043.6 4.71283 1.73776 0
M  V30 21364 C 2045.6 6.33872 0.669702 0
M  V30 21365 C 2043.28 5.98021 1.25753 0
M  V30 21366 C 2044.28 6.79148 0.724405 0
M  V30 21367 O 2043.97 8.03507 0.251275 0
M  V30 21368 H 2043.7 0.583168 0.341893 0
M  V30 21369 H 2046.25 2.00919 0.426694 0
M  V30 21370 H 2044.48 2.52514 2.92871 0
M  V30 21371 H 2046.17 2.92735 2.81177 0
M  V30 21372 H 2046.94 4.7242 1.09748 0
M  V30 21373 H 2042.82 4.08208 2.14213 0
M  V30 21374 H 2046.36 6.97141 0.252909 0
M  V30 21375 H 2042.26 6.32211 1.30304 0
M  V30 21376 H 2043.03 8.17662 0.370343 0
M  V30 21377 N 2045.69 -0.62272 1.44776 0
M  V30 21378 C 2046.64 -1.75545 1.526 0
M  V30 21379 C 2047.63 -1.64681 0.397056 0
M  V30 21380 O 2048.84 -1.70658 0.572351 0
M  V30 21381 H 2045.21 -0.579694 0.479018 0
M  V30 21382 H 2047.18 -1.66069 2.47919 0
M  V30 21383 C 2045.93 -3.13899 1.49542 0
M  V30 21384 H 2045.26 -3.2291 2.35731 0
M  V30 21385 H 2046.7 -3.93028 1.59076 0
M  V30 21386 C 2045.16 -3.36197 0.217454 0
M  V30 21387 O 2045.69 -3.95395 -0.708921 0
M  V30 21388 N 2043.89 -2.90361 0.117924 0
M  V30 21389 H 2043.44 -2.4237 0.872626 0
M  V30 21390 H 2043.4 -3.05655 -0.736367 0
M  V30 21391 N 2047.17 -1.31814 -0.863883 0
M  V30 21392 C 2048.41 -1.22028 -1.61979 0
M  V30 21393 C 2048.75 0.219661 -1.92954 0
M  V30 21394 O 2048.02 1.15428 -1.56546 0
M  V30 21395 C 2048.31 -2.0707 -2.94608 0
M  V30 21396 C 2048.16 -3.59395 -2.70473 0
M  V30 21397 C 2049.48 -1.92477 -3.95779 0
M  V30 21398 H 2046.6 -0.444641 -0.587762 0
M  V30 21399 H 2049.24 -1.61666 -0.998202 0
M  V30 21400 H 2047.39 -1.73395 -3.47659 0
M  V30 21401 H 2049.06 -4.03237 -2.24048 0
M  V30 21402 H 2047.3 -3.82521 -2.04597 0
M  V30 21403 H 2047.97 -4.14213 -3.64871 0
M  V30 21404 H 2050.45 -2.21959 -3.51957 0
M  V30 21405 H 2049.33 -2.54272 -4.86453 0
M  V30 21406 H 2049.59 -0.889783 -4.33053 0
M  V30 21407 N 2048.65 1.07897 -1.14873 0
M  V30 21408 C 2049.58 2.16955 -0.863287 0
M  V30 21409 C 2050.56 1.69103 0.183853 0
M  V30 21410 O 2051.74 1.9416 0.0394136 0
M  V30 21411 C 2048.87 3.45575 -0.345696 0
M  V30 21412 C 2047.83 4.06847 -1.32888 0
M  V30 21413 C 2047.15 5.30481 -0.670367 0
M  V30 21414 C 2048.45 4.47523 -2.69296 0
M  V30 21415 H 2050.15 2.41091 -1.77526 0
M  V30 21416 H 2047.69 1.1587 -0.854991 0
M  V30 21417 H 2049.65 4.21188 -0.133575 0
M  V30 21418 H 2048.37 3.21009 0.601722 0
M  V30 21419 H 2047.03 3.33272 -1.52726 0
M  V30 21420 H 2046.68 5.02203 0.283023 0
M  V30 21421 H 2046.38 5.72433 -1.32645 0
M  V30 21422 H 2047.9 6.08805 -0.467891 0
M  V30 21423 H 2049.31 5.1429 -2.53335 0
M  V30 21424 H 2047.71 5.00409 -3.31226 0
M  V30 21425 H 2048.78 3.59159 -3.2578 0
M  V30 21426 N 2050.12 0.944665 1.2615 0
M  V30 21427 C 2051.4 0.511841 1.88784 0
M  V30 21428 C 2051.78 -1.01066 1.85335 0
M  V30 21429 O 2051.13 -1.87217 1.31004 0
M  V30 21430 C 2051.34 1.07714 3.31962 0
M  V30 21431 C 2052.69 1.14792 4.08788 0
M  V30 21432 O 2053.71 1.02798 3.41044 0
M  V30 21433 O 2052.57 1.3349 5.29946 0
M  V30 21434 H 2049.66 0.167346 0.809892 0
M  V30 21435 H 2052.21 1.03745 1.34294 0
M  V30 21436 H 2050.98 2.12066 3.28852 0
M  V30 21437 H 2050.61 0.534184 3.93995 0
M  V30 21438 N 2051.6 -1.40596 0.712085 0
M  V30 21439 C 2052.54 -2.28199 0.00642592 0
M  V30 21440 C 2053.51 -1.43146 -0.771234 0
M  V30 21441 O 2054.7 -1.72561 -0.758605 0
M  V30 21442 C 2051.82 -3.23654 -0.998287 0
M  V30 21443 C 2050.87 -4.25358 -0.311852 0
M  V30 21444 S 2051.7 -5.26866 0.957734 0
M  V30 21445 C 2052.86 -6.25884 -0.0449648 0
M  V30 21446 H 2053.09 -2.877 0.749396 0
M  V30 21447 H 2050.63 -1.45978 0.502974 0
M  V30 21448 H 2052.58 -3.79176 -1.57275 0
M  V30 21449 H 2051.24 -2.63217 -1.71394 0
M  V30 21450 H 2050.44 -4.92484 -1.07125 0
M  V30 21451 H 2050.04 -3.73517 0.18997 0
M  V30 21452 H 2052.33 -6.7159 -0.892942 0
M  V30 21453 H 2053.27 -7.05614 0.592806 0
M  V30 21454 H 2053.68 -5.6303 -0.407125 0
M  V30 21455 N 2053.08 -0.458013 -1.50798 0
M  V30 21456 C 2054.03 0.342913 -2.28238 0
M  V30 21457 C 2055 0.99876 -1.32718 0
M  V30 21458 O 2056.18 1.01371 -1.61643 0
M  V30 21459 C 2053.32 1.42646 -3.14239 0
M  V30 21460 C 2052.44 0.786698 -4.24776 0
M  V30 21461 C 2051.57 1.84704 -4.98054 0
M  V30 21462 C 2050.61 1.18681 -6.00484 0
M  V30 21463 N 2049.75 2.18942 -6.6709 0
M  V30 21464 H 2054.59 -0.323799 -2.96236 0
M  V30 21465 H 2052.12 -0.171528 -1.46097 0
M  V30 21466 H 2054.08 2.0662 -3.62442 0
M  V30 21467 H 2052.71 2.06252 -2.48314 0
M  V30 21468 H 2051.76 0.0347215 -3.80384 0
M  V30 21469 H 2053.08 0.264877 -4.98096 0
M  V30 21470 H 2052.23 2.5629 -5.49909 0
M  V30 21471 H 2050.97 2.40263 -4.24411 0
M  V30 21472 H 2049.97 0.45651 -5.47901 0
M  V30 21473 H 2051.2 0.638278 -6.76094 0
M  V30 21474 H 2049.14 2.73543 -5.96247 0
M  V30 21475 H 2049.06 1.71709 -7.36242 0
M  V30 21476 H 2050.33 2.89949 -7.23568 0
M  V30 21477 N 2054.56 1.56449 -0.190119 0
M  V30 21478 C 2055.51 2.20194 0.749479 0
M  V30 21479 C 2056.5 1.1716 1.22352 0
M  V30 21480 O 2057.71 1.35317 1.18699 0
M  V30 21481 H 2054.08 0.705613 0.260028 0
M  V30 21482 H 2056.05 2.97807 0.18808 0
M  V30 21483 C 2054.8 2.87151 1.9606 0
M  V30 21484 H 2054.13 3.66174 1.60489 0
M  V30 21485 H 2055.57 3.35198 2.5965 0
M  V30 21486 C 2054.02 1.87921 2.7962 0
M  V30 21487 O 2054.55 1.37638 3.77384 0
M  V30 21488 N 2052.76 1.5626 2.45013 0
M  V30 21489 H 2052.31 1.97343 1.6557 0
M  V30 21490 H 2052.27 0.901217 3.01207 0
M  V30 21491 N 2056.04 -0.0835127 1.57379 0
M  V30 21492 C 2057.27 -0.798106 1.90887 0
M  V30 21493 C 2057.68 -1.71709 0.78496 0
M  V30 21494 O 2057.04 -1.80883 -0.242406 0
M  V30 21495 C 2057.09 -1.60168 3.24081 0
M  V30 21496 O 2056.81 -0.719655 4.32149 0
M  V30 21497 C 2058.31 -2.41831 3.71527 0
M  V30 21498 H 2055.53 -0.227571 0.631231 0
M  V30 21499 H 2058.07 -0.0572834 2.0442 0
M  V30 21500 H 2056.23 -2.2949 3.12111 0
M  V30 21501 H 2056.64 -1.27737 5.08708 0
M  V30 21502 H 2058.12 -2.93689 4.67387 0
M  V30 21503 H 2058.59 -3.20824 2.99948 0
M  V30 21504 H 2059.2 -1.77687 3.86403 0
M  V30 21505 N 2057.52 -1.53558 -0.354624 0
M  V30 21506 C 2058.74 -1.74194 -1.11643 0
M  V30 21507 C 2059.16 -0.475943 -1.82703 0
M  V30 21508 O 2058.52 0.551798 -1.73958 0
M  V30 21509 C 2058.57 -2.91471 -2.13839 0
M  V30 21510 O 2058.29 -4.13173 -1.45671 0
M  V30 21511 C 2059.79 -3.24068 -3.02481 0
M  V30 21512 H 2057.01 -0.58232 -0.333383 0
M  V30 21513 H 2059.55 -2.00344 -0.410204 0
M  V30 21514 H 2057.71 -2.67684 -2.80043 0
M  V30 21515 H 2058.12 -4.78924 -2.13851 0
M  V30 21516 H 2059.6 -4.09506 -3.70147 0
M  V30 21517 H 2060.07 -2.39897 -3.67894 0
M  V30 21518 H 2060.68 -3.4982 -2.4188 0
M  V30 21519 N 2058.99 0.615033 -1.45104 0
M  V30 21520 C 2060.23 1.38563 -1.50265 0
M  V30 21521 C 2060.6 1.91504 -0.137917 0
M  V30 21522 O 2061.8 2.68723 -0.0642206 0
M  V30 21523 C 2060.07 2.50819 -2.54607 0
M  V30 21524 S 2061.63 3.38731 -2.78938 0
M  V30 21525 H 2058.45 0.472501 -0.531285 0
M  V30 21526 H 2061.05 0.710424 -1.82135 0
M  V30 21527 H 2059.75 2.10263 -3.52445 0
M  V30 21528 H 2059.28 3.23148 -2.24363 0
M  V30 21529 H 2061.3 4.48749 -2.11752 0
M  V30 21530 N 2060.47 1.3227 0.85688 0
M  V30 21531 C 2061.4 1.16846 1.97179 0
M  V30 21532 C 2062.42 0.10404 1.62467 0
M  V30 21533 O 2063.61 0.352788 1.74979 0
M  V30 21534 C 2060.71 0.76585 3.30133 0
M  V30 21535 C 2059.88 1.91808 3.93101 0
M  V30 21536 C 2058.94 1.49939 5.04386 0
M  V30 21537 O 2057.96 2.21106 5.245 0
M  V30 21538 N 2059.17 0.394147 5.7916 0
M  V30 21539 H 2061.93 2.12882 2.10953 0
M  V30 21540 H 2059.49 1.24777 1.03161 0
M  V30 21541 H 2061.48 0.4682 4.01983 0
M  V30 21542 H 2060.05 -0.103295 3.12429 0
M  V30 21543 H 2059.27 2.38235 3.14067 0
M  V30 21544 H 2060.56 2.68952 4.31906 0
M  V30 21545 H 2059.96 -0.198236 5.65353 0
M  V30 21546 H 2058.52 0.156093 6.51613 0
M  V30 21547 N 2061.95 -1.07287 1.15444 0
M  V30 21548 C 2063.23 -1.76634 0.840221 0
M  V30 21549 C 2063.61 -2.00384 -0.664037 0
M  V30 21550 O 2062.95 -1.62284 -1.60861 0
M  V30 21551 C 2063.16 -3.07439 1.65174 0
M  V30 21552 C 2064.51 -3.81773 1.85835 0
M  V30 21553 O 2065.54 -3.17252 1.61955 0
M  V30 21554 O 2064.4 -4.97656 2.25834 0
M  V30 21555 H 2061.49 -0.76708 0.309059 0
M  V30 21556 H 2064.04 -1.13646 1.26026 0
M  V30 21557 H 2062.81 -2.85774 2.67299 0
M  V30 21558 H 2062.43 -3.78159 1.22807 0
M  V30 21559 N 2063.43 -0.951342 -1.25647 0
M  V30 21560 C 2064.36 -0.486897 -2.28367 0
M  V30 21561 C 2065.34 0.465072 -1.63619 0
M  V30 21562 O 2066.52 0.364737 -1.90744 0
M  V30 21563 C 2063.65 0.239229 -3.46475 0
M  V30 21564 C 2062.61 -0.627163 -4.2338 0
M  V30 21565 C 2061.93 0.229514 -5.34207 0
M  V30 21566 C 2063.23 -1.90362 -4.86374 0
M  V30 21567 H 2064.93 -1.34542 -2.67467 0
M  V30 21568 H 2062.47 -0.648383 -1.28577 0
M  V30 21569 H 2064.43 0.575251 -4.17455 0
M  V30 21570 H 2063.15 1.13197 -3.06356 0
M  V30 21571 H 2061.81 -0.946222 -3.54178 0
M  V30 21572 H 2061.46 1.12192 -4.90328 0
M  V30 21573 H 2061.16 -0.346852 -5.86575 0
M  V30 21574 H 2062.68 0.560578 -6.08021 0
M  V30 21575 H 2064.1 -1.63422 -5.49515 0
M  V30 21576 H 2062.49 -2.42538 -5.48904 0
M  V30 21577 H 2063.56 -2.60876 -4.08744 0
M  V30 21578 N 2064.91 1.40216 -0.719531 0
M  V30 21579 C 2065.84 2.2918 -0.0300683 0
M  V30 21580 C 2066.85 1.4603 0.719654 0
M  V30 21581 O 2068.04 1.69276 0.56638 0
M  V30 21582 C 2065.14 3.2437 0.981688 0
M  V30 21583 C 2064.31 4.36393 0.296683 0
M  V30 21584 C 2063.37 5.11996 1.21437 0
M  V30 21585 O 2062.4 5.64908 0.697679 0
M  V30 21586 N 2063.6 5.21726 2.54524 0
M  V30 21587 H 2066.36 2.88992 -0.79396 0
M  V30 21588 H 2063.93 1.51629 -0.567481 0
M  V30 21589 H 2065.92 3.7182 1.59787 0
M  V30 21590 H 2064.49 2.65699 1.64691 0
M  V30 21591 H 2063.71 3.91019 -0.499755 0
M  V30 21592 H 2065 5.08486 -0.17865 0
M  V30 21593 H 2064.39 4.80227 2.98996 0
M  V30 21594 H 2062.95 5.72669 3.11277 0
M  V30 21595 N 2066.38 0.466004 1.50553 0
M  V30 21596 C 2067.63 -0.0923956 2.01488 0
M  V30 21597 C 2067.95 -1.41242 1.35315 0
M  V30 21598 O 2069.15 -2.05546 1.77379 0
M  V30 21599 C 2067.61 -0.21518 3.59256 0
M  V30 21600 C 2067.22 1.09611 4.34384 0
M  V30 21601 C 2068.96 -0.725811 4.18249 0
M  V30 21602 C 2066.87 0.937394 5.83924 0
M  V30 21603 H 2065.8 -0.0383052 0.753026 0
M  V30 21604 H 2068.45 0.600129 1.73409 0
M  V30 21605 H 2066.83 -0.97137 3.83902 0
M  V30 21606 H 2068 1.86285 4.21467 0
M  V30 21607 H 2066.32 1.53746 3.86977 0
M  V30 21608 H 2068.92 -0.861504 5.27714 0
M  V30 21609 H 2069.26 -1.71583 3.79296 0
M  V30 21610 H 2069.79 -0.0271476 3.97791 0
M  V30 21611 H 2066.53 1.90063 6.27341 0
M  V30 21612 H 2066.05 0.210939 5.99429 0
M  V30 21613 H 2067.73 0.601974 6.44194 0
M  V30 21614 N 2067.86 -1.56346 0.198413 0
M  V30 21615 C 2068.77 -2.22855 -0.733001 0
M  V30 21616 C 2069.79 -1.22868 -1.23205 0
M  V30 21617 O 2070.96 -1.55615 -1.27852 0
M  V30 21618 C 2068.03 -2.87746 -1.93399 0
M  V30 21619 C 2067.09 -4.03012 -1.47919 0
M  V30 21620 C 2066.32 -4.64799 -2.62293 0
M  V30 21621 O 2066.55 -4.25516 -3.79859 0
M  V30 21622 O 2065.48 -5.54206 -2.34817 0
M  V30 21623 H 2069.31 -3.03063 -0.196563 0
M  V30 21624 H 2066.89 -1.49368 -0.0310254 0
M  V30 21625 H 2068.77 -3.28788 -2.63584 0
M  V30 21626 H 2067.45 -2.10514 -2.45897 0
M  V30 21627 H 2066.35 -3.66586 -0.746038 0
M  V30 21628 H 2067.69 -4.81917 -1.00084 0
M  V30 21629 N 2069.34 0.0751653 -1.57421 0
M  V30 21630 C 2070.59 0.776106 -1.87362 0
M  V30 21631 C 2070.92 1.77394 -0.790247 0
M  V30 21632 O 2070.19 1.93471 0.199817 0
M  V30 21633 C 2070.48 1.4871 -3.27959 0
M  V30 21634 C 2070.33 0.505905 -4.46946 0
M  V30 21635 C 2071.65 2.43284 -3.66744 0
M  V30 21636 H 2068.77 0.280684 -0.681458 0
M  V30 21637 H 2071.41 0.0393497 -1.89959 0
M  V30 21638 H 2069.56 2.11512 -3.25876 0
M  V30 21639 H 2071.23 -0.116642 -4.61153 0
M  V30 21640 H 2069.48 -0.179057 -4.3343 0
M  V30 21641 H 2070.15 1.04094 -5.42096 0
M  V30 21642 H 2072.62 1.90562 -3.69899 0
M  V30 21643 H 2071.5 2.90037 -4.66015 0
M  V30 21644 H 2071.76 3.27938 -2.96494 0
M  V30 21645 N 2070.82 1.53744 0.346476 0
M  V30 21646 C 2072.05 1.74784 1.10717 0
M  V30 21647 C 2072.46 0.485625 1.82448 0
M  V30 21648 O 2071.82 -0.542565 1.74248 0
M  V30 21649 C 2071.87 2.926 2.1229 0
M  V30 21650 O 2071.59 4.13939 1.43477 0
M  V30 21651 C 2073.09 3.25667 3.00758 0
M  V30 21652 H 2070.31 0.58408 0.33029 0
M  V30 21653 H 2072.86 2.00558 0.399573 0
M  V30 21654 H 2071.01 2.69165 2.7862 0
M  V30 21655 H 2071.42 4.80051 2.11308 0
M  V30 21656 H 2072.9 4.11463 3.6797 0
M  V30 21657 H 2073.38 2.41845 3.66617 0
M  V30 21658 H 2073.98 3.51098 2.40022 0
M  V30 21659 N 2072.3 -0.607329 1.45428 0
M  V30 21660 C 2073.54 -1.36835 1.49679 0
M  V30 21661 C 2073.88 -1.93708 0.138148 0
M  V30 21662 O 2073.15 -1.75069 -0.847414 0
M  V30 21663 C 2073.43 -2.51607 2.57616 0
M  V30 21664 C 2073.29 -1.99929 4.02925 0
M  V30 21665 C 2074.61 -3.53738 2.61835 0
M  V30 21666 H 2071.72 -0.496187 0.544947 0
M  V30 21667 H 2074.37 -0.684587 1.77238 0
M  V30 21668 H 2072.52 -3.09936 2.34247 0
M  V30 21669 H 2074.19 -1.46247 4.37504 0
M  V30 21670 H 2072.43 -1.30929 4.1357 0
M  V30 21671 H 2073.1 -2.82666 4.74135 0
M  V30 21672 H 2075.58 -3.0525 2.82775 0
M  V30 21673 H 2074.45 -4.31533 3.39221 0
M  V30 21674 H 2074.72 -4.09372 1.66935 0
M  V30 21675 N 2073.77 -1.32722 -0.849853 0
M  V30 21676 C 2074.72 -1.2206 -1.95882 0
M  V30 21677 C 2075.69 -0.101678 -1.65788 0
M  V30 21678 O 2076.88 -0.278058 -1.88763 0
M  V30 21679 C 2074.02 -0.954544 -3.31636 0
M  V30 21680 C 2073.13 -2.15871 -3.74198 0
M  V30 21681 C 2072.26 -1.82773 -4.98766 0
M  V30 21682 C 2071.3 -2.99483 -5.33832 0
M  V30 21683 N 2070.44 -2.66445 -6.49578 0
M  V30 21684 H 2075.28 -2.16914 -2.04334 0
M  V30 21685 H 2072.82 -1.07877 -1.00004 0
M  V30 21686 H 2074.78 -0.780763 -4.09829 0
M  V30 21687 H 2073.41 -0.042781 -3.22772 0
M  V30 21688 H 2072.46 -2.4426 -2.91618 0
M  V30 21689 H 2073.77 -3.03157 -3.96102 0
M  V30 21690 H 2072.92 -1.61974 -5.84679 0
M  V30 21691 H 2071.66 -0.927067 -4.78808 0
M  V30 21692 H 2070.67 -3.20907 -4.46429 0
M  V30 21693 H 2071.89 -3.90288 -5.55745 0
M  V30 21694 H 2069.84 -1.78926 -6.31127 0
M  V30 21695 H 2069.76 -3.47262 -6.71524 0
M  V30 21696 H 2071.02 -2.49088 -7.38631 0
M  V30 21697 N 2075.25 1.06673 -1.16011 0
M  V30 21698 C 2076.5 1.79046 -0.937394 0
M  V30 21699 C 2076.82 1.87476 0.536438 0
M  V30 21700 O 2076.09 1.38065 1.38977 0
M  V30 21701 H 2074.67 0.663167 -0.343829 0
M  V30 21702 H 2077.33 1.28878 -1.46207 0
M  V30 21703 H 2076.43 2.81259 -1.35278 0
M  V30 21704 N 2076.73 0.957992 1.25141 0
M  V30 21705 C 2077.68 0.45155 2.23484 0
M  V30 21706 C 2078.66 -0.461074 1.54152 0
M  V30 21707 O 2079.86 -0.293579 1.74548 0
M  V30 21708 C 2076.99 -0.266249 3.42266 0
M  V30 21709 C 2076.07 0.664639 4.1886 0
M  V30 21710 N 2076.46 1.79773 4.72774 0
M  V30 21711 C 2074.76 0.473499 4.43479 0
M  V30 21712 C 2075.46 2.3792 5.30819 0
M  V30 21713 N 2074.44 1.66537 5.17462 0
M  V30 21714 H 2078.24 1.31625 2.62778 0
M  V30 21715 H 2075.75 0.815889 1.40417 0
M  V30 21716 H 2077.75 -0.646221 4.11861 0
M  V30 21717 H 2076.41 -1.12751 3.04495 0
M  V30 21718 H 2077.42 2.17951 4.69806 0
M  V30 21719 H 2074.1 -0.344604 4.16075 0
M  V30 21720 H 2075.49 3.33484 5.83299 0
M  V30 21721 N 2078.21 -1.39832 0.726957 0
M  V30 21722 C 2079.45 -2.00971 0.271788 0
M  V30 21723 C 2079.79 -1.57537 -1.13559 0
M  V30 21724 O 2079.06 -0.800579 -1.7726 0
M  V30 21725 C 2079.35 -3.5825 0.364596 0
M  V30 21726 C 2079.2 -4.11724 1.81117 0
M  V30 21727 C 2080.52 -4.39345 -0.257652 0
M  V30 21728 H 2077.64 -0.730152 0.100232 0
M  V30 21729 H 2080.28 -1.66152 0.921599 0
M  V30 21730 H 2078.43 -3.88042 -0.18865 0
M  V30 21731 H 2080.1 -3.92684 2.42068 0
M  V30 21732 H 2078.34 -3.65585 2.33516 0
M  V30 21733 H 2079.01 -5.20873 1.82743 0
M  V30 21734 H 2081.49 -4.1555 0.213875 0
M  V30 21735 H 2080.37 -5.4866 -0.162327 0
M  V30 21736 H 2080.63 -4.21218 -1.34267 0
M  V30 21737 N 2079.69 -0.473982 -1.50304 0
M  V30 21738 C 2080.6 0.323933 -2.32353 0
M  V30 21739 C 2081.61 0.993251 -1.42865 0
M  V30 21740 O 2082.79 0.980589 -1.75916 0
M  V30 21741 C 2079.85 1.38999 -3.17616 0
M  V30 21742 C 2078.91 0.736965 -4.22927 0
M  V30 21743 C 2078.15 1.75223 -5.04116 0
M  V30 21744 O 2078.37 2.97908 -4.86423 0
M  V30 21745 O 2077.3 1.32246 -5.87192 0
M  V30 21746 H 2081.13 -0.346913 -3.01712 0
M  V30 21747 H 2078.72 -0.235777 -1.47528 0
M  V30 21748 H 2080.6 2.00742 -3.70514 0
M  V30 21749 H 2079.27 2.04425 -2.50982 0
M  V30 21750 H 2078.18 0.0805047 -3.74013 0
M  V30 21751 H 2079.51 0.125602 -4.9204 0
M  V30 21752 N 2081.16 1.56239 -0.206702 0
M  V30 21753 C 2082.39 2.01998 0.433638 0
M  V30 21754 C 2082.8 1.08593 1.54933 0
M  V30 21755 O 2082.15 0.0850804 1.83503 0
M  V30 21756 C 2082.21 3.4413 1.03993 0
M  V30 21757 C 2081.87 4.56959 0.0615327 0
M  V30 21758 C 2082.87 5.14701 -0.733387 0
M  V30 21759 C 2080.55 5.02272 -0.0529169 0
M  V30 21760 C 2082.55 6.16216 -1.62961 0
M  V30 21761 C 2080.23 6.03628 -0.952684 0
M  V30 21762 C 2081.23 6.60475 -1.73959 0
M  V30 21763 O 2080.92 7.59861 -2.62425 0
M  V30 21764 H 2080.65 0.666655 0.112011 0
M  V30 21765 H 2083.21 2.02952 -0.316153 0
M  V30 21766 H 2081.44 3.40198 1.83853 0
M  V30 21767 H 2083.13 3.73627 1.58612 0
M  V30 21768 H 2083.89 4.80552 -0.655335 0
M  V30 21769 H 2079.77 4.57714 0.549424 0
M  V30 21770 H 2083.31 6.60514 -2.24425 0
M  V30 21771 H 2079.21 6.372 -1.03181 0
M  V30 21772 H 2079.98 7.77326 -2.56334 0
M  V30 21773 N 2082.64 -0.0668159 1.57458 0
M  V30 21774 C 2083.87 -0.777815 1.91723 0
M  V30 21775 C 2084.29 -1.70866 0.803128 0
M  V30 21776 O 2083.64 -1.8113 -0.223207 0
M  V30 21777 C 2083.69 -1.56722 3.25761 0
M  V30 21778 O 2083.41 -0.673779 4.32888 0
M  V30 21779 C 2084.92 -2.37877 3.74071 0
M  V30 21780 H 2082.14 -0.220863 0.633609 0
M  V30 21781 H 2084.68 -0.0355987 2.04469 0
M  V30 21782 H 2082.83 -2.26166 3.14527 0
M  V30 21783 H 2083.25 -1.22335 5.10034 0
M  V30 21784 H 2084.72 -2.88716 4.70476 0
M  V30 21785 H 2085.2 -3.17625 3.03334 0
M  V30 21786 H 2085.81 -1.73579 3.88266 0
M  V30 21787 N 2084.12 -1.53926 -0.338317 0
M  V30 21788 C 2085.05 -1.77104 -1.43908 0
M  V30 21789 C 2086.03 -0.620357 -1.50301 0
M  V30 21790 O 2087.22 -0.856117 -1.67937 0
M  V30 21791 C 2084.34 -1.87438 -2.82108 0
M  V30 21792 C 2083.39 -3.09626 -2.93315 0
M  V30 21793 S 2084.22 -4.68565 -2.59244 0
M  V30 21794 C 2085.38 -4.81784 -3.99543 0
M  V30 21795 H 2085.61 -2.70192 -1.24031 0
M  V30 21796 H 2083.14 -1.44861 -0.534293 0
M  V30 21797 H 2085.1 -1.94077 -3.61724 0
M  V30 21798 H 2083.76 -0.953534 -2.99277 0
M  V30 21799 H 2082.96 -3.13547 -3.94594 0
M  V30 21800 H 2082.56 -3.0124 -2.21653 0
M  V30 21801 H 2084.85 -4.63515 -4.94126 0
M  V30 21802 H 2085.79 -5.83879 -4.00613 0
M  V30 21803 H 2086.2 -4.10198 -3.87811 0
M  V30 21804 N 2085.6 0.599608 -1.45748 0
M  V30 21805 C 2086.51 1.73797 -1.57581 0
M  V30 21806 C 2087.53 1.67812 -0.45992 0
M  V30 21807 O 2088.7 1.88024 -0.721718 0
M  V30 21808 C 2085.77 3.10276 -1.54693 0
M  V30 21809 C 2084.83 3.27654 -2.77383 0
M  V30 21810 C 2084.06 4.57622 -2.74623 0
M  V30 21811 O 2084.28 5.40449 -1.82404 0
M  V30 21812 O 2083.22 4.77885 -3.65937 0
M  V30 21813 H 2087.04 1.66764 -2.53818 0
M  V30 21814 H 2084.63 0.764651 -1.28349 0
M  V30 21815 H 2086.51 3.91573 -1.55719 0
M  V30 21816 H 2085.19 3.17783 -0.616105 0
M  V30 21817 H 2084.09 2.45914 -2.81917 0
M  V30 21818 H 2085.43 3.25028 -3.69618 0
M  V30 21819 N 2087.08 1.33171 0.842803 0
M  V30 21820 C 2088.04 1.23019 1.93388 0
M  V30 21821 C 2089.04 0.15022 1.60097 0
M  V30 21822 O 2090.23 0.401472 1.69511 0
M  V30 21823 C 2087.36 0.89468 3.2895 0
M  V30 21824 H 2088.56 2.19997 2.03817 0
M  V30 21825 H 2086.11 1.17173 1.03442 0
M  V30 21826 H 2086.84 -0.0727774 3.24218 0
M  V30 21827 H 2086.63 1.67563 3.54493 0
M  V30 21828 H 2088.12 0.848284 4.08894 0
M  V30 21829 N 2088.56 -1.06056 1.16576 0
M  V30 21830 C 2089.5 -2.15694 0.87056 0
M  V30 21831 C 2090.5 -1.6863 -0.161341 0
M  V30 21832 O 2091.7 -1.79994 -0.0150963 0
M  V30 21833 H 2088.08 -0.704161 0.263934 0
M  V30 21834 H 2090.05 -2.37802 1.80258 0
M  V30 21835 C 2088.8 -3.45498 0.390729 0
M  V30 21836 H 2088.12 -3.82107 1.17619 0
M  V30 21837 H 2089.56 -4.23413 0.222977 0
M  V30 21838 C 2088.02 -3.24928 -0.890131 0
M  V30 21839 O 2088.55 -3.50702 -1.95886 0
M  V30 21840 N 2086.76 -2.7835 -0.834838 0
M  V30 21841 H 2086.3 -2.57576 0.0350662 0
M  V30 21842 H 2086.26 -2.64967 -1.69233 0
M  V30 21843 N 2090.03 -0.964615 -1.24631 0
M  V30 21844 C 2090.94 -0.499755 -2.29215 0
M  V30 21845 C 2091.96 0.43778 -1.68403 0
M  V30 21846 O 2093.14 0.311579 -1.98975 0
M  V30 21847 C 2090.2 0.205579 -3.4609 0
M  V30 21848 C 2089.26 -0.771401 -4.22313 0
M  V30 21849 C 2088.49 -0.0996328 -5.33607 0
M  V30 21850 O 2088.72 1.11269 -5.59442 0
M  V30 21851 O 2087.65 -0.79023 -5.9669 0
M  V30 21852 H 2091.48 -1.3691 -2.71089 0
M  V30 21853 H 2089.06 -0.731512 -1.30266 0
M  V30 21854 H 2090.94 0.601929 -4.17079 0
M  V30 21855 H 2089.62 1.04994 -3.06199 0
M  V30 21856 H 2088.53 -1.21815 -3.53712 0
M  V30 21857 H 2089.86 -1.58408 -4.66012 0
M  V30 21858 N 2091.51 1.39445 -0.734362 0
M  V30 21859 C 2092.79 1.94487 -0.208359 0
M  V30 21860 C 2093.17 1.6712 1.28974 0
M  V30 21861 O 2092.52 0.999082 2.05501 0
M  V30 21862 C 2092.73 3.44777 -0.541289 0
M  V30 21863 C 2094.07 4.2176 -0.490275 0
M  V30 21864 O 2095.1 3.52972 -0.478443 0
M  V30 21865 O 2093.96 5.4435 -0.48425 0
M  V30 21866 H 2091.05 0.826136 -0.037802 0
M  V30 21867 H 2093.6 1.48948 -0.813177 0
M  V30 21868 H 2092.37 3.58128 -1.5767 0
M  V30 21869 H 2091.99 3.97492 0.0925302 0
M  V30 21870 N 2092.99 0.481946 1.5005 0
M  V30 21871 C 2094.22 -0.0665508 2.06493 0
M  V30 21872 C 2094.63 -1.3309 1.34476 0
M  V30 21873 O 2093.97 -1.79046 0.410882 0
M  V30 21874 C 2094.03 -0.409721 3.57158 0
M  V30 21875 C 2093.7 0.754158 4.50734 0
M  V30 21876 C 2094.69 1.63929 4.93379 0
M  V30 21877 C 2092.38 0.947563 4.93281 0
M  V30 21878 C 2094.37 2.70214 5.77289 0
M  V30 21879 C 2092.06 2.01362 5.76972 0
M  V30 21880 C 2093.06 2.88927 6.18878 0
M  V30 21881 O 2092.75 3.93695 7.00899 0
M  V30 21882 H 2092.48 0.00864043 0.675945 0
M  V30 21883 H 2095.03 0.672929 1.94064 0
M  V30 21884 H 2093.26 -1.20254 3.67527 0
M  V30 21885 H 2094.95 -0.894578 3.95919 0
M  V30 21886 H 2095.72 1.5016 4.61169 0
M  V30 21887 H 2091.6 0.275431 4.60176 0
M  V30 21888 H 2095.14 3.38592 6.09919 0
M  V30 21889 H 2091.04 2.15133 6.08595 0
M  V30 21890 H 2091.8 3.90816 7.1917 0
M  V30 21891 N 2094.47 -1.56127 0.214985 0
M  V30 21892 C 2095.38 -2.2362 -0.709323 0
M  V30 21893 C 2096.39 -1.24168 -1.21895 0
M  V30 21894 O 2097.57 -1.56962 -1.26194 0
M  V30 21895 C 2094.63 -2.89781 -1.90337 0
M  V30 21896 C 2093.7 -4.04558 -1.43636 0
M  V30 21897 C 2092.93 -4.67555 -2.57349 0
M  V30 21898 O 2093.15 -4.29521 -3.75324 0
M  V30 21899 O 2092.09 -5.56666 -2.28925 0
M  V30 21900 H 2095.91 -3.03255 -0.164408 0
M  V30 21901 H 2093.5 -1.49392 -0.0151812 0
M  V30 21902 H 2095.38 -3.31565 -2.60082 0
M  V30 21903 H 2094.05 -2.1311 -2.43651 0
M  V30 21904 H 2092.96 -3.67356 -0.707115 0
M  V30 21905 H 2094.29 -4.82951 -0.94967 0
M  V30 21906 N 2095.95 0.0584645 -1.57492 0
M  V30 21907 C 2097.22 0.788828 -1.78988 0
M  V30 21908 C 2097.6 1.95112 -0.805878 0
M  V30 21909 O 2096.95 2.27951 0.158244 0
M  V30 21910 C 2097.16 1.24936 -3.25871 0
M  V30 21911 C 2098.51 1.67732 -3.90066 0
M  V30 21912 O 2099.53 1.34469 -3.29843 0
M  V30 21913 O 2098.39 2.29361 -4.9604 0
M  V30 21914 H 2095.49 0.379032 -0.735027 0
M  V30 21915 H 2098.03 0.0375096 -1.69659 0
M  V30 21916 H 2096.8 0.418302 -3.89058 0
M  V30 21917 H 2096.43 2.06159 -3.39977 0
M  V30 21918 N 2097.42 1.54103 0.330149 0
M  V30 21919 C 2098.65 1.75693 1.08699 0
M  V30 21920 C 2099.06 0.502371 1.82409 0
M  V30 21921 O 2098.4 -0.53629 1.75698 0
M  V30 21922 C 2098.47 2.89199 2.13551 0
M  V30 21923 C 2098.13 4.28338 1.59298 0
M  V30 21924 C 2099.13 5.09428 1.03823 0
M  V30 21925 C 2096.81 4.74863 1.6374 0
M  V30 21926 C 2098.81 6.3515 0.535098 0
M  V30 21927 C 2096.49 6.00554 1.1304 0
M  V30 21928 C 2097.49 6.80531 0.580184 0
M  V30 21929 O 2097.18 8.03859 0.0807823 0
M  V30 21930 H 2096.91 0.590289 0.329447 0
M  V30 21931 H 2099.47 2.01779 0.38398 0
M  V30 21932 H 2097.7 2.58669 2.87449 0
M  V30 21933 H 2099.38 2.98634 2.74905 0
M  V30 21934 H 2100.15 4.74641 0.997028 0
M  V30 21935 H 2096.03 4.1266 2.05506 0
M  V30 21936 H 2099.57 6.97521 0.104978 0
M  V30 21937 H 2095.47 6.34833 1.16865 0
M  V30 21938 H 2096.24 8.18263 0.196822 0
M  V30 21939 N 2098.9 -0.59187 1.46064 0
M  V30 21940 C 2099.81 -1.72959 1.585 0
M  V30 21941 C 2100.83 -1.67565 0.468813 0
M  V30 21942 O 2102 -1.87639 0.731679 0
M  V30 21943 C 2099.07 -3.09451 1.56336 0
M  V30 21944 C 2098.13 -3.26179 2.79117 0
M  V30 21945 C 2097.36 -4.56159 2.77046 0
M  V30 21946 O 2097.59 -5.39474 1.85268 0
M  V30 21947 O 2096.52 -4.75937 3.68466 0
M  V30 21948 H 2100.35 -1.65416 2.54699 0
M  V30 21949 H 2097.93 -0.757834 1.28753 0
M  V30 21950 H 2099.81 -3.90742 1.57793 0
M  V30 21951 H 2098.49 -3.17451 0.632949 0
M  V30 21952 H 2097.4 -2.44416 2.83217 0
M  V30 21953 H 2098.73 -3.23064 3.71336 0
M  V30 21954 N 2100.38 -1.33616 -0.835729 0
M  V30 21955 C 2101.61 -1.28111 -1.62084 0
M  V30 21956 C 2102.02 0.149577 -1.88608 0
M  V30 21957 O 2101.36 1.10314 -1.4689 0
M  V30 21958 C 2101.42 -1.99073 -2.9935 0
M  V30 21959 C 2101.09 -3.48371 -2.95781 0
M  V30 21960 C 2102.08 -4.43516 -2.71273 0
M  V30 21961 C 2099.77 -3.90595 -3.15818 0
M  V30 21962 C 2101.76 -5.78859 -2.66835 0
M  V30 21963 C 2099.45 -5.26041 -3.11004 0
M  V30 21964 C 2100.45 -6.19985 -2.86544 0
M  V30 21965 O 2100.14 -7.5295 -2.8164 0
M  V30 21966 H 2099.87 -0.442615 -0.510948 0
M  V30 21967 H 2102.42 -1.76601 -1.04887 0
M  V30 21968 H 2100.65 -1.45179 -3.58413 0
M  V30 21969 H 2102.34 -1.87026 -3.60245 0
M  V30 21970 H 2103.11 -4.12218 -2.55541 0
M  V30 21971 H 2098.99 -3.1788 -3.33876 0
M  V30 21972 H 2102.53 -6.52157 -2.47663 0
M  V30 21973 H 2098.43 -5.56963 -3.26286 0
M  V30 21974 H 2099.2 -7.62535 -2.97459 0
M  V30 21975 N 2101.86 1.05436 -1.17136 0
M  V30 21976 C 2103.14 1.75275 -0.868216 0
M  V30 21977 C 2103.52 2.01415 0.632074 0
M  V30 21978 O 2102.86 1.64823 1.58258 0
M  V30 21979 C 2103.07 3.04772 -1.70044 0
M  V30 21980 C 2104.42 3.78768 -1.91885 0
M  V30 21981 O 2105.45 3.14636 -1.66982 0
M  V30 21982 O 2104.3 4.94 -2.33723 0
M  V30 21983 H 2101.4 0.762066 -0.321223 0
M  V30 21984 H 2103.94 1.11627 -1.27818 0
M  V30 21985 H 2102.72 2.81485 -2.71812 0
M  V30 21986 H 2102.34 3.76157 -1.28808 0
M  V30 21987 N 2103.34 0.971211 1.24118 0
M  V30 21988 C 2104.25 0.511904 2.28947 0
M  V30 21989 C 2105.26 -0.428843 1.68633 0
M  V30 21990 O 2106.44 -0.301023 1.99138 0
M  V30 21991 C 2103.5 -0.187222 3.46194 0
M  V30 21992 C 2102.56 0.793786 4.21898 0
M  V30 21993 C 2101.8 0.12793 5.33547 0
M  V30 21994 O 2102.02 -1.08301 5.60024 0
M  V30 21995 O 2100.95 0.821863 5.96263 0
M  V30 21996 H 2104.78 1.38346 2.70359 0
M  V30 21997 H 2102.37 0.738411 1.29876 0
M  V30 21998 H 2104.25 -0.579802 4.17392 0
M  V30 21999 H 2102.92 -1.03369 3.06752 0
M  V30 22000 H 2101.83 1.23689 3.53061 0
M  V30 22001 H 2103.16 1.60877 4.65166 0
M  V30 22002 N 2104.81 -1.39054 0.741747 0
M  V30 22003 C 2105.74 -2.33184 0.121433 0
M  V30 22004 C 2106.73 -1.54261 -0.716774 0
M  V30 22005 O 2107.91 -1.82627 -0.660379 0
M  V30 22006 C 2105.04 -3.38393 -0.78152 0
M  V30 22007 C 2103.99 -4.27974 -0.046955 0
M  V30 22008 C 2103.32 -5.23938 -1.06737 0
M  V30 22009 C 2104.62 -5.10272 1.11446 0
M  V30 22010 H 2106.31 -2.85308 0.907724 0
M  V30 22011 H 2103.86 -1.37179 0.437953 0
M  V30 22012 H 2105.81 -4.032 -1.22506 0
M  V30 22013 H 2104.54 -2.84724 -1.6 0
M  V30 22014 H 2103.2 -3.64656 0.377036 0
M  V30 22015 H 2102.84 -4.66562 -1.8796 0
M  V30 22016 H 2102.54 -5.84725 -0.580605 0
M  V30 22017 H 2104.07 -5.91622 -1.51048 0
M  V30 22018 H 2105.48 -5.68386 0.749042 0
M  V30 22019 H 2103.88 -5.80234 1.53131 0
M  V30 22020 H 2104.95 -4.44706 1.93299 0
M  V30 22021 N 2106.29 -0.489897 -1.49792 0
M  V30 22022 C 2107.7 -0.0393634 -1.86658 0
M  V30 22023 C 2108.05 1.37132 -1.40318 0
M  V30 22024 O 2107.18 2.01999 -0.776241 0
M  V30 22025 C 2107.77 -0.0646571 -3.38738 0
M  V30 22026 C 2106.33 0.330485 -3.74946 0
M  V30 22027 C 2105.48 -0.442023 -2.73754 0
M  V30 22028 H 2108.43 -0.703245 -1.42268 0
M  V30 22029 H 2108.45 0.73323 -3.73368 0
M  V30 22030 H 2107.96 -1.09149 -3.72435 0
M  V30 22031 H 2106.07 1.36097 -3.46855 0
M  V30 22032 H 2106.18 0.0187552 -4.79096 0
M  V30 22033 H 2104.54 0.106725 -2.54476 0
M  V30 22034 H 2105.33 -1.46872 -3.10296 0
M  V30 22035 N 2107.77 1.56011 -0.223262 0
M  V30 22036 C 2108.73 2.19108 0.672641 0
M  V30 22037 C 2109.73 1.15344 1.12038 0
M  V30 22038 O 2110.92 1.40567 1.0289 0
M  V30 22039 C 2108.06 2.81576 1.92165 0
M  V30 22040 H 2109.25 2.9965 0.1225 0
M  V30 22041 H 2106.8 1.56278 0.0263484 0
M  V30 22042 H 2107.54 2.04909 2.51362 0
M  V30 22043 H 2107.32 3.57564 1.60906 0
M  V30 22044 H 2108.81 3.29937 2.55991 0
M  V30 22045 N 2109.25 -0.0501116 1.5752 0
M  V30 22046 C 2110.2 -1.05718 2.05164 0
M  V30 22047 C 2111.17 -1.37182 0.936492 0
M  V30 22048 O 2112.35 -1.4788 1.20565 0
M  V30 22049 C 2109.49 -2.3594 2.51846 0
M  V30 22050 C 2108.6 -2.10818 3.77067 0
M  V30 22051 C 2107.74 -3.34759 4.12444 0
M  V30 22052 C 2106.78 -3.05097 5.30643 0
M  V30 22053 N 2105.91 -4.21429 5.61553 0
M  V30 22054 H 2110.75 -0.643931 2.9096 0
M  V30 22055 H 2108.29 -0.30636 1.43874 0
M  V30 22056 H 2110.25 -3.11999 2.7697 0
M  V30 22057 H 2108.88 -2.75027 1.68997 0
M  V30 22058 H 2107.93 -1.25352 3.59153 0
M  V30 22059 H 2109.24 -1.84923 4.63255 0
M  V30 22060 H 2108.4 -4.19199 4.38585 0
M  V30 22061 H 2107.14 -3.63748 3.24867 0
M  V30 22062 H 2106.14 -2.19056 5.04276 0
M  V30 22063 H 2107.37 -2.77407 6.19856 0
M  V30 22064 H 2105.31 -4.5041 4.76935 0
M  V30 22065 H 2105.23 -3.98884 6.42205 0
M  V30 22066 H 2106.5 -5.06804 5.92258 0
M  V30 22067 N 2110.73 -1.54276 -0.321972 0
M  V30 22068 C 2112 -1.63209 -1.07806 0
M  V30 22069 C 2112.38 -0.466965 -2.0587 0
M  V30 22070 O 2111.73 0.538598 -2.22062 0
M  V30 22071 C 2111.94 -3.00279 -1.77858 0
M  V30 22072 C 2113.29 -3.5638 -2.30822 0
M  V30 22073 O 2114.31 -3.02594 -1.87923 0
M  V30 22074 O 2113.17 -4.50507 -3.09364 0
M  V30 22075 H 2110.27 -0.660982 -0.497023 0
M  V30 22076 H 2112.81 -1.66622 -0.321736 0
M  V30 22077 H 2111.58 -3.76518 -1.06537 0
M  V30 22078 H 2111.21 -3.00552 -2.60297 0
M  V30 22079 N 2112.2 0.584116 -1.46376 0
M  V30 22080 C 2113.48 1.34425 -1.42089 0
M  V30 22081 C 2113.86 2.10846 -0.103623 0
M  V30 22082 O 2113.21 2.09389 0.914788 0
M  V30 22083 C 2113.42 2.27143 -2.64966 0
M  V30 22084 C 2114.77 2.89016 -3.11054 0
M  V30 22085 O 2115.79 2.37457 -2.65505 0
M  V30 22086 O 2114.65 3.82664 -3.90167 0
M  V30 22087 H 2111.74 0.603918 -0.564989 0
M  V30 22088 H 2114.29 0.605251 -1.5854 0
M  V30 22089 H 2113.06 1.70093 -3.52398 0
M  V30 22090 H 2112.69 3.08385 -2.50967 0
M  V30 22091 N 2113.68 1.34058 0.828631 0
M  V30 22092 C 2115.09 1.2341 1.40095 0
M  V30 22093 C 2115.45 -0.142779 1.9568 0
M  V30 22094 O 2114.57 -1.04286 1.89614 0
M  V30 22095 C 2115.17 2.23441 2.54675 0
M  V30 22096 C 2113.72 2.16602 3.07832 0
M  V30 22097 C 2112.87 2.1036 1.80676 0
M  V30 22098 H 2115.82 1.45507 0.633514 0
M  V30 22099 H 2115.84 1.84809 3.32605 0
M  V30 22100 H 2115.36 3.23642 2.1419 0
M  V30 22101 H 2113.46 1.19738 3.52836 0
M  V30 22102 H 2113.57 3.07604 3.6731 0
M  V30 22103 H 2111.93 1.55992 2.01342 0
M  V30 22104 H 2112.72 3.12386 1.42373 0
M  V30 22105 N 2115.16 -1.04814 1.17694 0
M  V30 22106 C 2116.44 -1.74812 0.877499 0
M  V30 22107 C 2116.82 -2.01747 -0.621383 0
M  V30 22108 O 2116.17 -1.6566 -1.57382 0
M  V30 22109 C 2116.38 -3.03866 1.71658 0
M  V30 22110 C 2117.72 -3.77745 1.93891 0
M  V30 22111 O 2118.75 -3.13746 1.68648 0
M  V30 22112 O 2117.61 -4.92753 2.3634 0
M  V30 22113 H 2114.7 -0.760352 0.32526 0
M  V30 22114 H 2117.25 -1.10947 1.28409 0
M  V30 22115 H 2116.02 -2.8004 2.73301 0
M  V30 22116 H 2115.64 -3.75469 1.30801 0
M  V30 22117 N 2116.64 -0.977779 -1.23601 0
M  V30 22118 C 2117.6 -0.520908 -2.23202 0
M  V30 22119 C 2118.6 0.38804 -1.56048 0
M  V30 22120 O 2119.79 0.182096 -1.73246 0
M  V30 22121 C 2116.92 0.244298 -3.40024 0
M  V30 22122 H 2118.12 -1.40154 -2.65135 0
M  V30 22123 H 2115.67 -0.763397 -1.36389 0
M  V30 22124 H 2116.41 1.14159 -3.03543 0
M  V30 22125 H 2116.19 -0.408125 -3.8997 0
M  V30 22126 H 2117.68 0.55263 -4.13927 0
M  V30 22127 N 2118.12 1.38658 -0.749111 0
M  V30 22128 C 2119.53 1.82966 -0.371524 0
M  V30 22129 C 2119.88 1.62519 1.09918 0
M  V30 22130 O 2119 1.12394 1.84923 0
M  V30 22131 C 2119.6 3.32158 -0.667553 0
M  V30 22132 C 2118.16 3.74831 -0.343297 0
M  V30 22133 C 2117.31 2.61488 -0.923014 0
M  V30 22134 H 2120.26 1.2745 -0.945625 0
M  V30 22135 H 2120.28 3.80459 0.0558088 0
M  V30 22136 H 2119.79 3.47008 -1.73801 0
M  V30 22137 H 2117.89 3.65562 0.72076 0
M  V30 22138 H 2118 4.71755 -0.83572 0
M  V30 22139 H 2116.37 2.52302 -0.348687 0
M  V30 22140 H 2117.15 2.79138 -1.99841 0
M  V30 22141 N 2119.6 0.497834 1.49531 0
M  V30 22142 C 2120.53 -0.271671 2.31914 0
M  V30 22143 C 2121.51 -0.965521 1.40042 0
M  V30 22144 O 2122.69 -0.957536 1.68952 0
M  V30 22145 C 2119.82 -1.3384 3.20475 0
M  V30 22146 C 2118.78 -0.76461 4.21115 0
M  V30 22147 C 2118.1 -1.93162 4.98591 0
M  V30 22148 C 2119.4 0.242201 5.21738 0
M  V30 22149 H 2121.1 0.415979 2.96496 0
M  V30 22150 H 2118.64 0.201496 1.42583 0
M  V30 22151 H 2120.59 -1.88442 3.76918 0
M  V30 22152 H 2119.32 -2.05519 2.5383 0
M  V30 22153 H 2117.98 -0.240359 3.65811 0
M  V30 22154 H 2117.63 -2.63602 4.28396 0
M  V30 22155 H 2117.33 -1.55378 5.66685 0
M  V30 22156 H 2118.85 -2.48204 5.57877 0
M  V30 22157 H 2120.26 -0.215575 5.72895 0
M  V30 22158 H 2118.66 0.535707 5.97704 0
M  V30 22159 H 2119.73 1.15916 4.70841 0
M  V30 22160 N 2121.07 -1.5589 0.231532 0
M  V30 22161 C 2122.01 -2.18025 -0.70695 0
M  V30 22162 C 2123.02 -1.15214 -1.1502 0
M  V30 22163 O 2124.21 -1.42149 -1.07963 0
M  V30 22164 C 2121.31 -2.75714 -1.97066 0
M  V30 22165 C 2120.48 -4.03794 -1.68135 0
M  V30 22166 C 2119.54 -4.4595 -2.79312 0
M  V30 22167 O 2118.57 -5.12645 -2.47354 0
M  V30 22168 N 2119.77 -4.12459 -4.08483 0
M  V30 22169 H 2122.53 -2.99186 -0.175389 0
M  V30 22170 H 2120.09 -1.6182 0.0509009 0
M  V30 22171 H 2122.09 -3.00882 -2.70652 0
M  V30 22172 H 2120.66 -1.98799 -2.41242 0
M  V30 22173 H 2119.88 -3.86377 -0.781436 0
M  V30 22174 H 2121.16 -4.87328 -1.46251 0
M  V30 22175 H 2120.56 -3.58884 -4.37286 0
M  V30 22176 H 2119.12 -4.42496 -4.78581 0
M  V30 22177 N 2122.55 0.0417572 -1.57545 0
M  V30 22178 C 2123.96 0.589951 -1.77134 0
M  V30 22179 C 2124.31 1.76299 -0.860987 0
M  V30 22180 O 2123.44 2.16336 -0.0525748 0
M  V30 22181 C 2124.03 1.077 -3.21226 0
M  V30 22182 C 2122.59 1.57081 -3.42056 0
M  V30 22183 C 2121.74 0.503265 -2.72695 0
M  V30 22184 H 2124.69 -0.18447 -1.57624 0
M  V30 22185 H 2124.71 1.94485 -3.27041 0
M  V30 22186 H 2124.22 0.22303 -3.87459 0
M  V30 22187 H 2122.32 2.44704 -2.80981 0
M  V30 22188 H 2122.44 1.62706 -4.50626 0
M  V30 22189 H 2120.8 0.955366 -2.36103 0
M  V30 22190 H 2121.58 -0.341024 -3.41602 0
M  V30 22191 N 2124.03 1.54445 0.313786 0
M  V30 22192 C 2125.28 1.73373 1.05212 0
M  V30 22193 C 2125.61 0.511165 1.87352 0
M  V30 22194 O 2124.88 -0.491833 1.88179 0
M  V30 22195 C 2125.17 3.01517 1.96874 0
M  V30 22196 C 2125.02 4.34046 1.17999 0
M  V30 22197 C 2126.34 3.25462 2.96248 0
M  V30 22198 H 2123.46 0.630823 0.381092 0
M  V30 22199 H 2126.1 1.87149 0.327891 0
M  V30 22200 H 2124.25 2.89903 2.58628 0
M  V30 22201 H 2125.92 4.57559 0.586302 0
M  V30 22202 H 2124.16 4.31109 0.482437 0
M  V30 22203 H 2124.84 5.19949 1.85355 0
M  V30 22204 H 2127.31 3.36602 2.44619 0
M  V30 22205 H 2126.19 4.16464 3.57559 0
M  V30 22206 H 2126.45 2.43151 3.69229 0
M  V30 22207 N 2125.51 -0.576345 1.46683 0
M  V30 22208 C 2126.74 -1.3602 1.55905 0
M  V30 22209 C 2127.15 -1.87712 0.202401 0
M  V30 22210 O 2126.51 -1.63966 -0.801346 0
M  V30 22211 C 2126.56 -2.54335 2.56897 0
M  V30 22212 O 2126.28 -2.04783 3.87293 0
M  V30 22213 C 2127.78 -3.46804 2.7612 0
M  V30 22214 H 2125 -0.415305 0.527032 0
M  V30 22215 H 2127.54 -0.700047 1.92145 0
M  V30 22216 H 2125.7 -3.16326 2.23644 0
M  V30 22217 H 2126.11 -2.81882 4.42315 0
M  V30 22218 H 2127.59 -4.26286 3.50691 0
M  V30 22219 H 2128.06 -3.99143 1.83253 0
M  V30 22220 H 2128.67 -2.90643 3.10495 0
M  V30 22221 N 2126.99 -1.34495 -0.82151 0
M  V30 22222 C 2128.4 -1.24152 -1.39439 0
M  V30 22223 C 2128.75 0.1324 -1.95753 0
M  V30 22224 O 2127.87 1.03279 -1.90164 0
M  V30 22225 C 2128.47 -2.24789 -2.53487 0
M  V30 22226 C 2127.03 -2.18232 -3.06679 0
M  V30 22227 C 2126.17 -2.11315 -1.79558 0
M  V30 22228 H 2129.12 -1.45841 -0.625789 0
M  V30 22229 H 2129.15 -1.8657 -3.3162 0
M  V30 22230 H 2128.66 -3.24774 -2.1247 0
M  V30 22231 H 2126.76 -1.21608 -3.52196 0
M  V30 22232 H 2126.87 -3.09548 -3.65673 0
M  V30 22233 H 2125.24 -1.57058 -2.00512 0
M  V30 22234 H 2126.02 -3.13136 -1.40714 0
M  V30 22235 N 2128.46 1.04188 -1.18248 0
M  V30 22236 C 2129.39 2.14099 -0.931872 0
M  V30 22237 C 2130.38 1.69603 0.129961 0
M  V30 22238 O 2131.56 1.94187 -0.0223769 0
M  V30 22239 C 2128.69 3.443 -0.455463 0
M  V30 22240 C 2127.64 4.02414 -1.45764 0
M  V30 22241 C 2126.97 5.2808 -0.838796 0
M  V30 22242 C 2128.27 4.38729 -2.83397 0
M  V30 22243 H 2129.96 2.35321 -1.85106 0
M  V30 22244 H 2127.51 1.13091 -0.891421 0
M  V30 22245 H 2129.46 4.2055 -0.267505 0
M  V30 22246 H 2128.19 3.22761 0.499291 0
M  V30 22247 H 2126.85 3.28245 -1.63251 0
M  V30 22248 H 2126.49 5.02849 0.123108 0
M  V30 22249 H 2126.19 5.67923 -1.5079 0
M  V30 22250 H 2127.72 6.07008 -0.661341 0
M  V30 22251 H 2129.13 5.0597 -2.69568 0
M  V30 22252 H 2127.53 4.89618 -3.46979 0
M  V30 22253 H 2128.6 3.48613 -3.37041 0
M  V30 22254 N 2129.94 0.98432 1.23081 0
M  V30 22255 C 2130.87 0.48581 2.23992 0
M  V30 22256 C 2131.89 -0.414468 1.57436 0
M  V30 22257 O 2133.08 -0.217976 1.77164 0
M  V30 22258 C 2130.18 -0.316143 3.37422 0
M  V30 22259 C 2129.35 0.578204 4.33561 0
M  V30 22260 C 2128.41 -0.170568 5.25923 0
M  V30 22261 O 2127.43 0.441138 5.67488 0
M  V30 22262 N 2128.64 -1.45541 5.61959 0
M  V30 22263 H 2131.4 1.3535 2.67396 0
M  V30 22264 H 2128.96 0.858041 1.37293 0
M  V30 22265 H 2130.95 -0.825504 3.96191 0
M  V30 22266 H 2129.52 -1.08487 2.93171 0
M  V30 22267 H 2128.74 1.26835 3.73238 0
M  V30 22268 H 2130.03 1.18757 4.94747 0
M  V30 22269 H 2129.43 -1.97385 5.30147 0
M  V30 22270 H 2127.99 -1.91013 6.23183 0
M  V30 22271 N 2131.42 -1.38259 0.756453 0
M  V30 22272 C 2132.35 -2.33042 0.146158 0
M  V30 22273 C 2133.33 -1.55012 -0.700373 0
M  V30 22274 O 2134.52 -1.83317 -0.640972 0
M  V30 22275 C 2131.65 -3.39202 -0.745585 0
M  V30 22276 C 2130.6 -4.28 -0.00155995 0
M  V30 22277 C 2129.93 -5.25041 -1.01174 0
M  V30 22278 C 2131.23 -5.09061 1.16852 0
M  V30 22279 H 2132.92 -2.84329 0.937934 0
M  V30 22280 H 2130.47 -1.36706 0.452478 0
M  V30 22281 H 2132.42 -4.04477 -1.18223 0
M  V30 22282 H 2131.14 -2.86405 -1.56971 0
M  V30 22283 H 2129.8 -3.64236 0.415692 0
M  V30 22284 H 2129.45 -4.68529 -1.83001 0
M  V30 22285 H 2129.15 -5.85307 -0.518554 0
M  V30 22286 H 2130.67 -5.93191 -1.44764 0
M  V30 22287 H 2132.09 -5.67559 0.809284 0
M  V30 22288 H 2130.49 -5.78577 1.59276 0
M  V30 22289 H 2131.56 -4.42631 1.98004 0
M  V30 22290 N 2132.9 -0.505757 -1.49264 0
M  V30 22291 C 2134.15 0.0370719 -2.02466 0
M  V30 22292 C 2134.47 1.36554 -1.38504 0
M  V30 22293 O 2133.73 1.88895 -0.51159 0
M  V30 22294 C 2134.03 0.233245 -3.56638 0
M  V30 22295 C 2133.69 -1.01781 -4.39262 0
M  V30 22296 C 2132.36 -1.36074 -4.6156 0
M  V30 22297 C 2134.71 -1.84918 -4.87293 0
M  V30 22298 C 2132.04 -2.53445 -5.29134 0
M  V30 22299 C 2134.39 -3.01446 -5.56159 0
M  V30 22300 C 2133.05 -3.36113 -5.76701 0
M  V30 22301 H 2132.32 0.0135656 -0.740876 0
M  V30 22302 H 2134.97 -0.666878 -1.79513 0
M  V30 22303 H 2133.27 1.01976 -3.78296 0
M  V30 22304 H 2134.97 0.66778 -3.95401 0
M  V30 22305 H 2131.56 -0.740706 -4.22151 0
M  V30 22306 H 2135.74 -1.59738 -4.69891 0
M  V30 22307 H 2131 -2.80536 -5.4324 0
M  V30 22308 H 2135.17 -3.66189 -5.9235 0
M  V30 22309 H 2132.8 -4.27163 -6.28837 0
M  V30 22310 N 2134.38 1.55765 -0.239796 0
M  V30 22311 C 2135.29 2.2472 0.673658 0
M  V30 22312 C 2136.3 1.26091 1.19904 0
M  V30 22313 O 2137.48 1.5895 1.23681 0
M  V30 22314 C 2134.54 2.92772 1.85702 0
M  V30 22315 C 2133.6 4.06792 1.37182 0
M  V30 22316 C 2132.84 4.7159 2.49878 0
M  V30 22317 O 2133.06 4.35437 3.68443 0
M  V30 22318 O 2131.99 5.60237 2.2004 0
M  V30 22319 H 2135.82 3.03478 0.116142 0
M  V30 22320 H 2133.41 1.49398 -0.00858773 0
M  V30 22321 H 2135.29 3.3566 2.54774 0
M  V30 22322 H 2133.96 2.1696 2.40229 0
M  V30 22323 H 2132.87 3.68435 0.648582 0
M  V30 22324 H 2134.2 4.84401 0.872717 0
M  V30 22325 N 2135.85 -0.0334016 1.57565 0
M  V30 22326 C 2137.1 -0.723651 1.887 0
M  V30 22327 C 2137.42 -1.76126 0.836929 0
M  V30 22328 O 2136.69 -1.95468 -0.12998 0
M  V30 22329 H 2135.27 -0.270263 0.696396 0
M  V30 22330 H 2137.94 -0.000381018 1.949 0
M  V30 22331 H 2137.03 -1.21594 2.87439 0
M  V30 22332 N 2137.33 -1.54609 -0.305591 0
M  V30 22333 C 2138.75 -1.4572 -0.650988 0
M  V30 22334 C 2138.95 -0.644662 -1.90909 0
M  V30 22335 O 2138 -0.150545 -2.52051 0
M  V30 22336 C 2139.32 -2.89634 -0.808259 0
M  V30 22337 C 2140.87 -2.99648 -0.904441 0
M  V30 22338 C 2141.34 -4.44748 -1.09375 0
M  V30 22339 N 2142.83 -4.48438 -1.16006 0
M  V30 22340 C 2143.57 -5.57887 -1.32474 0
M  V30 22341 N 2143.06 -6.77269 -1.4587 0
M  V30 22342 N 2144.86 -5.45567 -1.35326 0
M  V30 22343 H 2137.01 -2.05909 0.521082 0
M  V30 22344 H 2139.27 -0.932366 0.171455 0
M  V30 22345 H 2138.98 -3.51671 0.0452303 0
M  V30 22346 H 2138.85 -3.36787 -1.69866 0
M  V30 22347 H 2141.24 -2.37727 -1.74842 0
M  V30 22348 H 2141.32 -2.55798 0.00987599 0
M  V30 22349 H 2140.96 -5.07262 -0.25455 0
M  V30 22350 H 2140.89 -4.86224 -2.02222 0
M  V30 22351 H 2143.38 -3.62428 -1.07025 0
M  V30 22352 H 2143.7 -7.56439 -1.58179 0
M  V30 22353 H 2142.04 -6.80143 -1.42934 0
M  V30 22354 H 2145.23 -4.51248 -1.24469 0
M  V30 22355 H 2145.4 -6.30915 -1.47817 0
M  V30 22356 N 2138.81 0.568558 -1.46987 0
M  V30 22357 C 2140.23 0.893359 -1.32254 0
M  V30 22358 C 2140.43 1.99185 -0.304531 0
M  V30 22359 O 2139.48 2.50853 0.287946 0
M  V30 22360 C 2140.8 1.29733 -2.71275 0
M  V30 22361 C 2142.34 1.40939 -2.79473 0
M  V30 22362 C 2142.82 1.84696 -4.19108 0
M  V30 22363 N 2144.31 1.91866 -4.21594 0
M  V30 22364 C 2145.04 2.27028 -5.26542 0
M  V30 22365 N 2144.54 2.60882 -6.41804 0
M  V30 22366 N 2146.33 2.27704 -5.13914 0
M  V30 22367 H 2138.48 -0.156857 -2.1182 0
M  V30 22368 H 2140.75 -0.00750539 -0.94797 0
M  V30 22369 H 2140.45 0.564082 -3.47147 0
M  V30 22370 H 2140.33 2.2559 -3.02306 0
M  V30 22371 H 2142.71 2.13347 -2.0388 0
M  V30 22372 H 2142.8 0.432977 -2.52109 0
M  V30 22373 H 2142.44 1.12862 -4.95202 0
M  V30 22374 H 2142.37 2.8332 -4.43889 0
M  V30 22375 H 2144.86 1.68135 -3.38436 0
M  V30 22376 H 2145.17 2.86707 -7.17648 0
M  V30 22377 H 2143.52 2.58488 -6.45142 0
M  V30 22378 H 2146.71 2.00687 -4.22898 0
M  V30 22379 H 2146.88 2.54778 -5.95812 0
M  V30 22380 N 2140.29 1.34929 0.814366 0
M  V30 22381 C 2141.24 1.27231 1.94718 0
M  V30 22382 C 2142.23 0.16873 1.68558 0
M  V30 22383 O 2143.44 0.334235 1.7687 0
M  V30 22384 H 2139.81 0.395475 0.639612 0
M  V30 22385 H 2141.78 2.22951 1.98332 0
M  V30 22386 C 2140.53 1.0533 3.31362 0
M  V30 22387 H 2139.85 1.89485 3.52045 0
M  V30 22388 H 2141.29 1.03983 4.11052 0
M  V30 22389 C 2139.75 -0.243132 3.36022 0
M  V30 22390 O 2140.28 -1.24159 3.82031 0
M  V30 22391 N 2138.49 -0.279214 2.89256 0
M  V30 22392 H 2138.04 0.533893 2.52007 0
M  V30 22393 H 2137.99 -1.14638 2.92755 0
M  V30 22394 N 2141.77 -1.0356 1.18799 0
M  V30 22395 C 2143.18 -1.29071 0.938761 0
M  V30 22396 C 2143.38 -1.97635 -0.39276 0
M  V30 22397 O 2142.44 -2.26009 -1.12588 0
M  V30 22398 C 2143.75 -2.14442 2.10797 0
M  V30 22399 C 2145.3 -2.27772 2.14684 0
M  V30 22400 C 2145.77 -3.16511 3.31036 0
M  V30 22401 N 2147.27 -3.24099 3.30929 0
M  V30 22402 C 2148 -3.92932 4.17603 0
M  V30 22403 N 2147.5 -4.64053 5.14419 0
M  V30 22404 N 2149.29 -3.89263 4.05501 0
M  V30 22405 H 2141.44 -0.57466 2.04478 0
M  V30 22406 H 2143.7 -0.316119 0.893741 0
M  V30 22407 H 2143.41 -1.71376 3.07121 0
M  V30 22408 H 2143.28 -3.15136 2.0729 0
M  V30 22409 H 2145.67 -2.70072 1.18934 0
M  V30 22410 H 2145.75 -1.26651 2.22246 0
M  V30 22411 H 2145.4 -2.74921 4.27061 0
M  V30 22412 H 2145.33 -4.17675 3.20711 0
M  V30 22413 H 2147.82 -2.7344 2.60843 0
M  V30 22414 H 2148.13 -5.14187 5.76916 0
M  V30 22415 H 2146.47 -4.62941 5.18373 0
M  V30 22416 H 2149.67 -3.32836 3.29147 0
M  V30 22417 H 2149.84 -4.42635 4.73263 0
M  V30 22418 N 2143.25 -0.990834 -1.22557 0
M  V30 22419 C 2144.66 -0.701213 -1.43371 0
M  V30 22420 C 2144.86 0.728876 -1.87855 0
M  V30 22421 O 2143.92 1.50004 -2.03113 0
M  V30 22422 C 2145.23 -1.70503 -2.47688 0
M  V30 22423 C 2146.78 -1.72024 -2.61489 0
M  V30 22424 C 2147.25 -2.71263 -3.69026 0
M  V30 22425 N 2148.74 -2.69845 -3.76481 0
M  V30 22426 C 2149.48 -3.43297 -4.59276 0
M  V30 22427 N 2148.98 -4.26343 -5.4608 0
M  V30 22428 N 2150.77 -3.32013 -4.53568 0
M  V30 22429 H 2142.92 -1.91447 -0.919875 0
M  V30 22430 H 2145.18 -0.825544 -0.466027 0
M  V30 22431 H 2144.89 -2.72827 -2.21942 0
M  V30 22432 H 2144.76 -1.49623 -3.46256 0
M  V30 22433 H 2147.15 -0.70399 -2.8658 0
M  V30 22434 H 2147.23 -1.96973 -1.63203 0
M  V30 22435 H 2146.87 -3.73036 -3.44683 0
M  V30 22436 H 2146.8 -2.43585 -4.66877 0
M  V30 22437 H 2149.3 -2.09583 -3.14457 0
M  V30 22438 H 2149.61 -4.79221 -6.06273 0
M  V30 22439 H 2147.95 -4.30431 -5.45669 0
M  V30 22440 H 2151.14 -2.66577 -3.84778 0
M  V30 22441 H 2151.32 -3.89516 -5.17862 0
M  V30 22442 N 2144.72 1.37856 -0.763775 0
M  V30 22443 C 2146.14 1.53343 -0.442503 0
M  V30 22444 C 2146.34 1.72406 1.04299 0
M  V30 22445 O 2145.4 1.74087 1.82893 0
M  V30 22446 C 2146.71 2.73459 -1.25063 0
M  V30 22447 C 2148.26 2.87315 -1.24173 0
M  V30 22448 C 2148.73 4.10404 -2.03303 0
M  V30 22449 N 2150.22 4.17501 -2.00616 0
M  V30 22450 C 2150.96 5.11759 -2.58631 0
M  V30 22451 N 2150.45 6.11626 -3.25401 0
M  V30 22452 N 2152.25 5.04184 -2.48505 0
M  V30 22453 H 2144.4 1.23733 -1.72638 0
M  V30 22454 H 2146.66 0.601869 -0.732432 0
M  V30 22455 H 2146.37 2.65811 -2.30299 0
M  V30 22456 H 2146.24 3.66925 -0.87439 0
M  V30 22457 H 2148.63 2.94439 -0.197389 0
M  V30 22458 H 2148.71 1.9483 -1.65755 0
M  V30 22459 H 2148.35 4.04042 -3.07754 0
M  V30 22460 H 2148.28 5.01988 -1.59108 0
M  V30 22461 H 2150.77 3.45984 -1.51998 0
M  V30 22462 H 2151.09 6.80062 -3.67063 0
M  V30 22463 H 2149.43 6.11928 -3.29498 0
M  V30 22464 H 2152.62 4.25108 -1.95962 0
M  V30 22465 H 2152.8 5.7746 -2.94013 0
M  V30 22466 N 2146.2 0.513665 1.48994 0
M  V30 22467 C 2147.62 0.170439 1.58687 0
M  V30 22468 C 2147.82 -1.32564 1.51754 0
M  V30 22469 O 2146.87 -2.10262 1.39807 0
M  V30 22470 C 2148.19 0.758488 2.90977 0
M  V30 22471 C 2149.73 0.725739 3.0447 0
M  V30 22472 C 2150.21 1.29207 4.39397 0
M  V30 22473 N 2151.7 1.25333 4.45922 0
M  V30 22474 C 2152.44 1.66159 5.48798 0
M  V30 22475 N 2151.93 2.14638 6.58713 0
M  V30 22476 N 2153.72 1.57496 5.39584 0
M  V30 22477 H 2145.88 1.48619 1.51744 0
M  V30 22478 H 2148.14 0.617216 0.719548 0
M  V30 22479 H 2147.84 1.8082 3.01657 0
M  V30 22480 H 2147.72 0.226166 3.76521 0
M  V30 22481 H 2150.11 -0.315169 2.93412 0
M  V30 22482 H 2150.19 1.29535 2.20577 0
M  V30 22483 H 2149.83 2.33183 4.51207 0
M  V30 22484 H 2149.76 0.69829 5.2195 0
M  V30 22485 H 2152.25 0.89826 3.67069 0
M  V30 22486 H 2152.56 2.43827 7.33327 0
M  V30 22487 H 2150.91 2.18621 6.5972 0
M  V30 22488 H 2154.1 1.19432 4.52608 0
M  V30 22489 H 2154.27 1.89636 6.19631 0
M  V30 22490 N 2147.68 -1.55636 0.248053 0
M  V30 22491 C 2148.59 -2.25074 -0.661731 0
M  V30 22492 C 2149.61 -1.26725 -1.19234 0
M  V30 22493 O 2150.78 -1.59603 -1.22836 0
M  V30 22494 C 2147.85 -2.93753 -1.84147 0
M  V30 22495 C 2146.91 -4.07514 -1.35022 0
M  V30 22496 C 2146.14 -4.72908 -2.47374 0
M  V30 22497 O 2146.36 -4.37385 -3.66129 0
M  V30 22498 O 2145.3 -5.61396 -2.17066 0
M  V30 22499 H 2149.12 -3.03535 -0.100047 0
M  V30 22500 H 2146.71 -1.49391 0.0165105 0
M  V30 22501 H 2148.59 -3.37007 -2.52991 0
M  V30 22502 H 2147.27 -2.18231 -2.39075 0
M  V30 22503 H 2146.17 -3.68774 -0.629034 0
M  V30 22504 H 2147.51 -4.84857 -0.847015 0
M  V30 22505 N 2149.16 0.0250451 -1.5758 0
M  V30 22506 C 2150.12 1.00908 -2.05791 0
M  V30 22507 C 2151.12 1.28794 -0.962744 0
M  V30 22508 O 2152.31 1.2373 -1.22623 0
M  V30 22509 C 2149.44 2.34084 -2.47825 0
M  V30 22510 H 2150.64 0.592553 -2.93988 0
M  V30 22511 H 2148.19 0.271965 -1.53916 0
M  V30 22512 H 2148.92 2.80477 -1.62797 0
M  V30 22513 H 2148.71 2.15173 -3.27785 0
M  V30 22514 H 2150.2 3.04725 -2.85539 0
M  V30 22515 N 2150.64 1.54769 0.297388 0
M  V30 22516 C 2152.05 1.65183 0.87014 0
M  V30 22517 C 2152.4 0.562844 1.87953 0
M  V30 22518 O 2151.52 -0.299913 2.14312 0
M  V30 22519 C 2152.12 2.99437 1.58501 0
M  V30 22520 C 2150.68 3.1196 2.10612 0
M  V30 22521 C 2149.82 2.60882 0.94 0
M  V30 22522 H 2152.77 1.58526 0.0743014 0
M  V30 22523 H 2152.8 2.91063 2.45077 0
M  V30 22524 H 2152.31 3.78675 0.850115 0
M  V30 22525 H 2150.41 2.3745 2.87138 0
M  V30 22526 H 2150.52 4.1817 2.33817 0
M  V30 22527 H 2148.89 2.17426 1.32658 0
M  V30 22528 H 2149.67 3.42601 0.219 0
M  V30 22529 N 2152.11 -0.560755 1.47286 0
M  V30 22530 C 2153.06 -1.66812 1.59507 0
M  V30 22531 C 2154.03 -1.60214 0.438263 0
M  V30 22532 O 2155.22 -1.791 0.657862 0
M  V30 22533 C 2152.36 -3.05138 1.61199 0
M  V30 22534 C 2151.47 -3.22198 2.87771 0
M  V30 22535 C 2150.6 -4.50902 2.80822 0
M  V30 22536 C 2149.64 -4.61382 4.02235 0
M  V30 22537 N 2148.78 -5.81436 3.93543 0
M  V30 22538 H 2153.62 -1.55705 2.54087 0
M  V30 22539 H 2151.16 -0.758538 1.26034 0
M  V30 22540 H 2153.11 -3.85232 1.60163 0
M  V30 22541 H 2151.74 -3.15089 0.701347 0
M  V30 22542 H 2150.8 -2.3556 2.9869 0
M  V30 22543 H 2152.11 -3.25807 3.77692 0
M  V30 22544 H 2151.26 -5.39251 2.78016 0
M  V30 22545 H 2150 -4.49766 1.88578 0
M  V30 22546 H 2149.01 -3.71445 4.0535 0
M  V30 22547 H 2150.23 -4.6428 4.95601 0
M  V30 22548 H 2148.18 -5.81257 3.041 0
M  V30 22549 H 2148.09 -5.86408 4.77139 0
M  V30 22550 H 2149.36 -6.72157 3.94747 0
M  V30 22551 N 2153.59 -1.35359 -0.807199 0
M  V30 22552 C 2154.84 -1.28788 -1.56657 0
M  V30 22553 C 2155.17 0.137625 -1.93712 0
M  V30 22554 O 2154.45 1.08685 -1.61301 0
M  V30 22555 C 2154.73 -2.19379 -2.85561 0
M  V30 22556 C 2154.58 -3.70543 -2.54986 0
M  V30 22557 C 2155.9 -2.0909 -3.87259 0
M  V30 22558 H 2153.02 -0.469169 -0.568374 0
M  V30 22559 H 2155.66 -1.65754 -0.928736 0
M  V30 22560 H 2153.81 -1.87984 -3.39992 0
M  V30 22561 H 2155.48 -4.12377 -2.06743 0
M  V30 22562 H 2153.73 -3.90855 -1.88189 0
M  V30 22563 H 2154.4 -4.29316 -3.46975 0
M  V30 22564 H 2156.87 -2.36687 -3.42226 0
M  V30 22565 H 2155.75 -2.74675 -4.75231 0
M  V30 22566 H 2156.01 -1.07265 -4.2889 0
M  V30 22567 N 2155.07 1.02928 -1.19346 0
M  V30 22568 C 2156.32 1.76582 -0.997324 0
M  V30 22569 C 2156.65 1.88407 0.470801 0
M  V30 22570 O 2155.92 1.40057 1.34961 0
M  V30 22571 C 2156.21 3.19219 -1.66647 0
M  V30 22572 C 2156.06 3.15268 -3.20822 0
M  V30 22573 C 2157.38 4.17602 -1.38912 0
M  V30 22574 H 2154.5 0.640995 -0.363722 0
M  V30 22575 H 2157.14 1.20159 -1.4718 0
M  V30 22576 H 2155.29 3.67395 -1.26306 0
M  V30 22577 H 2156.96 2.74993 -3.70374 0
M  V30 22578 H 2155.2 2.52994 -3.52387 0
M  V30 22579 H 2155.88 4.1604 -3.62788 0
M  V30 22580 H 2158.35 3.78025 -1.73887 0
M  V30 22581 H 2157.23 5.15597 -1.88283 0
M  V30 22582 H 2157.49 4.40982 -0.314198 0
M  V30 22583 N 2156.55 0.997319 1.2203 0
M  V30 22584 C 2157.46 0.560352 2.2781 0
M  V30 22585 C 2158.47 -0.392977 1.69504 0
M  V30 22586 O 2159.65 -0.258715 1.99731 0
M  V30 22587 C 2156.71 -0.113747 3.46513 0
M  V30 22588 C 2155.78 0.883099 4.20119 0
M  V30 22589 C 2155.01 0.241074 5.33155 0
M  V30 22590 O 2155.23 -0.963972 5.62195 0
M  V30 22591 O 2154.17 0.948154 5.94385 0
M  V30 22592 H 2157.99 1.44049 2.67364 0
M  V30 22593 H 2155.58 0.765793 1.28281 0
M  V30 22594 H 2157.46 -0.491137 4.18528 0
M  V30 22595 H 2156.13 -0.968387 3.08875 0
M  V30 22596 H 2155.04 1.3115 3.50358 0
M  V30 22597 H 2156.37 1.70708 4.61649 0
M  V30 22598 N 2158.03 -1.37449 0.771075 0
M  V30 22599 C 2158.94 -2.3407 0.157631 0
M  V30 22600 C 2159.95 -1.60145 -0.680404 0
M  V30 22601 O 2161.13 -1.9224 -0.600482 0
M  V30 22602 C 2158.19 -3.39316 -0.711733 0
M  V30 22603 C 2157.25 -4.29063 0.142682 0
M  V30 22604 C 2156.49 -5.29282 -0.685284 0
M  V30 22605 O 2156.71 -5.37029 -1.92241 0
M  V30 22606 O 2155.64 -6.01825 -0.0948431 0
M  V30 22607 H 2159.47 -2.8826 0.956036 0
M  V30 22608 H 2157.06 -1.39598 0.532224 0
M  V30 22609 H 2158.94 -4.03713 -1.20806 0
M  V30 22610 H 2157.61 -2.87455 -1.48834 0
M  V30 22611 H 2156.52 -3.67769 0.685357 0
M  V30 22612 H 2157.85 -4.84227 0.882356 0
M  V30 22613 N 2159.5 -0.52156 -1.4872 0
M  V30 22614 C 2160.44 0.282802 -2.27449 0
M  V30 22615 C 2161.45 0.912106 -1.3485 0
M  V30 22616 O 2162.64 0.79197 -1.59969 0
M  V30 22617 C 2159.74 1.41494 -3.07949 0
M  V30 22618 C 2158.91 0.889125 -4.28268 0
M  V30 22619 C 2157.97 1.90136 -4.90647 0
M  V30 22620 O 2157 1.46166 -5.50113 0
M  V30 22621 N 2158.2 3.23306 -4.82134 0
M  V30 22622 H 2160.96 -0.392372 -2.9712 0
M  V30 22623 H 2158.52 -0.355365 -1.57952 0
M  V30 22624 H 2160.52 2.09008 -3.46551 0
M  V30 22625 H 2159.09 1.99391 -2.40753 0
M  V30 22626 H 2158.31 0.0382432 -3.94181 0
M  V30 22627 H 2159.59 0.516566 -5.06171 0
M  V30 22628 H 2158.99 3.61702 -4.34958 0
M  V30 22629 H 2157.55 3.86477 -5.24861 0
M  V30 22630 N 2160.98 1.55502 -0.256304 0
M  V30 22631 C 2161.89 2.25422 0.649785 0
M  V30 22632 C 2162.91 1.27356 1.1856 0
M  V30 22633 O 2164.08 1.60253 1.21988 0
M  V30 22634 C 2161.15 2.94725 1.82587 0
M  V30 22635 C 2160.21 4.08224 1.32859 0
M  V30 22636 C 2159.44 4.74213 2.44862 0
M  V30 22637 O 2159.67 4.39321 3.63804 0
M  V30 22638 O 2158.6 5.6254 2.14086 0
M  V30 22639 H 2162.43 3.03584 0.083948 0
M  V30 22640 H 2160.01 1.4938 -0.0244329 0
M  V30 22641 H 2161.89 3.38344 2.512 0
M  V30 22642 H 2160.57 2.19495 2.37915 0
M  V30 22643 H 2159.48 3.69102 0.609468 0
M  V30 22644 H 2160.81 4.853 0.82129 0
M  V30 22645 N 2162.46 -0.0166879 1.57591 0
M  V30 22646 C 2163.69 -0.720103 1.94497 0
M  V30 22647 C 2164.11 -1.6743 0.857254 0
M  V30 22648 O 2163.47 -1.80343 -0.186035 0
M  V30 22649 C 2163.52 -1.44264 3.30485 0
M  V30 22650 O 2162.62 -2.55638 3.23609 0
M  V30 22651 H 2161.96 -0.19279 0.635396 0
M  V30 22652 H 2164.49 0.0315297 2.04576 0
M  V30 22653 H 2164.5 -1.80981 3.65664 0
M  V30 22654 H 2163.18 -0.742902 4.09211 0
M  V30 22655 H 2161.75 -2.21373 3.00081 0
M  V30 22656 N 2163.94 -1.54924 -0.289176 0
M  V30 22657 C 2165.35 -1.46402 -0.635496 0
M  V30 22658 C 2165.55 -0.664874 -1.90215 0
M  V30 22659 O 2164.61 -0.17727 -2.51877 0
M  V30 22660 C 2165.92 -2.90475 -0.777494 0
M  V30 22661 C 2167.47 -3.0059 -0.872609 0
M  V30 22662 C 2167.95 -4.45884 -1.04651 0
M  V30 22663 N 2169.44 -4.49643 -1.11243 0
M  V30 22664 C 2170.17 -5.59261 -1.2655 0
M  V30 22665 N 2169.67 -6.78778 -1.38679 0
M  V30 22666 N 2171.46 -5.46972 -1.29532 0
M  V30 22667 H 2163.61 -2.05345 0.542893 0
M  V30 22668 H 2165.88 -0.930495 0.181335 0
M  V30 22669 H 2165.58 -3.51603 0.0825272 0
M  V30 22670 H 2165.46 -3.3857 -1.66284 0
M  V30 22671 H 2167.84 -2.39568 -1.72311 0
M  V30 22672 H 2167.92 -2.55773 0.0370062 0
M  V30 22673 H 2167.57 -5.07503 -0.200734 0
M  V30 22674 H 2167.5 -4.88342 -1.97053 0
M  V30 22675 H 2169.99 -3.63543 -1.03175 0
M  V30 22676 H 2170.3 -7.58074 -1.50147 0
M  V30 22677 H 2168.65 -6.81621 -1.35713 0
M  V30 22678 H 2171.84 -4.52543 -1.19675 0
M  V30 22679 H 2172.01 -6.32448 -1.41117 0
M  V30 22680 N 2165.42 0.552936 -1.47582 0
M  V30 22681 C 2166.66 1.31186 -1.54655 0
M  V30 22682 C 2167 1.93062 -0.209946 0
M  V30 22683 O 2166.27 1.78093 0.781854 0
M  V30 22684 C 2166.55 2.41873 -2.66776 0
M  V30 22685 C 2166.41 1.84837 -4.10067 0
M  V30 22686 C 2167.73 3.43776 -2.74784 0
M  V30 22687 H 2164.84 0.47562 -0.562987 0
M  V30 22688 H 2167.49 0.618335 -1.79657 0
M  V30 22689 H 2165.64 3.01029 -2.45589 0
M  V30 22690 H 2167.31 1.29909 -4.4263 0
M  V30 22691 H 2165.55 1.15489 -4.18144 0
M  V30 22692 H 2166.22 2.64874 -4.84299 0
M  V30 22693 H 2168.7 2.94544 -2.9391 0
M  V30 22694 H 2167.57 4.18646 -3.55003 0
M  V30 22695 H 2167.84 4.02894 -1.82013 0
M  V30 22696 N 2166.89 1.35785 0.800009 0
M  V30 22697 C 2167.84 1.25783 1.90165 0
M  V30 22698 C 2168.83 0.151626 1.60184 0
M  V30 22699 O 2170.02 0.383461 1.72796 0
M  V30 22700 C 2167.15 1.03869 3.2721 0
M  V30 22701 C 2166.24 2.18909 3.63235 0
M  V30 22702 N 2166.63 3.44172 3.70648 0
M  V30 22703 C 2164.92 2.10441 3.93231 0
M  V30 22704 C 2165.63 4.19862 4.02605 0
M  V30 22705 N 2164.6 3.48688 4.17034 0
M  V30 22706 H 2168.4 2.2068 1.94107 0
M  V30 22707 H 2165.92 1.28352 0.994957 0
M  V30 22708 H 2167.91 0.947907 4.05981 0
M  V30 22709 H 2166.57 0.0986168 3.2455 0
M  V30 22710 H 2167.59 3.7844 3.53558 0
M  V30 22711 H 2164.26 1.24327 3.98559 0
M  V30 22712 H 2165.65 5.2814 4.15352 0
M  V30 22713 N 2168.37 -1.02294 1.19891 0
M  V30 22714 C 2169.6 -1.79144 1.02912 0
M  V30 22715 C 2170.01 -1.84365 -0.425007 0
M  V30 22716 O 2169.35 -1.29092 -1.30694 0
M  V30 22717 C 2169.42 -3.25345 1.52941 0
M  V30 22718 C 2169.08 -3.43746 3.01144 0
M  V30 22719 C 2170.08 -3.33481 3.98857 0
M  V30 22720 C 2167.76 -3.69768 3.39966 0
M  V30 22721 C 2169.76 -3.48971 5.33383 0
M  V30 22722 C 2167.44 -3.84903 4.7465 0
M  V30 22723 C 2168.44 -3.74508 5.71168 0
M  V30 22724 O 2168.13 -3.89189 7.03411 0
M  V30 22725 H 2167.86 -0.570423 0.362759 0
M  V30 22726 H 2170.41 -1.29691 1.59278 0
M  V30 22727 H 2168.64 -3.75851 0.90955 0
M  V30 22728 H 2170.33 -3.8381 1.32079 0
M  V30 22729 H 2171.1 -3.13321 3.70209 0
M  V30 22730 H 2166.98 -3.76949 2.65387 0
M  V30 22731 H 2170.52 -3.40774 6.08703 0
M  V30 22732 H 2166.42 -4.04561 5.02992 0
M  V30 22733 H 2167.19 -4.06244 7.10569 0
M  V30 22734 N 2169.85 -1.00378 -1.21499 0
M  V30 22735 C 2171.08 -0.704573 -1.94534 0
M  V30 22736 C 2171.49 0.732632 -1.74006 0
M  V30 22737 O 2170.85 1.49556 -1.04591 0
M  V30 22738 C 2170.9 -1.01461 -3.4697 0
M  V30 22739 O 2170.62 -2.39535 -3.66817 0
M  V30 22740 C 2172.12 -0.734641 -4.3717 0
M  V30 22741 H 2169.34 -0.259747 -0.618686 0
M  V30 22742 H 2171.89 -1.34149 -1.54351 0
M  V30 22743 H 2170.04 -0.423313 -3.8508 0
M  V30 22744 H 2170.46 -2.50302 -4.60922 0
M  V30 22745 H 2171.93 -1.00176 -5.42834 0
M  V30 22746 H 2172.41 0.331329 -4.37948 0
M  V30 22747 H 2173.01 -1.30749 -4.04703 0
M  V30 22748 N 2171.33 1.37038 -0.778354 0
M  V30 22749 C 2172.57 1.99823 -0.34619 0
M  V30 22750 C 2172.91 1.61643 1.07634 0
M  V30 22751 O 2172.18 0.865817 1.74166 0
M  V30 22752 C 2172.47 3.56649 -0.497307 0
M  V30 22753 C 2172.32 4.04718 -1.96273 0
M  V30 22754 C 2173.64 4.39999 0.0944148 0
M  V30 22755 H 2170.76 0.725929 -0.127262 0
M  V30 22756 H 2173.4 1.62617 -0.98263 0
M  V30 22757 H 2171.55 3.88475 0.0445004 0
M  V30 22758 H 2173.22 3.8343 -2.56475 0
M  V30 22759 H 2171.46 3.56667 -2.46924 0
M  V30 22760 H 2172.13 5.13732 -2.01949 0
M  V30 22761 H 2174.61 4.1447 -0.367956 0
M  V30 22762 H 2173.49 5.48884 -0.0414159 0
M  V30 22763 H 2173.75 4.25911 1.18542 0
M  V30 22764 N 2172.81 0.529439 1.48441 0
M  V30 22765 C 2174.05 -0.00285821 2.044 0
M  V30 22766 C 2174.41 -1.31631 1.39776 0
M  V30 22767 O 2175.61 -1.93461 1.86618 0
M  V30 22768 C 2173.88 -0.122915 3.57189 0
M  V30 22769 S 2175.44 -0.605355 4.34604 0
M  V30 22770 H 2172.26 0.0118032 0.710902 0
M  V30 22771 H 2174.86 0.709877 1.82157 0
M  V30 22772 H 2173.57 0.837857 4.01756 0
M  V30 22773 H 2173.1 -0.860045 3.83884 0
M  V30 22774 H 2175.11 -1.86995 4.59616 0
M  V30 22775 N 2174.29 -1.55364 0.264547 0
M  V30 22776 C 2175.53 -1.98537 -0.355827 0
M  V30 22777 C 2175.85 -1.15624 -1.57767 0
M  V30 22778 O 2177.05 -1.48892 -2.27032 0
M  V30 22779 C 2175.51 -3.53332 -0.684446 0
M  V30 22780 C 2175.12 -4.45007 0.516993 0
M  V30 22781 C 2176.86 -4.05119 -1.26803 0
M  V30 22782 C 2174.77 -5.91174 0.163548 0
M  V30 22783 H 2173.7 -0.7415 -0.136725 0
M  V30 22784 H 2176.35 -1.79782 0.367539 0
M  V30 22785 H 2174.73 -3.67848 -1.46643 0
M  V30 22786 H 2175.91 -4.42256 1.29406 0
M  V30 22787 H 2174.22 -4.03797 1.0167 0
M  V30 22788 H 2176.82 -5.11859 -1.5461 0
M  V30 22789 H 2177.16 -3.53519 -2.19841 0
M  V30 22790 H 2177.69 -3.93999 -0.548571 0
M  V30 22791 H 2174.43 -6.46848 1.06153 0
M  V30 22792 H 2173.95 -5.97019 -0.576966 0
M  V30 22793 H 2175.63 -6.46524 -0.248012 0
M  V30 22794 N 2175.76 0.00833021 -1.57598 0
M  V30 22795 C 2177.01 0.690352 -1.91326 0
M  V30 22796 C 2177.36 1.71841 -0.865362 0
M  V30 22797 O 2176.66 1.91202 0.123476 0
M  V30 22798 C 2176.85 1.38284 -3.29564 0
M  V30 22799 C 2176.68 0.423375 -4.47703 0
M  V30 22800 C 2175.45 0.0368143 -5.05287 0
M  V30 22801 C 2177.65 -0.306928 -5.13383 0
M  V30 22802 N 2175.63 -0.921736 -6.06941 0
M  V30 22803 C 2177 -1.12044 -6.09792 0
M  V30 22804 C 2179.06 -0.371657 -4.96511 0
M  V30 22805 C 2177.76 -1.99276 -6.91145 0
M  V30 22806 C 2179.79 -1.23118 -5.78443 0
M  V30 22807 C 2179.15 -2.03256 -6.74438 0
M  V30 22808 H 2175.25 0.226076 -0.748608 0
M  V30 22809 H 2177.83 -0.0500602 -1.94636 0
M  V30 22810 H 2176 2.09359 -3.27144 0
M  V30 22811 H 2177.73 2.0189 -3.50746 0
M  V30 22812 H 2174.49 0.403424 -4.71879 0
M  V30 22813 H 2174.91 -1.39614 -6.62448 0
M  V30 22814 H 2179.55 0.233629 -4.22154 0
M  V30 22815 H 2177.27 -2.60876 -7.64833 0
M  V30 22816 H 2180.86 -1.28507 -5.6743 0
M  V30 22817 H 2179.74 -2.6869 -7.36733 0
M  V30 22818 N 2177.24 1.55075 0.280956 0
M  V30 22819 C 2178.66 1.46737 0.627723 0
M  V30 22820 C 2178.86 0.674952 1.8986 0
M  V30 22821 O 2177.91 0.190625 2.51779 0
M  V30 22822 C 2179.23 2.90883 0.762079 0
M  V30 22823 C 2180.77 3.01049 0.856656 0
M  V30 22824 C 2181.25 4.46432 1.02285 0
M  V30 22825 N 2182.74 4.50227 1.08857 0
M  V30 22826 C 2183.48 5.59924 1.23582 0
M  V30 22827 N 2182.97 6.79504 1.35077 0
M  V30 22828 N 2184.76 5.47651 1.26629 0
M  V30 22829 H 2176.92 2.05054 -0.553775 0
M  V30 22830 H 2179.18 0.929521 -0.186267 0
M  V30 22831 H 2178.88 3.51554 -0.101172 0
M  V30 22832 H 2178.76 3.39447 1.64486 0
M  V30 22833 H 2181.15 2.40479 1.71038 0
M  V30 22834 H 2181.23 2.5575 -0.05057 0
M  V30 22835 H 2180.87 5.07602 0.173817 0
M  V30 22836 H 2180.8 4.8938 1.94461 0
M  V30 22837 H 2183.29 3.64085 1.01245 0
M  V30 22838 H 2183.6 7.58859 1.46124 0
M  V30 22839 H 2181.95 6.82331 1.32096 0
M  V30 22840 H 2185.14 4.53172 1.17274 0
M  V30 22841 H 2185.31 6.33187 1.37761 0
M  V30 22842 N 2178.72 -0.545102 1.47873 0
M  V30 22843 C 2179.67 -1.67209 1.61691 0
M  V30 22844 C 2180.66 -1.62345 0.483792 0
M  V30 22845 O 2181.87 -1.67384 0.662009 0
M  V30 22846 H 2178.24 -0.553487 0.509073 0
M  V30 22847 H 2180.21 -1.52694 2.56373 0
M  V30 22848 C 2178.96 -3.05531 1.65971 0
M  V30 22849 H 2178.29 -3.09961 2.52516 0
M  V30 22850 H 2179.73 -3.84043 1.79686 0
M  V30 22851 C 2178.18 -3.34572 0.39536 0
M  V30 22852 O 2178.71 -3.98597 -0.498334 0
M  V30 22853 N 2176.92 -2.89327 0.271672 0
M  V30 22854 H 2176.47 -2.37403 0.999874 0
M  V30 22855 H 2176.43 -3.09129 -0.573311 0
M  V30 22856 N 2180.2 -1.36208 -0.792797 0
M  V30 22857 C 2181.45 -1.29992 -1.54746 0
M  V30 22858 C 2181.77 0.121446 -1.94621 0
M  V30 22859 O 2181.04 1.06096 -1.64683 0
M  V30 22860 H 2179.62 -0.478184 -0.573889 0
M  V30 22861 H 2182.28 -1.70466 -0.944845 0
M  V30 22862 H 2181.37 -1.92505 -2.45658 0
M  V30 22863 N 2181.68 1.01656 -1.20431 0
M  V30 22864 C 2182.62 2.10198 -0.953184 0
M  V30 22865 C 2183.59 1.6569 0.116613 0
M  V30 22866 O 2184.78 1.90779 -0.0281152 0
M  V30 22867 C 2181.92 3.4129 -0.511397 0
M  V30 22868 C 2181.03 3.99275 -1.64935 0
M  V30 22869 C 2180.17 5.18427 -1.15787 0
M  V30 22870 C 2179.2 5.68496 -2.2689 0
M  V30 22871 N 2178.34 6.78909 -1.7896 0
M  V30 22872 H 2183.18 2.31015 -1.88245 0
M  V30 22873 H 2180.72 1.13288 -0.938314 0
M  V30 22874 H 2182.68 4.16529 -0.236575 0
M  V30 22875 H 2181.31 3.20545 0.380867 0
M  V30 22876 H 2180.36 3.21132 -2.03909 0
M  V30 22877 H 2181.67 4.32437 -2.48595 0
M  V30 22878 H 2180.82 6.00871 -0.839013 0
M  V30 22879 H 2179.56 4.8683 -0.291159 0
M  V30 22880 H 2178.57 4.84657 -2.59592 0
M  V30 22881 H 2179.79 6.02127 -3.14037 0
M  V30 22882 H 2177.74 6.49141 -0.946156 0
M  V30 22883 H 2177.66 7.11265 -2.562 0
M  V30 22884 H 2178.92 7.64917 -1.50074 0
M  V30 22885 N 2183.15 1.01021 1.20965 0
M  V30 22886 C 2184.4 0.696906 1.9045 0
M  V30 22887 C 2184.73 -0.770906 1.78243 0
M  V30 22888 O 2184.01 -1.55939 1.16246 0
M  V30 22889 C 2184.29 1.1252 3.42069 0
M  V30 22890 C 2184.14 2.65285 3.63241 0
M  V30 22891 C 2185.46 0.691566 4.34632 0
M  V30 22892 H 2182.58 0.254648 0.691609 0
M  V30 22893 H 2185.22 1.25681 1.42493 0
M  V30 22894 H 2183.37 0.648818 3.83044 0
M  V30 22895 H 2185.05 3.20727 3.3156 0
M  V30 22896 H 2183.29 3.06557 3.06929 0
M  V30 22897 H 2183.96 2.90306 4.69496 0
M  V30 22898 H 2186.44 1.10101 4.01269 0
M  V30 22899 H 2185.31 1.01935 5.39352 0
M  V30 22900 H 2185.57 -0.407073 4.40222 0
M  V30 22901 N 2184.63 -1.36623 0.78561 0
M  V30 22902 C 2185.88 -1.98948 0.355551 0
M  V30 22903 C 2186.2 -1.62665 -1.07541 0
M  V30 22904 O 2185.47 -0.89879 -1.74065 0
M  V30 22905 H 2184.05 -0.735869 0.128476 0
M  V30 22906 H 2186.71 -1.66881 1.00681 0
M  V30 22907 H 2185.81 -3.08921 0.444316 0
M  V30 22908 N 2186.11 -0.537304 -1.48158 0
M  V30 22909 C 2187.04 0.210088 -2.32553 0
M  V30 22910 C 2188.02 0.928052 -1.42552 0
M  V30 22911 O 2189.21 0.912405 -1.71432 0
M  V30 22912 C 2186.34 1.25296 -3.23911 0
M  V30 22913 C 2185.29 0.65269 -4.22994 0
M  V30 22914 C 2184.62 1.79875 -5.03537 0
M  V30 22915 C 2185.92 -0.380445 -5.20913 0
M  V30 22916 H 2187.61 -0.494444 -2.95289 0
M  V30 22917 H 2185.16 -0.239229 -1.41999 0
M  V30 22918 H 2187.11 1.78383 -3.81782 0
M  V30 22919 H 2185.83 1.98717 -2.59189 0
M  V30 22920 H 2184.49 0.143286 -3.6632 0
M  V30 22921 H 2184.14 2.52152 -4.35234 0
M  V30 22922 H 2183.84 1.40299 -5.70605 0
M  V30 22923 H 2185.36 2.33326 -5.64262 0
M  V30 22924 H 2186.78 0.0636068 -5.73265 0
M  V30 22925 H 2185.17 -0.693989 -5.96074 0
M  V30 22926 H 2186.24 -1.28359 -4.67602 0
M  V30 22927 N 2187.59 1.55221 -0.272782 0
M  V30 22928 C 2188.81 2.04409 0.350963 0
M  V30 22929 C 2189.24 1.14994 1.48856 0
M  V30 22930 O 2188.6 0.148061 1.80694 0
M  V30 22931 C 2188.64 3.51346 0.811686 0
M  V30 22932 O 2187.75 3.65025 1.91914 0
M  V30 22933 H 2187.09 0.659984 0.0729184 0
M  V30 22934 H 2189.62 2.00523 -0.4064 0
M  V30 22935 H 2189.63 3.92665 1.10806 0
M  V30 22936 H 2188.3 4.15895 -0.0206338 0
M  V30 22937 H 2186.88 3.35608 1.62547 0
M  V30 22938 N 2189.07 2.77022e-05 1.576 0
M  V30 22939 C 2190.31 -0.683462 1.90193 0
M  V30 22940 C 2190.64 -1.74311 0.8741 0
M  V30 22941 O 2189.91 -1.957 -0.0884894 0
M  V30 22942 H 2188.49 -0.25543 0.701972 0
M  V30 22943 H 2191.15 0.0409602 1.94857 0
M  V30 22944 H 2190.24 -1.15469 2.89954 0
M  V30 22945 N 2190.54 -1.55222 -0.272728 0
M  V30 22946 C 2191.48 -1.83048 -1.36266 0
M  V30 22947 C 2192.46 -0.683547 -1.47534 0
M  V30 22948 O 2193.64 -0.926574 -1.64155 0
M  V30 22949 C 2190.77 -1.99234 -2.73904 0
M  V30 22950 C 2189.81 -3.21788 -2.79919 0
M  V30 22951 S 2190.65 -4.79138 -2.39137 0
M  V30 22952 C 2191.8 -4.98297 -3.78749 0
M  V30 22953 H 2192.03 -2.75209 -1.1246 0
M  V30 22954 H 2189.57 -1.46997 -0.472372 0
M  V30 22955 H 2191.53 -2.09244 -3.53167 0
M  V30 22956 H 2190.19 -1.07961 -2.94963 0
M  V30 22957 H 2189.38 -3.30001 -3.8094 0
M  V30 22958 H 2188.98 -3.1037 -2.08677 0
M  V30 22959 H 2191.27 -4.84055 -4.74022 0
M  V30 22960 H 2192.22 -6.00345 -3.75488 0
M  V30 22961 H 2192.62 -4.26277 -3.70065 0
M  V30 22962 N 2192.02 0.537252 -1.4816 0
M  V30 22963 C 2192.99 1.62469 -1.61668 0
M  V30 22964 C 2193.99 1.53139 -0.490422 0
M  V30 22965 O 2195.18 1.56939 -0.756026 0
M  V30 22966 C 2192.31 3.02073 -1.58003 0
M  V30 22967 H 2193.5 1.51834 -2.58624 0
M  V30 22968 H 2191.05 0.758747 -1.36648 0
M  V30 22969 H 2191.79 3.18221 -0.624969 0
M  V30 22970 H 2191.57 3.10254 -2.3976 0
M  V30 22971 H 2193.06 3.81148 -1.70634 0
M  V30 22972 N 2193.5 1.36626 0.785562 0
M  V30 22973 C 2194.75 1.30398 1.5388 0
M  V30 22974 C 2195.06 -0.113418 1.95271 0
M  V30 22975 O 2196.27 -0.298094 2.69859 0
M  V30 22976 C 2194.72 2.28807 2.77804 0
M  V30 22977 C 2194.33 3.76004 2.43568 0
M  V30 22978 C 2196.08 2.31564 3.55779 0
M  V30 22979 C 2193.98 4.66179 3.6391 0
M  V30 22980 H 2192.91 0.484576 0.57767 0
M  V30 22981 H 2195.56 1.6201 0.861677 0
M  V30 22982 H 2193.95 1.90194 3.47336 0
M  V30 22983 H 2195.12 4.23375 1.81908 0
M  V30 22984 H 2193.44 3.76059 1.78797 0
M  V30 22985 H 2196.03 2.96144 4.452 0
M  V30 22986 H 2196.38 1.32527 3.94642 0
M  V30 22987 H 2196.91 2.68814 2.9323 0
M  V30 22988 H 2193.65 5.66293 3.3014 0
M  V30 22989 H 2193.17 4.23522 4.24722 0
M  V30 22990 H 2194.85 4.82639 4.30892 0
M  V30 22991 N 2194.98 -1.01016 1.20969 0
M  V30 22992 C 2195.94 -2.07851 0.965954 0
M  V30 22993 C 2196.94 -1.60684 -0.0610263 0
M  V30 22994 O 2198.13 -1.73312 0.175711 0
M  V30 22995 C 2195.26 -3.37842 0.455573 0
M  V30 22996 H 2196.46 -2.30907 1.91369 0
M  V30 22997 H 2194.01 -1.17915 1.02596 0
M  V30 22998 H 2194.74 -3.20464 -0.497325 0
M  V30 22999 H 2194.53 -3.73405 1.19628 0
M  V30 23000 H 2196.02 -4.16487 0.304741 0
M  V30 23001 N 2196.46 -1.01661 -1.20428 0
M  V30 23002 C 2197.73 -0.621037 -1.85479 0
M  V30 23003 C 2198.11 0.900885 -1.90912 0
M  V30 23004 O 2197.46 1.7926 -1.41697 0
M  V30 23005 C 2197.67 -1.26885 -3.25117 0
M  V30 23006 C 2199.02 -1.3843 -4.014 0
M  V30 23007 O 2200.04 -1.22507 -3.34471 0
M  V30 23008 O 2198.9 -1.6416 -5.21262 0
M  V30 23009 H 2196 -0.21428 -0.798757 0
M  V30 23010 H 2198.54 -1.11399 -1.28017 0
M  V30 23011 H 2197.31 -2.30879 -3.15928 0
M  V30 23012 H 2196.94 -0.762986 -3.90211 0
M  V30 23013 N 2197.93 1.36205 -0.792844 0
M  V30 23014 C 2199.18 1.99445 -0.367365 0
M  V30 23015 C 2199.51 1.62776 1.05914 0
M  V30 23016 O 2198.79 0.884241 1.73238 0
M  V30 23017 C 2199.07 3.56102 -0.535107 0
M  V30 23018 C 2198.92 4.02614 -2.00555 0
M  V30 23019 C 2200.24 4.40074 0.0477417 0
M  V30 23020 H 2197.36 0.724539 -0.134954 0
M  V30 23021 H 2200 1.61566 -0.999822 0
M  V30 23022 H 2198.15 3.885 0.003295 0
M  V30 23023 H 2199.83 3.80688 -2.60527 0
M  V30 23024 H 2198.07 3.54028 -2.50693 0
M  V30 23025 H 2198.74 5.11561 -2.07386 0
M  V30 23026 H 2201.22 4.14056 -0.411895 0
M  V30 23027 H 2200.09 5.4881 -0.0996301 0
M  V30 23028 H 2200.35 4.27144 1.14018 0
M  V30 23029 N 2199.41 0.545154 1.47871 0
M  V30 23030 C 2200.64 0.0211204 2.06889 0
M  V30 23031 C 2201.06 -1.26718 1.39957 0
M  V30 23032 O 2200.41 -1.75741 0.492067 0
M  V30 23033 C 2200.46 -0.190754 3.60996 0
M  V30 23034 O 2200.18 1.04652 4.25417 0
M  V30 23035 C 2201.69 -0.753445 4.3685 0
M  V30 23036 H 2198.91 0.0403753 0.669784 0
M  V30 23037 H 2201.45 0.755128 1.90048 0
M  V30 23038 H 2199.6 -0.874854 3.77392 0
M  V30 23039 H 2200.02 0.836702 5.17783 0
M  V30 23040 H 2201.49 -0.851043 5.454 0
M  V30 23041 H 2201.97 -1.76193 4.02309 0
M  V30 23042 H 2202.58 -0.105429 4.25169 0
M  V30 23043 N 2200.89 -1.55074 0.28101 0
M  V30 23044 C 2201.82 -2.25728 -0.597429 0
M  V30 23045 C 2202.8 -1.24954 -1.15415 0
M  V30 23046 O 2203.99 -1.53686 -1.1872 0
M  V30 23047 C 2201.12 -2.98286 -1.77884 0
M  V30 23048 C 2200.07 -4.06038 -1.35339 0
M  V30 23049 C 2199.4 -4.66203 -2.61838 0
M  V30 23050 C 2200.7 -5.19908 -0.499263 0
M  V30 23051 H 2202.39 -2.99399 -0.00819002 0
M  V30 23052 H 2199.94 -1.44 -0.00249909 0
M  V30 23053 H 2201.89 -3.46426 -2.39931 0
M  V30 23054 H 2200.61 -2.22159 -2.39401 0
M  V30 23055 H 2199.27 -3.58718 -0.756093 0
M  V30 23056 H 2198.92 -3.86738 -3.21625 0
M  V30 23057 H 2198.62 -5.38962 -2.3408 0
M  V30 23058 H 2200.14 -5.17095 -3.24723 0
M  V30 23059 H 2201.56 -5.64065 -1.02488 0
M  V30 23060 H 2199.96 -5.99266 -0.316319 0
M  V30 23061 H 2201.03 -4.82513 0.480544 0
M  V30 23062 N 2202.37 -0.00838561 -1.57598 0
M  V30 23063 C 2203.3 0.979076 -2.11982 0
M  V30 23064 C 2204.28 1.35299 -1.03093 0
M  V30 23065 O 2205.47 1.43526 -1.3082 0
M  V30 23066 C 2202.6 2.26824 -2.62999 0
M  V30 23067 C 2201.55 2.03569 -3.76488 0
M  V30 23068 C 2200.88 3.38571 -4.13852 0
M  V30 23069 C 2202.18 1.39152 -5.03422 0
M  V30 23070 H 2203.87 0.52623 -2.94739 0
M  V30 23071 H 2201.42 0.251679 -1.41784 0
M  V30 23072 H 2203.37 2.96266 -2.99674 0
M  V30 23073 H 2202.09 2.74237 -1.77374 0
M  V30 23074 H 2200.75 1.36551 -3.4022 0
M  V30 23075 H 2200.4 3.83704 -3.25239 0
M  V30 23076 H 2200.1 3.23825 -4.90317 0
M  V30 23077 H 2201.62 4.09315 -4.53093 0
M  V30 23078 H 2203.04 1.98563 -5.37815 0
M  V30 23079 H 2201.43 1.34868 -5.84748 0
M  V30 23080 H 2202.5 0.361783 -4.83548 0
M  V30 23081 N 2203.85 1.55365 0.264492 0
M  V30 23082 C 2205.07 1.80741 1.01722 0
M  V30 23083 C 2205.5 0.583075 1.78835 0
M  V30 23084 O 2204.86 -0.467535 1.75168 0
M  V30 23085 C 2204.9 3.03663 1.94477 0
M  V30 23086 O 2204.01 2.79345 3.03381 0
M  V30 23087 H 2203.35 0.597137 0.290384 0
M  V30 23088 H 2205.88 2.02523 0.290818 0
M  V30 23089 H 2205.89 3.32625 2.36272 0
M  V30 23090 H 2204.56 3.9242 1.37765 0
M  V30 23091 H 2203.14 2.61503 2.6584 0
M  V30 23092 N 2205.33 -0.529387 1.48443 0
M  V30 23093 C 2206.57 -1.28264 1.56181 0
M  V30 23094 C 2206.89 -1.93545 0.237755 0
M  V30 23095 O 2206.16 -1.81355 -0.740747 0
M  V30 23096 H 2204.74 -0.476395 0.575375 0
M  V30 23097 H 2207.41 -0.615988 1.8491 0
M  V30 23098 H 2206.5 -2.06161 2.34316 0
M  V30 23099 N 2206.8 -1.37041 -0.778305 0
M  V30 23100 C 2208.05 -1.31887 -1.53662 0
M  V30 23101 C 2208.38 0.0985962 -1.9425 0
M  V30 23102 O 2207.63 1.07038 -1.63834 0
M  V30 23103 C 2207.93 -2.19773 -2.81842 0
M  V30 23104 C 2207.6 -3.6815 -2.60338 0
M  V30 23105 C 2206.26 -4.08589 -2.54182 0
M  V30 23106 C 2208.61 -4.62179 -2.40915 0
M  V30 23107 C 2205.94 -5.41181 -2.26584 0
M  V30 23108 C 2208.29 -5.95001 -2.14842 0
M  V30 23109 C 2206.96 -6.34551 -2.07126 0
M  V30 23110 H 2206.23 -0.482608 -0.562291 0
M  V30 23111 H 2208.87 -1.69191 -0.897039 0
M  V30 23112 H 2207.18 -1.75442 -3.50325 0
M  V30 23113 H 2208.88 -2.13103 -3.39688 0
M  V30 23114 H 2205.47 -3.36076 -2.6599 0
M  V30 23115 H 2209.65 -4.31802 -2.44665 0
M  V30 23116 H 2204.91 -5.70793 -2.19101 0
M  V30 23117 H 2209.08 -6.67418 -1.9881 0
M  V30 23118 H 2206.71 -7.37219 -1.85505 0
M  V30 23119 N 2208.28 1.00373 -1.21503 0
M  V30 23120 C 2209.23 2.0759 -0.942879 0
M  V30 23121 C 2210.22 1.60574 0.102356 0
M  V30 23122 O 2211.41 1.76678 -0.106741 0
M  V30 23123 C 2208.54 3.39479 -0.510789 0
M  V30 23124 C 2207.62 3.9316 -1.59016 0
M  V30 23125 N 2208.01 4.20193 -2.81551 0
M  V30 23126 C 2206.31 4.21449 -1.45933 0
M  V30 23127 C 2207.01 4.63665 -3.51269 0
M  V30 23128 N 2205.99 4.66713 -2.78711 0
M  V30 23129 H 2209.79 2.26418 -1.87382 0
M  V30 23130 H 2207.3 1.18456 -1.11095 0
M  V30 23131 H 2209.3 4.15839 -0.297175 0
M  V30 23132 H 2207.96 3.22058 0.413379 0
M  V30 23133 H 2208.97 4.0871 -3.18082 0
M  V30 23134 H 2205.65 4.13158 -0.600539 0
M  V30 23135 H 2207.04 4.93294 -4.56192 0
M  V30 23136 N 2209.76 1.02298 1.19887 0
M  V30 23137 C 2210.72 0.60339 2.21115 0
M  V30 23138 C 2211.72 -0.329856 1.5738 0
M  V30 23139 O 2212.91 -0.117672 1.73802 0
M  V30 23140 C 2210.04 -0.117932 3.40696 0
M  V30 23141 H 2211.24 1.49898 2.59751 0
M  V30 23142 H 2208.79 0.813491 1.33462 0
M  V30 23143 H 2209.53 -1.02814 3.07571 0
M  V30 23144 H 2209.31 0.552579 3.88187 0
M  V30 23145 H 2210.8 -0.398623 4.15693 0
M  V30 23146 N 2211.24 -1.35782 0.800057 0
M  V30 23147 C 2212.17 -2.32459 0.220225 0
M  V30 23148 C 2213.15 -1.57162 -0.650702 0
M  V30 23149 O 2214.33 -1.85264 -0.582326 0
M  V30 23150 C 2211.46 -3.41403 -0.637293 0
M  V30 23151 C 2210.42 -4.27788 0.134606 0
M  V30 23152 C 2209.74 -5.27994 -0.844192 0
M  V30 23153 C 2211.04 -5.05086 1.32988 0
M  V30 23154 H 2212.74 -2.81201 1.02792 0
M  V30 23155 H 2210.28 -1.35198 0.495741 0
M  V30 23156 H 2212.24 -4.08033 -1.05295 0
M  V30 23157 H 2210.96 -2.91253 -1.4778 0
M  V30 23158 H 2209.62 -3.62729 0.53136 0
M  V30 23159 H 2209.27 -4.74114 -1.68002 0
M  V30 23160 H 2208.97 -5.86661 -0.332081 0
M  V30 23161 H 2210.49 -5.97496 -1.25819 0
M  V30 23162 H 2211.91 -5.64697 0.989439 0
M  V30 23163 H 2210.3 -5.73217 1.77603 0
M  V30 23164 H 2211.37 -4.36108 2.11986 0
M  V30 23165 N 2212.72 -0.552988 -1.4758 0
M  V30 23166 C 2214.13 -0.212452 -1.5818 0
M  V30 23167 C 2214.33 1.28493 -1.55215 0
M  V30 23168 O 2213.39 2.06482 -1.45333 0
M  V30 23169 C 2214.7 -0.835368 -2.88863 0
M  V30 23170 C 2216.25 -0.806209 -3.02439 0
M  V30 23171 C 2216.72 -1.40812 -4.35817 0
M  V30 23172 N 2218.21 -1.37111 -4.42442 0
M  V30 23173 C 2218.95 -1.80651 -5.44199 0
M  V30 23174 N 2218.45 -2.32027 -6.5279 0
M  V30 23175 N 2220.24 -1.71747 -5.35219 0
M  V30 23176 H 2212.39 -1.5259 -1.4775 0
M  V30 23177 H 2214.65 -0.636076 -0.70293 0
M  V30 23178 H 2214.36 -1.88754 -2.96757 0
M  V30 23179 H 2214.23 -0.325914 -3.75789 0
M  V30 23180 H 2216.62 0.237265 -2.94145 0
M  V30 23181 H 2216.7 -1.35338 -2.17065 0
M  V30 23182 H 2216.34 -2.45064 -4.44866 0
M  V30 23183 H 2216.27 -0.83643 -5.19915 0
M  V30 23184 H 2218.77 -0.995266 -3.64558 0
M  V30 23185 H 2219.08 -2.63184 -7.26604 0
M  V30 23186 H 2217.42 -2.36035 -6.53691 0
M  V30 23187 H 2220.61 -1.3139 -4.49282 0
M  V30 23188 H 2220.79 -2.05998 -6.14385 0
M  V30 23189 N 2214.19 1.54923 -0.28923 0
M  V30 23190 C 2215.16 2.21763 0.579105 0
M  V30 23191 C 2216.16 1.19992 1.07045 0
M  V30 23192 O 2217.35 1.44805 0.968359 0
M  V30 23193 C 2214.48 2.89473 1.8005 0
M  V30 23194 H 2215.67 2.999 -0.00470179 0
M  V30 23195 H 2213.22 1.56249 -0.0399581 0
M  V30 23196 H 2213.96 2.15386 2.42445 0
M  V30 23197 H 2213.74 3.64067 1.45595 0
M  V30 23198 H 2215.23 3.40498 2.41767 0
M  V30 23199 N 2215.67 0.0167433 1.57591 0
M  V30 23200 C 2216.95 -0.702532 1.82548 0
M  V30 23201 C 2217.33 -1.91045 0.898051 0
M  V30 23202 O 2216.68 -2.28447 -0.0493055 0
M  V30 23203 C 2216.89 -1.09246 3.31461 0
M  V30 23204 C 2218.23 -1.4893 3.97624 0
M  V30 23205 O 2219.26 -1.18578 3.35883 0
M  V30 23206 O 2218.12 -2.05433 5.06418 0
M  V30 23207 H 2215.21 -0.343531 0.752274 0
M  V30 23208 H 2217.76 0.0434794 1.69644 0
M  V30 23209 H 2216.53 -0.232201 3.9061 0
M  V30 23210 H 2216.15 -1.89703 3.49426 0
M  V30 23211 N 2217.15 -1.55503 -0.256249 0
M  V30 23212 C 2218.08 -1.92542 -1.32098 0
M  V30 23213 C 2219.06 -0.789221 -1.50683 0
M  V30 23214 O 2220.25 -1.04874 -1.63447 0
M  V30 23215 C 2217.38 -2.21197 -2.67748 0
M  V30 23216 C 2216.33 -3.3698 -2.63872 0
M  V30 23217 C 2215.66 -3.51154 -4.0323 0
M  V30 23218 C 2216.96 -4.72925 -2.21674 0
M  V30 23219 H 2218.65 -2.81726 -1.01346 0
M  V30 23220 H 2216.2 -1.35548 -0.486081 0
M  V30 23221 H 2218.15 -2.45697 -3.42361 0
M  V30 23222 H 2216.87 -1.2883 -3.00117 0
M  V30 23223 H 2215.53 -3.12474 -1.91717 0
M  V30 23224 H 2215.18 -2.56224 -4.32849 0
M  V30 23225 H 2214.88 -4.2901 -4.01527 0
M  V30 23226 H 2216.4 -3.77965 -4.79557 0
M  V30 23227 H 2217.82 -4.96859 -2.86015 0
M  V30 23228 H 2216.22 -5.53816 -2.311 0
M  V30 23229 H 2217.29 -4.70617 -1.16825 0
M  V30 23230 N 2218.63 0.521507 -1.48721 0
M  V30 23231 C 2219.54 1.652 -1.66572 0
M  V30 23232 C 2220.55 1.65138 -0.548226 0
M  V30 23233 O 2221.73 1.83934 -0.820371 0
M  V30 23234 C 2218.8 3.01639 -1.70923 0
M  V30 23235 C 2217.86 3.1249 -2.94361 0
M  V30 23236 C 2217.09 4.42421 -2.98495 0
M  V30 23237 O 2217.31 5.3002 -2.10796 0
M  V30 23238 O 2216.25 4.57815 -3.90754 0
M  V30 23239 H 2220.07 1.53075 -2.62301 0
M  V30 23240 H 2217.66 0.695541 -1.32222 0
M  V30 23241 H 2219.54 3.82768 -1.76256 0
M  V30 23242 H 2218.21 3.1407 -0.783688 0
M  V30 23243 H 2217.12 2.30625 -2.94556 0
M  V30 23244 H 2218.45 3.04979 -3.86327 0
M  V30 23245 N 2220.11 1.37452 0.771027 0
M  V30 23246 C 2221.05 1.33273 1.88433 0
M  V30 23247 C 2222.02 0.198165 1.64914 0
M  V30 23248 O 2223.21 0.387639 1.86821 0
M  V30 23249 C 2220.35 1.14627 3.25507 0
M  V30 23250 C 2219.46 2.3732 3.60975 0
M  V30 23251 C 2218.6 2.11541 4.87261 0
M  V30 23252 C 2217.64 3.30097 5.15463 0
M  V30 23253 N 2216.77 3.03864 6.32938 0
M  V30 23254 H 2221.61 2.28458 1.9134 0
M  V30 23255 H 2219.15 1.13525 0.935446 0
M  V30 23256 H 2221.11 1.01838 4.0458 0
M  V30 23257 H 2219.74 0.230893 3.21973 0
M  V30 23258 H 2218.79 2.60847 2.76881 0
M  V30 23259 H 2220.1 3.25736 3.77754 0
M  V30 23260 H 2219.26 1.95787 5.74241 0
M  V30 23261 H 2217.99 1.20465 4.72588 0
M  V30 23262 H 2217 3.46389 4.26959 0
M  V30 23263 H 2218.22 4.22025 5.32045 0
M  V30 23264 H 2216.17 2.15418 6.19622 0
M  V30 23265 H 2216.09 3.85823 6.50136 0
M  V30 23266 H 2217.36 2.91729 7.22852 0
M  V30 23267 N 2221.58 -0.997276 1.22033 0
M  V30 23268 C 2222.51 -2.10493 1.01069 0
M  V30 23269 C 2223.5 -1.69968 -0.0669243 0
M  V30 23270 O 2224.68 -1.9397 0.0944328 0
M  V30 23271 C 2221.81 -3.42373 0.582934 0
M  V30 23272 C 2220.76 -3.96727 1.60599 0
M  V30 23273 C 2220.09 -5.24603 1.03421 0
M  V30 23274 C 2221.39 -4.27909 2.99485 0
M  V30 23275 H 2223.08 -2.28289 1.93712 0
M  V30 23276 H 2220.63 -1.09705 0.93278 0
M  V30 23277 H 2222.58 -4.19268 0.423406 0
M  V30 23278 H 2221.31 -3.24392 -0.379156 0
M  V30 23279 H 2219.97 -3.21959 1.75322 0
M  V30 23280 H 2219.61 -5.0296 0.0636064 0
M  V30 23281 H 2219.31 -5.61935 1.71764 0
M  V30 23282 H 2220.84 -6.04135 0.886172 0
M  V30 23283 H 2222.25 -4.95617 2.88161 0
M  V30 23284 H 2220.65 -4.76403 3.64912 0
M  V30 23285 H 2221.72 -3.35864 3.49748 0
M  V30 23286 N 2223.06 -1.02932 -1.19343 0
M  V30 23287 C 2224.29 -0.745678 -1.92995 0
M  V30 23288 C 2224.71 0.695558 -1.7552 0
M  V30 23289 O 2224.06 1.47304 -1.0774 0
M  V30 23290 C 2224.11 -1.08798 -3.44739 0
M  V30 23291 O 2223.83 -2.47262 -3.61653 0
M  V30 23292 C 2225.34 -0.827206 -4.35514 0
M  V30 23293 H 2222.56 -0.272812 -0.613037 0
M  V30 23294 H 2225.1 -1.37393 -1.51471 0
M  V30 23295 H 2223.25 -0.504899 -3.84096 0
M  V30 23296 H 2223.67 -2.60023 -4.55509 0
M  V30 23297 H 2225.14 -1.11668 -5.40587 0
M  V30 23298 H 2225.62 0.238359 -4.38553 0
M  V30 23299 H 2226.23 -1.39304 -4.01839 0
M  V30 23300 N 2224.54 1.35356 -0.807246 0
M  V30 23301 C 2225.77 2.03519 -0.399345 0
M  V30 23302 C 2226.19 1.60434 0.981958 0
M  V30 23303 O 2225.55 0.781328 1.636 0
M  V30 23304 C 2225.6 3.57233 -0.491615 0
M  V30 23305 O 2224.7 4.09422 0.494682 0
M  V30 23306 H 2224.04 0.642736 -0.166693 0
M  V30 23307 H 2226.57 1.72939 -1.09331 0
M  V30 23308 H 2226.58 4.06394 -0.361659 0
M  V30 23309 H 2225.26 3.87941 -1.49914 0
M  V30 23310 H 2223.83 3.71482 0.324911 0
M  V30 23311 N 2226.02 0.560807 1.47284 0
M  V30 23312 C 2226.95 -0.173064 2.32858 0
M  V30 23313 C 2227.93 -0.905255 1.44011 0
M  V30 23314 O 2229.11 -0.885016 1.72862 0
M  V30 23315 C 2226.24 -1.20127 3.25863 0
M  V30 23316 C 2225.2 -0.585313 4.23979 0
M  V30 23317 C 2224.52 -1.71841 5.06335 0
M  V30 23318 C 2225.82 0.46327 5.20241 0
M  V30 23319 H 2227.52 0.541359 2.94465 0
M  V30 23320 H 2225.06 0.261789 1.416 0
M  V30 23321 H 2227.02 -1.72286 3.84572 0
M  V30 23322 H 2225.74 -1.94568 2.62318 0
M  V30 23323 H 2224.4 -0.0849896 3.66501 0
M  V30 23324 H 2224.05 -2.45195 4.3919 0
M  V30 23325 H 2223.75 -1.31203 5.72765 0
M  V30 23326 H 2225.27 -2.24319 5.67902 0
M  V30 23327 H 2226.69 0.0276027 5.73293 0
M  V30 23328 H 2225.08 0.788731 5.94894 0
M  V30 23329 H 2226.15 1.35782 4.65501 0
M  V30 23330 N 2227.5 -1.54768 0.297442 0
M  V30 23331 C 2228.72 -2.04941 -0.318399 0
M  V30 23332 C 2229.15 -1.17347 -1.47007 0
M  V30 23333 O 2228.5 -0.17679 -1.80436 0
M  V30 23334 C 2228.55 -3.52593 -0.755687 0
M  V30 23335 O 2227.66 -3.68032 -1.86082 0
M  V30 23336 H 2227 -0.661061 -0.0624094 0
M  V30 23337 H 2229.53 -1.99851 0.43825 0
M  V30 23338 H 2229.54 -3.94378 -1.04545 0
M  V30 23339 H 2228.21 -4.15809 0.0867964 0
M  V30 23340 H 2226.79 -3.38152 -1.57188 0
M  V30 23341 N 2228.97 -0.0251005 -1.5758 0
M  V30 23342 C 2230.25 0.692841 -1.82918 0
M  V30 23343 C 2230.63 1.90566 -0.90817 0
M  V30 23344 O 2229.98 2.2847 0.0371897 0
M  V30 23345 C 2230.19 1.07486 -3.32036 0
M  V30 23346 C 2231.54 1.46819 -3.98408 0
M  V30 23347 O 2232.56 1.16796 -3.36507 0
M  V30 23348 O 2231.42 2.02745 -5.07501 0
M  V30 23349 H 2228.51 0.339537 -0.754085 0
M  V30 23350 H 2231.06 -0.0524754 -1.69619 0
M  V30 23351 H 2229.83 0.211483 -3.90728 0
M  V30 23352 H 2229.46 1.87848 -3.50427 0
M  V30 23353 N 2230.45 1.55637 0.247999 0
M  V30 23354 C 2231.87 1.48036 0.596457 0
M  V30 23355 C 2232.07 0.715073 1.88385 0
M  V30 23356 O 2231.12 0.243988 2.51318 0
M  V30 23357 C 2232.44 2.92434 0.700207 0
M  V30 23358 C 2233.99 3.02798 0.792606 0
M  V30 23359 C 2234.46 4.48501 0.927926 0
M  V30 23360 N 2235.95 4.52435 0.992824 0
M  V30 23361 C 2236.69 5.6242 1.11677 0
M  V30 23362 N 2236.18 6.82217 1.20633 0
M  V30 23363 N 2237.98 5.50214 1.14984 0
M  V30 23364 H 2230.13 2.03833 -0.597145 0
M  V30 23365 H 2232.39 0.925361 -0.205941 0
M  V30 23366 H 2232.1 3.51261 -0.17572 0
M  V30 23367 H 2231.97 3.42859 1.57249 0
M  V30 23368 H 2234.36 2.44053 1.65899 0
M  V30 23369 H 2234.44 2.55585 -0.104807 0
M  V30 23370 H 2234.08 5.07857 0.0661079 0
M  V30 23371 H 2234.01 4.93395 1.84036 0
M  V30 23372 H 2236.5 3.6615 0.934999 0
M  V30 23373 H 2236.82 7.61788 1.29995 0
M  V30 23374 H 2235.16 6.84979 1.17593 0
M  V30 23375 H 2238.35 4.55557 1.07635 0
M  V30 23376 H 2238.52 6.35967 1.24299 0
M  V30 23377 N 2231.93 -0.513613 1.48996 0
M  V30 23378 C 2233.16 -1.29097 1.61299 0
M  V30 23379 C 2233.57 -1.87136 0.278689 0
M  V30 23380 O 2232.91 -1.67946 -0.744295 0
M  V30 23381 C 2232.97 -2.46874 2.6133 0
M  V30 23382 C 2232.64 -2.098 4.05996 0
M  V30 23383 C 2233.64 -1.6451 4.93186 0
M  V30 23384 C 2231.32 -2.19821 4.51646 0
M  V30 23385 C 2233.31 -1.29729 6.24059 0
M  V30 23386 C 2231 -1.84651 5.82535 0
M  V30 23387 C 2232 -1.39678 6.68565 0
M  V30 23388 O 2231.69 -1.04978 7.97016 0
M  V30 23389 H 2231.42 -0.39824 0.546243 0
M  V30 23390 H 2233.97 -0.624556 1.95674 0
M  V30 23391 H 2232.2 -3.16551 2.2211 0
M  V30 23392 H 2233.89 -3.08918 2.63295 0
M  V30 23393 H 2234.66 -1.56225 4.5915 0
M  V30 23394 H 2230.54 -2.53779 3.8486 0
M  V30 23395 H 2234.08 -0.945537 6.91162 0
M  V30 23396 H 2229.98 -1.92583 6.16102 0
M  V30 23397 H 2230.75 -1.18235 8.09915 0
M  V30 23398 N 2233.41 -1.37859 -0.763727 0
M  V30 23399 C 2234.66 -1.33707 -1.52481 0
M  V30 23400 C 2234.99 0.075927 -1.94052 0
M  V30 23401 O 2234.26 1.03498 -1.64677 0
M  V30 23402 C 2234.55 -2.28353 -2.78437 0
M  V30 23403 C 2234.4 -3.78468 -2.43069 0
M  V30 23404 C 2235.72 -2.21304 -3.80411 0
M  V30 23405 H 2232.84 -0.487014 -0.55316 0
M  V30 23406 H 2235.48 -1.68625 -0.875532 0
M  V30 23407 H 2233.63 -1.98705 -3.33839 0
M  V30 23408 H 2235.3 -4.18746 -1.93519 0
M  V30 23409 H 2233.54 -3.96644 -1.75659 0
M  V30 23410 H 2234.22 -4.40138 -3.33141 0
M  V30 23411 H 2236.69 -2.47455 -3.34523 0
M  V30 23412 H 2235.57 -2.89656 -4.66252 0
M  V30 23413 H 2235.83 -1.20856 -4.2526 0
M  V30 23414 N 2234.89 0.990791 -1.22561 0
M  V30 23415 C 2236.11 1.77144 -1.07865 0
M  V30 23416 C 2236.54 1.84497 0.366414 0
M  V30 23417 O 2235.9 1.29898 1.26476 0
M  V30 23418 C 2235.94 3.18178 -1.69691 0
M  V30 23419 O 2235.05 4.01261 -0.952017 0
M  V30 23420 H 2234.39 0.545404 -0.378722 0
M  V30 23421 H 2236.92 1.24447 -1.62401 0
M  V30 23422 H 2236.93 3.68799 -1.74502 0
M  V30 23423 H 2235.6 3.12141 -2.74847 0
M  V30 23424 H 2234.18 3.5979 -0.980075 0
M  V30 23425 N 2236.37 1.03564 1.18795 0
M  V30 23426 C 2237.32 0.592763 2.2016 0
M  V30 23427 C 2238.3 -0.362106 1.56772 0
M  V30 23428 O 2239.49 -0.181978 1.76062 0
M  V30 23429 C 2236.62 -0.0480421 3.43266 0
M  V30 23430 C 2235.71 0.929672 4.13785 0
M  V30 23431 N 2236.1 2.09475 4.60384 0
M  V30 23432 C 2234.4 0.754577 4.3957 0
M  V30 23433 C 2235.1 2.71196 5.14614 0
M  V30 23434 N 2234.07 1.99108 5.05823 0
M  V30 23435 H 2237.87 1.4807 2.53875 0
M  V30 23436 H 2235.39 0.903538 1.34944 0
M  V30 23437 H 2237.39 -0.382985 4.15137 0
M  V30 23438 H 2236.05 -0.931581 3.11049 0
M  V30 23439 H 2237.06 2.47387 4.54994 0
M  V30 23440 H 2233.73 -0.0792979 4.17425 0
M  V30 23441 H 2235.12 3.69905 5.6091 0
M  V30 23442 N 2237.84 -1.34926 0.814413 0
M  V30 23443 C 2239.09 -1.98541 0.398458 0
M  V30 23444 C 2239.42 -1.64591 -1.03635 0
M  V30 23445 O 2238.67 -0.905191 -1.73507 0
M  V30 23446 C 2238.97 -3.5333 0.537843 0
M  V30 23447 C 2238.64 -4.07169 1.93711 0
M  V30 23448 C 2237.3 -4.21584 2.31991 0
M  V30 23449 C 2239.65 -4.36232 2.85221 0
M  V30 23450 C 2236.98 -4.62385 3.61133 0
M  V30 23451 C 2239.33 -4.78475 4.13817 0
M  V30 23452 C 2238 -4.91096 4.52086 0
M  V30 23453 H 2237.27 -0.726513 0.145806 0
M  V30 23454 H 2239.91 -1.61011 1.03672 0
M  V30 23455 H 2238.22 -3.91368 -0.183837 0
M  V30 23456 H 2239.92 -4.00517 0.196658 0
M  V30 23457 H 2236.51 -3.96406 1.62973 0
M  V30 23458 H 2240.69 -4.24641 2.56893 0
M  V30 23459 H 2235.95 -4.70346 3.90621 0
M  V30 23460 H 2240.12 -4.99923 4.84819 0
M  V30 23461 H 2237.75 -5.22468 5.52205 0
M  V30 23462 N 2239.32 -0.56861 -1.46985 0
M  V30 23463 C 2240.23 0.175509 -2.33943 0
M  V30 23464 C 2241.25 0.900383 -1.48893 0
M  V30 23465 O 2242.42 0.866728 -1.81796 0
M  V30 23466 C 2239.49 1.18518 -3.25813 0
M  V30 23467 C 2238.55 0.466507 -4.26758 0
M  V30 23468 C 2237.78 1.42808 -5.14239 0
M  V30 23469 O 2238.01 2.6637 -5.04384 0
M  V30 23470 O 2236.94 0.946349 -5.94414 0
M  V30 23471 H 2240.77 -0.538089 -2.98895 0
M  V30 23472 H 2238.35 -0.329122 -1.4573 0
M  V30 23473 H 2240.23 1.76773 -3.8253 0
M  V30 23474 H 2238.91 1.8805 -2.63475 0
M  V30 23475 H 2237.81 -0.157517 -3.73768 0
M  V30 23476 H 2239.15 -0.187571 -4.91842 0
M  V30 23477 N 2240.8 1.54608 -0.305646 0
M  V30 23478 C 2242.03 2.04643 0.304739 0
M  V30 23479 C 2242.44 1.18271 1.47165 0
M  V30 23480 O 2241.8 0.209359 1.81295 0
M  V30 23481 C 2241.85 3.53496 0.756502 0
M  V30 23482 O 2241.57 4.36585 -0.363967 0
M  V30 23483 C 2243.07 4.19549 1.43156 0
M  V30 23484 H 2240.29 0.667792 0.0655364 0
M  V30 23485 H 2242.84 1.99563 -0.446627 0
M  V30 23486 H 2240.99 3.58921 1.45788 0
M  V30 23487 H 2241.41 5.24499 -0.0114043 0
M  V30 23488 H 2242.88 5.2521 1.69877 0
M  V30 23489 H 2243.36 3.69567 2.37312 0
M  V30 23490 H 2243.96 4.18212 0.773233 0
M  V30 23491 N 2242.28 0.033457 1.57564 0
M  V30 23492 C 2243.19 -0.962535 2.13945 0
M  V30 23493 C 2244.2 -1.35404 1.09278 0
M  V30 23494 O 2245.38 -1.43457 1.41358 0
M  V30 23495 C 2242.44 -2.22492 2.65891 0
M  V30 23496 C 2241.51 -1.89343 3.85289 0
M  V30 23497 C 2240.74 -3.09564 4.34748 0
M  V30 23498 O 2240.96 -4.22364 3.8336 0
M  V30 23499 O 2239.9 -2.91609 5.26543 0
M  V30 23500 H 2243.72 -0.513116 2.99334 0
M  V30 23501 H 2241.31 -0.187404 1.4822 0
M  V30 23502 H 2243.19 -2.96592 2.99351 0
M  V30 23503 H 2241.86 -2.66607 1.83583 0
M  V30 23504 H 2240.77 -1.12614 3.56748 0
M  V30 23505 H 2242.1 -1.50042 4.68773 0
M  V30 23506 N 2243.76 -1.55766 -0.239741 0
M  V30 23507 C 2245 -1.77581 -0.96486 0
M  V30 23508 C 2245.32 -0.598732 -1.85581 0
M  V30 23509 O 2244.59 0.385193 -1.92076 0
M  V30 23510 H 2243.17 -0.65494 -0.359253 0
M  V30 23511 H 2245.84 -1.93212 -0.255967 0
M  V30 23512 H 2244.93 -2.69011 -1.58238 0
M  V30 23513 N 2245.23 0.505704 -1.49266 0
M  V30 23514 C 2246.64 1.08731 -1.51771 0
M  V30 23515 C 2247 1.93874 -0.301226 0
M  V30 23516 O 2246.12 2.08218 0.589419 0
M  V30 23517 C 2246.72 1.97862 -2.7502 0
M  V30 23518 C 2245.27 2.51194 -2.80319 0
M  V30 23519 C 2244.42 1.28704 -2.45623 0
M  V30 23520 H 2247.37 0.289827 -1.56031 0
M  V30 23521 H 2247.39 2.82486 -2.54915 0
M  V30 23522 H 2246.91 1.35866 -3.63541 0
M  V30 23523 H 2245.01 3.16842 -1.96067 0
M  V30 23524 H 2245.12 2.88668 -3.82371 0
M  V30 23525 H 2243.48 1.61074 -1.973 0
M  V30 23526 H 2244.27 0.684241 -3.36412 0
M  V30 23527 N 2246.71 1.38262 0.756405 0
M  V30 23528 C 2247.66 1.31769 1.86067 0
M  V30 23529 C 2248.65 0.202511 1.5962 0
M  V30 23530 O 2249.84 0.438241 1.71489 0
M  V30 23531 C 2246.97 1.14226 3.2374 0
M  V30 23532 C 2246.05 2.30354 3.56087 0
M  V30 23533 N 2246.44 3.55789 3.5951 0
M  V30 23534 C 2244.74 2.22844 3.86337 0
M  V30 23535 C 2245.44 4.32458 3.89044 0
M  V30 23536 N 2244.42 3.61779 4.0573 0
M  V30 23537 H 2248.22 2.26744 1.86988 0
M  V30 23538 H 2245.74 1.31453 0.953619 0
M  V30 23539 H 2247.73 1.07659 4.0276 0
M  V30 23540 H 2246.39 0.20182 3.24072 0
M  V30 23541 H 2247.4 3.89497 3.4134 0
M  V30 23542 H 2244.08 1.36944 3.94402 0
M  V30 23543 H 2245.47 5.41087 3.9834 0
M  V30 23544 N 2248.19 -0.984277 1.23084 0
M  V30 23545 C 2249.44 -1.72759 1.06217 0
M  V30 23546 C 2249.77 -1.90024 -0.40055 0
M  V30 23547 O 2249.04 -1.44969 -1.2967 0
M  V30 23548 C 2249.33 -3.12814 1.7838 0
M  V30 23549 C 2249.18 -3.03143 3.32301 0
M  V30 23550 C 2250.5 -4.12159 1.54316 0
M  V30 23551 H 2247.62 -0.627054 0.387262 0
M  V30 23552 H 2250.26 -1.14614 1.51538 0
M  V30 23553 H 2248.41 -3.62454 1.39854 0
M  V30 23554 H 2250.08 -2.61057 3.80325 0
M  V30 23555 H 2248.33 -2.39741 3.61534 0
M  V30 23556 H 2249 -4.02289 3.77979 0
M  V30 23557 H 2251.47 -3.7131 1.87797 0
M  V30 23558 H 2250.35 -5.08254 2.0729 0
M  V30 23559 H 2250.61 -4.39512 0.477649 0
M  V30 23560 N 2249.67 -1.04192 -1.18244 0
M  V30 23561 C 2250.6 -0.654953 -2.24126 0
M  V30 23562 C 2251.58 0.342422 -1.66618 0
M  V30 23563 O 2252.76 0.222243 -1.92924 0
M  V30 23564 C 2249.89 -0.0184367 -3.47295 0
M  V30 23565 C 2248.85 -0.939488 -4.17562 0
M  V30 23566 C 2248.17 -0.16738 -5.34438 0
M  V30 23567 C 2249.47 -2.25916 -4.70913 0
M  V30 23568 H 2251.17 -1.54012 -2.5675 0
M  V30 23569 H 2248.71 -0.741971 -1.23413 0
M  V30 23570 H 2250.67 0.264009 -4.20572 0
M  V30 23571 H 2249.39 0.901609 -3.13909 0
M  V30 23572 H 2248.05 -1.20634 -3.46184 0
M  V30 23573 H 2247.7 0.755112 -4.973 0
M  V30 23574 H 2247.4 -0.781003 -5.82387 0
M  V30 23575 H 2248.92 0.108018 -6.10504 0
M  V30 23576 H 2250.34 -2.03733 -5.35879 0
M  V30 23577 H 2248.73 -2.82586 -5.29401 0
M  V30 23578 H 2249.8 -2.90477 -3.88267 0
M  V30 23579 N 2251.15 1.34492 -0.821557 0
M  V30 23580 C 2252.08 2.32079 -0.257179 0
M  V30 23581 C 2253.06 1.58177 0.625617 0
M  V30 23582 O 2254.24 1.86167 0.552779 0
M  V30 23583 C 2251.37 3.42373 0.582898 0
M  V30 23584 C 2250.33 4.2752 -0.202646 0
M  V30 23585 C 2249.65 5.2927 0.760086 0
M  V30 23586 C 2250.95 5.02906 -1.41007 0
M  V30 23587 H 2252.65 2.79531 -1.07252 0
M  V30 23588 H 2250.19 1.34392 -0.517187 0
M  V30 23589 H 2252.15 4.09657 0.9879 0
M  V30 23590 H 2250.87 2.93568 1.43128 0
M  V30 23591 H 2249.53 3.61837 -0.589 0
M  V30 23592 H 2249.18 4.76727 1.60438 0
M  V30 23593 H 2248.88 5.87115 0.238706 0
M  V30 23594 H 2250.4 5.99422 1.16297 0
M  V30 23595 H 2251.81 5.63052 -1.07915 0
M  V30 23596 H 2250.21 5.70319 -1.86699 0
M  V30 23597 H 2251.28 4.3268 -2.18897 0
M  V30 23598 N 2252.62 0.576397 1.46681 0
M  V30 23599 C 2253.85 0.0649056 2.06498 0
M  V30 23600 C 2254.26 -1.24268 1.42668 0
M  V30 23601 O 2253.61 -1.7607 0.523917 0
M  V30 23602 C 2253.67 -0.181753 3.5904 0
M  V30 23603 C 2253.33 1.03928 4.45026 0
M  V30 23604 C 2254.33 1.94974 4.81955 0
M  V30 23605 C 2252.01 1.25935 4.86257 0
M  V30 23606 C 2254.01 3.06381 5.58936 0
M  V30 23607 C 2251.69 2.37648 5.62998 0
M  V30 23608 C 2252.69 3.277 5.99251 0
M  V30 23609 O 2252.38 4.37473 6.74442 0
M  V30 23610 H 2252.11 0.0516105 0.674027 0
M  V30 23611 H 2254.67 0.794984 1.89392 0
M  V30 23612 H 2252.9 -0.96637 3.7443 0
M  V30 23613 H 2254.59 -0.640977 4.00807 0
M  V30 23614 H 2255.35 1.79185 4.50686 0
M  V30 23615 H 2251.23 0.567529 4.57493 0
M  V30 23616 H 2254.77 3.76695 5.87151 0
M  V30 23617 H 2250.67 2.53402 5.93681 0
M  V30 23618 H 2251.44 4.35761 6.9286 0
M  V30 23619 N 2254.1 -1.54444 0.313841 0
M  V30 23620 C 2255.35 -2.00389 -0.29164 0
M  V30 23621 C 2255.68 -1.20213 -1.52902 0
M  V30 23622 O 2254.93 -0.269741 -1.93832 0
M  V30 23623 C 2255.23 -3.50865 -0.680324 0
M  V30 23624 C 2254.9 -4.4858 0.456778 0
M  V30 23625 C 2253.56 -4.75017 0.768908 0
M  V30 23626 C 2255.91 -5.06695 1.22107 0
M  V30 23627 C 2253.24 -5.56828 1.84822 0
M  V30 23628 C 2255.59 -5.89681 2.2904 0
M  V30 23629 C 2254.26 -6.14423 2.60845 0
M  V30 23630 H 2253.53 -0.733275 -0.106719 0
M  V30 23631 H 2256.17 -1.8648 0.435603 0
M  V30 23632 H 2254.48 -3.6245 -1.48785 0
M  V30 23633 H 2256.17 -3.8385 -1.1602 0
M  V30 23634 H 2252.76 -4.28117 0.203413 0
M  V30 23635 H 2256.95 -4.86261 0.993182 0
M  V30 23636 H 2252.2 -5.74232 2.09922 0
M  V30 23637 H 2256.38 -6.33734 2.88711 0
M  V30 23638 H 2254.01 -6.77606 3.44608 0
M  V30 23639 N 2255.58 -0.0418125 -1.57545 0
M  V30 23640 C 2256.86 0.673401 -1.83643 0
M  V30 23641 C 2257.24 1.89592 -0.928331 0
M  V30 23642 O 2256.59 2.28496 0.0129553 0
M  V30 23643 C 2256.8 1.03958 -3.33157 0
M  V30 23644 C 2258.14 1.42585 -3.99943 0
M  V30 23645 O 2259.17 1.1322 -3.37727 0
M  V30 23646 O 2258.03 1.97351 -5.09622 0
M  V30 23647 H 2255.12 0.331519 -0.757644 0
M  V30 23648 H 2257.67 -0.0704628 -1.69554 0
M  V30 23649 H 2256.44 0.170029 -3.9093 0
M  V30 23650 H 2256.06 1.8412 -3.524 0
M  V30 23651 N 2257.06 1.55891 0.231477 0
M  V30 23652 C 2258.28 1.82858 0.978657 0
M  V30 23653 C 2258.71 0.620877 1.77558 0
M  V30 23654 O 2258.07 -0.430274 1.7612 0
M  V30 23655 C 2258.11 3.0772 1.87992 0
M  V30 23656 O 2257.22 2.85717 2.97388 0
M  V30 23657 H 2256.56 0.603162 0.277653 0
M  V30 23658 H 2259.09 2.03094 0.247795 0
M  V30 23659 H 2259.1 3.37562 2.29164 0
M  V30 23660 H 2257.77 3.95254 1.2941 0
M  V30 23661 H 2256.35 2.67083 2.60233 0
M  V30 23662 N 2258.54 -0.497781 1.49532 0
M  V30 23663 C 2259.78 -1.25355 1.59417 0
M  V30 23664 C 2260.12 -1.9215 0.281455 0
M  V30 23665 O 2259.39 -1.80873 -0.715217 0
M  V30 23666 C 2259.67 -2.31805 2.7557 0
M  V30 23667 C 2259.53 -1.69491 4.16645 0
M  V30 23668 C 2260.85 -3.33341 2.87353 0
M  V30 23669 H 2257.96 -0.454398 0.580252 0
M  V30 23670 H 2260.61 -0.55123 1.81828 0
M  V30 23671 H 2258.76 -2.91707 2.56592 0
M  V30 23672 H 2260.43 -1.13391 4.47147 0
M  V30 23673 H 2258.67 -0.998904 4.22143 0
M  V30 23674 H 2259.34 -2.46717 4.93796 0
M  V30 23675 H 2261.82 -2.83433 3.04639 0
M  V30 23676 H 2260.69 -4.05181 3.70296 0
M  V30 23677 H 2260.96 -3.95861 1.96841 0
M  V30 23678 N 2260.01 -1.38661 -0.749062 0
M  V30 23679 C 2261.43 -1.31369 -1.32662 0
M  V30 23680 C 2261.78 0.0284495 -1.96179 0
M  V30 23681 O 2260.9 0.930536 -1.95371 0
M  V30 23682 C 2261.5 -2.37909 -2.41215 0
M  V30 23683 C 2260.06 -2.34181 -2.9468 0
M  V30 23684 C 2259.2 -2.20536 -1.68104 0
M  V30 23685 H 2262.15 -1.48953 -0.547602 0
M  V30 23686 H 2262.17 -2.03886 -3.21264 0
M  V30 23687 H 2261.69 -3.3558 -1.94956 0
M  V30 23688 H 2259.79 -1.40106 -3.45255 0
M  V30 23689 H 2259.9 -3.28496 -3.48751 0
M  V30 23690 H 2258.26 -1.67466 -1.91904 0
M  V30 23691 H 2259.05 -3.20155 -1.23918 0
M  V30 23692 N 2261.49 0.977736 -1.23605 0
M  V30 23693 C 2262.72 1.75456 -1.09649 0
M  V30 23694 C 2263.14 1.85493 0.351826 0
M  V30 23695 O 2262.49 1.33602 1.24325 0
M  V30 23696 C 2262.54 3.18013 -1.71901 0
M  V30 23697 O 2262.27 3.08493 -3.11069 0
M  V30 23698 C 2263.77 4.12078 -1.63422 0
M  V30 23699 H 2260.99 0.550538 -0.383599 0
M  V30 23700 H 2263.53 1.22821 -1.63509 0
M  V30 23701 H 2261.69 3.67666 -1.22067 0
M  V30 23702 H 2262.1 3.98254 -3.41312 0
M  V30 23703 H 2263.57 5.098 -2.11678 0
M  V30 23704 H 2264.05 4.35171 -0.593538 0
M  V30 23705 H 2264.66 3.6833 -2.12634 0
M  V30 23706 N 2262.97 1.04818 1.1769 0
M  V30 23707 C 2264.2 0.776241 1.92326 0
M  V30 23708 C 2264.62 -0.661551 1.76083 0
M  V30 23709 O 2263.98 -1.45916 1.07603 0
M  V30 23710 C 2264.03 1.15693 3.41537 0
M  V30 23711 O 2263.13 0.286848 4.11401 0
M  V30 23712 H 2262.47 0.284992 0.59973 0
M  V30 23713 H 2265 1.40003 1.49199 0
M  V30 23714 H 2265.01 1.12209 3.92267 0
M  V30 23715 H 2263.69 2.20431 3.5268 0
M  V30 23716 H 2262.26 0.381969 3.70939 0
M  V30 23717 N 2264.45 -1.34055 0.828678 0
M  V30 23718 C 2265.87 -1.51057 0.515161 0
M  V30 23719 C 2266.07 -1.77186 -0.959549 0
M  V30 23720 O 2265.12 -1.82615 -1.74379 0
M  V30 23721 C 2266.43 -2.67181 1.37968 0
M  V30 23722 C 2267.98 -2.81064 1.3774 0
M  V30 23723 C 2268.46 -4.00237 2.22653 0
M  V30 23724 N 2269.95 -4.07454 2.20307 0
M  V30 23725 C 2270.68 -4.98837 2.82753 0
M  V30 23726 N 2270.18 -5.95404 3.54212 0
M  V30 23727 N 2271.97 -4.91754 2.72277 0
M  V30 23728 H 2264.12 -1.15355 1.78345 0
M  V30 23729 H 2266.39 -0.566239 0.760314 0
M  V30 23730 H 2266.09 -2.5452 2.42719 0
M  V30 23731 H 2265.97 -3.62336 1.04846 0
M  V30 23732 H 2268.35 -2.93162 0.337645 0
M  V30 23733 H 2268.43 -1.867 1.74862 0
M  V30 23734 H 2268.08 -3.88899 3.26681 0
M  V30 23735 H 2268.01 -4.93825 1.82877 0
M  V30 23736 H 2270.5 -3.38338 1.68333 0
M  V30 23737 H 2270.81 -6.61775 3.99091 0
M  V30 23738 H 2269.16 -5.95511 3.58318 0
M  V30 23739 H 2272.35 -4.15274 2.16021 0
M  V30 23740 H 2272.52 -5.62775 3.21229 0
M  V30 23741 N 2265.93 -0.584167 -1.46374 0
M  V30 23742 C 2266.84 0.150686 -2.34116 0
M  V30 23743 C 2267.85 0.884541 -1.4984 0
M  V30 23744 O 2269.03 0.847397 -1.82705 0
M  V30 23745 C 2266.09 1.15056 -3.27052 0
M  V30 23746 C 2265.16 0.421218 -4.27229 0
M  V30 23747 C 2264.39 1.37346 -5.15725 0
M  V30 23748 O 2264.61 2.61006 -5.07181 0
M  V30 23749 O 2263.55 0.88325 -5.95384 0
M  V30 23750 H 2267.37 -0.56976 -2.98308 0
M  V30 23751 H 2264.96 -0.34456 -1.45372 0
M  V30 23752 H 2266.84 1.72705 -3.84384 0
M  V30 23753 H 2265.51 1.85245 -2.65454 0
M  V30 23754 H 2264.42 -0.197151 -3.7358 0
M  V30 23755 H 2265.75 -0.239727 -4.91616 0
M  V30 23756 N 2267.41 1.54275 -0.322027 0
M  V30 23757 C 2268.65 2.02451 0.281621 0
M  V30 23758 C 2269.01 1.20516 1.49466 0
M  V30 23759 O 2270.21 1.58487 2.17106 0
M  V30 23760 C 2268.48 3.52174 0.608952 0
M  V30 23761 S 2270.04 4.22286 1.19247 0
M  V30 23762 H 2266.86 0.705868 0.0852701 0
M  V30 23763 H 2269.46 1.90137 -0.454791 0
M  V30 23764 H 2268.16 4.0943 -0.282054 0
M  V30 23765 H 2267.7 3.68566 1.3756 0
M  V30 23766 H 2269.71 4.29816 2.47937 0
M  V30 23767 N 2268.88 0.0501669 1.5752 0
M  V30 23768 C 2270.13 -0.624764 1.92937 0
M  V30 23769 C 2270.46 -1.70554 0.928715 0
M  V30 23770 O 2269.74 -1.94447 -0.0454437 0
M  V30 23771 C 2270.02 -1.22179 3.38739 0
M  V30 23772 C 2269.87 -0.149139 4.49553 0
M  V30 23773 C 2271.19 -2.13371 3.84916 0
M  V30 23774 H 2268.31 -0.225644 0.701608 0
M  V30 23775 H 2270.95 0.111726 1.89671 0
M  V30 23776 H 2269.1 -1.84947 3.41653 0
M  V30 23777 H 2270.78 0.482729 4.58767 0
M  V30 23778 H 2269.02 0.522917 4.30637 0
M  V30 23779 H 2269.69 -0.60687 5.48654 0
M  V30 23780 H 2272.17 -1.60565 3.83872 0
M  V30 23781 H 2271.04 -2.52088 4.87589 0
M  V30 23782 H 2271.3 -3.0334 3.21616 0
M  V30 23783 N 2270.36 -1.56011 -0.223207 0
M  V30 23784 C 2271.61 -1.78594 -0.945971 0
M  V30 23785 C 2271.93 -0.618381 -1.84935 0
M  V30 23786 O 2271.2 0.364799 -1.92473 0
M  V30 23787 H 2269.78 -0.658713 -0.352287 0
M  V30 23788 H 2272.44 -1.93472 -0.23546 0
M  V30 23789 H 2271.54 -2.70675 -1.55376 0
M  V30 23790 N 2271.84 0.489844 -1.49794 0
M  V30 23791 C 2273.09 1.24324 -1.59843 0
M  V30 23792 C 2273.41 1.92323 -0.290169 0
M  V30 23793 O 2272.67 1.81866 0.722717 0
M  V30 23794 C 2272.97 2.32436 -2.71492 0
M  V30 23795 C 2272.63 1.81819 -4.12617 0
M  V30 23796 C 2271.3 1.67734 -4.5102 0
M  V30 23797 C 2273.65 1.44062 -5.00895 0
M  V30 23798 C 2270.98 1.14287 -5.75461 0
M  V30 23799 C 2273.33 0.920632 -6.25865 0
M  V30 23800 C 2271.99 0.766267 -6.63087 0
M  V30 23801 H 2271.26 0.454934 -0.584907 0
M  V30 23802 H 2273.91 0.542183 -1.83664 0
M  V30 23803 H 2272.21 3.08375 -2.41685 0
M  V30 23804 H 2273.91 2.90453 -2.76474 0
M  V30 23805 H 2270.5 1.93744 -3.8231 0
M  V30 23806 H 2274.69 1.53786 -4.71873 0
M  V30 23807 H 2269.94 1.01057 -6.0299 0
M  V30 23808 H 2274.12 0.619326 -6.93641 0
M  V30 23809 H 2271.74 0.34995 -7.59394 0
M  V30 23810 N 2273.32 1.39056 0.741698 0
M  V30 23811 C 2274.23 1.395 1.88619 0
M  V30 23812 C 2275.24 0.290608 1.71556 0
M  V30 23813 O 2276.42 0.530988 1.94274 0
M  V30 23814 C 2273.48 1.23042 3.24132 0
M  V30 23815 C 2272.55 2.43393 3.53636 0
M  V30 23816 C 2271.78 2.27711 4.82683 0
M  V30 23817 O 2272 1.27706 5.5592 0
M  V30 23818 O 2270.94 3.16554 5.11935 0
M  V30 23819 H 2274.76 2.35959 1.91199 0
M  V30 23820 H 2272.35 1.20101 0.888604 0
M  V30 23821 H 2274.23 1.15971 4.05128 0
M  V30 23822 H 2272.9 0.296747 3.22337 0
M  V30 23823 H 2271.81 2.5604 2.72753 0
M  V30 23824 H 2273.14 3.35431 3.60204 0
M  V30 23825 N 2274.8 -0.971167 1.24121 0
M  V30 23826 C 2275.76 -2.04673 1.03159 0
M  V30 23827 C 2276.76 -1.60797 -0.00987496 0
M  V30 23828 O 2277.95 -1.72665 0.23076 0
M  V30 23829 C 2275.08 -3.36222 0.562824 0
M  V30 23830 H 2276.27 -2.24702 1.98618 0
M  V30 23831 H 2273.83 -1.14591 1.06295 0
M  V30 23832 H 2274.56 -3.21884 -0.39512 0
M  V30 23833 H 2274.35 -3.6941 1.31447 0
M  V30 23834 H 2275.84 -4.15306 0.437088 0
M  V30 23835 N 2276.27 -1.05441 -1.17133 0
M  V30 23836 C 2277.52 -0.76711 -1.87732 0
M  V30 23837 C 2277.85 0.704221 -1.80982 0
M  V30 23838 O 2277.13 1.51517 -1.21954 0
M  V30 23839 C 2277.41 -1.25139 -3.37657 0
M  V30 23840 C 2277.26 -2.78584 -3.53145 0
M  V30 23841 C 2278.58 -0.8524 -4.31766 0
M  V30 23842 H 2275.7 -0.280141 -0.681682 0
M  V30 23843 H 2278.34 -1.30883 -1.3773 0
M  V30 23844 H 2276.49 -0.790536 -3.80372 0
M  V30 23845 H 2278.17 -3.32812 -3.19428 0
M  V30 23846 H 2276.41 -3.17737 -2.9534 0
M  V30 23847 H 2277.08 -3.07531 -4.58398 0
M  V30 23848 H 2279.56 -1.24918 -3.96906 0
M  V30 23849 H 2278.43 -1.21883 -5.35197 0
M  V30 23850 H 2278.69 0.243407 -4.41429 0
M  V30 23851 N 2277.75 1.33613 -0.835776 0
M  V30 23852 C 2278.68 2.28101 -0.224192 0
M  V30 23853 C 2279.7 1.51604 0.593304 0
M  V30 23854 O 2280.89 1.73467 0.42088 0
M  V30 23855 C 2277.99 3.31523 0.70325 0
M  V30 23856 C 2277.16 4.37337 -0.0742297 0
M  V30 23857 C 2276.22 5.20445 0.776085 0
M  V30 23858 O 2275.24 5.68788 0.216406 0
M  V30 23859 N 2276.45 5.4142 2.09392 0
M  V30 23860 H 2279.21 2.81223 -1.03603 0
M  V30 23861 H 2276.77 1.46274 -0.693946 0
M  V30 23862 H 2278.76 3.84024 1.277 0
M  V30 23863 H 2277.33 2.787 1.4158 0
M  V30 23864 H 2276.55 3.85377 -0.829348 0
M  V30 23865 H 2277.84 5.05143 -0.608952 0
M  V30 23866 H 2277.24 5.03839 2.5722 0
M  V30 23867 H 2275.8 5.9699 2.61623 0
M  V30 23868 N 2279.23 0.591922 1.46062 0
M  V30 23869 C 2280.14 -0.138269 2.34192 0
M  V30 23870 C 2281.16 -0.876582 1.50306 0
M  V30 23871 O 2282.33 -0.837696 1.83152 0
M  V30 23872 C 2279.4 -1.1332 3.27658 0
M  V30 23873 C 2278.46 -0.398555 4.27446 0
M  V30 23874 C 2277.69 -1.34609 5.16446 0
M  V30 23875 O 2277.91 -2.58312 5.08558 0
M  V30 23876 O 2276.85 -0.851663 5.95844 0
M  V30 23877 H 2280.67 0.585572 2.98001 0
M  V30 23878 H 2278.26 0.352265 1.45188 0
M  V30 23879 H 2280.14 -1.70664 3.85294 0
M  V30 23880 H 2278.82 -1.83835 2.66433 0
M  V30 23881 H 2277.72 0.21696 3.7347 0
M  V30 23882 H 2279.06 0.265795 4.91482 0
M  V30 23883 N 2280.71 -1.54102 0.330204 0
M  V30 23884 C 2281.95 -2.00984 -0.27077 0
M  V30 23885 C 2282.29 -1.21791 -1.51263 0
M  V30 23886 O 2281.56 -0.301961 -1.92142 0
M  V30 23887 C 2281.85 -3.55095 -0.598277 0
M  V30 23888 C 2281.7 -4.45009 0.654752 0
M  V30 23889 C 2283.02 -4.16791 -1.41327 0
M  V30 23890 H 2280.14 -0.730597 -0.0969403 0
M  V30 23891 H 2282.78 -1.8464 0.448098 0
M  V30 23892 H 2280.93 -3.69153 -1.21071 0
M  V30 23893 H 2282.6 -4.42811 1.29292 0
M  V30 23894 H 2280.84 -4.14414 1.28232 0
M  V30 23895 H 2281.51 -5.50683 0.381041 0
M  V30 23896 H 2283.99 -4.06349 -0.895525 0
M  V30 23897 H 2282.87 -5.24721 -1.61118 0
M  V30 23898 H 2283.13 -3.70546 -2.4114 0
M  V30 23899 N 2282.19 -0.0585199 -1.57491 0
M  V30 23900 C 2283.6 0.476106 -1.80527 0
M  V30 23901 C 2283.95 1.70467 -0.971364 0
M  V30 23902 O 2283.07 2.15564 -0.19005 0
M  V30 23903 C 2283.67 0.870529 -3.27425 0
M  V30 23904 C 2282.23 1.35009 -3.51354 0
M  V30 23905 C 2281.37 0.328822 -2.75344 0
M  V30 23906 H 2284.33 -0.284339 -1.56132 0
M  V30 23907 H 2284.35 1.73293 -3.38748 0
M  V30 23908 H 2283.86 -0.0238309 -3.88093 0
M  V30 23909 H 2281.96 2.2634 -2.95975 0
M  V30 23910 H 2282.07 1.33718 -4.60061 0
M  V30 23911 H 2280.44 0.803279 -2.41701 0
M  V30 23912 H 2281.22 -0.55758 -3.38742 0
M  V30 23913 N 2283.66 1.56128 0.21493 0
M  V30 23914 C 2284.91 1.79713 0.93973 0
M  V30 23915 C 2285.24 0.629279 1.83722 0
M  V30 23916 O 2284.52 -0.371163 1.90926 0
M  V30 23917 C 2284.8 3.13427 1.773 0
M  V30 23918 C 2284.65 4.40672 0.901562 0
M  V30 23919 C 2285.97 3.43643 2.7495 0
M  V30 23920 H 2283.09 0.653782 0.340203 0
M  V30 23921 H 2285.73 1.88856 0.208207 0
M  V30 23922 H 2283.88 3.05764 2.39667 0
M  V30 23923 H 2285.56 4.60361 0.294125 0
M  V30 23924 H 2283.8 4.33304 0.207291 0
M  V30 23925 H 2284.47 5.30685 1.51913 0
M  V30 23926 H 2286.95 3.51477 2.22717 0
M  V30 23927 H 2285.82 4.38361 3.3035 0
M  V30 23928 H 2286.08 2.66141 3.53018 0
M  V30 23929 N 2285.14 -0.481893 1.50052 0
M  V30 23930 C 2286.39 -1.23231 1.60183 0
M  V30 23931 C 2286.71 -1.92691 0.29921 0
M  V30 23932 O 2285.98 -1.8362 -0.682675 0
M  V30 23933 H 2284.56 -0.457849 0.59024 0
M  V30 23934 H 2287.22 -0.556848 1.86776 0
M  V30 23935 H 2286.32 -1.98602 2.40756 0
M  V30 23936 N 2286.62 -1.39448 -0.734313 0
M  V30 23937 C 2287.55 -1.40959 -1.86153 0
M  V30 23938 C 2288.53 -0.272857 -1.67897 0
M  V30 23939 O 2289.72 -0.478776 -1.88206 0
M  V30 23940 C 2286.85 -1.25299 -3.23909 0
M  V30 23941 C 2285.8 -2.36379 -3.56804 0
M  V30 23942 C 2285.13 -2.05809 -4.93504 0
M  V30 23943 C 2286.43 -3.78693 -3.59707 0
M  V30 23944 H 2288.12 -2.3529 -1.85146 0
M  V30 23945 H 2285.67 -1.13255 -0.889347 0
M  V30 23946 H 2287.62 -1.24977 -4.02441 0
M  V30 23947 H 2286.34 -0.274366 -3.25446 0
M  V30 23948 H 2285 -2.35919 -2.80602 0
M  V30 23949 H 2284.65 -1.06383 -4.91622 0
M  V30 23950 H 2284.35 -2.80217 -5.16481 0
M  V30 23951 H 2285.87 -2.07138 -5.74392 0
M  V30 23952 H 2287.29 -3.81078 -4.28313 0
M  V30 23953 H 2285.69 -4.52466 -3.94201 0
M  V30 23954 H 2286.76 -4.09621 -2.59496 0
M  V30 23955 N 2288.1 0.964571 -1.24635 0
M  V30 23956 C 2289.34 1.71047 -1.08952 0
M  V30 23957 C 2289.68 1.90637 0.370268 0
M  V30 23958 O 2288.95 1.47014 1.27347 0
M  V30 23959 C 2289.24 3.09936 -1.83334 0
M  V30 23960 C 2289.09 2.97818 -3.37082 0
M  V30 23961 C 2290.41 4.09651 -1.60853 0
M  V30 23962 H 2287.53 0.620814 -0.397189 0
M  V30 23963 H 2290.17 1.12188 -1.53342 0
M  V30 23964 H 2288.32 3.60183 -1.45603 0
M  V30 23965 H 2289.99 2.54973 -3.8443 0
M  V30 23966 H 2288.23 2.33959 -3.65302 0
M  V30 23967 H 2288.9 3.96224 -3.84331 0
M  V30 23968 H 2291.38 3.68276 -1.93681 0
M  V30 23969 H 2290.26 5.04892 -2.15349 0
M  V30 23970 H 2290.52 4.38697 -0.547511 0
M  V30 23971 N 2289.58 1.0606 1.16572 0
M  V30 23972 C 2290.51 0.627278 2.20449 0
M  V30 23973 C 2291.52 -0.313506 1.59753 0
M  V30 23974 O 2292.71 -0.104865 1.78192 0
M  V30 23975 C 2289.81 -0.100915 3.3875 0
M  V30 23976 C 2288.98 0.852763 4.29007 0
M  V30 23977 C 2288.04 0.164245 5.25944 0
M  V30 23978 O 2287.07 0.801146 5.63534 0
M  V30 23979 N 2288.27 -1.09508 5.70077 0
M  V30 23980 H 2291.04 1.52082 2.58247 0
M  V30 23981 H 2288.6 0.943617 1.31558 0
M  V30 23982 H 2290.59 -0.57187 4.00639 0
M  V30 23983 H 2289.16 -0.896228 2.99477 0
M  V30 23984 H 2288.38 1.50314 3.64416 0
M  V30 23985 H 2289.67 1.49981 4.86193 0
M  V30 23986 H 2289.06 -1.6327 5.41627 0
M  V30 23987 H 2287.62 -1.50995 6.34069 0
M  V30 23988 N 2291.06 -1.33168 0.84285 0
M  V30 23989 C 2292.47 -1.79972 0.496682 0
M  V30 23990 C 2292.82 -1.69705 -0.984611 0
M  V30 23991 O 2291.94 -1.24866 -1.76741 0
M  V30 23992 C 2292.54 -3.26771 0.894784 0
M  V30 23993 C 2291.1 -3.71576 0.600695 0
M  V30 23994 C 2290.24 -2.54508 1.10095 0
M  V30 23995 H 2293.19 -1.20633 1.03118 0
M  V30 23996 H 2293.22 -3.7994 0.206414 0
M  V30 23997 H 2292.73 -3.34211 1.97293 0
M  V30 23998 H 2290.83 -3.69659 -0.467219 0
M  V30 23999 H 2290.94 -4.64877 1.15872 0
M  V30 24000 H 2289.31 -2.49301 0.521664 0
M  V30 24001 H 2290.09 -2.64709 2.18596 0
M  V30 24002 N 2292.53 -0.599659 -1.45746 0
M  V30 24003 C 2293.5 0.113794 -2.28917 0
M  V30 24004 C 2294.5 0.802705 -1.39332 0
M  V30 24005 O 2295.69 0.652074 -1.61535 0
M  V30 24006 C 2292.82 1.17108 -3.20154 0
M  V30 24007 H 2294.01 -0.617341 -2.93477 0
M  V30 24008 H 2291.56 -0.358354 -1.52136 0
M  V30 24009 H 2292.3 1.93324 -2.60377 0
M  V30 24010 H 2292.08 0.6814 -3.86134 0
M  V30 24011 H 2293.57 1.67098 -3.82711 0
M  V30 24012 N 2294.01 1.53925 -0.338371 0
M  V30 24013 C 2295.24 2.05714 0.263951 0
M  V30 24014 C 2295.66 1.21204 1.43845 0
M  V30 24015 O 2295.02 0.224567 1.79904 0
M  V30 24016 C 2295.07 3.54472 0.661938 0
M  V30 24017 O 2294.17 3.72836 1.76259 0
M  V30 24018 H 2293.51 0.662483 0.0448606 0
M  V30 24019 H 2296.04 1.98619 -0.491083 0
M  V30 24020 H 2296.05 3.97012 0.940524 0
M  V30 24021 H 2294.73 4.15433 -0.19701 0
M  V30 24022 H 2293.3 3.422 1.48167 0
M  V30 24023 N 2295.49 0.0668712 1.57458 0
M  V30 24024 C 2296.45 -0.887385 2.11325 0
M  V30 24025 C 2297.45 -1.22962 1.0362 0
M  V30 24026 O 2298.64 -1.16371 1.29628 0
M  V30 24027 C 2295.77 -2.19237 2.61051 0
M  V30 24028 H 2296.97 -0.420142 2.96942 0
M  V30 24029 H 2294.52 -0.181765 1.5524 0
M  V30 24030 H 2295.26 -2.70509 1.78873 0
M  V30 24031 H 2295.04 -1.95696 3.39773 0
M  V30 24032 H 2296.53 -2.87559 3.02819 0
M  V30 24033 N 2296.97 -1.56239 -0.206647 0
M  V30 24034 C 2298.2 -1.84042 -0.945313 0
M  V30 24035 C 2298.61 -0.647917 -1.77334 0
M  V30 24036 O 2297.97 0.38348 -1.78426 0
M  V30 24037 C 2298.02 -3.10525 -1.85084 0
M  V30 24038 O 2297.74 -4.25176 -1.05626 0
M  V30 24039 C 2299.24 -3.51423 -2.70216 0
M  V30 24040 H 2296.46 -0.611445 -0.276362 0
M  V30 24041 H 2299 -2.03341 -0.217381 0
M  V30 24042 H 2297.16 -2.93157 -2.53254 0
M  V30 24043 H 2297.57 -4.97126 -1.67229 0
M  V30 24044 H 2299.05 -4.42922 -3.2943 0
M  V30 24045 H 2299.52 -2.7387 -3.43354 0
M  V30 24046 H 2300.13 -3.71282 -2.07436 0
M  V30 24047 N 2298.45 0.473929 -1.50305 0
M  V30 24048 C 2299.38 1.58039 -1.71889 0
M  V30 24049 C 2300.36 1.60343 -0.567827 0
M  V30 24050 O 2301.54 1.76654 -0.806654 0
M  V30 24051 C 2298.67 2.9638 -1.81041 0
M  V30 24052 C 2297.63 3.08943 -2.96206 0
M  V30 24053 C 2296.95 4.48904 -2.90498 0
M  V30 24054 C 2298.25 2.86427 -4.36757 0
M  V30 24055 H 2299.95 1.4023 -2.6453 0
M  V30 24056 H 2297.49 0.673178 -1.27296 0
M  V30 24057 H 2299.44 3.73711 -1.94726 0
M  V30 24058 H 2298.17 3.1534 -0.850202 0
M  V30 24059 H 2296.83 2.34045 -2.82168 0
M  V30 24060 H 2296.48 4.64778 -1.92329 0
M  V30 24061 H 2296.18 4.58246 -3.6781 0
M  V30 24062 H 2297.7 5.28259 -3.06227 0
M  V30 24063 H 2299.11 3.53509 -4.51336 0
M  V30 24064 H 2297.51 3.07216 -5.15498 0
M  V30 24065 H 2298.58 1.82308 -4.49324 0
M  V30 24066 N 2299.92 1.39835 0.726907 0
M  V30 24067 C 2301.15 1.40586 1.51391 0
M  V30 24068 C 2301.56 0.000773882 1.892 0
M  V30 24069 O 2300.9 -0.982924 1.55191 0
M  V30 24070 C 2300.97 2.22231 2.82584 0
M  V30 24071 C 2300.63 3.70774 2.67162 0
M  V30 24072 C 2301.63 4.63671 2.35172 0
M  V30 24073 C 2299.31 4.14456 2.8378 0
M  V30 24074 C 2301.31 5.98233 2.19992 0
M  V30 24075 C 2298.99 5.49092 2.68219 0
M  V30 24076 C 2299.99 6.40795 2.36371 0
M  V30 24077 O 2299.68 7.7295 2.20916 0
M  V30 24078 H 2299.41 0.481818 0.47416 0
M  V30 24079 H 2301.97 1.84377 0.905214 0
M  V30 24080 H 2300.2 1.73201 3.45743 0
M  V30 24081 H 2301.88 2.15061 3.44243 0
M  V30 24082 H 2302.65 4.31221 2.21976 0
M  V30 24083 H 2298.53 3.43406 3.0756 0
M  V30 24084 H 2302.07 6.69775 1.95056 0
M  V30 24085 H 2297.97 5.8113 2.80995 0
M  V30 24086 H 2298.74 7.83762 2.35924 0
M  V30 24087 N 2301.4 -0.957948 1.25144 0
M  V30 24088 C 2302.68 -1.67822 1.00475 0
M  V30 24089 C 2303.06 -2.05801 -0.47002 0
M  V30 24090 O 2302.41 -1.76877 -1.4466 0
M  V30 24091 C 2302.62 -2.90296 1.93725 0
M  V30 24092 C 2303.96 -3.62322 2.21377 0
M  V30 24093 O 2304.99 -3.00371 1.91456 0
M  V30 24094 O 2303.85 -4.73865 2.7224 0
M  V30 24095 H 2300.94 -0.73413 0.380765 0
M  V30 24096 H 2303.49 -1.01117 1.36285 0
M  V30 24097 H 2302.26 -2.58996 2.93321 0
M  V30 24098 H 2301.88 -3.64732 1.58292 0
M  V30 24099 N 2302.88 -1.06677 -1.16008 0
M  V30 24100 C 2304.11 -0.805531 -1.90249 0
M  V30 24101 C 2304.52 0.644279 -1.77892 0
M  V30 24102 O 2303.86 1.45311 -1.12385 0
M  V30 24103 C 2303.92 -1.12582 -3.41417 0
M  V30 24104 C 2303.59 -2.57484 -3.77559 0
M  V30 24105 C 2304.58 -3.55721 -3.79155 0
M  V30 24106 C 2302.27 -2.92884 -4.08074 0
M  V30 24107 C 2304.26 -4.87398 -4.10758 0
M  V30 24108 C 2301.95 -4.24759 -4.39344 0
M  V30 24109 C 2302.95 -5.21826 -4.40666 0
M  V30 24110 O 2302.64 -6.51333 -4.7119 0
M  V30 24111 H 2302.37 -0.291308 -0.610013 0
M  V30 24112 H 2304.92 -1.42472 -1.47955 0
M  V30 24113 H 2303.15 -0.44957 -3.84078 0
M  V30 24114 H 2304.84 -0.84821 -3.96939 0
M  V30 24115 H 2305.61 -3.29714 -3.55687 0
M  V30 24116 H 2301.49 -2.17984 -4.06207 0
M  V30 24117 H 2305.03 -5.63156 -4.11706 0
M  V30 24118 H 2300.93 -4.50522 -4.62277 0
M  V30 24119 H 2301.69 -6.56381 -4.88985 0
M  V30 24120 N 2304.36 1.32719 -0.8499 0
M  V30 24121 C 2305.59 2.01319 -0.464115 0
M  V30 24122 C 2306 1.64058 0.942431 0
M  V30 24123 O 2305.34 0.855408 1.62568 0
M  V30 24124 C 2305.4 3.55749 -0.517949 0
M  V30 24125 C 2305.06 4.16424 -1.88255 0
M  V30 24126 C 2306.06 4.34997 -2.84734 0
M  V30 24127 C 2303.75 4.52605 -2.1784 0
M  V30 24128 C 2305.74 4.88913 -4.08954 0
M  V30 24129 C 2303.43 5.06226 -3.42313 0
M  V30 24130 C 2304.43 5.24328 -4.37686 0
M  V30 24131 O 2304.11 5.76805 -5.59957 0
M  V30 24132 H 2303.85 0.651224 -0.181338 0
M  V30 24133 H 2306.4 1.7038 -1.14716 0
M  V30 24134 H 2304.63 3.86063 0.221929 0
M  V30 24135 H 2306.32 4.05628 -0.148437 0
M  V30 24136 H 2307.08 4.07383 -2.63181 0
M  V30 24137 H 2302.96 4.37803 -1.44393 0
M  V30 24138 H 2306.51 5.02957 -4.83405 0
M  V30 24139 H 2302.4 5.33272 -3.63719 0
M  V30 24140 H 2303.17 5.95204 -5.61849 0
M  V30 24141 N 2305.84 0.60738 1.45426 0
M  V30 24142 C 2306.78 -0.12407 2.32269 0
M  V30 24143 C 2307.78 -0.859829 1.45957 0
M  V30 24144 O 2308.98 -0.775418 1.62442 0
M  V30 24145 H 2305.36 -0.0588707 0.749692 0
M  V30 24146 H 2307.33 0.626813 2.91742 0
M  V30 24147 C 2306.08 -1.10815 3.29569 0
M  V30 24148 H 2305.4 -0.551422 3.95979 0
M  V30 24149 H 2306.84 -1.58988 3.93063 0
M  V30 24150 C 2305.3 -2.1816 2.56725 0
M  V30 24151 O 2305.83 -3.25898 2.34848 0
M  V30 24152 N 2304.04 -1.93438 2.16864 0
M  V30 24153 H 2303.58 -1.0583 2.34857 0
M  V30 24154 H 2303.54 -2.65466 1.68449 0
M  V30 24155 N 2307.31 -1.53743 0.34653 0
M  V30 24156 C 2308.73 -1.86199 -0.136746 0
M  V30 24157 C 2309.08 -1.26768 -1.49747 0
M  V30 24158 O 2308.2 -0.582392 -2.08416 0
M  V30 24159 C 2308.8 -3.3784 -0.254907 0
M  V30 24160 C 2307.36 -3.70162 -0.682417 0
M  V30 24161 C 2306.5 -2.76702 0.182029 0
M  V30 24162 H 2309.45 -1.48263 0.56602 0
M  V30 24163 H 2309.47 -3.64795 -1.08188 0
M  V30 24164 H 2308.99 -3.81065 0.735593 0
M  V30 24165 H 2307.09 -3.32483 -1.68184 0
M  V30 24166 H 2307.2 -4.76787 -0.470242 0
M  V30 24167 H 2305.56 -2.52337 -0.346106 0
M  V30 24168 H 2306.35 -3.22758 1.16972 0
M  V30 24169 N 2308.79 -0.0752207 -1.5742 0
M  V30 24170 C 2309.7 0.905473 -2.16422 0
M  V30 24171 C 2310.72 1.32459 -1.1283 0
M  V30 24172 O 2311.89 1.39659 -1.45112 0
M  V30 24173 C 2308.96 2.15365 -2.71696 0
M  V30 24174 C 2308.02 1.79061 -3.90174 0
M  V30 24175 C 2307.25 2.97928 -4.42803 0
M  V30 24176 O 2307.48 4.12051 -3.94423 0
M  V30 24177 O 2306.41 2.77546 -5.3409 0
M  V30 24178 H 2310.24 0.433573 -3.00589 0
M  V30 24179 H 2307.82 0.148041 -1.48665 0
M  V30 24180 H 2309.7 2.88551 -3.07109 0
M  V30 24181 H 2308.38 2.61646 -1.90587 0
M  V30 24182 H 2307.29 1.03116 -3.59608 0
M  V30 24183 H 2308.62 1.3756 -4.72587 0
M  V30 24184 N 2310.27 1.56347 0.198358 0
M  V30 24185 C 2311.69 1.49858 0.549059 0
M  V30 24186 C 2311.89 0.774644 1.86015 0
M  V30 24187 O 2310.94 0.32382 2.50415 0
M  V30 24188 C 2312.26 2.94514 0.606816 0
M  V30 24189 C 2313.8 3.05167 0.695872 0
M  V30 24190 C 2314.28 4.51227 0.784769 0
M  V30 24191 N 2315.77 4.55364 0.848383 0
M  V30 24192 C 2316.5 5.65688 0.937279 0
M  V30 24193 N 2316 6.85709 0.98868 0
M  V30 24194 N 2317.79 5.53593 0.974215 0
M  V30 24195 H 2309.94 2.0183 -0.661691 0
M  V30 24196 H 2312.21 0.91834 -0.235277 0
M  V30 24197 H 2311.91 3.50524 -0.287381 0
M  V30 24198 H 2311.79 3.47689 1.46262 0
M  V30 24199 H 2314.17 2.49207 1.5805 0
M  V30 24200 H 2314.26 2.55122 -0.186066 0
M  V30 24201 H 2313.9 5.0781 -0.0954964 0
M  V30 24202 H 2313.83 4.99 1.68246 0
M  V30 24203 H 2316.32 3.6894 0.818038 0
M  V30 24204 H 2316.63 7.65538 1.05693 0
M  V30 24205 H 2314.98 6.88374 0.957413 0
M  V30 24206 H 2318.17 4.58751 0.930873 0
M  V30 24207 H 2318.34 6.39599 1.04004 0
M  V30 24208 N 2311.75 -0.465951 1.50554 0
M  V30 24209 C 2313.16 -0.80013 1.38094 0
M  V30 24210 C 2313.36 -1.96614 0.441023 0
M  V30 24211 O 2312.42 -2.5224 -0.114454 0
M  V30 24212 C 2313.73 -1.10737 2.79567 0
M  V30 24213 C 2315.28 -1.21352 2.88518 0
M  V30 24214 C 2315.76 -1.55385 4.30836 0
M  V30 24215 N 2317.25 -1.62367 4.3381 0
M  V30 24216 C 2317.98 -1.90216 5.4093 0
M  V30 24217 N 2317.48 -2.1605 6.58251 0
M  V30 24218 N 2319.27 -1.91761 5.28379 0
M  V30 24219 H 2311.42 0.302403 2.10236 0
M  V30 24220 H 2313.69 0.0727912 0.945201 0
M  V30 24221 H 2313.39 -0.323599 3.50208 0
M  V30 24222 H 2313.27 -2.04228 3.17129 0
M  V30 24223 H 2315.65 -1.98795 2.18093 0
M  V30 24224 H 2315.73 -0.258276 2.54493 0
M  V30 24225 H 2315.38 -0.784801 5.018 0
M  V30 24226 H 2315.31 -2.52068 4.62352 0
M  V30 24227 H 2317.8 -1.44421 3.49215 0
M  V30 24228 H 2318.11 -2.36588 7.35694 0
M  V30 24229 H 2316.46 -2.13432 6.61417 0
M  V30 24230 H 2319.65 -1.71078 4.35718 0
M  V30 24231 H 2319.82 -2.13128 6.11948 0
M  V30 24232 N 2313.23 -1.40218 -0.719481 0
M  V30 24233 C 2314.47 -1.39732 -1.49179 0
M  V30 24234 C 2314.83 0.00247239 -1.92 0
M  V30 24235 O 2316.03 0.132432 -2.68474 0
M  V30 24236 C 2314.3 -2.35587 -2.68763 0
M  V30 24237 S 2315.86 -2.53425 -3.5822 0
M  V30 24238 H 2312.68 -0.495316 -0.510082 0
M  V30 24239 H 2315.28 -1.76453 -0.841693 0
M  V30 24240 H 2313.99 -3.36128 -2.35469 0
M  V30 24241 H 2313.52 -2.00136 -3.38688 0
M  V30 24242 H 2315.53 -1.78375 -4.6303 0
M  V30 24243 N 2314.7 0.951297 -1.25651 0
M  V30 24244 C 2315.93 1.73622 -1.13446 0
M  V30 24245 C 2316.35 1.85569 0.307532 0
M  V30 24246 O 2315.71 1.33856 1.22279 0
M  V30 24247 C 2315.76 3.12618 -1.79728 0
M  V30 24248 O 2314.86 3.98029 -1.07919 0
M  V30 24249 H 2314.21 0.533079 -0.395882 0
M  V30 24250 H 2316.74 1.19217 -1.66278 0
M  V30 24251 H 2316.75 3.63061 -1.86147 0
M  V30 24252 H 2315.42 3.03239 -2.84638 0
M  V30 24253 H 2314 3.5649 -1.09404 0
M  V30 24254 N 2316.18 1.07291 1.1544 0
M  V30 24255 C 2317.43 0.796879 1.86488 0
M  V30 24256 C 2317.76 -0.675339 1.82079 0
M  V30 24257 O 2317.04 -1.49558 1.24349 0
M  V30 24258 C 2317.32 1.30495 3.35624 0
M  V30 24259 C 2317.17 2.84167 3.48668 0
M  V30 24260 C 2318.49 0.920983 4.30356 0
M  V30 24261 H 2315.61 0.290951 0.677139 0
M  V30 24262 H 2318.25 1.33058 1.3563 0
M  V30 24263 H 2316.4 0.850949 3.79066 0
M  V30 24264 H 2318.07 3.37851 3.14093 0
M  V30 24265 H 2316.32 3.22396 2.90247 0
M  V30 24266 H 2316.99 3.14785 4.53447 0
M  V30 24267 H 2319.46 1.31217 3.94869 0
M  V30 24268 H 2318.34 1.30382 5.3319 0
M  V30 24269 H 2318.6 -0.173149 4.41761 0
M  V30 24270 N 2317.66 -1.32267 0.856927 0
M  V30 24271 C 2318.91 -1.97173 0.46142 0
M  V30 24272 C 2319.24 -1.67804 -0.983462 0
M  V30 24273 O 2318.49 -0.959933 -1.7054 0
M  V30 24274 C 2318.79 -3.5144 0.64998 0
M  V30 24275 C 2318.46 -4.008 2.06567 0
M  V30 24276 C 2317.12 -4.1399 2.45286 0
M  V30 24277 C 2319.47 -4.26937 2.98955 0
M  V30 24278 C 2316.8 -4.50662 3.75661 0
M  V30 24279 C 2319.15 -4.65068 4.2883 0
M  V30 24280 C 2317.81 -4.76464 4.67481 0
M  V30 24281 H 2317.08 -0.721507 0.168846 0
M  V30 24282 H 2319.73 -1.57631 1.08742 0
M  V30 24283 H 2318.04 -3.91755 -0.0592329 0
M  V30 24284 H 2319.73 -3.99689 0.32398 0
M  V30 24285 H 2316.32 -3.9102 1.75502 0
M  V30 24286 H 2320.51 -4.16253 2.70272 0
M  V30 24287 H 2315.76 -4.57681 4.05387 0
M  V30 24288 H 2319.94 -4.84246 5.00479 0
M  V30 24289 H 2317.56 -5.04636 5.68548 0
M  V30 24290 N 2319.14 -0.615084 -1.45102 0
M  V30 24291 C 2320.37 -0.119632 -2.06253 0
M  V30 24292 C 2320.78 1.20442 -1.45912 0
M  V30 24293 O 2320.12 1.74619 -0.570415 0
M  V30 24294 C 2320.18 0.086496 -3.59396 0
M  V30 24295 C 2319.85 -1.15691 -4.42114 0
M  V30 24296 C 2320.84 -2.07684 -4.76617 0
M  V30 24297 C 2318.53 -1.38783 -4.82747 0
M  V30 24298 C 2320.52 -3.21092 -5.50617 0
M  V30 24299 C 2318.21 -2.52491 -5.56499 0
M  V30 24300 C 2319.21 -3.43473 -5.90352 0
M  V30 24301 O 2318.89 -4.55201 -6.62607 0
M  V30 24302 H 2318.63 -0.069463 -0.672422 0
M  V30 24303 H 2321.18 -0.844918 -1.87217 0
M  V30 24304 H 2319.41 0.866757 -3.76861 0
M  V30 24305 H 2321.1 0.534484 -4.02366 0
M  V30 24306 H 2321.87 -1.91071 -4.45777 0
M  V30 24307 H 2317.74 -0.688625 -4.55828 0
M  V30 24308 H 2321.29 -3.9213 -5.76958 0
M  V30 24309 H 2317.19 -2.69053 -5.86754 0
M  V30 24310 H 2317.95 -4.53978 -6.81063 0
M  V30 24311 N 2320.62 1.53557 -0.354678 0
M  V30 24312 C 2321.87 2.00694 0.237937 0
M  V30 24313 C 2322.19 1.24394 1.50171 0
M  V30 24314 O 2321.46 0.354169 1.92672 0
M  V30 24315 H 2320.04 0.741447 0.0909126 0
M  V30 24316 H 2322.7 1.88937 -0.478401 0
M  V30 24317 H 2321.79 3.08501 0.472586 0
M  V30 24318 N 2322.1 0.083568 1.57378 0
M  V30 24319 C 2323.06 -0.864922 2.12254 0
M  V30 24320 C 2324.06 -1.21856 1.04918 0
M  V30 24321 O 2325.25 -1.14989 1.30855 0
M  V30 24322 C 2322.38 -2.16456 2.63362 0
M  V30 24323 H 2323.57 -0.388623 2.97371 0
M  V30 24324 H 2321.13 -0.16529 1.55424 0
M  V30 24325 H 2321.86 -2.68596 1.81732 0
M  V30 24326 H 2321.65 -1.92081 3.41829 0
M  V30 24327 H 2323.14 -2.84331 3.05852 0
M  V30 24328 N 2323.57 -1.5645 -0.190064 0
M  V30 24329 C 2324.98 -1.70785 -0.754282 0
M  V30 24330 C 2325.34 -0.690984 -1.8363 0
M  V30 24331 O 2324.46 0.151566 -2.15869 0
M  V30 24332 C 2325.06 -3.09645 -1.37497 0
M  V30 24333 C 2323.61 -3.25728 -1.88622 0
M  V30 24334 C 2322.76 -2.66737 -0.758051 0
M  V30 24335 H 2325.71 -1.58661 0.0350803 0
M  V30 24336 H 2325.73 -3.07254 -2.24444 0
M  V30 24337 H 2325.25 -3.83632 -0.587234 0
M  V30 24338 H 2323.35 -2.56666 -2.70099 0
M  V30 24339 H 2323.46 -4.33284 -2.04455 0
M  V30 24340 H 2321.82 -2.26048 -1.17365 0
M  V30 24341 H 2322.61 -3.43296 0.0175308 0
M  V30 24342 N 2325.05 0.45796 -1.50799 0
M  V30 24343 C 2326.28 1.23665 -1.66499 0
M  V30 24344 C 2326.7 1.84752 -0.353321 0
M  V30 24345 O 2326.06 1.67889 0.684316 0
M  V30 24346 C 2326.11 2.31155 -2.76767 0
M  V30 24347 O 2325.21 3.36132 -2.38933 0
M  V30 24348 H 2324.55 0.363242 -0.555834 0
M  V30 24349 H 2327.08 0.543439 -1.97251 0
M  V30 24350 H 2327.09 2.76264 -3.00237 0
M  V30 24351 H 2325.77 1.86067 -3.71957 0
M  V30 24352 H 2324.34 2.96643 -2.25959 0
M  V30 24353 N 2326.53 1.40598 0.712035 0
M  V30 24354 C 2327.48 1.41145 1.82611 0
M  V30 24355 C 2328.45 0.267932 1.63925 0
M  V30 24356 O 2329.63 0.466527 1.85009 0
M  V30 24357 C 2326.77 1.2833 3.20352 0
M  V30 24358 C 2325.88 2.52417 3.50585 0
M  V30 24359 C 2325.02 2.32017 4.77851 0
M  V30 24360 C 2324.06 3.51663 5.00999 0
M  V30 24361 N 2323.2 3.30436 6.19481 0
M  V30 24362 H 2328.04 2.36368 1.81478 0
M  V30 24363 H 2325.57 1.1739 0.886455 0
M  V30 24364 H 2327.53 1.18906 3.99897 0
M  V30 24365 H 2326.16 0.367245 3.20704 0
M  V30 24366 H 2325.21 2.72356 2.65568 0
M  V30 24367 H 2326.52 3.41464 3.63598 0
M  V30 24368 H 2325.68 2.19966 5.6542 0
M  V30 24369 H 2324.42 1.40401 4.67054 0
M  V30 24370 H 2323.42 3.64187 4.11884 0
M  V30 24371 H 2324.65 4.44211 5.13666 0
M  V30 24372 H 2322.59 2.41505 6.09927 0
M  V30 24373 H 2322.51 4.1305 6.33187 0
M  V30 24374 H 2323.78 3.22125 7.09828 0
M  V30 24375 N 2328.01 -0.94462 1.26153 0
M  V30 24376 C 2329.23 -1.73018 1.14366 0
M  V30 24377 C 2329.66 -1.85729 -0.297687 0
M  V30 24378 O 2329.02 -1.34503 -1.21568 0
M  V30 24379 C 2329.06 -3.11661 1.81384 0
M  V30 24380 O 2328.17 -3.97451 1.10029 0
M  V30 24381 H 2327.51 -0.530973 0.398703 0
M  V30 24382 H 2330.04 -1.18334 1.66908 0
M  V30 24383 H 2330.05 -3.62069 1.8807 0
M  V30 24384 H 2328.72 -3.01725 2.86243 0
M  V30 24385 H 2327.3 -3.55905 1.11293 0
M  V30 24386 N 2329.49 -1.07901 -1.1487 0
M  V30 24387 C 2330.9 -0.80563 -1.37774 0
M  V30 24388 C 2331.1 0.587521 -1.92744 0
M  V30 24389 O 2330.16 1.34525 -2.1368 0
M  V30 24390 C 2331.47 -1.88406 -2.34358 0
M  V30 24391 C 2333.02 -1.90947 -2.48009 0
M  V30 24392 C 2333.49 -2.97889 -3.47888 0
M  V30 24393 N 2334.98 -2.97028 -3.55428 0
M  V30 24394 C 2335.72 -3.76419 -4.32546 0
M  V30 24395 N 2335.22 -4.65676 -5.1295 0
M  V30 24396 N 2337.01 -3.64743 -4.27691 0
M  V30 24397 H 2329.16 -1.97743 -0.77533 0
M  V30 24398 H 2331.42 -0.857839 -0.403506 0
M  V30 24399 H 2331.13 -2.88538 -2.01093 0
M  V30 24400 H 2331 -1.74895 -3.34203 0
M  V30 24401 H 2333.39 -0.914628 -2.80568 0
M  V30 24402 H 2333.47 -2.08536 -1.48143 0
M  V30 24403 H 2333.11 -3.97576 -3.16062 0
M  V30 24404 H 2333.04 -2.77546 -4.47522 0
M  V30 24405 H 2335.54 -2.32332 -2.98044 0
M  V30 24406 H 2335.85 -5.22872 -5.69056 0
M  V30 24407 H 2334.19 -4.69721 -5.12237 0
M  V30 24408 H 2337.38 -2.94385 -3.63944 0
M  V30 24409 H 2337.56 -4.26856 -4.87542 0
M  V30 24410 N 2330.96 1.31811 -0.863929 0
M  V30 24411 C 2331.89 2.31144 -0.330883 0
M  V30 24412 C 2332.87 1.60088 0.574977 0
M  V30 24413 O 2334.06 1.87831 0.493271 0
M  V30 24414 C 2331.19 3.44055 0.473679 0
M  V30 24415 C 2330.14 4.26659 -0.338556 0
M  V30 24416 C 2329.47 5.3142 0.591318 0
M  V30 24417 C 2330.77 4.98165 -1.56935 0
M  V30 24418 H 2332.46 2.75977 -1.16091 0
M  V30 24419 H 2330.01 1.32678 -0.559681 0
M  V30 24420 H 2331.96 4.12592 0.857071 0
M  V30 24421 H 2330.69 2.97973 1.33716 0
M  V30 24422 H 2329.35 3.5978 -0.703818 0
M  V30 24423 H 2328.99 4.8159 1.4519 0
M  V30 24424 H 2328.69 5.87577 0.0517989 0
M  V30 24425 H 2330.22 6.02819 0.971685 0
M  V30 24426 H 2331.63 5.59333 -1.25774 0
M  V30 24427 H 2330.03 5.6409 -2.04749 0
M  V30 24428 H 2331.1 4.25497 -2.32552 0
M  V30 24429 N 2332.44 0.62277 1.44773 0
M  V30 24430 C 2333.37 -0.0741451 2.33382 0
M  V30 24431 C 2334.35 -0.843361 1.47721 0
M  V30 24432 O 2335.54 -0.810903 1.7646 0
M  V30 24433 C 2332.67 -1.06198 3.30665 0
M  V30 24434 C 2331.62 -0.404962 4.2608 0
M  V30 24435 C 2330.95 -1.50211 5.13167 0
M  V30 24436 C 2332.25 0.683505 5.17808 0
M  V30 24437 H 2333.94 0.665765 2.91904 0
M  V30 24438 H 2331.49 0.321611 1.40363 0
M  V30 24439 H 2333.44 -1.5582 3.91533 0
M  V30 24440 H 2332.16 -1.83267 2.70334 0
M  V30 24441 H 2330.82 0.0705327 3.66532 0
M  V30 24442 H 2330.47 -2.26347 4.49195 0
M  V30 24443 H 2330.17 -1.06792 5.77814 0
M  V30 24444 H 2331.7 -2.00031 5.76906 0
M  V30 24445 H 2333.11 0.270731 5.7266 0
M  V30 24446 H 2331.51 1.04034 5.91014 0
M  V30 24447 H 2332.58 1.55403 4.59323 0
M  V30 24448 N 2333.92 -1.53367 0.362817 0
M  V30 24449 C 2334.88 -2.24274 -0.472639 0
M  V30 24450 C 2335.88 -1.24963 -1.01198 0
M  V30 24451 O 2337.07 -1.4926 -0.898168 0
M  V30 24452 C 2334.2 -2.97734 -1.66034 0
M  V30 24453 H 2335.4 -2.99536 0.147782 0
M  V30 24454 H 2332.95 -1.5588 0.114461 0
M  V30 24455 H 2333.69 -2.26708 -2.31892 0
M  V30 24456 H 2333.47 -3.70598 -1.28059 0
M  V30 24457 H 2334.96 -3.51645 -2.25246 0
M  V30 24458 N 2335.4 -0.091913 -1.57332 0
M  V30 24459 C 2336.63 0.581013 -1.98575 0
M  V30 24460 C 2337.04 1.61921 -0.970931 0
M  V30 24461 O 2336.4 1.82456 0.0398733 0
M  V30 24462 C 2336.45 1.23158 -3.39874 0
M  V30 24463 O 2336.17 0.234912 -4.3747 0
M  V30 24464 C 2337.67 1.99042 -3.96103 0
M  V30 24465 H 2334.89 0.156007 -0.652612 0
M  V30 24466 H 2337.44 -0.170261 -2.0379 0
M  V30 24467 H 2335.59 1.9338 -3.35683 0
M  V30 24468 H 2336 0.704089 -5.19753 0
M  V30 24469 H 2337.48 2.39925 -4.97132 0
M  V30 24470 H 2337.96 2.85501 -3.33745 0
M  V30 24471 H 2338.56 1.33642 -4.03757 0
M  V30 24472 N 2336.88 1.56548 0.181765 0
M  V30 24473 C 2337.81 1.98625 1.22761 0
M  V30 24474 C 2338.79 0.860215 1.46746 0
M  V30 24475 O 2339.97 1.12553 1.58257 0
M  V30 24476 C 2337.1 2.3372 2.5689 0
M  V30 24477 C 2336.06 3.49186 2.47494 0
M  V30 24478 C 2335.38 3.69993 3.86017 0
M  V30 24479 C 2336.68 4.82963 1.98857 0
M  V30 24480 H 2338.38 2.8624 0.877892 0
M  V30 24481 H 2335.92 1.37713 0.420856 0
M  V30 24482 H 2337.88 2.61752 3.30248 0
M  V30 24483 H 2336.6 1.43002 2.93629 0
M  V30 24484 H 2335.26 3.21265 1.7659 0
M  V30 24485 H 2334.91 2.76584 4.20132 0
M  V30 24486 H 2334.61 4.47679 3.80601 0
M  V30 24487 H 2336.13 4.00415 4.60977 0
M  V30 24488 H 2337.54 5.09939 2.61983 0
M  V30 24489 H 2335.94 5.64212 2.04414 0
M  V30 24490 H 2337.01 4.75654 0.942381 0
M  V30 24491 N 2338.35 -0.449957 1.5104 0
M  V30 24492 C 2339.59 -1.21004 1.64734 0
M  V30 24493 C 2339.96 -1.88785 0.349898 0
M  V30 24494 O 2341.16 -2.66345 0.362478 0
M  V30 24495 C 2339.43 -2.20968 2.80905 0
M  V30 24496 S 2340.99 -3.05632 3.14856 0
M  V30 24497 H 2337.81 -0.410527 0.580507 0
M  V30 24498 H 2340.41 -0.503601 1.88902 0
M  V30 24499 H 2339.11 -1.6979 3.7363 0
M  V30 24500 H 2338.64 -2.96211 2.58888 0
M  V30 24501 H 2340.66 -4.22435 2.60314 0
M  V30 24502 N 2339.83 -1.40974 -0.704569 0
M  V30 24503 C 2341.06 -1.4338 -1.49856 0
M  V30 24504 C 2341.48 -0.0382171 -1.88061 0
M  V30 24505 O 2340.84 0.956398 -1.54022 0
M  V30 24506 C 2340.89 -2.34043 -2.74329 0
M  V30 24507 O 2339.99 -1.79127 -3.71466 0
M  V30 24508 H 2339.33 -0.486982 -0.451381 0
M  V30 24509 H 2341.86 -1.85331 -0.8668 0
M  V30 24510 H 2341.87 -2.49609 -3.22737 0
M  V30 24511 H 2340.55 -3.35451 -2.45857 0
M  V30 24512 H 2339.13 -1.72964 -3.3036 0
M  V30 24513 N 2341.31 0.937917 -1.26653 0
M  V30 24514 C 2342.27 2.01865 -1.08549 0
M  V30 24515 C 2343.27 1.60767 -0.032761 0
M  V30 24516 O 2344.46 1.71992 -0.276458 0
M  V30 24517 C 2341.6 3.34611 -0.651769 0
M  V30 24518 H 2342.79 2.19357 -2.04506 0
M  V30 24519 H 2340.34 1.11732 -1.09296 0
M  V30 24520 H 2341.08 3.22818 0.309639 0
M  V30 24521 H 2340.86 3.65795 -1.41195 0
M  V30 24522 H 2342.35 4.14001 -0.547046 0
M  V30 24523 N 2342.79 1.08509 1.14296 0
M  V30 24524 C 2343.7 0.727792 2.23025 0
M  V30 24525 C 2344.71 -0.26616 1.71952 0
M  V30 24526 O 2345.89 -0.109846 2.011 0
M  V30 24527 C 2342.96 0.143602 3.46402 0
M  V30 24528 C 2342.02 1.1923 4.12411 0
M  V30 24529 C 2341.25 0.635892 5.29898 0
M  V30 24530 O 2341.47 -0.544293 5.67797 0
M  V30 24531 O 2340.41 1.38644 5.85714 0
M  V30 24532 H 2344.23 1.63485 2.55942 0
M  V30 24533 H 2341.82 0.858839 1.22247 0
M  V30 24534 H 2343.7 -0.17933 4.21018 0
M  V30 24535 H 2342.37 -0.736603 3.15208 0
M  V30 24536 H 2341.28 1.56778 3.39664 0
M  V30 24537 H 2342.61 2.04482 4.47714 0
M  V30 24538 N 2344.27 -1.31351 0.870907 0
M  V30 24539 C 2345.51 -1.96964 0.483022 0
M  V30 24540 C 2345.85 -1.68674 -0.962433 0
M  V30 24541 O 2345.12 -0.983739 -1.67788 0
M  V30 24542 C 2345.4 -3.52376 0.741814 0
M  V30 24543 C 2345.26 -3.90236 2.23687 0
M  V30 24544 C 2346.58 -4.39604 0.208915 0
M  V30 24545 H 2343.69 -0.715438 0.176967 0
M  V30 24546 H 2346.34 -1.55462 1.09232 0
M  V30 24547 H 2344.49 -3.87858 0.223217 0
M  V30 24548 H 2346.16 -3.64851 2.82279 0
M  V30 24549 H 2344.4 -3.38809 2.70907 0
M  V30 24550 H 2345.07 -4.986 2.36859 0
M  V30 24551 H 2347.55 -4.10951 0.652601 0
M  V30 24552 H 2346.42 -5.47295 0.419432 0
M  V30 24553 H 2346.69 -4.33065 -0.889199 0
M  V30 24554 N 2345.74 -0.630439 -1.44441 0
M  V30 24555 C 2346.98 -0.137955 -2.03934 0
M  V30 24556 C 2347.35 1.2169 -1.48511 0
M  V30 24557 O 2348.55 1.80145 -1.99502 0
M  V30 24558 C 2346.82 -0.123436 -3.57187 0
M  V30 24559 S 2348.38 0.304527 -4.37742 0
M  V30 24560 H 2345.2 -0.0607477 -0.7084 0
M  V30 24561 H 2347.8 -0.833674 -1.76834 0
M  V30 24562 H 2346.5 -1.11263 -3.9503 0
M  V30 24563 H 2346.03 0.593552 -3.88897 0
M  V30 24564 H 2348.05 1.54889 -4.71406 0
M  V30 24565 N 2347.22 1.53172 -0.370945 0
M  V30 24566 C 2348.15 2.23504 0.507783 0
M  V30 24567 C 2349.17 1.25102 1.0418 0
M  V30 24568 O 2350.36 1.51292 0.947259 0
M  V30 24569 C 2347.46 2.92337 1.71442 0
M  V30 24570 C 2346.63 4.17291 1.31098 0
M  V30 24571 C 2345.69 4.69286 2.38027 0
M  V30 24572 O 2344.71 5.32833 2.00195 0
M  V30 24573 N 2345.92 4.47561 3.69689 0
M  V30 24574 H 2348.68 2.9955 -0.0946908 0
M  V30 24575 H 2346.24 1.60704 -0.196386 0
M  V30 24576 H 2348.23 3.24027 2.42463 0
M  V30 24577 H 2346.8 2.19711 2.22364 0
M  V30 24578 H 2346.02 3.91843 0.430393 0
M  V30 24579 H 2347.31 4.98516 1.01781 0
M  V30 24580 H 2346.71 3.96797 4.03198 0
M  V30 24581 H 2345.27 4.83788 4.36798 0
M  V30 24582 N 2348.7 0.100255 1.57281 0
M  V30 24583 C 2349.94 -0.565545 1.9642 0
M  V30 24584 C 2350.3 -1.65029 0.981294 0
M  V30 24585 O 2351.51 -2.37366 1.26137 0
M  V30 24586 C 2349.78 -1.10165 3.39998 0
M  V30 24587 S 2351.34 -1.7786 4.01137 0
M  V30 24588 H 2348.15 -0.184394 0.686673 0
M  V30 24589 H 2350.76 0.180885 1.94661 0
M  V30 24590 H 2349.46 -0.300731 4.09297 0
M  V30 24591 H 2348.99 -1.88379 3.45365 0
M  V30 24592 H 2351.01 -3.06319 3.90363 0
M  V30 24593 N 2350.18 -1.56643 -0.17346 0
M  V30 24594 C 2351.14 -1.95364 -1.19856 0
M  V30 24595 C 2352.14 -0.837064 -1.37295 0
M  V30 24596 O 2353.33 -1.10415 -1.34737 0
M  V30 24597 C 2350.46 -2.24658 -2.56401 0
M  V30 24598 H 2351.66 -2.87094 -0.867012 0
M  V30 24599 H 2349.21 -1.50667 -0.415827 0
M  V30 24600 H 2349.95 -1.35636 -2.94573 0
M  V30 24601 H 2349.73 -3.06045 -2.4511 0
M  V30 24602 H 2351.22 -2.55546 -3.30282 0
M  V30 24603 N 2351.66 0.44194 -1.51277 0
M  V30 24604 C 2352.57 1.56138 -1.75094 0
M  V30 24605 C 2353.58 1.62 -0.634991 0
M  V30 24606 O 2354.76 1.79327 -0.916717 0
M  V30 24607 C 2351.82 2.92155 -1.86672 0
M  V30 24608 C 2350.89 2.96447 -3.10512 0
M  V30 24609 C 2350.12 4.25977 -3.21527 0
M  V30 24610 O 2350.34 5.18101 -2.38595 0
M  V30 24611 O 2349.28 4.36459 -4.14472 0
M  V30 24612 H 2353.1 1.38956 -2.70046 0
M  V30 24613 H 2350.69 0.624476 -1.35723 0
M  V30 24614 H 2352.57 3.72887 -1.96298 0
M  V30 24615 H 2351.24 3.09474 -0.949068 0
M  V30 24616 H 2350.15 2.14687 -3.06366 0
M  V30 24617 H 2351.48 2.84072 -4.0195 0
M  V30 24618 N 2353.14 1.41345 0.697083 0
M  V30 24619 C 2354.38 1.40344 1.45424 0
M  V30 24620 C 2354.7 0.012913 1.94996 0
M  V30 24621 O 2353.97 -0.944996 1.716 0
M  V30 24622 H 2352.55 0.516582 0.539585 0
M  V30 24623 H 2355.22 1.7657 0.82517 0
M  V30 24624 H 2354.31 2.08971 2.31814 0
M  V30 24625 N 2354.61 -0.931187 1.27148 0
M  V30 24626 C 2355.56 -2.03132 1.09572 0
M  V30 24627 C 2356.53 -1.661 -0.00219513 0
M  V30 24628 O 2357.72 -1.90132 0.159472 0
M  V30 24629 C 2354.86 -3.36956 0.74529 0
M  V30 24630 C 2353.97 -3.86964 1.92048 0
M  V30 24631 C 2353.1 -5.09219 1.51225 0
M  V30 24632 C 2352.14 -5.51515 2.65514 0
M  V30 24633 N 2351.28 -6.64968 2.25303 0
M  V30 24634 H 2356.12 -2.17498 2.03712 0
M  V30 24635 H 2353.66 -1.06555 1.01413 0
M  V30 24636 H 2355.61 -4.13909 0.522951 0
M  V30 24637 H 2354.24 -3.22407 -0.159145 0
M  V30 24638 H 2353.3 -3.06322 2.25546 0
M  V30 24639 H 2354.61 -4.14285 2.77794 0
M  V30 24640 H 2353.76 -5.93663 1.25095 0
M  V30 24641 H 2352.5 -4.83668 0.625834 0
M  V30 24642 H 2351.51 -4.65623 2.92362 0
M  V30 24643 H 2352.73 -5.79064 3.54771 0
M  V30 24644 H 2350.68 -6.41081 1.39109 0
M  V30 24645 H 2350.59 -6.91926 3.04589 0
M  V30 24646 H 2351.86 -7.52762 2.02411 0
M  V30 24647 N 2356.09 -1.09114 -1.13719 0
M  V30 24648 C 2357.33 -0.834833 -1.86574 0
M  V30 24649 C 2357.7 0.62809 -1.81436 0
M  V30 24650 O 2358.9 1.00019 -2.49499 0
M  V30 24651 C 2357.17 -1.3513 -3.30869 0
M  V30 24652 S 2358.73 -1.22839 -4.21255 0
M  V30 24653 H 2355.54 -0.302029 -0.643661 0
M  V30 24654 H 2358.15 -1.39387 -1.37082 0
M  V30 24655 H 2356.85 -2.41033 -3.32161 0
M  V30 24656 H 2356.38 -0.788252 -3.85422 0
M  V30 24657 H 2358.4 -0.177278 -4.95883 0
M  V30 24658 N 2357.57 1.30887 -0.877861 0
M  V30 24659 C 2358.98 1.78592 -0.544224 0
M  V30 24660 C 2359.33 1.72256 0.939271 0
M  V30 24661 O 2358.46 1.29508 1.73368 0
M  V30 24662 C 2359.05 3.24283 -0.981107 0
M  V30 24663 C 2357.61 3.69853 -0.699 0
M  V30 24664 C 2356.76 2.51499 -1.16805 0
M  V30 24665 H 2359.71 1.17857 -1.0628 0
M  V30 24666 H 2359.73 3.79259 -0.307076 0
M  V30 24667 H 2359.24 3.28863 -2.06085 0
M  V30 24668 H 2357.34 3.70768 0.369046 0
M  V30 24669 H 2357.46 4.61641 -1.28156 0
M  V30 24670 H 2355.82 2.4783 -0.587578 0
M  V30 24671 H 2356.6 2.5882 -2.25537 0
M  V30 24672 N 2359.05 0.638091 1.44105 0
M  V30 24673 C 2360.46 0.304314 1.56672 0
M  V30 24674 C 2360.66 -1.19225 1.62442 0
M  V30 24675 O 2359.72 -1.97657 1.57124 0
M  V30 24676 C 2361.03 1.00236 2.83502 0
M  V30 24677 C 2362.58 0.981168 2.97224 0
M  V30 24678 C 2363.06 1.65982 4.26865 0
M  V30 24679 N 2364.55 1.62674 4.33695 0
M  V30 24680 C 2365.28 2.12072 5.32741 0
M  V30 24681 N 2364.78 2.69692 6.38152 0
M  V30 24682 N 2366.57 2.0266 5.24295 0
M  V30 24683 H 2358.72 1.60945 1.38602 0
M  V30 24684 H 2360.98 0.675977 0.66465 0
M  V30 24685 H 2360.69 2.05735 2.85247 0
M  V30 24686 H 2360.56 0.544456 3.7325 0
M  V30 24687 H 2362.95 -0.065367 2.95028 0
M  V30 24688 H 2363.03 1.47763 2.08806 0
M  V30 24689 H 2362.68 2.70584 4.29822 0
M  V30 24690 H 2362.61 1.13813 5.14154 0
M  V30 24691 H 2365.1 1.20612 3.58136 0
M  V30 24692 H 2365.41 3.05099 7.10024 0
M  V30 24693 H 2363.76 2.73746 6.38818 0
M  V30 24694 H 2366.95 1.57361 4.40857 0
M  V30 24695 H 2367.12 2.41468 6.0133 0
M  V30 24696 N 2360.53 -1.52973 0.379063 0
M  V30 24697 C 2361.46 -2.23771 -0.495923 0
M  V30 24698 C 2362.47 -1.25652 -1.03515 0
M  V30 24699 O 2363.66 -1.51792 -0.939222 0
M  V30 24700 C 2360.76 -2.93242 -1.69889 0
M  V30 24701 C 2359.93 -4.17981 -1.28883 0
M  V30 24702 C 2358.99 -4.70542 -2.35535 0
M  V30 24703 O 2358.02 -5.33887 -1.97366 0
M  V30 24704 N 2359.22 -4.49515 -3.6731 0
M  V30 24705 H 2361.98 -2.99496 0.110575 0
M  V30 24706 H 2359.55 -1.60598 0.204906 0
M  V30 24707 H 2361.54 -3.25309 -2.40741 0
M  V30 24708 H 2360.11 -2.20887 -2.21196 0
M  V30 24709 H 2359.33 -3.92066 -0.409607 0
M  V30 24710 H 2360.62 -4.99049 -0.991356 0
M  V30 24711 H 2360.01 -3.9893 -4.01088 0
M  V30 24712 H 2358.57 -4.86097 -4.34227 0
M  V30 24713 N 2362 -0.108595 -1.57225 0
M  V30 24714 C 2363.42 0.24803 -1.57661 0
M  V30 24715 C 2363.62 1.67462 -1.12066 0
M  V30 24716 O 2362.68 2.39382 -0.803278 0
M  V30 24717 C 2363.99 0.0241758 -3.0069 0
M  V30 24718 C 2365.54 0.0908822 -3.12868 0
M  V30 24719 C 2366.01 -0.105148 -4.57879 0
M  V30 24720 N 2367.5 -0.050766 -4.63172 0
M  V30 24721 C 2368.24 -0.177497 -5.73125 0
M  V30 24722 N 2367.73 -0.359817 -6.91865 0
M  V30 24723 N 2369.53 -0.117808 -5.61977 0
M  V30 24724 H 2361.68 -1.04052 -1.85167 0
M  V30 24725 H 2363.94 -0.408895 -0.855283 0
M  V30 24726 H 2363.65 -0.961663 -3.38297 0
M  V30 24727 H 2363.52 0.760615 -3.69452 0
M  V30 24728 H 2365.91 1.06724 -2.75126 0
M  V30 24729 H 2365.99 -0.677268 -2.46671 0
M  V30 24730 H 2365.63 -1.07843 -4.96319 0
M  V30 24731 H 2365.56 0.682862 -5.22154 0
M  V30 24732 H 2368.05 0.0870602 -3.778 0
M  V30 24733 H 2368.37 -0.447665 -7.71502 0
M  V30 24734 H 2366.71 -0.395658 -6.93873 0
M  V30 24735 H 2369.9 0.0235919 -4.68094 0
M  V30 24736 H 2370.08 -0.220019 -6.47626 0
M  V30 24737 N 2363.48 1.56732 0.16515 0
M  V30 24738 C 2364.9 1.50989 0.517148 0
M  V30 24739 C 2365.1 0.813926 1.8433 0
M  V30 24740 O 2364.15 0.376864 2.49672 0
M  V30 24741 C 2365.47 2.95734 0.544209 0
M  V30 24742 C 2367.01 3.06574 0.630985 0
M  V30 24743 C 2367.49 4.5279 0.688881 0
M  V30 24744 N 2368.98 4.57061 0.751602 0
M  V30 24745 C 2369.72 5.67549 0.817077 0
M  V30 24746 N 2369.21 6.87652 0.843008 0
M  V30 24747 N 2371 5.55535 0.856571 0
M  V30 24748 H 2363.16 2.00381 -0.704353 0
M  V30 24749 H 2365.42 0.913143 -0.254703 0
M  V30 24750 H 2365.12 3.49835 -0.361668 0
M  V30 24751 H 2365 3.50713 1.38854 0
M  V30 24752 H 2367.39 2.52503 1.52729 0
M  V30 24753 H 2367.47 2.5467 -0.24014 0
M  V30 24754 H 2367.11 5.07493 -0.203189 0
M  V30 24755 H 2367.04 5.02456 1.57624 0
M  V30 24756 H 2369.53 3.70592 0.739596 0
M  V30 24757 H 2369.84 7.67608 0.894313 0
M  V30 24758 H 2368.19 6.9025 0.811183 0
M  V30 24759 H 2371.38 4.60622 0.833356 0
M  V30 24760 H 2371.55 6.41661 0.904134 0
M  V30 24761 N 2364.96 -0.433911 1.51509 0
M  V30 24762 C 2365.92 -1.50946 1.72476 0
M  V30 24763 C 2366.92 -1.49397 0.594751 0
M  V30 24764 O 2368.11 -1.51358 0.862342 0
M  V30 24765 C 2365.24 -2.90471 1.78437 0
M  V30 24766 H 2366.44 -1.33658 2.68469 0
M  V30 24767 H 2363.99 -0.662811 1.4155 0
M  V30 24768 H 2364.73 -3.1316 0.8427 0
M  V30 24769 H 2364.51 -2.93 2.60563 0
M  V30 24770 H 2366 -3.68488 1.96485 0
M  V30 24771 N 2366.44 -1.41713 -0.689577 0
M  V30 24772 C 2367.37 -1.4681 -1.81574 0
M  V30 24773 C 2368.35 -0.326134 -1.66944 0
M  V30 24774 O 2369.53 -0.53841 -1.86587 0
M  V30 24775 C 2366.66 -1.35541 -3.19759 0
M  V30 24776 C 2365.62 -2.47611 -3.49103 0
M  V30 24777 C 2364.94 -2.21405 -4.86707 0
M  V30 24778 C 2366.24 -3.89945 -3.47477 0
M  V30 24779 H 2367.94 -2.41061 -1.77566 0
M  V30 24780 H 2365.48 -1.16027 -0.852866 0
M  V30 24781 H 2367.44 -1.37717 -3.98261 0
M  V30 24782 H 2366.16 -0.377765 -3.24408 0
M  V30 24783 H 2364.82 -2.44727 -2.72955 0
M  V30 24784 H 2364.47 -1.21969 -4.87988 0
M  V30 24785 H 2364.17 -2.96506 -5.07304 0
M  V30 24786 H 2365.69 -2.25307 -5.67511 0
M  V30 24787 H 2367.11 -3.94512 -4.15973 0
M  V30 24788 H 2365.5 -4.64778 -3.79607 0
M  V30 24789 H 2366.57 -4.1767 -2.46333 0
M  V30 24790 N 2367.92 0.924431 -1.2764 0
M  V30 24791 C 2368.83 2.05883 -1.12469 0
M  V30 24792 C 2369.84 1.73916 -0.0538995 0
M  V30 24793 O 2371.02 1.99701 -0.261047 0
M  V30 24794 C 2368.08 3.37885 -0.776827 0
M  V30 24795 C 2367.14 3.83528 -1.92885 0
M  V30 24796 C 2366.38 5.09231 -1.59748 0
M  V30 24797 O 2366.6 5.68143 -0.506882 0
M  V30 24798 O 2365.53 5.50327 -2.43771 0
M  V30 24799 H 2369.36 2.21596 -2.07675 0
M  V30 24800 H 2366.95 1.04411 -1.06858 0
M  V30 24801 H 2368.83 4.1716 -0.596303 0
M  V30 24802 H 2367.5 3.23372 0.145675 0
M  V30 24803 H 2366.41 3.05127 -2.16445 0
M  V30 24804 H 2367.74 4.02588 -2.83167 0
M  V30 24805 N 2369.39 1.09715 1.13139 0
M  V30 24806 C 2370.81 0.827447 1.36475 0
M  V30 24807 C 2371.01 -0.556783 1.93655 0
M  V30 24808 O 2370.07 -1.31108 2.15794 0
M  V30 24809 C 2371.38 1.9211 2.31331 0
M  V30 24810 C 2372.93 1.94868 2.4494 0
M  V30 24811 C 2373.4 3.03386 3.43105 0
M  V30 24812 N 2374.89 3.02645 3.50657 0
M  V30 24813 C 2375.63 3.83253 4.26503 0
M  V30 24814 N 2375.12 4.73777 5.05477 0
M  V30 24815 N 2376.92 3.71501 4.21834 0
M  V30 24816 H 2369.07 1.98952 0.743772 0
M  V30 24817 H 2371.33 0.864149 0.389807 0
M  V30 24818 H 2371.04 2.91701 1.96478 0
M  V30 24819 H 2370.91 1.8019 3.31378 0
M  V30 24820 H 2373.3 0.959148 2.79078 0
M  V30 24821 H 2373.38 2.10867 1.44807 0
M  V30 24822 H 2373.02 4.02554 3.09697 0
M  V30 24823 H 2372.95 2.8463 4.4305 0
M  V30 24824 H 2375.44 2.37044 2.9431 0
M  V30 24825 H 2375.76 5.31859 5.60665 0
M  V30 24826 H 2374.1 4.77811 5.04699 0
M  V30 24827 H 2377.29 3.00137 3.59215 0
M  V30 24828 H 2377.47 4.34559 4.8069 0
M  V30 24829 N 2370.87 -1.30419 0.88479 0
M  V30 24830 C 2372.12 -1.95762 0.502146 0
M  V30 24831 C 2372.44 -1.70194 -0.951785 0
M  V30 24832 O 2371.71 -1.02543 -1.66918 0
M  V30 24833 H 2370.29 -0.724312 0.182707 0
M  V30 24834 H 2372.95 -1.58953 1.12782 0
M  V30 24835 H 2372.05 -3.04774 0.672242 0
M  V30 24836 N 2372.35 -0.645724 -1.43764 0
M  V30 24837 C 2373.28 0.0370066 -2.33471 0
M  V30 24838 C 2374.26 0.819753 -1.49044 0
M  V30 24839 O 2375.45 0.782727 -1.77727 0
M  V30 24840 C 2372.58 1.00924 -3.32313 0
M  V30 24841 C 2371.53 0.337126 -4.2667 0
M  V30 24842 C 2370.86 1.42028 -5.15492 0
M  V30 24843 C 2372.16 -0.765797 -5.16655 0
M  V30 24844 H 2373.85 -0.71212 -2.90808 0
M  V30 24845 H 2371.4 -0.343901 -1.39833 0
M  V30 24846 H 2373.35 1.49571 -3.93962 0
M  V30 24847 H 2372.07 1.78943 -2.73216 0
M  V30 24848 H 2370.73 -0.128836 -3.66374 0
M  V30 24849 H 2370.38 2.19172 -4.52739 0
M  V30 24850 H 2370.08 0.975864 -5.7944 0
M  V30 24851 H 2371.6 1.90827 -5.80015 0
M  V30 24852 H 2373.02 -0.361802 -5.72157 0
M  V30 24853 H 2371.42 -1.13423 -5.89284 0
M  V30 24854 H 2372.49 -1.62691 -4.56793 0
M  V30 24855 N 2373.83 1.5277 -0.38717 0
M  V30 24856 C 2374.76 2.2403 0.484049 0
M  V30 24857 C 2375.77 1.262 1.02847 0
M  V30 24858 O 2376.96 1.52288 0.931159 0
M  V30 24859 C 2374.06 2.94139 1.68332 0
M  V30 24860 C 2373.24 4.18658 1.26664 0
M  V30 24861 C 2372.29 4.71784 2.33036 0
M  V30 24862 O 2371.32 5.34926 1.94532 0
M  V30 24863 N 2372.52 4.51457 3.64921 0
M  V30 24864 H 2375.29 2.99433 -0.126457 0
M  V30 24865 H 2372.85 1.60487 -0.21342 0
M  V30 24866 H 2374.84 3.26581 2.39013 0
M  V30 24867 H 2373.41 2.22057 2.20021 0
M  V30 24868 H 2372.63 3.92278 0.388809 0
M  V30 24869 H 2373.92 4.99567 0.964876 0
M  V30 24870 H 2373.32 4.01051 3.98967 0
M  V30 24871 H 2371.87 4.88393 4.31643 0
M  V30 24872 N 2375.31 0.116931 1.57166 0
M  V30 24873 C 2376.58 -0.585016 1.86647 0
M  V30 24874 C 2376.96 -1.84947 1.01773 0
M  V30 24875 O 2376.31 -2.28298 0.096078 0
M  V30 24876 C 2376.52 -0.879447 3.37738 0
M  V30 24877 C 2377.87 -1.23341 4.06291 0
M  V30 24878 O 2378.89 -0.969775 3.42745 0
M  V30 24879 O 2377.75 -1.72811 5.18458 0
M  V30 24880 H 2374.85 -0.294994 0.772598 0
M  V30 24881 H 2377.39 0.151279 1.69024 0
M  V30 24882 H 2376.16 0.0166824 3.91296 0
M  V30 24883 H 2375.79 -1.67097 3.60783 0
M  V30 24884 N 2376.78 -1.56818 -0.156836 0
M  V30 24885 C 2377.69 -2.00773 -1.21356 0
M  V30 24886 C 2378.71 -0.921485 -1.47596 0
M  V30 24887 O 2379.89 -1.23022 -1.5946 0
M  V30 24888 C 2376.95 -2.37113 -2.52939 0
M  V30 24889 C 2376.01 -3.59638 -2.34433 0
M  V30 24890 C 2375.25 -3.94236 -3.59741 0
M  V30 24891 O 2375.47 -3.29617 -4.6552 0
M  V30 24892 O 2374.4 -4.87526 -3.5299 0
M  V30 24893 H 2378.23 -2.9096 -0.870417 0
M  V30 24894 H 2375.81 -1.44877 -0.364814 0
M  V30 24895 H 2377.7 -2.61391 -3.30534 0
M  V30 24896 H 2376.37 -1.50085 -2.86803 0
M  V30 24897 H 2375.28 -3.4056 -1.54822 0
M  V30 24898 H 2376.61 -4.47253 -2.05488 0
M  V30 24899 N 2378.26 0.425871 -1.51737 0
M  V30 24900 C 2379.54 1.18627 -1.55522 0
M  V30 24901 C 2379.92 2.08564 -0.326256 0
M  V30 24902 O 2379.27 2.17897 0.687974 0
M  V30 24903 C 2379.48 1.97815 -2.87524 0
M  V30 24904 C 2380.83 2.54462 -3.39903 0
M  V30 24905 O 2381.85 2.08014 -2.89152 0
M  V30 24906 O 2380.71 3.39208 -4.28486 0
M  V30 24907 H 2377.8 0.54071 -0.625749 0
M  V30 24908 H 2380.35 0.434009 -1.64056 0
M  V30 24909 H 2379.12 1.3183 -3.68425 0
M  V30 24910 H 2378.74 2.80083 -2.82205 0
M  V30 24911 N 2379.74 1.42077 0.682052 0
M  V30 24912 C 2380.99 1.41878 1.43927 0
M  V30 24913 C 2381.31 0.0335942 1.94971 0
M  V30 24914 O 2380.58 -0.926743 1.72593 0
M  V30 24915 H 2379.16 0.522276 0.534076 0
M  V30 24916 H 2381.82 1.77435 0.806396 0
M  V30 24917 H 2380.92 2.11418 2.29584 0
M  V30 24918 N 2381.22 -0.917649 1.28129 0
M  V30 24919 C 2382.45 -1.69778 1.17725 0
M  V30 24920 C 2382.86 -1.87303 -0.267228 0
M  V30 24921 O 2382.2 -1.39704 -1.19284 0
M  V30 24922 C 2382.26 -3.11213 1.79964 0
M  V30 24923 C 2381.93 -3.16987 3.29193 0
M  V30 24924 C 2382.92 -2.98477 4.25684 0
M  V30 24925 C 2380.61 -3.39625 3.70081 0
M  V30 24926 C 2382.6 -3.02511 5.6104 0
M  V30 24927 C 2380.29 -3.43291 5.05563 0
M  V30 24928 C 2381.29 -3.24754 6.00853 0
M  V30 24929 O 2380.98 -3.28174 7.33864 0
M  V30 24930 H 2380.71 -0.537627 0.409797 0
M  V30 24931 H 2383.26 -1.15725 1.69696 0
M  V30 24932 H 2381.49 -3.6679 1.22481 0
M  V30 24933 H 2383.18 -3.71235 1.64132 0
M  V30 24934 H 2383.95 -2.80819 3.95431 0
M  V30 24935 H 2379.83 -3.53101 2.96379 0
M  V30 24936 H 2383.37 -2.8796 6.35393 0
M  V30 24937 H 2379.27 -3.60477 5.35469 0
M  V30 24938 H 2380.03 -3.44562 7.42442 0
M  V30 24939 N 2382.7 -1.10314 -1.12555 0
M  V30 24940 C 2384.11 -0.834673 -1.36034 0
M  V30 24941 C 2384.31 0.546505 -1.93947 0
M  V30 24942 O 2383.37 1.29962 -2.16486 0
M  V30 24943 C 2384.68 -1.93335 -2.30309 0
M  V30 24944 C 2386.23 -1.96164 -2.43903 0
M  V30 24945 C 2386.71 -3.05201 -3.41491 0
M  V30 24946 N 2388.2 -3.045 -3.49047 0
M  V30 24947 C 2388.93 -3.8551 -4.24464 0
M  V30 24948 N 2388.43 -4.76451 -5.02957 0
M  V30 24949 N 2390.22 -3.73732 -4.19858 0
M  V30 24950 H 2382.37 -1.99343 -0.733211 0
M  V30 24951 H 2384.63 -0.866204 -0.385219 0
M  V30 24952 H 2384.34 -2.92739 -1.94928 0
M  V30 24953 H 2384.21 -1.81944 -3.30418 0
M  V30 24954 H 2386.6 -0.973935 -2.78565 0
M  V30 24955 H 2386.68 -2.11632 -1.43686 0
M  V30 24956 H 2386.33 -4.04191 -3.07558 0
M  V30 24957 H 2386.26 -2.86976 -4.41534 0
M  V30 24958 H 2388.75 -2.38601 -2.93049 0
M  V30 24959 H 2389.06 -5.34825 -5.57837 0
M  V30 24960 H 2387.41 -4.80481 -5.02158 0
M  V30 24961 H 2390.6 -3.02038 -3.57618 0
M  V30 24962 H 2390.77 -4.37102 -4.78378 0
M  V30 24963 N 2384.18 1.29948 -0.891694 0
M  V30 24964 C 2385.11 2.26111 -0.308034 0
M  V30 24965 C 2386.09 1.52085 0.575236 0
M  V30 24966 O 2387.27 1.81075 0.523833 0
M  V30 24967 C 2384.4 3.3401 0.561675 0
M  V30 24968 C 2383.44 4.25748 -0.253182 0
M  V30 24969 S 2384.28 5.09581 -1.64581 0
M  V30 24970 C 2385.43 6.20985 -0.782808 0
M  V30 24971 H 2385.67 2.75269 -1.12314 0
M  V30 24972 H 2383.2 1.38048 -0.691533 0
M  V30 24973 H 2385.16 3.96639 1.05771 0
M  V30 24974 H 2383.82 2.83564 1.35094 0
M  V30 24975 H 2383.01 5.02323 0.41082 0
M  V30 24976 H 2382.61 3.67728 -0.682069 0
M  V30 24977 H 2384.9 6.775 -0.00269385 0
M  V30 24978 H 2385.85 6.91585 -1.52038 0
M  V30 24979 H 2386.26 5.63471 -0.340737 0
M  V30 24980 N 2385.65 0.653339 1.4342 0
M  V30 24981 C 2386.6 -0.0381866 2.30768 0
M  V30 24982 C 2387.57 -0.814551 1.44756 0
M  V30 24983 O 2388.76 -0.791131 1.73625 0
M  V30 24984 C 2385.9 -0.998541 3.30338 0
M  V30 24985 C 2385.01 -0.218266 4.31448 0
M  V30 24986 C 2384.14 -1.17243 5.181 0
M  V30 24987 C 2383.18 -0.382595 6.10903 0
M  V30 24988 N 2382.32 -1.28836 6.90178 0
M  V30 24989 H 2387.16 0.712562 2.89355 0
M  V30 24990 H 2384.7 0.363153 1.42547 0
M  V30 24991 H 2386.65 -1.56894 3.86575 0
M  V30 24992 H 2385.28 -1.71616 2.734 0
M  V30 24993 H 2384.34 0.468427 3.77505 0
M  V30 24994 H 2385.65 0.395899 4.97226 0
M  V30 24995 H 2384.8 -1.81346 5.78963 0
M  V30 24996 H 2383.54 -1.8205 4.52448 0
M  V30 24997 H 2382.55 0.271787 5.49128 0
M  V30 24998 H 2383.77 0.261076 6.78598 0
M  V30 24999 H 2381.72 -1.92323 6.27175 0
M  V30 25000 H 2381.63 -0.728755 7.52479 0
M  V30 25001 H 2382.9 -1.91753 7.55547 0
M  V30 25002 N 2387.13 -1.52563 0.395266 0
M  V30 25003 C 2388.38 -2.01653 -0.185008 0
M  V30 25004 C 2388.71 -1.28149 -1.46315 0
M  V30 25005 O 2387.96 -0.372108 -1.9213 0
M  V30 25006 C 2388.26 -3.53978 -0.493382 0
M  V30 25007 C 2387.93 -4.45528 0.693918 0
M  V30 25008 C 2386.59 -4.70273 1.01962 0
M  V30 25009 C 2388.94 -4.9951 1.48794 0
M  V30 25010 C 2386.27 -5.46248 2.14079 0
M  V30 25011 C 2388.62 -5.76711 2.59975 0
M  V30 25012 C 2387.28 -5.99733 2.93047 0
M  V30 25013 H 2386.55 -0.737901 -0.0676994 0
M  V30 25014 H 2389.2 -1.83909 0.533839 0
M  V30 25015 H 2387.51 -3.69828 -1.29363 0
M  V30 25016 H 2389.2 -3.8946 -0.955095 0
M  V30 25017 H 2385.79 -4.26437 0.430062 0
M  V30 25018 H 2389.98 -4.80313 1.24954 0
M  V30 25019 H 2385.23 -5.62297 2.40066 0
M  V30 25020 H 2389.41 -6.17539 3.21898 0
M  V30 25021 H 2387.03 -6.58386 3.80042 0
M  V30 25022 N 2388.61 -0.125265 -1.57101 0
M  V30 25023 C 2389.57 0.808342 -2.14473 0
M  V30 25024 C 2390.57 1.19031 -1.08112 0
M  V30 25025 O 2391.76 1.11479 -1.33858 0
M  V30 25026 C 2388.89 2.09397 -2.69008 0
M  V30 25027 H 2390.09 0.309644 -2.98297 0
M  V30 25028 H 2387.64 0.124024 -1.55807 0
M  V30 25029 H 2388.38 2.63684 -1.88789 0
M  V30 25030 H 2388.16 1.82951 -3.46802 0
M  V30 25031 H 2389.65 2.76122 -3.13283 0
M  V30 25032 N 2390.09 1.56899 0.148518 0
M  V30 25033 C 2391.33 1.85072 0.867618 0
M  V30 25034 C 2391.69 0.709348 1.78416 0
M  V30 25035 O 2392.89 0.872094 2.5426 0
M  V30 25036 C 2391.16 3.18423 1.623 0
M  V30 25037 S 2392.72 3.68148 2.38774 0
M  V30 25038 H 2389.54 0.649097 0.290162 0
M  V30 25039 H 2392.14 1.95082 0.127721 0
M  V30 25040 H 2390.85 3.99463 0.941122 0
M  V30 25041 H 2390.38 3.11415 2.40384 0
M  V30 25042 H 2392.39 3.37291 3.63936 0
M  V30 25043 N 2391.57 -0.417818 1.51961 0
M  V30 25044 C 2392.8 -1.18578 1.69183 0
M  V30 25045 C 2393.2 -1.84985 0.397136 0
M  V30 25046 O 2392.55 -1.7234 -0.635981 0
M  V30 25047 C 2392.61 -2.29755 2.76502 0
M  V30 25048 C 2392.27 -1.83555 4.18517 0
M  V30 25049 C 2393.27 -1.32812 5.0265 0
M  V30 25050 C 2390.95 -1.90653 4.64711 0
M  V30 25051 C 2392.95 -0.897783 6.31046 0
M  V30 25052 C 2390.64 -1.4723 5.93099 0
M  V30 25053 C 2391.63 -0.968773 6.76095 0
M  V30 25054 O 2391.32 -0.540783 8.02079 0
M  V30 25055 H 2391.05 -0.362695 0.570463 0
M  V30 25056 H 2393.61 -0.49885 1.9925 0
M  V30 25057 H 2391.84 -3.01784 2.41791 0
M  V30 25058 H 2393.53 -2.91548 2.82408 0
M  V30 25059 H 2394.29 -1.26708 4.68156 0
M  V30 25060 H 2390.17 -2.2879 4.0022 0
M  V30 25061 H 2393.72 -0.50407 6.95776 0
M  V30 25062 H 2389.61 -1.53011 6.27103 0
M  V30 25063 H 2390.38 -0.664877 8.15795 0
M  V30 25064 N 2393.04 -1.42436 -0.674508 0
M  V30 25065 C 2394.27 -1.46108 -1.46069 0
M  V30 25066 C 2394.68 -0.0709937 -1.89067 0
M  V30 25067 O 2394.02 0.924649 -1.58732 0
M  V30 25068 C 2394.09 -2.32566 -2.74141 0
M  V30 25069 C 2393.75 -3.80434 -2.53217 0
M  V30 25070 C 2394.75 -4.72079 -2.17801 0
M  V30 25071 C 2392.43 -4.24703 -2.68203 0
M  V30 25072 C 2394.43 -6.05985 -1.97637 0
M  V30 25073 C 2392.11 -5.58668 -2.47655 0
M  V30 25074 C 2393.11 -6.49126 -2.12426 0
M  V30 25075 O 2392.8 -7.80616 -1.92076 0
M  V30 25076 H 2392.53 -0.499084 -0.455951 0
M  V30 25077 H 2395.09 -1.8761 -0.83616 0
M  V30 25078 H 2393.32 -1.85914 -3.39077 0
M  V30 25079 H 2395 -2.27689 -3.36024 0
M  V30 25080 H 2395.77 -4.39162 -2.05819 0
M  V30 25081 H 2391.65 -3.54585 -2.94603 0
M  V30 25082 H 2395.19 -6.76553 -1.70063 0
M  V30 25083 H 2391.09 -5.91158 -2.59233 0
M  V30 25084 H 2391.86 -7.91978 -2.06672 0
M  V30 25085 N 2394.52 0.910841 -1.28614 0
M  V30 25086 C 2395.93 1.47539 -1.14408 0
M  V30 25087 C 2396.28 1.94404 0.264867 0
M  V30 25088 O 2395.41 1.82721 1.15939 0
M  V30 25089 C 2396 2.6815 -2.07078 0
M  V30 25090 C 2394.56 3.20774 -1.96928 0
M  V30 25091 C 2393.71 1.93477 -1.9865 0
M  V30 25092 H 2396.66 0.723266 -1.41261 0
M  V30 25093 H 2396.68 3.43511 -1.63648 0
M  V30 25094 H 2396.19 2.34009 -3.09615 0
M  V30 25095 H 2394.29 3.59634 -0.974393 0
M  V30 25096 H 2394.41 3.85827 -2.84032 0
M  V30 25097 H 2392.77 2.10702 -1.43096 0
M  V30 25098 H 2393.55 1.61629 -3.02871 0
M  V30 25099 N 2396 1.10909 1.11969 0
M  V30 25100 C 2397.42 0.841876 1.3559 0
M  V30 25101 C 2397.62 -0.536212 1.94234 0
M  V30 25102 O 2396.67 -1.28812 2.17172 0
M  V30 25103 C 2397.99 1.94553 2.29281 0
M  V30 25104 C 2399.53 1.97455 2.42859 0
M  V30 25105 C 2400.01 3.07008 3.39868 0
M  V30 25106 N 2401.5 3.06347 3.47427 0
M  V30 25107 C 2402.23 3.87755 4.22414 0
M  V30 25108 N 2401.73 4.79112 5.00424 0
M  V30 25109 N 2403.52 3.75954 4.1787 0
M  V30 25110 H 2395.67 1.99729 0.722629 0
M  V30 25111 H 2397.94 0.868235 0.38062 0
M  V30 25112 H 2397.64 2.93769 1.93373 0
M  V30 25113 H 2397.52 1.83694 3.29449 0
M  V30 25114 H 2399.9 0.988694 2.78045 0
M  V30 25115 H 2399.99 2.12391 1.42562 0
M  V30 25116 H 2399.63 4.05816 3.0541 0
M  V30 25117 H 2399.56 2.89313 4.40006 0
M  V30 25118 H 2402.05 2.40152 2.9178 0
M  V30 25119 H 2402.36 5.37776 5.54993 0
M  V30 25120 H 2400.71 4.83137 4.99603 0
M  V30 25121 H 2403.9 3.03931 3.56011 0
M  V30 25122 H 2404.07 4.39633 4.76054 0
M  V30 25123 N 2397.48 -1.29474 0.898573 0
M  V30 25124 C 2398.72 -1.95895 0.524692 0
M  V30 25125 C 2399.06 -1.70677 -0.926438 0
M  V30 25126 O 2398.33 -1.01911 -1.65664 0
M  V30 25127 C 2398.62 -3.50724 0.816391 0
M  V30 25128 C 2398.47 -3.85403 2.31914 0
M  V30 25129 C 2399.79 -4.39062 0.302115 0
M  V30 25130 H 2396.91 -0.711523 0.192103 0
M  V30 25131 H 2399.55 -1.5311 1.12505 0
M  V30 25132 H 2397.7 -3.87297 0.305437 0
M  V30 25133 H 2399.37 -3.58781 2.89955 0
M  V30 25134 H 2397.61 -3.32987 2.78033 0
M  V30 25135 H 2398.28 -4.93464 2.47382 0
M  V30 25136 H 2400.76 -4.09474 0.739623 0
M  V30 25137 H 2399.64 -5.46282 0.535427 0
M  V30 25138 H 2399.9 -4.34854 -0.79714 0
M  V30 25139 N 2398.96 -0.660936 -1.43071 0
M  V30 25140 C 2399.87 0.026375 -2.34585 0
M  V30 25141 C 2400.88 0.80387 -1.54318 0
M  V30 25142 O 2402.06 0.749358 -1.8694 0
M  V30 25143 C 2399.12 0.975581 -3.32691 0
M  V30 25144 C 2398.18 0.194161 -4.28861 0
M  V30 25145 C 2397.42 1.09815 -5.2228 0
M  V30 25146 O 2397.64 2.33754 -5.20303 0
M  V30 25147 O 2396.57 0.566408 -5.99229 0
M  V30 25148 H 2400.4 -0.727085 -2.94868 0
M  V30 25149 H 2397.99 -0.421135 -1.43342 0
M  V30 25150 H 2399.87 1.52087 -3.92998 0
M  V30 25151 H 2398.54 1.70913 -2.74901 0
M  V30 25152 H 2397.45 -0.394901 -3.7201 0
M  V30 25153 H 2398.78 -0.499985 -4.89654 0
M  V30 25154 N 2400.43 1.52351 -0.403352 0
M  V30 25155 C 2401.66 2.05868 0.173724 0
M  V30 25156 C 2402.07 1.27381 1.39895 0
M  V30 25157 O 2401.42 0.317322 1.80939 0
M  V30 25158 C 2401.48 3.54547 0.594694 0
M  V30 25159 C 2401.14 4.54043 -0.519006 0
M  V30 25160 C 2402.14 5.01229 -1.38079 0
M  V30 25161 C 2399.82 4.97538 -0.690048 0
M  V30 25162 C 2401.82 5.90546 -2.39862 0
M  V30 25163 C 2399.5 5.86653 -1.71119 0
M  V30 25164 C 2400.5 6.33051 -2.56389 0
M  V30 25165 O 2400.19 7.20403 -3.56756 0
M  V30 25166 H 2399.92 0.675481 0.0264833 0
M  V30 25167 H 2402.48 1.97298 -0.571214 0
M  V30 25168 H 2400.71 3.60784 1.39183 0
M  V30 25169 H 2402.4 3.90738 1.09903 0
M  V30 25170 H 2403.16 4.68346 -1.26002 0
M  V30 25171 H 2399.04 4.60986 -0.03602 0
M  V30 25172 H 2402.58 6.26684 -3.06452 0
M  V30 25173 H 2398.48 6.18949 -1.83229 0
M  V30 25174 H 2399.25 7.385 -3.52931 0
M  V30 25175 N 2401.91 0.133594 1.57033 0
M  V30 25176 C 2403.16 -0.519814 1.95301 0
M  V30 25177 C 2403.48 -1.66276 1.01869 0
M  V30 25178 O 2402.75 -1.95746 0.0776857 0
M  V30 25179 H 2401.33 -0.195019 0.721094 0
M  V30 25180 H 2403.99 0.205955 1.93809 0
M  V30 25181 H 2403.09 -0.904801 2.98697 0
M  V30 25182 N 2403.39 -1.56975 -0.140195 0
M  V30 25183 C 2404.64 -1.8372 -0.851655 0
M  V30 25184 C 2404.97 -0.715516 -1.80861 0
M  V30 25185 O 2404.22 0.294922 -1.93465 0
M  V30 25186 C 2404.52 -3.16835 -1.6538 0
M  V30 25187 C 2404.19 -4.42949 -0.843034 0
M  V30 25188 C 2402.85 -4.77197 -0.61938 0
M  V30 25189 C 2405.2 -5.20466 -0.276491 0
M  V30 25190 C 2402.53 -5.86419 0.181415 0
M  V30 25191 C 2404.88 -6.3053 0.51138 0
M  V30 25192 C 2403.54 -6.63323 0.745548 0
M  V30 25193 H 2402.81 -0.67228 -0.311643 0
M  V30 25194 H 2405.46 -1.91155 -0.114972 0
M  V30 25195 H 2403.77 -3.04881 -2.46079 0
M  V30 25196 H 2405.46 -3.34744 -2.20788 0
M  V30 25197 H 2402.05 -4.16103 -1.02742 0
M  V30 25198 H 2406.24 -4.94376 -0.436545 0
M  V30 25199 H 2401.49 -6.10266 0.372272 0
M  V30 25200 H 2405.67 -6.89786 0.957475 0
M  V30 25201 H 2403.29 -7.47792 1.36791 0
M  V30 25202 N 2404.87 0.409753 -1.5218 0
M  V30 25203 C 2405.8 1.51822 -1.71705 0
M  V30 25204 C 2406.81 1.5144 -0.597471 0
M  V30 25205 O 2408 1.55717 -0.872609 0
M  V30 25206 C 2405.1 2.90716 -1.74176 0
M  V30 25207 C 2404.28 3.15297 -3.03161 0
M  V30 25208 C 2403.33 4.3406 -2.97453 0
M  V30 25209 O 2402.36 4.3137 -3.7136 0
M  V30 25210 N 2403.56 5.39137 -2.152 0
M  V30 25211 H 2406.33 1.35467 -2.67336 0
M  V30 25212 H 2403.89 0.599043 -1.5041 0
M  V30 25213 H 2405.88 3.68232 -1.6789 0
M  V30 25214 H 2404.45 3.00531 -0.860218 0
M  V30 25215 H 2403.67 2.2583 -3.23101 0
M  V30 25216 H 2404.96 3.28562 -3.8849 0
M  V30 25217 H 2404.36 5.4417 -1.54582 0
M  V30 25218 H 2402.91 6.154 -2.14771 0
M  V30 25219 N 2406.35 1.42792 0.666944 0
M  V30 25220 C 2407.59 1.43893 1.42908 0
M  V30 25221 C 2407.93 0.0579313 1.94114 0
M  V30 25222 O 2407.2 -0.91908 1.71415 0
M  V30 25223 C 2407.48 2.46991 2.62044 0
M  V30 25224 C 2407.34 3.94313 2.16419 0
M  V30 25225 C 2408.66 2.46984 3.64262 0
M  V30 25226 H 2405.77 0.523963 0.518297 0
M  V30 25227 H 2408.42 1.74256 0.75729 0
M  V30 25228 H 2406.57 2.21231 3.19357 0
M  V30 25229 H 2408.24 4.31082 1.64213 0
M  V30 25230 H 2406.48 4.07802 1.47918 0
M  V30 25231 H 2407.15 4.62041 3.02029 0
M  V30 25232 H 2409.63 2.69911 3.16681 0
M  V30 25233 H 2408.5 3.21087 4.45191 0
M  V30 25234 H 2408.77 1.49864 4.15924 0
M  V30 25235 N 2407.82 -0.904008 1.29095 0
M  V30 25236 C 2408.77 -2.00762 1.13856 0
M  V30 25237 C 2409.74 -1.66067 0.0330376 0
M  V30 25238 O 2410.93 -1.89751 0.199766 0
M  V30 25239 C 2408.07 -3.35299 0.816595 0
M  V30 25240 C 2407.18 -3.82804 2.00213 0
M  V30 25241 C 2406.31 -5.05897 1.61992 0
M  V30 25242 C 2405.35 -5.45759 2.77152 0
M  V30 25243 N 2404.49 -6.6004 2.39357 0
M  V30 25244 H 2409.33 -2.13128 2.08279 0
M  V30 25245 H 2406.87 -1.0438 1.0365 0
M  V30 25246 H 2408.83 -4.12707 0.61063 0
M  V30 25247 H 2407.46 -3.22672 -0.0907223 0
M  V30 25248 H 2406.51 -3.01469 2.31993 0
M  V30 25249 H 2407.82 -4.08299 2.86519 0
M  V30 25250 H 2406.97 -5.90876 1.37659 0
M  V30 25251 H 2405.71 -4.82232 0.728287 0
M  V30 25252 H 2404.72 -4.59316 3.02173 0
M  V30 25253 H 2405.94 -5.71408 3.66974 0
M  V30 25254 H 2403.89 -6.37986 1.52676 0
M  V30 25255 H 2403.81 -6.85309 3.19197 0
M  V30 25256 H 2405.07 -7.48299 2.18333 0
M  V30 25257 N 2409.3 -1.11501 -1.11379 0
M  V30 25258 C 2410.55 -0.865544 -1.83402 0
M  V30 25259 C 2410.88 0.607296 -1.8446 0
M  V30 25260 O 2410.16 1.4484 -1.29814 0
M  V30 25261 C 2410.44 -1.42861 -3.30549 0
M  V30 25262 C 2410.29 -2.96912 -3.37881 0
M  V30 25263 C 2411.61 -1.08007 -4.26641 0
M  V30 25264 H 2408.73 -0.315882 -0.665874 0
M  V30 25265 H 2411.37 -1.38 -1.30598 0
M  V30 25266 H 2409.52 -0.991051 -3.75647 0
M  V30 25267 H 2411.19 -3.49276 -3.01337 0
M  V30 25268 H 2409.44 -3.32946 -2.78082 0
M  V30 25269 H 2410.11 -3.31397 -4.41452 0
M  V30 25270 H 2412.58 -1.45782 -3.89727 0
M  V30 25271 H 2411.46 -1.50081 -5.27984 0
M  V30 25272 H 2411.72 0.00907266 -4.42099 0
M  V30 25273 N 2410.78 1.28995 -0.905426 0
M  V30 25274 C 2411.71 2.29974 -0.404253 0
M  V30 25275 C 2412.69 1.61836 0.523755 0
M  V30 25276 O 2413.88 1.89305 0.433265 0
M  V30 25277 C 2411.01 3.45387 0.363981 0
M  V30 25278 C 2409.96 4.25366 -0.474123 0
M  V30 25279 C 2409.29 5.33033 0.421952 0
M  V30 25280 C 2410.59 4.9292 -1.72704 0
M  V30 25281 H 2412.28 2.72144 -1.24812 0
M  V30 25282 H 2409.83 1.30831 -0.601608 0
M  V30 25283 H 2411.78 4.1511 0.725374 0
M  V30 25284 H 2410.5 3.02076 1.24168 0
M  V30 25285 H 2409.16 3.57359 -0.817923 0
M  V30 25286 H 2408.81 4.85965 1.29796 0
M  V30 25287 H 2408.51 5.87445 -0.13516 0
M  V30 25288 H 2410.04 6.05605 0.77941 0
M  V30 25289 H 2411.45 5.55049 -1.43505 0
M  V30 25290 H 2409.85 5.57291 -2.22592 0
M  V30 25291 H 2410.92 4.17883 -2.45971 0
M  V30 25292 N 2412.26 0.668514 1.42719 0
M  V30 25293 C 2413.68 0.337478 1.55991 0
M  V30 25294 C 2413.88 -1.15753 1.64935 0
M  V30 25295 O 2412.93 -1.9428 1.61281 0
M  V30 25296 C 2414.24 1.06227 2.81312 0
M  V30 25297 C 2415.79 1.04399 2.95076 0
M  V30 25298 C 2416.27 1.74999 4.23249 0
M  V30 25299 N 2417.76 1.71836 4.30147 0
M  V30 25300 C 2418.49 2.23324 5.28123 0
M  V30 25301 N 2417.99 2.83167 6.32288 0
M  V30 25302 N 2419.78 2.13735 5.19878 0
M  V30 25303 H 2411.93 1.63848 1.35157 0
M  V30 25304 H 2414.2 0.689923 0.650162 0
M  V30 25305 H 2413.9 2.11739 2.80819 0
M  V30 25306 H 2413.78 0.623505 3.72011 0
M  V30 25307 H 2416.16 -0.00277253 2.951 0
M  V30 25308 H 2416.24 1.52159 2.05624 0
M  V30 25309 H 2415.89 2.7964 4.23986 0
M  V30 25310 H 2415.82 1.24694 5.11624 0
M  V30 25311 H 2418.31 1.28182 3.55497 0
M  V30 25312 H 2418.62 3.20092 7.03393 0
M  V30 25313 H 2416.97 2.87234 6.32868 0
M  V30 25314 H 2420.16 1.66677 4.3742 0
M  V30 25315 H 2420.33 2.54169 5.96072 0
M  V30 25316 N 2413.74 -1.52135 0.411426 0
M  V30 25317 C 2414.65 -2.30815 -0.419734 0
M  V30 25318 C 2415.66 -1.38636 -1.05148 0
M  V30 25319 O 2416.84 -1.71711 -1.05249 0
M  V30 25320 C 2413.9 -3.11597 -1.52014 0
M  V30 25321 C 2412.97 -4.19518 -0.911216 0
M  V30 25322 C 2412.2 -4.96439 -1.95918 0
M  V30 25323 O 2412.42 -4.73688 -3.17767 0
M  V30 25324 O 2411.36 -5.81222 -1.56413 0
M  V30 25325 H 2415.18 -3.02889 0.221858 0
M  V30 25326 H 2412.77 -1.48377 0.174573 0
M  V30 25327 H 2414.65 -3.61896 -2.15891 0
M  V30 25328 H 2413.32 -2.42314 -2.14629 0
M  V30 25329 H 2412.23 -3.73361 -0.235091 0
M  V30 25330 H 2413.56 -4.911 -0.328954 0
M  V30 25331 N 2415.22 -0.14192 -1.5696 0
M  V30 25332 C 2416.49 0.555248 -1.87554 0
M  V30 25333 C 2416.87 1.83305 -1.04703 0
M  V30 25334 O 2416.22 2.28116 -0.132386 0
M  V30 25335 C 2416.43 0.825605 -3.39094 0
M  V30 25336 C 2417.78 1.16862 -4.08202 0
M  V30 25337 O 2418.8 0.915125 -3.44244 0
M  V30 25338 O 2417.66 1.64541 -5.21141 0
M  V30 25339 H 2414.76 0.282665 -0.777193 0
M  V30 25340 H 2417.3 -0.17815 -1.68762 0
M  V30 25341 H 2416.07 -0.0789321 -3.9122 0
M  V30 25342 H 2415.7 1.61336 -3.63396 0
M  V30 25343 N 2416.69 1.57047 0.131868 0
M  V30 25344 C 2417.92 1.88712 0.860385 0
M  V30 25345 C 2418.34 0.732541 1.7325 0
M  V30 25346 O 2417.7 -0.317397 1.785 0
M  V30 25347 C 2417.75 3.19052 1.68042 0
M  V30 25348 O 2416.85 3.04052 2.78615 0
M  V30 25349 H 2416.19 0.619599 0.238732 0
M  V30 25350 H 2418.72 2.04259 0.118133 0
M  V30 25351 H 2418.73 3.51452 2.07232 0
M  V30 25352 H 2417.41 4.02684 1.04011 0
M  V30 25353 H 2415.99 2.83092 2.42721 0
M  V30 25354 N 2418.17 -0.401677 1.52395 0
M  V30 25355 C 2419.59 -0.740839 1.41364 0
M  V30 25356 C 2419.79 -1.94567 0.524017 0
M  V30 25357 O 2418.84 -2.52499 -0.00736765 0
M  V30 25358 C 2420.16 -0.987797 2.84012 0
M  V30 25359 C 2421.7 -1.09005 2.93406 0
M  V30 25360 C 2422.18 -1.36972 4.37038 0
M  V30 25361 N 2423.67 -1.43821 4.40306 0
M  V30 25362 C 2424.41 -1.67102 5.48511 0
M  V30 25363 N 2423.9 -1.87937 6.66822 0
M  V30 25364 N 2425.69 -1.69178 5.36037 0
M  V30 25365 H 2417.85 0.391299 2.08764 0
M  V30 25366 H 2420.11 0.112815 0.941263 0
M  V30 25367 H 2419.81 -0.174773 3.51265 0
M  V30 25368 H 2419.69 -1.90594 3.25505 0
M  V30 25369 H 2422.08 -1.89366 2.26328 0
M  V30 25370 H 2422.16 -0.150105 2.55359 0
M  V30 25371 H 2421.8 -0.571264 5.04677 0
M  V30 25372 H 2421.73 -2.32231 4.72627 0
M  V30 25373 H 2424.22 -1.2948 3.55026 0
M  V30 25374 H 2424.53 -2.05172 7.45067 0
M  V30 25375 H 2422.88 -1.85187 6.69874 0
M  V30 25376 H 2426.07 -1.52443 4.42582 0
M  V30 25377 H 2426.24 -1.86982 6.20437 0
M  V30 25378 N 2419.65 -1.43144 -0.659362 0
M  V30 25379 C 2420.61 -1.47504 -1.75429 0
M  V30 25380 C 2421.61 -0.360539 -1.56706 0
M  V30 25381 O 2422.8 -0.622031 -1.62716 0
M  V30 25382 C 2419.93 -1.32168 -3.14236 0
M  V30 25383 H 2421.13 -2.4501 -1.72946 0
M  V30 25384 H 2418.68 -1.29819 -0.870447 0
M  V30 25385 H 2419.42 -0.356457 -3.22335 0
M  V30 25386 H 2419.2 -2.12954 -3.29231 0
M  V30 25387 H 2420.69 -1.38137 -3.94091 0
M  V30 25388 N 2421.13 0.897149 -1.29572 0
M  V30 25389 C 2422.09 1.9831 -1.14917 0
M  V30 25390 C 2423.09 1.60581 -0.0838911 0
M  V30 25391 O 2424.28 1.71026 -0.331036 0
M  V30 25392 C 2421.41 3.32368 -0.757893 0
M  V30 25393 H 2422.61 2.1274 -2.11381 0
M  V30 25394 H 2420.16 1.08199 -1.12795 0
M  V30 25395 H 2420.89 3.2364 0.20678 0
M  V30 25396 H 2420.68 3.61118 -1.52761 0
M  V30 25397 H 2422.17 4.12051 -0.67848 0
M  V30 25398 N 2422.61 1.1209 1.10786 0
M  V30 25399 C 2423.85 0.873963 1.82669 0
M  V30 25400 C 2424.18 -0.600279 1.85005 0
M  V30 25401 O 2423.44 -1.45955 1.30367 0
M  V30 25402 C 2423.73 1.38932 3.29291 0
M  V30 25403 C 2423.4 2.87797 3.47108 0
M  V30 25404 C 2422.06 3.28445 3.51678 0
M  V30 25405 C 2424.41 3.83641 3.52801 0
M  V30 25406 C 2421.74 4.63652 3.59505 0
M  V30 25407 C 2424.09 5.18674 3.6216 0
M  V30 25408 C 2422.76 5.5887 3.64993 0
M  V30 25409 H 2422.03 0.319806 0.668435 0
M  V30 25410 H 2424.68 1.40047 1.3061 0
M  V30 25411 H 2422.98 0.78319 3.83892 0
M  V30 25412 H 2424.68 1.1745 3.83414 0
M  V30 25413 H 2421.27 2.55356 3.44225 0
M  V30 25414 H 2425.45 3.53334 3.48524 0
M  V30 25415 H 2420.71 4.94192 3.59978 0
M  V30 25416 H 2424.88 5.9277 3.65509 0
M  V30 25417 H 2422.51 6.63629 3.70811 0
M  V30 25418 N 2424.08 -1.28513 0.912254 0
M  V30 25419 C 2425.5 -1.47475 0.610185 0
M  V30 25420 C 2425.7 -1.8293 -0.844923 0
M  V30 25421 O 2424.76 -1.93335 -1.62412 0
M  V30 25422 C 2426.07 -2.57865 1.5468 0
M  V30 25423 C 2427.62 -2.71735 1.55335 0
M  V30 25424 C 2428.09 -3.85267 2.47655 0
M  V30 25425 N 2429.58 -3.92619 2.45774 0
M  V30 25426 C 2430.32 -4.79845 3.13905 0
M  V30 25427 N 2429.81 -5.71672 3.9136 0
M  V30 25428 N 2431.61 -4.73443 3.02999 0
M  V30 25429 H 2423.76 -1.03779 1.8532 0
M  V30 25430 H 2426.02 -0.516739 0.794786 0
M  V30 25431 H 2425.73 -2.38569 2.58414 0
M  V30 25432 H 2425.6 -3.54934 1.27677 0
M  V30 25433 H 2427.99 -2.90421 0.523401 0
M  V30 25434 H 2428.07 -1.75202 1.86381 0
M  V30 25435 H 2427.71 -3.67336 3.50752 0
M  V30 25436 H 2427.64 -4.81195 2.13912 0
M  V30 25437 H 2430.13 -3.26948 1.89509 0
M  V30 25438 H 2430.45 -6.35054 4.4037 0
M  V30 25439 H 2428.79 -5.71517 3.95465 0
M  V30 25440 H 2431.98 -4.00695 2.41994 0
M  V30 25441 H 2432.16 -5.41207 3.56369 0
M  V30 25442 N 2425.56 -0.676073 -1.42362 0
M  V30 25443 C 2426.49 -0.0125243 -2.33497 0
M  V30 25444 C 2427.47 0.787954 -1.50749 0
M  V30 25445 O 2428.66 0.744852 -1.79348 0
M  V30 25446 C 2425.79 0.938523 -3.34379 0
M  V30 25447 C 2424.74 0.246547 -4.27289 0
M  V30 25448 C 2424.07 1.31062 -5.18389 0
M  V30 25449 C 2425.37 -0.875215 -5.14915 0
M  V30 25450 H 2427.06 -0.773644 -2.89232 0
M  V30 25451 H 2424.61 -0.373484 -1.39072 0
M  V30 25452 H 2426.56 1.41181 -3.97046 0
M  V30 25453 H 2425.29 1.73108 -2.7695 0
M  V30 25454 H 2423.94 -0.20652 -3.66018 0
M  V30 25455 H 2423.59 2.0952 -4.57286 0
M  V30 25456 H 2423.29 0.852737 -5.8138 0
M  V30 25457 H 2424.82 1.78481 -5.83932 0
M  V30 25458 H 2426.23 -0.483084 -5.71261 0
M  V30 25459 H 2424.63 -1.25897 -5.86745 0
M  V30 25460 H 2425.7 -1.72343 -4.53239 0
M  V30 25461 N 2427.04 1.51915 -0.419488 0
M  V30 25462 C 2428.29 2.01922 0.152904 0
M  V30 25463 C 2428.62 1.3046 1.44258 0
M  V30 25464 O 2427.87 0.402627 1.91513 0
M  V30 25465 C 2428.17 3.54718 0.437004 0
M  V30 25466 C 2427.84 4.44368 -0.76471 0
M  V30 25467 C 2426.5 4.68592 -1.09431 0
M  V30 25468 C 2428.85 4.97079 -1.56722 0
M  V30 25469 C 2426.18 5.42773 -2.22742 0
M  V30 25470 C 2428.53 5.72502 -2.69117 0
M  V30 25471 C 2427.19 5.94995 -3.02552 0
M  V30 25472 H 2426.46 0.738885 0.0559514 0
M  V30 25473 H 2429.11 1.83036 -0.56303 0
M  V30 25474 H 2427.42 3.71839 1.23463 0
M  V30 25475 H 2429.11 3.9093 0.893014 0
M  V30 25476 H 2425.7 4.25699 -0.49785 0
M  V30 25477 H 2429.89 4.78264 -1.3258 0
M  V30 25478 H 2425.14 5.58407 -2.48981 0
M  V30 25479 H 2429.32 6.1234 -3.31682 0
M  V30 25480 H 2426.94 6.52257 -3.90468 0
M  V30 25481 N 2428.52 0.150242 1.56882 0
M  V30 25482 C 2429.43 -0.801184 2.20495 0
M  V30 25483 C 2430.44 -1.26925 1.19021 0
M  V30 25484 O 2431.62 -1.32576 1.5161 0
M  V30 25485 C 2428.69 -2.02156 2.81662 0
M  V30 25486 C 2427.75 -1.60242 3.98273 0
M  V30 25487 C 2426.98 -2.76462 4.56513 0
M  V30 25488 O 2427.2 -3.92764 4.13634 0
M  V30 25489 O 2426.14 -2.51748 5.46724 0
M  V30 25490 H 2429.96 -0.289664 3.02315 0
M  V30 25491 H 2427.55 -0.0769422 1.49202 0
M  V30 25492 H 2429.43 -2.7357 3.20527 0
M  V30 25493 H 2428.1 -2.52254 2.02853 0
M  V30 25494 H 2427.01 -0.858413 3.64118 0
M  V30 25495 H 2428.34 -1.14856 4.78611 0
M  V30 25496 N 2430 -1.57115 -0.123538 0
M  V30 25497 C 2431.22 -1.88794 -0.846427 0
M  V30 25498 C 2431.64 -0.741007 -1.73651 0
M  V30 25499 O 2431 0.288361 -1.80207 0
M  V30 25500 C 2431.05 -3.199 -1.68364 0
M  V30 25501 O 2430.77 -4.30177 -0.829401 0
M  V30 25502 C 2432.27 -3.65253 -2.51208 0
M  V30 25503 H 2429.49 -0.625235 -0.243562 0
M  V30 25504 H 2432.03 -2.04208 -0.109288 0
M  V30 25505 H 2430.19 -3.06169 -2.37358 0
M  V30 25506 H 2430.6 -5.05292 -1.40642 0
M  V30 25507 H 2432.08 -4.59761 -3.05489 0
M  V30 25508 H 2432.55 -2.91686 -3.28354 0
M  V30 25509 H 2433.16 -3.81756 -1.87464 0
M  V30 25510 N 2431.47 0.393589 -1.52606 0
M  V30 25511 C 2432.42 1.48051 -1.77058 0
M  V30 25512 C 2433.39 1.5435 -0.613608 0
M  V30 25513 O 2434.58 1.70679 -0.852836 0
M  V30 25514 C 2431.72 2.85332 -1.94113 0
M  V30 25515 C 2430.83 2.8822 -3.21797 0
M  V30 25516 C 2429.96 4.16898 -3.29195 0
M  V30 25517 C 2429 4.1382 -4.5102 0
M  V30 25518 N 2428.14 5.34097 -4.55725 0
M  V30 25519 H 2432.98 1.26501 -2.69817 0
M  V30 25520 H 2430.52 0.613766 -1.33684 0
M  V30 25521 H 2432.48 3.65045 -2.01985 0
M  V30 25522 H 2431.11 3.05342 -1.04719 0
M  V30 25523 H 2430.16 2.00905 -3.23019 0
M  V30 25524 H 2431.47 2.81813 -4.11562 0
M  V30 25525 H 2430.62 5.05013 -3.36225 0
M  V30 25526 H 2429.36 4.26021 -2.37396 0
M  V30 25527 H 2428.37 3.24094 -4.4412 0
M  V30 25528 H 2429.59 4.06324 -5.4413 0
M  V30 25529 H 2427.54 5.43858 -3.66816 0
M  V30 25530 H 2427.46 5.29747 -5.39355 0
M  V30 25531 H 2428.72 6.24121 -4.67004 0
M  V30 25532 N 2432.95 1.43492 0.651762 0
M  V30 25533 C 2434.2 1.44472 1.40751 0
M  V30 25534 C 2434.51 0.0732189 1.95463 0
M  V30 25535 O 2435.72 -0.0395244 2.71471 0
M  V30 25536 C 2434.18 2.54244 2.54731 0
M  V30 25537 C 2433.78 3.97507 2.06621 0
M  V30 25538 C 2435.53 2.6442 3.32088 0
M  V30 25539 C 2433.44 4.98743 3.1782 0
M  V30 25540 H 2432.37 0.53743 0.528853 0
M  V30 25541 H 2435.02 1.69486 0.703335 0
M  V30 25542 H 2433.4 2.22434 3.27626 0
M  V30 25543 H 2434.57 4.38785 1.40727 0
M  V30 25544 H 2432.89 3.91389 1.42139 0
M  V30 25545 H 2435.48 3.3723 4.14946 0
M  V30 25546 H 2435.83 1.69538 3.80214 0
M  V30 25547 H 2436.36 2.95539 2.66274 0
M  V30 25548 H 2433.1 5.95182 2.74661 0
M  V30 25549 H 2432.62 4.62076 3.82421 0
M  V30 25550 H 2434.3 5.21512 3.82928 0
M  V30 25551 N 2434.43 -0.890264 1.30046 0
M  V30 25552 C 2435.66 -1.67485 1.21475 0
M  V30 25553 C 2436.07 -1.87476 -0.223208 0
M  V30 25554 O 2435.43 -1.41849 -1.14826 0
M  V30 25555 C 2435.48 -3.05416 1.934 0
M  V30 25556 O 2435.2 -2.86331 3.31581 0
M  V30 25557 C 2436.7 -3.99841 1.91421 0
M  V30 25558 H 2433.92 -0.522805 0.420613 0
M  V30 25559 H 2436.47 -1.11265 1.71582 0
M  V30 25560 H 2434.62 -3.58384 1.47105 0
M  V30 25561 H 2435.04 -3.73796 3.67936 0
M  V30 25562 H 2436.51 -4.94007 2.46294 0
M  V30 25563 H 2436.99 -4.30048 0.891908 0
M  V30 25564 H 2437.59 -3.52807 2.37502 0
M  V30 25565 N 2435.91 -1.12676 -1.1019 0
M  V30 25566 C 2436.84 -0.754739 -2.16417 0
M  V30 25567 C 2437.85 0.219832 -1.61309 0
M  V30 25568 O 2439.04 0.000795465 -1.785 0
M  V30 25569 C 2436.14 -0.0967576 -3.38762 0
M  V30 25570 C 2435.32 -1.10144 -4.23305 0
M  V30 25571 C 2434.37 -0.470605 -5.24091 0
M  V30 25572 O 2433.4 -1.12834 -5.57904 0
M  V30 25573 N 2434.6 0.760847 -5.75492 0
M  V30 25574 H 2437.37 -1.66879 -2.4894 0
M  V30 25575 H 2434.93 -1.01871 -1.25833 0
M  V30 25576 H 2436.92 0.337313 -4.03292 0
M  V30 25577 H 2435.49 0.720099 -3.04193 0
M  V30 25578 H 2434.71 -1.71305 -3.55033 0
M  V30 25579 H 2436 -1.78072 -4.76621 0
M  V30 25580 H 2435.4 1.31414 -5.50224 0
M  V30 25581 H 2433.95 1.1377 -6.41794 0
M  V30 25582 N 2437.39 1.28028 -0.919057 0
M  V30 25583 C 2438.63 1.95035 -0.555791 0
M  V30 25584 C 2438.97 1.7213 0.899167 0
M  V30 25585 O 2438.24 1.04533 1.64021 0
M  V30 25586 C 2438.52 3.4938 -0.872085 0
M  V30 25587 C 2438.38 3.81665 -2.38016 0
M  V30 25588 C 2439.7 4.38526 -0.371927 0
M  V30 25589 H 2436.81 0.708377 -0.203398 0
M  V30 25590 H 2439.46 1.51301 -1.14927 0
M  V30 25591 H 2437.61 3.86763 -0.367014 0
M  V30 25592 H 2439.28 3.54123 -2.95626 0
M  V30 25593 H 2437.52 3.28522 -2.83295 0
M  V30 25594 H 2438.19 4.89465 -2.55201 0
M  V30 25595 H 2440.67 4.08245 -0.804673 0
M  V30 25596 H 2439.54 5.45361 -0.622268 0
M  V30 25597 H 2439.81 4.36067 0.727857 0
M  V30 25598 N 2438.86 0.683613 1.42002 0
M  V30 25599 C 2439.79 0.024907 2.33487 0
M  V30 25600 C 2440.78 -0.779948 1.51165 0
M  V30 25601 O 2441.96 -0.735331 1.7974 0
M  V30 25602 C 2439.09 -0.920777 3.34872 0
M  V30 25603 C 2438.04 -0.223883 4.27414 0
M  V30 25604 C 2437.37 -1.28311 5.19076 0
M  V30 25605 C 2438.67 0.90251 5.14443 0
M  V30 25606 H 2440.36 0.788972 2.88818 0
M  V30 25607 H 2437.91 0.380854 1.38872 0
M  V30 25608 H 2439.86 -1.39074 3.97789 0
M  V30 25609 H 2438.59 -1.71637 2.77864 0
M  V30 25610 H 2437.25 0.225928 3.65903 0
M  V30 25611 H 2436.89 -2.07092 4.58391 0
M  V30 25612 H 2436.59 -0.821893 5.81824 0
M  V30 25613 H 2438.12 -1.75382 5.8487 0
M  V30 25614 H 2439.53 0.513372 5.70997 0
M  V30 25615 H 2437.93 1.29007 5.86069 0
M  V30 25616 H 2439 1.74745 4.52319 0
M  V30 25617 N 2440.34 -1.5169 0.427538 0
M  V30 25618 C 2441.29 -2.24346 -0.406565 0
M  V30 25619 C 2442.28 -1.26189 -0.998254 0
M  V30 25620 O 2443.47 -1.51332 -0.918019 0
M  V30 25621 C 2440.6 -3.0818 -1.51261 0
M  V30 25622 C 2439.68 -4.1376 -0.930795 0
M  V30 25623 N 2440.08 -5.05741 -0.0772663 0
M  V30 25624 C 2438.37 -4.2957 -1.19941 0
M  V30 25625 C 2439.07 -5.81169 0.248446 0
M  V30 25626 N 2438.05 -5.4237 -0.36544 0
M  V30 25627 H 2441.85 -2.92821 0.251632 0
M  V30 25628 H 2439.37 -1.60631 0.239031 0
M  V30 25629 H 2441.36 -3.588 -2.12293 0
M  V30 25630 H 2440.02 -2.41247 -2.17324 0
M  V30 25631 H 2441.03 -5.17096 0.288442 0
M  V30 25632 H 2437.71 -3.73865 -1.85826 0
M  V30 25633 H 2439.1 -6.65258 0.942403 0
M  V30 25634 N 2441.82 -0.15856 -1.568 0
M  V30 25635 C 2443.07 0.489645 -1.96491 0
M  V30 25636 C 2443.4 1.64108 -1.04397 0
M  V30 25637 O 2442.65 1.95554 -0.0754745 0
M  V30 25638 C 2442.95 1.02617 -3.42351 0
M  V30 25639 C 2442.62 -0.00802452 -4.50899 0
M  V30 25640 C 2441.28 -0.292292 -4.80311 0
M  V30 25641 C 2443.63 -0.710675 -5.16332 0
M  V30 25642 C 2440.96 -1.28482 -5.72459 0
M  V30 25643 C 2443.31 -1.6921 -6.0955 0
M  V30 25644 C 2441.97 -1.98394 -6.37335 0
M  V30 25645 H 2441.24 0.179174 -0.719012 0
M  V30 25646 H 2443.89 -0.247831 -1.8989 0
M  V30 25647 H 2442.2 1.84122 -3.45842 0
M  V30 25648 H 2443.89 1.53649 -3.70396 0
M  V30 25649 H 2440.48 0.223715 -4.28016 0
M  V30 25650 H 2444.67 -0.504261 -4.93732 0
M  V30 25651 H 2439.92 -1.51725 -5.92275 0
M  V30 25652 H 2444.1 -2.242 -6.59323 0
M  V30 25653 H 2441.72 -2.75453 -7.08541 0
M  V30 25654 N 2443.3 1.57178 0.115204 0
M  V30 25655 C 2444.53 1.8924 0.836403 0
M  V30 25656 C 2444.94 0.750206 1.73255 0
M  V30 25657 O 2444.3 -0.2788 1.80358 0
M  V30 25658 C 2444.35 3.20788 1.66665 0
M  V30 25659 O 2444.07 4.30611 0.806576 0
M  V30 25660 C 2445.57 3.6658 2.49267 0
M  V30 25661 H 2442.79 0.626518 0.240242 0
M  V30 25662 H 2445.34 2.04263 0.0984573 0
M  V30 25663 H 2443.49 3.07424 2.35731 0
M  V30 25664 H 2443.91 5.06031 1.37961 0
M  V30 25665 H 2445.38 4.61375 3.03046 0
M  V30 25666 H 2445.86 2.93423 3.26802 0
M  V30 25667 H 2446.46 3.82745 1.85436 0
M  V30 25668 N 2444.78 -0.38549 1.52813 0
M  V30 25669 C 2445.72 -1.4711 1.77841 0
M  V30 25670 C 2446.69 -1.54023 0.621784 0
M  V30 25671 O 2447.88 -1.70224 0.861876 0
M  V30 25672 C 2445.02 -2.84298 1.95623 0
M  V30 25673 C 2444.13 -2.86509 3.23321 0
M  V30 25674 C 2443.27 -4.15146 3.31401 0
M  V30 25675 C 2442.31 -4.11423 4.53208 0
M  V30 25676 N 2441.44 -5.31672 4.58551 0
M  V30 25677 H 2446.28 -1.25069 2.70484 0
M  V30 25678 H 2443.82 -0.606668 1.34007 0
M  V30 25679 H 2445.78 -3.63969 2.03918 0
M  V30 25680 H 2444.41 -3.04782 1.06337 0
M  V30 25681 H 2443.46 -1.99189 3.2408 0
M  V30 25682 H 2444.77 -2.79626 4.1305 0
M  V30 25683 H 2443.93 -5.03222 3.38898 0
M  V30 25684 H 2442.67 -4.24756 2.39652 0
M  V30 25685 H 2441.67 -3.21734 4.45833 0
M  V30 25686 H 2442.9 -4.03432 5.46278 0
M  V30 25687 H 2440.84 -5.41905 3.69695 0
M  V30 25688 H 2440.76 -5.26879 5.42157 0
M  V30 25689 H 2442.03 -6.21636 4.70307 0
M  V30 25690 N 2446.26 -1.43835 -0.644143 0
M  V30 25691 C 2447.53 -1.36409 -1.40186 0
M  V30 25692 C 2447.91 -0.0163495 -2.11094 0
M  V30 25693 O 2447.26 1.00059 -2.05428 0
M  V30 25694 C 2447.47 -2.55347 -2.37905 0
M  V30 25695 C 2448.82 -2.98837 -3.01631 0
M  V30 25696 O 2449.84 -2.55459 -2.48232 0
M  V30 25697 O 2448.7 -3.7401 -3.9847 0
M  V30 25698 H 2445.8 -0.539534 -0.626764 0
M  V30 25699 H 2448.34 -1.55901 -0.670289 0
M  V30 25700 H 2447.11 -3.45063 -1.84519 0
M  V30 25701 H 2446.74 -2.38001 -3.18498 0
M  V30 25702 N 2447.73 0.883355 -1.30517 0
M  V30 25703 C 2448.98 1.63772 -1.1961 0
M  V30 25704 C 2449.31 1.92606 0.24828 0
M  V30 25705 O 2448.59 1.54815 1.1774 0
M  V30 25706 C 2448.87 2.9765 -2.02674 0
M  V30 25707 C 2448.72 2.75778 -3.5534 0
M  V30 25708 C 2450.04 3.98592 -1.8658 0
M  V30 25709 H 2447.16 0.594298 -0.435866 0
M  V30 25710 H 2449.8 1.02209 -1.60166 0
M  V30 25711 H 2447.95 3.50194 -1.68215 0
M  V30 25712 H 2449.63 2.30009 -3.99867 0
M  V30 25713 H 2447.87 2.10253 -3.79442 0
M  V30 25714 H 2448.54 3.7098 -4.08751 0
M  V30 25715 H 2451.02 3.55213 -2.1671 0
M  V30 25716 H 2449.89 4.90174 -2.47023 0
M  V30 25717 H 2450.15 4.34327 -0.825398 0
M  V30 25718 N 2449.21 1.13259 1.09591 0
M  V30 25719 C 2450.16 0.808419 2.16179 0
M  V30 25720 C 2451.13 -0.228725 1.64518 0
M  V30 25721 O 2452.31 -0.101348 1.90531 0
M  V30 25722 C 2449.45 0.278736 3.43972 0
M  V30 25723 C 2448.57 1.37474 4.09542 0
M  V30 25724 C 2447.7 0.803571 5.25087 0
M  V30 25725 C 2446.74 1.87809 5.82576 0
M  V30 25726 N 2445.88 1.325 6.89484 0
M  V30 25727 H 2450.72 1.72142 2.43251 0
M  V30 25728 H 2448.25 0.859315 1.19391 0
M  V30 25729 H 2450.21 -0.046485 4.17174 0
M  V30 25730 H 2448.84 -0.597404 3.17224 0
M  V30 25731 H 2447.89 1.81658 3.34222 0
M  V30 25732 H 2449.21 2.18692 4.48303 0
M  V30 25733 H 2448.36 0.429534 6.05178 0
M  V30 25734 H 2447.1 -0.0397099 4.87684 0
M  V30 25735 H 2446.1 2.26122 5.01148 0
M  V30 25736 H 2447.33 2.72474 6.22041 0
M  V30 25737 H 2445.28 0.50369 6.54063 0
M  V30 25738 H 2445.19 2.07368 7.27004 0
M  V30 25739 H 2446.46 0.978472 7.73334 0
M  V30 25740 N 2450.69 -1.27539 0.925834 0
M  V30 25741 C 2451.65 -2.25165 0.428168 0
M  V30 25742 C 2452.65 -1.5431 -0.452234 0
M  V30 25743 O 2453.84 -1.72344 -0.253578 0
M  V30 25744 C 2450.97 -3.38723 -0.384689 0
M  V30 25745 H 2452.17 -2.70704 1.29071 0
M  V30 25746 H 2449.72 -1.39429 0.706347 0
M  V30 25747 H 2450.46 -2.98563 -1.26613 0
M  V30 25748 H 2450.24 -3.91324 0.246523 0
M  V30 25749 H 2451.73 -4.11288 -0.723317 0
M  V30 25750 N 2452.17 -0.691135 -1.41637 0
M  V30 25751 C 2453.13 -0.0320188 -2.29178 0
M  V30 25752 C 2454.13 0.71247 -1.44154 0
M  V30 25753 O 2455.32 0.548024 -1.65355 0
M  V30 25754 C 2452.45 0.965104 -3.26953 0
M  V30 25755 H 2453.65 -0.802732 -2.88957 0
M  V30 25756 H 2451.2 -0.454382 -1.4955 0
M  V30 25757 H 2451.93 1.76374 -2.72145 0
M  V30 25758 H 2451.72 0.434454 -3.89686 0
M  V30 25759 H 2453.21 1.42421 -3.92563 0
M  V30 25760 N 2453.65 1.51461 -0.435577 0
M  V30 25761 C 2454.61 2.26273 0.365097 0
M  V30 25762 C 2455.61 1.29649 0.951204 0
M  V30 25763 O 2456.8 1.53375 0.825931 0
M  V30 25764 C 2453.93 3.05317 1.51639 0
M  V30 25765 H 2455.12 2.98489 -0.290526 0
M  V30 25766 H 2452.68 1.55157 -0.188703 0
M  V30 25767 H 2453.41 2.37514 2.20812 0
M  V30 25768 H 2453.2 3.76286 1.10232 0
M  V30 25769 H 2454.69 3.61991 2.08212 0
M  V30 25770 N 2455.12 0.166873 1.56714 0
M  V30 25771 C 2456.07 -0.782084 2.19058 0
M  V30 25772 C 2457.07 -1.24077 1.15331 0
M  V30 25773 O 2458.27 -1.20695 1.3354 0
M  V30 25774 H 2454.65 -0.270474 0.701675 0
M  V30 25775 H 2456.62 -0.232269 2.97495 0
M  V30 25776 C 2455.37 -2.00301 2.84209 0
M  V30 25777 H 2454.69 -1.65908 3.63751 0
M  V30 25778 H 2456.13 -2.64598 3.31306 0
M  V30 25779 C 2454.59 -2.82379 1.83749 0
M  V30 25780 O 2455.12 -3.79386 1.32021 0
M  V30 25781 N 2453.33 -2.47305 1.52606 0
M  V30 25782 H 2452.87 -1.68482 1.94863 0
M  V30 25783 H 2452.83 -3.02511 0.856404 0
M  V30 25784 N 2456.6 -1.57237 -0.106866 0
M  V30 25785 C 2457.53 -1.97887 -1.15643 0
M  V30 25786 C 2458.55 -0.879803 -1.36979 0
M  V30 25787 O 2459.74 -1.15801 -1.35839 0
M  V30 25788 C 2456.84 -2.27246 -2.51421 0
M  V30 25789 C 2456.01 -3.58549 -2.50522 0
M  V30 25790 C 2455.07 -3.7598 -3.68138 0
M  V30 25791 O 2454.09 -4.47962 -3.51168 0
M  V30 25792 N 2455.3 -3.15665 -4.87171 0
M  V30 25793 H 2458.06 -2.88531 -0.81054 0
M  V30 25794 H 2455.62 -1.59171 -0.295996 0
M  V30 25795 H 2457.61 -2.36111 -3.28685 0
M  V30 25796 H 2456.18 -1.42668 -2.78145 0
M  V30 25797 H 2455.4 -3.60761 -1.58887 0
M  V30 25798 H 2456.69 -4.4483 -2.46989 0
M  V30 25799 H 2456.09 -2.57174 -5.03863 0
M  V30 25800 H 2454.65 -3.30033 -5.62069 0
M  V30 25801 N 2458.08 0.377381 -1.53015 0
M  V30 25802 C 2459.01 1.48368 -1.73384 0
M  V30 25803 C 2459.99 1.51831 -0.581906 0
M  V30 25804 O 2461.18 1.70062 -0.8131 0
M  V30 25805 C 2458.3 2.86787 -1.80197 0
M  V30 25806 C 2457.35 3.011 -3.02061 0
M  V30 25807 S 2458.18 2.71085 -4.61815 0
M  V30 25808 C 2459.34 4.11675 -4.7146 0
M  V30 25809 H 2459.57 1.30867 -2.66948 0
M  V30 25810 H 2457.1 0.570986 -1.43454 0
M  V30 25811 H 2459.06 3.66546 -1.84808 0
M  V30 25812 H 2457.72 3.01606 -0.877061 0
M  V30 25813 H 2456.92 4.02446 -3.03403 0
M  V30 25814 H 2456.52 2.29248 -2.95502 0
M  V30 25815 H 2458.81 5.05762 -4.50789 0
M  V30 25816 H 2459.75 4.15343 -5.73494 0
M  V30 25817 H 2460.16 3.98125 -4.00196 0
M  V30 25818 N 2459.56 1.44175 0.636506 0
M  V30 25819 C 2460.97 1.27943 0.954081 0
M  V30 25820 C 2461.17 0.211283 2.00389 0
M  V30 25821 O 2460.23 -0.404651 2.49236 0
M  V30 25822 C 2461.54 2.64928 1.42246 0
M  V30 25823 C 2463.09 2.72594 1.53822 0
M  V30 25824 C 2463.57 4.10036 2.04045 0
M  V30 25825 N 2465.06 4.12185 2.11323 0
M  V30 25826 C 2465.79 5.15378 2.51343 0
M  V30 25827 N 2465.29 6.28935 2.90538 0
M  V30 25828 N 2467.08 5.02732 2.51429 0
M  V30 25829 H 2459.23 2.12321 -0.0578759 0
M  V30 25830 H 2461.5 0.947288 0.036724 0
M  V30 25831 H 2461.2 3.44138 0.725406 0
M  V30 25832 H 2461.08 2.91454 2.39446 0
M  V30 25833 H 2463.46 1.93706 2.22625 0
M  V30 25834 H 2463.54 2.49815 0.550111 0
M  V30 25835 H 2463.19 4.89398 1.35839 0
M  V30 25836 H 2463.12 4.30189 3.03718 0
M  V30 25837 H 2465.61 3.30225 1.83739 0
M  V30 25838 H 2465.92 7.03493 3.19872 0
M  V30 25839 H 2464.27 6.32382 2.88302 0
M  V30 25840 H 2467.46 4.13075 2.20196 0
M  V30 25841 H 2467.63 5.83279 2.82294 0
M  V30 25842 N 2461.04 -0.876421 1.30983 0
M  V30 25843 C 2461.98 -2.00441 1.18009 0
M  V30 25844 C 2462.98 -1.69161 0.0899169 0
M  V30 25845 O 2464.18 -1.78236 0.251364 0
M  V30 25846 H 2460.56 -0.657364 0.365207 0
M  V30 25847 H 2462.53 -2.08516 2.13456 0
M  V30 25848 C 2461.28 -3.35915 0.89758 0
M  V30 25849 H 2460.6 -3.60501 1.72856 0
M  V30 25850 H 2462.04 -4.15455 0.846947 0
M  V30 25851 C 2460.5 -3.34522 -0.399616 0
M  V30 25852 O 2461.03 -3.75823 -1.41845 0
M  V30 25853 N 2459.24 -2.87638 -0.413842 0
M  V30 25854 H 2458.78 -2.54223 0.415755 0
M  V30 25855 H 2458.74 -2.87089 -1.2817 0
M  V30 25856 N 2462.51 -1.13839 -1.08989 0
M  V30 25857 C 2463.76 -0.902914 -1.81256 0
M  V30 25858 C 2464.09 0.57077 -1.85937 0
M  V30 25859 O 2463.34 1.43862 -1.32673 0
M  V30 25860 C 2463.64 -1.44153 -3.27039 0
M  V30 25861 C 2463.31 -2.93282 -3.42485 0
M  V30 25862 C 2461.97 -3.33998 -3.46408 0
M  V30 25863 C 2464.32 -3.89206 -3.46653 0
M  V30 25864 C 2461.65 -4.69313 -3.52083 0
M  V30 25865 C 2464 -5.2437 -3.53863 0
M  V30 25866 C 2462.67 -5.64606 -3.56056 0
M  V30 25867 H 2461.94 -0.3304 -0.663262 0
M  V30 25868 H 2464.58 -1.42107 -1.28366 0
M  V30 25869 H 2462.89 -0.844165 -3.82598 0
M  V30 25870 H 2464.59 -1.23535 -3.81497 0
M  V30 25871 H 2461.18 -2.608 -3.40119 0
M  V30 25872 H 2465.36 -3.58834 -3.42859 0
M  V30 25873 H 2460.62 -4.99856 -3.52071 0
M  V30 25874 H 2464.79 -5.9851 -3.56033 0
M  V30 25875 H 2462.42 -6.69444 -3.60206 0
M  V30 25876 N 2463.99 1.27046 -0.932584 0
M  V30 25877 C 2464.92 2.29065 -0.452942 0
M  V30 25878 C 2465.9 1.6291 0.48931 0
M  V30 25879 O 2467.09 1.90182 0.393013 0
M  V30 25880 C 2464.22 3.46082 0.290637 0
M  V30 25881 C 2463.17 4.24264 -0.564242 0
M  V30 25882 C 2462.5 5.33808 0.308793 0
M  V30 25883 C 2463.8 4.89146 -1.83121 0
M  V30 25884 H 2465.49 2.69435 -1.30557 0
M  V30 25885 H 2463.04 1.29525 -0.629224 0
M  V30 25886 H 2464.99 4.16555 0.63716 0
M  V30 25887 H 2463.72 3.04642 1.17733 0
M  V30 25888 H 2462.37 3.55544 -0.89354 0
M  V30 25889 H 2462.02 4.88609 1.19458 0
M  V30 25890 H 2461.72 5.87026 -0.259736 0
M  V30 25891 H 2463.25 6.07122 0.650777 0
M  V30 25892 H 2464.66 5.5188 -1.55246 0
M  V30 25893 H 2463.06 5.52444 -2.34363 0
M  V30 25894 H 2464.13 4.12572 -2.5478 0
M  V30 25895 N 2465.47 0.698636 1.41269 0
M  V30 25896 C 2466.72 0.231243 2.01477 0
M  V30 25897 C 2467.05 -1.1671 1.55217 0
M  V30 25898 O 2466.32 -1.78837 0.764703 0
M  V30 25899 C 2466.61 0.292344 3.58911 0
M  V30 25900 C 2466.46 1.72785 4.15289 0
M  V30 25901 C 2467.78 -0.346117 4.38737 0
M  V30 25902 H 2464.9 0.0855006 0.732024 0
M  V30 25903 H 2467.54 0.887936 1.67975 0
M  V30 25904 H 2465.69 -0.266792 3.87583 0
M  V30 25905 H 2467.36 2.34107 3.97482 0
M  V30 25906 H 2465.61 2.26103 3.70216 0
M  V30 25907 H 2466.28 1.72211 5.24449 0
M  V30 25908 H 2468.75 0.130108 4.15897 0
M  V30 25909 H 2467.63 -0.272836 5.48222 0
M  V30 25910 H 2467.89 -1.42727 4.18427 0
M  V30 25911 N 2466.95 -1.51228 0.443603 0
M  V30 25912 C 2468.36 -1.5931 0.0962281 0
M  V30 25913 C 2468.56 -1.45405 -1.39498 0
M  V30 25914 O 2467.62 -1.29847 -2.16555 0
M  V30 25915 C 2468.93 -2.94198 0.621926 0
M  V30 25916 C 2470.48 -3.07524 0.582919 0
M  V30 25917 C 2470.96 -4.44946 1.0857 0
M  V30 25918 N 2472.45 -4.51283 1.04395 0
M  V30 25919 C 2473.18 -5.55951 1.40377 0
M  V30 25920 N 2472.68 -6.68008 1.83676 0
M  V30 25921 N 2474.47 -5.46344 1.32154 0
M  V30 25922 H 2466.62 -1.58511 1.41379 0
M  V30 25923 H 2468.89 -0.747556 0.582978 0
M  V30 25924 H 2468.59 -3.09764 1.66552 0
M  V30 25925 H 2468.47 -3.77166 0.0502788 0
M  V30 25926 H 2470.85 -2.91623 -0.451698 0
M  V30 25927 H 2470.93 -2.2638 1.19104 0
M  V30 25928 H 2470.58 -4.61594 2.11881 0
M  V30 25929 H 2470.51 -5.24639 0.454049 0
M  V30 25930 H 2473 -3.7086 0.726051 0
M  V30 25931 H 2473.31 -7.43903 2.09353 0
M  V30 25932 H 2471.66 -6.692 1.87608 0
M  V30 25933 H 2474.85 -4.57686 0.981888 0
M  V30 25934 H 2475.02 -6.27802 1.60525 0
M  V30 25935 N 2468.43 -0.175182 -1.56623 0
M  V30 25936 C 2469.39 0.7397 -2.16936 0
M  V30 25937 C 2470.39 1.15532 -1.11844 0
M  V30 25938 O 2471.58 1.07164 -1.37337 0
M  V30 25939 C 2468.71 2.00733 -2.75534 0
M  V30 25940 H 2469.9 0.214586 -2.99131 0
M  V30 25941 H 2467.46 0.0743922 -1.56123 0
M  V30 25942 H 2468.19 2.57544 -1.97083 0
M  V30 25943 H 2467.98 1.71825 -3.52447 0
M  V30 25944 H 2469.47 2.66016 -3.21909 0
M  V30 25945 N 2469.91 1.57292 0.0985263 0
M  V30 25946 C 2471.13 1.90494 0.820163 0
M  V30 25947 C 2471.56 0.769125 1.71657 0
M  V30 25948 O 2470.91 -0.279463 1.79133 0
M  V30 25949 C 2470.96 3.22545 1.61236 0
M  V30 25950 O 2470.07 3.09893 2.72103 0
M  V30 25951 H 2469.41 0.624524 0.225536 0
M  V30 25952 H 2471.94 2.04463 0.0747799 0
M  V30 25953 H 2471.95 3.55769 1.99731 0
M  V30 25954 H 2470.62 4.048 0.954464 0
M  V30 25955 H 2469.2 2.88177 2.36662 0
M  V30 25956 N 2471.38 -0.369261 1.53213 0
M  V30 25957 C 2472.62 -1.12102 1.70917 0
M  V30 25958 C 2472.99 -1.86665 0.449477 0
M  V30 25959 O 2474.19 -2.64049 0.503152 0
M  V30 25960 C 2472.46 -2.05767 2.92224 0
M  V30 25961 S 2474.02 -2.88513 3.30614 0
M  V30 25962 H 2470.84 -0.379179 0.601452 0
M  V30 25963 H 2473.44 -0.40276 1.91306 0
M  V30 25964 H 2472.14 -1.49746 3.82105 0
M  V30 25965 H 2471.67 -2.82071 2.74225 0
M  V30 25966 H 2473.69 -4.08042 2.8234 0
M  V30 25967 N 2472.86 -1.4451 -0.628851 0
M  V30 25968 C 2474.28 -1.28447 -0.947283 0
M  V30 25969 C 2474.48 -0.221907 -2.00274 0
M  V30 25970 O 2473.53 0.391427 -2.49448 0
M  V30 25971 C 2474.85 -2.65678 -1.40839 0
M  V30 25972 C 2476.39 -2.73406 -1.52374 0
M  V30 25973 C 2476.87 -4.11112 -2.01868 0
M  V30 25974 N 2478.36 -4.133 -2.09134 0
M  V30 25975 C 2479.1 -5.16704 -2.48606 0
M  V30 25976 N 2478.59 -6.30467 -2.87198 0
M  V30 25977 N 2480.38 -5.04059 -2.4876 0
M  V30 25978 H 2472.54 -2.12287 0.069135 0
M  V30 25979 H 2474.8 -0.94747 -0.0316998 0
M  V30 25980 H 2474.5 -3.44518 -0.707145 0
M  V30 25981 H 2474.38 -2.9272 -2.37897 0
M  V30 25982 H 2476.77 -1.94884 -2.21595 0
M  V30 25983 H 2476.85 -2.50103 -0.536855 0
M  V30 25984 H 2476.49 -4.90111 -1.33242 0
M  V30 25985 H 2476.42 -4.31794 -3.01432 0
M  V30 25986 H 2478.91 -3.31195 -1.81985 0
M  V30 25987 H 2479.22 -7.05179 -3.16136 0
M  V30 25988 H 2477.57 -6.33902 -2.84944 0
M  V30 25989 H 2480.76 -4.14237 -2.18002 0
M  V30 25990 H 2480.93 -5.84768 -2.79197 0
M  V30 25991 N 2474.34 0.869463 -1.31446 0
M  V30 25992 C 2475.27 1.99259 -1.2173 0
M  V30 25993 C 2476.25 1.69779 -0.104389 0
M  V30 25994 O 2477.44 1.92036 -0.289072 0
M  V30 25995 C 2474.57 3.34772 -0.924376 0
M  V30 25996 C 2473.52 3.78559 -1.99692 0
M  V30 25997 C 2472.85 5.11539 -1.55667 0
M  V30 25998 C 2474.15 3.95613 -3.4101 0
M  V30 25999 H 2475.84 2.07645 -2.15694 0
M  V30 26000 H 2473.39 0.997657 -1.0384 0
M  V30 26001 H 2475.34 4.12882 -0.843006 0
M  V30 26002 H 2474.06 3.2656 0.0509219 0
M  V30 26003 H 2472.72 3.02691 -2.06819 0
M  V30 26004 H 2472.37 4.99769 -0.569219 0
M  V30 26005 H 2472.07 5.41807 -2.27419 0
M  V30 26006 H 2473.59 5.92157 -1.48939 0
M  V30 26007 H 2475.01 4.64116 -3.36555 0
M  V30 26008 H 2473.4 4.37279 -4.10983 0
M  V30 26009 H 2474.47 2.98979 -3.81759 0
M  V30 26010 N 2475.82 1.14415 1.08383 0
M  V30 26011 C 2477.23 0.884586 1.32843 0
M  V30 26012 C 2477.43 -0.474146 1.95842 0
M  V30 26013 O 2476.49 -1.21838 2.2116 0
M  V30 26014 C 2477.8 2.01749 2.22975 0
M  V30 26015 C 2479.35 2.05082 2.36454 0
M  V30 26016 C 2479.83 3.17665 3.29928 0
M  V30 26017 N 2481.32 3.17245 3.37505 0
M  V30 26018 C 2482.05 4.00998 4.09864 0
M  V30 26019 N 2481.55 4.9479 4.84928 0
M  V30 26020 N 2483.34 3.89058 4.05698 0
M  V30 26021 H 2475.49 2.01927 0.658721 0
M  V30 26022 H 2477.75 0.879905 0.352805 0
M  V30 26023 H 2477.46 2.99772 1.83929 0
M  V30 26024 H 2477.33 1.94082 3.23438 0
M  V30 26025 H 2479.72 1.07665 2.74758 0
M  V30 26026 H 2479.8 2.16819 1.35733 0
M  V30 26027 H 2479.45 4.15327 2.92345 0
M  V30 26028 H 2479.38 3.03165 4.30579 0
M  V30 26029 H 2481.87 2.49313 2.83992 0
M  V30 26030 H 2482.18 5.55161 5.37603 0
M  V30 26031 H 2480.53 4.98787 4.8398 0
M  V30 26032 H 2483.72 3.15103 3.46161 0
M  V30 26033 H 2483.89 4.54555 4.61826 0
M  V30 26034 N 2477.3 -1.26549 0.939309 0
M  V30 26035 C 2478.23 -2.28821 0.465084 0
M  V30 26036 C 2479.21 -1.63168 -0.480663 0
M  V30 26037 O 2480.39 -1.90387 -0.382921 0
M  V30 26038 C 2477.52 -3.46231 -0.27228 0
M  V30 26039 C 2476.48 -4.23959 0.586734 0
M  V30 26040 C 2475.8 -5.33964 -0.280479 0
M  V30 26041 C 2477.1 -4.88168 1.85713 0
M  V30 26042 H 2478.8 -2.68739 1.31984 0
M  V30 26043 H 2476.34 -1.2919 0.636084 0
M  V30 26044 H 2478.29 -4.16887 -0.61506 0
M  V30 26045 H 2477.02 -3.05262 -1.16116 0
M  V30 26046 H 2475.68 -3.55065 0.912383 0
M  V30 26047 H 2475.33 -4.89236 -1.16865 0
M  V30 26048 H 2475.03 -5.8688 0.290863 0
M  V30 26049 H 2476.55 -6.07459 -0.618571 0
M  V30 26050 H 2477.96 -5.51049 1.5817 0
M  V30 26051 H 2476.36 -5.51193 2.37289 0
M  V30 26052 H 2477.43 -4.11215 2.56964 0
M  V30 26053 N 2478.77 -0.706118 -1.40896 0
M  V30 26054 C 2479.68 -0.0482698 -2.3455 0
M  V30 26055 C 2480.7 0.754369 -1.56797 0
M  V30 26056 O 2481.88 0.689505 -1.89229 0
M  V30 26057 C 2478.94 0.869244 -3.35626 0
M  V30 26058 C 2478 0.057624 -4.29261 0
M  V30 26059 C 2477.23 0.931439 -5.25509 0
M  V30 26060 O 2477.46 2.17083 -5.27476 0
M  V30 26061 O 2476.39 0.375481 -6.00728 0
M  V30 26062 H 2480.22 -0.820527 -2.92406 0
M  V30 26063 H 2477.8 -0.466525 -1.41929 0
M  V30 26064 H 2479.68 1.39507 -3.97638 0
M  V30 26065 H 2478.36 1.62081 -2.80199 0
M  V30 26066 H 2477.27 -0.513053 -3.70565 0
M  V30 26067 H 2478.6 -0.655512 -4.87815 0
M  V30 26068 N 2480.25 1.50991 -0.451617 0
M  V30 26069 C 2481.66 1.86698 0.00815289 0
M  V30 26070 C 2482.01 1.36783 1.40659 0
M  V30 26071 O 2481.14 0.724582 2.03909 0
M  V30 26072 C 2481.73 3.38793 0.0215708 0
M  V30 26073 C 2480.29 3.73984 0.425799 0
M  V30 26074 C 2479.44 2.74791 -0.372211 0
M  V30 26075 H 2482.39 1.44012 -0.666811 0
M  V30 26076 H 2482.41 3.71381 0.828012 0
M  V30 26077 H 2481.92 3.75093 -0.996354 0
M  V30 26078 H 2480.02 3.43279 1.4488 0
M  V30 26079 H 2480.14 4.78893 0.140676 0
M  V30 26080 H 2478.5 2.54122 0.171454 0
M  V30 26081 H 2479.28 3.13933 -1.38928 0
M  V30 26082 N 2481.73 0.183486 1.56528 0
M  V30 26083 C 2482.98 -0.457417 1.96856 0
M  V30 26084 C 2483.3 -1.62951 1.07107 0
M  V30 26085 O 2482.57 -1.954 0.139921 0
M  V30 26086 H 2481.15 -0.171979 0.726933 0
M  V30 26087 H 2483.81 0.26751 1.93055 0
M  V30 26088 H 2482.91 -0.809315 3.01424 0
M  V30 26089 N 2483.21 -1.57342 -0.0901833 0
M  V30 26090 C 2484.15 -2.02407 -1.10905 0
M  V30 26091 C 2485.12 -0.901276 -1.39521 0
M  V30 26092 O 2486.31 -1.16763 -1.50901 0
M  V30 26093 C 2483.45 -2.4576 -2.42273 0
M  V30 26094 C 2482.56 -3.7158 -2.20346 0
M  V30 26095 C 2481.7 -4.03791 -3.45147 0
M  V30 26096 C 2480.74 -5.22707 -3.18503 0
M  V30 26097 N 2479.87 -5.50646 -4.35584 0
M  V30 26098 H 2484.71 -2.89227 -0.71777 0
M  V30 26099 H 2482.25 -1.43048 -0.342876 0
M  V30 26100 H 2484.21 -2.68941 -3.18946 0
M  V30 26101 H 2482.84 -1.61943 -2.79239 0
M  V30 26102 H 2481.89 -3.55847 -1.34452 0
M  V30 26103 H 2483.2 -4.58398 -1.96653 0
M  V30 26104 H 2482.36 -4.27775 -4.30225 0
M  V30 26105 H 2481.1 -3.15504 -3.71898 0
M  V30 26106 H 2480.1 -4.98538 -2.31818 0
M  V30 26107 H 2481.33 -6.12596 -2.93092 0
M  V30 26108 H 2479.27 -4.65318 -4.62401 0
M  V30 26109 H 2479.19 -6.31846 -4.15099 0
M  V30 26110 H 2480.46 -5.79169 -5.21712 0
M  V30 26111 N 2484.69 0.36113 -1.53407 0
M  V30 26112 C 2485.6 1.46637 -1.83125 0
M  V30 26113 C 2486.61 1.58406 -0.719971 0
M  V30 26114 O 2487.79 1.74216 -1.01049 0
M  V30 26115 C 2484.85 2.81849 -2.01896 0
M  V30 26116 C 2483.91 2.79571 -3.25789 0
M  V30 26117 C 2483.15 4.08334 -3.43655 0
M  V30 26118 O 2483.37 5.04725 -2.65723 0
M  V30 26119 O 2482.3 4.13875 -4.37025 0
M  V30 26120 H 2486.13 1.24446 -2.77032 0
M  V30 26121 H 2483.72 0.551654 -1.38842 0
M  V30 26122 H 2485.6 3.61958 -2.15788 0
M  V30 26123 H 2484.27 3.04008 -1.11178 0
M  V30 26124 H 2483.18 1.98145 -3.17316 0
M  V30 26125 H 2484.51 2.62366 -4.16443 0
M  V30 26126 N 2486.16 1.44842 0.621179 0
M  V30 26127 C 2487.39 1.51428 1.40545 0
M  V30 26128 C 2487.8 0.141116 1.88673 0
M  V30 26129 O 2487.15 -0.865099 1.62055 0
M  V30 26130 C 2487.21 2.4258 2.65321 0
M  V30 26131 C 2486.87 3.8957 2.38923 0
M  V30 26132 C 2487.87 4.79838 2.0013 0
M  V30 26133 C 2485.55 4.34365 2.52255 0
M  V30 26134 C 2487.55 6.12903 1.7501 0
M  V30 26135 C 2485.23 5.67475 2.2675 0
M  V30 26136 C 2486.23 6.56563 1.88187 0
M  V30 26137 O 2485.92 7.87207 1.62972 0
M  V30 26138 H 2485.65 0.515663 0.437113 0
M  V30 26139 H 2488.21 1.90584 0.765954 0
M  V30 26140 H 2486.44 1.9837 3.31943 0
M  V30 26141 H 2488.13 2.40004 3.27342 0
M  V30 26142 H 2488.89 4.46499 1.89378 0
M  V30 26143 H 2484.77 3.65274 2.8124 0
M  V30 26144 H 2488.31 6.82399 1.44836 0
M  V30 26145 H 2484.21 6.00372 2.37114 0
M  V30 26146 H 2484.98 7.99103 1.77136 0
M  V30 26147 N 2487.64 -0.862479 1.31905 0
M  V30 26148 C 2488.57 -1.9861 1.22785 0
M  V30 26149 C 2489.55 -1.69722 0.113391 0
M  V30 26150 O 2490.74 -1.9188 0.299252 0
M  V30 26151 C 2487.87 -3.34278 0.942117 0
M  V30 26152 C 2486.82 -3.77495 2.01696 0
M  V30 26153 C 2486.15 -5.10706 1.58378 0
M  V30 26154 C 2487.45 -3.93799 3.43103 0
M  V30 26155 H 2489.14 -2.06498 2.16792 0
M  V30 26156 H 2486.69 -0.992136 1.04368 0
M  V30 26157 H 2488.64 -4.12429 0.86489 0
M  V30 26158 H 2487.37 -3.26583 -0.0336029 0
M  V30 26159 H 2486.02 -3.01589 2.08421 0
M  V30 26160 H 2485.67 -4.9946 0.595715 0
M  V30 26161 H 2485.37 -5.40593 2.30289 0
M  V30 26162 H 2486.9 -5.91359 1.52077 0
M  V30 26163 H 2488.31 -4.62325 3.39011 0
M  V30 26164 H 2486.71 -4.35094 4.13296 0
M  V30 26165 H 2487.78 -2.9695 3.83339 0
M  V30 26166 N 2489.12 -1.14988 -1.07775 0
M  V30 26167 C 2490.37 -0.916649 -1.79668 0
M  V30 26168 C 2490.68 0.557884 -1.87475 0
M  V30 26169 O 2491.89 0.908572 -2.55846 0
M  V30 26170 C 2490.34 -1.59057 -3.22845 0
M  V30 26171 C 2489.95 -3.10181 -3.23251 0
M  V30 26172 C 2491.7 -1.43871 -3.99376 0
M  V30 26173 C 2489.6 -3.7038 -4.61056 0
M  V30 26174 H 2488.53 -0.339301 -0.673343 0
M  V30 26175 H 2491.18 -1.37953 -1.21001 0
M  V30 26176 H 2489.57 -1.05537 -3.81678 0
M  V30 26177 H 2490.74 -3.70422 -2.74088 0
M  V30 26178 H 2489.06 -3.25079 -2.60217 0
M  V30 26179 H 2491.65 -1.86241 -5.01217 0
M  V30 26180 H 2492 -0.385637 -4.1451 0
M  V30 26181 H 2492.53 -1.94463 -3.47029 0
M  V30 26182 H 2489.27 -4.75568 -4.51126 0
M  V30 26183 H 2488.79 -3.14922 -5.10475 0
M  V30 26184 H 2490.47 -3.71052 -5.30028 0
M  V30 26185 N 2490.6 1.26049 -0.946007 0
M  V30 26186 C 2491.53 2.24602 -0.403659 0
M  V30 26187 C 2492.51 1.54388 0.510214 0
M  V30 26188 O 2493.69 1.83134 0.446561 0
M  V30 26189 C 2490.82 3.36092 0.419505 0
M  V30 26190 C 2489.87 4.24291 -0.433528 0
M  V30 26191 S 2490.7 5.02142 -1.86046 0
M  V30 26192 C 2491.86 6.17106 -1.04549 0
M  V30 26193 H 2492.09 2.70257 -1.23888 0
M  V30 26194 H 2489.62 1.3499 -0.749462 0
M  V30 26195 H 2491.58 4.00769 0.888525 0
M  V30 26196 H 2490.24 2.89038 1.22946 0
M  V30 26197 H 2489.43 5.03613 0.197398 0
M  V30 26198 H 2489.04 3.64504 -0.837421 0
M  V30 26199 H 2491.33 6.76879 -0.290042 0
M  V30 26200 H 2492.27 6.84514 -1.81234 0
M  V30 26201 H 2492.68 5.61518 -0.579418 0
M  V30 26202 N 2492.08 0.71358 1.4052 0
M  V30 26203 C 2493.32 0.251727 2.00526 0
M  V30 26204 C 2493.65 -1.15845 1.56859 0
M  V30 26205 O 2492.92 -1.78499 0.807159 0
M  V30 26206 H 2491.5 0.0900777 0.741549 0
M  V30 26207 H 2494.16 0.918763 1.71886 0
M  V30 26208 H 2493.25 0.283246 3.10812 0
M  V30 26209 N 2493.55 -1.50749 0.459618 0
M  V30 26210 C 2494.48 -2.31148 -0.330604 0
M  V30 26211 C 2495.47 -1.37539 -1.00085 0
M  V30 26212 O 2496.65 -1.66461 -1.00022 0
M  V30 26213 C 2493.78 -3.16965 -1.41952 0
M  V30 26214 C 2492.73 -4.19033 -0.871534 0
M  V30 26215 C 2492.06 -4.93513 -2.05788 0
M  V30 26216 C 2493.36 -5.22186 0.109343 0
M  V30 26217 H 2495.05 -2.97459 0.340388 0
M  V30 26218 H 2492.6 -1.4305 0.165144 0
M  V30 26219 H 2494.55 -3.72001 -1.97973 0
M  V30 26220 H 2493.28 -2.48517 -2.11912 0
M  V30 26221 H 2491.94 -3.65081 -0.333378 0
M  V30 26222 H 2491.58 -4.21548 -2.74419 0
M  V30 26223 H 2491.28 -5.62547 -1.6975 0
M  V30 26224 H 2492.81 -5.5138 -2.62321 0
M  V30 26225 H 2494.22 -5.7216 -0.361304 0
M  V30 26226 H 2492.62 -5.98874 0.383421 0
M  V30 26227 H 2493.69 -4.73639 1.03896 0
M  V30 26228 N 2495.03 -0.191784 -1.56429 0
M  V30 26229 C 2496.31 0.495298 -1.89225 0
M  V30 26230 C 2496.69 1.79881 -1.10481 0
M  V30 26231 O 2496.04 2.2758 -0.204892 0
M  V30 26232 C 2496.25 0.717307 -3.41549 0
M  V30 26233 C 2497.6 1.03816 -4.11713 0
M  V30 26234 O 2498.62 0.805143 -3.46981 0
M  V30 26235 O 2497.48 1.47878 -5.26112 0
M  V30 26236 H 2494.57 0.257796 -0.785793 0
M  V30 26237 H 2497.12 -0.23175 -1.6811 0
M  V30 26238 H 2495.89 -0.203356 -3.90771 0
M  V30 26239 H 2495.51 1.49693 -3.68344 0
M  V30 26240 N 2496.51 1.57387 0.0818378 0
M  V30 26241 C 2497.76 1.86386 0.781335 0
M  V30 26242 C 2498.08 0.782374 1.78617 0
M  V30 26243 O 2497.35 -0.190027 1.94976 0
M  V30 26244 H 2495.93 0.687756 0.29155 0
M  V30 26245 H 2498.59 1.94807 0.0603137 0
M  V30 26246 H 2497.69 2.83564 1.30375 0
M  V30 26247 N 2497.99 -0.35299 1.53596 0
M  V30 26248 C 2498.95 -1.41591 1.80235 0
M  V30 26249 C 2499.95 -1.46034 0.673107 0
M  V30 26250 O 2501.14 -1.46574 0.941361 0
M  V30 26251 C 2498.27 -2.80604 1.93583 0
M  V30 26252 H 2499.47 -1.19239 2.75177 0
M  V30 26253 H 2497.02 -0.586846 1.44865 0
M  V30 26254 H 2497.75 -3.08253 1.00751 0
M  V30 26255 H 2497.54 -2.78776 2.75728 0
M  V30 26256 H 2499.03 -3.57555 2.15742 0
M  V30 26257 N 2499.47 -1.45169 -0.613489 0
M  V30 26258 C 2500.7 -1.52393 -1.39943 0
M  V30 26259 C 2501.11 -0.154564 -1.88166 0
M  V30 26260 O 2500.47 0.842815 -1.61873 0
M  V30 26261 C 2500.52 -2.50341 -2.6079 0
M  V30 26262 O 2500.24 -3.81956 -2.14573 0
M  V30 26263 C 2501.74 -2.67204 -3.53718 0
M  V30 26264 H 2498.96 -0.516292 -0.428584 0
M  V30 26265 H 2501.5 -1.90301 -0.74872 0
M  V30 26266 H 2499.66 -2.15521 -3.21915 0
M  V30 26267 H 2500.07 -4.34998 -2.93047 0
M  V30 26268 H 2501.55 -3.39729 -4.35073 0
M  V30 26269 H 2502.02 -1.73036 -4.03677 0
M  V30 26270 H 2502.63 -3.02997 -2.9845 0
M  V30 26271 N 2500.95 0.855472 -1.32361 0
M  V30 26272 C 2502.18 1.63968 -1.25691 0
M  V30 26273 C 2502.58 1.88365 0.177559 0
M  V30 26274 O 2501.93 1.45236 1.12482 0
M  V30 26275 C 2501.99 3.02272 -1.94607 0
M  V30 26276 C 2501.65 3.0092 -3.43942 0
M  V30 26277 C 2502.65 2.77828 -4.3944 0
M  V30 26278 C 2500.33 3.21581 -3.85864 0
M  V30 26279 C 2502.33 2.75399 -5.74834 0
M  V30 26280 C 2500.02 3.18779 -5.21366 0
M  V30 26281 C 2501.01 2.95717 -6.15663 0
M  V30 26282 O 2500.7 2.92787 -7.48686 0
M  V30 26283 H 2500.43 0.517462 -0.434981 0
M  V30 26284 H 2502.99 1.07497 -1.75025 0
M  V30 26285 H 2501.22 3.60529 -1.39842 0
M  V30 26286 H 2502.91 3.62981 -1.81657 0
M  V30 26287 H 2503.67 2.61633 -4.08379 0
M  V30 26288 H 2499.55 3.38558 -3.12889 0
M  V30 26289 H 2503.1 2.57317 -6.48409 0
M  V30 26290 H 2498.99 3.34519 -5.52058 0
M  V30 26291 H 2499.76 3.08746 -7.58036 0
M  V30 26292 N 2502.42 1.15558 1.07164 0
M  V30 26293 C 2503.7 0.8421 1.76545 0
M  V30 26294 C 2504.08 -0.661904 2.00455 0
M  V30 26295 O 2503.43 -1.60688 1.62455 0
M  V30 26296 C 2503.64 1.65501 3.07263 0
M  V30 26297 C 2504.99 1.86241 3.81575 0
M  V30 26298 O 2506.01 1.62293 3.1708 0
M  V30 26299 O 2504.87 2.26364 4.97415 0
M  V30 26300 H 2501.96 0.309875 0.766751 0
M  V30 26301 H 2504.51 1.26147 1.13512 0
M  V30 26302 H 2503.28 2.67603 2.85489 0
M  V30 26303 H 2502.9 1.2321 3.78028 0
M  V30 26304 N 2503.9 -1.25546 0.952678 0
M  V30 26305 C 2504.83 -2.28315 0.489327 0
M  V30 26306 C 2505.81 -1.63668 -0.46333 0
M  V30 26307 O 2507 -1.90783 -0.362707 0
M  V30 26308 C 2504.13 -3.465 -0.235542 0
M  V30 26309 C 2503.08 -4.23313 0.631668 0
M  V30 26310 C 2502.41 -5.34231 -0.223829 0
M  V30 26311 C 2503.71 -4.86171 1.9088 0
M  V30 26312 H 2505.4 -2.67324 1.34827 0
M  V30 26313 H 2502.95 -1.28508 0.64975 0
M  V30 26314 H 2504.9 -4.17516 -0.570809 0
M  V30 26315 H 2503.62 -3.06476 -1.12871 0
M  V30 26316 H 2502.28 -3.54077 0.949991 0
M  V30 26317 H 2501.93 -4.90448 -1.1167 0
M  V30 26318 H 2501.63 -5.86538 0.353094 0
M  V30 26319 H 2503.16 -6.08081 -0.554107 0
M  V30 26320 H 2504.57 -5.4934 1.64006 0
M  V30 26321 H 2502.97 -5.48645 2.43122 0
M  V30 26322 H 2504.04 -4.08466 2.61311 0
M  V30 26323 N 2505.38 -0.721022 -1.40139 0
M  V30 26324 C 2506.29 -0.0731443 -2.34486 0
M  V30 26325 C 2507.31 0.737696 -1.57588 0
M  V30 26326 O 2508.48 0.669396 -1.8995 0
M  V30 26327 C 2505.55 0.833597 -3.36529 0
M  V30 26328 C 2504.61 0.0120918 -4.29298 0
M  V30 26329 C 2503.84 0.875649 -5.26468 0
M  V30 26330 O 2504.06 2.11476 -5.29749 0
M  V30 26331 O 2503 0.311745 -6.01092 0
M  V30 26332 H 2506.82 -0.851495 -2.91519 0
M  V30 26333 H 2504.41 -0.481552 -1.41426 0
M  V30 26334 H 2506.29 1.35282 -3.99095 0
M  V30 26335 H 2504.97 1.591 -2.81902 0
M  V30 26336 H 2503.87 -0.552327 -3.7 0
M  V30 26337 H 2505.21 -0.707214 -4.87093 0
M  V30 26338 N 2506.86 1.50503 -0.467606 0
M  V30 26339 C 2508.11 2.01907 0.0884114 0
M  V30 26340 C 2508.43 1.3519 1.4053 0
M  V30 26341 O 2507.7 0.496112 1.89514 0
M  V30 26342 H 2506.28 0.746148 0.0356634 0
M  V30 26343 H 2508.94 1.84868 -0.617232 0
M  V30 26344 H 2508.03 3.11157 0.242445 0
M  V30 26345 N 2508.34 0.200077 1.56325 0
M  V30 26346 C 2509.29 -0.731705 2.1594 0
M  V30 26347 C 2510.27 -1.17279 1.10157 0
M  V30 26348 O 2511.46 -1.13036 1.36205 0
M  V30 26349 C 2508.59 -1.9489 2.82618 0
M  V30 26350 C 2507.68 -1.52849 3.95598 0
M  V30 26351 N 2508.07 -0.819331 4.9912 0
M  V30 26352 C 2506.37 -1.81741 4.07291 0
M  V30 26353 C 2507.07 -0.607951 5.78514 0
M  V30 26354 N 2506.04 -1.15818 5.31119 0
M  V30 26355 H 2509.84 -0.181233 2.93341 0
M  V30 26356 H 2507.36 0.000480717 1.624 0
M  V30 26357 H 2509.36 -2.62696 3.23723 0
M  V30 26358 H 2508.02 -2.50404 2.06707 0
M  V30 26359 H 2509.03 -0.47427 5.15724 0
M  V30 26360 H 2505.7 -2.38728 3.42513 0
M  V30 26361 H 2507.09 -0.0450438 6.71885 0
M  V30 26362 N 2509.81 -1.57429 -0.0734901 0
M  V30 26363 C 2511.22 -1.75909 -0.62552 0
M  V30 26364 C 2511.58 -0.825292 -1.77998 0
M  V30 26365 O 2510.7 -0.00897768 -2.16398 0
M  V30 26366 C 2511.3 -3.18991 -1.1415 0
M  V30 26367 C 2509.85 -3.38822 -1.63941 0
M  V30 26368 C 2509 -2.71626 -0.558104 0
M  V30 26369 H 2511.95 -1.57964 0.152675 0
M  V30 26370 H 2511.97 -3.23056 -2.01034 0
M  V30 26371 H 2511.49 -3.86931 -0.301048 0
M  V30 26372 H 2509.59 -2.75994 -2.50316 0
M  V30 26373 H 2509.7 -4.47256 -1.71752 0
M  V30 26374 H 2508.06 -2.34131 -1.00274 0
M  V30 26375 H 2508.85 -3.4222 0.272131 0
M  V30 26376 N 2511.29 0.344839 -1.53781 0
M  V30 26377 C 2512.22 1.44403 -1.7799 0
M  V30 26378 C 2513.24 1.4877 -0.661165 0
M  V30 26379 O 2514.43 1.51876 -0.937869 0
M  V30 26380 C 2511.53 2.83067 -1.8635 0
M  V30 26381 C 2510.7 3.02155 -3.16261 0
M  V30 26382 C 2509.76 4.21053 -3.15595 0
M  V30 26383 O 2508.78 4.15232 -3.89322 0
M  V30 26384 N 2509.99 5.29525 -2.37873 0
M  V30 26385 H 2512.75 1.24007 -2.72841 0
M  V30 26386 H 2510.31 0.53471 -1.52815 0
M  V30 26387 H 2512.3 3.6078 -1.83357 0
M  V30 26388 H 2510.87 2.96612 -0.98691 0
M  V30 26389 H 2510.09 2.11923 -3.32389 0
M  V30 26390 H 2511.38 3.1179 -4.02075 0
M  V30 26391 H 2510.78 5.37124 -1.77523 0
M  V30 26392 H 2509.34 6.05737 -2.40679 0
M  V30 26393 N 2512.77 1.45492 0.605781 0
M  V30 26394 C 2514 1.52911 1.38931 0
M  V30 26395 C 2514.41 0.161119 1.88513 0
M  V30 26396 O 2513.75 -0.847863 1.62963 0
M  V30 26397 C 2513.81 2.45381 2.62733 0
M  V30 26398 C 2513.48 3.92082 2.34778 0
M  V30 26399 C 2514.47 4.81933 1.95029 0
M  V30 26400 C 2512.16 4.37016 2.47634 0
M  V30 26401 C 2514.15 6.14725 1.685 0
M  V30 26402 C 2511.84 5.69848 2.20718 0
M  V30 26403 C 2512.84 6.58522 1.81213 0
M  V30 26404 O 2512.53 7.88892 1.54613 0
M  V30 26405 H 2512.26 0.52027 0.431619 0
M  V30 26406 H 2514.81 1.91386 0.745697 0
M  V30 26407 H 2513.04 2.0188 3.2982 0
M  V30 26408 H 2514.73 2.43462 3.24778 0
M  V30 26409 H 2515.5 4.48482 1.84631 0
M  V30 26410 H 2511.38 3.68237 2.7735 0
M  V30 26411 H 2514.92 6.83897 1.3759 0
M  V30 26412 H 2510.82 6.02854 2.30733 0
M  V30 26413 H 2511.58 8.00936 1.68651 0
M  V30 26414 N 2514.25 -0.848441 1.32813 0
M  V30 26415 C 2515.18 -1.97297 1.24885 0
M  V30 26416 C 2516.16 -1.69592 0.131386 0
M  V30 26417 O 2517.34 -1.91552 0.319586 0
M  V30 26418 C 2514.47 -3.33259 0.977518 0
M  V30 26419 C 2513.43 -3.75335 2.05689 0
M  V30 26420 C 2512.75 -5.08997 1.63786 0
M  V30 26421 C 2514.05 -3.90137 3.47261 0
M  V30 26422 H 2515.75 -2.04187 2.1897 0
M  V30 26423 H 2513.29 -0.98101 1.05414 0
M  V30 26424 H 2515.25 -4.11488 0.908585 0
M  V30 26425 H 2513.97 -3.266 0.00103742 0
M  V30 26426 H 2512.63 -2.99362 2.11608 0
M  V30 26427 H 2512.28 -4.988 0.648656 0
M  V30 26428 H 2511.98 -5.3812 2.36009 0
M  V30 26429 H 2513.5 -5.89712 1.58341 0
M  V30 26430 H 2514.92 -4.58703 3.43896 0
M  V30 26431 H 2513.31 -4.30685 4.17888 0
M  V30 26432 H 2514.38 -2.92867 3.86467 0
M  V30 26433 N 2515.73 -1.16125 -1.06549 0
M  V30 26434 C 2516.66 -0.888548 -2.15933 0
M  V30 26435 C 2517.64 0.164105 -1.69307 0
M  V30 26436 O 2518.82 0.0167515 -1.94193 0
M  V30 26437 C 2515.95 -0.386003 -3.45148 0
M  V30 26438 C 2514.91 -1.37627 -4.05269 0
M  V30 26439 C 2514.23 -0.73223 -5.29663 0
M  V30 26440 C 2515.53 -2.745 -4.4435 0
M  V30 26441 H 2517.23 -1.80327 -2.39003 0
M  V30 26442 H 2514.77 -0.868455 -1.14865 0
M  V30 26443 H 2516.73 -0.182721 -4.21004 0
M  V30 26444 H 2515.45 0.564218 -3.2169 0
M  V30 26445 H 2514.11 -1.56605 -3.31467 0
M  V30 26446 H 2513.76 0.224394 -5.02499 0
M  V30 26447 H 2513.46 -1.39317 -5.70846 0
M  V30 26448 H 2514.98 -0.538909 -6.08217 0
M  V30 26449 H 2516.39 -2.5932 -5.11299 0
M  V30 26450 H 2514.79 -3.37044 -4.96509 0
M  V30 26451 H 2515.86 -3.29949 -3.55333 0
M  V30 26452 N 2517.2 1.25039 -0.959323 0
M  V30 26453 C 2518.48 1.88174 -0.533838 0
M  V30 26454 C 2518.86 1.86501 0.988962 0
M  V30 26455 O 2518.21 1.3318 1.85675 0
M  V30 26456 C 2518.42 3.30682 -1.11581 0
M  V30 26457 C 2519.77 4.07421 -1.19555 0
M  V30 26458 O 2520.79 3.39821 -1.06771 0
M  V30 26459 O 2519.65 5.28352 -1.39665 0
M  V30 26460 H 2516.74 0.807883 -0.176786 0
M  V30 26461 H 2519.29 1.33075 -1.05306 0
M  V30 26462 H 2518.06 3.26355 -2.1589 0
M  V30 26463 H 2517.69 3.93345 -0.580128 0
M  V30 26464 N 2518.68 0.728444 1.39755 0
M  V30 26465 C 2519.91 0.282195 2.05471 0
M  V30 26466 C 2520.33 -1.07218 1.54551 0
M  V30 26467 O 2519.69 -1.67804 0.686401 0
M  V30 26468 C 2519.74 0.286327 3.59461 0
M  V30 26469 O 2518.84 -0.728227 4.05919 0
M  V30 26470 H 2518.18 0.129629 0.651224 0
M  V30 26471 H 2520.71 0.992531 1.78913 0
M  V30 26472 H 2520.72 0.128444 4.07798 0
M  V30 26473 H 2519.4 1.27463 3.95886 0
M  V30 26474 H 2517.98 -0.537017 3.69013 0
M  V30 26475 N 2520.16 -1.50253 0.475581 0
M  V30 26476 C 2521.11 -2.30244 -0.330235 0
M  V30 26477 C 2522.1 -1.37727 -0.986281 0
M  V30 26478 O 2523.31 -1.54898 -0.916873 0
M  V30 26479 H 2519.68 -0.741481 -0.12534 0
M  V30 26480 H 2521.65 -2.96162 0.364754 0
M  V30 26481 C 2520.4 -3.18402 -1.39698 0
M  V30 26482 H 2519.73 -3.89502 -0.901552 0
M  V30 26483 H 2521.17 -3.77359 -1.93329 0
M  V30 26484 C 2519.63 -2.36297 -2.40136 0
M  V30 26485 O 2520.16 -2.0492 -3.455 0
M  V30 26486 N 2518.36 -1.98793 -2.11966 0
M  V30 26487 H 2517.91 -2.24509 -1.26306 0
M  V30 26488 H 2517.87 -1.44162 -2.79401 0
M  V30 26489 N 2521.64 -0.208365 -1.56217 0
M  V30 26490 C 2522.86 0.435187 -2.02783 0
M  V30 26491 C 2523.29 1.53483 -1.0874 0
M  V30 26492 O 2522.65 1.81152 -0.0732173 0
M  V30 26493 C 2522.69 0.956274 -3.47689 0
M  V30 26494 O 2521.8 2.06843 -3.56777 0
M  V30 26495 H 2521.14 0.100146 -0.656404 0
M  V30 26496 H 2523.67 -0.323135 -2.02032 0
M  V30 26497 H 2523.68 1.26948 -3.87747 0
M  V30 26498 H 2522.35 0.151357 -4.15624 0
M  V30 26499 H 2520.93 1.76286 -3.286 0
M  V30 26500 N 2523.12 1.57465 0.0651402 0
M  V30 26501 C 2524.36 1.88713 0.758878 0
M  V30 26502 C 2524.72 0.80285 1.74849 0
M  V30 26503 O 2524.01 -0.192326 1.90632 0
M  V30 26504 C 2524.2 3.24364 1.50075 0
M  V30 26505 C 2524.03 4.45885 0.5845 0
M  V30 26506 C 2522.8 5.04825 0.218951 0
M  V30 26507 C 2525 5.14156 -0.121649 0
M  V30 26508 N 2522.98 6.09869 -0.70233 0
M  V30 26509 C 2524.35 6.13435 -0.899875 0
M  V30 26510 C 2526.41 4.97528 -0.192418 0
M  V30 26511 C 2525.11 6.9788 -1.7423 0
M  V30 26512 C 2527.14 5.82505 -1.02185 0
M  V30 26513 C 2526.5 6.81327 -1.7881 0
M  V30 26514 H 2522.6 0.739971 0.252917 0
M  V30 26515 H 2525.18 1.9469 0.0201402 0
M  V30 26516 H 2523.35 3.19384 2.21017 0
M  V30 26517 H 2525.09 3.4324 2.14403 0
M  V30 26518 H 2521.84 4.70118 0.573278 0
M  V30 26519 H 2522.27 6.6705 -1.15641 0
M  V30 26520 H 2526.91 4.21037 0.385667 0
M  V30 26521 H 2524.63 7.7374 -2.33134 0
M  V30 26522 H 2528.21 5.71694 -1.07967 0
M  V30 26523 H 2527.09 7.4594 -2.41955 0
M  V30 26524 N 2524.59 -0.336679 1.53962 0
M  V30 26525 C 2525.84 -1.0736 1.70753 0
M  V30 26526 C 2526.16 -1.89591 0.481094 0
M  V30 26527 O 2527.36 -2.66275 0.530093 0
M  V30 26528 C 2525.82 -1.95813 3.01969 0
M  V30 26529 C 2525.43 -1.18756 4.31973 0
M  V30 26530 C 2527.17 -2.69321 3.28126 0
M  V30 26531 C 2525.08 -2.06279 5.54259 0
M  V30 26532 H 2524.01 -0.404523 0.636299 0
M  V30 26533 H 2526.66 -0.332649 1.8046 0
M  V30 26534 H 2525.04 -2.73755 2.86136 0
M  V30 26535 H 2526.21 -0.456768 4.58531 0
M  V30 26536 H 2524.53 -0.569873 4.12482 0
M  V30 26537 H 2527.13 -3.35087 4.16678 0
M  V30 26538 H 2527.47 -3.36257 2.45432 0
M  V30 26539 H 2528 -1.98448 3.44765 0
M  V30 26540 H 2524.74 -1.43873 6.39516 0
M  V30 26541 H 2524.26 -2.77128 5.3194 0
M  V30 26542 H 2525.94 -2.65172 5.90163 0
M  V30 26543 N 2526.07 -1.45812 -0.598057 0
M  V30 26544 C 2526.98 -1.57766 -1.73629 0
M  V30 26545 C 2528 -0.461705 -1.67763 0
M  V30 26546 O 2529.17 -0.723718 -1.87948 0
M  V30 26547 C 2526.24 -1.55023 -3.10111 0
M  V30 26548 C 2525.3 -2.77731 -3.27359 0
M  V30 26549 C 2524.53 -2.7511 -4.57329 0
M  V30 26550 O 2524.76 -1.82979 -5.40254 0
M  V30 26551 O 2523.69 -3.66445 -4.77495 0
M  V30 26552 H 2527.52 -2.53995 -1.66494 0
M  V30 26553 H 2525.1 -1.2843 -0.763285 0
M  V30 26554 H 2526.98 -1.56135 -3.91407 0
M  V30 26555 H 2525.66 -0.619486 -3.17717 0
M  V30 26556 H 2524.57 -2.82178 -2.45614 0
M  V30 26557 H 2525.9 -3.69964 -3.24635 0
M  V30 26558 N 2527.55 0.841385 -1.33261 0
M  V30 26559 C 2528.46 1.98314 -1.25335 0
M  V30 26560 C 2529.48 1.73222 -0.164395 0
M  V30 26561 O 2530.65 1.97637 -0.387521 0
M  V30 26562 C 2527.72 3.32261 -0.990137 0
M  V30 26563 C 2526.78 3.70485 -2.16885 0
M  V30 26564 C 2526.01 4.98041 -1.9181 0
M  V30 26565 O 2526.23 5.6377 -0.867174 0
M  V30 26566 O 2525.17 5.3371 -2.78276 0
M  V30 26567 H 2528.99 2.0794 -2.21348 0
M  V30 26568 H 2526.58 0.974038 -1.13282 0
M  V30 26569 H 2528.46 4.12523 -0.860394 0
M  V30 26570 H 2527.14 3.23644 -0.0602724 0
M  V30 26571 H 2526.04 2.90744 -2.35412 0
M  V30 26572 H 2527.38 3.83765 -3.08197 0
M  V30 26573 N 2529.03 1.16688 1.05932 0
M  V30 26574 C 2529.96 0.820262 2.12948 0
M  V30 26575 C 2530.94 -0.209693 1.61242 0
M  V30 26576 O 2532.12 -0.0929357 1.88271 0
M  V30 26577 C 2529.25 0.222289 3.3797 0
M  V30 26578 C 2528.3 1.22644 4.08486 0
M  V30 26579 S 2529.13 2.77465 4.5801 0
M  V30 26580 C 2530.29 2.19127 5.86288 0
M  V30 26581 H 2530.52 1.72664 2.42022 0
M  V30 26582 H 2528.05 0.990743 1.18421 0
M  V30 26583 H 2530.01 -0.116249 4.10335 0
M  V30 26584 H 2528.67 -0.661906 3.07047 0
M  V30 26585 H 2527.86 0.756543 4.9829 0
M  V30 26586 H 2527.47 1.51025 3.42151 0
M  V30 26587 H 2529.76 1.5622 6.59243 0
M  V30 26588 H 2530.7 3.07155 6.38013 0
M  V30 26589 H 2531.11 1.62868 5.40495 0
M  V30 26590 N 2530.51 -1.24529 0.96594 0
M  V30 26591 C 2531.92 -1.74419 0.66596 0
M  V30 26592 C 2532.27 -1.78317 -0.818376 0
M  V30 26593 O 2531.39 -1.41144 -1.64035 0
M  V30 26594 C 2531.99 -3.16754 1.20217 0
M  V30 26595 C 2530.55 -3.64159 0.952123 0
M  V30 26596 C 2529.7 -2.42856 1.33852 0
M  V30 26597 H 2532.65 -1.10256 1.14146 0
M  V30 26598 H 2532.67 -3.76243 0.56761 0
M  V30 26599 H 2532.18 -3.13885 2.2825 0
M  V30 26600 H 2530.28 -3.72429 -0.112756 0
M  V30 26601 H 2530.39 -4.51716 1.59653 0
M  V30 26602 H 2528.76 -2.43193 0.756907 0
M  V30 26603 H 2529.54 -2.42668 2.42831 0
M  V30 26604 N 2531.99 -0.735845 -1.39367 0
M  V30 26605 C 2533.21 -0.293088 -2.05319 0
M  V30 26606 C 2533.64 1.06397 -1.55117 0
M  V30 26607 O 2532.99 1.67438 -0.695291 0
M  V30 26608 C 2533.04 -0.305386 -3.59305 0
M  V30 26609 O 2532.15 0.706689 -4.063 0
M  V30 26610 H 2531.49 -0.133081 -0.650527 0
M  V30 26611 H 2534.02 -1.00201 -1.78384 0
M  V30 26612 H 2534.03 -0.150069 -4.07724 0
M  V30 26613 H 2532.7 -1.2956 -3.95205 0
M  V30 26614 H 2531.28 0.517439 -3.69293 0
M  V30 26615 N 2533.46 1.49999 -0.483543 0
M  V30 26616 C 2534.37 2.32554 0.309131 0
M  V30 26617 C 2535.39 1.43495 0.984134 0
M  V30 26618 O 2536.57 1.76537 0.969367 0
M  V30 26619 C 2533.63 3.18495 1.36974 0
M  V30 26620 C 2532.69 4.23388 0.710021 0
M  V30 26621 C 2531.92 5.05221 1.72009 0
M  V30 26622 O 2532.15 4.8831 2.94805 0
M  V30 26623 O 2531.08 5.88022 1.28504 0
M  V30 26624 H 2534.91 3.01485 -0.366117 0
M  V30 26625 H 2532.49 1.47375 -0.245166 0
M  V30 26626 H 2534.37 3.71785 1.98379 0
M  V30 26627 H 2533.05 2.52279 2.02823 0
M  V30 26628 H 2531.96 3.74057 0.0566881 0
M  V30 26629 H 2533.29 4.9211 0.0942692 0
M  V30 26630 N 2534.94 0.216646 1.56104 0
M  V30 26631 C 2536.36 -0.138832 1.58995 0
M  V30 26632 C 2536.56 -1.59344 1.23336 0
M  V30 26633 O 2535.61 -2.3328 0.966275 0
M  V30 26634 C 2536.93 0.183021 3.00143 0
M  V30 26635 C 2538.47 0.124862 3.12751 0
M  V30 26636 C 2538.95 0.420321 4.56067 0
M  V30 26637 N 2540.44 0.369715 4.61722 0
M  V30 26638 C 2541.18 0.571889 5.70541 0
M  V30 26639 N 2540.67 0.835574 6.87743 0
M  V30 26640 N 2542.46 0.504662 5.5983 0
M  V30 26641 H 2534.62 1.16561 1.7756 0
M  V30 26642 H 2536.88 0.466843 0.825083 0
M  V30 26643 H 2536.58 1.19242 3.30869 0
M  V30 26644 H 2536.46 -0.504301 3.73814 0
M  V30 26645 H 2538.85 -0.875174 2.81824 0
M  V30 26646 H 2538.93 0.845586 2.4142 0
M  V30 26647 H 2538.57 1.41777 4.87711 0
M  V30 26648 H 2538.5 -0.321539 5.25617 0
M  V30 26649 H 2540.99 0.173405 3.77502 0
M  V30 26650 H 2541.3 0.978073 7.66586 0
M  V30 26651 H 2539.65 0.872713 6.89499 0
M  V30 26652 H 2542.84 0.298924 4.67145 0
M  V30 26653 H 2543.01 0.665632 6.44572 0
M  V30 26654 N 2536.42 -1.57498 -0.0567885 0
M  V30 26655 C 2537.35 -2.07752 -1.06589 0
M  V30 26656 C 2538.33 -0.974106 -1.39446 0
M  V30 26657 O 2539.52 -1.24773 -1.48813 0
M  V30 26658 C 2536.65 -2.53394 -2.37505 0
M  V30 26659 C 2535.6 -3.67749 -2.18963 0
M  V30 26660 C 2534.93 -3.99498 -3.55395 0
M  V30 26661 C 2536.23 -4.97238 -1.5985 0
M  V30 26662 H 2537.92 -2.92311 -0.647655 0
M  V30 26663 H 2535.47 -1.40622 -0.310091 0
M  V30 26664 H 2537.42 -2.87167 -3.08404 0
M  V30 26665 H 2536.14 -1.65883 -2.81337 0
M  V30 26666 H 2534.8 -3.34282 -1.50502 0
M  V30 26667 H 2534.45 -3.09095 -3.96824 0
M  V30 26668 H 2534.15 -4.76508 -3.43823 0
M  V30 26669 H 2535.67 -4.3578 -4.27701 0
M  V30 26670 H 2537.09 -5.29145 -2.20632 0
M  V30 26671 H 2535.48 -5.78671 -1.58932 0
M  V30 26672 H 2536.55 -4.81639 -0.561421 0
M  V30 26673 N 2537.9 0.328509 -1.54138 0
M  V30 26674 C 2539.14 1.07531 -1.73829 0
M  V30 26675 C 2539.5 1.85407 -0.498809 0
M  V30 26676 O 2540.7 2.62622 -0.572983 0
M  V30 26677 C 2538.97 1.97947 -2.97576 0
M  V30 26678 S 2540.53 2.79646 -3.38148 0
M  V30 26679 H 2537.35 0.363099 -0.611294 0
M  V30 26680 H 2539.95 0.351897 -1.92307 0
M  V30 26681 H 2538.66 1.39562 -3.85941 0
M  V30 26682 H 2538.19 2.74701 -2.81607 0
M  V30 26683 H 2540.2 4.00413 -2.93059 0
M  V30 26684 N 2539.38 1.46127 0.590316 0
M  V30 26685 C 2540.79 1.30914 0.912894 0
M  V30 26686 C 2540.99 0.274928 1.99616 0
M  V30 26687 O 2540.05 -0.325153 2.50398 0
M  V30 26688 C 2541.36 2.69319 1.33745 0
M  V30 26689 C 2542.91 2.7735 1.45072 0
M  V30 26690 C 2543.38 4.1632 1.90897 0
M  V30 26691 N 2544.87 4.187 1.98103 0
M  V30 26692 C 2545.61 5.23113 2.34819 0
M  V30 26693 N 2545.11 6.3786 2.70381 0
M  V30 26694 N 2546.9 5.10477 2.35308 0
M  V30 26695 H 2539.05 2.1203 -0.125395 0
M  V30 26696 H 2541.31 0.947977 0.00656814 0
M  V30 26697 H 2541.02 3.46271 0.615554 0
M  V30 26698 H 2540.89 2.98924 2.30053 0
M  V30 26699 H 2543.28 2.00691 2.1635 0
M  V30 26700 H 2543.36 2.51438 0.470355 0
M  V30 26701 H 2543 4.93472 1.202 0
M  V30 26702 H 2542.93 4.39634 2.89878 0
M  V30 26703 H 2545.43 3.35903 1.7314 0
M  V30 26704 H 2545.74 7.13313 2.97329 0
M  V30 26705 H 2544.08 6.41234 2.68037 0
M  V30 26706 H 2547.27 4.19872 2.06943 0
M  V30 26707 H 2547.45 5.91964 2.63595 0
M  V30 26708 N 2540.85 -0.834306 1.33705 0
M  V30 26709 C 2542.08 -1.62703 1.28618 0
M  V30 26710 C 2542.5 -1.87584 -0.139209 0
M  V30 26711 O 2541.86 -1.44322 -1.09731 0
M  V30 26712 C 2541.91 -2.95167 2.07144 0
M  V30 26713 O 2541.01 -3.86696 1.43317 0
M  V30 26714 H 2540.35 -0.495272 0.442269 0
M  V30 26715 H 2542.88 -1.03762 1.76336 0
M  V30 26716 H 2542.89 -3.44827 2.18079 0
M  V30 26717 H 2541.57 -2.7638 3.10784 0
M  V30 26718 H 2540.15 -3.45192 1.41056 0
M  V30 26719 N 2542.33 -1.17248 -1.05312 0
M  V30 26720 C 2543.56 -0.984625 -1.81969 0
M  V30 26721 C 2543.97 0.467134 -1.8293 0
M  V30 26722 O 2543.33 1.32436 -1.25566 0
M  V30 26723 C 2543.38 -1.51677 -3.28141 0
M  V30 26724 O 2543.1 -2.91169 -3.27342 0
M  V30 26725 C 2544.6 -1.37333 -4.21491 0
M  V30 26726 H 2541.82 -0.348421 -0.573449 0
M  V30 26727 H 2544.37 -1.55509 -1.32806 0
M  V30 26728 H 2542.52 -0.988367 -3.7458 0
M  V30 26729 H 2542.94 -3.15739 -4.18818 0
M  V30 26730 H 2544.41 -1.79384 -5.2204 0
M  V30 26731 H 2544.89 -0.320246 -4.38031 0
M  V30 26732 H 2545.49 -1.89185 -3.80906 0
M  V30 26733 N 2543.81 1.24015 -0.972531 0
M  V30 26734 C 2545.23 1.44396 -0.679853 0
M  V30 26735 C 2545.43 1.86753 0.756683 0
M  V30 26736 O 2544.48 2.00864 1.53003 0
M  V30 26737 C 2545.8 2.50192 -1.66807 0
M  V30 26738 C 2547.34 2.64014 -1.68123 0
M  V30 26739 C 2547.82 3.73012 -2.65755 0
M  V30 26740 N 2549.31 3.80446 -2.64226 0
M  V30 26741 C 2550.04 4.64322 -3.36441 0
M  V30 26742 N 2549.54 5.52349 -4.1819 0
M  V30 26743 N 2551.33 4.58447 -3.25243 0
M  V30 26744 H 2543.48 0.948194 -1.90061 0
M  V30 26745 H 2545.75 0.478231 -0.818535 0
M  V30 26746 H 2545.45 2.25968 -2.69502 0
M  V30 26747 H 2545.33 3.48439 -1.44466 0
M  V30 26748 H 2547.71 2.87593 -0.661369 0
M  V30 26749 H 2547.8 1.6611 -1.94528 0
M  V30 26750 H 2547.44 3.50183 -3.67878 0
M  V30 26751 H 2547.37 4.70441 -2.36627 0
M  V30 26752 H 2549.86 3.17534 -2.04892 0
M  V30 26753 H 2550.17 6.13321 -4.70168 0
M  V30 26754 H 2548.52 5.51998 -4.22283 0
M  V30 26755 H 2551.71 3.88693 -2.60836 0
M  V30 26756 H 2551.88 5.23588 -3.81785 0
M  V30 26757 N 2545.29 0.743226 1.38974 0
M  V30 26758 C 2546.22 0.0689631 2.29096 0
M  V30 26759 C 2547.23 -0.694765 1.47231 0
M  V30 26760 O 2548.42 -0.537567 1.70213 0
M  V30 26761 C 2545.52 -0.92649 3.2599 0
M  V30 26762 C 2544.7 -0.22257 4.36833 0
M  V30 26763 C 2543.75 -1.1273 5.13983 0
M  V30 26764 O 2542.78 -0.601695 5.66011 0
M  V30 26765 N 2543.98 -2.45632 5.25971 0
M  V30 26766 H 2546.75 0.842897 2.87603 0
M  V30 26767 H 2544.31 0.593136 1.50644 0
M  V30 26768 H 2546.3 -1.53453 3.74479 0
M  V30 26769 H 2544.87 -1.60157 2.68456 0
M  V30 26770 H 2544.09 0.566052 3.90115 0
M  V30 26771 H 2545.38 0.26493 5.0811 0
M  V30 26772 H 2544.78 -2.90802 4.85233 0
M  V30 26773 H 2543.33 -3.01512 5.7787 0
M  V30 26774 N 2546.77 -1.4974 0.491491 0
M  V30 26775 C 2548.18 -1.58923 0.146863 0
M  V30 26776 C 2548.38 -1.49769 -1.34802 0
M  V30 26777 O 2547.44 -1.3667 -2.12314 0
M  V30 26778 C 2548.75 -2.92071 0.715208 0
M  V30 26779 C 2550.3 -3.05514 0.680461 0
M  V30 26780 C 2550.77 -4.41266 1.2267 0
M  V30 26781 N 2552.27 -4.47733 1.18699 0
M  V30 26782 C 2553 -5.51204 1.57994 0
M  V30 26783 N 2552.5 -6.61827 2.04835 0
M  V30 26784 N 2554.29 -5.41863 1.49469 0
M  V30 26785 H 2546.44 -1.53933 1.4635 0
M  V30 26786 H 2548.7 -0.728631 0.606466 0
M  V30 26787 H 2548.41 -3.04308 1.76322 0
M  V30 26788 H 2548.28 -3.76816 0.170246 0
M  V30 26789 H 2550.67 -2.92912 -0.358692 0
M  V30 26790 H 2550.75 -2.22476 1.26246 0
M  V30 26791 H 2550.4 -4.54619 2.26459 0
M  V30 26792 H 2550.33 -5.22929 0.620729 0
M  V30 26793 H 2552.82 -3.68362 0.84367 0
M  V30 26794 H 2553.13 -7.36866 2.32914 0
M  V30 26795 H 2551.47 -6.62892 2.08803 0
M  V30 26796 H 2554.67 -4.54331 1.127 0
M  V30 26797 H 2554.84 -6.22378 1.80417 0
M  V30 26798 N 2548.24 -0.224922 -1.55987 0
M  V30 26799 C 2549.21 0.670309 -2.19179 0
M  V30 26800 C 2550.21 1.11915 -1.15463 0
M  V30 26801 O 2551.4 1.02741 -1.40677 0
M  V30 26802 C 2548.53 1.91866 -2.81781 0
M  V30 26803 H 2549.72 0.119311 -2.99663 0
M  V30 26804 H 2547.28 0.0246853 -1.56281 0
M  V30 26805 H 2548.01 2.51144 -2.05176 0
M  V30 26806 H 2547.8 1.60525 -3.57735 0
M  V30 26807 H 2549.29 2.5564 -3.30209 0
M  V30 26808 N 2549.72 1.57526 0.0484352 0
M  V30 26809 C 2550.69 2.04271 1.03952 0
M  V30 26810 C 2551.69 0.943519 1.30209 0
M  V30 26811 O 2552.88 1.20773 1.25537 0
M  V30 26812 C 2550.01 2.44323 2.37737 0
M  V30 26813 H 2551.2 2.93076 0.63613 0
M  V30 26814 H 2548.75 1.53495 0.294784 0
M  V30 26815 H 2549.49 1.58615 2.82863 0
M  V30 26816 H 2549.27 3.24555 2.20015 0
M  V30 26817 H 2550.76 2.80983 3.08931 0
M  V30 26818 N 2551.2 -0.32033 1.5431 0
M  V30 26819 C 2552.44 -1.06607 1.74397 0
M  V30 26820 C 2552.8 -1.8514 0.508635 0
M  V30 26821 O 2554.01 -2.62314 0.586902 0
M  V30 26822 C 2552.28 -1.96366 2.98622 0
M  V30 26823 S 2553.84 -2.77848 3.39626 0
M  V30 26824 H 2550.65 -0.359852 0.613211 0
M  V30 26825 H 2553.26 -0.341693 1.92491 0
M  V30 26826 H 2551.96 -1.37514 3.86676 0
M  V30 26827 H 2551.49 -2.73204 2.8306 0
M  V30 26828 H 2553.51 -3.98853 2.95179 0
M  V30 26829 N 2552.68 -1.46438 -0.582558 0
M  V30 26830 C 2553.64 -1.56595 -1.67363 0
M  V30 26831 C 2554.64 -0.443099 -1.54574 0
M  V30 26832 O 2555.83 -0.707409 -1.5919 0
M  V30 26833 C 2552.96 -1.48639 -3.06789 0
M  V30 26834 H 2554.16 -2.53833 -1.59715 0
M  V30 26835 H 2551.71 -1.3425 -0.800409 0
M  V30 26836 H 2552.44 -0.526819 -3.19992 0
M  V30 26837 H 2552.23 -2.30106 -3.1748 0
M  V30 26838 H 2553.72 -1.58833 -3.86215 0
M  V30 26839 N 2554.16 0.827204 -1.34146 0
M  V30 26840 C 2555.09 1.94528 -1.21209 0
M  V30 26841 C 2556.1 1.62195 -0.140204 0
M  V30 26842 O 2557.29 1.7415 -0.391678 0
M  V30 26843 C 2554.39 3.28345 -0.839199 0
M  V30 26844 C 2553.56 3.88731 -2.00517 0
M  V30 26845 C 2552.62 5.00921 -1.61137 0
M  V30 26846 O 2551.65 5.19445 -2.32735 0
M  V30 26847 N 2552.85 5.78139 -0.52306 0
M  V30 26848 H 2555.62 2.06159 -2.17529 0
M  V30 26849 H 2553.18 1.00356 -1.27044 0
M  V30 26850 H 2555.17 4.0084 -0.557627 0
M  V30 26851 H 2553.74 3.12582 0.0336744 0
M  V30 26852 H 2552.96 3.08682 -2.45172 0
M  V30 26853 H 2554.25 4.25807 -2.78506 0
M  V30 26854 H 2553.64 5.65654 0.0722524 0
M  V30 26855 H 2552.2 6.51104 -0.301203 0
M  V30 26856 N 2555.63 1.17805 1.04688 0
M  V30 26857 C 2556.56 0.922788 2.14492 0
M  V30 26858 C 2557.55 -0.137149 1.69546 0
M  V30 26859 O 2558.73 0.014145 1.94195 0
M  V30 26860 C 2555.86 0.440864 3.4449 0
M  V30 26861 C 2554.81 1.44057 4.03028 0
M  V30 26862 C 2554.14 0.816403 5.28431 0
M  V30 26863 C 2555.44 2.81535 4.39927 0
M  V30 26864 H 2557.13 1.84107 2.36104 0
M  V30 26865 H 2554.68 0.886619 1.13468 0
M  V30 26866 H 2556.63 0.249676 4.2066 0
M  V30 26867 H 2555.36 -0.512968 3.22546 0
M  V30 26868 H 2554.02 1.61859 3.28934 0
M  V30 26869 H 2553.66 -0.144423 5.02793 0
M  V30 26870 H 2553.36 1.48381 5.68557 0
M  V30 26871 H 2554.89 0.635603 6.07283 0
M  V30 26872 H 2556.3 2.67421 5.07108 0
M  V30 26873 H 2554.7 3.449 4.91084 0
M  V30 26874 H 2555.77 3.35561 3.50039 0
M  V30 26875 N 2557.11 -1.23497 0.979094 0
M  V30 26876 C 2558.06 -2.26926 0.510644 0
M  V30 26877 C 2559.05 -1.63808 -0.431662 0
M  V30 26878 O 2560.26 -1.77385 -0.305699 0
M  V30 26879 H 2556.64 -0.737552 0.146701 0
M  V30 26880 H 2558.61 -2.638 1.3947 0
M  V30 26881 C 2557.36 -3.47271 -0.172597 0
M  V30 26882 H 2556.68 -3.9609 0.543401 0
M  V30 26883 H 2558.12 -4.21453 -0.464027 0
M  V30 26884 C 2556.58 -3.06278 -1.4034 0
M  V30 26885 O 2557.11 -3.14447 -2.49972 0
M  V30 26886 N 2555.31 -2.61206 -1.27358 0
M  V30 26887 H 2554.86 -2.54759 -0.381539 0
M  V30 26888 H 2554.82 -2.34144 -2.09818 0
M  V30 26889 N 2558.59 -0.750586 -1.38578 0
M  V30 26890 C 2559.87 -0.231043 -1.94231 0
M  V30 26891 C 2560.25 1.27015 -1.68613 0
M  V30 26892 O 2559.6 2.04321 -1.023 0
M  V30 26893 C 2559.81 -0.581489 -3.44122 0
M  V30 26894 C 2561.15 -0.539463 -4.21159 0
M  V30 26895 O 2562.18 -0.519603 -3.5239 0
M  V30 26896 O 2561.04 -0.547745 -5.43748 0
M  V30 26897 H 2558.13 -0.0474408 -0.825638 0
M  V30 26898 H 2560.68 -0.830504 -1.47989 0
M  V30 26899 H 2559.45 -1.61839 -3.56264 0
M  V30 26900 H 2559.07 0.0461348 -3.97573 0
M  V30 26901 N 2560.07 1.49477 -0.499425 0
M  V30 26902 C 2561.32 2.02449 0.0456543 0
M  V30 26903 C 2561.64 1.37924 1.3714 0
M  V30 26904 O 2560.9 0.503578 1.8911 0
M  V30 26905 C 2561.2 3.56536 0.248362 0
M  V30 26906 C 2560.86 4.3969 -0.999185 0
M  V30 26907 C 2559.53 4.62132 -1.34116 0
M  V30 26908 C 2561.88 4.88073 -1.8285 0
M  V30 26909 C 2559.21 5.30203 -2.512 0
M  V30 26910 C 2561.56 5.57432 -2.99086 0
M  V30 26911 C 2560.22 5.78121 -3.33666 0
M  V30 26912 H 2559.49 0.740812 0.0167061 0
M  V30 26913 H 2562.14 1.79794 -0.659262 0
M  V30 26914 H 2560.44 3.77861 1.03579 0
M  V30 26915 H 2562.14 3.95114 0.684535 0
M  V30 26916 H 2558.73 4.22461 -0.722804 0
M  V30 26917 H 2562.92 4.70564 -1.57745 0
M  V30 26918 H 2558.17 5.44424 -2.78231 0
M  V30 26919 H 2562.35 5.93897 -3.63674 0
M  V30 26920 H 2559.97 6.30642 -4.24494 0
M  V30 26921 N 2561.55 0.233191 1.55865 0
M  V30 26922 C 2562.48 -0.666559 2.23784 0
M  V30 26923 C 2563.46 -1.19203 1.21345 0
M  V30 26924 O 2564.64 -1.23389 1.49962 0
M  V30 26925 C 2561.77 -1.86973 2.92675 0
M  V30 26926 C 2560.73 -1.47761 4.01685 0
M  V30 26927 C 2560.05 -2.7605 4.57931 0
M  V30 26928 C 2561.35 -0.658902 5.18127 0
M  V30 26929 H 2563.05 -0.100253 2.99232 0
M  V30 26930 H 2560.59 -0.0467787 1.43924 0
M  V30 26931 H 2562.55 -2.50471 3.38884 0
M  V30 26932 H 2561.27 -2.46119 2.14693 0
M  V30 26933 H 2559.93 -0.866043 3.56224 0
M  V30 26934 H 2559.58 -3.33365 3.76665 0
M  V30 26935 H 2559.28 -2.50543 5.31509 0
M  V30 26936 H 2560.8 -3.4047 5.06865 0
M  V30 26937 H 2562.22 -1.19785 5.60646 0
M  V30 26938 H 2560.61 -0.500447 5.9801 0
M  V30 26939 H 2561.68 0.331941 4.83763 0
M  V30 26940 N 2563.03 -1.57549 -0.0400806 0
M  V30 26941 C 2563.96 -2.02614 -1.07146 0
M  V30 26942 C 2564.97 -0.937109 -1.33124 0
M  V30 26943 O 2566.16 -1.21458 -1.30806 0
M  V30 26944 C 2563.26 -2.37705 -2.41557 0
M  V30 26945 C 2562.43 -3.68852 -2.3509 0
M  V30 26946 C 2561.49 -3.91255 -3.5186 0
M  V30 26947 O 2560.52 -4.62453 -3.31852 0
M  V30 26948 N 2561.72 -3.36043 -4.73345 0
M  V30 26949 H 2564.48 -2.91709 -0.687434 0
M  V30 26950 H 2562.05 -1.60283 -0.22822 0
M  V30 26951 H 2564.04 -2.49839 -3.18375 0
M  V30 26952 H 2562.61 -1.54337 -2.71844 0
M  V30 26953 H 2561.83 -3.67175 -1.43443 0
M  V30 26954 H 2563.12 -4.54905 -2.279 0
M  V30 26955 H 2562.51 -2.78313 -4.92502 0
M  V30 26956 H 2561.07 -3.53575 -5.47566 0
M  V30 26957 N 2564.5 0.312142 -1.54478 0
M  V30 26958 C 2565.41 1.40737 -1.87697 0
M  V30 26959 C 2566.43 1.56035 -0.770002 0
M  V30 26960 O 2567.61 1.70913 -1.0654 0
M  V30 26961 C 2564.67 2.75283 -2.1076 0
M  V30 26962 C 2563.73 2.69065 -3.34519 0
M  V30 26963 C 2562.96 3.97194 -3.56472 0
M  V30 26964 O 2563.19 4.96016 -2.81646 0
M  V30 26965 O 2562.12 3.99762 -4.49971 0
M  V30 26966 H 2565.95 1.15569 -2.80851 0
M  V30 26967 H 2563.53 0.507203 -1.40527 0
M  V30 26968 H 2565.41 3.54909 -2.27194 0
M  V30 26969 H 2564.09 3.00318 -1.20793 0
M  V30 26970 H 2563 1.8795 -3.23459 0
M  V30 26971 H 2564.33 2.48984 -4.24579 0
M  V30 26972 N 2565.98 1.46745 0.574784 0
M  V30 26973 C 2567.21 1.55823 1.35657 0
M  V30 26974 C 2567.62 0.201069 1.88129 0
M  V30 26975 O 2566.96 -0.813105 1.64725 0
M  V30 26976 C 2567.02 2.50898 2.57469 0
M  V30 26977 C 2566.69 3.96974 2.26408 0
M  V30 26978 C 2567.69 4.85962 1.84763 0
M  V30 26979 C 2565.37 4.4217 2.38309 0
M  V30 26980 C 2567.36 6.18161 1.55423 0
M  V30 26981 C 2565.05 5.74401 2.08581 0
M  V30 26982 C 2566.05 6.62217 1.67204 0
M  V30 26983 O 2565.74 7.91994 1.37845 0
M  V30 26984 H 2565.47 0.529308 0.420487 0
M  V30 26985 H 2568.02 1.92924 0.704933 0
M  V30 26986 H 2566.25 2.0883 3.25464 0
M  V30 26987 H 2567.94 2.50296 3.19541 0
M  V30 26988 H 2568.71 4.52298 1.75077 0
M  V30 26989 H 2564.59 3.74037 2.69476 0
M  V30 26990 H 2568.13 6.86661 1.23053 0
M  V30 26991 H 2564.03 6.07612 2.17894 0
M  V30 26992 H 2564.8 8.04334 1.51624 0
M  V30 26993 N 2567.46 -0.820078 1.34583 0
M  V30 26994 C 2568.71 -1.57334 1.26848 0
M  V30 26995 C 2569.03 -1.94337 -0.160633 0
M  V30 26996 O 2568.3 -1.62512 -1.09393 0
M  V30 26997 H 2566.88 -0.583407 0.466525 0
M  V30 26998 H 2569.54 -0.978998 1.68528 0
M  V30 26999 H 2568.64 -2.49487 1.87517 0
M  V30 27000 N 2568.94 -1.18359 -1.04062 0
M  V30 27001 C 2570.17 -1.00387 -1.80915 0
M  V30 27002 C 2570.58 0.447706 -1.83415 0
M  V30 27003 O 2569.94 1.31097 -1.26964 0
M  V30 27004 C 2569.99 -1.55149 -3.26513 0
M  V30 27005 O 2569.71 -2.94624 -3.24235 0
M  V30 27006 C 2571.21 -1.41796 -4.2001 0
M  V30 27007 H 2568.43 -0.354484 -0.569721 0
M  V30 27008 H 2570.97 -1.56909 -1.31149 0
M  V30 27009 H 2569.13 -1.02804 -3.7351 0
M  V30 27010 H 2569.54 -3.20164 -4.15446 0
M  V30 27011 H 2571.02 -1.84911 -5.20108 0
M  V30 27012 H 2571.49 -0.366687 -4.37667 0
M  V30 27013 H 2572.1 -1.93214 -3.78878 0
M  V30 27014 N 2570.42 1.22976 -0.98563 0
M  V30 27015 C 2571.35 2.2394 -0.488194 0
M  V30 27016 C 2572.36 1.5748 0.412792 0
M  V30 27017 O 2573.55 1.77187 0.21609 0
M  V30 27018 C 2570.65 3.37456 0.312552 0
M  V30 27019 C 2569.82 4.335 -0.582818 0
M  V30 27020 C 2568.88 5.25941 0.164972 0
M  V30 27021 O 2567.91 5.67441 -0.447177 0
M  V30 27022 N 2569.11 5.62114 1.44943 0
M  V30 27023 H 2571.87 2.67251 -1.35635 0
M  V30 27024 H 2569.44 1.37201 -0.859501 0
M  V30 27025 H 2571.43 3.96279 0.821287 0
M  V30 27026 H 2570 2.93286 1.08175 0
M  V30 27027 H 2569.22 3.73103 -1.27232 0
M  V30 27028 H 2570.51 4.9462 -1.19284 0
M  V30 27029 H 2569.9 5.30356 1.96821 0
M  V30 27030 H 2568.46 6.23386 1.9035 0
M  V30 27031 N 2571.89 0.757924 1.38178 0
M  V30 27032 C 2573.14 0.315396 1.99624 0
M  V30 27033 C 2573.46 -1.10796 1.60465 0
M  V30 27034 O 2572.73 -1.7584 0.863538 0
M  V30 27035 H 2571.31 0.113624 0.738308 0
M  V30 27036 H 2573.97 0.972982 1.68876 0
M  V30 27037 H 2573.07 0.381986 3.09754 0
M  V30 27038 N 2573.37 -1.4921 0.507345 0
M  V30 27039 C 2574.61 -2.04373 -0.0332012 0
M  V30 27040 C 2574.98 -1.37806 -1.33692 0
M  V30 27041 O 2576.18 -1.83726 -1.9621 0
M  V30 27042 C 2574.45 -3.56967 -0.175927 0
M  V30 27043 S 2576.01 -4.33658 -0.669806 0
M  V30 27044 H 2572.83 -0.710999 0.00124853 0
M  V30 27045 H 2575.43 -1.8319 0.682757 0
M  V30 27046 H 2574.13 -4.02956 0.778124 0
M  V30 27047 H 2573.66 -3.82565 -0.916938 0
M  V30 27048 H 2575.68 -4.5679 -1.93798 0
M  V30 27049 N 2574.85 -0.241454 -1.55739 0
M  V30 27050 C 2575.78 0.693053 -2.18471 0
M  V30 27051 C 2576.8 1.14284 -1.15944 0
M  V30 27052 O 2577.98 1.07055 -1.42834 0
M  V30 27053 C 2575.08 1.95306 -2.76963 0
M  V30 27054 C 2574.26 1.65561 -4.04856 0
M  V30 27055 C 2573.32 2.76467 -4.47719 0
M  V30 27056 O 2572.34 2.44085 -5.14209 0
M  V30 27057 N 2573.54 4.05848 -4.15051 0
M  V30 27058 H 2576.31 0.156335 -2.99292 0
M  V30 27059 H 2573.87 -0.0612036 -1.61784 0
M  V30 27060 H 2575.86 2.6873 -3.02599 0
M  V30 27061 H 2574.43 2.39972 -2.00331 0
M  V30 27062 H 2573.65 0.756818 -3.86867 0
M  V30 27063 H 2574.94 1.43145 -4.88249 0
M  V30 27064 H 2574.34 4.34992 -3.61661 0
M  V30 27065 H 2572.9 4.75754 -4.45535 0
M  V30 27066 N 2576.33 1.57568 0.0317248 0
M  V30 27067 C 2577.57 1.89431 0.724142 0
M  V30 27068 C 2577.91 0.838867 1.75148 0
M  V30 27069 O 2577.18 -0.146388 1.93948 0
M  V30 27070 C 2577.47 3.31936 1.3961 0
M  V30 27071 C 2577.32 4.48171 0.382458 0
M  V30 27072 C 2578.64 3.73313 2.33078 0
M  V30 27073 H 2575.76 0.68894 0.261785 0
M  V30 27074 H 2578.4 1.89996 -0.0130504 0
M  V30 27075 H 2576.55 3.31585 2.02445 0
M  V30 27076 H 2578.22 4.60655 -0.24377 0
M  V30 27077 H 2576.46 4.32772 -0.298516 0
M  V30 27078 H 2577.13 5.44761 0.891049 0
M  V30 27079 H 2579.61 3.75014 1.80289 0
M  V30 27080 H 2578.49 4.73836 2.77076 0
M  V30 27081 H 2578.75 3.05425 3.19637 0
M  V30 27082 O 2577.85 -0.174619 1.60553 0
M  V30 27083 H 2578.54 -0.811588 1.75878 0
M  V30 END ATOM
M  V30 BEGIN BOND
M  V30 END BOND
M  V30 END CTAB
M  END
$$$$
