drugbank_target|P0C0T5 Penicillin-insensitive murein endopeptidase (DB01955)
 OpenBabel12092120033D

  0  0  0     0  0            999 V3000
M  V30 BEGIN CTAB
M  V30 COUNTS 4243 4298 0 0 0
M  V30 BEGIN ATOM
M  V30 1 H -0.908 1.98254 -0.117106 0
M  V30 2 N 0 1.576 0 0
M  V30 3 C 0.933 2.03868 1.02534 0
M  V30 4 C 1.911 0.928543 1.3348 0
M  V30 5 O 3.095 1.19667 1.45644 0
M  V30 6 C 0.222 2.43627 2.35294 0
M  V30 7 C -0.732 3.65373 2.2001 0
M  V30 8 S 0.101 5.13292 1.52614 0
M  V30 9 C 1.257 5.56322 2.86805 0
M  V30 10 H 1.49 2.90518 0.631377 0
M  V30 11 H -0.977 1.52953 0.210867 0
M  V30 12 H 0.981 2.67203 3.11629 0
M  V30 13 H -0.358 1.57376 2.7183 0
M  V30 14 H -1.165 3.90944 3.18086 0
M  V30 15 H -1.563 3.418 1.51819 0
M  V30 16 H 0.729 5.58782 3.83104 0
M  V30 17 H 1.672 6.56266 2.65933 0
M  V30 18 H 2.08 4.83886 2.90714 0
M  V30 19 N 1.4781 -0.272755 1.55222 0
M  V30 20 C 2.4261 -1.35705 1.88909 0
M  V30 21 C 3.4201 -1.5112 0.765456 0
M  V30 22 O 4.6261 -1.52901 0.949802 0
M  V30 23 H 1.0011 -0.453868 0.59959 0
M  V30 24 H 2.9721 -1.04544 2.79487 0
M  V30 25 C 1.7211 -2.71049 2.17779 0
M  V30 26 H 1.0441 -2.59979 3.03728 0
M  V30 27 H 2.4841 -3.45858 2.45272 0
M  V30 28 C 0.9431 -3.22165 0.985473 0
M  V30 29 O 1.4731 -4.01096 0.220233 0
M  V30 30 N -0.3209 -2.7985 0.783108 0
M  V30 31 H -0.7739 -2.15775 1.40708 0
M  V30 32 H -0.8159 -3.14397 -0.0130392 0
M  V30 33 N 2.9562 -1.48159 -0.537278 0
M  V30 34 C 3.9032 -1.62138 -1.64256 0
M  V30 35 C 4.8732 -0.463668 -1.59497 0
M  V30 36 O 6.0582 -0.686241 -1.78032 0
M  V30 37 C 3.1982 -1.66028 -3.02537 0
M  V30 38 C 2.3112 -2.92855 -3.17585 0
M  V30 39 C 1.4462 -2.87952 -4.46382 0
M  V30 40 C 0.4852 -4.09516 -4.54932 0
M  V30 41 N -0.3778 -4.02733 -5.75109 0
M  V30 42 H 4.4622 -2.56529 -1.51647 0
M  V30 43 H 1.9992 -1.27224 -0.738414 0
M  V30 44 H 3.9572 -1.66265 -3.82638 0
M  V30 45 H 2.5872 -0.751331 -3.13934 0
M  V30 46 H 1.6392 -3.02395 -2.30784 0
M  V30 47 H 2.9512 -3.82822 -3.19764 0
M  V30 48 H 2.1052 -2.8655 -5.34765 0
M  V30 49 H 0.8442 -1.95702 -4.46712 0
M  V30 50 H -0.1508 -4.11201 -3.64957 0
M  V30 51 H 1.0742 -5.02917 -4.56346 0
M  V30 52 H -0.9798 -3.13299 -5.76351 0
M  V30 53 H -1.0628 -4.86397 -5.78752 0
M  V30 54 H 0.2052 -4.05379 -6.65799 0
M  V30 55 N 4.4343 0.785586 -1.36625 0
M  V30 56 C 5.6623 1.57448 -1.3423 0
M  V30 57 C 6.0773 1.88649 0.0755653 0
M  V30 58 O 5.4343 1.50414 1.03354 0
M  V30 59 C 5.4853 2.89316 -2.16745 0
M  V30 60 O 5.2063 2.59459 -3.53005 0
M  V30 61 C 6.7073 3.83606 -2.22174 0
M  V30 62 H 3.9273 0.488226 -0.4603 0
M  V30 63 H 6.4713 0.974733 -1.79775 0
M  V30 64 H 4.6263 3.4575 -1.74745 0
M  V30 65 H 5.0403 3.43804 -3.96105 0
M  V30 66 H 6.5143 4.73181 -2.8426 0
M  V30 67 H 6.9913 4.21734 -1.22627 0
M  V30 68 H 7.5973 3.33104 -2.64427 0
M  V30 69 N 5.9124 1.20967 1.01018 0
M  V30 70 C 6.8754 0.965918 2.07853 0
M  V30 71 C 7.8754 -0.0610545 1.60684 0
M  V30 72 O 9.0654 0.175681 1.73312 0
M  V30 73 C 6.1974 0.455513 3.37843 0
M  V30 74 H 7.3904 1.91365 2.3091 0
M  V30 75 H 4.9434 1.02594 1.17916 0
M  V30 76 H 5.6784 -0.497381 3.20463 0
M  V30 77 H 5.4634 1.19622 3.73407 0
M  V30 78 H 6.9534 0.304667 4.16487 0
M  V30 79 N 7.3905 -1.2043 1.01659 0
M  V30 80 C 8.6395 -1.89118 0.701237 0
M  V30 81 C 8.9525 -1.79705 -0.772358 0
M  V30 82 O 10.1585 -2.43528 -1.20026 0
M  V30 83 C 8.6145 -3.39168 1.20388 0
M  V30 84 C 8.2225 -3.57166 2.70438 0
M  V30 85 C 9.9665 -4.1341 0.963953 0
M  V30 86 C 7.8735 -5.01042 3.14183 0
M  V30 87 H 6.8035 -0.708267 0.2586 0
M  V30 88 H 9.4545 -1.36239 1.22927 0
M  V30 89 H 7.8365 -3.91369 0.603824 0
M  V30 90 H 9.0105 -3.15351 3.35992 0
M  V30 91 H 7.3255 -2.96294 2.92572 0
M  V30 92 H 9.9225 -5.19491 1.26621 0
M  V30 93 H 10.2655 -4.16181 -0.099578 0
M  V30 94 H 10.7985 -3.67309 1.52738 0
M  V30 95 H 7.5375 -5.03426 4.19812 0
M  V30 96 H 7.0575 -5.43668 2.53348 0
M  V30 97 H 8.7365 -5.69623 3.0682 0
M  V30 98 N 8.8686 -0.792821 -1.36206 0
M  V30 99 C 9.8316 -0.199459 -2.2833 0
M  V30 100 C 10.8316 0.605189 -1.48977 0
M  V30 101 O 12.0216 0.425685 -1.68919 0
M  V30 102 C 9.1536 0.723523 -3.33134 0
M  V30 103 H 10.3466 -1.01181 -2.82316 0
M  V30 104 H 7.8996 -0.562485 -1.45828 0
M  V30 105 H 8.6346 1.56008 -2.84309 0
M  V30 106 H 8.4196 0.148436 -3.91819 0
M  V30 107 H 9.9096 1.13344 -4.01924 0
M  V30 108 N 10.3467 1.47872 -0.545128 0
M  V30 109 C 11.2767 2.32661 0.197793 0
M  V30 110 C 12.2577 1.43041 0.920504 0
M  V30 111 O 13.4427 1.71912 0.90333 0
M  V30 112 C 10.5727 3.24569 1.23582 0
M  V30 113 C 9.5267 4.23333 0.630323 0
M  V30 114 C 8.8527 5.0448 1.77211 0
M  V30 115 C 10.1527 5.20704 -0.407974 0
M  V30 116 H 11.8467 2.95024 -0.510045 0
M  V30 117 H 9.3927 1.4187 -0.246731 0
M  V30 118 H 11.3457 3.8272 1.76362 0
M  V30 119 H 10.0697 2.60236 1.97344 0
M  V30 120 H 8.7287 3.6639 0.123922 0
M  V30 121 H 8.3767 4.36561 2.49847 0
M  V30 122 H 8.0767 5.71339 1.37281 0
M  V30 123 H 9.6007 5.65487 2.3034 0
M  V30 124 H 11.0147 5.7329 0.033305 0
M  V30 125 H 9.4117 5.95699 -0.725486 0
M  V30 126 H 10.4817 4.66917 -1.30828 0
M  V30 127 N 11.8248 0.280983 1.55075 0
M  V30 128 C 12.7548 -0.597469 2.25727 0
M  V30 129 C 13.7358 -1.15417 1.24952 0
M  V30 130 O 14.9208 -1.18722 1.53684 0
M  V30 131 C 12.0508 -1.7789 2.98283 0
M  V30 132 C 11.0048 -1.35347 4.06036 0
M  V30 133 C 10.3308 -2.61846 4.66198 0
M  V30 134 C 11.6308 -0.499354 5.19907 0
M  V30 135 H 13.3248 -0.00824265 2.99399 0
M  V30 136 H 10.8708 -0.0025244 1.44 0
M  V30 137 H 12.8238 -2.39937 3.46422 0
M  V30 138 H 11.5478 -2.39405 2.22155 0
M  V30 139 H 10.2068 -0.756156 3.58717 0
M  V30 140 H 9.8548 -3.21632 3.86732 0
M  V30 141 H 9.5548 -2.3409 5.38958 0
M  V30 142 H 11.0788 -3.24732 5.1709 0
M  V30 143 H 12.4928 -1.02498 5.64063 0
M  V30 144 H 10.8898 -0.316424 5.99265 0
M  V30 145 H 11.9598 0.480459 4.82514 0
M  V30 146 N 13.3029 -1.57598 0.00835791 0
M  V30 147 C 14.2659 -2.07884 -0.965242 0
M  V30 148 C 15.2659 -0.989825 -1.26725 0
M  V30 149 O 16.4559 -1.25218 -1.21104 0
M  V30 150 C 13.5879 -2.52731 -2.28779 0
M  V30 151 H 14.7809 -2.95178 -0.530112 0
M  V30 152 H 12.3339 -1.54458 -0.239283 0
M  V30 153 H 13.0689 -1.68705 -2.76964 0
M  V30 154 H 12.8539 -3.32272 -2.08177 0
M  V30 155 H 14.3439 -2.91933 -2.98605 0
M  V30 156 N 14.781 0.264519 -1.55364 0
M  V30 157 C 15.711 1.33121 -1.91836 0
M  V30 158 C 16.692 1.51101 -0.781192 0
M  V30 159 O 17.877 1.64003 -1.04003 0
M  V30 160 C 15.007 2.68921 -2.19769 0
M  V30 161 C 13.961 2.65661 -3.35571 0
M  V30 162 C 13.287 4.05093 -3.49004 0
M  V30 163 C 14.587 2.24187 -4.71739 0
M  V30 164 H 16.281 1.02844 -2.81182 0
M  V30 165 H 13.827 0.493286 -1.35287 0
M  V30 166 H 15.78 3.43663 -2.43872 0
M  V30 167 H 14.504 3.00799 -1.27231 0
M  V30 168 H 13.163 1.93377 -3.1145 0
M  V30 169 H 12.811 4.34206 -2.53917 0
M  V30 170 H 12.511 4.03804 -4.26868 0
M  V30 171 H 14.035 4.81561 -3.75408 0
M  V30 172 H 15.449 2.88654 -4.9533 0
M  V30 173 H 13.846 2.34044 -5.52579 0
M  V30 174 H 14.916 1.19327 -4.69988 0
M  V30 175 N 16.2591 1.48442 0.529413 0
M  V30 176 C 17.1891 1.65902 1.64313 0
M  V30 177 C 18.1701 0.507897 1.6234 0
M  V30 178 O 19.3551 0.740503 1.79528 0
M  V30 179 C 16.4851 1.69911 3.02898 0
M  V30 180 C 15.4391 2.8453 3.19729 0
M  V30 181 C 14.7651 2.73629 4.59381 0
M  V30 182 C 16.0651 4.25821 3.02447 0
M  V30 183 H 17.7591 2.5914 1.49955 0
M  V30 184 H 15.3051 1.24709 0.719982 0
M  V30 185 H 17.2581 1.80715 3.80684 0
M  V30 186 H 15.9821 0.732524 3.18279 0
M  V30 187 H 14.6411 2.73283 2.44361 0
M  V30 188 H 14.2891 1.74938 4.71599 0
M  V30 189 H 13.9891 3.50541 4.71588 0
M  V30 190 H 15.5131 2.86401 5.39265 0
M  V30 191 H 16.9271 4.37898 3.70024 0
M  V30 192 H 15.3241 5.03735 3.26146 0
M  V30 193 H 16.3941 4.42244 1.98867 0
M  V30 194 N 17.7372 -0.778329 1.37039 0
M  V30 195 C 18.7002 -1.87301 1.32102 0
M  V30 196 C 19.7002 -1.59198 0.226405 0
M  V30 197 O 20.8902 -1.67403 0.481861 0
M  V30 198 C 18.0222 -3.24309 1.05055 0
M  V30 199 H 19.2152 -1.93093 2.29467 0
M  V30 200 H 16.7682 -0.977358 1.21973 0
M  V30 201 H 17.5032 -3.24196 0.0819373 0
M  V30 202 H 17.2882 -3.46098 1.84279 0
M  V30 203 H 18.7782 -4.04382 1.04234 0
M  V30 204 N 19.2153 -1.21501 -1.00376 0
M  V30 205 C 20.4403 -1.05977 -1.78279 0
M  V30 206 C 20.8653 0.385994 -1.84097 0
M  V30 207 O 20.2233 1.27849 -1.28547 0
M  V30 208 C 20.2713 -1.66302 -3.19963 0
M  V30 209 O 19.3753 -0.909333 -4.0225 0
M  V30 210 H 18.7163 -0.372906 -0.549397 0
M  V30 211 H 21.2463 -1.6107 -1.26165 0
M  V30 212 H 21.2563 -1.70574 -3.70632 0
M  V30 213 H 19.9313 -2.71515 -3.15043 0
M  V30 214 H 18.5083 -0.941795 -3.60811 0
M  V30 215 N 20.6934 1.19889 -1.02296 0
M  V30 216 C 21.9184 1.9393 -0.735237 0
M  V30 217 C 22.3434 1.74639 0.698782 0
M  V30 218 O 21.7014 1.04481 1.48167 0
M  V30 219 C 21.7494 3.43916 -1.08417 0
M  V30 220 O 20.8534 4.11917 -0.199446 0
M  V30 221 H 20.1944 0.605645 -0.272196 0
M  V30 222 H 22.7244 1.52137 -1.36804 0
M  V30 223 H 22.7344 3.9456 -1.03856 0
M  V30 224 H 21.4094 3.5728 -2.12894 0
M  V30 225 H 19.9864 3.71666 -0.303136 0
M  V30 226 N 22.1715 0.800033 1.35784 0
M  V30 227 C 23.1345 0.211565 2.28221 0
M  V30 228 C 24.1345 -0.59728 1.49296 0
M  V30 229 O 25.3245 -0.416721 1.69142 0
M  V30 230 C 22.4565 -0.705846 3.33513 0
M  V30 231 H 23.6495 1.02677 2.81776 0
M  V30 232 H 21.2025 0.570211 1.45528 0
M  V30 233 H 21.9375 -1.54498 2.85133 0
M  V30 234 H 21.7225 -0.127655 3.91892 0
M  V30 235 H 23.2125 -1.11211 4.02519 0
M  V30 236 N 23.6496 -1.47581 0.552962 0
M  V30 237 C 24.8746 -2.07378 0.0300593 0
M  V30 238 C 25.2996 -1.40355 -1.25229 0
M  V30 239 O 24.6576 -0.477099 -1.7491 0
M  V30 240 C 24.7056 -3.60274 -0.153231 0
M  V30 241 O 23.8096 -3.94041 -1.21678 0
M  V30 242 H 23.1506 -0.662158 0.0494182 0
M  V30 243 H 25.6806 -1.89662 0.767434 0
M  V30 244 H 25.6906 -4.0633 -0.368761 0
M  V30 245 H 24.3656 -4.08455 0.783397 0
M  V30 246 H 22.9426 -3.59735 -0.982079 0
M  V30 247 N 25.1277 -0.289203 -1.54924 0
M  V30 248 C 26.0577 0.58549 -2.2604 0
M  V30 249 C 27.0387 1.14753 -1.25562 0
M  V30 250 O 28.2237 1.17906 -1.54311 0
M  V30 251 C 25.3537 1.76305 -2.99222 0
M  V30 252 C 24.3077 1.33191 -4.06748 0
M  V30 253 C 23.6337 2.5937 -4.6758 0
M  V30 254 C 24.9337 0.471775 -5.20165 0
M  V30 255 H 26.6277 -0.00763532 -2.99399 0
M  V30 256 H 24.1737 -0.00511229 -1.43999 0
M  V30 257 H 26.1267 2.38097 -3.47689 0
M  V30 258 H 24.8507 2.38223 -2.23422 0
M  V30 259 H 23.5097 0.737121 -3.59113 0
M  V30 260 H 23.1577 3.19576 -3.88433 0
M  V30 261 H 22.8577 2.31228 -5.40192 0
M  V30 262 H 24.3817 3.21985 -5.18804 0
M  V30 263 H 25.7957 0.995056 -5.64599 0
M  V30 264 H 24.1927 0.284639 -5.99425 0
M  V30 265 H 25.2627 -0.506041 -4.82252 0
M  V30 266 N 26.6058 1.57591 -0.0167156 0
M  V30 267 C 27.5688 2.08393 0.954204 0
M  V30 268 C 28.5688 0.996531 1.26198 0
M  V30 269 O 29.7588 1.25858 1.20438 0
M  V30 270 C 26.8908 2.5394 2.27436 0
M  V30 271 H 28.0838 2.95455 0.514451 0
M  V30 272 H 25.6368 1.54582 0.231089 0
M  V30 273 H 26.3718 1.70171 2.76066 0
M  V30 274 H 26.1568 3.33371 2.06412 0
M  V30 275 H 27.6468 2.93512 2.97053 0
M  V30 276 N 28.0839 -0.256276 1.55502 0
M  V30 277 C 29.0469 -1.30047 1.88734 0
M  V30 278 C 30.0469 -1.4154 0.763086 0
M  V30 279 O 31.2369 -1.40403 1.03115 0
M  V30 280 C 28.3689 -2.67953 2.10747 0
M  V30 281 H 29.5619 -1.01802 2.82093 0
M  V30 282 H 27.1149 -0.495134 1.4825 0
M  V30 283 H 27.8499 -3.01351 1.19825 0
M  V30 284 H 27.6349 -2.60993 2.92617 0
M  V30 285 H 29.1249 -3.43368 2.37673 0
M  V30 286 N 29.562 -1.4872 -0.521534 0
M  V30 287 C 30.79 -1.60843 -1.30142 0
M  V30 288 C 31.205 -0.271897 -1.86832 0
M  V30 289 O 30.562 0.739969 -1.66825 0
M  V30 290 C 30.613 -2.66155 -2.4463 0
M  V30 291 O 30.334 -3.94623 -1.90275 0
M  V30 292 C 31.835 -2.88795 -3.36322 0
M  V30 293 H 29.055 -0.542075 -0.395468 0
M  V30 294 H 31.599 -1.94609 -0.628285 0
M  V30 295 H 29.754 -2.35224 -3.07812 0
M  V30 296 H 30.168 -4.52468 -2.65279 0
M  V30 297 H 31.642 -3.66264 -4.12983 0
M  V30 298 H 32.119 -1.97934 -3.9207 0
M  V30 299 H 32.725 -3.21063 -2.78924 0
M  V30 300 N 31.0401 0.771051 -1.3745 0
M  V30 301 C 32.4511 1.34737 -1.29239 0
M  V30 302 C 32.8021 1.96109 0.0596908 0
M  V30 303 O 31.9271 1.93865 0.961534 0
M  V30 304 C 32.5221 2.44973 -2.34037 0
M  V30 305 C 31.0811 2.98372 -2.29458 0
M  V30 306 C 30.2281 1.71595 -2.17831 0
M  V30 307 H 33.1791 0.571256 -1.48062 0
M  V30 308 H 33.2001 3.24471 -1.98744 0
M  V30 309 H 32.7121 2.00276 -3.32432 0
M  V30 310 H 30.8131 3.47443 -1.34589 0
M  V30 311 H 30.9261 3.53939 -3.229 0
M  V30 312 H 29.2901 1.94547 -1.64388 0
M  V30 313 H 30.0731 1.29001 -3.18141 0
M  V30 314 N 32.5182 1.22032 0.997298 0
M  V30 315 C 33.7642 1.05382 1.73972 0
M  V30 316 C 34.1192 -0.407419 1.88037 0
M  V30 317 O 33.4122 -1.29811 1.40924 0
M  V30 318 C 33.6062 1.69345 3.14733 0
M  V30 319 C 33.4352 3.21537 3.14395 0
M  V30 320 C 32.2052 3.9062 3.20537 0
M  V30 321 C 34.4032 4.18527 2.98897 0
M  V30 322 N 32.3852 5.29935 3.09906 0
M  V30 323 C 33.7562 5.44645 2.96247 0
M  V30 324 C 35.8112 4.09476 2.83255 0
M  V30 325 C 34.5142 6.62752 2.79557 0
M  V30 326 C 36.5402 5.27228 2.67926 0
M  V30 327 C 35.9022 6.52262 2.65959 0
M  V30 328 H 32.0012 0.440018 0.646458 0
M  V30 329 H 34.5852 1.54505 1.18475 0
M  V30 330 H 32.7562 1.22778 3.68484 0
M  V30 331 H 34.4882 1.45828 3.77513 0
M  V30 332 H 31.2432 3.41592 3.28043 0
M  V30 333 H 31.6672 6.02926 3.07912 0
M  V30 334 H 36.3092 3.13598 2.83577 0
M  V30 335 H 34.0272 7.58783 2.77982 0
M  V30 336 H 37.6132 5.22053 2.56812 0
M  V30 337 H 36.4932 7.41844 2.54239 0
M  V30 338 N 33.9963 -1.19345 1.0293 0
M  V30 339 C 34.9283 -2.22036 0.56857 0
M  V30 340 C 35.9413 -1.58865 -0.355779 0
M  V30 341 O 37.1303 -1.77851 -0.152103 0
M  V30 342 C 34.2303 -3.38363 -0.190752 0
M  V30 343 C 33.4033 -4.31118 0.738643 0
M  V30 344 C 32.4623 -5.26194 0.0246497 0
M  V30 345 O 31.4883 -5.65461 0.651354 0
M  V30 346 N 32.6903 -5.66971 -1.24594 0
M  V30 347 H 35.4553 -2.6219 1.45177 0
M  V30 348 H 33.0163 -1.34015 0.908381 0
M  V30 349 H 35.0083 -3.98981 -0.677961 0
M  V30 350 H 33.5783 -2.96994 -0.975366 0
M  V30 351 H 32.7983 -3.68276 1.40593 0
M  V30 352 H 34.0863 -4.90001 1.37029 0
M  V30 353 H 33.4843 -5.37104 -1.77583 0
M  V30 354 H 32.0413 -6.2984 -1.67764 0
M  V30 355 N 35.4744 -0.807222 -1.35358 0
M  V30 356 C 36.4214 -0.216037 -2.29787 0
M  V30 357 C 37.3914 0.650278 -1.52842 0
M  V30 358 O 38.5764 0.595227 -1.81278 0
M  V30 359 C 35.7164 0.628893 -3.39321 0
M  V30 360 C 34.8294 -0.257927 -4.31229 0
M  V30 361 C 33.9644 0.595069 -5.27856 0
M  V30 362 C 33.0034 -0.292111 -6.11403 0
M  V30 363 N 32.1404 0.520895 -7.00165 0
M  V30 364 H 36.9804 -1.02671 -2.79755 0
M  V30 365 H 34.5174 -0.517839 -1.37684 0
M  V30 366 H 36.4754 1.13393 -4.01494 0
M  V30 367 H 35.1054 1.40482 -2.90628 0
M  V30 368 H 34.1574 -0.881076 -3.70056 0
M  V30 369 H 35.4694 -0.940759 -4.89848 0
M  V30 370 H 34.6234 1.16522 -5.95405 0
M  V30 371 H 33.3624 1.31146 -4.69736 0
M  V30 372 H 32.3674 -0.874525 -5.428 0
M  V30 373 H 33.5924 -1.00638 -6.71602 0
M  V30 374 H 31.5384 1.22125 -6.44532 0
M  V30 375 H 31.4554 -0.103877 -7.55929 0
M  V30 376 H 32.7234 1.0743 -7.72062 0
M  V30 377 N 36.9525 1.47285 -0.560781 0
M  V30 378 C 38.2015 2.01668 -0.035895 0
M  V30 379 C 38.5145 1.44021 1.32353 0
M  V30 380 O 39.7205 1.90088 1.93853 0
M  V30 381 C 38.1765 3.59897 -0.0136659 0
M  V30 382 C 37.7845 4.26536 -1.37006 0
M  V30 383 C 39.5285 4.22017 0.458425 0
M  V30 384 C 37.4355 5.76782 -1.30675 0
M  V30 385 H 36.3655 0.753938 -0.00964879 0
M  V30 386 H 39.0165 1.69243 -0.709166 0
M  V30 387 H 37.3985 3.89301 0.725325 0
M  V30 388 H 38.5725 4.0877 -2.12705 0
M  V30 389 H 36.8875 3.76419 -1.78038 0
M  V30 390 H 39.4845 5.32124 0.524247 0
M  V30 391 H 39.8275 3.89437 1.4712 0
M  V30 392 H 40.3605 3.97159 -0.225818 0
M  V30 393 H 37.0995 6.13988 -2.29564 0
M  V30 394 H 36.6195 5.96875 -0.591622 0
M  V30 395 H 38.2985 6.39063 -1.01033 0
M  V30 396 N 38.4306 0.297415 1.54768 0
M  V30 397 C 39.6586 -0.315623 2.04478 0
M  V30 398 C 40.0736 -1.47792 1.17486 0
M  V30 399 O 39.4306 -1.81404 0.19971 0
M  V30 400 C 39.4816 -0.7753 3.53088 0
M  V30 401 O 39.2026 0.340732 4.36773 0
M  V30 402 C 40.7036 -1.45386 4.18781 0
M  V30 403 H 37.9236 -0.0690887 0.667434 0
M  V30 404 H 40.4676 0.436003 1.99798 0
M  V30 405 H 38.6226 -1.47696 3.58141 0
M  V30 406 H 39.0366 -0.0165035 5.24497 0
M  V30 407 H 40.5106 -1.72669 5.24299 0
M  V30 408 H 40.9876 -2.39275 3.68299 0
M  V30 409 H 41.5936 -0.795475 4.17795 0
M  V30 410 N 39.9087 -1.5758 0.0250728 0
M  V30 411 C 40.8407 -2.06869 -0.986796 0
M  V30 412 C 41.8537 -0.991332 -1.29137 0
M  V30 413 O 43.0427 -1.26761 -1.25674 0
M  V30 414 C 40.1427 -2.47486 -2.31525 0
M  V30 415 C 39.3157 -3.78253 -2.19643 0
M  V30 416 C 38.3747 -4.05464 -3.35388 0
M  V30 417 O 37.4007 -4.75774 -3.12454 0
M  V30 418 N 38.6027 -3.55321 -4.59051 0
M  V30 419 H 41.3677 -2.94302 -0.566276 0
M  V30 420 H 38.9287 -1.6109 -0.161776 0
M  V30 421 H 40.9207 -2.62785 -3.07776 0
M  V30 422 H 39.4907 -1.65441 -2.65232 0
M  V30 423 H 38.7107 -3.7279 -1.28144 0
M  V30 424 H 39.9987 -4.63936 -2.08903 0
M  V30 425 H 39.3967 -2.98431 -4.80578 0
M  V30 426 H 37.9537 -3.75905 -5.32483 0
M  V30 427 N 41.3868 0.248026 -1.55636 0
M  V30 428 C 42.7978 0.817177 -1.67866 0
M  V30 429 C 43.1488 1.86069 -0.622322 0
M  V30 430 O 42.2738 2.15157 0.231618 0
M  V30 431 C 42.8688 1.489 -3.04326 0
M  V30 432 C 41.4278 2.00587 -3.185 0
M  V30 433 C 40.5748 0.856573 -2.63739 0
M  V30 434 H 43.5258 0.0238579 -1.58682 0
M  V30 435 H 43.5468 2.35698 -2.98708 0
M  V30 436 H 43.0588 0.729279 -3.81186 0
M  V30 437 H 41.1598 2.79443 -2.4646 0
M  V30 438 H 41.2728 2.20402 -4.25393 0
M  V30 439 H 39.6368 1.25678 -2.21534 0
M  V30 440 H 40.4198 0.109953 -3.43124 0
M  V30 441 N 42.8649 1.48995 0.513639 0
M  V30 442 C 44.1109 1.58076 1.27042 0
M  V30 443 C 44.4439 0.261026 1.92438 0
M  V30 444 O 43.7189 -0.734393 1.80103 0
M  V30 445 C 44.0019 2.73091 2.34719 0
M  V30 446 C 43.8549 4.14821 1.73907 0
M  V30 447 C 45.1739 2.83796 3.36375 0
M  V30 448 H 42.2929 0.575391 0.460536 0
M  V30 449 H 44.9349 1.81232 0.570516 0
M  V30 450 H 43.0849 2.53479 2.94416 0
M  V30 451 H 44.7569 4.45917 1.18135 0
M  V30 452 H 42.9999 4.21058 1.0437 0
M  V30 453 H 43.6709 4.91147 2.51949 0
M  V30 454 H 46.1469 3.01611 2.86653 0
M  V30 455 H 45.0229 3.65971 4.09093 0
M  V30 456 H 45.2839 1.92624 3.9793 0
M  V30 457 N 44.343 -0.763751 1.37857 0
M  V30 458 C 45.754 -1.3405 1.29952 0
M  V30 459 C 46.105 -1.96138 -0.0492898 0
M  V30 460 O 45.23 -1.94372 -0.951239 0
M  V30 461 C 45.825 -2.43729 2.35333 0
M  V30 462 C 44.384 -2.97151 2.31037 0
M  V30 463 C 43.531 -1.70438 2.18738 0
M  V30 464 H 46.482 -0.563396 1.48363 0
M  V30 465 H 46.503 -3.23412 2.00462 0
M  V30 466 H 46.015 -1.9851 3.33489 0
M  V30 467 H 44.116 -3.46724 1.3643 0
M  V30 468 H 44.229 -3.52221 3.24772 0
M  V30 469 H 42.593 -1.93673 1.65418 0
M  V30 470 H 43.376 -1.27312 3.18821 0
M  V30 471 N 45.8211 -1.22559 -0.990812 0
M  V30 472 C 47.0691 -1.04933 -1.72724 0
M  V30 473 C 47.3901 0.416158 -1.90508 0
M  V30 474 O 46.6601 1.29918 -1.46622 0
M  V30 475 H 45.2401 -0.385296 -0.639965 0
M  V30 476 H 47.9021 -1.54105 -1.19322 0
M  V30 477 H 46.9981 -1.52886 -2.72089 0
M  V30 478 N 47.2992 1.18797 -1.03562 0
M  V30 479 C 48.5242 1.9314 -0.755764 0
M  V30 480 C 48.9492 1.7537 0.68022 0
M  V30 481 O 48.3072 1.06046 1.47051 0
M  V30 482 C 48.3552 3.42747 -1.12058 0
M  V30 483 O 47.4592 4.11683 -0.243124 0
M  V30 484 H 46.8002 0.602724 -0.278604 0
M  V30 485 H 49.3302 1.50678 -1.3841 0
M  V30 486 H 49.3402 3.93437 -1.08035 0
M  V30 487 H 48.0152 3.55002 -2.16672 0
M  V30 488 H 46.5922 3.71323 -0.342539 0
M  V30 489 N 48.7773 0.814389 1.34928 0
M  V30 490 C 49.7403 0.235759 2.27984 0
M  V30 491 C 50.7403 -0.581412 1.49921 0
M  V30 492 O 51.9303 -0.398758 1.69575 0
M  V30 493 C 49.0623 -0.670433 3.34242 0
M  V30 494 H 50.2553 1.05659 2.80671 0
M  V30 495 H 47.8083 0.585614 1.44915 0
M  V30 496 H 48.5433 -1.51466 2.86755 0
M  V30 497 H 48.3283 -0.0860822 3.92005 0
M  V30 498 H 49.8183 -1.06935 4.03676 0
M  V30 499 N 50.2554 -1.46986 0.568584 0
M  V30 500 C 51.1874 -2.28233 -0.210337 0
M  V30 501 C 52.2004 -1.37682 -0.868767 0
M  V30 502 O 53.3894 -1.62406 -0.740705 0
M  V30 503 C 50.4894 -3.12293 -1.3163 0
M  V30 504 C 49.6624 -4.30878 -0.7525 0
M  V30 505 C 48.7214 -4.96445 -1.74439 0
M  V30 506 O 47.7474 -5.54482 -1.286 0
M  V30 507 N 48.9494 -4.92171 -3.07812 0
M  V30 508 H 51.7144 -2.95723 0.486648 0
M  V30 509 H 49.2754 -1.56742 0.405409 0
M  V30 510 H 51.2674 -3.53022 -1.97883 0
M  V30 511 H 49.8374 -2.46971 -1.91636 0
M  V30 512 H 49.0574 -3.94104 0.0871128 0
M  V30 513 H 50.3454 -5.07558 -0.35536 0
M  V30 514 H 49.7434 -4.46239 -3.47688 0
M  V30 515 H 48.3004 -5.36884 -3.69592 0
M  V30 516 N 51.7335 -0.305618 -1.54608 0
M  V30 517 C 52.9585 0.307562 -2.05107 0
M  V30 518 C 53.3835 1.46385 -1.18123 0
M  V30 519 O 52.7415 1.8034 -0.186324 0
M  V30 520 C 52.7895 0.73704 -3.52987 0
M  V30 521 O 51.8935 1.84134 -3.6901 0
M  V30 522 H 51.2345 0.0589143 -0.661381 0
M  V30 523 H 53.7645 -0.448807 -1.99617 0
M  V30 524 H 53.7745 1.02459 -3.94925 0
M  V30 525 H 52.4495 -0.108773 -4.15758 0
M  V30 526 H 51.0265 1.55398 -3.38978 0
M  V30 527 N 53.2116 1.57565 -0.0334293 0
M  V30 528 C 54.4606 1.91155 0.643639 0
M  V30 529 C 54.7736 0.91192 1.73042 0
M  V30 530 O 55.9796 1.13923 2.46442 0
M  V30 531 C 54.4356 3.39443 1.1961 0
M  V30 532 C 54.0436 4.47774 0.142381 0
M  V30 533 C 55.7876 3.82094 1.84944 0
M  V30 534 C 53.6946 5.87162 0.706727 0
M  V30 535 H 52.6246 0.713368 0.244176 0
M  V30 536 H 55.2756 1.8323 -0.0994323 0
M  V30 537 H 53.6576 3.42313 1.99092 0
M  V30 538 H 54.8316 4.56469 -0.630296 0
M  V30 539 H 53.1466 4.14352 -0.412446 0
M  V30 540 H 55.7436 4.83591 2.2813 0
M  V30 541 H 56.0866 3.17386 2.69392 0
M  V30 542 H 56.6196 3.81665 1.12145 0
M  V30 543 H 53.3586 6.55424 -0.0997178 0
M  V30 544 H 52.8786 5.82064 1.44779 0
M  V30 545 H 54.5576 6.35866 1.19514 0
M  V30 546 N 54.6897 -0.239769 1.55765 0
M  V30 547 C 55.9377 -0.964892 1.77579 0
M  V30 548 C 56.2587 -1.85582 0.598699 0
M  V30 549 O 55.5287 -1.92075 -0.385226 0
M  V30 550 H 54.1087 -0.359265 0.654933 0
M  V30 551 H 56.7707 -0.256001 1.93211 0
M  V30 552 H 55.8667 -1.58243 2.69009 0
M  V30 553 N 56.1678 -1.49265 -0.50573 0
M  V30 554 C 57.3928 -1.62478 -1.28902 0
M  V30 555 C 57.8178 -0.294332 -1.85783 0
M  V30 556 O 57.1758 0.737412 -1.65626 0
M  V30 557 C 57.2238 -2.69268 -2.39848 0
M  V30 558 O 56.3278 -2.28113 -3.43567 0
M  V30 559 H 55.6688 -0.54399 -0.380751 0
M  V30 560 H 58.1988 -1.95421 -0.605952 0
M  V30 561 H 58.2088 -2.91291 -2.85681 0
M  V30 562 H 56.8838 -3.65846 -1.97812 0
M  V30 563 H 55.4608 -2.16401 -3.03685 0
M  V30 564 N 57.6459 0.756429 -1.3826 0
M  V30 565 C 58.8929 1.51547 -1.34312 0
M  V30 566 C 59.2209 1.94382 0.0677144 0
M  V30 567 O 58.4759 1.65514 1.04421 0
M  V30 568 C 58.7749 2.78313 -2.24224 0
M  V30 569 C 58.4409 2.54455 -3.72241 0
M  V30 570 C 57.1029 2.47657 -4.12576 0
M  V30 571 C 59.4549 2.3354 -4.65949 0
M  V30 572 C 56.7829 2.17956 -5.44713 0
M  V30 573 C 59.1349 2.05359 -5.9834 0
M  V30 574 C 57.7989 1.97016 -6.37762 0
M  V30 575 H 57.0689 0.55455 -0.491482 0
M  V30 576 H 59.7159 0.870039 -1.70595 0
M  V30 577 H 58.0209 3.47492 -1.80987 0
M  V30 578 H 59.7179 3.36259 -2.18474 0
M  V30 579 H 56.3079 2.60616 -3.40261 0
M  V30 580 H 60.4919 2.37772 -4.35635 0
M  V30 581 H 55.7479 2.10003 -5.74203 0
M  V30 582 H 59.9219 1.88179 -6.70494 0
M  V30 583 H 57.5489 1.73766 -7.40074 0
M  V30 584 N 59.124 1.23083 0.984299 0
M  V30 585 C 60.349 1.088 1.76571 0
M  V30 586 C 60.774 -0.356657 1.84688 0
M  V30 587 O 60.132 -1.25788 1.30565 0
M  V30 588 C 60.18 1.71371 3.17277 0
M  V30 589 O 59.284 0.973213 4.00752 0
M  V30 590 H 58.625 0.381599 0.543395 0
M  V30 591 H 61.155 1.63057 1.23587 0
M  V30 592 H 61.165 1.76449 3.67872 0
M  V30 593 H 59.84 2.76493 3.10684 0
M  V30 594 H 58.417 0.999078 3.59267 0
M  V30 595 N 60.6021 -1.18246 1.0419 0
M  V30 596 C 61.5501 -2.23968 0.627792 0
M  V30 597 C 62.5441 -1.65828 -0.346019 0
M  V30 598 O 63.7501 -1.78733 -0.213175 0
M  V30 599 H 60.1251 -0.728939 0.184802 0
M  V30 600 H 62.0961 -2.56202 1.52981 0
M  V30 601 C 60.8451 -3.47699 0.00796591 0
M  V30 602 H 60.1681 -3.92734 0.748347 0
M  V30 603 H 61.6081 -4.23294 -0.24455 0
M  V30 604 C 60.0671 -3.13153 -1.24246 0
M  V30 605 O 60.5971 -3.27003 -2.33307 0
M  V30 606 N 58.8031 -2.67467 -1.13622 0
M  V30 607 H 58.3501 -2.56396 -0.248734 0
M  V30 608 H 58.3081 -2.44724 -1.97377 0
M  V30 609 N 62.0802 -0.821533 -1.34494 0
M  V30 610 C 63.3282 -0.408139 -1.97936 0
M  V30 611 C 63.6492 1.03193 -1.65457 0
M  V30 612 O 62.9192 1.71622 -0.944595 0
M  V30 613 H 61.4992 -0.147928 -0.732206 0
M  V30 614 H 64.1612 -1.05067 -1.64155 0
M  V30 615 H 63.2572 -0.52601 -3.07635 0
M  V30 616 N 63.5583 1.46682 -0.576371 0
M  V30 617 C 64.7983 2.04306 -0.0621356 0
M  V30 618 C 65.1623 1.4389 1.2712 0
M  V30 619 O 66.3633 1.92675 1.87429 0
M  V30 620 C 64.6343 3.57399 0.00927922 0
M  V30 621 S 66.1933 4.36309 0.466859 0
M  V30 622 H 63.0113 0.710167 -0.0344016 0
M  V30 623 H 65.6133 1.79807 -0.767437 0
M  V30 624 H 64.3173 3.98889 -0.965178 0
M  V30 625 H 63.8483 3.86424 0.737547 0
M  V30 626 H 65.8633 4.6533 1.72287 0
M  V30 627 N 65.0364 0.313813 1.54444 0
M  V30 628 C 66.2854 -0.292519 1.99568 0
M  V30 629 C 66.5984 -1.54011 1.20582 0
M  V30 630 O 67.8044 -2.22183 1.56035 0
M  V30 631 C 66.2604 -0.571752 3.55329 0
M  V30 632 C 65.8684 0.658229 4.43138 0
M  V30 633 C 67.6124 -1.13857 4.08946 0
M  V30 634 C 65.5194 0.351439 5.90355 0
M  V30 635 H 64.4494 -0.113079 0.745472 0
M  V30 636 H 67.1004 0.424518 1.78522 0
M  V30 637 H 65.4824 -1.34872 3.72325 0
M  V30 638 H 66.6564 1.43403 4.37918 0
M  V30 639 H 64.9714 1.14458 4.0036 0
M  V30 640 H 67.5684 -1.38257 5.16516 0
M  V30 641 H 67.9114 -2.08489 3.6033 0
M  V30 642 H 68.4444 -0.423015 3.95544 0
M  V30 643 H 65.1834 1.26667 6.43145 0
M  V30 644 H 64.7034 -0.386842 5.98551 0
M  V30 645 H 66.3824 -0.0423134 6.46986 0
M  V30 646 N 66.5145 -1.57545 0.0417849 0
M  V30 647 C 67.7605 -1.92601 -0.635021 0
M  V30 648 C 68.0935 -0.919627 -1.71045 0
M  V30 649 O 67.3685 0.0557892 -1.9442 0
M  V30 650 C 67.6515 -3.38085 -1.23979 0
M  V30 651 C 67.5045 -4.49467 -0.173057 0
M  V30 652 C 68.8235 -3.83776 -2.15416 0
M  V30 653 H 65.9425 -0.700397 -0.229374 0
M  V30 654 H 68.5845 -1.89728 0.101633 0
M  V30 655 H 66.7345 -3.40664 -1.86762 0
M  V30 656 H 68.4065 -4.59018 0.458312 0
M  V30 657 H 66.6495 -4.30909 0.499996 0
M  V30 658 H 67.3205 -5.48323 -0.636054 0
M  V30 659 H 69.7965 -3.83013 -1.62605 0
M  V30 660 H 68.6725 -4.8624 -2.54679 0
M  V30 661 H 68.9335 -3.19998 -3.05047 0
M  V30 662 N 67.9926 0.231505 -1.5589 0
M  V30 663 C 69.2406 0.955461 -1.78088 0
M  V30 664 C 69.5616 1.85262 -0.608533 0
M  V30 665 O 68.8316 1.92277 0.375035 0
M  V30 666 H 67.4116 0.355787 -0.656829 0
M  V30 667 H 70.0736 0.245751 -1.93344 0
M  V30 668 H 69.1696 1.56814 -2.69844 0
M  V30 669 N 69.4707 1.49531 0.497807 0
M  V30 670 C 70.4337 1.65916 1.58128 0
M  V30 671 C 71.4337 0.530825 1.51786 0
M  V30 672 O 72.6237 0.797342 1.54881 0
M  V30 673 C 69.7557 1.65951 2.9778 0
M  V30 674 H 70.9487 2.62556 1.44929 0
M  V30 675 H 68.5017 1.38611 0.722275 0
M  V30 676 H 69.2367 0.709065 3.16453 0
M  V30 677 H 69.0217 2.47897 3.03792 0
M  V30 678 H 70.5117 1.80673 3.76493 0
M  V30 679 N 70.9488 -0.749086 1.3866 0
M  V30 680 C 72.2258 -1.4992 1.25632 0
M  V30 681 C 72.6058 -2.10633 -0.140317 0
M  V30 682 O 71.9538 -1.97437 -1.15025 0
M  V30 683 C 72.1638 -2.56195 2.36992 0
M  V30 684 C 73.5118 -3.22972 2.75634 0
M  V30 685 O 74.5358 -2.66502 2.36337 0
M  V30 686 O 73.3948 -4.25122 3.43415 0
M  V30 687 H 70.4888 -0.665067 0.491544 0
M  V30 688 H 73.0348 -0.784113 1.50498 0
M  V30 689 H 71.8068 -2.09612 3.30422 0
M  V30 690 H 71.4298 -3.35279 2.13714 0
M  V30 691 N 72.4269 -1.23603 -0.977757 0
M  V30 692 C 73.6549 -1.09646 -1.75458 0
M  V30 693 C 74.0699 0.351859 -1.85492 0
M  V30 694 O 73.4269 1.24327 -1.336 0
M  V30 695 C 73.4779 -1.71895 -3.18016 0
M  V30 696 O 73.1989 -3.11063 -3.08498 0
M  V30 697 C 74.6999 -1.63415 -4.12081 0
M  V30 698 H 71.9199 -0.38359 -0.550545 0
M  V30 699 H 74.4639 -1.63507 -1.22824 0
M  V30 700 H 72.6189 -1.22061 -3.67668 0
M  V30 701 H 73.0329 -3.41305 -3.9826 0
M  V30 702 H 74.5069 -2.11669 -5.09804 0
M  V30 703 H 74.9839 -0.593462 -4.35172 0
M  V30 704 H 75.5899 -2.12628 -3.68334 0
M  V30 705 N 73.905 1.17692 -1.04816 0
M  V30 706 C 74.835 2.23777 -0.666791 0
M  V30 707 C 75.816 1.66796 0.33361 0
M  V30 708 O 77.001 1.93039 0.212042 0
M  V30 709 C 74.131 3.47281 -0.0367933 0
M  V30 710 C 73.085 4.17059 -0.961546 0
M  V30 711 C 72.411 5.34342 -0.195626 0
M  V30 712 C 73.711 4.69713 -2.28402 0
M  V30 713 H 75.405 2.55933 -1.55367 0
M  V30 714 H 72.951 1.23019 -0.748484 0
M  V30 715 H 74.904 4.20706 0.241775 0
M  V30 716 H 73.628 3.14381 0.885004 0
M  V30 717 H 72.287 3.45541 -1.22462 0
M  V30 718 H 71.935 4.97692 0.728816 0
M  V30 719 H 71.635 5.81966 -0.811775 0
M  V30 720 H 73.159 6.10553 0.0757473 0
M  V30 721 H 74.573 5.34794 -2.06563 0
M  V30 722 H 72.97 5.279 -2.8538 0
M  V30 723 H 74.04 3.86726 -2.92525 0
M  V30 724 N 75.3831 0.828654 1.34056 0
M  V30 725 C 76.7941 0.477534 1.8049 0
M  V30 726 C 77.1451 -1.00258 1.6865 0
M  V30 727 O 76.2701 -1.78057 1.22982 0
M  V30 728 C 76.8651 0.860018 3.27703 0
M  V30 729 C 75.4241 0.561185 3.72193 0
M  V30 730 C 74.5711 1.07385 2.55663 0
M  V30 731 H 77.5221 1.0183 1.21722 0
M  V30 732 H 77.5431 0.166038 3.80138 0
M  V30 733 H 77.0551 1.93731 3.36288 0
M  V30 734 H 75.1561 -0.506465 3.69142 0
M  V30 735 H 75.2691 1.10926 4.66082 0
M  V30 736 H 73.6331 0.495149 2.49841 0
M  V30 737 H 74.4161 2.15771 2.67016 0
M  V30 738 N 76.8612 -1.46375 0.584142 0
M  V30 739 C 78.1102 -2.01585 0.0679741 0
M  V30 740 C 78.4232 -1.46109 -1.30045 0
M  V30 741 O 79.6292 -1.93148 -1.90804 0
M  V30 742 C 78.0852 -3.5983 0.0709207 0
M  V30 743 C 77.6932 -4.24303 1.43775 0
M  V30 744 C 79.4372 -4.22693 -0.391228 0
M  V30 745 C 77.3442 -5.74631 1.39834 0
M  V30 746 H 76.2742 -0.753689 0.0216421 0
M  V30 747 H 78.9252 -1.68093 0.736001 0
M  V30 748 H 77.3072 -3.90405 -0.663299 0
M  V30 749 H 78.4812 -4.05335 2.19181 0
M  V30 750 H 76.7962 -3.73539 1.84004 0
M  V30 751 H 79.3932 -5.3289 -0.439524 0
M  V30 752 H 79.7362 -3.91728 -1.40906 0
M  V30 753 H 80.2692 -3.96749 0.288974 0
M  V30 754 H 77.0082 -6.10258 2.39303 0
M  V30 755 H 76.5282 -5.95858 0.686505 0
M  V30 756 H 78.2072 -6.37375 1.11187 0
M  V30 757 N 78.3393 -0.321999 -1.54275 0
M  V30 758 C 79.2713 0.578671 -2.21775 0
M  V30 759 C 80.2843 1.08109 -1.21722 0
M  V30 760 O 81.4733 0.994938 -1.482 0
M  V30 761 C 78.5733 1.80661 -2.86731 0
M  V30 762 C 77.7463 1.44314 -4.12907 0
M  V30 763 C 76.8053 2.52845 -4.61472 0
M  V30 764 O 75.8313 2.17054 -5.2619 0
M  V30 765 N 77.0333 3.83748 -4.35566 0
M  V30 766 H 79.7983 0.000709447 -2.997 0
M  V30 767 H 77.3593 -0.145132 -1.61248 0
M  V30 768 H 79.3513 2.52655 -3.16145 0
M  V30 769 H 77.9213 2.29245 -2.12521 0
M  V30 770 H 77.1413 0.554906 -3.90275 0
M  V30 771 H 78.4293 1.17598 -4.95023 0
M  V30 772 H 77.8273 4.15625 -3.83761 0
M  V30 773 H 76.3843 4.51977 -4.69638 0
M  V30 774 N 79.8174 1.5752 -0.0501392 0
M  V30 775 C 81.0424 1.97376 0.636997 0
M  V30 776 C 81.4674 0.927466 1.63645 0
M  V30 777 O 80.8254 -0.10941 1.8097 0
M  V30 778 C 80.8734 3.36304 1.30123 0
M  V30 779 O 79.9774 3.34156 2.41689 0
M  V30 780 H 79.3184 0.642998 0.165679 0
M  V30 781 H 81.8484 2.04258 -0.118233 0
M  V30 782 H 81.8584 3.73008 1.65315 0
M  V30 783 H 80.5334 4.11993 0.568746 0
M  V30 784 H 79.1104 3.09196 2.08451 0
M  V30 785 N 81.2955 -0.223234 1.56011 0
M  V30 786 C 82.2055 -1.29766 1.95443 0
M  V30 787 C 83.2215 -1.51373 0.858028 0
M  V30 788 O 84.3975 -1.64536 1.16146 0
M  V30 789 C 81.4625 -2.62772 2.26167 0
M  V30 790 C 80.5235 -2.49482 3.49367 0
M  V30 791 C 79.7565 -3.76145 3.78616 0
M  V30 792 O 79.9795 -4.79087 3.09568 0
M  V30 793 O 78.9135 -3.73358 4.72109 0
M  V30 794 H 82.7395 -0.99309 2.87004 0
M  V30 795 H 80.3245 -0.425958 1.43199 0
M  V30 796 H 82.2065 -3.41327 2.47131 0
M  V30 797 H 80.8815 -2.92913 1.37781 0
M  V30 798 H 79.7885 -1.69133 3.33684 0
M  V30 799 H 81.1215 -2.2428 4.38131 0
M  V30 800 N 82.7736 -1.49793 -0.48987 0
M  V30 801 C 83.7236 -1.63673 -1.5873 0
M  V30 802 C 84.7076 -0.491956 -1.53195 0
M  V30 803 O 85.8996 -0.745461 -1.60536 0
M  V30 804 C 83.0286 -1.71689 -2.97284 0
M  V30 805 C 82.1146 -2.91781 -3.07774 0
M  V30 806 N 82.5056 -4.15714 -2.88124 0
M  V30 807 C 80.8036 -2.89949 -3.38889 0
M  V30 808 C 81.5046 -4.965 -3.03088 0
M  V30 809 N 80.4806 -4.30083 -3.3246 0
M  V30 810 H 84.2826 -2.57204 -1.42208 0
M  V30 811 H 81.7966 -1.46719 -0.69623 0
M  V30 812 H 83.7936 -1.79732 -3.76168 0
M  V30 813 H 82.4536 -0.793024 -3.14867 0
M  V30 814 H 83.4646 -4.45515 -2.64077 0
M  V30 815 H 80.1416 -2.06987 -3.62578 0
M  V30 816 H 81.5316 -6.04991 -2.92294 0
M  V30 817 N 84.2517 0.741722 -1.39055 0
M  V30 818 C 85.4817 1.52876 -1.3897 0
M  V30 819 C 85.8897 1.8919 0.0193266 0
M  V30 820 O 85.2327 1.54138 0.999356 0
M  V30 821 C 85.2947 2.84929 -2.19216 0
M  V30 822 C 84.9587 2.71086 -3.67915 0
M  V30 823 C 85.9557 2.40084 -4.61146 0
M  V30 824 C 83.6407 2.88168 -4.11418 0
M  V30 825 C 85.6347 2.26335 -5.95862 0
M  V30 826 C 83.3217 2.74037 -5.46211 0
M  V30 827 C 84.3197 2.43166 -6.38247 0
M  V30 828 O 84.0077 2.29115 -7.70559 0
M  V30 829 H 83.7397 0.479252 -0.476753 0
M  V30 830 H 86.2937 0.924751 -1.83405 0
M  V30 831 H 84.5237 3.47564 -1.69518 0
M  V30 832 H 86.2127 3.46509 -2.11392 0
M  V30 833 H 86.9787 2.26545 -4.28838 0
M  V30 834 H 82.8577 3.11191 -3.40119 0
M  V30 835 H 86.4017 2.0216 -6.67665 0
M  V30 836 H 82.2987 2.87153 -5.78112 0
M  V30 837 H 83.0667 2.44237 -7.81211 0
M  V30 838 N 85.7298 1.2412 0.971189 0
M  V30 839 C 86.6618 0.988349 2.06795 0
M  V30 840 C 87.6748 -0.0409541 1.62748 0
M  V30 841 O 88.8638 0.195673 1.77424 0
M  V30 842 C 85.9638 0.469023 3.35639 0
M  V30 843 C 85.1368 1.56065 4.08611 0
M  V30 844 C 84.1958 1.04458 5.15728 0
M  V30 845 O 83.2218 1.73553 5.42096 0
M  V30 846 N 84.4238 -0.122817 5.8037 0
M  V30 847 H 87.1888 1.93265 2.29061 0
M  V30 848 H 84.7498 1.15102 1.13856 0
M  V30 849 H 86.7418 0.108613 4.04554 0
M  V30 850 H 85.3118 -0.380919 3.1027 0
M  V30 851 H 84.5318 2.09341 3.34021 0
M  V30 852 H 85.8198 2.29449 4.54126 0
M  V30 853 H 85.2178 -0.700563 5.61345 0
M  V30 854 H 83.7748 -0.424404 6.50417 0
M  V30 855 N 87.2079 -1.17134 1.05439 0
M  V30 856 C 88.4539 -1.87733 0.767077 0
M  V30 857 C 88.7869 -1.8098 -0.704253 0
M  V30 858 O 88.0619 -1.21951 -1.5152 0
M  V30 859 C 88.3449 -3.37659 1.25133 0
M  V30 860 C 88.1979 -3.53149 2.78578 0
M  V30 861 C 89.5169 -4.31768 0.852324 0
M  V30 862 H 86.6359 -0.681687 0.280129 0
M  V30 863 H 89.2779 -1.37732 1.30881 0
M  V30 864 H 87.4279 -3.80373 0.790469 0
M  V30 865 H 89.0999 -3.19434 3.32806 0
M  V30 866 H 87.3429 -2.95345 3.17732 0
M  V30 867 H 88.0139 -4.58403 3.07523 0
M  V30 868 H 90.4899 -3.96909 1.24911 0
M  V30 869 H 89.3659 -5.35199 1.21873 0
M  V30 870 H 89.6269 -4.41429 -0.243485 0
M  V30 871 N 88.686 -0.835752 -1.33615 0
M  V30 872 C 89.619 -0.211815 -2.27215 0
M  V30 873 C 90.597 0.639249 -1.49507 0
M  V30 874 O 91.781 0.600193 -1.78689 0
M  V30 875 C 88.908 0.702893 -3.31326 0
M  V30 876 C 87.954 -0.0723049 -4.26439 0
M  V30 877 S 88.787 -1.42811 -5.16106 0
M  V30 878 C 89.943 -0.518613 -6.23748 0
M  V30 879 H 90.176 -1.00533 -2.79786 0
M  V30 880 H 87.709 -0.632336 -1.40858 0
M  V30 881 H 89.667 1.22505 -3.91794 0
M  V30 882 H 88.328 1.47004 -2.77576 0
M  V30 883 H 87.521 0.62359 -5.00127 0
M  V30 884 H 87.123 -0.525424 -3.70291 0
M  V30 885 H 89.415 0.284778 -6.76901 0
M  V30 886 H 90.358 -1.22556 -6.97413 0
M  V30 887 H 90.766 -0.101344 -5.64409 0
M  V30 888 N 90.1641 1.46063 -0.591896 0
M  V30 889 C 91.5801 1.57561 -0.254288 0
M  V30 890 C 91.7801 1.58565 1.24336 0
M  V30 891 O 90.8361 1.50753 2.02558 0
M  V30 892 C 92.1491 2.86549 -0.911611 0
M  V30 893 C 93.6971 3.00197 -0.886059 0
M  V30 894 C 94.1721 4.31933 -1.5231 0
M  V30 895 N 95.6631 4.38654 -1.48786 0
M  V30 896 C 96.3981 5.39222 -1.95006 0
M  V30 897 N 95.8941 6.46414 -2.49241 0
M  V30 898 N 97.6871 5.3048 -1.85868 0
M  V30 899 H 89.8381 1.43655 -1.56451 0
M  V30 900 H 92.1011 0.68583 -0.654478 0
M  V30 901 H 91.8071 2.91651 -1.96551 0
M  V30 902 H 91.6811 3.74794 -0.425368 0
M  V30 903 H 94.0681 2.9467 0.159246 0
M  V30 904 H 94.1491 2.13403 -1.41041 0
M  V30 905 H 93.7931 4.38217 -2.56765 0
M  V30 906 H 93.7231 5.17516 -0.973891 0
M  V30 907 H 96.2141 3.61793 -1.09151 0
M  V30 908 H 96.5271 7.19376 -2.82344 0
M  V30 909 H 94.8721 6.47208 -2.53272 0
M  V30 910 H 98.0631 4.45643 -1.43248 0
M  V30 911 H 98.2361 6.08711 -2.22204 0
M  V30 912 N 91.6422 0.330177 1.54103 0
M  V30 913 C 92.8702 -0.272179 2.05102 0
M  V30 914 C 93.2852 -1.45267 1.20595 0
M  V30 915 O 92.6422 -1.8094 0.238144 0
M  V30 916 C 92.6932 -0.70023 3.54653 0
M  V30 917 O 92.4142 0.433301 4.35952 0
M  V30 918 C 93.9152 -1.3647 4.21771 0
M  V30 919 H 91.1352 -0.0549159 0.668749 0
M  V30 920 H 93.6792 0.478285 1.98828 0
M  V30 921 H 91.8342 -1.40066 3.61193 0
M  V30 922 H 92.2482 0.0947539 5.24414 0
M  V30 923 H 93.7222 -1.61509 5.27843 0
M  V30 924 H 94.1992 -2.31409 3.73292 0
M  V30 925 H 94.8052 -0.706675 4.19388 0
M  V30 926 N 93.1203 -1.57491 0.0584922 0
M  V30 927 C 94.3973 -1.84346 -0.653918 0
M  V30 928 C 94.7773 -0.948355 -1.88599 0
M  V30 929 O 94.1253 -0.0112403 -2.28497 0
M  V30 930 C 94.3353 -3.34239 -1.00425 0
M  V30 931 C 95.6833 -4.01431 -1.38342 0
M  V30 932 O 96.7073 -3.38907 -1.09637 0
M  V30 933 O 95.5663 -5.11683 -1.91943 0
M  V30 934 H 92.6603 -0.761112 -0.323478 0
M  V30 935 H 95.2063 -1.6947 0.0884125 0
M  V30 936 H 93.9783 -3.91089 -0.128625 0
M  V30 937 H 93.6013 -3.54329 -1.80378 0
M  V30 938 N 94.5984 0.214957 -1.56127 0
M  V30 939 C 95.5304 1.29004 -1.89448 0
M  V30 940 C 96.5434 1.42716 -0.783326 0
M  V30 941 O 97.7324 1.43496 -1.06166 0
M  V30 942 C 94.8324 2.66482 -2.09381 0
M  V30 943 C 94.0054 2.74633 -3.40434 0
M  V30 944 C 93.0644 3.9317 -3.49719 0
M  V30 945 O 92.0904 3.812 -4.227 0
M  V30 946 N 93.2924 5.07765 -2.81346 0
M  V30 947 H 96.0574 1.00743 -2.82261 0
M  V30 948 H 93.6184 0.40497 -1.56753 0
M  V30 949 H 95.6104 3.44173 -2.12901 0
M  V30 950 H 94.1804 2.87314 -1.23163 0
M  V30 951 H 93.4004 1.83368 -3.48955 0
M  V30 952 H 94.6884 2.77054 -4.26754 0
M  V30 953 H 94.0864 5.20386 -2.21843 0
M  V30 954 H 92.6434 5.83474 -2.90519 0
M  V30 955 N 96.0765 1.50051 0.48192 0
M  V30 956 C 97.4925 1.37237 0.814756 0
M  V30 957 C 97.6925 0.420109 1.97072 0
M  V30 958 O 96.7485 -0.141246 2.52105 0
M  V30 959 C 98.0615 2.78375 1.13701 0
M  V30 960 C 99.6095 2.87213 1.2441 0
M  V30 961 C 100.084 4.29161 1.59954 0
M  V30 962 N 101.575 4.32061 1.66967 0
M  V30 963 C 102.31 5.38879 1.95952 0
M  V30 964 N 101.806 6.55918 2.23031 0
M  V30 965 N 103.599 5.26312 1.97363 0
M  V30 966 H 95.7505 2.10546 -0.28005 0
M  V30 967 H 98.0135 0.945921 -0.0627454 0
M  V30 968 H 97.7195 3.49845 0.360787 0
M  V30 969 H 97.5935 3.14941 2.07586 0
M  V30 970 H 99.9805 2.15969 2.01101 0
M  V30 971 H 100.061 2.54204 0.285299 0
M  V30 972 H 99.7055 5.00938 0.838067 0
M  V30 973 H 99.6355 4.59648 2.56966 0
M  V30 974 H 102.126 3.47661 1.48123 0
M  V30 975 H 102.439 7.33139 2.44391 0
M  V30 976 H 100.784 6.59112 2.20447 0
M  V30 977 H 103.975 4.33876 1.75697 0
M  V30 978 H 104.148 6.09649 2.19618 0
M  V30 979 N 97.5546 -0.734337 1.39446 0
M  V30 980 C 98.9706 -1.03997 1.21065 0
M  V30 981 C 99.1706 -2.01369 0.0727019 0
M  V30 982 O 98.2266 -2.45856 -0.575426 0
M  V30 983 C 99.5396 -1.60163 2.54496 0
M  V30 984 C 101.088 -1.7224 2.61347 0
M  V30 985 C 101.563 -2.31814 3.95002 0
M  V30 986 N 103.054 -2.39223 3.96644 0
M  V30 987 C 103.789 -2.86258 4.96834 0
M  V30 988 N 103.285 -3.33184 6.07421 0
M  V30 989 N 105.078 -2.85473 4.84213 0
M  V30 990 H 97.2286 -0.0885624 2.12215 0
M  V30 991 H 99.4916 -0.10191 0.942506 0
M  V30 992 H 99.1976 -0.960811 3.38321 0
M  V30 993 H 99.0716 -2.5896 2.74262 0
M  V30 994 H 101.459 -2.35443 1.77906 0
M  V30 995 H 101.54 -0.720939 2.4543 0
M  V30 996 H 101.184 -1.69238 4.78875 0
M  V30 997 H 101.114 -3.32638 4.08239 0
M  V30 998 H 103.605 -2.06057 3.16779 0
M  V30 999 H 103.918 -3.67586 6.7978 0
M  V30 1000 H 102.263 -3.31191 6.11013 0
M  V30 1001 H 105.454 -2.48136 3.96921 0
M  V30 1002 H 105.627 -3.21814 5.62441 0
M  V30 1003 N 99.0327 -1.24633 -0.964593 0
M  V30 1004 C 100.263 -1.11339 -1.74032 0
M  V30 1005 C 100.671 0.336593 -1.86182 0
M  V30 1006 O 100.014 1.24389 -1.35178 0
M  V30 1007 C 100.076 -1.68284 -3.1768 0
M  V30 1008 C 99.7397 -3.17196 -3.28992 0
M  V30 1009 C 100.737 -4.14308 -3.14078 0
M  V30 1010 C 98.4217 -3.57215 -3.53133 0
M  V30 1011 C 100.416 -5.4942 -3.23135 0
M  V30 1012 C 98.1027 -4.92468 -3.61827 0
M  V30 1013 C 99.1007 -5.8838 -3.46841 0
M  V30 1014 O 98.7887 -7.21173 -3.55197 0
M  V30 1015 H 98.5207 -0.389551 -0.552472 0
M  V30 1016 H 101.075 -1.65282 -1.21946 0
M  V30 1017 H 99.3047 -1.08777 -3.71085 0
M  V30 1018 H 100.994 -1.50234 -3.77074 0
M  V30 1019 H 101.76 -3.84731 -2.95308 0
M  V30 1020 H 97.6387 -2.83063 -3.63863 0
M  V30 1021 H 101.183 -6.24263 -3.11355 0
M  V30 1022 H 97.0797 -5.21714 -3.80111 0
M  V30 1023 H 97.8477 -7.29135 -3.71892 0
M  V30 1024 N 100.511 1.16574 -1.06058 0
M  V30 1025 C 101.758 1.87047 -0.775873 0
M  V30 1026 C 102.086 1.81562 0.697534 0
M  V30 1027 O 101.341 1.22445 1.52662 0
M  V30 1028 C 101.64 3.36195 -1.21275 0
M  V30 1029 C 101.306 3.6188 -2.68986 0
M  V30 1030 C 99.9678 3.68599 -3.09335 0
M  V30 1031 C 102.32 3.72648 -3.64394 0
M  V30 1032 C 99.6478 3.83584 -4.43937 0
M  V30 1033 C 102 3.89154 -4.98741 0
M  V30 1034 C 100.664 3.94114 -5.3873 0
M  V30 1035 H 99.9338 0.684452 -0.283912 0
M  V30 1036 H 102.581 1.37853 -1.32925 0
M  V30 1037 H 100.886 3.87505 -0.578528 0
M  V30 1038 H 102.583 3.89103 -0.969542 0
M  V30 1039 H 99.1728 3.57281 -2.36744 0
M  V30 1040 H 103.357 3.66769 -3.34356 0
M  V30 1041 H 98.6128 3.85677 -4.74409 0
M  V30 1042 H 102.787 3.96427 -5.72554 0
M  V30 1043 H 100.414 4.05478 -6.43033 0
M  V30 1044 N 101.989 0.842826 1.3317 0
M  V30 1045 C 103.237 0.439577 1.97262 0
M  V30 1046 C 103.558 -1.00548 1.67078 0
M  V30 1047 O 102.828 -1.70098 0.971779 0
M  V30 1048 H 101.408 0.159558 0.72976 0
M  V30 1049 H 104.07 1.07665 1.62463 0
M  V30 1050 H 103.166 0.574886 3.0676 0
M  V30 1051 N 103.467 -1.45747 0.599634 0
M  V30 1052 C 104.417 -2.27538 -0.145107 0
M  V30 1053 C 105.401 -1.3686 -0.846055 0
M  V30 1054 O 106.593 -1.6091 -0.737357 0
M  V30 1055 C 103.722 -3.23569 -1.14708 0
M  V30 1056 C 102.808 -4.21734 -0.447383 0
M  V30 1057 N 103.199 -5.03257 0.506535 0
M  V30 1058 C 101.497 -4.40536 -0.695966 0
M  V30 1059 C 102.198 -5.74426 0.917068 0
M  V30 1060 N 101.174 -5.42966 0.26253 0
M  V30 1061 H 104.976 -2.87965 0.587672 0
M  V30 1062 H 102.49 -1.56803 0.422697 0
M  V30 1063 H 104.487 -3.8089 -1.69495 0
M  V30 1064 H 103.147 -2.64702 -1.8805 0
M  V30 1065 H 104.158 -5.10319 0.882899 0
M  V30 1066 H 100.835 -3.92802 -1.41467 0
M  V30 1067 H 102.225 -6.4995 1.70338 0
M  V30 1068 N 104.945 -0.338344 -1.53925 0
M  V30 1069 C 106.356 0.146651 -1.86123 0
M  V30 1070 C 106.707 1.5042 -1.2597 0
M  V30 1071 O 105.832 2.08723 -0.571294 0
M  V30 1072 C 106.427 0.272879 -3.37699 0
M  V30 1073 C 104.986 0.702103 -3.69794 0
M  V30 1074 C 104.133 -0.167304 -2.76795 0
M  V30 1075 H 107.084 -0.558123 -1.48562 0
M  V30 1076 H 107.105 1.10128 -3.64214 0
M  V30 1077 H 106.617 -0.715307 -3.81451 0
M  V30 1078 H 104.718 1.6995 -3.31584 0
M  V30 1079 H 104.831 0.495604 -4.7653 0
M  V30 1080 H 103.195 0.359527 -2.5215 0
M  V30 1081 H 103.978 -1.15253 -3.23375 0
M  V30 1082 N 106.423 1.57458 -0.0668435 0
M  V30 1083 C 107.7 1.8469 0.644132 0
M  V30 1084 C 108.08 0.958343 1.88093 0
M  V30 1085 O 107.428 0.0233579 2.28488 0
M  V30 1086 C 107.638 3.34767 0.986509 0
M  V30 1087 C 108.986 4.02159 1.36212 0
M  V30 1088 O 110.01 3.39484 1.07839 0
M  V30 1089 O 108.869 5.12694 1.89227 0
M  V30 1090 H 105.963 0.762816 0.319437 0
M  V30 1091 H 108.509 1.6942 -0.0973986 0
M  V30 1092 H 107.281 3.91151 0.107883 0
M  V30 1093 H 106.904 3.55281 1.78497 0
M  V30 1094 N 107.901 -0.206675 1.56239 0
M  V30 1095 C 108.831 -1.25909 1.96645 0
M  V30 1096 C 109.812 -1.48097 0.836734 0
M  V30 1097 O 110.997 -1.6003 1.10019 0
M  V30 1098 C 108.127 -2.6058 2.29599 0
M  V30 1099 C 107.081 -2.53024 3.452 0
M  V30 1100 C 106.407 -3.91861 3.63798 0
M  V30 1101 C 107.707 -2.06524 4.79734 0
M  V30 1102 H 109.401 -0.923369 2.84806 0
M  V30 1103 H 106.947 -0.442735 1.37025 0
M  V30 1104 H 108.9 -3.34375 2.56459 0
M  V30 1105 H 107.624 -2.95869 1.38307 0
M  V30 1106 H 106.283 -1.81684 3.18412 0
M  V30 1107 H 105.931 -4.24483 2.69857 0
M  V30 1108 H 105.631 -3.87683 4.4156 0
M  V30 1109 H 107.155 -4.67296 3.93022 0
M  V30 1110 H 108.569 -2.70072 5.05702 0
M  V30 1111 H 106.966 -2.13374 5.60885 0
M  V30 1112 H 108.036 -1.01802 4.74093 0
M  V30 1113 N 109.379 -1.50304 -0.473955 0
M  V30 1114 C 110.625 -1.61389 -1.22806 0
M  V30 1115 C 110.958 -0.311955 -1.91678 0
M  V30 1116 O 110.233 0.686384 -1.81986 0
M  V30 1117 C 110.516 -2.79219 -2.27396 0
M  V30 1118 C 110.369 -4.19286 -1.62848 0
M  V30 1119 C 111.688 -2.92614 -3.28732 0
M  V30 1120 H 108.807 -0.587399 -0.445119 0
M  V30 1121 H 111.449 -1.82681 -0.522265 0
M  V30 1122 H 109.599 -2.61195 -2.87592 0
M  V30 1123 H 111.271 -4.48892 -1.06271 0
M  V30 1124 H 109.514 -4.23677 -0.931693 0
M  V30 1125 H 110.185 -4.97655 -2.38838 0
M  V30 1126 H 112.661 -3.09105 -2.78556 0
M  V30 1127 H 111.537 -3.76688 -3.99246 0
M  V30 1128 H 111.798 -2.03107 -3.92683 0
M  V30 1129 N 110.857 0.726932 -1.39834 0
M  V30 1130 C 111.79 1.8501 -1.33592 0
M  V30 1131 C 112.768 1.61262 -0.208191 0
M  V30 1132 O 113.952 1.84422 -0.389981 0
M  V30 1133 C 111.079 3.21143 -1.07633 0
M  V30 1134 C 110.125 3.63737 -2.22705 0
M  V30 1135 S 110.958 3.72167 -3.85035 0
M  V30 1136 C 112.114 5.11077 -3.61318 0
M  V30 1137 H 112.347 1.90022 -2.28646 0
M  V30 1138 H 109.88 0.892595 -1.25985 0
M  V30 1139 H 111.838 3.99747 -0.933415 0
M  V30 1140 H 110.499 3.13776 -0.142526 0
M  V30 1141 H 109.692 4.62551 -2.00155 0
M  V30 1142 H 109.294 2.9236 -2.33242 0
M  V30 1143 H 111.586 5.97656 -3.19083 0
M  V30 1144 H 112.529 5.38658 -4.59623 0
M  V30 1145 H 112.937 4.81135 -2.95245 0
M  V30 1146 N 112.336 1.25143 0.95797 0
M  V30 1147 C 113.583 1.09692 1.70217 0
M  V30 1148 C 113.911 -0.362654 1.91089 0
M  V30 1149 O 113.166 -1.28386 1.47701 0
M  V30 1150 C 113.465 1.79272 3.09187 0
M  V30 1151 C 113.131 3.29196 3.08125 0
M  V30 1152 C 111.793 3.70096 3.07543 0
M  V30 1153 C 114.145 4.24995 3.0171 0
M  V30 1154 C 111.473 5.05213 2.9829 0
M  V30 1155 C 113.825 5.60132 2.93999 0
M  V30 1156 C 112.489 6.00365 2.9175 0
M  V30 1157 H 111.759 0.401393 0.622868 0
M  V30 1158 H 114.406 1.55372 1.11945 0
M  V30 1159 H 112.711 1.26014 3.70982 0
M  V30 1160 H 114.408 1.64773 3.65583 0
M  V30 1161 H 110.998 2.96651 3.09348 0
M  V30 1162 H 115.182 3.9439 3.01281 0
M  V30 1163 H 110.438 5.35569 2.94916 0
M  V30 1164 H 114.612 6.3406 2.87996 0
M  V30 1165 H 112.239 7.05023 2.84336 0
M  V30 1166 N 113.814 -1.1601 1.06675 0
M  V30 1167 C 115.063 -1.85973 0.780818 0
M  V30 1168 C 115.376 -1.82819 -0.695444 0
M  V30 1169 O 116.582 -2.484 -1.09589 0
M  V30 1170 C 115.038 -3.33757 1.34665 0
M  V30 1171 C 114.646 -3.45374 2.85343 0
M  V30 1172 C 116.39 -4.0895 1.13843 0
M  V30 1173 C 114.297 -4.87266 3.35151 0
M  V30 1174 H 113.227 -0.696661 0.288407 0
M  V30 1175 H 115.878 -1.30903 1.28595 0
M  V30 1176 H 114.26 -3.88456 0.769274 0
M  V30 1177 H 115.434 -3.00816 3.49065 0
M  V30 1178 H 113.749 -2.83619 3.04876 0
M  V30 1179 H 116.346 -5.13654 1.4854 0
M  V30 1180 H 116.689 -4.16229 0.0770282 0
M  V30 1181 H 117.222 -3.605 1.68179 0
M  V30 1182 H 113.961 -4.85168 4.40786 0
M  V30 1183 H 113.481 -5.32433 2.76179 0
M  V30 1184 H 115.16 -5.56097 3.30704 0
M  V30 1185 N 115.292 -0.849877 -1.32721 0
M  V30 1186 C 116.224 -0.248332 -2.27851 0
M  V30 1187 C 117.237 0.577218 -1.52224 0
M  V30 1188 O 118.426 0.402489 -1.73903 0
M  V30 1189 C 115.526 0.668107 -3.32249 0
M  V30 1190 C 114.699 -0.120534 -4.37234 0
M  V30 1191 C 113.758 0.720932 -5.21238 0
M  V30 1192 O 112.784 0.156166 -5.68986 0
M  V30 1193 N 113.986 2.03647 -5.43607 0
M  V30 1194 H 116.751 -1.06575 -2.80111 0
M  V30 1195 H 114.312 -0.709395 -1.45531 0
M  V30 1196 H 116.304 1.23627 -3.85355 0
M  V30 1197 H 114.874 1.38621 -2.80184 0
M  V30 1198 H 114.094 -0.870108 -3.84477 0
M  V30 1199 H 115.382 -0.662406 -5.0447 0
M  V30 1200 H 114.78 2.51871 -5.06535 0
M  V30 1201 H 113.337 2.55287 -5.99727 0
M  V30 1202 N 116.77 1.45427 -0.607355 0
M  V30 1203 C 118.186 1.57283 -0.270985 0
M  V30 1204 C 118.386 1.59875 1.22647 0
M  V30 1205 O 117.442 1.52893 2.00948 0
M  V30 1206 C 118.755 2.85566 -0.941952 0
M  V30 1207 C 120.303 2.9924 -0.917849 0
M  V30 1208 C 120.778 4.30293 -1.56882 0
M  V30 1209 N 122.269 4.37051 -1.5343 0
M  V30 1210 C 123.004 5.37123 -2.00715 0
M  V30 1211 N 122.5 6.43734 -2.56084 0
M  V30 1212 N 124.293 5.28479 -1.91484 0
M  V30 1213 H 116.444 1.41988 -1.57966 0
M  V30 1214 H 118.707 0.67885 -0.661715 0
M  V30 1215 H 118.413 2.8955 -1.99633 0
M  V30 1216 H 118.287 3.74322 -0.465096 0
M  V30 1217 H 120.674 2.94822 0.127984 0
M  V30 1218 H 120.755 2.11895 -1.43297 0
M  V30 1219 H 120.399 4.35469 -2.61398 0
M  V30 1220 H 120.329 5.16454 -1.02873 0
M  V30 1221 H 122.82 3.60615 -1.12982 0
M  V30 1222 H 123.133 7.16341 -2.89958 0
M  V30 1223 H 121.478 6.44485 -2.60122 0
M  V30 1224 H 124.669 4.44098 -1.47967 0
M  V30 1225 H 124.842 6.0632 -2.28648 0
M  V30 1226 N 118.248 0.346503 1.53744 0
M  V30 1227 C 119.178 -0.501193 2.28058 0
M  V30 1228 C 120.159 -1.10014 1.29734 0
M  V30 1229 O 121.344 -1.12097 1.58581 0
M  V30 1230 C 118.474 -1.65078 3.05559 0
M  V30 1231 C 117.428 -1.18003 4.11411 0
M  V30 1232 C 116.754 -2.41837 4.76884 0
M  V30 1233 C 118.054 -0.278394 5.21558 0
M  V30 1234 H 119.748 0.11875 2.99164 0
M  V30 1235 H 117.294 0.0585531 1.43881 0
M  V30 1236 H 119.247 -2.25028 3.56287 0
M  V30 1237 H 117.971 -2.29767 2.32109 0
M  V30 1238 H 116.63 -0.603331 3.61601 0
M  V30 1239 H 116.278 -3.0494 4.00026 0
M  V30 1240 H 115.978 -2.1102 5.48402 0
M  V30 1241 H 117.502 -3.02508 5.30397 0
M  V30 1242 H 118.916 -0.784823 5.67903 0
M  V30 1243 H 117.313 -0.0619707 6.00068 0
M  V30 1244 H 118.383 0.684677 4.80042 0
M  V30 1245 N 119.726 -1.57421 0.075193 0
M  V30 1246 C 120.951 -1.98364 -0.605515 0
M  V30 1247 C 121.376 -0.953383 -1.62149 0
M  V30 1248 O 120.734 0.0806053 -1.81121 0
M  V30 1249 C 120.782 -3.38332 -1.24756 0
M  V30 1250 O 119.886 -3.37959 -2.36342 0
M  V30 1251 H 119.227 -0.645553 -0.155428 0
M  V30 1252 H 121.757 -2.04044 0.150714 0
M  V30 1253 H 121.767 -3.75591 -1.5936 0
M  V30 1254 H 120.442 -4.12846 -0.503129 0
M  V30 1255 H 119.019 -3.12474 -2.03506 0
M  V30 1256 N 121.204 0.198386 -1.56346 0
M  V30 1257 C 122.429 0.939682 -1.84891 0
M  V30 1258 C 122.854 1.76202 -0.658369 0
M  V30 1259 O 122.212 1.76993 0.392851 0
M  V30 1260 C 122.26 1.81428 -3.11635 0
M  V30 1261 O 121.364 2.91265 -2.91956 0
M  V30 1262 H 120.705 0.264807 -0.608912 0
M  V30 1263 H 123.235 0.204695 -2.03573 0
M  V30 1264 H 123.245 2.21958 -3.42343 0
M  V30 1265 H 121.92 1.21004 -3.97908 0
M  V30 1266 H 120.497 2.54514 -2.72538 0
M  V30 1267 N 122.682 1.50554 0.465978 0
M  V30 1268 C 123.614 1.65949 1.58093 0
M  V30 1269 C 124.627 0.540827 1.53554 0
M  V30 1270 O 125.816 0.814187 1.5885 0
M  V30 1271 C 122.916 1.63261 2.96983 0
M  V30 1272 C 122.089 2.91245 3.26336 0
M  V30 1273 C 121.148 2.8113 4.44806 0
M  V30 1274 O 120.174 3.55086 4.44862 0
M  V30 1275 N 121.376 1.95032 5.46756 0
M  V30 1276 H 124.141 2.62122 1.45301 0
M  V30 1277 H 121.702 1.48082 0.65448 0
M  V30 1278 H 123.694 1.54101 3.74212 0
M  V30 1279 H 122.264 0.748032 3.03518 0
M  V30 1280 H 121.484 3.14493 2.37672 0
M  V30 1281 H 122.772 3.76022 3.42761 0
M  V30 1282 H 122.17 1.3427 5.49534 0
M  V30 1283 H 120.727 1.91772 6.2295 0
M  V30 1284 N 124.16 -0.719506 1.40217 0
M  V30 1285 C 125.406 -1.48152 1.38488 0
M  V30 1286 C 125.739 -1.94195 -0.0141867 0
M  V30 1287 O 125.014 -1.67884 -0.982096 0
M  V30 1288 C 125.297 -2.71035 2.37091 0
M  V30 1289 C 125.15 -2.30912 3.86005 0
M  V30 1290 C 126.469 -3.73182 2.33288 0
M  V30 1291 H 123.588 -0.537395 0.504357 0
M  V30 1292 H 126.23 -0.821472 1.71324 0
M  V30 1293 H 124.38 -3.27352 2.0922 0
M  V30 1294 H 126.052 -1.80107 4.24687 0
M  V30 1295 H 124.295 -1.62958 4.02029 0
M  V30 1296 H 124.966 -3.18978 4.50508 0
M  V30 1297 H 127.442 -3.26485 2.57966 0
M  V30 1298 H 126.318 -4.56806 3.04334 0
M  V30 1299 H 126.579 -4.21202 1.34317 0
M  V30 1300 N 125.638 -1.25649 -0.95132 0
M  V30 1301 C 126.863 -1.13443 -1.73624 0
M  V30 1302 C 127.288 0.307565 -1.85568 0
M  V30 1303 O 126.646 1.22282 -1.33854 0
M  V30 1304 C 126.694 -1.79723 -3.12621 0
M  V30 1305 O 125.798 -1.07912 -3.98031 0
M  V30 1306 H 125.139 -0.395872 -0.533086 0
M  V30 1307 H 127.669 -1.66276 -1.1922 0
M  V30 1308 H 127.679 -1.86141 -3.63064 0
M  V30 1309 H 126.354 -2.84633 -3.03244 0
M  V30 1310 H 124.931 -1.09398 -3.56492 0
M  V30 1311 N 127.117 1.15442 -1.07289 0
M  V30 1312 C 128.065 2.22225 -0.686952 0
M  V30 1313 C 129.059 1.66688 0.30193 0
M  V30 1314 O 130.265 1.79236 0.165712 0
M  V30 1315 H 126.64 0.723783 -0.204064 0
M  V30 1316 H 128.611 2.52056 -1.5972 0
M  V30 1317 C 127.36 3.47556 -0.100149 0
M  V30 1318 H 126.683 3.90612 -0.852211 0
M  V30 1319 H 128.123 4.23794 0.132235 0
M  V30 1320 C 126.582 3.16337 1.159 0
M  V30 1321 O 127.112 3.33074 2.24555 0
M  V30 1322 N 125.318 2.70385 1.06491 0
M  V30 1323 H 124.865 2.56966 0.180668 0
M  V30 1324 H 124.823 2.49871 1.90819 0
M  V30 1325 N 128.595 0.856903 1.32268 0
M  V30 1326 C 129.525 0.31858 2.31316 0
M  V30 1327 C 130.506 -0.583487 1.59779 0
M  V30 1328 O 131.691 -0.503259 1.87566 0
M  V30 1329 C 128.821 -0.491979 3.43798 0
M  V30 1330 C 127.775 0.315849 4.26833 0
M  V30 1331 C 127.101 -0.619586 5.31098 0
M  V30 1332 C 128.401 1.54282 4.98993 0
M  V30 1333 H 130.095 1.14621 2.76591 0
M  V30 1334 H 127.641 0.552613 1.32974 0
M  V30 1335 H 129.594 -0.879012 4.1213 0
M  V30 1336 H 128.318 -1.35299 2.97257 0
M  V30 1337 H 126.977 0.684664 3.6015 0
M  V30 1338 H 126.625 -1.47751 4.8081 0
M  V30 1339 H 126.325 -0.0830621 5.87541 0
M  V30 1340 H 127.849 -1.00375 6.02293 0
M  V30 1341 H 129.263 1.22796 5.59995 0
M  V30 1342 H 127.66 2.01745 5.65172 0
M  V30 1343 H 128.73 2.30285 4.26728 0
M  V30 1344 N 130.073 -1.45103 0.615059 0
M  V30 1345 C 131.321 -2.01784 0.112955 0
M  V30 1346 C 131.642 -1.48504 -1.26378 0
M  V30 1347 O 130.912 -0.682245 -1.83636 0
M  V30 1348 H 129.492 -0.745993 0.0387668 0
M  V30 1349 H 132.154 -1.77808 0.798141 0
M  V30 1350 H 131.25 -3.12025 0.0684069 0
M  V30 1351 N 131.551 -0.354651 -1.53558 0
M  V30 1352 C 132.484 0.540273 -2.21712 0
M  V30 1353 C 133.462 1.09161 -1.2051 0
M  V30 1354 O 134.646 1.14979 -1.49372 0
M  V30 1355 C 131.773 1.74435 -2.90328 0
M  V30 1356 C 130.819 1.32146 -4.05512 0
M  V30 1357 S 131.652 0.331924 -5.3447 0
M  V30 1358 C 132.808 1.54258 -6.06593 0
M  V30 1359 H 133.041 -0.0385776 -2.97275 0
M  V30 1360 H 130.574 -0.138736 -1.53775 0
M  V30 1361 H 132.532 2.43507 -3.30476 0
M  V30 1362 H 131.193 2.29444 -2.1451 0
M  V30 1363 H 130.386 2.21952 -4.52497 0
M  V30 1364 H 129.988 0.710091 -3.67197 0
M  V30 1365 H 132.28 2.47534 -6.30661 0
M  V30 1366 H 133.223 1.11431 -6.99277 0
M  V30 1367 H 133.631 1.74367 -5.36895 0
M  V30 1368 N 133.029 1.57378 -0.0835403 0
M  V30 1369 C 134.277 1.93547 0.581718 0
M  V30 1370 C 134.598 0.96524 1.69435 0
M  V30 1371 O 133.868 0.0153369 1.95894 0
M  V30 1372 H 132.448 0.714521 0.217874 0
M  V30 1373 H 135.11 1.94366 -0.144158 0
M  V30 1374 H 134.206 2.95665 0.999423 0
M  V30 1375 N 134.507 -0.190092 1.56449 0
M  V30 1376 C 135.735 -0.925772 1.85033 0
M  V30 1377 C 136.15 -1.76638 0.666658 0
M  V30 1378 O 135.507 -1.78822 -0.364565 0
M  V30 1379 C 135.558 -1.81786 3.12468 0
M  V30 1380 O 135.279 -1.01118 4.26271 0
M  V30 1381 C 136.78 -2.6648 3.54265 0
M  V30 1382 H 134 -0.269872 0.614337 0
M  V30 1383 H 136.544 -0.195837 2.0356 0
M  V30 1384 H 134.699 -2.50136 2.95822 0
M  V30 1385 H 135.113 -1.61956 4.98869 0
M  V30 1386 H 136.587 -3.24722 4.46385 0
M  V30 1387 H 137.064 -3.40434 2.77491 0
M  V30 1388 H 137.67 -2.03493 3.73458 0
M  V30 1389 N 135.985 -1.50799 -0.457987 0
M  V30 1390 C 137.231 -1.62683 -1.21088 0
M  V30 1391 C 137.564 -0.332268 -1.91336 0
M  V30 1392 O 136.839 0.667043 -1.82704 0
M  V30 1393 C 137.122 -2.81615 -2.24422 0
M  V30 1394 C 136.975 -4.20989 -1.58392 0
M  V30 1395 C 138.294 -2.96085 -3.2561 0
M  V30 1396 H 135.413 -0.592087 -0.438864 0
M  V30 1397 H 138.055 -1.83225 -0.50286 0
M  V30 1398 H 136.205 -2.64231 -2.84806 0
M  V30 1399 H 137.877 -4.49994 -1.01504 0
M  V30 1400 H 136.12 -4.24641 -0.886704 0
M  V30 1401 H 136.791 -5.0016 -2.33547 0
M  V30 1402 H 139.267 -3.12042 -2.75262 0
M  V30 1403 H 138.143 -3.80902 -3.95228 0
M  V30 1404 H 138.404 -2.0726 -3.90507 0
M  V30 1405 N 137.463 0.71206 -1.40597 0
M  V30 1406 C 138.393 1.83889 -1.43899 0
M  V30 1407 C 139.374 1.67442 -0.299504 0
M  V30 1408 O 140.559 1.87421 -0.508624 0
M  V30 1409 C 137.689 3.21877 -1.30431 0
M  V30 1410 C 136.643 3.53002 -2.42019 0
M  V30 1411 C 135.969 4.90172 -2.13626 0
M  V30 1412 C 137.269 3.53643 -3.84362 0
M  V30 1413 H 138.963 1.81383 -2.38203 0
M  V30 1414 H 136.509 0.871237 -1.14654 0
M  V30 1415 H 138.462 4.00404 -1.31357 0
M  V30 1416 H 137.186 3.24968 -0.326049 0
M  V30 1417 H 135.845 2.76818 -2.40349 0
M  V30 1418 H 135.493 4.89869 -1.14182 0
M  V30 1419 H 135.193 5.11962 -2.88389 0
M  V30 1420 H 136.717 5.71028 -2.1624 0
M  V30 1421 H 138.131 4.22203 -3.87837 0
M  V30 1422 H 136.528 3.86961 -4.58673 0
M  V30 1423 H 137.598 2.52954 -4.13693 0
M  V30 1424 N 138.941 1.26152 0.944643 0
M  V30 1425 C 140.19 1.10883 1.68487 0
M  V30 1426 C 140.503 -0.348153 1.92477 0
M  V30 1427 O 141.709 -0.621459 2.64292 0
M  V30 1428 C 140.165 1.93624 3.03377 0
M  V30 1429 C 139.773 3.43875 2.87148 0
M  V30 1430 C 141.517 1.86954 3.81115 0
M  V30 1431 C 139.424 4.18875 4.1749 0
M  V30 1432 H 138.354 0.41135 0.631907 0
M  V30 1433 H 141.005 1.50433 1.05082 0
M  V30 1434 H 139.387 1.46904 3.67743 0
M  V30 1435 H 140.561 3.98338 2.31653 0
M  V30 1436 H 138.876 3.51744 2.22856 0
M  V30 1437 H 141.473 2.40275 4.77673 0
M  V30 1438 H 141.816 0.839518 4.07747 0
M  V30 1439 H 142.349 2.31477 3.23517 0
M  V30 1440 H 139.088 5.22332 3.96043 0
M  V30 1441 H 138.608 3.69193 4.72712 0
M  V30 1442 H 140.287 4.27134 4.85968 0
M  V30 1443 N 140.419 -1.14872 1.07899 0
M  V30 1444 C 141.667 -1.85422 0.803941 0
M  V30 1445 C 141.988 -1.83051 -0.67211 0
M  V30 1446 O 141.258 -1.27532 -1.48703 0
M  V30 1447 H 139.838 -0.686537 0.294408 0
M  V30 1448 H 142.5 -1.39226 1.3639 0
M  V30 1449 H 141.596 -2.90399 1.14346 0
M  V30 1450 N 141.898 -0.863906 -1.31812 0
M  V30 1451 C 143.175 -0.39275 -1.91616 0
M  V30 1452 C 143.555 1.12461 -1.7865 0
M  V30 1453 O 142.903 1.95045 -1.19037 0
M  V30 1454 C 143.113 -0.867385 -3.38049 0
M  V30 1455 C 144.461 -0.889966 -4.15168 0
M  V30 1456 O 145.485 -0.812635 -3.46806 0
M  V30 1457 O 144.344 -1.00079 -5.37258 0
M  V30 1458 H 141.438 -0.116358 -0.818773 0
M  V30 1459 H 143.984 -0.951418 -1.40521 0
M  V30 1460 H 142.756 -1.91081 -3.41473 0
M  V30 1461 H 142.379 -0.286687 -3.96565 0
M  V30 1462 N 143.376 1.44774 -0.622745 0
M  V30 1463 C 144.309 2.27792 0.136329 0
M  V30 1464 C 145.287 1.38041 0.859264 0
M  V30 1465 O 146.471 1.67478 0.86506 0
M  V30 1466 C 143.598 3.16776 1.19878 0
M  V30 1467 C 142.644 4.22575 0.57731 0
M  V30 1468 S 143.477 5.31825 -0.626294 0
M  V30 1469 C 144.633 6.24377 0.436378 0
M  V30 1470 H 144.866 2.91824 -0.567967 0
M  V30 1471 H 142.399 1.48838 -0.410677 0
M  V30 1472 H 144.357 3.68596 1.80686 0
M  V30 1473 H 143.018 2.5198 1.87523 0
M  V30 1474 H 142.211 4.84818 1.37721 0
M  V30 1475 H 141.813 3.73974 0.0440439 0
M  V30 1476 H 144.105 6.64689 1.31128 0
M  V30 1477 H 145.048 7.07941 -0.150271 0
M  V30 1478 H 145.456 5.59381 0.758513 0
M  V30 1479 N 144.854 0.36279 1.53368 0
M  V30 1480 C 146.102 -0.227326 2.00817 0
M  V30 1481 C 146.423 -1.49511 1.25186 0
M  V30 1482 O 145.693 -1.92482 0.364348 0
M  V30 1483 H 144.273 -0.0869923 0.741917 0
M  V30 1484 H 146.935 0.488381 1.88682 0
M  V30 1485 H 146.031 -0.456273 3.08747 0
M  V30 1486 N 146.332 -1.57332 0.0918853 0
M  V30 1487 C 147.265 -2.09499 -0.904735 0
M  V30 1488 C 148.243 -1.00479 -1.27839 0
M  V30 1489 O 149.427 -1.27954 -1.38419 0
M  V30 1490 C 146.554 -2.56931 -2.2069 0
M  V30 1491 C 145.6 -3.77579 -1.98334 0
M  V30 1492 S 146.433 -5.21317 -1.22428 0
M  V30 1493 C 147.589 -5.72097 -2.53882 0
M  V30 1494 H 147.822 -2.93705 -0.460922 0
M  V30 1495 H 145.355 -1.53923 -0.121332 0
M  V30 1496 H 147.313 -2.84917 -2.95521 0
M  V30 1497 H 145.974 -1.72956 -2.62192 0
M  V30 1498 H 145.167 -4.08824 -2.94752 0
M  V30 1499 H 144.769 -3.5007 -1.31633 0
M  V30 1500 H 147.061 -5.80168 -3.49874 0
M  V30 1501 H 148.004 -6.70654 -2.27219 0
M  V30 1502 H 148.412 -5.00012 -2.62007 0
M  V30 1503 N 147.81 0.181792 -1.56548 0
M  V30 1504 C 149.221 0.745244 -1.71181 0
M  V30 1505 C 149.572 1.83262 -0.70068 0
M  V30 1506 O 148.697 2.15946 0.140154 0
M  V30 1507 C 149.292 1.35859 -3.10367 0
M  V30 1508 C 147.851 1.86898 -3.2672 0
M  V30 1509 C 146.998 0.743942 -2.67134 0
M  V30 1510 H 149.949 -0.0434661 -1.5864 0
M  V30 1511 H 149.97 2.22817 -3.08436 0
M  V30 1512 H 149.482 0.566948 -3.83937 0
M  V30 1513 H 147.583 2.68738 -2.5809 0
M  V30 1514 H 147.696 2.02162 -4.34359 0
M  V30 1515 H 146.06 1.16169 -2.26665 0
M  V30 1516 H 146.843 -0.035676 -3.43281 0
M  V30 1517 N 149.288 1.51039 0.449983 0
M  V30 1518 C 150.251 1.70863 1.5277 0
M  V30 1519 C 151.251 0.578846 1.5002 0
M  V30 1520 O 152.441 0.846213 1.52266 0
M  V30 1521 C 149.573 1.75341 2.9235 0
M  V30 1522 H 150.766 2.67034 1.36502 0
M  V30 1523 H 148.319 1.40838 0.677812 0
M  V30 1524 H 149.054 0.809383 3.14037 0
M  V30 1525 H 148.839 2.57436 2.95752 0
M  V30 1526 H 150.329 1.92559 3.70555 0
M  V30 1527 N 150.766 -0.704594 1.40972 0
M  V30 1528 C 152.014 -1.46169 1.39568 0
M  V30 1529 C 152.335 -1.95 0.00253745 0
M  V30 1530 O 151.605 -1.71095 -0.954114 0
M  V30 1531 H 150.185 -0.542326 0.513704 0
M  V30 1532 H 152.847 -0.834553 1.76128 0
M  V30 1533 H 151.943 -2.32922 2.07735 0
M  V30 1534 N 152.244 -1.26651 -0.937939 0
M  V30 1535 C 153.492 -1.12165 -1.68118 0
M  V30 1536 C 153.813 0.334983 -1.92101 0
M  V30 1537 O 153.083 1.23583 -1.52 0
M  V30 1538 H 151.663 -0.412093 -0.623048 0
M  V30 1539 H 154.325 -1.59027 -1.12678 0
M  V30 1540 H 153.421 -1.64289 -2.6536 0
M  V30 1541 N 153.722 1.14298 -1.08507 0
M  V30 1542 C 155.138 1.37347 -0.812901 0
M  V30 1543 C 155.338 1.93052 0.577325 0
M  V30 1544 O 154.394 2.14389 1.33393 0
M  V30 1545 C 155.707 2.33359 -1.89642 0
M  V30 1546 C 157.255 2.46996 -1.92255 0
M  V30 1547 C 157.73 3.46309 -2.99724 0
M  V30 1548 N 159.221 3.53853 -2.98902 0
M  V30 1549 C 159.956 4.3055 -3.787 0
M  V30 1550 N 159.452 5.10482 -4.6838 0
M  V30 1551 N 161.245 4.25757 -3.66998 0
M  V30 1552 H 153.396 0.764867 -1.9815 0
M  V30 1553 H 155.659 0.398966 -0.859959 0
M  V30 1554 H 155.365 1.99565 -2.89597 0
M  V30 1555 H 155.239 3.33274 -1.76659 0
M  V30 1556 H 157.626 2.80081 -0.929445 0
M  V30 1557 H 157.707 1.47039 -2.09316 0
M  V30 1558 H 157.351 3.13957 -3.99241 0
M  V30 1559 H 157.281 4.46049 -2.79907 0
M  V30 1560 H 159.772 2.96812 -2.33904 0
M  V30 1561 H 160.085 5.66284 -5.25873 0
M  V30 1562 H 158.43 5.09747 -4.72422 0
M  V30 1563 H 161.621 3.62383 -2.96304 0
M  V30 1564 H 161.794 4.85279 -4.29427 0
M  V30 1565 N 155.201 0.870884 1.31352 0
M  V30 1566 C 156.448 0.482273 1.96673 0
M  V30 1567 C 156.776 -0.965638 1.68836 0
M  V30 1568 O 156.031 -1.69514 0.977937 0
M  V30 1569 C 156.33 0.687157 3.50732 0
M  V30 1570 C 155.996 2.108 3.9859 0
M  V30 1571 C 154.658 2.49656 4.1137 0
M  V30 1572 C 157.01 3.03459 4.23748 0
M  V30 1573 C 154.338 3.80412 4.46659 0
M  V30 1574 C 156.69 4.3373 4.60501 0
M  V30 1575 C 155.354 4.725 4.71487 0
M  V30 1576 H 154.624 0.176476 0.719679 0
M  V30 1577 H 157.271 1.10405 1.56471 0
M  V30 1578 H 155.576 -0.0177476 3.91796 0
M  V30 1579 H 157.273 0.366284 3.99324 0
M  V30 1580 H 153.863 1.79633 3.8914 0
M  V30 1581 H 158.047 2.74665 4.13368 0
M  V30 1582 H 153.303 4.1021 4.53362 0
M  V30 1583 H 157.477 5.05578 4.78919 0
M  V30 1584 H 155.104 5.73859 4.98588 0
M  V30 1585 N 156.679 -1.44442 0.630414 0
M  V30 1586 C 157.627 -2.32437 -0.0871428 0
M  V30 1587 C 158.621 -1.47304 -0.836525 0
M  V30 1588 O 159.827 -1.63653 -0.749506 0
M  V30 1589 H 156.202 -0.750533 -0.0469495 0
M  V30 1590 H 158.173 -2.90709 0.673096 0
M  V30 1591 C 156.922 -3.31288 -1.05563 0
M  V30 1592 H 156.245 -3.96805 -0.488426 0
M  V30 1593 H 157.685 -3.9554 -1.52721 0
M  V30 1594 C 156.144 -2.6016 -2.14052 0
M  V30 1595 O 156.674 -2.39997 -3.22124 0
M  V30 1596 N 154.88 -2.19911 -1.89967 0
M  V30 1597 H 154.427 -2.36509 -1.02085 0
M  V30 1598 H 154.385 -1.72646 -2.62756 0
M  V30 1599 N 158.157 -0.370918 -1.53173 0
M  V30 1600 C 159.405 0.216673 -2.00935 0
M  V30 1601 C 159.726 1.48845 -1.25977 0
M  V30 1602 O 158.996 1.92286 -0.374551 0
M  V30 1603 H 157.576 0.0830565 -0.742368 0
M  V30 1604 H 160.238 -0.49838 -1.8842 0
M  V30 1605 H 159.334 0.439893 -3.08984 0
M  V30 1606 N 159.635 1.57281 -0.100228 0
M  V30 1607 C 160.883 1.94153 0.561157 0
M  V30 1608 C 161.204 0.983157 1.68401 0
M  V30 1609 O 160.474 0.0361132 1.95867 0
M  V30 1610 H 159.054 0.716791 0.210283 0
M  V30 1611 H 161.716 1.94202 -0.164765 0
M  V30 1612 H 160.812 2.96709 0.968008 0
M  V30 1613 N 161.113 -0.173488 1.56642 0
M  V30 1614 C 162.063 -1.21941 1.92651 0
M  V30 1615 C 163.047 -1.39912 0.794577 0
M  V30 1616 O 164.239 -1.41919 1.05773 0
M  V30 1617 C 161.368 -2.55935 2.28806 0
M  V30 1618 C 160.454 -2.41667 3.48508 0
M  V30 1619 N 160.845 -1.9711 4.65813 0
M  V30 1620 C 159.143 -2.72499 3.53072 0
M  V30 1621 C 159.844 -1.95253 5.47952 0
M  V30 1622 N 158.82 -2.37575 4.88937 0
M  V30 1623 H 162.622 -0.866581 2.80834 0
M  V30 1624 H 160.136 -0.381776 1.57849 0
M  V30 1625 H 162.133 -3.31511 2.52797 0
M  V30 1626 H 160.793 -2.92022 1.41961 0
M  V30 1627 H 161.804 -1.67481 4.90072 0
M  V30 1628 H 158.481 -3.12639 2.767 0
M  V30 1629 H 159.871 -1.6252 6.51948 0
M  V30 1630 N 162.591 -1.51276 -0.441967 0
M  V30 1631 C 163.554 -1.7167 -1.51862 0
M  V30 1632 C 164.554 -0.586793 -1.49711 0
M  V30 1633 O 165.744 -0.854276 -1.51815 0
M  V30 1634 C 162.876 -1.76889 -2.91416 0
M  V30 1635 H 164.069 -2.67754 -1.35084 0
M  V30 1636 H 161.622 -1.41196 -0.670333 0
M  V30 1637 H 162.357 -0.826026 -3.13604 0
M  V30 1638 H 162.142 -2.59001 -2.94382 0
M  V30 1639 H 163.632 -1.94522 -3.69528 0
M  V30 1640 N 164.069 0.697108 -1.41344 0
M  V30 1641 C 165.294 1.49096 -1.44171 0
M  V30 1642 C 165.719 1.88038 -0.0481568 0
M  V30 1643 O 165.077 1.54525 0.948243 0
M  V30 1644 C 165.125 2.73088 -2.3549 0
M  V30 1645 O 164.229 3.70514 -1.81088 0
M  V30 1646 H 163.57 0.448801 -0.489361 0
M  V30 1647 H 166.1 0.856992 -1.85787 0
M  V30 1648 H 166.11 3.21413 -2.51312 0
M  V30 1649 H 164.785 2.44081 -3.36745 0
M  V30 1650 H 163.362 3.29441 -1.74708 0
M  V30 1651 N 165.547 1.27147 0.931209 0
M  V30 1652 C 166.497 1.06227 2.01742 0
M  V30 1653 C 167.481 -0.00859065 1.60898 0
M  V30 1654 O 168.673 0.209537 1.75755 0
M  V30 1655 C 165.802 0.707787 3.35924 0
M  V30 1656 C 164.888 1.81661 3.83223 0
M  V30 1657 N 165.279 3.05564 4.03069 0
M  V30 1658 C 163.577 1.70249 4.12227 0
M  V30 1659 C 164.278 3.77697 4.42403 0
M  V30 1660 N 163.254 3.0544 4.49675 0
M  V30 1661 H 167.056 2.00261 2.15111 0
M  V30 1662 H 164.57 1.1781 1.11779 0
M  V30 1663 H 166.567 0.539043 4.134 0
M  V30 1664 H 165.227 -0.224964 3.2392 0
M  V30 1665 H 166.238 3.41363 3.89476 0
M  V30 1666 H 162.915 0.840329 4.08956 0
M  V30 1667 H 164.305 4.84168 4.65866 0
M  V30 1668 N 167.025 -1.13721 1.09112 0
M  V30 1669 C 167.957 -2.1871 0.685467 0
M  V30 1670 C 168.97 -1.60527 -0.271068 0
M  V30 1671 O 170.159 -1.78407 -0.0576148 0
M  V30 1672 C 167.259 -3.38898 -0.0111255 0
M  V30 1673 C 166.432 -4.26597 0.966131 0
M  V30 1674 C 165.491 -5.25324 0.303539 0
M  V30 1675 O 164.517 -5.61213 0.950177 0
M  V30 1676 N 165.719 -5.72779 -0.943651 0
M  V30 1677 H 168.484 -2.54126 1.58871 0
M  V30 1678 H 166.045 -1.29012 0.978143 0
M  V30 1679 H 168.037 -4.02014 -0.465517 0
M  V30 1680 H 166.607 -3.01747 -0.816565 0
M  V30 1681 H 165.827 -3.60306 1.59917 0
M  V30 1682 H 167.115 -4.82048 1.6281 0
M  V30 1683 H 166.513 -5.45762 -1.48862 0
M  V30 1684 H 165.07 -6.37847 -1.34142 0
M  V30 1685 N 168.503 -0.877838 -1.30888 0
M  V30 1686 C 169.731 -0.507414 -2.00581 0
M  V30 1687 C 170.146 0.902216 -1.65848 0
M  V30 1688 O 169.503 1.59225 -0.891831 0
M  V30 1689 C 169.554 -0.664162 -3.55347 0
M  V30 1690 O 169.275 -2.01829 -3.8884 0
M  V30 1691 C 170.776 -0.295787 -4.42312 0
M  V30 1692 H 167.996 -0.196866 -0.641471 0
M  V30 1693 H 170.54 -1.18117 -1.66939 0
M  V30 1694 H 168.695 -0.0378619 -3.87381 0
M  V30 1695 H 169.109 -2.03174 -4.8355 0
M  V30 1696 H 170.583 -0.456388 -5.5011 0
M  V30 1697 H 171.06 0.765663 -4.32475 0
M  V30 1698 H 171.666 -0.898113 -4.15709 0
M  V30 1699 N 169.982 1.44106 -0.638065 0
M  V30 1700 C 171.23 2.01579 -0.145043 0
M  V30 1701 C 171.551 1.50496 1.24 0
M  V30 1702 O 170.821 0.711374 1.82527 0
M  V30 1703 H 169.401 0.745282 -0.05063 0
M  V30 1704 H 172.063 1.76516 -0.826327 0
M  V30 1705 H 171.159 3.11877 -0.118039 0
M  V30 1706 N 171.46 0.379036 1.52974 0
M  V30 1707 C 172.39 -0.452706 2.29069 0
M  V30 1708 C 173.371 -1.07237 1.32039 0
M  V30 1709 O 174.556 -1.08708 1.60923 0
M  V30 1710 C 171.686 -1.5856 3.08992 0
M  V30 1711 C 170.64 -1.0925 4.13822 0
M  V30 1712 C 169.966 -2.31668 4.81907 0
M  V30 1713 C 171.266 -0.167702 5.22031 0
M  V30 1714 H 172.96 0.182181 2.98845 0
M  V30 1715 H 170.506 0.0890592 1.43724 0
M  V30 1716 H 172.459 -2.1742 3.6098 0
M  V30 1717 H 171.183 -2.24792 2.36931 0
M  V30 1718 H 169.842 -0.526494 3.628 0
M  V30 1719 H 169.49 -2.96386 4.06404 0
M  V30 1720 H 169.19 -1.9934 5.52754 0
M  V30 1721 H 170.714 -2.91189 5.36695 0
M  V30 1722 H 172.128 -0.664186 5.6944 0
M  V30 1723 H 170.525 0.0653265 6.00064 0
M  V30 1724 H 171.595 0.786347 4.78482 0
M  V30 1725 N 172.938 -1.57226 0.108567 0
M  V30 1726 C 174.215 -1.86333 -0.594939 0
M  V30 1727 C 174.595 -1.00788 -1.85486 0
M  V30 1728 O 173.943 -0.0839293 -2.28346 0
M  V30 1729 C 174.153 -3.37265 -0.897405 0
M  V30 1730 C 175.501 -4.05629 -1.25501 0
M  V30 1731 O 176.525 -3.42224 -0.987998 0
M  V30 1732 O 175.384 -5.17531 -1.75567 0
M  V30 1733 H 172.478 -0.771018 -0.2991 0
M  V30 1734 H 175.024 -1.69102 0.142283 0
M  V30 1735 H 173.796 -3.913 -0.00413806 0
M  V30 1736 H 173.419 -3.59889 -1.69014 0
M  V30 1737 N 174.416 0.165178 -1.56732 0
M  V30 1738 C 175.662 0.882112 -1.82611 0
M  V30 1739 C 175.995 1.81628 -0.687378 0
M  V30 1740 O 175.27 1.92009 0.310267 0
M  V30 1741 C 175.553 1.67245 -3.18906 0
M  V30 1742 C 175.406 0.760987 -4.43316 0
M  V30 1743 C 176.725 2.63884 -3.52212 0
M  V30 1744 H 173.844 0.319242 -0.664269 0
M  V30 1745 H 176.486 0.148052 -1.89422 0
M  V30 1746 H 174.636 2.29824 -3.1323 0
M  V30 1747 H 176.308 0.147596 -4.61064 0
M  V30 1748 H 174.551 0.0694102 -4.33744 0
M  V30 1749 H 175.222 1.34962 -5.35247 0
M  V30 1750 H 177.698 2.11429 -3.58381 0
M  V30 1751 H 176.574 3.16245 -4.48643 0
M  V30 1752 H 176.835 3.44377 -2.77231 0
M  V30 1753 N 175.894 1.51508 0.433938 0
M  V30 1754 C 177.171 1.54888 1.19453 0
M  V30 1755 C 177.551 0.315154 2.08734 0
M  V30 1756 O 176.899 -0.699558 2.17528 0
M  V30 1757 C 177.109 2.86467 1.99342 0
M  V30 1758 C 178.457 3.38545 2.56267 0
M  V30 1759 O 179.481 2.88041 2.0955 0
M  V30 1760 O 178.34 4.26675 3.41483 0
M  V30 1761 H 175.434 0.622863 0.544032 0
M  V30 1762 H 177.98 1.63823 0.442732 0
M  V30 1763 H 176.752 3.67718 1.33788 0
M  V30 1764 H 176.375 2.8071 2.8158 0
M  V30 1765 N 177.372 -0.689602 1.41712 0
M  V30 1766 C 178.621 -1.44534 1.40686 0
M  V30 1767 C 178.934 -1.95588 0.0213352 0
M  V30 1768 O 180.14 -2.71271 -0.111534 0
M  V30 1769 C 178.596 -2.61387 2.47396 0
M  V30 1770 C 178.204 -2.17094 3.91885 0
M  V30 1771 C 179.948 -3.38986 2.55517 0
M  V30 1772 C 177.855 -3.3094 4.90135 0
M  V30 1773 H 176.785 -0.542925 0.52321 0
M  V30 1774 H 179.436 -0.748054 1.6756 0
M  V30 1775 H 177.818 -3.33412 2.13664 0
M  V30 1776 H 178.992 -1.52318 4.34897 0
M  V30 1777 H 177.307 -1.52473 3.8748 0
M  V30 1778 H 179.904 -4.23747 3.26102 0
M  V30 1779 H 180.247 -3.84578 1.59391 0
M  V30 1780 H 180.78 -2.74021 2.8837 0
M  V30 1781 H 177.519 -2.90355 5.87685 0
M  V30 1782 H 177.039 -3.94546 4.51767 0
M  V30 1783 H 178.718 -3.9663 5.11169 0
M  V30 1784 N 178.85 -1.27639 -0.924453 0
M  V30 1785 C 180.097 -1.14167 -1.67249 0
M  V30 1786 C 180.425 0.311863 -1.91984 0
M  V30 1787 O 179.68 1.24425 -1.51053 0
M  V30 1788 C 179.979 -1.87407 -3.04325 0
M  V30 1789 C 179.645 -3.37249 -2.99289 0
M  V30 1790 C 178.307 -3.7812 -2.97622 0
M  V30 1791 C 180.659 -4.32845 -2.90336 0
M  V30 1792 C 177.987 -5.12944 -2.8479 0
M  V30 1793 C 180.339 -5.6773 -2.79045 0
M  V30 1794 C 179.003 -6.07889 -2.7573 0
M  V30 1795 H 178.273 -0.417766 -0.612007 0
M  V30 1796 H 180.92 -1.58286 -1.07786 0
M  V30 1797 H 179.225 -1.35805 -3.67511 0
M  V30 1798 H 180.922 -1.74408 -3.61086 0
M  V30 1799 H 177.512 -3.04748 -3.01374 0
M  V30 1800 H 181.696 -4.02239 -2.90719 0
M  V30 1801 H 176.952 -5.432 -2.80612 0
M  V30 1802 H 181.126 -6.41472 -2.71083 0
M  V30 1803 H 178.753 -7.12314 -2.65544 0
M  V30 1804 N 180.328 1.1314 -1.09713 0
M  V30 1805 C 181.258 2.20748 -0.761102 0
M  V30 1806 C 182.239 1.68061 0.262566 0
M  V30 1807 O 183.424 1.93765 0.129977 0
M  V30 1808 C 180.554 3.46812 -0.184054 0
M  V30 1809 C 179.508 4.12606 -1.13757 0
M  V30 1810 C 178.834 5.33031 -0.422083 0
M  V30 1811 C 180.134 4.59603 -2.48118 0
M  V30 1812 H 181.828 2.49113 -1.66082 0
M  V30 1813 H 179.374 1.19734 -0.799987 0
M  V30 1814 H 181.327 4.21353 0.0631215 0
M  V30 1815 H 180.051 3.17851 0.750868 0
M  V30 1816 H 178.71 3.40036 -1.37007 0
M  V30 1817 H 178.358 5.00335 0.517072 0
M  V30 1818 H 178.058 5.77999 -1.05788 0
M  V30 1819 H 179.582 6.10325 -0.183277 0
M  V30 1820 H 180.996 5.25552 -2.29059 0
M  V30 1821 H 179.393 5.15321 -3.07514 0
M  V30 1822 H 180.463 3.73971 -3.08665 0
M  V30 1823 N 181.806 0.884767 1.30421 0
M  V30 1824 C 182.738 0.308655 2.27112 0
M  V30 1825 C 183.751 -0.536655 1.53701 0
M  V30 1826 O 184.94 -0.35624 1.74909 0
M  V30 1827 C 182.04 -0.579782 3.33904 0
M  V30 1828 C 181.213 0.236417 4.36761 0
M  V30 1829 C 180.272 -0.582482 5.22966 0
M  V30 1830 O 179.298 -0.00525502 5.692 0
M  V30 1831 N 180.5 -1.89163 5.48815 0
M  V30 1832 H 183.265 1.13964 2.77186 0
M  V30 1833 H 180.826 0.747731 1.43599 0
M  V30 1834 H 182.818 -1.13366 3.88497 0
M  V30 1835 H 181.388 -1.31144 2.83761 0
M  V30 1836 H 180.608 0.97174 3.82035 0
M  V30 1837 H 181.896 0.795924 5.02536 0
M  V30 1838 H 181.294 -2.38352 5.13035 0
M  V30 1839 H 179.851 -2.39296 6.06284 0
M  V30 1840 N 183.284 -1.43765 0.645699 0
M  V30 1841 C 184.214 -2.33471 -0.0370477 0
M  V30 1842 C 185.195 -1.49042 -0.819779 0
M  V30 1843 O 186.38 -1.77726 -0.782758 0
M  V30 1844 C 183.51 -3.32311 -1.0093 0
M  V30 1845 C 182.464 -4.2667 -0.337201 0
M  V30 1846 C 181.79 -5.1549 -1.42037 0
M  V30 1847 C 183.09 -5.16657 0.765706 0
M  V30 1848 H 184.784 -2.90809 0.712069 0
M  V30 1849 H 182.33 -1.39834 0.343876 0
M  V30 1850 H 184.283 -3.9396 -1.49578 0
M  V30 1851 H 183.007 -2.73213 -1.78948 0
M  V30 1852 H 181.666 -3.66374 0.128771 0
M  V30 1853 H 181.314 -4.52735 -2.1918 0
M  V30 1854 H 181.014 -5.79438 -0.975966 0
M  V30 1855 H 182.538 -5.80012 -1.90838 0
M  V30 1856 H 183.952 -5.72158 0.361702 0
M  V30 1857 H 182.349 -5.89286 1.13413 0
M  V30 1858 H 183.419 -4.56796 1.62683 0
M  V30 1859 N 184.763 -0.387143 -1.52771 0
M  V30 1860 C 186.174 0.0873634 -1.86495 0
M  V30 1861 C 186.525 1.46336 -1.30691 0
M  V30 1862 O 185.65 2.068 -0.637409 0
M  V30 1863 C 186.245 0.165305 -3.38396 0
M  V30 1864 C 184.804 0.584101 -3.7184 0
M  V30 1865 C 183.951 -0.255279 -2.76122 0
M  V30 1866 H 186.902 -0.605104 -1.46711 0
M  V30 1867 H 186.923 0.984848 -3.67534 0
M  V30 1868 H 186.435 -0.836301 -3.78982 0
M  V30 1869 H 184.536 1.59315 -3.36823 0
M  V30 1870 H 184.649 0.343749 -4.77865 0
M  V30 1871 H 183.013 0.279126 -2.53166 0
M  V30 1872 H 183.796 -1.25482 -3.19545 0
M  V30 1873 N 186.241 1.57166 -0.116904 0
M  V30 1874 C 187.188 2.15202 0.83408 0
M  V30 1875 C 188.158 1.07644 1.26499 0
M  V30 1876 O 189.343 1.35541 1.34288 0
M  V30 1877 C 186.483 2.75405 2.07957 0
M  V30 1878 C 185.596 3.97264 1.69721 0
M  V30 1879 C 184.731 4.45561 2.89221 0
M  V30 1880 C 183.77 5.59956 2.47215 0
M  V30 1881 N 182.907 6.03006 3.59622 0
M  V30 1882 H 187.747 2.96141 0.332335 0
M  V30 1883 H 185.284 1.46309 0.152349 0
M  V30 1884 H 187.242 3.08439 2.80929 0
M  V30 1885 H 185.872 1.97159 2.55594 0
M  V30 1886 H 184.924 3.70404 0.866316 0
M  V30 1887 H 186.236 4.80226 1.34849 0
M  V30 1888 H 185.39 4.80493 3.7042 0
M  V30 1889 H 184.129 3.61544 3.27318 0
M  V30 1890 H 183.134 5.2463 1.64448 0
M  V30 1891 H 184.359 6.45738 2.10238 0
M  V30 1892 H 182.305 5.21931 3.97396 0
M  V30 1893 H 182.222 6.80819 3.28667 0
M  V30 1894 H 183.49 6.42576 4.41267 0
M  V30 1895 N 187.719 -0.156864 1.56817 0
M  V30 1896 C 188.947 -0.886316 1.86955 0
M  V30 1897 C 189.362 -1.75185 0.703975 0
M  V30 1898 O 188.719 -1.79555 -0.326552 0
M  V30 1899 C 188.77 -1.75117 3.16253 0
M  V30 1900 O 188.491 -0.920537 4.2832 0
M  V30 1901 C 189.992 -2.58905 3.59837 0
M  V30 1902 H 187.212 -0.25678 0.619923 0
M  V30 1903 H 189.756 -0.152615 2.0393 0
M  V30 1904 H 187.911 -2.43805 3.01062 0
M  V30 1905 H 188.325 -1.51337 5.02192 0
M  V30 1906 H 189.799 -3.1518 4.53172 0
M  V30 1907 H 190.276 -3.34472 2.84649 0
M  V30 1908 H 190.882 -1.95526 3.7769 0
M  V30 1909 N 189.197 -1.51736 -0.425897 0
M  V30 1910 C 190.613 -1.40166 -0.76326 0
M  V30 1911 C 190.813 -0.492962 -1.95377 0
M  V30 1912 O 189.869 0.0475815 -2.52455 0
M  V30 1913 C 191.182 -2.82403 -1.03291 0
M  V30 1914 C 192.73 -2.91632 -1.13665 0
M  V30 1915 C 193.205 -4.34801 -1.43916 0
M  V30 1916 N 194.696 -4.3796 -1.50816 0
M  V30 1917 C 195.431 -5.4578 -1.75817 0
M  V30 1918 N 194.927 -6.63744 -1.98534 0
M  V30 1919 N 196.72 -5.33274 -1.77694 0
M  V30 1920 H 188.871 -2.09361 0.358 0
M  V30 1921 H 191.134 -0.942941 0.0978094 0
M  V30 1922 H 190.84 -3.50943 -0.230696 0
M  V30 1923 H 190.714 -3.22428 -1.95754 0
M  V30 1924 H 193.101 -2.23284 -1.92947 0
M  V30 1925 H 193.182 -2.55088 -0.190756 0
M  V30 1926 H 192.826 -5.03703 -0.65157 0
M  V30 1927 H 192.756 -4.68868 -2.39729 0
M  V30 1928 H 195.247 -3.52919 -1.35118 0
M  V30 1929 H 195.56 -7.41704 -2.17013 0
M  V30 1930 H 193.905 -6.66839 -1.95832 0
M  V30 1931 H 197.096 -4.40098 -1.59473 0
M  V30 1932 H 197.269 -6.1738 -1.9684 0
M  V30 1933 N 190.675 0.682077 -1.42076 0
M  V30 1934 C 191.921 1.44283 -1.43366 0
M  V30 1935 C 192.276 1.92344 -0.0465775 0
M  V30 1936 O 191.569 1.67517 0.929973 0
M  V30 1937 C 191.763 2.66036 -2.38662 0
M  V30 1938 C 191.592 2.29889 -3.86499 0
M  V30 1939 C 190.362 2.19599 -4.55087 0
M  V30 1940 C 192.56 1.91999 -4.77117 0
M  V30 1941 N 190.542 1.76478 -5.87987 0
M  V30 1942 C 191.913 1.59741 -5.99068 0
M  V30 1943 C 193.968 1.78927 -4.64639 0
M  V30 1944 C 192.671 1.15723 -7.0993 0
M  V30 1945 C 194.697 1.36314 -5.75476 0
M  V30 1946 C 194.059 1.04975 -6.96534 0
M  V30 1947 H 190.158 0.524739 -0.579805 0
M  V30 1948 H 192.742 0.787834 -1.78048 0
M  V30 1949 H 190.913 3.29237 -2.06053 0
M  V30 1950 H 192.645 3.32588 -2.30581 0
M  V30 1951 H 189.4 2.38433 -4.09202 0
M  V30 1952 H 189.824 1.57362 -6.58458 0
M  V30 1953 H 194.466 2.01805 -3.7153 0
M  V30 1954 H 192.184 0.91591 -8.02893 0
M  V30 1955 H 195.77 1.26731 -5.6783 0
M  V30 1956 H 194.65 0.725017 -7.80841 0
M  V30 1957 N 192.153 1.28127 0.917671 0
M  V30 1958 C 193.381 1.17892 1.70026 0
M  V30 1959 C 193.796 -0.262958 1.8696 0
M  V30 1960 O 193.153 -1.17811 1.3938 0
M  V30 1961 C 193.204 1.86872 3.09453 0
M  V30 1962 O 192.925 3.25428 2.93306 0
M  V30 1963 C 194.426 1.8289 4.03815 0
M  V30 1964 H 191.646 0.40942 0.531617 0
M  V30 1965 H 194.19 1.69181 1.14883 0
M  V30 1966 H 192.345 1.39464 3.61426 0
M  V30 1967 H 192.759 3.59918 3.81523 0
M  V30 1968 H 194.233 2.35751 4.99125 0
M  V30 1969 H 194.71 0.800412 4.31845 0
M  V30 1970 H 195.316 2.29959 3.57769 0
M  V30 1971 N 193.631 -1.12557 1.10312 0
M  V30 1972 C 194.856 -1.88405 0.867085 0
M  V30 1973 C 195.281 -1.79038 -0.576817 0
M  V30 1974 O 194.639 -1.14439 -1.40618 0
M  V30 1975 C 194.687 -3.3563 1.31851 0
M  V30 1976 O 193.791 -4.09565 0.482734 0
M  V30 1977 H 193.132 -0.585455 0.313271 0
M  V30 1978 H 195.662 -1.42352 1.4696 0
M  V30 1979 H 195.672 -3.86469 1.3079 0
M  V30 1980 H 194.347 -3.41765 2.37001 0
M  V30 1981 H 192.924 -3.68695 0.558448 0
M  V30 1982 N 195.109 -0.891671 -1.2995 0
M  V30 1983 C 196.072 -0.36828 -2.26222 0
M  V30 1984 C 197.072 0.493014 -1.53056 0
M  V30 1985 O 198.262 0.299213 -1.71611 0
M  V30 1986 C 195.394 0.47442 -3.37583 0
M  V30 1987 H 196.587 -1.21844 -2.74033 0
M  V30 1988 H 194.14 -0.669107 -1.41254 0
M  V30 1989 H 194.875 1.34489 -2.95099 0
M  V30 1990 H 194.66 -0.142615 -3.91841 0
M  V30 1991 H 196.15 0.83218 -4.09224 0
M  V30 1992 N 196.587 1.43421 -0.653314 0
M  V30 1993 C 197.519 2.29071 0.0769134 0
M  V30 1994 C 198.532 1.42513 0.787017 0
M  V30 1995 O 199.721 1.66449 0.644757 0
M  V30 1996 C 196.821 3.19436 1.13199 0
M  V30 1997 C 195.994 4.34533 0.500006 0
M  V30 1998 C 195.053 5.05771 1.45198 0
M  V30 1999 O 194.079 5.61037 0.960538 0
M  V30 2000 N 195.281 5.0928 2.78594 0
M  V30 2001 H 198.046 2.92382 -0.658235 0
M  V30 2002 H 195.607 1.54112 -0.496104 0
M  V30 2003 H 197.599 3.63958 1.76964 0
M  V30 2004 H 196.169 2.57724 1.7691 0
M  V30 2005 H 195.389 3.92925 -0.316738 0
M  V30 2006 H 196.677 5.08766 0.0588345 0
M  V30 2007 H 196.075 4.65751 3.2108 0
M  V30 2008 H 194.632 5.57519 3.37662 0
M  V30 2009 N 198.065 0.39524 1.52563 0
M  V30 2010 C 198.995 -0.428384 2.29537 0
M  V30 2011 C 199.976 -1.05831 1.33169 0
M  V30 2012 O 201.161 -1.06995 1.62067 0
M  V30 2013 C 198.291 -1.55274 3.10656 0
M  V30 2014 C 197.245 -1.04855 4.14957 0
M  V30 2015 C 196.571 -2.26543 4.84337 0
M  V30 2016 C 197.871 -0.112324 5.22179 0
M  V30 2017 H 199.565 0.213867 2.98635 0
M  V30 2018 H 197.111 0.104298 1.43622 0
M  V30 2019 H 199.064 -2.1358 3.63265 0
M  V30 2020 H 197.788 -2.22266 2.39302 0
M  V30 2021 H 196.447 -0.487985 3.63338 0
M  V30 2022 H 196.095 -2.92059 4.09525 0
M  V30 2023 H 195.795 -1.93466 5.54837 0
M  V30 2024 H 197.319 -2.85481 5.39753 0
M  V30 2025 H 198.733 -0.603752 5.70112 0
M  V30 2026 H 197.13 0.128968 5.99961 0
M  V30 2027 H 198.2 0.837052 4.77621 0
M  V30 2028 N 199.544 -1.57102 0.125237 0
M  V30 2029 C 200.474 -2.18659 -0.819174 0
M  V30 2030 C 201.455 -1.12843 -1.27281 0
M  V30 2031 O 202.64 -1.41104 -1.33429 0
M  V30 2032 C 199.77 -2.79096 -2.06695 0
M  V30 2033 C 198.724 -3.90548 -1.75088 0
M  V30 2034 C 198.05 -4.37821 -3.06948 0
M  V30 2035 C 199.35 -5.12356 -1.01435 0
M  V30 2036 H 201.044 -2.9783 -0.306202 0
M  V30 2037 H 198.59 -1.4326 -0.145839 0
M  V30 2038 H 200.543 -3.2082 -2.73226 0
M  V30 2039 H 199.267 -1.97223 -2.60328 0
M  V30 2040 H 197.926 -3.49409 -1.10944 0
M  V30 2041 H 197.574 -3.52799 -3.58527 0
M  V30 2042 H 197.274 -5.12982 -2.86571 0
M  V30 2043 H 198.798 -4.822 -3.74587 0
M  V30 2044 H 200.212 -5.5106 -1.58132 0
M  V30 2045 H 198.609 -5.9314 -0.911319 0
M  V30 2046 H 199.679 -4.849 -0.00218681 0
M  V30 2047 N 201.022 0.148545 -1.56898 0
M  V30 2048 C 202.438 0.501131 -1.51528 0
M  V30 2049 C 202.638 1.83458 -0.833399 0
M  V30 2050 O 201.694 2.49259 -0.40328 0
M  V30 2051 C 203.007 0.512864 -2.96294 0
M  V30 2052 C 204.555 0.598487 -3.07225 0
M  V30 2053 C 205.03 0.640897 -4.53494 0
M  V30 2054 N 206.521 0.703163 -4.57832 0
M  V30 2055 C 207.256 0.756935 -5.68382 0
M  V30 2056 N 206.752 0.770147 -6.88506 0
M  V30 2057 N 208.545 0.797698 -5.56411 0
M  V30 2058 H 200.696 -0.725532 -1.99624 0
M  V30 2059 H 202.959 -0.264358 -0.910395 0
M  V30 2060 H 202.665 -0.398691 -3.49433 0
M  V30 2061 H 202.539 1.35133 -3.52163 0
M  V30 2062 H 204.926 1.50046 -2.54106 0
M  V30 2063 H 205.007 -0.267093 -2.54402 0
M  V30 2064 H 204.651 -0.256915 -5.0725 0
M  V30 2065 H 204.581 1.52295 -5.04097 0
M  V30 2066 H 207.072 0.700314 -3.71354 0
M  V30 2067 H 207.385 0.812983 -7.68512 0
M  V30 2068 H 205.73 0.738049 -6.9107 0
M  V30 2069 H 208.921 0.784535 -4.61479 0
M  V30 2070 H 209.094 0.83614 -6.42583 0
M  V30 2071 N 202.5 1.5196 0.417844 0
M  V30 2072 C 203.911 1.57851 0.997 0
M  V30 2073 C 204.262 0.413714 1.91789 0
M  V30 2074 O 203.387 -0.467057 2.113 0
M  V30 2075 C 203.982 2.86085 1.81496 0
M  V30 2076 C 202.541 2.94483 2.34428 0
M  V30 2077 C 201.688 2.52707 1.14169 0
M  V30 2078 H 204.639 1.57455 0.198392 0
M  V30 2079 H 204.66 2.70947 2.67148 0
M  V30 2080 H 204.172 3.70842 1.14446 0
M  V30 2081 H 202.273 2.142 3.04875 0
M  V30 2082 H 202.386 3.98546 2.65891 0
M  V30 2083 H 200.75 2.06353 1.49301 0
M  V30 2084 H 201.533 3.39828 0.486999 0
M  V30 2085 N 203.978 -0.674533 1.42435 0
M  V30 2086 C 204.91 -1.80005 1.41883 0
M  V30 2087 C 205.923 -1.59667 0.31787 0
M  V30 2088 O 207.112 -1.68781 0.580973 0
M  V30 2089 C 204.212 -3.17114 1.19549 0
M  V30 2090 C 203.385 -3.64299 2.42084 0
M  V30 2091 C 202.444 -4.80142 2.15291 0
M  V30 2092 O 201.47 -4.90673 2.88493 0
M  V30 2093 N 202.672 -5.68869 1.1562 0
M  V30 2094 H 205.437 -1.80964 2.38898 0
M  V30 2095 H 202.998 -0.857633 1.37318 0
M  V30 2096 H 204.99 -3.92267 0.995417 0
M  V30 2097 H 203.56 -3.11053 0.310569 0
M  V30 2098 H 202.78 -2.79822 2.77657 0
M  V30 2099 H 204.068 -3.92567 3.23679 0
M  V30 2100 H 203.466 -5.63012 0.550765 0
M  V30 2101 H 202.023 -6.43833 1.016 0
M  V30 2102 N 205.456 -1.28612 -0.910864 0
M  V30 2103 C 206.419 -1.12803 -1.9952 0
M  V30 2104 C 207.419 -0.0668264 -1.60661 0
M  V30 2105 O 208.609 -0.312847 -1.71368 0
M  V30 2106 C 205.741 -0.72254 -3.33155 0
M  V30 2107 H 206.934 -2.09109 -2.14973 0
M  V30 2108 H 204.487 -1.11639 -1.09391 0
M  V30 2109 H 205.222 0.241152 -3.23402 0
M  V30 2110 H 205.007 -1.48916 -3.62721 0
M  V30 2111 H 206.497 -0.634666 -4.12749 0
M  V30 2112 N 206.934 1.1197 -1.10907 0
M  V30 2113 C 207.864 2.19928 -0.784473 0
M  V30 2114 C 208.845 1.6833 0.244726 0
M  V30 2115 O 210.03 1.93892 0.109418 0
M  V30 2116 C 207.16 3.46597 -0.220827 0
M  V30 2117 C 206.114 4.11376 -1.18127 0
M  V30 2118 C 205.44 5.32554 -0.478594 0
M  V30 2119 C 206.74 4.56945 -2.52979 0
M  V30 2120 H 208.434 2.47337 -1.68715 0
M  V30 2121 H 205.98 1.18879 -0.812642 0
M  V30 2122 H 207.933 4.21396 0.0184278 0
M  V30 2123 H 206.657 3.1863 0.717113 0
M  V30 2124 H 205.316 3.38564 -1.40606 0
M  V30 2125 H 204.964 5.00856 0.463976 0
M  V30 2126 H 204.664 5.76844 -1.11912 0
M  V30 2127 H 206.188 6.10096 -0.248 0
M  V30 2128 H 207.602 5.23093 -2.3462 0
M  V30 2129 H 205.999 5.1203 -3.12962 0
M  V30 2130 H 207.069 3.70676 -3.12614 0
M  V30 2131 N 208.412 0.89855 1.29475 0
M  V30 2132 C 209.689 0.443416 1.90508 0
M  V30 2133 C 210.069 -1.07685 1.81569 0
M  V30 2134 O 209.417 -1.9182 1.24166 0
M  V30 2135 C 209.627 0.956708 3.35631 0
M  V30 2136 C 210.975 0.999728 4.12663 0
M  V30 2137 O 211.999 0.904299 3.4453 0
M  V30 2138 O 210.858 1.14289 5.34416 0
M  V30 2139 H 207.952 0.138025 0.815401 0
M  V30 2140 H 210.498 0.98834 1.37949 0
M  V30 2141 H 209.27 2.00067 3.36287 0
M  V30 2142 H 208.893 0.391728 3.95666 0
M  V30 2143 N 209.89 -1.43072 0.660911 0
M  V30 2144 C 210.82 -2.33497 -0.0122829 0
M  V30 2145 C 211.801 -1.49903 -0.803925 0
M  V30 2146 O 212.986 -1.78546 -0.763864 0
M  V30 2147 C 210.116 -3.33363 -0.973994 0
M  V30 2148 C 209.07 -4.27003 -0.291928 0
M  V30 2149 C 208.396 -5.16967 -1.36562 0
M  V30 2150 C 209.696 -5.15816 0.820462 0
M  V30 2151 H 211.39 -2.90038 0.742873 0
M  V30 2152 H 208.936 -1.39461 0.358688 0
M  V30 2153 H 210.889 -3.95524 -1.45392 0
M  V30 2154 H 209.613 -2.75095 -1.7604 0
M  V30 2155 H 208.272 -3.66217 0.167623 0
M  V30 2156 H 207.92 -4.55034 -2.14366 0
M  V30 2157 H 207.62 -5.80441 -0.914454 0
M  V30 2158 H 209.144 -5.82003 -1.84675 0
M  V30 2159 H 210.558 -5.71742 0.422366 0
M  V30 2160 H 208.955 -5.8805 1.19656 0
M  V30 2161 H 210.025 -4.55045 1.67518 0
M  V30 2162 N 211.368 -0.403325 -1.52352 0
M  V30 2163 C 212.614 0.174605 -2.02047 0
M  V30 2164 C 212.947 1.45282 -1.28867 0
M  V30 2165 O 212.222 1.90483 -0.393257 0
M  V30 2166 C 212.505 0.428238 -3.57545 0
M  V30 2167 C 212.358 -0.866248 -4.4138 0
M  V30 2168 C 213.677 1.21287 -4.23057 0
M  V30 2169 H 210.796 0.0619851 -0.734389 0
M  V30 2170 H 213.438 -0.53565 -1.82293 0
M  V30 2171 H 211.588 1.03327 -3.74507 0
M  V30 2172 H 213.26 -1.50265 -4.3614 0
M  V30 2173 H 211.503 -1.47851 -4.07827 0
M  V30 2174 H 212.174 -0.643249 -5.48239 0
M  V30 2175 H 214.65 0.700703 -4.10158 0
M  V30 2176 H 213.526 1.35909 -5.31808 0
M  V30 2177 H 213.787 2.23193 -3.81625 0
M  V30 2178 N 212.846 1.57033 -0.133567 0
M  V30 2179 C 214.071 2.00475 0.531477 0
M  V30 2180 C 214.496 1.01291 1.58499 0
M  V30 2181 O 213.854 -0.0133279 1.81295 0
M  V30 2182 C 213.902 3.42729 1.12113 0
M  V30 2183 O 213.006 3.46498 2.23636 0
M  V30 2184 H 212.347 0.650876 0.131362 0
M  V30 2185 H 214.877 2.03344 -0.22634 0
M  V30 2186 H 214.887 3.81246 1.4531 0
M  V30 2187 H 213.562 4.14428 0.349557 0
M  V30 2188 H 212.139 3.19811 1.91769 0
M  V30 2189 N 214.325 -0.140222 1.56975 0
M  V30 2190 C 215.741 -0.493088 1.51792 0
M  V30 2191 C 215.941 -1.83013 0.843116 0
M  V30 2192 O 214.997 -2.49041 0.416493 0
M  V30 2193 C 216.31 -0.497144 2.96562 0
M  V30 2194 C 217.858 -0.582186 3.07538 0
M  V30 2195 C 218.333 -0.616838 4.53827 0
M  V30 2196 N 219.824 -0.678873 4.58198 0
M  V30 2197 C 220.559 -0.726782 5.68775 0
M  V30 2198 N 220.055 -0.733623 6.88905 0
M  V30 2199 N 221.848 -0.768179 5.56826 0
M  V30 2200 H 213.999 0.736108 1.99237 0
M  V30 2201 H 216.262 0.269182 0.90898 0
M  V30 2202 H 215.968 0.417217 3.49217 0
M  V30 2203 H 215.842 -1.33263 3.52875 0
M  V30 2204 H 218.229 -1.48697 2.54899 0
M  V30 2205 H 218.31 0.280581 2.54257 0
M  V30 2206 H 217.954 0.283812 5.07106 0
M  V30 2207 H 217.884 -1.49619 5.04898 0
M  V30 2208 H 220.375 -0.68061 3.7172 0
M  V30 2209 H 220.688 -0.772215 7.68932 0
M  V30 2210 H 219.033 -0.701389 6.91452 0
M  V30 2211 H 222.224 -0.760051 4.61888 0
M  V30 2212 H 222.397 -0.80205 6.43017 0
M  V30 2213 N 215.803 -1.52179 -0.40978 0
M  V30 2214 C 217.08 -1.56769 -1.16974 0
M  V30 2215 C 217.46 -0.348322 -2.08206 0
M  V30 2216 O 216.808 0.664862 -2.18613 0
M  V30 2217 C 217.018 -2.89603 -1.9476 0
M  V30 2218 C 218.366 -3.42579 -2.50849 0
M  V30 2219 O 219.39 -2.91338 -2.04941 0
M  V30 2220 O 218.249 -4.32054 -3.34652 0
M  V30 2221 H 215.343 -0.631439 -0.534054 0
M  V30 2222 H 217.889 -1.64507 -0.416613 0
M  V30 2223 H 216.661 -3.698 -1.27921 0
M  V30 2224 H 216.284 -2.85155 -2.77079 0
M  V30 2225 N 217.281 0.66697 -1.42791 0
M  V30 2226 C 218.529 1.42417 -1.43394 0
M  V30 2227 C 218.85 1.94925 -0.0542373 0
M  V30 2228 O 218.12 1.73564 0.908415 0
M  V30 2229 H 216.7 0.528515 -0.527902 0
M  V30 2230 H 219.362 0.787562 -1.78279 0
M  V30 2231 H 218.458 2.27333 -2.13837 0
M  V30 2232 N 218.759 1.29093 0.90403 0
M  V30 2233 C 219.706 1.13853 2.00764 0
M  V30 2234 C 220.676 0.0330084 1.66067 0
M  V30 2235 O 221.861 0.199733 1.89752 0
M  V30 2236 C 219.001 0.816537 3.35301 0
M  V30 2237 C 218.114 2.00206 3.82807 0
M  V30 2238 C 217.249 1.61983 5.059 0
M  V30 2239 C 216.288 2.77143 5.45764 0
M  V30 2240 N 215.425 2.39346 6.60044 0
M  V30 2241 H 220.265 2.08276 2.13132 0
M  V30 2242 H 217.802 1.03648 1.04381 0
M  V30 2243 H 219.76 0.610557 4.12708 0
M  V30 2244 H 218.39 -0.090779 3.22672 0
M  V30 2245 H 217.442 2.31988 3.01473 0
M  V30 2246 H 218.754 2.86512 4.08304 0
M  V30 2247 H 217.908 1.37649 5.90879 0
M  V30 2248 H 216.647 0.728202 4.82233 0
M  V30 2249 H 215.652 3.02165 4.59322 0
M  V30 2250 H 216.877 3.66964 5.71414 0
M  V30 2251 H 214.823 1.52665 6.37989 0
M  V30 2252 H 214.74 3.19185 6.85315 0
M  V30 2253 H 216.008 2.1832 7.48303 0
M  V30 2254 N 220.237 -1.11381 1.11499 0
M  V30 2255 C 221.187 -2.15555 0.74298 0
M  V30 2256 C 222.171 -1.58894 -0.253276 0
M  V30 2257 O 223.363 -1.76897 -0.0602918 0
M  V30 2258 C 220.492 -3.42782 0.188481 0
M  V30 2259 C 219.578 -4.064 1.21244 0
M  V30 2260 N 219.969 -4.44864 2.40685 0
M  V30 2261 C 218.267 -4.3333 1.05552 0
M  V30 2262 C 218.968 -4.94715 3.05994 0
M  V30 2263 N 217.944 -4.90909 2.33472 0
M  V30 2264 H 221.746 -2.43074 1.65203 0
M  V30 2265 H 219.26 -1.28401 0.994329 0
M  V30 2266 H 221.257 -4.16789 -0.0961693 0
M  V30 2267 H 219.917 -3.16727 -0.715149 0
M  V30 2268 H 220.928 -4.36876 2.78136 0
M  V30 2269 H 217.605 -4.1698 0.208372 0
M  V30 2270 H 218.995 -5.34103 4.07656 0
M  V30 2271 N 221.715 -0.905404 -1.28997 0
M  V30 2272 C 222.961 -0.535039 -1.95615 0
M  V30 2273 C 223.294 0.917404 -1.71165 0
M  V30 2274 O 222.569 1.65123 -1.02785 0
M  V30 2275 C 222.852 -0.834918 -3.50287 0
M  V30 2276 C 222.705 -2.33948 -3.84172 0
M  V30 2277 C 224.024 -0.325318 -4.38896 0
M  V30 2278 H 221.143 -0.195861 -0.710498 0
M  V30 2279 H 223.785 -1.13313 -1.52513 0
M  V30 2280 H 221.935 -0.325904 -3.87131 0
M  V30 2281 H 223.607 -2.91847 -3.57243 0
M  V30 2282 H 221.85 -2.79789 -3.31513 0
M  V30 2283 H 222.521 -2.49987 -4.92149 0
M  V30 2284 H 224.997 -0.761256 -4.09077 0
M  V30 2285 H 223.873 -0.564295 -5.45992 0
M  V30 2286 H 224.134 0.774144 -4.35269 0
M  V30 2287 N 223.193 1.4272 -0.668489 0
M  V30 2288 C 224.439 2.01923 -0.188419 0
M  V30 2289 C 224.772 1.52704 1.19979 0
M  V30 2290 O 224.047 0.726566 1.8042 0
M  V30 2291 C 224.33 3.59451 -0.216085 0
M  V30 2292 C 224.183 4.18864 -1.6393 0
M  V30 2293 C 225.502 4.37903 0.439179 0
M  V30 2294 H 222.621 0.733674 -0.0699412 0
M  V30 2295 H 225.263 1.69822 -0.852076 0
M  V30 2296 H 223.413 3.86929 0.349012 0
M  V30 2297 H 225.085 4.02362 -2.25616 0
M  V30 2298 H 223.328 3.74933 -2.18193 0
M  V30 2299 H 223.999 5.27987 -1.61039 0
M  V30 2300 H 226.475 4.16079 -0.0417878 0
M  V30 2301 H 225.351 5.47519 0.389157 0
M  V30 2302 H 225.612 4.15303 1.51577 0
M  V30 2303 N 224.671 0.411399 1.52136 0
M  V30 2304 C 225.896 -0.165538 2.06738 0
M  V30 2305 C 226.321 -1.379 1.27926 0
M  V30 2306 O 225.679 -1.78628 0.310114 0
M  V30 2307 C 225.727 -0.492124 3.57226 0
M  V30 2308 O 224.831 -1.58276 3.80818 0
M  V30 2309 H 224.172 -0.0132132 0.663869 0
M  V30 2310 H 226.702 0.585253 1.96051 0
M  V30 2311 H 226.712 -0.750104 4.01045 0
M  V30 2312 H 225.387 0.394922 4.14021 0
M  V30 2313 H 223.964 -1.31677 3.48877 0
M  V30 2314 N 226.149 -1.5696 0.141893 0
M  V30 2315 C 227.377 -2.00322 -0.517579 0
M  V30 2316 C 227.792 -1.02193 -1.58752 0
M  V30 2317 O 227.149 -0.0181619 -1.82491 0
M  V30 2318 C 227.2 -3.43618 -1.12289 0
M  V30 2319 O 226.921 -4.37995 -0.0956929 0
M  V30 2320 C 228.422 -4.02231 -1.86347 0
M  V30 2321 H 225.642 -0.657243 -0.135177 0
M  V30 2322 H 228.186 -2.03146 0.234973 0
M  V30 2323 H 226.341 -3.41662 -1.82609 0
M  V30 2324 H 226.755 -5.21729 -0.538469 0
M  V30 2325 H 228.229 -5.04509 -2.23997 0
M  V30 2326 H 228.706 -3.42655 -2.74744 0
M  V30 2327 H 229.312 -4.07802 -1.20737 0
M  V30 2328 N 227.627 0.131896 -1.57047 0
M  V30 2329 C 228.557 1.16384 -2.02428 0
M  V30 2330 C 229.538 1.43936 -0.90644 0
M  V30 2331 O 230.723 1.54599 -1.17528 0
M  V30 2332 C 227.853 2.49328 -2.4177 0
M  V30 2333 C 226.807 2.36266 -3.56879 0
M  V30 2334 C 226.133 3.74057 -3.8208 0
M  V30 2335 C 227.433 1.834 -4.89042 0
M  V30 2336 H 229.127 0.786433 -2.88887 0
M  V30 2337 H 226.673 0.376855 -1.38981 0
M  V30 2338 H 228.626 3.21759 -2.7212 0
M  V30 2339 H 227.35 2.88934 -1.52266 0
M  V30 2340 H 226.009 1.66286 -3.26718 0
M  V30 2341 H 225.657 4.11125 -2.89803 0
M  V30 2342 H 225.357 3.66174 -4.59554 0
M  V30 2343 H 226.881 4.48012 -4.1487 0
M  V30 2344 H 228.295 2.45636 -5.18011 0
M  V30 2345 H 226.692 1.8637 -5.70426 0
M  V30 2346 H 227.762 0.790662 -4.7841 0
M  V30 2347 N 229.106 1.52395 0.401703 0
M  V30 2348 C 230.352 1.68019 1.14635 0
M  V30 2349 C 230.707 0.408722 1.88009 0
M  V30 2350 O 230 -0.597133 1.82057 0
M  V30 2351 C 230.194 2.84578 2.16217 0
M  V30 2352 C 230.023 4.22938 1.5282 0
M  V30 2353 C 228.793 4.88352 1.29772 0
M  V30 2354 C 230.991 5.04778 0.985094 0
M  V30 2355 N 228.973 6.10726 0.623455 0
M  V30 2356 C 230.344 6.1845 0.438172 0
M  V30 2357 C 232.399 4.90057 0.880275 0
M  V30 2358 C 231.102 7.19013 -0.203306 0
M  V30 2359 C 233.128 5.9086 0.252639 0
M  V30 2360 C 232.49 7.03829 -0.283573 0
M  V30 2361 H 228.589 0.668413 0.405892 0
M  V30 2362 H 231.173 1.89717 0.437674 0
M  V30 2363 H 229.344 2.64483 2.84435 0
M  V30 2364 H 231.076 2.89202 2.83098 0
M  V30 2365 H 227.831 4.46846 1.56926 0
M  V30 2366 H 228.255 6.76323 0.302733 0
M  V30 2367 H 232.897 4.02938 1.28065 0
M  V30 2368 H 230.615 8.05751 -0.615726 0
M  V30 2369 H 234.201 5.81543 0.172954 0
M  V30 2370 H 233.081 7.80493 -0.761575 0
M  V30 2371 N 230.584 -0.659388 1.43143 0
M  V30 2372 C 231.531 -1.77249 1.47822 0
M  V30 2373 C 232.501 -1.62818 0.328558 0
M  V30 2374 O 233.686 -1.83151 0.534838 0
M  V30 2375 C 230.826 -3.15371 1.40126 0
M  V30 2376 C 229.939 -3.4098 2.65249 0
M  V30 2377 C 229.074 -4.68915 2.49584 0
M  V30 2378 C 228.113 -4.87608 3.70006 0
M  V30 2379 N 227.25 -6.06796 3.53189 0
M  V30 2380 H 232.09 -1.72584 2.42938 0
M  V30 2381 H 229.627 -0.842297 1.20598 0
M  V30 2382 H 231.585 -3.9521 1.33659 0
M  V30 2383 H 230.215 -3.19121 0.485964 0
M  V30 2384 H 229.267 -2.55282 2.8202 0
M  V30 2385 H 230.579 -3.50681 3.54717 0
M  V30 2386 H 229.733 -5.56871 2.4079 0
M  V30 2387 H 228.472 -4.61524 1.5763 0
M  V30 2388 H 227.477 -3.9809 3.79215 0
M  V30 2389 H 228.702 -4.96834 4.62961 0
M  V30 2390 H 226.648 -6.00549 2.63965 0
M  V30 2391 H 226.565 -6.17428 4.36255 0
M  V30 2392 H 227.833 -6.9739 3.48236 0
M  V30 2393 N 232.062 -1.29571 -0.897171 0
M  V30 2394 C 233.473 -1.15964 -1.46319 0
M  V30 2395 C 233.824 0.244267 -1.94674 0
M  V30 2396 O 232.949 1.13998 -1.83939 0
M  V30 2397 C 233.544 -2.09906 -2.65942 0
M  V30 2398 C 232.103 -2.00314 -3.18671 0
M  V30 2399 C 231.25 -2.00687 -1.91363 0
M  V30 2400 H 234.201 -1.42019 -0.708268 0
M  V30 2401 H 234.222 -1.67276 -3.41759 0
M  V30 2402 H 233.734 -3.12075 -2.30718 0
M  V30 2403 H 231.835 -1.01242 -3.58582 0
M  V30 2404 H 231.948 -2.88102 -3.82798 0
M  V30 2405 H 230.312 -1.45319 -2.09175 0
M  V30 2406 H 231.095 -3.04566 -1.58413 0
M  V30 2407 N 233.54 1.10788 -1.12088 0
M  V30 2408 C 234.45 2.20599 -0.798338 0
M  V30 2409 C 235.466 1.72712 0.21135 0
M  V30 2410 O 236.642 2.01348 0.0458477 0
M  V30 2411 C 233.707 3.45771 -0.253674 0
M  V30 2412 C 232.768 4.08411 -1.32283 0
M  V30 2413 C 232.001 5.27608 -0.80406 0
M  V30 2414 O 232.224 5.69241 0.363478 0
M  V30 2415 O 231.158 5.8101 -1.57198 0
M  V30 2416 H 234.984 2.50614 -1.7154 0
M  V30 2417 H 232.569 1.19454 -0.897275 0
M  V30 2418 H 234.451 4.21376 0.0453691 0
M  V30 2419 H 233.126 3.1739 0.636005 0
M  V30 2420 H 232.033 3.34507 -1.67499 0
M  V30 2421 H 233.366 4.40986 -2.18614 0
M  V30 2422 N 235.018 0.912232 1.28515 0
M  V30 2423 C 236.267 0.540504 1.94323 0
M  V30 2424 C 236.58 -0.920044 1.72611 0
M  V30 2425 O 237.786 -1.39986 2.32629 0
M  V30 2426 C 236.242 0.915803 3.48053 0
M  V30 2427 C 235.85 2.39598 3.78546 0
M  V30 2428 C 237.594 0.614588 4.20027 0
M  V30 2429 C 235.501 2.71148 5.25578 0
M  V30 2430 H 234.431 0.198418 0.727424 0
M  V30 2431 H 237.082 1.11094 1.46049 0
M  V30 2432 H 235.464 0.274168 3.9505 0
M  V30 2433 H 236.638 3.08422 3.42364 0
M  V30 2434 H 234.953 2.66749 3.1974 0
M  V30 2435 H 237.55 0.827002 5.28266 0
M  V30 2436 H 237.893 -0.447531 4.13887 0
M  V30 2437 H 238.426 1.21462 3.78803 0
M  V30 2438 H 235.165 3.76207 5.36794 0
M  V30 2439 H 234.685 2.0696 5.62963 0
M  V30 2440 H 236.364 2.58072 5.93302 0
M  V30 2441 N 236.496 -1.42363 0.676048 0
M  V30 2442 C 237.743 -2.01522 0.19883 0
M  V30 2443 C 238.071 -1.53456 -1.19505 0
M  V30 2444 O 237.326 -0.727967 -1.81657 0
M  V30 2445 C 237.625 -3.56929 0.183431 0
M  V30 2446 C 237.291 -4.24431 1.52215 0
M  V30 2447 C 235.953 -4.42585 1.8887 0
M  V30 2448 C 238.305 -4.62459 2.40377 0
M  V30 2449 C 235.633 -4.96039 3.13309 0
M  V30 2450 C 237.985 -5.17294 3.64129 0
M  V30 2451 C 236.649 -5.33661 4.00951 0
M  V30 2452 H 235.919 -0.737419 0.0727571 0
M  V30 2453 H 238.566 -1.70531 0.871281 0
M  V30 2454 H 236.871 -3.87594 -0.572532 0
M  V30 2455 H 238.568 -4.00486 -0.203035 0
M  V30 2456 H 235.158 -4.10661 1.22701 0
M  V30 2457 H 239.342 -4.48105 2.13343 0
M  V30 2458 H 234.598 -5.06896 3.41857 0
M  V30 2459 H 238.772 -5.45704 4.32644 0
M  V30 2460 H 236.399 -5.74845 4.9745 0
M  V30 2461 N 237.974 -0.419461 -1.51915 0
M  V30 2462 C 239.199 0.154572 -2.06823 0
M  V30 2463 C 239.624 1.3722 -1.28656 0
M  V30 2464 O 238.982 1.78461 -0.319583 0
M  V30 2465 C 239.03 0.473172 -3.57482 0
M  V30 2466 O 238.134 1.56255 -3.81652 0
M  V30 2467 H 237.475 0.0096924 -0.663929 0
M  V30 2468 H 240.005 -0.595642 -1.95738 0
M  V30 2469 H 240.015 0.728825 -4.01438 0
M  V30 2470 H 238.69 -0.416873 -4.13805 0
M  V30 2471 H 237.267 1.29825 -3.49571 0
M  V30 2472 N 239.452 1.56882 -0.150215 0
M  V30 2473 C 240.382 2.19935 0.784284 0
M  V30 2474 C 241.363 1.14854 1.25469 0
M  V30 2475 O 242.548 1.43209 1.31168 0
M  V30 2476 C 239.678 2.82349 2.02229 0
M  V30 2477 C 238.632 3.93285 1.68853 0
M  V30 2478 C 237.958 4.42649 2.99944 0
M  V30 2479 C 239.258 5.13904 0.932714 0
M  V30 2480 H 240.952 2.9828 0.258781 0
M  V30 2481 H 238.498 1.43473 0.123029 0
M  V30 2482 H 240.451 3.25126 2.68088 0
M  V30 2483 H 239.175 2.0134 2.57157 0
M  V30 2484 H 237.834 3.5113 1.05371 0
M  V30 2485 H 237.482 3.58458 3.52869 0
M  V30 2486 H 237.182 5.17476 2.78374 0
M  V30 2487 H 238.706 4.88099 3.66868 0
M  V30 2488 H 240.12 5.53506 1.49345 0
M  V30 2489 H 238.517 5.94515 0.81684 0
M  V30 2490 H 239.587 4.84842 -0.0749568 0
M  V30 2491 N 240.93 -0.123565 1.57115 0
M  V30 2492 C 242.179 -0.830704 1.83799 0
M  V30 2493 C 242.492 -1.81259 0.735158 0
M  V30 2494 O 243.698 -2.56558 0.888278 0
M  V30 2495 C 242.154 -1.52802 3.25852 0
M  V30 2496 C 241.762 -0.587356 4.44133 0
M  V30 2497 C 243.506 -2.22056 3.61789 0
M  V30 2498 C 241.413 -1.28764 5.77212 0
M  V30 2499 H 240.343 -0.313967 0.685522 0
M  V30 2500 H 242.994 -0.0834359 1.8331 0
M  V30 2501 H 241.376 -2.32175 3.20797 0
M  V30 2502 H 242.55 0.172829 4.60476 0
M  V30 2503 H 240.865 -0.00201892 4.164 0
M  V30 2504 H 243.462 -2.75131 4.58483 0
M  V30 2505 H 243.805 -2.99644 2.88997 0
M  V30 2506 H 244.338 -1.49576 3.68608 0
M  V30 2507 H 241.077 -0.55314 6.53162 0
M  V30 2508 H 240.597 -2.01995 5.64764 0
M  V30 2509 H 242.276 -1.8221 6.20813 0
M  V30 2510 N 242.408 -1.52605 -0.393616 0
M  V30 2511 C 243.355 -1.77055 -1.48054 0
M  V30 2512 C 244.325 -0.61358 -1.54352 0
M  V30 2513 O 245.51 -0.852806 -1.70681 0
M  V30 2514 C 242.65 -1.94108 -2.85335 0
M  V30 2515 C 241.763 -3.21792 -2.88226 0
M  V30 2516 C 240.898 -3.29188 -4.16904 0
M  V30 2517 C 239.937 -4.51013 -4.13828 0
M  V30 2518 N 239.074 -4.55716 -5.34105 0
M  V30 2519 H 243.914 -2.69815 -1.26506 0
M  V30 2520 H 241.451 -1.33683 -0.61379 0
M  V30 2521 H 243.409 -2.01979 -3.65049 0
M  V30 2522 H 242.039 -1.04713 -3.05344 0
M  V30 2523 H 241.091 -3.23015 -2.00911 0
M  V30 2524 H 242.403 -4.11557 -2.8182 0
M  V30 2525 H 241.557 -3.36216 -5.05018 0
M  V30 2526 H 240.296 -2.37389 -4.26026 0
M  V30 2527 H 239.301 -4.44115 -3.24102 0
M  V30 2528 H 240.526 -5.44123 -4.06333 0
M  V30 2529 H 238.472 -3.66807 -5.43865 0
M  V30 2530 H 238.389 -5.39346 -5.29756 0
M  V30 2531 H 239.657 -4.66993 -6.2413 0
M  V30 2532 N 243.887 0.651787 -1.4349 0
M  V30 2533 C 244.817 1.77621 -1.51569 0
M  V30 2534 C 245.798 1.66022 -0.370253 0
M  V30 2535 O 246.983 1.85095 -0.587658 0
M  V30 2536 C 244.113 3.16056 -1.43966 0
M  V30 2537 C 243.067 3.4242 -2.56774 0
M  V30 2538 C 242.393 4.8067 -2.34223 0
M  V30 2539 C 243.693 3.37023 -3.99015 0
M  V30 2540 H 245.387 1.71117 -2.45681 0
M  V30 2541 H 242.933 0.821825 -1.18246 0
M  V30 2542 H 244.886 3.94472 -1.48221 0
M  V30 2543 H 243.61 3.23293 -0.463586 0
M  V30 2544 H 242.269 2.66375 -2.51873 0
M  V30 2545 H 241.917 4.84585 -1.34856 0
M  V30 2546 H 241.617 4.9927 -3.09844 0
M  V30 2547 H 243.141 5.61342 -2.40265 0
M  V30 2548 H 244.555 4.05374 -4.05395 0
M  V30 2549 H 242.952 3.67159 -4.74673 0
M  V30 2550 H 244.022 2.3518 -4.2405 0
M  V30 2551 N 245.365 1.30045 0.890287 0
M  V30 2552 C 246.328 1.15963 1.977 0
M  V30 2553 C 247.328 0.0923777 1.60534 0
M  V30 2554 O 248.518 0.340071 1.70848 0
M  V30 2555 C 245.65 0.775451 3.31963 0
M  V30 2556 H 246.843 2.12502 2.11619 0
M  V30 2557 H 244.396 1.13366 1.07601 0
M  V30 2558 H 245.131 -0.189671 3.23745 0
M  V30 2559 H 244.916 1.54668 3.60306 0
M  V30 2560 H 246.406 0.700251 4.11687 0
M  V30 2561 N 246.843 -1.10192 1.12674 0
M  V30 2562 C 247.806 -2.14786 0.799979 0
M  V30 2563 C 248.806 -1.59711 -0.18685 0
M  V30 2564 O 249.996 -1.74156 0.0392558 0
M  V30 2565 C 247.128 -3.40374 0.189228 0
M  V30 2566 H 248.321 -2.45203 1.72671 0
M  V30 2567 H 245.874 -1.25597 0.930326 0
M  V30 2568 H 246.609 -3.15577 -0.747107 0
M  V30 2569 H 246.394 -3.81637 0.899766 0
M  V30 2570 H 247.884 -4.17594 -0.0228143 0
M  V30 2571 N 248.321 -0.919034 -1.28029 0
M  V30 2572 C 249.253 -0.368762 -2.26214 0
M  V30 2573 C 250.266 0.495716 -1.55069 0
M  V30 2574 O 251.455 0.30974 -1.75792 0
M  V30 2575 C 248.555 0.491049 -3.35324 0
M  V30 2576 C 247.728 -0.352133 -4.3598 0
M  V30 2577 C 246.787 0.443622 -5.24327 0
M  V30 2578 O 245.813 -0.14566 -5.69014 0
M  V30 2579 N 247.015 1.74545 -5.53637 0
M  V30 2580 H 249.78 -1.21273 -2.74068 0
M  V30 2581 H 247.341 -0.785541 -1.41566 0
M  V30 2582 H 249.333 1.03026 -3.91366 0
M  V30 2583 H 247.903 1.23574 -2.87138 0
M  V30 2584 H 247.123 -1.07269 -3.79324 0
M  V30 2585 H 248.411 -0.928883 -5.00249 0
M  V30 2586 H 247.809 2.24666 -5.19174 0
M  V30 2587 H 246.366 2.23138 -6.12416 0
M  V30 2588 N 249.799 1.42003 -0.683588 0
M  V30 2589 C 251.076 1.95112 -0.138075 0
M  V30 2590 C 251.456 1.62359 1.34918 0
M  V30 2591 O 250.804 0.924311 2.08971 0
M  V30 2592 C 251.014 3.46505 -0.416581 0
M  V30 2593 C 252.362 4.23254 -0.337834 0
M  V30 2594 O 253.386 3.54468 -0.35082 0
M  V30 2595 O 252.245 5.45743 -0.287596 0
M  V30 2596 H 249.339 0.826961 -0.00797996 0
M  V30 2597 H 251.885 1.51784 -0.758924 0
M  V30 2598 H 250.657 3.63582 -1.4465 0
M  V30 2599 H 250.28 3.969 0.235839 0
M  V30 2600 N 251.277 0.427512 1.51691 0
M  V30 2601 C 252.224 -0.388867 2.275 0
M  V30 2602 C 253.194 -1.02532 1.30677 0
M  V30 2603 O 254.379 -1.0461 1.59566 0
M  V30 2604 C 251.519 -1.48954 3.11298 0
M  V30 2605 C 250.632 -0.872194 4.23104 0
M  V30 2606 C 249.767 -1.94709 4.94228 0
M  V30 2607 C 248.806 -1.30766 5.97969 0
M  V30 2608 N 247.943 -2.32349 6.62539 0
M  V30 2609 H 252.783 0.263997 2.96828 0
M  V30 2610 H 250.32 0.142033 1.46413 0
M  V30 2611 H 252.278 -2.13887 3.58201 0
M  V30 2612 H 250.908 -2.11217 2.44105 0
M  V30 2613 H 249.96 -0.111419 3.80237 0
M  V30 2614 H 251.272 -0.365264 4.97461 0
M  V30 2615 H 250.426 -2.67327 5.44629 0
M  V30 2616 H 249.165 -2.48773 4.1948 0
M  V30 2617 H 248.17 -0.566902 5.4687 0
M  V30 2618 H 249.395 -0.774483 6.74669 0
M  V30 2619 H 247.341 -2.85511 5.90609 0
M  V30 2620 H 247.258 -1.8652 7.3263 0
M  V30 2621 H 248.526 -3.04481 7.17574 0
M  V30 2622 N 252.755 -1.56801 0.158532 0
M  V30 2623 C 254.032 -1.88131 -0.535357 0
M  V30 2624 C 254.412 -1.06638 -1.82186 0
M  V30 2625 O 253.76 -0.156533 -2.27963 0
M  V30 2626 C 253.97 -3.39949 -0.789653 0
M  V30 2627 C 255.318 -4.09416 -1.12533 0
M  V30 2628 O 256.342 -3.45194 -0.878622 0
M  V30 2629 O 255.201 -5.22855 -1.59014 0
M  V30 2630 H 252.295 -0.780143 -0.27442 0
M  V30 2631 H 254.841 -1.68564 0.19601 0
M  V30 2632 H 253.613 -3.91115 0.120353 0
M  V30 2633 H 253.236 -3.65084 -1.57479 0
M  V30 2634 N 254.233 0.115231 -1.57178 0
M  V30 2635 C 255.479 0.82357 -1.85325 0
M  V30 2636 C 255.812 1.79349 -0.744814 0
M  V30 2637 O 255.087 1.92899 0.249024 0
M  V30 2638 C 255.37 1.57014 -3.24066 0
M  V30 2639 C 255.223 0.619565 -4.45513 0
M  V30 2640 C 256.542 2.52545 -3.60429 0
M  V30 2641 H 253.661 0.297948 -0.674089 0
M  V30 2642 H 256.303 0.0877138 -1.89797 0
M  V30 2643 H 254.453 2.19742 -3.20383 0
M  V30 2644 H 256.125 0.000837639 -4.613 0
M  V30 2645 H 254.368 -0.0686174 -4.33746 0
M  V30 2646 H 255.039 1.17866 -5.3927 0
M  V30 2647 H 257.515 1.9992 -3.64926 0
M  V30 2648 H 256.391 3.01811 -4.58477 0
M  V30 2649 H 256.652 3.35383 -2.88047 0
M  V30 2650 N 255.711 1.52812 0.385517 0
M  V30 2651 C 256.939 1.71907 1.15133 0
M  V30 2652 C 257.354 0.439004 1.83625 0
M  V30 2653 O 256.711 -0.586765 1.7281 0
M  V30 2654 C 256.762 2.87099 2.19673 0
M  V30 2655 O 256.483 4.10151 1.53973 0
M  V30 2656 C 257.984 3.17902 3.08955 0
M  V30 2657 H 255.204 0.575479 0.345057 0
M  V30 2658 H 257.748 1.99476 0.45052 0
M  V30 2659 H 255.903 2.61982 2.85384 0
M  V30 2660 H 256.317 4.74514 2.23465 0
M  V30 2661 H 257.791 4.01959 3.7833 0
M  V30 2662 H 258.268 2.3243 3.72657 0
M  V30 2663 H 258.874 3.44871 2.48885 0
M  V30 2664 N 257.189 -0.644168 1.43834 0
M  V30 2665 C 258.605 -0.960875 1.27434 0
M  V30 2666 C 258.805 -2.00499 0.200618 0
M  V30 2667 O 257.861 -2.49018 -0.417906 0
M  V30 2668 C 259.174 -1.43653 2.64167 0
M  V30 2669 C 260.722 -1.55271 2.71772 0
M  V30 2670 C 261.197 -2.06224 4.08944 0
M  V30 2671 N 262.688 -2.13513 4.11055 0
M  V30 2672 C 263.423 -2.54081 5.14033 0
M  V30 2673 N 262.919 -2.9388 6.27381 0
M  V30 2674 N 264.712 -2.54101 5.01387 0
M  V30 2675 H 256.863 0.0465779 2.12349 0
M  V30 2676 H 259.126 -0.0417638 0.94708 0
M  V30 2677 H 258.832 -0.743706 3.43747 0
M  V30 2678 H 258.706 -2.40993 2.90176 0
M  V30 2679 H 261.093 -2.23653 1.92519 0
M  V30 2680 H 261.174 -0.563395 2.49519 0
M  V30 2681 H 260.818 -1.38441 4.88668 0
M  V30 2682 H 260.748 -3.06003 4.28567 0
M  V30 2683 H 263.239 -1.85493 3.29242 0
M  V30 2684 H 263.552 -3.2361 7.01781 0
M  V30 2685 H 261.897 -2.91663 6.30839 0
M  V30 2686 H 265.088 -2.22391 4.11898 0
M  V30 2687 H 265.261 -2.85394 5.81768 0
M  V30 2688 N 258.668 -1.30515 -0.883378 0
M  V30 2689 C 259.917 -1.18795 -1.63005 0
M  V30 2690 C 260.23 0.255923 -1.93919 0
M  V30 2691 O 261.436 0.494654 -2.66956 0
M  V30 2692 C 259.892 -2.07878 -2.93794 0
M  V30 2693 C 259.5 -3.57184 -2.70414 0
M  V30 2694 C 261.244 -2.04924 -3.71761 0
M  V30 2695 C 259.151 -4.38317 -3.97029 0
M  V30 2696 H 258.081 -0.441031 -0.611562 0
M  V30 2697 H 260.732 -1.55275 -0.977854 0
M  V30 2698 H 259.114 -1.64283 -3.60315 0
M  V30 2699 H 260.288 -4.08937 -2.12384 0
M  V30 2700 H 258.603 -3.61976 -2.0582 0
M  V30 2701 H 261.2 -2.62792 -4.65665 0
M  V30 2702 H 261.543 -1.0331 -4.03277 0
M  V30 2703 H 262.076 -2.46649 -3.12104 0
M  V30 2704 H 258.815 -5.40632 -3.70671 0
M  V30 2705 H 258.335 -3.91326 -4.54559 0
M  V30 2706 H 260.014 -4.49834 -4.65036 0
M  V30 2707 N 260.146 1.09593 -1.13257 0
M  V30 2708 C 261.393 1.81734 -0.893257 0
M  V30 2709 C 261.721 1.8563 0.580656 0
M  V30 2710 O 260.976 1.31906 1.44566 0
M  V30 2711 C 261.275 3.27802 -1.42411 0
M  V30 2712 C 260.941 3.44041 -2.91456 0
M  V30 2713 C 259.603 3.48181 -3.3215 0
M  V30 2714 C 261.955 3.48719 -3.87356 0
M  V30 2715 C 259.283 3.54575 -4.67433 0
M  V30 2716 C 261.635 3.56648 -5.2248 0
M  V30 2717 C 260.299 3.59055 -5.62704 0
M  V30 2718 H 259.569 0.665011 -0.326866 0
M  V30 2719 H 262.216 1.2912 -1.41422 0
M  V30 2720 H 260.521 3.83042 -0.823795 0
M  V30 2721 H 262.218 3.82149 -1.21503 0
M  V30 2722 H 258.808 3.41502 -2.58987 0
M  V30 2723 H 262.992 3.44763 -3.57004 0
M  V30 2724 H 258.248 3.54725 -4.97976 0
M  V30 2725 H 262.422 3.59212 -5.96607 0
M  V30 2726 H 260.049 3.63763 -6.67518 0
M  V30 2727 N 261.624 0.925811 1.2754 0
M  V30 2728 C 262.87 0.566092 1.94739 0
M  V30 2729 C 263.203 -0.890057 1.72603 0
M  V30 2730 O 262.478 -1.63467 1.05399 0
M  V30 2731 C 262.761 0.89054 3.48915 0
M  V30 2732 C 262.614 2.4003 3.80402 0
M  V30 2733 C 263.933 0.395101 4.38323 0
M  V30 2734 H 261.052 0.20714 0.707292 0
M  V30 2735 H 263.694 1.15725 1.50691 0
M  V30 2736 H 261.844 0.387452 3.86563 0
M  V30 2737 H 263.516 2.97494 3.52555 0
M  V30 2738 H 261.759 2.85028 3.2702 0
M  V30 2739 H 262.43 2.57785 4.8811 0
M  V30 2740 H 264.906 0.826241 4.07814 0
M  V30 2741 H 263.782 0.651086 5.45025 0
M  V30 2742 H 264.043 -0.704798 4.36446 0
M  V30 2743 N 263.102 -1.41638 0.69111 0
M  V30 2744 C 264.05 -2.32597 0.0115199 0
M  V30 2745 C 265.044 -1.5072 -0.773296 0
M  V30 2746 O 266.25 -1.66685 -0.67942 0
M  V30 2747 H 262.625 -0.751849 -0.0150746 0
M  V30 2748 H 264.596 -2.87593 0.795791 0
M  V30 2749 C 263.345 -3.35467 -0.914172 0
M  V30 2750 H 262.668 -3.9852 -0.319687 0
M  V30 2751 H 264.108 -4.01662 -1.35808 0
M  V30 2752 C 262.567 -2.69004 -2.02826 0
M  V30 2753 O 263.097 -2.53444 -3.11655 0
M  V30 2754 N 261.303 -2.2777 -1.80469 0
M  V30 2755 H 260.85 -2.40626 -0.919615 0
M  V30 2756 H 260.808 -1.83635 -2.55197 0
M  V30 2757 N 264.58 -0.43555 -1.51462 0
M  V30 2758 C 265.991 0.0279871 -1.86679 0
M  V30 2759 C 266.342 1.42104 -1.35281 0
M  V30 2760 O 265.467 2.04667 -0.702878 0
M  V30 2761 C 266.062 0.0575626 -3.38751 0
M  V30 2762 C 264.621 0.465507 -3.7351 0
M  V30 2763 C 263.768 -0.342996 -2.75171 0
M  V30 2764 H 266.719 -0.651473 -1.44712 0
M  V30 2765 H 266.74 0.867421 -3.70481 0
M  V30 2766 H 266.252 -0.956448 -3.7613 0
M  V30 2767 H 264.353 1.48519 -3.41721 0
M  V30 2768 H 264.466 0.191546 -4.78717 0
M  V30 2769 H 262.83 0.198442 -2.53926 0
M  V30 2770 H 263.613 -1.35585 -3.15391 0
M  V30 2771 N 266.058 1.56714 -0.166846 0
M  V30 2772 C 267.021 2.16539 0.751232 0
M  V30 2773 C 268.021 1.11228 1.16125 0
M  V30 2774 O 269.211 1.36765 1.07894 0
M  V30 2775 C 266.343 2.74462 2.02196 0
M  V30 2776 H 267.536 2.99013 0.230499 0
M  V30 2777 H 265.089 1.56081 0.0826982 0
M  V30 2778 H 265.824 1.95709 2.58589 0
M  V30 2779 H 265.609 3.51527 1.73698 0
M  V30 2780 H 267.099 3.20489 2.67725 0
M  V30 2781 N 267.536 -0.106894 1.57237 0
M  V30 2782 C 268.785 -0.811163 1.8467 0
M  V30 2783 C 269.098 -1.80469 0.754342 0
M  V30 2784 O 270.304 -2.55601 0.915439 0
M  V30 2785 C 268.76 -1.49337 3.27454 0
M  V30 2786 C 268.368 -0.540217 4.44731 0
M  V30 2787 C 270.112 -2.18206 3.64124 0
M  V30 2788 C 268.019 -1.22634 5.78545 0
M  V30 2789 H 266.949 -0.306679 0.688813 0
M  V30 2790 H 269.6 -0.0639887 1.83388 0
M  V30 2791 H 267.982 -2.2876 3.23241 0
M  V30 2792 H 269.156 0.221659 4.60267 0
M  V30 2793 H 267.471 0.042146 4.16379 0
M  V30 2794 H 270.068 -2.70253 4.61376 0
M  V30 2795 H 270.411 -2.96562 2.92158 0
M  V30 2796 H 270.944 -1.45658 3.70174 0
M  V30 2797 H 267.683 -0.483832 6.53712 0
M  V30 2798 H 267.203 -1.95993 5.66874 0
M  V30 2799 H 268.882 -1.75615 6.2271 0
M  V30 2800 N 269.014 -1.53014 -0.377408 0
M  V30 2801 C 269.961 -1.78616 -1.46168 0
M  V30 2802 C 270.931 -0.629917 -1.53692 0
M  V30 2803 O 272.116 -0.870861 -1.69766 0
M  V30 2804 C 269.256 -1.97123 -2.8326 0
M  V30 2805 C 268.369 -3.24831 -2.84796 0
M  V30 2806 C 267.504 -3.33591 -4.13389 0
M  V30 2807 C 266.543 -4.55377 -4.09021 0
M  V30 2808 N 265.68 -4.61355 -5.29241 0
M  V30 2809 H 270.52 -2.71142 -1.23637 0
M  V30 2810 H 268.057 -1.34326 -0.599577 0
M  V30 2811 H 270.015 -2.05839 -3.62886 0
M  V30 2812 H 268.645 -1.07946 -3.04216 0
M  V30 2813 H 267.697 -3.25128 -1.97474 0
M  V30 2814 H 269.009 -4.14523 -2.77439 0
M  V30 2815 H 268.163 -3.41554 -5.01424 0
M  V30 2816 H 266.902 -2.41894 -4.23484 0
M  V30 2817 H 265.907 -4.47527 -3.19373 0
M  V30 2818 H 267.132 -5.48402 -4.00539 0
M  V30 2819 H 265.078 -3.72554 -5.39944 0
M  V30 2820 H 264.995 -5.44935 -5.24006 0
M  V30 2821 H 266.263 -4.73586 -6.19141 0
M  V30 2822 N 270.492 0.636531 -1.44174 0
M  V30 2823 C 271.424 1.7618 -1.46606 0
M  V30 2824 C 272.437 1.58768 -0.360091 0
M  V30 2825 O 273.626 1.67181 -0.625518 0
M  V30 2826 C 270.726 3.13833 -1.27915 0
M  V30 2827 C 269.899 3.57753 -2.51658 0
M  V30 2828 C 268.958 4.74265 -2.27945 0
M  V30 2829 O 267.984 4.82852 -3.01401 0
M  V30 2830 N 269.186 5.65604 -1.30662 0
M  V30 2831 H 271.951 1.74567 -2.43612 0
M  V30 2832 H 269.512 0.820924 -1.39544 0
M  V30 2833 H 271.504 3.8949 -1.09907 0
M  V30 2834 H 270.074 3.10121 -0.39293 0
M  V30 2835 H 269.294 2.72362 -2.84978 0
M  V30 2836 H 270.582 3.83847 -3.33974 0
M  V30 2837 H 269.98 5.61354 -0.699844 0
M  V30 2838 H 268.537 6.40913 -1.18634 0
M  V30 2839 N 271.97 1.30982 0.876444 0
M  V30 2840 C 272.902 1.13902 1.98894 0
M  V30 2841 C 273.915 0.0798815 1.62604 0
M  V30 2842 O 275.104 0.326743 1.75484 0
M  V30 2843 C 272.204 0.716699 3.31235 0
M  V30 2844 C 271.377 1.85945 3.95908 0
M  V30 2845 C 270.436 1.42426 5.06558 0
M  V30 2846 O 269.462 2.13287 5.27729 0
M  V30 2847 N 270.664 0.308025 5.79682 0
M  V30 2848 H 273.429 2.09724 2.14094 0
M  V30 2849 H 270.99 1.2323 1.05004 0
M  V30 2850 H 272.982 0.408403 4.02634 0
M  V30 2851 H 271.552 -0.149719 3.12241 0
M  V30 2852 H 270.772 2.33541 3.17573 0
M  V30 2853 H 272.06 2.62503 4.35855 0
M  V30 2854 H 271.458 -0.282241 5.64995 0
M  V30 2855 H 270.015 0.0592282 6.51773 0
M  V30 2856 N 273.449 -1.08991 1.13837 0
M  V30 2857 C 274.379 -2.17771 0.842507 0
M  V30 2858 C 275.36 -1.6892 -0.20001 0
M  V30 2859 O 276.545 -1.94113 -0.0579731 0
M  V30 2860 C 273.675 -3.4589 0.312644 0
M  V30 2861 C 272.629 -4.08099 1.28992 0
M  V30 2862 C 271.955 -5.31098 0.619623 0
M  V30 2863 C 273.255 -4.50077 2.65005 0
M  V30 2864 H 274.949 -2.42777 1.75213 0
M  V30 2865 H 272.495 -1.16682 0.843875 0
M  V30 2866 H 274.448 -4.21297 0.0933043 0
M  V30 2867 H 273.172 -3.20419 -0.632382 0
M  V30 2868 H 271.831 -3.34717 1.49533 0
M  V30 2869 H 271.479 -5.0191 -0.33102 0
M  V30 2870 H 271.179 -5.73674 1.27167 0
M  V30 2871 H 272.703 -6.09224 0.409669 0
M  V30 2872 H 274.117 -5.16688 2.48407 0
M  V30 2873 H 272.514 -5.03553 3.26427 0
M  V30 2874 H 273.584 -3.62257 3.22332 0
M  V30 2875 N 274.927 -0.932562 -1.27047 0
M  V30 2876 C 276.167 -0.582919 -1.95912 0
M  V30 2877 C 276.531 0.860629 -1.71631 0
M  V30 2878 O 277.732 1.31878 -2.34225 0
M  V30 2879 C 276.003 -0.905673 -3.45734 0
M  V30 2880 S 277.562 -0.665277 -4.33727 0
M  V30 2881 H 274.38 -0.215 -0.677714 0
M  V30 2882 H 276.982 -1.20204 -1.54179 0
M  V30 2883 H 275.686 -1.95386 -3.60905 0
M  V30 2884 H 275.217 -0.275939 -3.92431 0
M  V30 2885 H 277.232 0.474635 -4.93925 0
M  V30 2886 N 276.405 1.4127 -0.698611 0
M  V30 2887 C 277.335 2.33447 -0.049629 0
M  V30 2888 C 278.316 1.51982 0.763898 0
M  V30 2889 O 279.501 1.80509 0.716257 0
M  V30 2890 C 276.631 3.35828 0.885267 0
M  V30 2891 C 275.585 4.27627 0.178613 0
M  V30 2892 C 274.911 5.20406 1.22807 0
M  V30 2893 C 276.211 5.13459 -0.956933 0
M  V30 2894 H 277.905 2.87966 -0.81951 0
M  V30 2895 H 275.451 1.38461 -0.395538 0
M  V30 2896 H 277.404 3.9924 1.34854 0
M  V30 2897 H 276.128 2.79666 1.68685 0
M  V30 2898 H 274.787 3.65643 -0.26466 0
M  V30 2899 H 274.435 4.60558 2.02226 0
M  V30 2900 H 274.135 5.82661 0.760239 0
M  V30 2901 H 275.659 5.86695 1.69179 0
M  V30 2902 H 277.073 5.70421 -0.573805 0
M  V30 2903 H 275.47 5.8467 -1.35205 0
M  V30 2904 H 276.54 4.50443 -1.79524 0
M  V30 2905 N 277.883 0.443576 1.51229 0
M  V30 2906 C 279.16 -0.181038 1.9476 0
M  V30 2907 C 279.54 -1.59523 1.38259 0
M  V30 2908 O 278.888 -2.2122 0.572198 0
M  V30 2909 C 279.098 -0.152422 3.48667 0
M  V30 2910 C 280.446 -0.354923 4.23114 0
M  V30 2911 O 281.47 -0.230257 3.55455 0
M  V30 2912 O 280.329 -0.603674 5.43156 0
M  V30 2913 H 277.423 -0.1266 0.817252 0
M  V30 2914 H 279.969 0.502004 1.62105 0
M  V30 2915 H 278.741 0.836022 3.82265 0
M  V30 2916 H 278.364 -0.878107 3.87782 0
M  V30 2917 N 279.361 -1.56624 0.175154 0
M  V30 2918 C 280.324 -2.16934 -0.739738 0
M  V30 2919 C 281.324 -1.11842 -1.15533 0
M  V30 2920 O 282.514 -1.37335 -1.07167 0
M  V30 2921 C 279.646 -2.75531 -2.00738 0
M  V30 2922 H 280.839 -2.99131 -0.214639 0
M  V30 2923 H 278.392 -1.56123 -0.0744197 0
M  V30 2924 H 279.127 -1.97078 -2.57548 0
M  V30 2925 H 278.912 -3.52444 -1.71831 0
M  V30 2926 H 280.402 -3.21904 -2.66021 0
M  V30 2927 N 280.839 0.0985539 -1.57292 0
M  V30 2928 C 282.087 0.801092 -1.85545 0
M  V30 2929 C 282.408 1.79438 -0.763353 0
M  V30 2930 O 281.678 1.94763 0.21073 0
M  V30 2931 H 280.258 0.29884 -0.684619 0
M  V30 2932 H 282.92 0.0810064 -1.94732 0
M  V30 2933 H 282.016 1.3338 -2.82163 0
M  V30 2934 N 282.317 1.53212 0.369288 0
M  V30 2935 C 283.545 1.73119 1.13303 0
M  V30 2936 C 283.96 0.458455 1.83149 0
M  V30 2937 O 283.317 -0.568403 1.73423 0
M  V30 2938 C 283.368 2.89413 2.16616 0
M  V30 2939 O 283.089 4.11761 1.49614 0
M  V30 2940 C 284.59 3.21161 3.05566 0
M  V30 2941 H 281.81 0.579107 0.338934 0
M  V30 2942 H 284.354 1.99942 0.429338 0
M  V30 2943 H 282.509 2.64994 2.82589 0
M  V30 2944 H 282.923 4.76858 2.18419 0
M  V30 2945 H 284.397 4.05949 3.74045 0
M  V30 2946 H 284.874 2.36369 3.70171 0
M  V30 2947 H 285.48 3.47492 2.45213 0
M  V30 2948 N 283.795 -0.628877 1.44509 0
M  V30 2949 C 285.072 -1.38733 1.37886 0
M  V30 2950 C 285.452 -2.11065 0.0387008 0
M  V30 2951 O 284.8 -2.06476 -0.97878 0
M  V30 2952 C 285.01 -2.35188 2.57852 0
M  V30 2953 C 286.358 -2.9845 3.02014 0
M  V30 2954 O 287.382 -2.45513 2.58073 0
M  V30 2955 O 286.241 -3.94487 3.78209 0
M  V30 2956 H 283.335 -0.621015 0.54614 0
M  V30 2957 H 285.881 -0.653744 1.56602 0
M  V30 2958 H 284.653 -1.80855 3.46998 0
M  V30 2959 H 284.276 -3.1596 2.4136 0
M  V30 2960 N 285.273 -1.31445 -0.869486 0
M  V30 2961 C 286.689 -1.10113 -1.15531 0
M  V30 2962 C 286.889 0.128087 -2.01092 0
M  V30 2963 O 285.945 0.817276 -2.38908 0
M  V30 2964 C 287.258 -2.37291 -1.84698 0
M  V30 2965 C 288.806 -2.42906 -1.97397 0
M  V30 2966 C 289.281 -3.69967 -2.69979 0
M  V30 2967 N 290.772 -3.70864 -2.77514 0
M  V30 2968 C 291.507 -4.65875 -3.34287 0
M  V30 2969 N 291.003 -5.71242 -3.91988 0
M  V30 2970 N 292.796 -4.53394 -3.3225 0
M  V30 2971 H 284.947 -2.1028 -0.299347 0
M  V30 2972 H 287.21 -0.927683 -0.195214 0
M  V30 2973 H 286.916 -3.27078 -1.29278 0
M  V30 2974 H 286.79 -2.47125 -2.84972 0
M  V30 2975 H 289.177 -1.53588 -2.51982 0
M  V30 2976 H 289.258 -2.37036 -0.961643 0
M  V30 2977 H 288.902 -4.59652 -2.16062 0
M  V30 2978 H 288.832 -3.73103 -3.7162 0
M  V30 2979 H 291.323 -2.94697 -2.36563 0
M  V30 2980 H 291.636 -6.39817 -4.33421 0
M  V30 2981 H 289.981 -5.75015 -3.90362 0
M  V30 2982 H 293.172 -3.70252 -2.8641 0
M  V30 2983 H 293.345 -5.27617 -3.76197 0
M  V30 2984 N 286.751 1.08385 -1.14413 0
M  V30 2985 C 288.028 1.77429 -0.823297 0
M  V30 2986 C 288.408 1.9974 0.683163 0
M  V30 2987 O 287.756 1.60739 1.62405 0
M  V30 2988 C 287.966 3.09004 -1.62227 0
M  V30 2989 C 289.314 3.83532 -1.82177 0
M  V30 2990 O 290.338 3.18786 -1.58915 0
M  V30 2991 O 289.197 4.99792 -2.21067 0
M  V30 2992 H 286.291 0.769999 -0.301712 0
M  V30 2993 H 288.837 1.14846 -1.24934 0
M  V30 2994 H 287.609 2.88316 -2.64555 0
M  V30 2995 H 287.232 3.79316 -1.19187 0
M  V30 2996 N 288.23 0.939286 1.26551 0
M  V30 2997 C 289.476 0.596234 1.94465 0
M  V30 2998 C 289.831 -0.855013 1.72358 0
M  V30 2999 O 289.124 -1.6034 1.04889 0
M  V30 3000 C 289.318 0.872106 3.46596 0
M  V30 3001 C 289.147 2.34862 3.83497 0
M  V30 3002 C 287.917 3.00344 4.06352 0
M  V30 3003 C 290.115 3.32697 3.92195 0
M  V30 3004 N 288.097 4.38027 4.30123 0
M  V30 3005 C 289.468 4.55631 4.20476 0
M  V30 3006 C 291.523 3.27747 3.74815 0
M  V30 3007 C 290.226 5.74233 4.33185 0
M  V30 3008 C 292.252 4.45672 3.88755 0
M  V30 3009 C 291.614 5.67388 4.17433 0
M  V30 3010 H 287.713 0.268515 0.734455 0
M  V30 3011 H 290.297 1.2083 1.5267 0
M  V30 3012 H 288.468 0.289102 3.87323 0
M  V30 3013 H 290.2 0.490513 4.01716 0
M  V30 3014 H 286.955 2.50969 4.01636 0
M  V30 3015 H 287.379 5.09288 4.46044 0
M  V30 3016 H 292.021 2.34703 3.51673 0
M  V30 3017 H 289.739 6.67731 4.55149 0
M  V30 3018 H 293.325 4.43372 3.76713 0
M  V30 3019 H 292.205 6.57115 4.27983 0
M  V30 3020 N 289.708 -1.40897 0.706093 0
M  V30 3021 C 290.638 -2.33418 0.0620085 0
M  V30 3022 C 291.619 -1.52385 -0.755827 0
M  V30 3023 O 292.804 -1.80886 -0.706674 0
M  V30 3024 C 289.934 -3.36293 -0.867445 0
M  V30 3025 C 288.888 -4.27716 -0.155932 0
M  V30 3026 C 288.214 -5.2105 -1.20046 0
M  V30 3027 C 289.514 -5.12944 0.984149 0
M  V30 3028 H 291.208 -2.87527 0.83477 0
M  V30 3029 H 288.754 -1.38249 0.402875 0
M  V30 3030 H 290.707 -3.99949 -1.32735 0
M  V30 3031 H 289.431 -2.80556 -1.67199 0
M  V30 3032 H 288.09 -3.65498 0.284047 0
M  V30 3033 H 287.738 -4.61624 -1.99781 0
M  V30 3034 H 287.438 -5.83056 -0.729328 0
M  V30 3035 H 288.962 -5.87584 -1.66066 0
M  V30 3036 H 290.376 -5.70109 0.604048 0
M  V30 3037 H 288.773 -5.83945 1.38304 0
M  V30 3038 H 289.843 -4.49485 1.81911 0
M  V30 3039 N 291.186 -0.45159 -1.50991 0
M  V30 3040 C 292.602 -0.104647 -1.59257 0
M  V30 3041 C 292.802 1.38728 -1.4614 0
M  V30 3042 O 291.858 2.15866 -1.30989 0
M  V30 3043 C 293.171 -0.637468 -2.93865 0
M  V30 3044 C 294.719 -0.599166 -3.07212 0
M  V30 3045 C 295.194 -1.1092 -4.44366 0
M  V30 3046 N 296.685 -1.06778 -4.50725 0
M  V30 3047 C 297.42 -1.43314 -5.55201 0
M  V30 3048 N 296.916 -1.87204 -6.67028 0
M  V30 3049 N 298.709 -1.3504 -5.45638 0
M  V30 3050 H 290.86 -1.42214 -1.57762 0
M  V30 3051 H 293.123 -0.586921 -0.744465 0
M  V30 3052 H 292.829 -1.68187 -3.08879 0
M  V30 3053 H 292.703 -0.0702139 -3.77135 0
M  V30 3054 H 295.09 0.436277 -2.91857 0
M  V30 3055 H 295.171 -1.20299 -2.25747 0
M  V30 3056 H 294.815 -2.14318 -4.60467 0
M  V30 3057 H 294.745 -0.481773 -5.24392 0
M  V30 3058 H 297.236 -0.745643 -3.70471 0
M  V30 3059 H 297.549 -2.13282 -7.42786 0
M  V30 3060 H 295.894 -1.91142 -6.68199 0
M  V30 3061 H 299.085 -1.00607 -4.57161 0
M  V30 3062 H 299.258 -1.63841 -6.26945 0
M  V30 3063 N 292.664 1.56529 -0.183458 0
M  V30 3064 C 293.611 2.18546 0.742055 0
M  V30 3065 C 294.581 1.12912 1.2182 0
M  V30 3066 O 295.766 1.41115 1.28418 0
M  V30 3067 C 292.906 2.83977 1.96089 0
M  V30 3068 C 292.019 4.04105 1.52719 0
M  V30 3069 C 291.154 4.57427 2.70063 0
M  V30 3070 C 290.193 5.69938 2.23243 0
M  V30 3071 N 289.33 6.17717 3.33722 0
M  V30 3072 H 294.17 2.97284 0.206432 0
M  V30 3073 H 291.707 1.46823 0.0901571 0
M  V30 3074 H 293.665 3.20077 2.67594 0
M  V30 3075 H 292.295 2.07822 2.47002 0
M  V30 3076 H 291.347 3.73745 0.708436 0
M  V30 3077 H 292.659 4.85513 1.1436 0
M  V30 3078 H 291.813 4.95772 3.49708 0
M  V30 3079 H 290.552 3.75101 3.11689 0
M  V30 3080 H 289.557 5.31133 1.42048 0
M  V30 3081 H 290.782 6.54073 1.82661 0
M  V30 3082 H 288.728 5.38317 3.74902 0
M  V30 3083 H 288.645 6.94146 2.99495 0
M  V30 3084 H 289.913 6.60713 4.13616 0
M  V30 3085 N 294.142 -0.090211 1.57342 0
M  V30 3086 C 295.388 -0.793982 1.86611 0
M  V30 3087 C 295.721 -1.78142 0.773252 0
M  V30 3088 O 294.996 -1.93271 -0.218304 0
M  V30 3089 C 295.279 -1.51839 3.26523 0
M  V30 3090 C 295.132 -0.548609 4.46442 0
M  V30 3091 C 296.451 -2.46779 3.64401 0
M  V30 3092 H 293.57 -0.287186 0.678744 0
M  V30 3093 H 296.212 -0.0575076 1.89913 0
M  V30 3094 H 294.362 -2.14617 3.23839 0
M  V30 3095 H 296.034 0.0725513 4.61243 0
M  V30 3096 H 294.277 0.137614 4.33582 0
M  V30 3097 H 294.948 -1.09271 5.41076 0
M  V30 3098 H 297.424 -1.94089 3.68061 0
M  V30 3099 H 296.3 -2.94479 4.63221 0
M  V30 3100 H 296.561 -3.30758 2.93346 0
M  V30 3101 N 295.62 -1.53406 -0.361157 0
M  V30 3102 C 297.036 -1.43277 -0.703124 0
M  V30 3103 C 297.236 -0.575384 -1.9311 0
M  V30 3104 O 296.292 -0.0595362 -2.5243 0
M  V30 3105 C 297.605 -2.8653 -0.9122 0
M  V30 3106 C 299.153 -2.96191 -1.01193 0
M  V30 3107 C 299.628 -4.40514 -1.25345 0
M  V30 3108 N 301.119 -4.43962 -1.32105 0
M  V30 3109 C 301.854 -5.52746 -1.5251 0
M  V30 3110 N 301.35 -6.71567 -1.70203 0
M  V30 3111 N 303.143 -5.40331 -1.54916 0
M  V30 3112 H 295.294 -2.07654 0.446475 0
M  V30 3113 H 297.557 -0.937944 0.137715 0
M  V30 3114 H 297.263 -3.51605 -0.0816414 0
M  V30 3115 H 297.137 -3.30441 -1.81903 0
M  V30 3116 H 299.524 -2.31266 -1.83303 0
M  V30 3117 H 299.605 -2.55667 -0.0823929 0
M  V30 3118 H 299.249 -5.06014 -0.437346 0
M  V30 3119 H 299.179 -4.78614 -2.19627 0
M  V30 3120 H 301.67 -3.58332 -1.20028 0
M  V30 3121 H 301.983 -7.50241 -1.85359 0
M  V30 3122 H 300.328 -6.74545 -1.67373 0
M  V30 3123 H 303.519 -4.46465 -1.40663 0
M  V30 3124 H 303.692 -6.25173 -1.70477 0
M  V30 3125 N 297.098 0.621204 -1.44841 0
M  V30 3126 C 298.509 1.20298 -1.42777 0
M  V30 3127 C 298.86 1.95639 -0.148259 0
M  V30 3128 O 297.985 2.02955 0.750892 0
M  V30 3129 C 298.58 2.1882 -2.58657 0
M  V30 3130 C 297.139 2.72403 -2.59756 0
M  V30 3131 C 296.286 1.4757 -2.34773 0
M  V30 3132 H 299.237 0.411297 -1.53278 0
M  V30 3133 H 299.258 3.01607 -2.31977 0
M  V30 3134 H 298.77 1.63957 -3.51766 0
M  V30 3135 H 296.871 3.31242 -1.70615 0
M  V30 3136 H 296.984 3.17765 -3.58556 0
M  V30 3137 H 295.348 1.76051 -1.8406 0
M  V30 3138 H 296.131 0.945954 -3.3001 0
M  V30 3139 N 298.576 1.31904 0.862503 0
M  V30 3140 C 299.822 1.23207 1.61838 0
M  V30 3141 C 300.177 -0.206062 1.91293 0
M  V30 3142 O 299.47 -1.14162 1.53875 0
M  V30 3143 C 299.664 2.01713 2.95037 0
M  V30 3144 C 299.493 3.53014 2.78588 0
M  V30 3145 C 298.263 4.22359 2.77382 0
M  V30 3146 C 300.461 4.47819 2.52909 0
M  V30 3147 N 298.443 5.59766 2.52062 0
M  V30 3148 C 299.814 5.72947 2.36922 0
M  V30 3149 C 301.869 4.37162 2.38314 0
M  V30 3150 C 300.572 6.88623 2.07823 0
M  V30 3151 C 302.598 5.5263 2.10604 0
M  V30 3152 C 301.96 6.76752 1.95411 0
M  V30 3153 H 298.059 0.505984 0.596242 0
M  V30 3154 H 300.643 1.66179 1.01452 0
M  V30 3155 H 298.814 1.61098 3.53415 0
M  V30 3156 H 300.546 1.84975 3.59953 0
M  V30 3157 H 297.301 3.74401 2.90036 0
M  V30 3158 H 297.725 6.32135 2.42352 0
M  V30 3159 H 302.367 3.41857 2.48784 0
M  V30 3160 H 300.085 7.83948 1.9609 0
M  V30 3161 H 303.671 5.46307 2.00101 0
M  V30 3162 H 302.551 7.6459 1.74274 0
M  V30 3163 N 300.054 -1.07777 1.14986 0
M  V30 3164 C 301.301 -1.8029 0.922056 0
M  V30 3165 C 301.629 -1.86531 -0.55105 0
M  V30 3166 O 300.884 -1.34189 -1.42449 0
M  V30 3167 C 301.183 -3.25495 1.47608 0
M  V30 3168 C 300.849 -3.39361 2.96893 0
M  V30 3169 C 299.511 -3.42852 3.37647 0
M  V30 3170 C 301.863 -3.42512 3.92854 0
M  V30 3171 C 299.191 -3.47094 4.73015 0
M  V30 3172 C 301.543 -3.4829 5.28088 0
M  V30 3173 C 300.207 -3.50058 5.68345 0
M  V30 3174 H 299.477 -0.659727 0.337404 0
M  V30 3175 H 302.124 -1.26854 1.43459 0
M  V30 3176 H 300.429 -3.81683 0.88463 0
M  V30 3177 H 302.126 -3.80168 1.27568 0
M  V30 3178 H 298.716 -3.37339 2.64387 0
M  V30 3179 H 302.9 -3.3904 3.62444 0
M  V30 3180 H 298.156 -3.46758 5.03556 0
M  V30 3181 H 302.33 -3.49675 6.02246 0
M  V30 3182 H 299.957 -3.53097 6.73221 0
M  V30 3183 N 301.532 -0.945985 -1.26051 0
M  V30 3184 C 302.464 -0.416662 -2.25381 0
M  V30 3185 C 303.477 0.462712 -1.56086 0
M  V30 3186 O 304.666 0.272383 -1.7641 0
M  V30 3187 C 301.766 0.419812 -3.3629 0
M  V30 3188 C 300.939 -0.444531 -4.35135 0
M  V30 3189 C 299.998 0.332305 -5.2515 0
M  V30 3190 O 299.024 -0.266324 -5.68577 0
M  V30 3191 N 300.226 1.62763 -5.57215 0
M  V30 3192 H 302.991 -1.27059 -2.71433 0
M  V30 3193 H 300.552 -0.815392 -1.39868 0
M  V30 3194 H 302.544 0.947013 -3.93464 0
M  V30 3195 H 301.114 1.17456 -2.89694 0
M  V30 3196 H 300.334 -1.15291 -3.76964 0
M  V30 3197 H 301.622 -1.03478 -4.98166 0
M  V30 3198 H 301.02 2.13603 -5.23823 0
M  V30 3199 H 299.577 2.10097 -6.17011 0
M  V30 3200 N 303.011 1.40521 -0.713556 0
M  V30 3201 C 303.961 2.27971 -0.036165 0
M  V30 3202 C 304.945 1.43151 0.734623 0
M  V30 3203 O 306.137 1.66261 0.607158 0
M  V30 3204 C 303.266 3.31661 0.886331 0
M  V30 3205 C 302.352 4.23955 0.110836 0
M  V30 3206 N 302.743 4.97641 -0.904847 0
M  V30 3207 C 301.041 4.44674 0.343692 0
M  V30 3208 C 301.742 5.65322 -1.37064 0
M  V30 3209 N 300.718 5.39162 -0.693168 0
M  V30 3210 H 304.52 2.82384 -0.814645 0
M  V30 3211 H 302.034 1.52948 -0.545963 0
M  V30 3212 H 304.031 3.93154 1.38692 0
M  V30 3213 H 302.691 2.78808 1.66421 0
M  V30 3214 H 303.702 5.01689 -1.28563 0
M  V30 3215 H 300.379 4.02801 1.09805 0
M  V30 3216 H 301.769 6.34359 -2.21447 0
M  V30 3217 N 304.489 0.459591 1.5075 0
M  V30 3218 C 305.905 0.113092 1.59199 0
M  V30 3219 C 306.105 -1.37951 1.46874 0
M  V30 3220 O 305.161 -2.15168 1.32132 0
M  V30 3221 C 306.474 0.653043 2.93523 0
M  V30 3222 C 308.022 0.615449 3.0689 0
M  V30 3223 C 308.497 1.13275 4.43771 0
M  V30 3224 N 309.988 1.09167 4.50152 0
M  V30 3225 C 310.723 1.46256 5.54434 0
M  V30 3226 N 310.219 1.90739 6.66026 0
M  V30 3227 N 312.012 1.37932 5.44914 0
M  V30 3228 H 304.163 1.43049 1.57005 0
M  V30 3229 H 306.426 0.590861 0.741341 0
M  V30 3230 H 306.132 1.69822 3.07983 0
M  V30 3231 H 306.006 0.0902132 3.77092 0
M  V30 3232 H 308.393 -0.420793 2.92084 0
M  V30 3233 H 308.474 1.21495 2.25106 0
M  V30 3234 H 308.118 2.16757 4.59324 0
M  V30 3235 H 308.048 0.509576 5.24129 0
M  V30 3236 H 310.539 0.76528 3.7007 0
M  V30 3237 H 310.852 2.17218 7.41644 0
M  V30 3238 H 309.197 1.94683 6.67176 0
M  V30 3239 H 312.388 1.0303 4.56621 0
M  V30 3240 H 312.561 1.67164 6.26067 0
M  V30 3241 N 305.967 -1.56429 0.191757 0
M  V30 3242 C 306.93 -2.17707 -0.716688 0
M  V30 3243 C 307.93 -1.13061 -1.14341 0
M  V30 3244 O 309.12 -1.38464 -1.05704 0
M  V30 3245 C 306.252 -2.77644 -1.97804 0
M  V30 3246 H 307.445 -2.99342 -0.1829 0
M  V30 3247 H 304.998 -1.56193 -0.0578566 0
M  V30 3248 H 305.733 -1.99799 -2.55443 0
M  V30 3249 H 305.518 -3.54246 -1.68083 0
M  V30 3250 H 307.008 -3.24708 -2.62592 0
M  V30 3251 N 307.445 0.0818655 -1.57387 0
M  V30 3252 C 308.395 1.10501 -1.99433 0
M  V30 3253 C 309.379 1.35041 -0.874798 0
M  V30 3254 O 310.571 1.35511 -1.13868 0
M  V30 3255 C 307.7 2.42159 -2.43339 0
M  V30 3256 C 306.786 2.20937 -3.62005 0
M  V30 3257 N 307.177 1.69616 -4.76512 0
M  V30 3258 C 305.475 2.51451 -3.68359 0
M  V30 3259 C 306.176 1.62973 -5.58404 0
M  V30 3260 N 305.152 2.08664 -5.01956 0
M  V30 3261 H 308.954 0.701373 -2.85408 0
M  V30 3262 H 306.468 0.289096 -1.59806 0
M  V30 3263 H 308.465 3.16208 -2.71695 0
M  V30 3264 H 307.125 2.83249 -1.58746 0
M  V30 3265 H 308.136 1.38624 -4.99003 0
M  V30 3266 H 304.813 2.95975 -2.94457 0
M  V30 3267 H 306.203 1.24233 -6.60315 0
M  V30 3268 N 308.923 1.53595 0.353017 0
M  V30 3269 C 309.856 1.7572 1.45594 0
M  V30 3270 C 310.834 0.605961 1.50887 0
M  V30 3271 O 312.018 0.840023 1.68748 0
M  V30 3272 C 309.145 1.84732 2.83887 0
M  V30 3273 C 308.191 3.06808 2.96262 0
M  V30 3274 S 309.024 4.66065 2.63711 0
M  V30 3275 C 310.18 4.77943 4.04131 0
M  V30 3276 H 310.413 2.68994 1.26608 0
M  V30 3277 H 307.946 1.44343 0.548117 0
M  V30 3278 H 309.904 1.9061 3.63563 0
M  V30 3279 H 308.565 0.92488 3.00175 0
M  V30 3280 H 307.758 3.09761 3.97573 0
M  V30 3281 H 307.36 2.99108 2.24523 0
M  V30 3282 H 309.652 4.5877 4.98534 0
M  V30 3283 H 310.595 5.80022 4.06177 0
M  V30 3284 H 311.003 4.06472 3.91715 0
M  V30 3285 N 310.401 -0.613514 1.45168 0
M  V30 3286 C 311.351 -1.71871 1.49815 0
M  V30 3287 C 312.335 -1.56774 0.362021 0
M  V30 3288 O 313.527 -1.66212 0.608493 0
M  V30 3289 C 310.656 -3.1061 1.46207 0
M  V30 3290 C 309.742 -3.31114 2.64999 0
M  V30 3291 N 310.133 -3.21904 3.90143 0
M  V30 3292 C 308.431 -3.61966 2.6057 0
M  V30 3293 C 309.132 -3.43577 4.69393 0
M  V30 3294 N 308.108 -3.67287 4.00751 0
M  V30 3295 H 311.91 -1.63235 2.444 0
M  V30 3296 H 309.424 -0.816577 1.40377 0
M  V30 3297 H 311.421 -3.8989 1.4762 0
M  V30 3298 H 310.081 -3.20399 0.52673 0
M  V30 3299 H 311.092 -3.00436 4.21852 0
M  V30 3300 H 307.769 -3.78629 1.75916 0
M  V30 3301 H 309.159 -3.41901 5.78406 0
M  V30 3302 N 311.879 -1.3236 -0.855495 0
M  V30 3303 C 313.125 -1.23054 -1.612 0
M  V30 3304 C 313.458 0.207404 -1.93089 0
M  V30 3305 O 312.733 1.14432 -1.57275 0
M  V30 3306 C 313.016 -2.08937 -2.93287 0
M  V30 3307 C 312.869 -3.61105 -2.68185 0
M  V30 3308 C 314.188 -1.94986 -3.94549 0
M  V30 3309 H 311.307 -0.448364 -0.584926 0
M  V30 3310 H 313.949 -1.62297 -0.987917 0
M  V30 3311 H 312.099 -1.75599 -3.46551 0
M  V30 3312 H 313.771 -4.04652 -2.21483 0
M  V30 3313 H 312.014 -3.83813 -2.02164 0
M  V30 3314 H 312.685 -4.16522 -3.62234 0
M  V30 3315 H 315.161 -2.24189 -3.5054 0
M  V30 3316 H 314.037 -2.57356 -4.84829 0
M  V30 3317 H 314.298 -0.917263 -4.3248 0
M  V30 3318 N 313.357 1.07166 -1.15556 0
M  V30 3319 C 314.773 1.31899 -0.898603 0
M  V30 3320 C 314.973 1.96333 0.453383 0
M  V30 3321 O 314.029 2.22438 1.19489 0
M  V30 3322 C 315.342 2.20826 -2.04099 0
M  V30 3323 C 316.89 2.34269 -2.07574 0
M  V30 3324 C 317.365 3.26546 -3.21141 0
M  V30 3325 N 318.856 3.34127 -3.20801 0
M  V30 3326 C 319.591 4.05595 -4.05315 0
M  V30 3327 N 319.087 4.79661 -4.99897 0
M  V30 3328 N 320.88 4.01555 -3.93332 0
M  V30 3329 H 313.031 0.637302 -2.02613 0
M  V30 3330 H 315.294 0.343468 -0.883591 0
M  V30 3331 H 315 1.80744 -3.01703 0
M  V30 3332 H 314.874 3.21364 -1.97496 0
M  V30 3333 H 317.261 2.73603 -1.10568 0
M  V30 3334 H 317.342 1.33429 -2.18244 0
M  V30 3335 H 316.986 2.87931 -4.184 0
M  V30 3336 H 316.916 4.27345 -3.07708 0
M  V30 3337 H 319.407 2.81336 -2.52306 0
M  V30 3338 H 319.72 5.31694 -5.60822 0
M  V30 3339 H 318.065 4.78671 -5.03884 0
M  V30 3340 H 321.256 3.42806 -3.18751 0
M  V30 3341 H 321.429 4.56987 -4.5942 0
M  V30 3342 N 314.835 0.952656 1.25548 0
M  V30 3343 C 315.765 0.489287 2.28316 0
M  V30 3344 C 316.746 -0.463359 1.63667 0
M  V30 3345 O 317.931 -0.36274 1.90782 0
M  V30 3346 C 315.061 -0.235603 3.465 0
M  V30 3347 C 314.015 0.631593 4.23314 0
M  V30 3348 C 313.341 -0.223923 5.34231 0
M  V30 3349 C 314.641 1.90871 4.86174 0
M  V30 3350 H 316.335 1.34822 2.67326 0
M  V30 3351 H 313.881 0.649728 1.28509 0
M  V30 3352 H 315.834 -0.570882 4.17515 0
M  V30 3353 H 314.558 -1.12877 3.06474 0
M  V30 3354 H 313.217 0.949929 3.54079 0
M  V30 3355 H 312.865 -1.11678 4.90446 0
M  V30 3356 H 312.565 0.35299 5.86539 0
M  V30 3357 H 314.089 -0.554214 6.0808 0
M  V30 3358 H 315.503 1.63997 5.49343 0
M  V30 3359 H 313.9 2.43112 5.4865 0
M  V30 3360 H 314.97 2.61304 4.08471 0
M  V30 3361 N 316.313 -1.40141 0.720998 0
M  V30 3362 C 317.729 -1.54632 0.395113 0
M  V30 3363 C 317.929 -1.69115 -1.09555 0
M  V30 3364 O 316.985 -1.68377 -1.88163 0
M  V30 3365 C 318.298 -2.77177 1.1659 0
M  V30 3366 C 319.846 -2.91 1.15274 0
M  V30 3367 C 320.321 -4.16465 1.90579 0
M  V30 3368 N 321.812 -4.23476 1.87675 0
M  V30 3369 C 322.547 -5.19475 2.42762 0
M  V30 3370 N 322.043 -6.21348 3.06428 0
M  V30 3371 N 323.836 -5.11592 2.32874 0
M  V30 3372 H 315.987 -1.28986 1.68749 0
M  V30 3373 H 318.25 -0.62412 0.713567 0
M  V30 3374 H 317.956 -2.72771 2.22011 0
M  V30 3375 H 317.83 -3.69442 0.76108 0
M  V30 3376 H 320.217 -2.94907 0.106702 0
M  V30 3377 H 320.298 -1.99838 1.59682 0
M  V30 3378 H 319.942 -4.1332 2.95176 0
M  V30 3379 H 319.872 -5.06646 1.43587 0
M  V30 3380 H 322.363 -3.50497 1.41281 0
M  V30 3381 H 322.676 -6.91034 3.45965 0
M  V30 3382 H 321.021 -6.21777 3.10514 0
M  V30 3383 H 324.212 -4.30936 1.82789 0
M  V30 3384 H 324.385 -5.86233 2.76106 0
M  V30 3385 N 317.792 -0.46758 -1.50504 0
M  V30 3386 C 319.032 0.0874114 -2.04213 0
M  V30 3387 C 319.396 1.37301 -1.34211 0
M  V30 3388 O 320.597 2.01015 -1.78456 0
M  V30 3389 C 318.868 0.270571 -3.56374 0
M  V30 3390 S 320.427 0.784623 -4.31728 0
M  V30 3391 H 317.245 0.0176153 -0.710782 0
M  V30 3392 H 319.847 -0.633915 -1.84937 0
M  V30 3393 H 318.551 -0.670942 -4.04878 0
M  V30 3394 H 318.082 1.01811 -3.79997 0
M  V30 3395 H 320.097 2.05849 -4.51487 0
M  V30 3396 N 319.27 1.56325 -0.20005 0
M  V30 3397 C 320.681 1.8408 0.31167 0
M  V30 3398 C 321.032 1.12087 1.61031 0
M  V30 3399 O 320.157 0.38332 2.12978 0
M  V30 3400 C 320.752 3.33932 0.57226 0
M  V30 3401 C 319.311 3.6208 1.02834 0
M  V30 3402 C 318.458 2.77186 0.079634 0
M  V30 3403 H 321.409 1.52939 -0.423729 0
M  V30 3404 H 321.43 3.52971 1.42096 0
M  V30 3405 H 320.942 3.86303 -0.37308 0
M  V30 3406 H 319.043 3.15147 1.98778 0
M  V30 3407 H 319.156 4.7023 0.917624 0
M  V30 3408 H 317.52 2.47951 0.582448 0
M  V30 3409 H 318.303 3.32347 -0.860238 0
M  V30 3410 N 320.748 -0.0735177 1.57428 0
M  V30 3411 C 321.711 -1.07192 2.02589 0
M  V30 3412 C 322.711 -1.31695 0.922661 0
M  V30 3413 O 323.901 -1.27445 1.18758 0
M  V30 3414 C 321.033 -2.41599 2.40506 0
M  V30 3415 H 322.226 -0.682727 2.92025 0
M  V30 3416 H 319.779 -0.319193 1.53006 0
M  V30 3417 H 320.514 -2.85354 1.5409 0
M  V30 3418 H 320.299 -2.25156 3.21009 0
M  V30 3419 H 321.789 -3.13367 2.76027 0
M  V30 3420 N 322.226 -1.5378 -0.344866 0
M  V30 3421 C 323.503 -1.61589 -1.10219 0
M  V30 3422 C 323.883 -0.436316 -2.06542 0
M  V30 3423 O 323.231 0.571543 -2.21237 0
M  V30 3424 C 323.441 -2.97602 -1.82301 0
M  V30 3425 C 324.789 -3.5291 -2.36093 0
M  V30 3426 O 325.813 -2.99768 -1.924 0
M  V30 3427 O 324.672 -4.45859 -3.16026 0
M  V30 3428 H 321.766 -0.653522 -0.506792 0
M  V30 3429 H 324.312 -1.66126 -0.346465 0
M  V30 3430 H 323.084 -3.74893 -1.12121 0
M  V30 3431 H 322.707 -2.9665 -2.64735 0
M  V30 3432 N 323.704 0.605807 -1.45491 0
M  V30 3433 C 324.929 1.39625 -1.53361 0
M  V30 3434 C 325.354 1.87351 -0.167645 0
M  V30 3435 O 324.712 1.60243 0.848051 0
M  V30 3436 C 324.76 2.57559 -2.5238 0
M  V30 3437 O 323.864 3.58248 -2.04285 0
M  V30 3438 H 323.205 0.416771 -0.516912 0
M  V30 3439 H 325.735 0.737103 -1.90861 0
M  V30 3440 H 325.745 3.0478 -2.71244 0
M  V30 3441 H 324.42 2.22171 -3.51586 0
M  V30 3442 H 322.997 3.17664 -1.95305 0
M  V30 3443 N 325.182 1.32811 0.848464 0
M  V30 3444 C 326.112 1.24882 1.97299 0
M  V30 3445 C 327.093 0.131357 1.69592 0
M  V30 3446 O 328.278 0.319553 1.91553 0
M  V30 3447 C 325.408 0.97746 3.33261 0
M  V30 3448 C 324.362 2.05682 3.75338 0
M  V30 3449 C 323.688 1.63777 5.09 0
M  V30 3450 C 324.988 3.47254 3.90144 0
M  V30 3451 H 326.682 2.18966 2.04191 0
M  V30 3452 H 324.228 1.05413 0.981029 0
M  V30 3453 H 326.181 0.908513 4.1149 0
M  V30 3454 H 324.905 0.000980011 3.266 0
M  V30 3455 H 323.564 2.11603 2.99366 0
M  V30 3456 H 323.212 0.648569 4.98801 0
M  V30 3457 H 322.912 2.36 5.38124 0
M  V30 3458 H 324.436 1.5833 5.89715 0
M  V30 3459 H 325.85 3.43888 4.58709 0
M  V30 3460 H 324.247 4.1788 4.30693 0
M  V30 3461 H 325.317 3.86462 2.92874 0
M  V30 3462 N 326.66 -1.06551 1.16123 0
M  V30 3463 C 327.57 -2.17484 0.879662 0
M  V30 3464 C 328.586 -1.73377 -0.147104 0
M  V30 3465 O 329.762 -2.01379 0.0289128 0
M  V30 3466 C 326.827 -3.44591 0.381829 0
M  V30 3467 C 325.888 -4.0322 1.4735 0
M  V30 3468 C 325.121 -5.24261 0.999324 0
M  V30 3469 O 325.344 -5.70198 -0.151957 0
M  V30 3470 O 324.278 -5.74775 1.78653 0
M  V30 3471 H 328.104 -2.44075 1.80724 0
M  V30 3472 H 325.689 -1.16042 0.940992 0
M  V30 3473 H 327.571 -4.21254 0.111053 0
M  V30 3474 H 326.246 -3.19532 -0.51777 0
M  V30 3475 H 325.153 -3.2806 1.79798 0
M  V30 3476 H 326.486 -4.32568 2.34831 0
M  V30 3477 N 328.138 -0.959301 -1.25041 0
M  V30 3478 C 329.378 -0.624343 -1.94631 0
M  V30 3479 C 329.742 0.82403 -1.73418 0
M  V30 3480 O 330.943 1.26881 -2.3697 0
M  V30 3481 C 329.214 -0.978805 -3.43736 0
M  V30 3482 S 330.773 -0.757127 -4.32219 0
M  V30 3483 H 327.591 -0.229327 -0.673001 0
M  V30 3484 H 330.193 -1.23447 -1.51595 0
M  V30 3485 H 328.897 -2.02997 -3.56679 0
M  V30 3486 H 328.428 -0.359117 -3.91757 0
M  V30 3487 H 330.443 0.369759 -4.9482 0
M  V30 3488 N 329.616 1.39756 -0.72842 0
M  V30 3489 C 330.526 2.34444 -0.0855374 0
M  V30 3490 C 331.542 1.57976 0.729356 0
M  V30 3491 O 332.718 1.90301 0.659346 0
M  V30 3492 C 329.783 3.36965 0.815798 0
M  V30 3493 C 328.844 4.29299 -0.0105996 0
M  V30 3494 C 328.077 5.26923 0.84781 0
M  V30 3495 O 328.3 5.30859 2.08673 0
M  V30 3496 O 327.234 6.01249 0.279969 0
M  V30 3497 H 331.06 2.91065 -0.866892 0
M  V30 3498 H 328.645 1.4117 -0.48902 0
M  V30 3499 H 330.527 3.99804 1.33171 0
M  V30 3500 H 329.202 2.82739 1.57608 0
M  V30 3501 H 328.109 3.69703 -0.571877 0
M  V30 3502 H 329.442 4.86712 -0.73295 0
M  V30 3503 N 331.094 0.475555 1.50254 0
M  V30 3504 C 332.371 -0.139685 1.95101 0
M  V30 3505 C 332.751 -1.56555 1.41611 0
M  V30 3506 O 332.099 -2.19956 0.618993 0
M  V30 3507 C 332.309 -0.0784298 3.48912 0
M  V30 3508 C 333.657 -0.265095 4.23772 0
M  V30 3509 O 334.681 -0.154808 3.55863 0
M  V30 3510 O 333.54 -0.488327 5.44314 0
M  V30 3511 H 330.634 -0.109236 0.819754 0
M  V30 3512 H 333.18 0.536276 1.61004 0
M  V30 3513 H 331.952 0.916918 3.80405 0
M  V30 3514 H 331.575 -0.795655 3.89558 0
M  V30 3515 N 332.573 -1.56217 0.208337 0
M  V30 3516 C 333.505 -2.1695 -0.739276 0
M  V30 3517 C 334.518 -1.13492 -1.1672 0
M  V30 3518 O 335.707 -1.40529 -1.10063 0
M  V30 3519 C 332.807 -2.72755 -2.01142 0
M  V30 3520 C 331.98 -4.0125 -1.74118 0
M  V30 3521 C 331.039 -4.41749 -2.85909 0
M  V30 3522 O 330.065 -5.08912 -2.54946 0
M  V30 3523 N 331.267 -4.06342 -4.14568 0
M  V30 3524 H 334.032 -2.98893 -0.219837 0
M  V30 3525 H 331.593 -1.61878 0.0268445 0
M  V30 3526 H 333.585 -2.96826 -2.75094 0
M  V30 3527 H 332.155 -1.95191 -2.4417 0
M  V30 3528 H 331.375 -3.85173 -0.838775 0
M  V30 3529 H 332.663 -4.851 -1.53477 0
M  V30 3530 H 332.061 -3.52345 -4.42571 0
M  V30 3531 H 330.618 -4.35335 -4.85105 0
M  V30 3532 N 334.051 0.0651679 -1.57465 0
M  V30 3533 C 335.462 0.616213 -1.76238 0
M  V30 3534 C 335.813 1.7756 -0.834689 0
M  V30 3535 O 334.938 2.1639 -0.0204156 0
M  V30 3536 C 335.533 1.12462 -3.1959 0
M  V30 3537 C 334.092 1.62147 -3.39684 0
M  V30 3538 C 333.239 0.543739 -2.71917 0
M  V30 3539 H 336.19 -0.161022 -1.57881 0
M  V30 3540 H 336.211 1.99324 -3.24114 0
M  V30 3541 H 335.723 0.280592 -3.87084 0
M  V30 3542 H 333.824 2.48854 -2.77313 0
M  V30 3543 H 333.937 1.69385 -4.48158 0
M  V30 3544 H 332.301 0.990352 -2.34657 0
M  V30 3545 H 333.084 -0.290216 -3.42071 0
M  V30 3546 N 335.529 1.53961 0.336706 0
M  V30 3547 C 336.459 1.85417 1.41925 0
M  V30 3548 C 337.44 0.709856 1.5458 0
M  V30 3549 O 338.625 0.962396 1.68676 0
M  V30 3550 C 335.755 2.06985 2.78881 0
M  V30 3551 C 334.709 3.22813 2.81026 0
M  V30 3552 C 334.035 3.29727 4.20932 0
M  V30 3553 C 335.335 4.60767 2.45949 0
M  V30 3554 H 337.029 2.76079 1.15848 0
M  V30 3555 H 334.575 1.32839 0.555859 0
M  V30 3556 H 336.528 2.27575 3.54665 0
M  V30 3557 H 335.252 1.13061 3.06406 0
M  V30 3558 H 333.911 3.0209 2.07695 0
M  V30 3559 H 333.559 2.33385 4.45579 0
M  V30 3560 H 333.259 4.07566 4.23277 0
M  V30 3561 H 334.783 3.52536 4.98549 0
M  V30 3562 H 336.197 4.81325 3.11446 0
M  V30 3563 H 334.594 5.4106 2.59566 0
M  V30 3564 H 335.664 4.6391 1.41122 0
M  V30 3565 N 337.007 -0.598083 1.45811 0
M  V30 3566 C 338.418 -1.18011 1.44673 0
M  V30 3567 C 338.769 -1.95378 0.179364 0
M  V30 3568 O 337.894 -2.04124 -0.718509 0
M  V30 3569 C 338.489 -2.14677 2.62105 0
M  V30 3570 C 337.048 -2.68236 2.64057 0
M  V30 3571 C 336.195 -1.43816 2.37091 0
M  V30 3572 H 339.146 -0.38686 1.53913 0
M  V30 3573 H 339.167 -2.97878 2.36746 0
M  V30 3574 H 338.679 -1.5834 3.5433 0
M  V30 3575 H 336.78 -3.28486 1.75864 0
M  V30 3576 H 336.893 -3.12021 3.63566 0
M  V30 3577 H 335.257 -1.731 1.86838 0
M  V30 3578 H 336.04 -0.893333 3.31473 0
M  V30 3579 N 338.485 -1.33259 -0.841409 0
M  V30 3580 C 339.896 -1.22066 -1.41269 0
M  V30 3581 C 340.247 0.161479 -1.95534 0
M  V30 3582 O 339.372 1.06094 -1.88608 0
M  V30 3583 C 339.967 -2.20996 -2.568 0
M  V30 3584 C 338.526 -2.13649 -3.09888 0
M  V30 3585 C 337.673 -2.08623 -1.82679 0
M  V30 3586 H 340.624 -1.44895 -0.647395 0
M  V30 3587 H 340.645 -1.81621 -3.34356 0
M  V30 3588 H 340.157 -3.2158 -2.17274 0
M  V30 3589 H 338.258 -1.16359 -3.53965 0
M  V30 3590 H 338.371 -3.04079 -3.70234 0
M  V30 3591 H 336.735 -1.54061 -2.02824 0
M  V30 3592 H 337.518 -3.1101 -1.45353 0
M  V30 3593 N 339.963 1.05934 -1.16686 0
M  V30 3594 C 341.188 1.83029 -0.975455 0
M  V30 3595 C 341.613 1.82096 0.471452 0
M  V30 3596 O 340.971 1.22443 1.33706 0
M  V30 3597 C 341.019 3.27372 -1.51195 0
M  V30 3598 O 340.123 4.06054 -0.720701 0
M  V30 3599 H 339.464 0.566194 -0.346872 0
M  V30 3600 H 341.994 1.33541 -1.55009 0
M  V30 3601 H 342.004 3.78186 -1.53099 0
M  V30 3602 H 340.679 3.27366 -2.56523 0
M  V30 3603 H 339.256 3.64812 -0.772458 0
M  V30 3604 N 341.441 0.965919 1.2453 0
M  V30 3605 C 342.689 0.625593 1.92174 0
M  V30 3606 C 343.01 -0.841652 1.75901 0
M  V30 3607 O 342.28 -1.60061 1.12948 0
M  V30 3608 H 340.86 0.228388 0.71123 0
M  V30 3609 H 343.522 1.2266 1.51461 0
M  V30 3610 H 342.618 0.864653 2.99884 0
M  V30 3611 N 342.919 -1.39368 0.735821 0
M  V30 3612 C 344.196 -1.94465 0.210395 0
M  V30 3613 C 344.576 -1.67254 -1.28799 0
M  V30 3614 O 343.924 -1.00123 -2.05396 0
M  V30 3615 C 344.134 -3.4472 0.544897 0
M  V30 3616 C 345.482 -4.21708 0.494689 0
M  V30 3617 O 346.506 -3.52922 0.482136 0
M  V30 3618 O 345.365 -5.44299 0.489947 0
M  V30 3619 H 342.459 -0.826096 0.0386666 0
M  V30 3620 H 345.005 -1.48863 0.814735 0
M  V30 3621 H 343.777 -3.57963 1.58045 0
M  V30 3622 H 343.4 -3.97502 -0.08837 0
M  V30 3623 N 344.397 -0.483516 -1.5 0
M  V30 3624 C 345.645 0.067027 -2.01989 0
M  V30 3625 C 345.966 1.3909 -1.36671 0
M  V30 3626 O 345.236 1.88978 -0.516152 0
M  V30 3627 H 343.816 0.0277606 -0.746484 0
M  V30 3628 H 346.478 -0.636773 -1.84204 0
M  V30 3629 H 345.574 0.209484 -3.11396 0
M  V30 3630 N 345.875 1.56104 -0.216619 0
M  V30 3631 C 347.115 2.00074 0.418322 0
M  V30 3632 C 347.479 1.10098 1.57297 0
M  V30 3633 O 348.68 1.43393 2.27359 0
M  V30 3634 C 346.951 3.47231 0.846477 0
M  V30 3635 S 348.51 4.13223 1.47622 0
M  V30 3636 H 345.328 0.698457 0.132962 0
M  V30 3637 H 347.93 1.92784 -0.324748 0
M  V30 3638 H 346.634 4.104 -0.0036319 0
M  V30 3639 H 346.165 3.58384 1.62248 0
M  V30 3640 H 348.18 4.12005 2.76526 0
M  V30 3641 N 347.353 -0.0568162 1.57498 0
M  V30 3642 C 348.601 -0.751617 1.87604 0
M  V30 3643 C 348.922 -1.77351 0.81066 0
M  V30 3644 O 348.192 -1.95254 -0.159018 0
M  V30 3645 H 346.772 -0.280583 0.692302 0
M  V30 3646 H 349.434 -0.0293483 1.94878 0
M  V30 3647 H 348.53 -1.25852 2.856 0
M  V30 3648 N 348.832 -1.54138 -0.328536 0
M  V30 3649 C 349.795 -1.82462 -1.38709 0
M  V30 3650 C 350.795 -0.696229 -1.44946 0
M  V30 3651 O 351.985 -0.964535 -1.4506 0
M  V30 3652 C 349.117 -1.98018 -2.77492 0
M  V30 3653 H 350.31 -2.77037 -1.14851 0
M  V30 3654 H 347.863 -1.45779 -0.563751 0
M  V30 3655 H 348.598 -1.05637 -3.06613 0
M  V30 3656 H 348.383 -2.80124 -2.74359 0
M  V30 3657 H 349.873 -2.21396 -3.54081 0
M  V30 3658 N 350.31 0.590341 -1.46126 0
M  V30 3659 C 351.22 1.72793 -1.58681 0
M  V30 3660 C 352.236 1.67516 -0.470566 0
M  V30 3661 O 353.412 1.87562 -0.733642 0
M  V30 3662 C 350.477 3.09287 -1.5666 0
M  V30 3663 C 349.538 3.25886 -2.79458 0
M  V30 3664 C 348.771 4.55869 -2.77524 0
M  V30 3665 O 348.994 5.3928 -1.85832 0
M  V30 3666 O 347.928 4.75552 -3.68964 0
M  V30 3667 H 351.754 1.65149 -2.54872 0
M  V30 3668 H 349.339 0.756486 -1.28832 0
M  V30 3669 H 351.221 3.90577 -1.58202 0
M  V30 3670 H 349.896 3.17385 -0.636271 0
M  V30 3671 H 348.803 2.44119 -2.83472 0
M  V30 3672 H 350.136 3.22675 -3.71674 0
M  V30 3673 N 351.788 1.33704 0.83433 0
M  V30 3674 C 352.718 1.26967 1.95963 0
M  V30 3675 C 353.699 0.149337 1.69443 0
M  V30 3676 O 354.884 0.339852 1.91203 0
M  V30 3677 C 352.014 1.01275 3.32206 0
M  V30 3678 C 350.968 2.09652 3.73136 0
M  V30 3679 C 350.294 1.69166 5.07235 0
M  V30 3680 C 351.594 3.51372 3.86439 0
M  V30 3681 H 353.288 2.2112 2.01857 0
M  V30 3682 H 350.834 1.06447 0.969793 0
M  V30 3683 H 352.787 0.952106 4.10503 0
M  V30 3684 H 351.511 0.0356203 3.26581 0
M  V30 3685 H 350.17 2.14766 2.97104 0
M  V30 3686 H 349.818 0.701437 4.98085 0
M  V30 3687 H 349.518 2.41694 5.35591 0
M  V30 3688 H 351.042 1.64576 5.88003 0
M  V30 3689 H 352.456 3.48734 4.55036 0
M  V30 3690 H 350.853 4.22425 4.26236 0
M  V30 3691 H 351.923 3.89546 2.88759 0
M  V30 3692 N 353.266 -1.05314 1.17247 0
M  V30 3693 C 354.198 -2.13023 0.845812 0
M  V30 3694 C 355.211 -1.62096 -0.151246 0
M  V30 3695 O 356.4 -1.78343 0.0748818 0
M  V30 3696 C 353.5 -3.38047 0.240292 0
M  V30 3697 C 352.673 -4.18255 1.27991 0
M  V30 3698 C 351.732 -5.21625 0.692375 0
M  V30 3699 O 350.758 -5.52619 1.36385 0
M  V30 3700 N 351.96 -5.78201 -0.516178 0
M  V30 3701 H 354.725 -2.41642 1.77283 0
M  V30 3702 H 352.286 -1.21401 1.07115 0
M  V30 3703 H 354.278 -4.04359 -0.16603 0
M  V30 3704 H 352.848 -3.06972 -0.590487 0
M  V30 3705 H 352.068 -3.47451 1.86203 0
M  V30 3706 H 353.356 -4.68643 1.98119 0
M  V30 3707 H 352.754 -5.55301 -1.07969 0
M  V30 3708 H 351.311 -6.4604 -0.86458 0
M  V30 3709 N 354.744 -0.972509 -1.24016 0
M  V30 3710 C 355.969 -0.654417 -1.96805 0
M  V30 3711 C 356.394 0.770398 -1.716 0
M  V30 3712 O 355.752 1.52361 -0.982647 0
M  V30 3713 C 355.8 -0.941031 -3.48105 0
M  V30 3714 O 354.904 -0.0289472 -4.1239 0
M  V30 3715 H 354.245 -0.24692 -0.616382 0
M  V30 3716 H 356.775 -1.30396 -1.57664 0
M  V30 3717 H 356.785 -0.87452 -3.98517 0
M  V30 3718 H 355.46 -1.97939 -3.65777 0
M  V30 3719 H 354.037 -0.149192 -3.72601 0
M  V30 3720 N 356.222 1.38976 -0.743202 0
M  V30 3721 C 357.468 2.01114 -0.304109 0
M  V30 3722 C 357.823 1.57929 1.09892 0
M  V30 3723 O 357.116 0.801983 1.74008 0
M  V30 3724 C 357.31 3.55647 -0.353517 0
M  V30 3725 C 357.139 4.13837 -1.75981 0
M  V30 3726 C 355.909 4.46062 -2.37395 0
M  V30 3727 C 358.107 4.36812 -2.71477 0
M  V30 3728 N 356.089 4.898 -3.70093 0
M  V30 3729 C 357.46 4.82844 -3.88923 0
M  V30 3730 C 359.515 4.18893 -2.69134 0
M  V30 3731 C 358.218 5.12837 -5.04371 0
M  V30 3732 C 360.244 4.50005 -3.83731 0
M  V30 3733 C 359.606 4.96251 -4.99914 0
M  V30 3734 H 355.705 0.765931 -0.157716 0
M  V30 3735 H 358.289 1.68763 -0.970931 0
M  V30 3736 H 356.46 3.87368 0.282987 0
M  V30 3737 H 358.192 4.04564 0.104904 0
M  V30 3738 H 354.947 4.34145 -1.89248 0
M  V30 3739 H 355.371 5.16016 -4.38242 0
M  V30 3740 H 360.013 3.82335 -1.80499 0
M  V30 3741 H 357.731 5.48297 -5.9363 0
M  V30 3742 H 361.317 4.37755 -3.83225 0
M  V30 3743 H 360.197 5.19867 -5.87118 0
M  V30 3744 N 357.7 0.491464 1.49741 0
M  V30 3745 C 358.947 -0.0564256 2.02421 0
M  V30 3746 C 359.275 -1.37872 1.37192 0
M  V30 3747 O 358.53 -1.89375 0.493508 0
M  V30 3748 C 358.829 -0.267329 3.56399 0
M  V30 3749 C 358.495 0.975775 4.40215 0
M  V30 3750 C 357.157 1.31655 4.62839 0
M  V30 3751 C 359.509 1.80251 4.89039 0
M  V30 3752 C 356.837 2.48375 5.31532 0
M  V30 3753 C 359.189 2.96116 5.59015 0
M  V30 3754 C 357.853 3.30585 5.79888 0
M  V30 3755 H 357.123 -0.0206476 0.740712 0
M  V30 3756 H 359.77 0.649686 1.80143 0
M  V30 3757 H 358.075 -1.05588 3.77304 0
M  V30 3758 H 359.772 -0.705549 3.94744 0
M  V30 3759 H 356.362 0.700315 4.2284 0
M  V30 3760 H 360.546 1.55239 4.71396 0
M  V30 3761 H 355.802 2.7533 5.45897 0
M  V30 3762 H 359.976 3.60509 5.95824 0
M  V30 3763 H 357.603 4.21132 6.32892 0
M  V30 3764 N 359.178 -1.55987 0.224894 0
M  V30 3765 C 360.088 -2.24066 -0.69511 0
M  V30 3766 C 361.104 -1.24939 -1.21104 0
M  V30 3767 O 362.28 -1.5776 -1.25195 0
M  V30 3768 C 359.345 -2.90983 -1.88493 0
M  V30 3769 C 358.406 -4.05462 -1.41064 0
M  V30 3770 C 357.639 -4.69179 -2.54375 0
M  V30 3771 O 357.862 -4.31895 -3.72589 0
M  V30 3772 O 356.796 -5.58108 -2.25386 0
M  V30 3773 H 360.622 -3.03353 -0.145149 0
M  V30 3774 H 358.207 -1.49399 -0.00569476 0
M  V30 3775 H 360.089 -3.33209 -2.57972 0
M  V30 3776 H 358.764 -2.14653 -2.42293 0
M  V30 3777 H 357.671 -3.67798 -0.683774 0
M  V30 3778 H 359.004 -4.83545 -0.918985 0
M  V30 3779 N 360.656 0.0484629 -1.57525 0
M  V30 3780 C 362.067 0.597486 -1.76881 0
M  V30 3781 C 362.418 1.76664 -0.853475 0
M  V30 3782 O 361.543 2.16357 -0.0433656 0
M  V30 3783 C 362.138 1.09066 -3.20765 0
M  V30 3784 C 360.697 1.58535 -3.41385 0
M  V30 3785 C 359.844 0.514868 -2.72478 0
M  V30 3786 H 362.795 -0.177758 -1.57701 0
M  V30 3787 H 362.816 1.95875 -3.2621 0
M  V30 3788 H 362.328 0.239521 -3.8736 0
M  V30 3789 H 360.429 2.45898 -2.79937 0
M  V30 3790 H 360.542 1.64622 -4.49929 0
M  V30 3791 H 358.906 0.965407 -2.35695 0
M  V30 3792 H 359.689 -0.32648 -3.41744 0
M  V30 3793 N 362.134 1.5431 0.320358 0
M  V30 3794 C 363.545 1.63872 0.894594 0
M  V30 3795 C 363.896 0.534847 1.88769 0
M  V30 3796 O 363.021 -0.331732 2.13842 0
M  V30 3797 C 363.616 2.97049 1.62934 0
M  V30 3798 C 362.175 3.08796 2.15226 0
M  V30 3799 C 361.322 2.59456 0.978671 0
M  V30 3800 H 364.273 1.58398 0.0978544 0
M  V30 3801 H 364.294 2.87388 2.49376 0
M  V30 3802 H 363.806 3.7737 0.906302 0
M  V30 3803 H 361.907 2.33156 2.90636 0
M  V30 3804 H 362.02 4.14649 2.40006 0
M  V30 3805 H 360.384 2.1543 1.35875 0
M  V30 3806 H 361.167 3.42237 0.269895 0
M  V30 3807 N 363.613 -0.582584 1.46437 0
M  V30 3808 C 364.56 -1.69164 1.5701 0
M  V30 3809 C 365.53 -1.60847 0.414403 0
M  V30 3810 O 366.715 -1.80058 0.631171 0
M  V30 3811 C 363.855 -3.075 1.56646 0
M  V30 3812 C 362.968 -3.2644 2.82951 0
M  V30 3813 C 362.103 -4.55026 2.7409 0
M  V30 3814 C 361.142 -4.6731 3.95333 0
M  V30 3815 N 360.279 -5.87221 3.84858 0
M  V30 3816 H 365.119 -1.59464 2.51744 0
M  V30 3817 H 362.656 -0.777186 1.24893 0
M  V30 3818 H 364.614 -3.8757 1.5442 0
M  V30 3819 H 363.244 -3.16096 0.654439 0
M  V30 3820 H 362.296 -2.39974 2.95155 0
M  V30 3821 H 363.608 -3.31385 3.72808 0
M  V30 3822 H 362.762 -5.43324 2.6997 0
M  V30 3823 H 361.501 -4.52519 1.81873 0
M  V30 3824 H 360.506 -3.77429 3.99784 0
M  V30 3825 H 361.731 -4.71595 4.88646 0
M  V30 3826 H 359.677 -5.85712 2.95427 0
M  V30 3827 H 359.594 -5.93435 4.6837 0
M  V30 3828 H 360.862 -6.7795 3.84713 0
M  V30 3829 N 365.091 -1.34144 -0.827227 0
M  V30 3830 C 366.502 -1.23557 -1.39966 0
M  V30 3831 C 366.853 0.140731 -1.95695 0
M  V30 3832 O 365.978 1.04087 -1.89723 0
M  V30 3833 C 366.573 -2.23708 -2.54441 0
M  V30 3834 C 365.132 -2.16924 -3.07605 0
M  V30 3835 C 364.279 -2.10549 -1.80456 0
M  V30 3836 H 367.23 -1.45573 -0.631991 0
M  V30 3837 H 367.251 -1.85157 -3.32411 0
M  V30 3838 H 366.763 -3.23866 -2.13851 0
M  V30 3839 H 364.864 -1.20107 -3.52711 0
M  V30 3840 H 364.977 -3.07988 -3.66988 0
M  V30 3841 H 363.341 -1.56203 -2.01178 0
M  V30 3842 H 364.124 -3.12535 -1.42046 0
M  V30 3843 N 366.569 1.04691 -1.17803 0
M  V30 3844 C 367.817 1.7743 -0.967617 0
M  V30 3845 C 368.138 1.88359 0.504574 0
M  V30 3846 O 367.408 1.40402 1.36617 0
M  V30 3847 H 365.988 0.657242 -0.355024 0
M  V30 3848 H 368.65 1.2638 -1.48371 0
M  V30 3849 H 367.746 2.78924 -1.40027 0
M  V30 3850 N 368.047 0.979072 1.23499 0
M  V30 3851 C 369.275 0.665202 1.95915 0
M  V30 3852 C 369.69 -0.767571 1.72493 0
M  V30 3853 O 369.047 -1.51635 1.01554 0
M  V30 3854 C 369.098 0.944438 3.48945 0
M  V30 3855 O 368.819 2.3209 3.71572 0
M  V30 3856 C 370.32 0.646336 4.38563 0
M  V30 3857 H 367.54 0.247218 0.623798 0
M  V30 3858 H 370.084 1.31009 1.57025 0
M  V30 3859 H 368.239 0.345575 3.85856 0
M  V30 3860 H 368.653 2.40957 4.65876 0
M  V30 3861 H 370.127 0.892091 5.44744 0
M  V30 3862 H 370.604 -0.419575 4.37191 0
M  V30 3863 H 371.21 1.22562 4.07258 0
M  V30 3864 N 369.525 -1.3858 0.750561 0
M  V30 3865 C 370.753 -2.04471 0.316098 0
M  V30 3866 C 371.168 -1.56606 -1.05452 0
M  V30 3867 O 370.525 -0.737784 -1.66922 0
M  V30 3868 C 370.576 -3.60025 0.326275 0
M  V30 3869 O 370.297 -4.06133 1.6428 0
M  V30 3870 C 371.798 -4.43131 -0.122429 0
M  V30 3871 H 369.018 -0.65717 0.135528 0
M  V30 3872 H 371.562 -1.77329 1.01857 0
M  V30 3873 H 369.717 -3.86014 -0.327431 0
M  V30 3874 H 370.131 -5.00547 1.56693 0
M  V30 3875 H 371.605 -5.51963 -0.0641473 0
M  V30 3876 H 372.082 -4.23333 -1.16988 0
M  V30 3877 H 372.688 -4.22323 0.50229 0
M  V30 3878 N 371.003 -0.499398 -1.49478 0
M  V30 3879 C 371.95 0.279881 -2.29097 0
M  V30 3880 C 372.92 0.961805 -1.3542 0
M  V30 3881 O 374.105 0.968777 -1.64376 0
M  V30 3882 C 371.245 1.33932 -3.18051 0
M  V30 3883 C 370.358 0.669333 -4.26783 0
M  V30 3884 C 369.493 1.70907 -5.02955 0
M  V30 3885 C 368.532 1.02087 -6.03527 0
M  V30 3886 N 367.669 2.00474 -6.7287 0
M  V30 3887 H 372.509 -0.405317 -2.95231 0
M  V30 3888 H 370.046 -0.211726 -1.45568 0
M  V30 3889 H 372.004 1.96553 -3.67998 0
M  V30 3890 H 370.634 1.9933 -2.53904 0
M  V30 3891 H 369.686 -0.0701234 -3.80335 0
M  V30 3892 H 370.998 0.127503 -4.98637 0
M  V30 3893 H 370.152 2.41037 -5.56764 0
M  V30 3894 H 368.891 2.28476 -4.30871 0
M  V30 3895 H 367.896 0.305338 -5.48951 0
M  V30 3896 H 369.121 0.451708 -6.77596 0
M  V30 3897 H 367.067 2.57007 -6.03559 0
M  V30 3898 H 366.984 1.51353 -7.40694 0
M  V30 3899 H 368.252 2.69897 -7.31284 0
M  V30 3900 N 372.481 1.55866 -0.233164 0
M  V30 3901 C 373.892 1.847 0.272554 0
M  V30 3902 C 374.243 1.15477 1.58617 0
M  V30 3903 O 373.368 0.42841 2.12117 0
M  V30 3904 C 373.963 3.35071 0.501299 0
M  V30 3905 C 372.522 3.6418 0.951304 0
M  V30 3906 C 371.669 2.77292 0.0208209 0
M  V30 3907 H 374.62 1.52005 -0.456074 0
M  V30 3908 H 374.641 3.55906 1.34577 0
M  V30 3909 H 374.153 3.85424 -0.454936 0
M  V30 3910 H 372.254 3.19293 1.92049 0
M  V30 3911 H 372.367 4.72071 0.817675 0
M  V30 3912 H 370.731 2.49131 0.529723 0
M  V30 3913 H 371.514 3.30448 -0.93054 0
M  V30 3914 N 373.959 -0.0401083 1.57549 0
M  V30 3915 C 374.869 -1.06133 2.0922 0
M  V30 3916 C 375.885 -1.40356 1.0284 0
M  V30 3917 O 377.061 -1.49897 1.34509 0
M  V30 3918 C 374.126 -2.34658 2.55218 0
M  V30 3919 C 373.187 -2.07117 3.76033 0
M  V30 3920 C 372.42 -3.29514 4.19829 0
M  V30 3921 O 372.643 -4.39794 3.63232 0
M  V30 3922 O 371.577 -3.15863 5.12362 0
M  V30 3923 H 375.403 -0.652244 2.96613 0
M  V30 3924 H 372.988 -0.256368 1.47184 0
M  V30 3925 H 374.87 -3.10239 2.85184 0
M  V30 3926 H 373.545 -2.74883 1.70941 0
M  V30 3927 H 372.452 -1.29139 3.51104 0
M  V30 3928 H 373.785 -1.71754 4.61261 0
M  V30 3929 N 375.437 -1.54477 -0.31217 0
M  V30 3930 C 376.384 -1.84655 -1.38461 0
M  V30 3931 C 377.354 -0.694536 -1.50882 0
M  V30 3932 O 378.539 -0.942081 -1.6592 0
M  V30 3933 C 375.679 -2.0896 -2.74645 0
M  V30 3934 C 374.792 -3.36618 -2.70763 0
M  V30 3935 C 373.927 -3.50824 -3.98868 0
M  V30 3936 C 372.966 -4.72315 -3.89339 0
M  V30 3937 N 372.103 -4.83387 -5.09197 0
M  V30 3938 H 376.943 -2.76142 -1.12026 0
M  V30 3939 H 374.48 -1.36748 -0.542065 0
M  V30 3940 H 376.438 -2.21045 -3.53829 0
M  V30 3941 H 375.068 -1.20752 -2.99364 0
M  V30 3942 H 374.12 -3.33211 -1.83506 0
M  V30 3943 H 375.432 -4.25917 -2.59608 0
M  V30 3944 H 374.586 -3.62513 -4.86486 0
M  V30 3945 H 373.325 -2.59638 -4.12843 0
M  V30 3946 H 372.33 -4.6067 -3.00105 0
M  V30 3947 H 373.555 -5.64897 -3.76919 0
M  V30 3948 H 371.501 -3.9512 -5.23657 0
M  V30 3949 H 371.418 -5.66669 -5.00422 0
M  V30 3950 H 372.686 -4.9942 -5.98498 0
M  V30 3951 N 376.915 0.57481 -1.46744 0
M  V30 3952 C 377.862 1.68329 -1.57905 0
M  V30 3953 C 378.832 1.60625 -0.422927 0
M  V30 3954 O 380.017 1.79721 -0.640711 0
M  V30 3955 C 377.157 3.06665 -1.58274 0
M  V30 3956 C 376.27 3.24935 -2.84678 0
M  V30 3957 C 375.405 4.53566 -2.76499 0
M  V30 3958 C 374.444 4.65207 -3.97806 0
M  V30 3959 N 373.581 5.85172 -3.87967 0
M  V30 3960 H 378.421 1.58127 -2.52587 0
M  V30 3961 H 375.958 0.770552 -1.25303 0
M  V30 3962 H 377.916 3.86745 -1.56473 0
M  V30 3963 H 376.546 3.15745 -0.671194 0
M  V30 3964 H 375.598 2.38405 -2.96424 0
M  V30 3965 H 376.91 3.29403 -3.7456 0
M  V30 3966 H 376.064 5.41885 -2.72848 0
M  V30 3967 H 374.803 4.51548 -1.8427 0
M  V30 3968 H 373.808 3.75304 -4.0178 0
M  V30 3969 H 375.033 4.68997 -4.9114 0
M  V30 3970 H 372.979 5.84137 -2.98529 0
M  V30 3971 H 372.896 5.90943 -4.71511 0
M  V30 3972 H 374.164 6.759 -3.88303 0
M  V30 3973 N 378.394 1.34581 0.820102 0
M  V30 3974 C 379.622 1.3018 1.60813 0
M  V30 3975 C 380.037 -0.123551 1.88395 0
M  V30 3976 O 379.394 -1.07148 1.47735 0
M  V30 3977 C 379.445 2.09312 2.94739 0
M  V30 3978 O 379.166 3.46288 2.68358 0
M  V30 3979 C 380.667 2.1234 3.89136 0
M  V30 3980 H 377.887 0.447726 0.499782 0
M  V30 3981 H 380.431 1.77237 1.02017 0
M  V30 3982 H 378.586 1.65889 3.50085 0
M  V30 3983 H 379 3.87227 3.53774 0
M  V30 3984 H 380.474 2.72126 4.80262 0
M  V30 3985 H 380.951 1.11854 4.24718 0
M  V30 3986 H 381.557 2.55864 3.39726 0
M  V30 3987 N 379.872 -1.04064 1.18357 0
M  V30 3988 C 381.283 -1.58719 0.98312 0
M  V30 3989 C 381.634 -1.90556 -0.467193 0
M  V30 3990 O 380.759 -1.69561 -1.34454 0
M  V30 3991 C 381.354 -2.88379 1.77828 0
M  V30 3992 C 379.913 -3.3965 1.62218 0
M  V30 3993 C 379.06 -2.13235 1.77274 0
M  V30 3994 H 382.011 -0.867359 1.32901 0
M  V30 3995 H 382.032 -3.58773 1.26737 0
M  V30 3996 H 381.544 -2.65176 2.83379 0
M  V30 3997 H 379.645 -3.67866 0.592036 0
M  V30 3998 H 379.758 -4.13475 2.42023 0
M  V30 3999 H 378.122 -2.24542 1.20221 0
M  V30 4000 H 378.905 -1.92487 2.8426 0
M  V30 4001 N 381.35 -0.985608 -1.22978 0
M  V30 4002 C 382.761 -0.693593 -1.73338 0
M  V30 4003 C 383.112 0.789935 -1.79595 0
M  V30 4004 O 382.237 1.61771 -1.43733 0
M  V30 4005 C 382.832 -1.25235 -3.14804 0
M  V30 4006 C 381.391 -1.00987 -3.626 0
M  V30 4007 C 380.538 -1.37695 -2.40698 0
M  V30 4008 H 383.489 -1.15884 -1.08428 0
M  V30 4009 H 383.51 -0.627329 -3.75293 0
M  V30 4010 H 383.022 -2.33209 -3.10218 0
M  V30 4011 H 381.123 0.0535565 -3.72562 0
M  V30 4012 H 381.236 -1.66812 -4.49122 0
M  V30 4013 H 379.6 -0.795459 -2.4196 0
M  V30 4014 H 380.383 -2.46657 -2.38779 0
M  V30 4015 N 382.828 1.3818 -0.7579 0
M  V30 4016 C 384.239 1.82726 -0.383134 0
M  V30 4017 C 384.59 1.63214 1.08884 0
M  V30 4018 O 383.715 1.13566 1.84205 0
M  V30 4019 C 384.31 3.31728 -0.688631 0
M  V30 4020 C 382.869 3.74606 -0.367091 0
M  V30 4021 C 382.016 2.60896 -0.939599 0
M  V30 4022 H 384.967 1.26847 -0.953699 0
M  V30 4023 H 384.988 3.80487 0.0316492 0
M  V30 4024 H 384.5 3.45898 -1.76001 0
M  V30 4025 H 382.601 3.66013 0.697532 0
M  V30 4026 H 382.714 4.71215 -0.865658 0
M  V30 4027 H 381.078 2.52075 -0.3647 0
M  V30 4028 H 381.861 2.77864 -2.0161 0
M  V30 4029 N 384.306 0.507319 1.49211 0
M  V30 4030 C 385.236 -0.256939 2.32082 0
M  V30 4031 C 386.217 -0.956609 1.40652 0
M  V30 4032 O 387.402 -0.946788 1.69557 0
M  V30 4033 C 384.532 -1.31802 3.21318 0
M  V30 4034 C 383.486 -0.737855 4.21592 0
M  V30 4035 C 382.812 -1.89992 4.99807 0
M  V30 4036 C 384.112 0.275325 5.21574 0
M  V30 4037 H 385.806 0.434798 2.96226 0
M  V30 4038 H 383.352 0.210546 1.42452 0
M  V30 4039 H 385.305 -1.86045 3.78107 0
M  V30 4040 H 384.029 -2.03903 2.5513 0
M  V30 4041 H 382.688 -0.217126 3.65956 0
M  V30 4042 H 382.336 -2.60877 4.30061 0
M  V30 4043 H 382.036 -1.51777 5.6766 0
M  V30 4044 H 383.56 -2.44657 5.59442 0
M  V30 4045 H 384.974 -0.179193 5.7302 0
M  V30 4046 H 383.371 0.573649 5.97352 0
M  V30 4047 H 384.441 1.18903 4.70096 0
M  V30 4048 N 385.784 -1.5574 0.241426 0
M  V30 4049 C 387.195 -1.84842 -0.262755 0
M  V30 4050 C 387.546 -1.16317 -1.58003 0
M  V30 4051 O 386.671 -0.439653 -2.11887 0
M  V30 4052 C 387.266 -3.35332 -0.483523 0
M  V30 4053 C 385.825 -3.6468 -0.931977 0
M  V30 4054 C 384.972 -2.77299 -0.0061151 0
M  V30 4055 H 387.923 -1.51761 0.464129 0
M  V30 4056 H 387.944 -3.56615 -1.32688 0
M  V30 4057 H 387.456 -3.85178 0.47537 0
M  V30 4058 H 385.557 -3.20307 -1.90353 0
M  V30 4059 H 385.67 -4.72498 -0.792628 0
M  V30 4060 H 384.034 -2.49408 -0.516503 0
M  V30 4061 H 384.817 -3.2995 0.948052 0
M  V30 4062 N 387.262 0.0317525 -1.57568 0
M  V30 4063 C 388.673 0.578692 -1.77505 0
M  V30 4064 C 389.024 1.75749 -0.872164 0
M  V30 4065 O 388.149 2.16298 -0.0663106 0
M  V30 4066 C 388.744 1.05658 -3.21904 0
M  V30 4067 C 387.303 1.54906 -3.43047 0
M  V30 4068 C 386.45 0.485939 -2.73009 0
M  V30 4069 H 389.401 -0.194475 -1.57504 0
M  V30 4070 H 389.422 1.92404 -3.28269 0
M  V30 4071 H 388.934 0.198422 -3.87592 0
M  V30 4072 H 387.035 2.42915 -2.82529 0
M  V30 4073 H 387.148 1.59841 -4.5165 0
M  V30 4074 H 385.512 0.940354 -2.36705 0
M  V30 4075 H 386.295 -0.362709 -3.41379 0
M  V30 4076 N 388.74 1.54641 0.303973 0
M  V30 4077 C 389.965 1.78092 1.06292 0
M  V30 4078 C 390.39 0.537342 1.80262 0
M  V30 4079 O 389.748 -0.511993 1.7392 0
M  V30 4080 C 389.796 2.98612 2.02147 0
M  V30 4081 O 388.9 2.71528 3.10397 0
M  V30 4082 H 388.241 0.589548 0.305497 0
M  V30 4083 H 390.771 2.01716 0.3423 0
M  V30 4084 H 390.781 3.265 2.44667 0
M  V30 4085 H 389.456 3.88785 1.47714 0
M  V30 4086 H 388.033 2.54648 2.72413 0
M  V30 4087 N 390.218 -0.567019 1.47046 0
M  V30 4088 C 391.458 -1.3355 1.54738 0
M  V30 4089 C 391.822 -1.90947 0.200772 0
M  V30 4090 O 393.023 -2.68367 0.152489 0
M  V30 4091 C 391.294 -2.42317 2.62712 0
M  V30 4092 S 392.853 -3.29383 2.89918 0
M  V30 4093 H 389.671 -0.454788 0.546525 0
M  V30 4094 H 392.273 -0.650191 1.84371 0
M  V30 4095 H 390.977 -1.98568 3.59164 0
M  V30 4096 H 390.508 -3.15601 2.34861 0
M  V30 4097 H 392.523 -4.41548 2.26384 0
M  V30 4098 N 391.696 -1.35014 -0.812953 0
M  V30 4099 C 392.628 -1.23262 -1.93233 0
M  V30 4100 C 393.641 -0.157371 -1.62038 0
M  V30 4101 O 394.83 -0.410096 -1.73725 0
M  V30 4102 C 391.93 -0.87392 -3.27438 0
M  V30 4103 C 391.103 -2.04622 -3.86586 0
M  V30 4104 C 390.162 -1.66432 -4.99186 0
M  V30 4105 O 389.188 -2.38222 -5.16951 0
M  V30 4106 N 390.39 -0.584248 -5.77552 0
M  V30 4107 H 393.155 -2.19699 -2.03844 0
M  V30 4108 H 390.716 -1.281 -0.99005 0
M  V30 4109 H 392.708 -0.600039 -4.00227 0
M  V30 4110 H 391.278 0.00057392 -3.126 0
M  V30 4111 H 390.498 -2.48427 -3.06068 0
M  V30 4112 H 391.786 -2.82999 -4.22835 0
M  V30 4113 H 391.184 0.0123526 -5.65699 0
M  V30 4114 H 389.741 -0.37013 -6.50748 0
M  V30 4115 N 393.175 1.03435 -1.18907 0
M  V30 4116 C 394.138 2.09756 -0.923844 0
M  V30 4117 C 395.138 1.60528 0.093416 0
M  V30 4118 O 396.328 1.73631 -0.140727 0
M  V30 4119 C 393.46 3.38692 -0.387354 0
M  V30 4120 H 394.653 2.34719 -1.86674 0
M  V30 4121 H 392.206 1.19959 -1.00197 0
M  V30 4122 H 392.941 3.19396 0.561845 0
M  V30 4123 H 392.726 3.75742 -1.12074 0
M  V30 4124 H 394.216 4.17016 -0.220694 0
M  V30 4125 N 394.653 0.992116 1.22453 0
M  V30 4126 C 395.583 0.561677 2.26644 0
M  V30 4127 C 396.564 -0.411055 1.65059 0
M  V30 4128 O 397.749 -0.301861 1.9184 0
M  V30 4129 C 394.879 -0.125247 3.47074 0
M  V30 4130 C 393.833 0.765948 4.21091 0
M  V30 4131 C 393.159 -0.0538484 5.34673 0
M  V30 4132 C 394.459 2.06242 4.79856 0
M  V30 4133 H 396.153 1.43259 2.62902 0
M  V30 4134 H 393.699 0.690283 1.26377 0
M  V30 4135 H 395.652 -0.437764 4.1912 0
M  V30 4136 H 394.376 -1.03069 3.0991 0
M  V30 4137 H 393.035 1.0621 3.50878 0
M  V30 4138 H 392.683 -0.960188 4.9375 0
M  V30 4139 H 392.383 0.539415 5.85119 0
M  V30 4140 H 393.907 -0.360477 6.09535 0
M  V30 4141 H 395.321 1.8139 5.43848 0
M  V30 4142 H 393.718 2.60444 5.40638 0
M  V30 4143 H 394.788 2.74167 3.99951 0
M  V30 4144 N 396.131 -1.37776 0.765217 0
M  V30 4145 C 397.061 -2.32945 0.160953 0
M  V30 4146 C 398.042 -1.55454 -0.690516 0
M  V30 4147 O 399.227 -1.83721 -0.629318 0
M  V30 4148 C 396.357 -3.39669 -0.724031 0
M  V30 4149 C 395.311 -4.27992 0.0256173 0
M  V30 4150 C 394.637 -5.25673 -0.978383 0
M  V30 4151 C 395.937 -5.08309 1.20082 0
M  V30 4152 H 397.631 -2.83728 0.955969 0
M  V30 4153 H 395.177 -1.36416 0.461149 0
M  V30 4154 H 397.13 -4.05219 -1.15652 0
M  V30 4155 H 395.854 -2.87396 -1.5515 0
M  V30 4156 H 394.513 -3.63964 0.438812 0
M  V30 4157 H 394.161 -4.69682 -1.80022 0
M  V30 4158 H 393.861 -5.85625 -0.481378 0
M  V30 4159 H 395.385 -5.94098 -1.40995 0
M  V30 4160 H 396.799 -5.67034 0.845307 0
M  V30 4161 H 395.196 -5.77554 1.62947 0
M  V30 4162 H 396.266 -4.41365 2.00811 0
M  V30 4163 N 397.609 -0.515225 -1.4894 0
M  V30 4164 C 398.886 0.0879088 -1.95402 0
M  V30 4165 C 399.266 1.52745 -1.45712 0
M  V30 4166 O 398.614 2.18238 -0.677093 0
M  V30 4167 C 398.824 -0.0141055 -3.48997 0
M  V30 4168 C 400.172 0.152646 -4.24326 0
M  V30 4169 O 401.196 0.0604025 -3.56149 0
M  V30 4170 O 400.055 0.34384 -5.45417 0
M  V30 4171 H 397.149 0.0874636 -0.822362 0
M  V30 4172 H 399.695 -0.578775 -1.59525 0
M  V30 4173 H 398.467 -1.01745 -3.77841 0
M  V30 4174 H 398.09 0.692091 -3.9153 0
M  V30 4175 N 399.087 1.5561 -0.249682 0
M  V30 4176 C 399.997 2.25143 0.659375 0
M  V30 4177 C 401.013 1.2685 1.19101 0
M  V30 4178 O 402.189 1.59732 1.22669 0
M  V30 4179 C 399.254 2.93945 1.8384 0
M  V30 4180 C 398.315 4.07655 1.34596 0
M  V30 4181 C 397.548 4.73167 2.46878 0
M  V30 4182 O 397.771 4.37768 3.65671 0
M  V30 4183 O 396.705 5.61623 2.16478 0
M  V30 4184 H 400.531 3.03545 0.0968698 0
M  V30 4185 H 398.116 1.49389 -0.018074 0
M  V30 4186 H 399.998 3.37271 2.52638 0
M  V30 4187 H 398.673 2.18481 2.38847 0
M  V30 4188 H 397.58 3.68839 0.625174 0
M  V30 4189 H 398.913 4.84946 0.841941 0
M  V30 4190 N 400.565 -0.0233959 1.57583 0
M  V30 4191 C 401.515 -1.03023 2.03397 0
M  V30 4192 C 402.499 -1.31701 0.924315 0
M  V30 4193 O 403.691 -1.31191 1.18819 0
M  V30 4194 C 400.82 -2.32961 2.52159 0
M  V30 4195 C 399.906 -2.07349 3.69956 0
M  V30 4196 N 400.297 -1.51814 4.82479 0
M  V30 4197 C 398.595 -2.37606 3.77438 0
M  V30 4198 C 399.296 -1.42136 5.64068 0
M  V30 4199 N 398.272 -1.89891 5.09355 0
M  V30 4200 H 402.074 -0.594962 2.87815 0
M  V30 4201 H 399.588 -0.229586 1.60769 0
M  V30 4202 H 401.585 -3.05906 2.83244 0
M  V30 4203 H 400.245 -2.77162 1.69149 0
M  V30 4204 H 401.256 -1.20008 5.03804 0
M  V30 4205 H 397.933 -2.84842 3.05239 0
M  V30 4206 H 399.323 -0.996405 6.64471 0
M  V30 4207 N 402.043 -1.548 -0.295768 0
M  V30 4208 C 403.289 -1.74588 -1.03184 0
M  V30 4209 C 403.622 -0.532962 -1.86744 0
M  V30 4210 O 402.897 0.469872 -1.88739 0
M  V30 4211 C 403.18 -3.03791 -1.93347 0
M  V30 4212 C 403.033 -4.35392 -1.12933 0
M  V30 4213 C 404.352 -3.28892 -2.92435 0
M  V30 4214 H 401.471 -0.635221 -0.373715 0
M  V30 4215 H 404.113 -1.87519 -0.30606 0
M  V30 4216 H 402.263 -2.92898 -2.55232 0
M  V30 4217 H 403.935 -4.58211 -0.532943 0
M  V30 4218 H 402.178 -4.31642 -0.432168 0
M  V30 4219 H 402.849 -5.22074 -1.79284 0
M  V30 4220 H 405.325 -3.39429 -2.4068 0
M  V30 4221 H 404.201 -4.20603 -3.52682 0
M  V30 4222 H 404.462 -2.47437 -3.6637 0
M  V30 4223 N 403.521 0.559213 -1.47345 0
M  V30 4224 C 404.77 1.31281 -1.53128 0
M  V30 4225 C 405.083 1.94602 -0.197344 0
M  V30 4226 O 406.289 2.71173 -0.133154 0
M  V30 4227 C 404.745 2.38051 -2.69925 0
M  V30 4228 C 404.353 1.8093 -4.0984 0
M  V30 4229 C 406.097 3.14604 -2.84999 0
M  V30 4230 C 404.004 2.85468 -5.1794 0
M  V30 4231 H 402.934 0.493614 -0.569966 0
M  V30 4232 H 405.585 0.594155 -1.73615 0
M  V30 4233 H 403.967 3.12822 -2.42814 0
M  V30 4234 H 405.141 1.12544 -4.46845 0
M  V30 4235 H 403.456 1.16967 -3.99634 0
M  V30 4236 H 406.053 3.92666 -3.62929 0
M  V30 4237 H 406.396 3.68665 -1.93369 0
M  V30 4238 H 406.929 2.46945 -3.1187 0
M  V30 4239 H 403.668 2.36264 -6.1144 0
M  V30 4240 H 403.188 3.52269 -4.85455 0
M  V30 4241 H 404.867 3.48996 -5.44803 0
M  V30 4242 O 405.038 1.45356 0.703831 0
M  V30 4243 H 405.729 1.38392 1.35526 0
M  V30 END ATOM
M  V30 BEGIN BOND
M  V30 END BOND
M  V30 END CTAB
M  END
$$$$
