drugbank_target|P0C0F4 UDP-glucose 6-dehydrogenase (DB01713; DB03041)
 OpenBabel12092120033D

  0  0  0     0  0            999 V3000
M  V30 BEGIN CTAB
M  V30 COUNTS 6485 6535 0 0 0
M  V30 BEGIN ATOM
M  V30 1 H -0.908 1.98254 -0.117106 0
M  V30 2 N 0 1.576 0 0
M  V30 3 C 0.933 2.03868 1.02534 0
M  V30 4 C 1.911 0.928543 1.3348 0
M  V30 5 O 3.095 1.19667 1.45644 0
M  V30 6 C 0.222 2.43627 2.35294 0
M  V30 7 C -0.732 3.65373 2.2001 0
M  V30 8 S 0.101 5.13292 1.52614 0
M  V30 9 C 1.257 5.56322 2.86805 0
M  V30 10 H 1.49 2.90518 0.631377 0
M  V30 11 H -0.977 1.52953 0.210867 0
M  V30 12 H 0.981 2.67203 3.11629 0
M  V30 13 H -0.358 1.57376 2.7183 0
M  V30 14 H -1.165 3.90944 3.18086 0
M  V30 15 H -1.563 3.418 1.51819 0
M  V30 16 H 0.729 5.58782 3.83104 0
M  V30 17 H 1.672 6.56266 2.65933 0
M  V30 18 H 2.08 4.83886 2.90714 0
M  V30 19 N 1.4781 -0.272755 1.55222 0
M  V30 20 C 2.4251 -1.33716 1.88119 0
M  V30 21 C 3.3951 -1.49066 0.73271 0
M  V30 22 O 4.5801 -1.63469 0.984002 0
M  V30 23 C 1.7201 -2.69238 2.15882 0
M  V30 24 C 0.8331 -2.62108 3.43399 0
M  V30 25 C -0.0319 -3.89811 3.60861 0
M  V30 26 C -0.9929 -3.77193 4.8207 0
M  V30 27 N -1.8559 -4.9673 4.96189 0
M  V30 28 H 2.9841 -1.04962 2.78903 0
M  V30 29 H 0.5211 -0.507088 1.38083 0
M  V30 30 H 2.4791 -3.48089 2.29978 0
M  V30 31 H 1.1091 -2.96194 1.28331 0
M  V30 32 H 0.1611 -1.74967 3.37773 0
M  V30 33 H 1.4731 -2.48685 4.32386 0
M  V30 34 H 0.6271 -4.77103 3.74777 0
M  V30 35 H -0.6339 -4.06102 2.7006 0
M  V30 36 H -1.6289 -2.88284 4.68159 0
M  V30 37 H -0.4039 -3.62421 5.74307 0
M  V30 38 H -2.4579 -5.13431 4.08319 0
M  V30 39 H -2.5409 -4.85839 5.79221 0
M  V30 40 H -1.2729 -5.85594 5.1449 0
M  V30 41 N 2.9562 -1.48159 -0.537278 0
M  V30 42 C 4.2052 -1.5506 -1.28993 0
M  V30 43 C 4.5182 -0.226211 -1.94288 0
M  V30 44 O 5.7242 -0.173395 -2.70946 0
M  V30 45 C 4.1802 -2.73429 -2.34018 0
M  V30 46 C 3.7882 -4.1248 -1.74825 0
M  V30 47 C 5.5322 -2.89638 -3.10339 0
M  V30 48 C 3.4392 -5.22121 -2.77747 0
M  V30 49 H 2.3692 -0.577231 -0.485098 0
M  V30 50 H 5.0202 -1.74478 -0.568317 0
M  V30 51 H 3.4022 -2.47431 -3.09182 0
M  V30 52 H 4.5762 -4.48466 -1.05899 0
M  V30 53 H 2.8912 -4.01327 -1.11022 0
M  V30 54 H 5.4882 -3.68718 -3.87235 0
M  V30 55 H 5.8312 -1.9882 -3.65754 0
M  V30 56 H 6.3642 -3.15502 -2.42288 0
M  V30 57 H 3.1032 -6.1488 -2.27161 0
M  V30 58 H 2.6232 -4.90631 -3.45024 0
M  V30 59 H 4.3022 -5.49924 -3.4087 0
M  V30 60 N 4.4343 0.785586 -1.36625 0
M  V30 61 C 5.3973 1.87999 -1.31107 0
M  V30 62 C 6.3973 1.59316 -0.217959 0
M  V30 63 O 7.5873 1.67656 -0.472977 0
M  V30 64 C 4.7193 3.24861 -1.03334 0
M  V30 65 H 5.9123 1.94307 -2.2844 0
M  V30 66 H 3.4653 0.983813 -1.21453 0
M  V30 67 H 4.2003 3.24235 -0.0647432 0
M  V30 68 H 3.9853 3.4707 -1.82441 0
M  V30 69 H 5.4753 4.04929 -1.02088 0
M  V30 70 N 5.9124 1.20967 1.01018 0
M  V30 71 C 7.1584 1.02526 1.74975 0
M  V30 72 C 7.4914 -0.4408 1.89131 0
M  V30 73 O 6.7664 -1.32718 1.42184 0
M  V30 74 C 7.0494 1.71699 3.1653 0
M  V30 75 C 6.9024 3.25791 3.10129 0
M  V30 76 C 8.2214 1.45531 4.15342 0
M  V30 77 H 5.3404 0.373863 0.635134 0
M  V30 78 H 7.9824 1.49071 1.17805 0
M  V30 79 H 6.1324 1.32128 3.65341 0
M  V30 80 H 7.8044 3.74697 2.69072 0
M  V30 81 H 6.0474 3.56363 2.47362 0
M  V30 82 H 6.7184 3.69353 4.10222 0
M  V30 83 H 9.1944 1.79872 3.75213 0
M  V30 84 H 8.0704 1.96453 5.1254 0
M  V30 85 H 8.3314 0.384237 4.40427 0
M  V30 86 N 7.3905 -1.2043 1.01659 0
M  V30 87 C 8.3535 -2.21433 0.591616 0
M  V30 88 C 9.3535 -1.57203 -0.338226 0
M  V30 89 O 10.5435 -1.73737 -0.126918 0
M  V30 90 C 7.6755 -3.40628 -0.136058 0
M  V30 91 H 8.8685 -2.60545 1.48514 0
M  V30 92 H 6.4215 -1.33893 0.806379 0
M  V30 93 H 7.1565 -3.07019 -1.04449 0
M  V30 94 H 6.9415 -3.88475 0.531917 0
M  V30 95 H 8.4315 -4.15475 -0.420735 0
M  V30 96 N 8.8686 -0.792821 -1.36206 0
M  V30 97 C 10.1166 -0.366062 -1.98757 0
M  V30 98 C 10.4376 1.0668 -1.63231 0
M  V30 99 O 9.7076 1.73587 -0.907978 0
M  V30 100 H 8.2876 -0.132364 -0.735179 0
M  V30 101 H 10.9496 -1.01562 -1.66347 0
M  V30 102 H 10.0456 -0.460638 -3.08682 0
M  V30 103 N 10.3467 1.47872 -0.545128 0
M  V30 104 C 11.5717 2.07391 -0.0190611 0
M  V30 105 C 11.9967 1.39688 1.25971 0
M  V30 106 O 11.3547 0.467816 1.7516 0
M  V30 107 C 11.4027 3.60188 0.172335 0
M  V30 108 O 10.5067 3.9339 1.23766 0
M  V30 109 H 9.8477 0.662411 -0.0459059 0
M  V30 110 H 12.3777 1.90066 -0.757365 0
M  V30 111 H 12.3877 4.06129 0.390305 0
M  V30 112 H 11.0627 4.08865 -0.761725 0
M  V30 113 H 9.6397 3.5921 1.00114 0
M  V30 114 N 11.8248 0.280983 1.55075 0
M  V30 115 C 13.0728 -0.333455 1.9933 0
M  V30 116 C 13.3938 -1.55937 1.17085 0
M  V30 117 O 12.6638 -1.94143 0.261805 0
M  V30 118 H 11.2438 -0.126197 0.736263 0
M  V30 119 H 13.9058 0.387678 1.91005 0
M  V30 120 H 13.0018 -0.619292 3.05894 0
M  V30 121 N 13.3029 -1.57598 0.00835791 0
M  V30 122 C 14.5329 -1.94931 -0.684496 0
M  V30 123 C 14.9409 -0.882233 -1.67372 0
M  V30 124 O 14.2839 0.146621 -1.83114 0
M  V30 125 C 14.3459 -3.283 -1.4649 0
M  V30 126 C 14.0099 -4.52548 -0.63634 0
M  V30 127 C 15.0069 -5.19839 0.0795586 0
M  V30 128 C 12.6919 -4.98942 -0.579849 0
M  V30 129 C 14.6859 -6.3183 0.840843 0
M  V30 130 C 12.3729 -6.10819 0.185155 0
M  V30 131 C 13.3709 -6.77121 0.894227 0
M  V30 132 O 13.0589 -7.86853 1.64673 0
M  V30 133 H 12.7909 -0.647249 -0.19505 0
M  V30 134 H 15.3449 -2.05318 0.0581272 0
M  V30 135 H 13.5749 -3.14345 -2.2522 0
M  V30 136 H 15.2639 -3.50685 -2.04389 0
M  V30 137 H 16.0299 -4.84979 0.0451202 0
M  V30 138 H 11.9089 -4.47155 -1.1213 0
M  V30 139 H 15.4529 -6.83513 1.39483 0
M  V30 140 H 11.3499 -6.4512 0.221384 0
M  V30 141 H 12.1179 -8.03412 1.56432 0
M  V30 142 N 14.781 0.264519 -1.55364 0
M  V30 143 C 16.027 0.99646 -1.76631 0
M  V30 144 C 16.36 1.85632 -0.570478 0
M  V30 145 O 15.635 1.89647 0.43175 0
M  V30 146 C 15.918 1.87187 -3.07625 0
M  V30 147 C 15.771 1.04138 -4.37579 0
M  V30 148 C 17.09 2.85749 -3.34717 0
M  V30 149 H 14.209 0.360841 -0.642622 0
M  V30 150 H 16.851 0.268218 -1.88097 0
M  V30 151 H 15.001 2.49279 -2.9798 0
M  V30 152 H 16.673 0.440517 -4.59192 0
M  V30 153 H 14.916 0.345115 -4.32425 0
M  V30 154 H 15.587 1.68729 -5.2558 0
M  V30 155 H 18.063 2.33793 -3.4421 0
M  V30 156 H 16.939 3.44136 -4.27623 0
M  V30 157 H 17.2 3.61311 -2.54768 0
M  V30 158 N 16.2591 1.48442 0.529413 0
M  V30 159 C 17.5071 1.56179 1.28267 0
M  V30 160 C 17.8281 0.237721 1.93546 0
M  V30 161 O 17.0981 -0.740779 1.81354 0
M  V30 162 H 15.6781 0.575367 0.476405 0
M  V30 163 H 18.3401 1.84909 0.61602 0
M  V30 164 H 17.4361 2.34312 2.06165 0
M  V30 165 N 17.7372 -0.778329 1.37039 0
M  V30 166 C 18.6672 -1.90546 1.34962 0
M  V30 167 C 19.6482 -1.68681 0.219274 0
M  V30 168 O 20.8332 -1.89634 0.418624 0
M  V30 169 C 17.9632 -3.27734 1.14925 0
M  V30 170 C 16.9172 -3.64147 2.24902 0
M  V30 171 C 16.2432 -4.99806 1.89996 0
M  V30 172 C 17.5432 -3.71579 3.67051 0
M  V30 173 H 19.2372 -1.92541 2.29277 0
M  V30 174 H 16.7832 -0.924948 1.10366 0
M  V30 175 H 18.7362 -4.06215 1.12104 0
M  V30 176 H 17.4602 -3.26154 0.170631 0
M  V30 177 H 16.1192 -2.8797 2.26868 0
M  V30 178 H 15.7672 -4.94759 0.906796 0
M  V30 179 H 15.4672 -5.25139 2.63634 0
M  V30 180 H 16.9912 -5.80694 1.88749 0
M  V30 181 H 18.4052 -4.40227 3.67251 0
M  V30 182 H 16.8022 -4.08405 4.39688 0
M  V30 183 H 17.8722 -2.72404 4.01154 0
M  V30 184 N 19.2153 -1.21501 -1.00376 0
M  V30 185 C 20.4403 -1.05977 -1.78279 0
M  V30 186 C 20.8653 0.385994 -1.84097 0
M  V30 187 O 20.2233 1.27849 -1.28547 0
M  V30 188 C 20.2713 -1.66302 -3.19963 0
M  V30 189 O 19.3753 -0.909333 -4.0225 0
M  V30 190 H 18.7163 -0.372906 -0.549397 0
M  V30 191 H 21.2463 -1.6107 -1.26165 0
M  V30 192 H 21.2563 -1.70574 -3.70632 0
M  V30 193 H 19.9313 -2.71515 -3.15043 0
M  V30 194 H 18.5083 -0.941795 -3.60811 0
M  V30 195 N 20.6934 1.19889 -1.02296 0
M  V30 196 C 21.6234 2.25141 -0.619174 0
M  V30 197 C 22.6044 1.66051 0.368915 0
M  V30 198 O 23.7894 1.92546 0.252941 0
M  V30 199 C 20.9194 3.4728 0.0368783 0
M  V30 200 C 19.8734 4.19005 -0.872865 0
M  V30 201 C 19.1994 5.34637 -0.0822402 0
M  V30 202 C 20.4994 4.74452 -2.18387 0
M  V30 203 H 22.1934 2.59171 -1.49903 0
M  V30 204 H 19.7394 1.24579 -0.722222 0
M  V30 205 H 21.6924 4.20098 0.330958 0
M  V30 206 H 20.4164 3.12433 0.95149 0
M  V30 207 H 19.0754 3.48061 -1.15105 0
M  V30 208 H 18.7234 4.96034 0.83422 0
M  V30 209 H 18.4234 5.83557 -0.688149 0
M  V30 210 H 19.9474 6.10255 0.205238 0
M  V30 211 H 21.3614 5.39055 -1.95172 0
M  V30 212 H 19.7584 5.33834 -2.74119 0
M  V30 213 H 20.8284 3.92844 -2.84257 0
M  V30 214 N 22.1715 0.800033 1.35784 0
M  V30 215 C 23.4195 0.376597 1.9856 0
M  V30 216 C 23.7405 -1.05812 1.63795 0
M  V30 217 O 23.0105 -1.73103 0.917171 0
M  V30 218 H 21.5905 0.136261 0.734467 0
M  V30 219 H 24.2525 1.02442 1.65806 0
M  V30 220 H 23.3485 0.477002 3.08433 0
M  V30 221 N 23.6496 -1.47581 0.552962 0
M  V30 222 C 24.8956 -2.02782 0.0273648 0
M  V30 223 C 25.2286 -1.42687 -1.31734 0
M  V30 224 O 24.5036 -0.580897 -1.85623 0
M  V30 225 C 24.7866 -3.60031 -0.0702371 0
M  V30 226 C 24.6396 -4.30566 1.30126 0
M  V30 227 C 25.9586 -4.33028 -0.785771 0
M  V30 228 H 23.0776 -0.736912 0.0114185 0
M  V30 229 H 25.7196 -1.76056 0.714432 0
M  V30 230 H 23.8696 -3.82932 -0.655382 0
M  V30 231 H 25.5416 -4.19018 1.92929 0
M  V30 232 H 23.7846 -3.91086 1.87709 0
M  V30 233 H 24.4556 -5.39114 1.18573 0
M  V30 234 H 26.9316 -4.15095 -0.288982 0
M  V30 235 H 25.8076 -5.42695 -0.823013 0
M  V30 236 H 26.0686 -4.01945 -1.841 0
M  V30 237 N 25.1277 -0.289203 -1.54924 0
M  V30 238 C 26.0577 0.58549 -2.2604 0
M  V30 239 C 27.0387 1.14753 -1.25562 0
M  V30 240 O 28.2237 1.17906 -1.54311 0
M  V30 241 C 25.3537 1.76305 -2.99222 0
M  V30 242 C 24.3077 1.33191 -4.06748 0
M  V30 243 C 23.6337 2.5937 -4.6758 0
M  V30 244 C 24.9337 0.471775 -5.20165 0
M  V30 245 H 26.6277 -0.00763532 -2.99399 0
M  V30 246 H 24.1737 -0.00511229 -1.43999 0
M  V30 247 H 26.1267 2.38097 -3.47689 0
M  V30 248 H 24.8507 2.38223 -2.23422 0
M  V30 249 H 23.5097 0.737121 -3.59113 0
M  V30 250 H 23.1577 3.19576 -3.88433 0
M  V30 251 H 22.8577 2.31228 -5.40192 0
M  V30 252 H 24.3817 3.21985 -5.18804 0
M  V30 253 H 25.7957 0.995056 -5.64599 0
M  V30 254 H 24.1927 0.284639 -5.99425 0
M  V30 255 H 25.2627 -0.506041 -4.82252 0
M  V30 256 N 26.6058 1.57591 -0.0167156 0
M  V30 257 C 27.5358 2.12496 0.967858 0
M  V30 258 C 28.5168 1.03807 1.34752 0
M  V30 259 O 29.7018 1.31577 1.42833 0
M  V30 260 C 26.8318 2.64194 2.25431 0
M  V30 261 C 25.7858 3.77559 2.01576 0
M  V30 262 C 25.1118 4.15636 3.36379 0
M  V30 263 C 26.4118 5.04151 1.36489 0
M  V30 264 H 28.1058 2.95013 0.510643 0
M  V30 265 H 25.6518 1.41915 0.244181 0
M  V30 266 H 27.6048 3.01236 2.94678 0
M  V30 267 H 26.3288 1.78821 2.73296 0
M  V30 268 H 24.9878 3.40937 1.34751 0
M  V30 269 H 24.6358 3.27263 3.81979 0
M  V30 270 H 24.3358 4.92022 3.21229 0
M  V30 271 H 25.8598 4.5525 4.06915 0
M  V30 272 H 27.2738 5.38857 1.95718 0
M  V30 273 H 25.6708 5.85453 1.31776 0
M  V30 274 H 26.7408 4.83733 0.336219 0
M  V30 275 N 28.0839 -0.256276 1.55502 0
M  V30 276 C 29.3089 -1.00766 1.81276 0
M  V30 277 C 29.7339 -1.78524 0.59252 0
M  V30 278 O 29.0919 -1.75413 -0.45827 0
M  V30 279 C 29.1399 -1.92869 3.04687 0
M  V30 280 O 28.2439 -3.019 2.80945 0
M  V30 281 H 27.5849 -0.287224 0.598664 0
M  V30 282 H 30.1149 -0.280109 2.02674 0
M  V30 283 H 30.1249 -2.34511 3.33869 0
M  V30 284 H 28.7999 -1.35689 3.93143 0
M  V30 285 H 27.3769 -2.64454 2.62904 0
M  V30 286 N 29.562 -1.4872 -0.521534 0
M  V30 287 C 30.492 -1.66771 -1.63431 0
M  V30 288 C 31.473 -0.516499 -1.62069 0
M  V30 289 O 32.658 -0.750013 -1.79132 0
M  V30 290 C 29.788 -1.71515 -3.01993 0
M  V30 291 C 28.742 -2.86222 -3.18216 0
M  V30 292 C 28.068 -2.76061 -4.57924 0
M  V30 293 C 29.368 -4.27419 -3.00184 0
M  V30 294 H 31.062 -2.59932 -1.48579 0
M  V30 295 H 28.608 -1.25089 -0.713358 0
M  V30 296 H 30.561 -1.82731 -3.7972 0
M  V30 297 H 29.285 -0.749393 -3.17886 0
M  V30 298 H 27.944 -2.74575 -2.42908 0
M  V30 299 H 27.592 -1.77437 -4.70665 0
M  V30 300 H 27.292 -3.53037 -4.69722 0
M  V30 301 H 28.816 -2.89256 -5.37739 0
M  V30 302 H 30.23 -4.39855 -3.67697 0
M  V30 303 H 28.627 -5.05458 -3.2347 0
M  V30 304 H 29.697 -4.43293 -1.96518 0
M  V30 305 N 31.0401 0.771051 -1.3745 0
M  V30 306 C 31.9721 1.89352 -1.29146 0
M  V30 307 C 32.9851 1.61477 -0.207124 0
M  V30 308 O 34.1741 1.72382 -0.463324 0
M  V30 309 C 31.2741 3.24596 -0.974195 0
M  V30 310 C 30.4471 3.80111 -2.16413 0
M  V30 311 C 29.5061 4.93832 -1.81703 0
M  V30 312 O 28.5321 5.09382 -2.54006 0
M  V30 313 N 29.7341 5.75483 -0.761573 0
M  V30 314 H 32.4991 1.96991 -2.25864 0
M  V30 315 H 30.0601 0.950191 -1.31084 0
M  V30 316 H 32.0521 3.98193 -0.722828 0
M  V30 317 H 30.6221 3.12454 -0.0955527 0
M  V30 318 H 29.8421 2.98284 -2.57721 0
M  V30 319 H 31.1301 4.13932 -2.95867 0
M  V30 320 H 30.5281 5.65469 -0.161609 0
M  V30 321 H 29.0851 6.49302 -0.570064 0
M  V30 322 N 32.5182 1.22032 0.997298 0
M  V30 323 C 33.4662 0.983634 2.10778 0
M  V30 324 C 34.4602 -0.0717564 1.69248 0
M  V30 325 O 35.6662 0.080304 1.79821 0
M  V30 326 H 32.0412 0.300877 0.689186 0
M  V30 327 H 34.0122 1.92606 2.27916 0
M  V30 328 C 32.7612 0.57326 3.42942 0
M  V30 329 H 32.0842 1.37702 3.75338 0
M  V30 330 H 33.5242 0.447031 4.21637 0
M  V30 331 C 31.9832 -0.7167 3.29188 0
M  V30 332 O 32.5132 -1.77027 3.60589 0
M  V30 333 N 30.7192 -0.686167 2.82383 0
M  V30 334 H 30.2662 0.171507 2.57028 0
M  V30 335 H 30.2242 -1.54955 2.73562 0
M  V30 336 N 33.9963 -1.19345 1.0293 0
M  V30 337 C 34.9063 -2.26245 0.620515 0
M  V30 338 C 35.9223 -1.70486 -0.347928 0
M  V30 339 O 37.0983 -2.00347 -0.205704 0
M  V30 340 C 34.1633 -3.46693 -0.0218957 0
M  V30 341 C 33.2243 -4.17632 0.994102 0
M  V30 342 C 32.4573 -5.32329 0.382253 0
M  V30 343 O 32.6803 -5.64552 -0.814676 0
M  V30 344 O 31.6143 -5.91664 1.10531 0
M  V30 345 H 35.4403 -2.63453 1.51083 0
M  V30 346 H 33.0253 -1.26207 0.799513 0
M  V30 347 H 34.9073 -4.19683 -0.380072 0
M  V30 348 H 33.5823 -3.11333 -0.886209 0
M  V30 349 H 32.4893 -3.4676 1.40387 0
M  V30 350 H 33.8223 -4.56964 1.8288 0
M  V30 351 N 35.4744 -0.807222 -1.35358 0
M  V30 352 C 36.7204 -0.388463 -1.99045 0
M  V30 353 C 37.0534 1.04184 -1.63888 0
M  V30 354 O 36.3284 1.72292 -0.902535 0
M  V30 355 C 36.6114 -0.572783 -3.55515 0
M  V30 356 C 36.4644 -2.04807 -4.00468 0
M  V30 357 C 37.7834 0.00114064 -4.401 0
M  V30 358 H 34.9024 -0.142619 -0.723069 0
M  V30 359 H 37.5444 -1.01687 -1.60498 0
M  V30 360 H 35.6944 -0.0378425 -3.88482 0
M  V30 361 H 37.3664 -2.64544 -3.77908 0
M  V30 362 H 35.6094 -2.54427 -3.51353 0
M  V30 363 H 36.2804 -2.12792 -5.09337 0
M  V30 364 H 38.7564 -0.455716 -4.13597 0
M  V30 365 H 37.6324 -0.157737 -5.48673 0
M  V30 366 H 37.8934 1.09488 -4.28328 0
M  V30 367 N 36.9525 1.47285 -0.560781 0
M  V30 368 C 38.1805 2.06855 -0.0430262 0
M  V30 369 C 38.5955 1.41291 1.25229 0
M  V30 370 O 37.9525 0.510648 1.7521 0
M  V30 371 C 38.0035 3.61178 0.152518 0
M  V30 372 O 37.7245 4.24285 -1.0915 0
M  V30 373 C 39.2255 4.37624 0.707145 0
M  V30 374 H 36.4455 0.669319 -0.0474652 0
M  V30 375 H 38.9895 1.89237 -0.77521 0
M  V30 376 H 37.1445 3.78298 0.834843 0
M  V30 377 H 37.5585 5.16868 -0.891482 0
M  V30 378 H 39.0325 5.46271 0.793244 0
M  V30 379 H 39.5095 4.04152 1.71923 0
M  V30 380 H 40.1155 4.25257 0.0604027 0
M  V30 381 N 38.4306 0.297415 1.54768 0
M  V30 382 C 39.6796 -0.313669 1.99246 0
M  V30 383 C 39.9926 -1.55281 1.18942 0
M  V30 384 O 41.1986 -2.23825 1.5367 0
M  V30 385 C 39.6546 -0.609407 3.54703 0
M  V30 386 C 39.2626 0.611192 4.43811 0
M  V30 387 C 41.0066 -1.18188 4.07715 0
M  V30 388 C 38.9136 0.288805 5.90694 0
M  V30 389 H 37.8436 -0.120979 0.744231 0
M  V30 390 H 40.4946 0.40556 1.78962 0
M  V30 391 H 38.8766 -1.38813 3.70873 0
M  V30 392 H 40.0506 1.3875 4.39414 0
M  V30 393 H 38.3656 1.10205 4.01552 0
M  V30 394 H 40.9626 -1.43727 5.15021 0
M  V30 395 H 41.3056 -2.12299 3.58099 0
M  V30 396 H 41.8386 -0.464944 3.95074 0
M  V30 397 H 38.5776 1.19838 6.44453 0
M  V30 398 H 38.0976 -0.450305 5.98107 0
M  V30 399 H 39.7766 -0.110933 6.46905 0
M  V30 400 N 39.9087 -1.5758 0.0250728 0
M  V30 401 C 41.1547 -1.91917 -0.655413 0
M  V30 402 C 41.4877 -0.901433 -1.72011 0
M  V30 403 O 40.7627 0.0764069 -1.9435 0
M  V30 404 C 41.0457 -3.36751 -1.27558 0
M  V30 405 C 40.8987 -4.49258 -0.220719 0
M  V30 406 C 42.2177 -3.81469 -2.19475 0
M  V30 407 H 39.3367 -0.697925 -0.23679 0
M  V30 408 H 41.9787 -1.89825 0.0815036 0
M  V30 409 H 40.1287 -3.38664 -1.90365 0
M  V30 410 H 41.8007 -4.59478 0.409601 0
M  V30 411 H 40.0437 -4.31415 0.454264 0
M  V30 412 H 40.7147 -5.47618 -0.694175 0
M  V30 413 H 43.1907 -3.81266 -1.66659 0
M  V30 414 H 42.0667 -4.83512 -2.59822 0
M  V30 415 H 42.3277 -3.16744 -3.08424 0
M  V30 416 N 41.3868 0.248026 -1.55636 0
M  V30 417 C 42.6638 0.998988 -1.68165 0
M  V30 418 C 43.0438 2.03409 -0.564621 0
M  V30 419 O 42.3918 2.24378 0.432076 0
M  V30 420 C 42.6018 1.63334 -3.0842 0
M  V30 421 C 43.9498 2.13562 -3.66983 0
M  V30 422 O 44.9738 1.73277 -3.11213 0
M  V30 423 O 43.8328 2.87526 -4.64749 0
M  V30 424 H 40.9268 0.464933 -0.683935 0
M  V30 425 H 43.4728 0.241902 -1.67967 0
M  V30 426 H 42.2448 0.884583 -3.8117 0
M  V30 427 H 41.8678 2.45666 -3.12624 0
M  V30 428 N 42.8649 1.48995 0.513639 0
M  V30 429 C 44.1139 1.57093 1.2651 0
M  V30 430 C 44.4269 0.257091 1.93903 0
M  V30 431 O 45.6329 0.216478 2.70636 0
M  V30 432 C 44.0889 2.77118 2.29638 0
M  V30 433 C 43.6969 4.15209 1.68241 0
M  V30 434 C 45.4409 2.94538 3.05692 0
M  V30 435 C 43.3479 5.26474 2.69406 0
M  V30 436 H 42.2779 0.584876 0.475854 0
M  V30 437 H 44.9289 1.7536 0.540487 0
M  V30 438 H 43.3109 2.52319 3.05207 0
M  V30 439 H 44.4849 4.50094 0.987505 0
M  V30 440 H 42.7999 4.03042 1.04623 0
M  V30 441 H 45.3969 3.74832 3.8132 0
M  V30 442 H 45.7399 2.04614 3.62545 0
M  V30 443 H 46.2729 3.19316 2.37238 0
M  V30 444 H 43.0119 6.18417 2.17351 0
M  V30 445 H 42.5319 4.96058 3.37175 0
M  V30 446 H 44.2109 5.55277 3.32078 0
M  V30 447 N 44.343 -0.763751 1.37857 0
M  V30 448 C 45.273 -1.89103 1.36975 0
M  V30 449 C 46.254 -1.68439 0.237152 0
M  V30 450 O 47.439 -1.8918 0.438713 0
M  V30 451 C 44.569 -3.26496 1.18395 0
M  V30 452 C 43.523 -3.61741 2.28751 0
M  V30 453 C 42.849 -4.97762 1.95286 0
M  V30 454 C 44.149 -3.67665 3.70972 0
M  V30 455 H 45.843 -1.90099 2.31307 0
M  V30 456 H 43.389 -0.91319 1.11341 0
M  V30 457 H 45.342 -4.05003 1.16406 0
M  V30 458 H 44.066 -3.25955 0.205215 0
M  V30 459 H 42.725 -2.85547 2.29909 0
M  V30 460 H 42.373 -4.93769 0.959221 0
M  V30 461 H 42.073 -5.22313 2.69189 0
M  V30 462 H 43.597 -5.7866 1.94898 0
M  V30 463 H 45.011 -4.36307 3.719 0
M  V30 464 H 43.408 -4.03718 4.43995 0
M  V30 465 H 44.478 -2.68134 4.0402 0
M  V30 466 N 45.8211 -1.22559 -0.990812 0
M  V30 467 C 47.2321 -1.04791 -1.54518 0
M  V30 468 C 47.5831 0.387998 -1.92325 0
M  V30 469 O 46.7081 1.27328 -1.74976 0
M  V30 470 C 47.3031 -1.896 -2.80779 0
M  V30 471 C 45.8621 -1.76124 -3.32652 0
M  V30 472 C 45.0091 -1.8594 -2.05722 0
M  V30 473 H 47.9601 -1.36374 -0.811662 0
M  V30 474 H 47.9811 -1.41464 -3.53225 0
M  V30 475 H 47.4931 -2.94101 -2.53231 0
M  V30 476 H 45.5941 -0.743643 -3.65104 0
M  V30 477 H 45.7071 -2.58913 -4.03114 0
M  V30 478 H 44.0711 -1.29403 -2.19379 0
M  V30 479 H 44.8541 -2.91976 -1.80568 0
M  V30 480 N 47.2992 1.18797 -1.03562 0
M  V30 481 C 48.5242 1.9314 -0.755764 0
M  V30 482 C 48.9492 1.7537 0.68022 0
M  V30 483 O 48.3072 1.06046 1.47051 0
M  V30 484 C 48.3552 3.42747 -1.12058 0
M  V30 485 O 47.4592 4.11683 -0.243124 0
M  V30 486 H 46.8002 0.602724 -0.278604 0
M  V30 487 H 49.3302 1.50678 -1.3841 0
M  V30 488 H 49.3402 3.93437 -1.08035 0
M  V30 489 H 48.0152 3.55002 -2.16672 0
M  V30 490 H 46.5922 3.71323 -0.342539 0
M  V30 491 N 48.7773 0.814389 1.34928 0
M  V30 492 C 49.7243 0.22822 2.29669 0
M  V30 493 C 50.6943 -0.642164 1.53184 0
M  V30 494 O 51.8793 -0.585605 1.81591 0
M  V30 495 C 49.0193 -0.61089 3.3965 0
M  V30 496 C 48.1323 0.280792 4.31086 0
M  V30 497 C 47.2673 -0.567067 5.28165 0
M  V30 498 C 46.3063 0.324531 6.11239 0
M  V30 499 N 45.4433 -0.483756 7.00431 0
M  V30 500 H 50.2833 1.04153 2.79206 0
M  V30 501 H 47.8203 0.525133 1.37407 0
M  V30 502 H 49.7783 -1.11263 4.0209 0
M  V30 503 H 48.4083 -1.38939 2.91369 0
M  V30 504 H 47.4603 0.900688 3.69583 0
M  V30 505 H 48.7723 0.966723 4.89342 0
M  V30 506 H 47.9263 -1.13363 5.96015 0
M  V30 507 H 46.6653 -1.28654 4.70425 0
M  V30 508 H 45.6703 0.903298 5.42329 0
M  V30 509 H 46.8953 1.04198 6.71059 0
M  V30 510 H 44.8413 -1.18706 6.45171 0
M  V30 511 H 44.7583 0.143965 7.55863 0
M  V30 512 H 46.0263 -1.03334 7.7262 0
M  V30 513 N 50.2554 -1.46986 0.568584 0
M  V30 514 C 51.5014 -2.02741 0.0488709 0
M  V30 515 C 51.8344 -1.44077 -1.30214 0
M  V30 516 O 51.1094 -0.600552 -1.84996 0
M  V30 517 C 51.3924 -3.60086 -0.032047 0
M  V30 518 C 51.2454 -4.29162 1.34686 0
M  V30 519 C 52.5644 -4.33838 -0.739798 0
M  V30 520 H 49.6834 -0.736749 0.0192338 0
M  V30 521 H 52.3254 -1.75289 0.733065 0
M  V30 522 H 50.4754 -3.83606 -0.61473 0
M  V30 523 H 52.1474 -4.16948 1.97362 0
M  V30 524 H 50.3904 -3.89073 1.91846 0
M  V30 525 H 51.0614 -5.37826 1.24285 0
M  V30 526 H 53.5374 -4.15378 -0.244939 0
M  V30 527 H 52.4134 -5.43537 -0.765406 0
M  V30 528 H 52.6744 -4.03875 -1.79827 0
M  V30 529 N 51.7335 -0.305618 -1.54608 0
M  V30 530 C 53.0105 0.355652 -1.92339 0
M  V30 531 C 53.3905 1.71324 -1.23335 0
M  V30 532 O 52.7385 2.25473 -0.370702 0
M  V30 533 C 52.9485 0.46572 -3.45879 0
M  V30 534 C 54.2965 0.734426 -4.182 0
M  V30 535 O 55.3205 0.54935 -3.51938 0
M  V30 536 O 54.1795 1.09024 -5.35515 0
M  V30 537 H 51.2735 0.199666 -0.802535 0
M  V30 538 H 53.8195 -0.354017 -1.65966 0
M  V30 539 H 52.5915 -0.488461 -3.88239 0
M  V30 540 H 52.2145 1.22367 -3.78301 0
M  V30 541 N 53.2116 1.57565 -0.0334293 0
M  V30 542 C 54.1586 2.10478 0.946981 0
M  V30 543 C 55.1286 1.00787 1.32027 0
M  V30 544 O 56.3136 1.28232 1.41284 0
M  V30 545 C 53.4536 2.63994 2.22263 0
M  V30 546 C 52.5666 3.87709 1.90541 0
M  V30 547 C 51.7016 4.29604 3.12433 0
M  V30 548 C 50.7406 5.46065 2.76549 0
M  V30 549 N 49.8776 5.83096 3.9108 0
M  V30 550 H 54.7176 2.93963 0.488846 0
M  V30 551 H 52.2546 1.45296 0.22969 0
M  V30 552 H 54.2126 2.93114 2.96884 0
M  V30 553 H 52.8426 1.83333 2.65685 0
M  V30 554 H 51.8946 3.65291 1.06144 0
M  V30 555 H 53.2066 4.72403 1.60116 0
M  V30 556 H 52.3606 4.60182 3.9537 0
M  V30 557 H 51.0996 3.43685 3.46023 0
M  V30 558 H 50.1046 5.15176 1.92026 0
M  V30 559 H 51.3296 6.33685 2.44171 0
M  V30 560 H 49.2756 5.00132 4.24504 0
M  V30 561 H 49.1926 6.6244 3.64293 0
M  V30 562 H 50.4606 6.18282 4.74708 0
M  V30 563 N 54.6897 -0.239769 1.55765 0
M  V30 564 C 55.9387 -0.964754 1.77131 0
M  V30 565 C 56.2517 -1.86213 0.59868 0
M  V30 566 O 57.4577 -2.6244 0.695522 0
M  V30 567 C 55.9137 -1.76552 3.1362 0
M  V30 568 C 55.5217 -0.915185 4.38553 0
M  V30 569 C 57.2657 -2.48281 3.44321 0
M  V30 570 C 55.1727 -1.71225 5.66071 0
M  V30 571 H 54.1027 -0.363953 0.660344 0
M  V30 572 H 56.7537 -0.219181 1.82186 0
M  V30 573 H 55.1357 -2.55331 3.02691 0
M  V30 574 H 56.3097 -0.169217 4.60489 0
M  V30 575 H 54.6247 -0.310889 4.15238 0
M  V30 576 H 57.2217 -3.08382 4.36812 0
M  V30 577 H 57.5647 -3.20256 2.65973 0
M  V30 578 H 58.0977 -1.76507 3.56497 0
M  V30 579 H 54.8367 -1.03612 6.4726 0
M  V30 580 H 54.3567 -2.43331 5.48224 0
M  V30 581 H 56.0357 -2.27758 6.05587 0
M  V30 582 N 56.1678 -1.49265 -0.50573 0
M  V30 583 C 57.1158 -1.66065 -1.62866 0
M  V30 584 C 58.1098 -0.526636 -1.61006 0
M  V30 585 O 59.3158 -0.706126 -1.65571 0
M  V30 586 H 55.6908 -0.52356 -0.539805 0
M  V30 587 H 57.6618 -2.60329 -1.45848 0
M  V30 588 C 56.4108 -1.74008 -3.01026 0
M  V30 589 H 55.7338 -2.6064 -3.03161 0
M  V30 590 H 57.1738 -1.89798 -3.79147 0
M  V30 591 C 55.6328 -0.483868 -3.33407 0
M  V30 592 O 56.1628 0.392548 -3.99777 0
M  V30 593 N 54.3688 -0.348236 -2.88506 0
M  V30 594 H 53.9158 -1.06242 -2.34671 0
M  V30 595 H 53.8738 0.491204 -3.10539 0
M  V30 596 N 57.6459 0.756429 -1.3826 0
M  V30 597 C 58.5939 1.89149 -1.35372 0
M  V30 598 C 59.5879 1.67691 -0.24004 0
M  V30 599 O 60.7939 1.75294 -0.408919 0
M  V30 600 H 57.1689 0.622271 -0.422236 0
M  V30 601 H 59.1399 1.88701 -2.31159 0
M  V30 602 C 57.8889 3.26599 -1.19284 0
M  V30 603 H 57.2119 3.43695 -2.0424 0
M  V30 604 H 58.6519 4.06274 -1.21316 0
M  V30 605 C 57.1109 3.3675 0.100454 0
M  V30 606 O 57.6409 3.86951 1.07851 0
M  V30 607 N 55.8469 2.90179 0.15633 0
M  V30 608 H 55.3939 2.49517 -0.640253 0
M  V30 609 H 55.3519 2.97352 1.02123 0
M  V30 610 N 59.124 1.23083 0.984299 0
M  V30 611 C 60.372 1.05848 1.72165 0
M  V30 612 C 60.693 -0.406049 1.90726 0
M  V30 613 O 59.963 -1.29139 1.47309 0
M  V30 614 H 58.543 0.388685 0.637913 0
M  V30 615 H 61.205 1.54736 1.18503 0
M  V30 616 H 60.301 1.54327 2.71274 0
M  V30 617 N 60.6021 -1.18246 1.0419 0
M  V30 618 C 61.5321 -2.24127 0.654914 0
M  V30 619 C 62.5131 -1.66617 -0.342451 0
M  V30 620 O 63.6981 -1.92924 -0.222277 0
M  V30 621 C 60.8281 -3.47295 0.0183757 0
M  V30 622 C 59.7821 -4.17563 0.939414 0
M  V30 623 C 59.1081 -5.34438 0.167286 0
M  V30 624 C 60.4081 -4.70917 2.25908 0
M  V30 625 H 62.1021 -2.56753 1.54007 0
M  V30 626 H 59.6481 -1.23414 0.74195 0
M  V30 627 H 61.6011 -4.20572 -0.264082 0
M  V30 628 H 60.3251 -3.13907 -0.901664 0
M  V30 629 H 58.9841 -3.46186 1.20628 0
M  V30 630 H 58.6321 -4.97298 -0.7552 0
M  V30 631 H 58.3321 -5.82388 0.780901 0
M  V30 632 H 59.8561 -6.10504 -0.108125 0
M  V30 633 H 61.2701 -5.35882 2.03724 0
M  V30 634 H 59.6671 -5.29406 2.82577 0
M  V30 635 H 60.7371 -3.88272 2.9047 0
M  V30 636 N 62.0802 -0.821533 -1.34494 0
M  V30 637 C 63.3052 -0.420873 -2.03085 0
M  V30 638 C 63.7302 0.964915 -1.61465 0
M  V30 639 O 63.0882 1.62763 -0.798607 0
M  V30 640 C 63.1362 -0.529414 -3.56693 0
M  V30 641 O 62.2402 0.451302 -4.09923 0
M  V30 642 H 61.5812 -0.173489 -0.640935 0
M  V30 643 H 64.1112 -1.11157 -1.71771 0
M  V30 644 H 64.1212 -0.404671 -4.05988 0
M  V30 645 H 62.7962 -1.54014 -3.86332 0
M  V30 646 H 61.3732 0.285558 -3.71805 0
M  V30 647 N 63.5583 1.46682 -0.576371 0
M  V30 648 C 64.9693 1.86112 -0.148091 0
M  V30 649 C 65.3203 1.48073 1.2872 0
M  V30 650 O 64.4453 0.892656 1.97131 0
M  V30 651 C 65.0403 3.37786 -0.261982 0
M  V30 652 C 63.5993 3.76235 0.111384 0
M  V30 653 C 62.7463 2.70713 -0.60083 0
M  V30 654 H 65.6973 1.37927 -0.78497 0
M  V30 655 H 65.7183 3.77007 0.514364 0
M  V30 656 H 65.2303 3.6544 -1.30671 0
M  V30 657 H 63.3313 3.54198 1.15649 0
M  V30 658 H 63.4443 4.78391 -0.26052 0
M  V30 659 H 61.8083 2.54666 -0.0417783 0
M  V30 660 H 62.5913 3.01208 -1.64708 0
M  V30 661 N 65.0364 0.313813 1.54444 0
M  V30 662 C 66.2854 -0.292519 1.99568 0
M  V30 663 C 66.5984 -1.54011 1.20582 0
M  V30 664 O 67.8044 -2.22183 1.56035 0
M  V30 665 C 66.2604 -0.571752 3.55329 0
M  V30 666 C 65.8684 0.658229 4.43138 0
M  V30 667 C 67.6124 -1.13857 4.08946 0
M  V30 668 C 65.5194 0.351439 5.90355 0
M  V30 669 H 64.4494 -0.113079 0.745472 0
M  V30 670 H 67.1004 0.424518 1.78522 0
M  V30 671 H 65.4824 -1.34872 3.72325 0
M  V30 672 H 66.6564 1.43403 4.37918 0
M  V30 673 H 64.9714 1.14458 4.0036 0
M  V30 674 H 67.5684 -1.38257 5.16516 0
M  V30 675 H 67.9114 -2.08489 3.6033 0
M  V30 676 H 68.4444 -0.423015 3.95544 0
M  V30 677 H 65.1834 1.26667 6.43145 0
M  V30 678 H 64.7034 -0.386842 5.98551 0
M  V30 679 H 66.3824 -0.0423134 6.46986 0
M  V30 680 N 66.5145 -1.57545 0.0417849 0
M  V30 681 C 67.4465 -2.07904 -0.964799 0
M  V30 682 C 68.4595 -1.00497 -1.28079 0
M  V30 683 O 69.6485 -1.28087 -1.24322 0
M  V30 684 C 66.7485 -2.49928 -2.28887 0
M  V30 685 C 65.9215 -3.80562 -2.15619 0
M  V30 686 C 64.9805 -4.08999 -3.31069 0
M  V30 687 O 64.0065 -4.79061 -3.0739 0
M  V30 688 N 65.2085 -3.6017 -4.55256 0
M  V30 689 H 67.9735 -2.94886 -0.535029 0
M  V30 690 H 65.5345 -1.61252 -0.144681 0
M  V30 691 H 67.5265 -2.66034 -3.04972 0
M  V30 692 H 66.0965 -1.68245 -2.63463 0
M  V30 693 H 65.3165 -3.74129 -1.24183 0
M  V30 694 H 66.6045 -4.66126 -2.03971 0
M  V30 695 H 66.0025 -3.03512 -4.77386 0
M  V30 696 H 64.5595 -3.81532 -5.28466 0
M  V30 697 N 67.9926 0.231505 -1.5589 0
M  V30 698 C 69.2696 0.981096 -1.69215 0
M  V30 699 C 69.6496 2.02799 -0.586164 0
M  V30 700 O 68.9976 2.24823 0.408253 0
M  V30 701 C 69.2076 1.60054 -3.10135 0
M  V30 702 C 70.5556 2.09658 -3.69227 0
M  V30 703 O 71.5796 1.69967 -3.13033 0
M  V30 704 O 70.4386 2.8258 -4.67772 0
M  V30 705 H 67.5326 0.457653 -0.688827 0
M  V30 706 H 70.0786 0.224073 -1.68214 0
M  V30 707 H 68.8506 0.844105 -3.82087 0
M  V30 708 H 68.4736 2.42336 -3.15212 0
M  V30 709 N 69.4707 1.49531 0.497807 0
M  V30 710 C 70.3807 1.69176 1.62532 0
M  V30 711 C 71.3967 0.5744 1.64246 0
M  V30 712 O 72.5727 0.849497 1.82608 0
M  V30 713 C 69.6377 1.75695 2.98885 0
M  V30 714 C 68.6987 2.9929 3.07773 0
M  V30 715 C 67.9317 3.05488 4.37622 0
M  V30 716 O 68.1547 2.19192 5.26603 0
M  V30 717 O 67.0887 3.9798 4.51548 0
M  V30 718 H 70.9147 2.647 1.48887 0
M  V30 719 H 68.4997 1.3331 0.674441 0
M  V30 720 H 70.3817 1.82317 3.79919 0
M  V30 721 H 69.0567 0.8335 3.12785 0
M  V30 722 H 67.9637 2.98183 2.25915 0
M  V30 723 H 69.2967 3.91125 2.98801 0
M  V30 724 N 70.9488 -0.749086 1.3866 0
M  V30 725 C 72.1788 -1.53611 1.38157 0
M  V30 726 C 72.5868 -1.89177 -0.0293595 0
M  V30 727 O 71.9298 -1.53606 -1.00752 0
M  V30 728 C 71.9918 -2.86087 2.17702 0
M  V30 729 C 71.6558 -2.73034 3.66472 0
M  V30 730 C 72.6528 -2.42526 4.59866 0
M  V30 731 C 70.3378 -2.90345 4.09884 0
M  V30 732 C 72.3318 -2.29492 5.94653 0
M  V30 733 C 70.0188 -2.7693 5.4475 0
M  V30 734 C 71.0168 -2.46547 6.36949 0
M  V30 735 O 70.7048 -2.33199 7.69333 0
M  V30 736 H 70.4368 -0.481773 0.474205 0
M  V30 737 H 72.9908 -0.934465 1.82912 0
M  V30 738 H 71.2208 -3.48458 1.67672 0
M  V30 739 H 72.9098 -3.47625 2.09551 0
M  V30 740 H 73.6758 -2.28816 4.27631 0
M  V30 741 H 69.5548 -3.1299 3.38464 0
M  V30 742 H 73.0988 -2.05698 6.66584 0
M  V30 743 H 68.9958 -2.90215 5.76581 0
M  V30 744 H 69.7638 -2.48376 7.79905 0
M  V30 745 N 72.4269 -1.23603 -0.977757 0
M  V30 746 C 73.6759 -1.06377 -1.71368 0
M  V30 747 C 73.9889 0.399062 -1.91486 0
M  V30 748 O 75.1949 0.691312 -2.62551 0
M  V30 749 C 73.6509 -1.85512 -3.08404 0
M  V30 750 C 73.2589 -3.36141 -2.96164 0
M  V30 751 C 75.0029 -1.76783 -3.85938 0
M  V30 752 C 72.9099 -4.07659 -4.28449 0
M  V30 753 H 71.8399 -0.394452 -0.642591 0
M  V30 754 H 74.4909 -1.47594 -1.09034 0
M  V30 755 H 72.8729 -1.37103 -3.71509 0
M  V30 756 H 74.0469 -3.92056 -2.42133 0
M  V30 757 H 72.3619 -3.45712 -2.32104 0
M  V30 758 H 74.9589 -2.27526 -4.83876 0
M  V30 759 H 75.3019 -0.731116 -4.0983 0
M  V30 760 H 75.8349 -2.22818 -3.2954 0
M  V30 761 H 72.5739 -5.11648 -4.09752 0
M  V30 762 H 72.0939 -3.5653 -4.82334 0
M  V30 763 H 73.7729 -4.141 -4.97122 0
M  V30 764 N 73.905 1.17692 -1.04816 0
M  V30 765 C 74.815 2.25229 -0.65643 0
M  V30 766 C 75.831 1.71018 0.320761 0
M  V30 767 O 77.007 2.00649 0.173805 0
M  V30 768 C 74.072 3.46684 -0.0332629 0
M  V30 769 C 73.133 4.15997 -1.06042 0
M  V30 770 C 72.366 5.31654 -0.466893 0
M  V30 771 O 72.589 5.65777 0.724758 0
M  V30 772 O 71.523 5.89831 -1.1993 0
M  V30 773 H 75.349 2.61016 -1.55255 0
M  V30 774 H 72.934 1.24919 -0.81949 0
M  V30 775 H 74.816 4.20234 0.313256 0
M  V30 776 H 73.491 3.12703 0.836566 0
M  V30 777 H 72.398 3.44482 -1.45886 0
M  V30 778 H 73.731 4.53996 -1.90127 0
M  V30 779 N 75.3831 0.828654 1.34056 0
M  V30 780 C 76.6131 0.431993 2.02033 0
M  V30 781 C 77.0211 -0.96844 1.62536 0
M  V30 782 O 76.3641 -1.6391 0.829408 0
M  V30 783 C 76.4261 0.461224 3.56529 0
M  V30 784 C 76.0901 1.81599 4.1937 0
M  V30 785 C 77.0871 2.7777 4.39477 0
M  V30 786 C 74.7721 2.10604 4.56017 0
M  V30 787 C 76.7661 4.01115 4.95364 0
M  V30 788 C 74.4531 3.34207 5.11614 0
M  V30 789 C 75.4511 4.2928 5.31232 0
M  V30 790 O 75.1391 5.50699 5.8565 0
M  V30 791 H 74.8711 0.170943 0.654029 0
M  V30 792 H 77.4251 1.11988 1.72185 0
M  V30 793 H 75.6551 -0.283388 3.8566 0
M  V30 794 H 77.3441 0.0838149 4.05813 0
M  V30 795 H 78.1101 2.56659 4.11523 0
M  V30 796 H 73.9891 1.37402 4.40047 0
M  V30 797 H 77.5331 4.75333 5.10592 0
M  V30 798 H 73.4301 3.55179 5.38997 0
M  V30 799 H 74.1981 5.52298 6.04077 0
M  V30 800 N 76.8612 -1.46375 0.584142 0
M  V30 801 C 78.0912 -2.06461 0.0758195 0
M  V30 802 C 78.4992 -1.43322 -1.23512 0
M  V30 803 O 77.8422 -0.533216 -1.75791 0
M  V30 804 C 77.9042 -3.59131 -0.162773 0
M  V30 805 C 77.5682 -4.4447 1.06279 0
M  V30 806 C 78.5652 -4.80918 1.97519 0
M  V30 807 C 76.2502 -4.85584 1.28504 0
M  V30 808 C 78.2442 -5.57309 3.09331 0
M  V30 809 C 75.9312 -5.61734 2.4062 0
M  V30 810 C 76.9292 -5.9751 3.30863 0
M  V30 811 O 76.6172 -6.72121 4.41032 0
M  V30 812 H 76.3492 -0.673745 0.0551725 0
M  V30 813 H 78.9032 -1.88969 0.804984 0
M  V30 814 H 77.1332 -3.74936 -0.946565 0
M  V30 815 H 78.8222 -4.0114 -0.619782 0
M  V30 816 H 79.5882 -4.49732 1.81565 0
M  V30 817 H 75.4672 -4.57187 0.591702 0
M  V30 818 H 79.0112 -5.85152 3.79793 0
M  V30 819 H 74.9082 -5.92334 2.56537 0
M  V30 820 H 75.6762 -6.90547 4.39417 0
M  V30 821 N 78.3393 -0.321999 -1.54275 0
M  V30 822 C 79.2693 0.537411 -2.27231 0
M  V30 823 C 80.2503 1.12064 -1.27968 0
M  V30 824 O 81.4353 1.14606 -1.56777 0
M  V30 825 C 78.5653 1.69919 -3.02894 0
M  V30 826 C 77.5193 1.24534 -4.09482 0
M  V30 827 C 76.8453 2.49394 -4.72977 0
M  V30 828 C 78.1453 0.361335 -5.21049 0
M  V30 829 H 79.8393 -0.0711406 -2.99315 0
M  V30 830 H 77.3853 -0.0356555 -1.43956 0
M  V30 831 H 79.3383 2.30668 -3.52662 0
M  V30 832 H 78.0623 2.33431 -2.28424 0
M  V30 833 H 76.7213 0.660782 -3.60596 0
M  V30 834 H 76.3693 3.11265 -3.95124 0
M  V30 835 H 76.0693 2.19718 -5.44975 0
M  V30 836 H 77.5933 3.10908 -5.25517 0
M  V30 837 H 79.0073 0.875072 -5.66582 0
M  V30 838 H 77.4043 0.157428 -5.99893 0
M  V30 839 H 78.4743 -0.60822 -4.8107 0
M  V30 840 N 79.8174 1.5752 -0.0501392 0
M  V30 841 C 80.7644 2.1147 0.924603 0
M  V30 842 C 81.7344 1.02182 1.30951 0
M  V30 843 O 82.9194 1.29723 1.39916 0
M  V30 844 C 80.0594 2.66337 2.19451 0
M  V30 845 C 79.1724 3.89708 1.86418 0
M  V30 846 C 78.3074 4.32893 3.07859 0
M  V30 847 C 77.3464 5.48967 2.70742 0
M  V30 848 N 76.4834 5.87211 3.84874 0
M  V30 849 H 81.3234 2.94465 0.457639 0
M  V30 850 H 78.8604 1.45531 0.214266 0
M  V30 851 H 80.8184 2.96247 2.93758 0
M  V30 852 H 79.4484 1.86141 2.63726 0
M  V30 853 H 78.5004 3.66396 1.02264 0
M  V30 854 H 79.8124 4.74074 1.55096 0
M  V30 855 H 78.9664 4.6435 3.90466 0
M  V30 856 H 77.7054 3.47336 3.42358 0
M  V30 857 H 76.7104 5.17183 1.86551 0
M  V30 858 H 77.9354 6.3624 2.37436 0
M  V30 859 H 75.8814 5.04607 4.19175 0
M  V30 860 H 75.7984 6.66266 3.57247 0
M  V30 861 H 77.0664 6.23282 4.68123 0
M  V30 862 N 81.2955 -0.223234 1.56011 0
M  V30 863 C 82.5205 -0.968978 1.83373 0
M  V30 864 C 82.9455 -1.77227 0.630254 0
M  V30 865 O 82.3035 -1.76345 -0.420959 0
M  V30 866 C 82.3515 -1.86363 3.08709 0
M  V30 867 O 81.4555 -2.95873 2.87285 0
M  V30 868 H 80.7965 -0.274461 0.604622 0
M  V30 869 H 83.3265 -0.237056 2.03222 0
M  V30 870 H 83.3365 -2.27376 3.38768 0
M  V30 871 H 82.0115 -1.27319 3.95933 0
M  V30 872 H 80.5885 -2.58818 2.68454 0
M  V30 873 N 82.7736 -1.49793 -0.48987 0
M  V30 874 C 83.7206 -1.67281 -1.59014 0
M  V30 875 C 84.6906 -0.514177 -1.57941 0
M  V30 876 O 85.8756 -0.742533 -1.75759 0
M  V30 877 C 83.0156 -1.75569 -2.97102 0
M  V30 878 C 82.1286 -3.0281 -3.08107 0
M  V30 879 C 81.2636 -3.02008 -4.36995 0
M  V30 880 C 80.3026 -4.23782 -4.41673 0
M  V30 881 N 79.4396 -4.20826 -5.62005 0
M  V30 882 H 84.2796 -2.61224 -1.43409 0
M  V30 883 H 81.8166 -1.29508 -0.697565 0
M  V30 884 H 83.7746 -1.78354 -3.77155 0
M  V30 885 H 82.4046 -0.850827 -3.11385 0
M  V30 886 H 81.4566 -3.09584 -2.21047 0
M  V30 887 H 82.7686 -3.92801 -3.07423 0
M  V30 888 H 81.9226 -3.03418 -5.25378 0
M  V30 889 H 80.6616 -2.09815 -4.4026 0
M  V30 890 H 79.6666 -4.22604 -3.5169 0
M  V30 891 H 80.8916 -5.17181 -4.40115 0
M  V30 892 H 78.8376 -3.31476 -5.66091 0
M  V30 893 H 78.7546 -5.04564 -5.62984 0
M  V30 894 H 80.0226 -4.26355 -6.52565 0
M  V30 895 N 84.2517 0.741722 -1.39055 0
M  V30 896 C 85.1837 1.8657 -1.33133 0
M  V30 897 C 86.1967 1.61001 -0.241329 0
M  V30 898 O 87.3857 1.7136 -0.499784 0
M  V30 899 C 84.4857 3.22457 -1.04283 0
M  V30 900 C 83.6587 3.75435 -2.24427 0
M  V30 901 C 82.7177 4.89867 -1.92138 0
M  V30 902 O 81.7437 5.03879 -2.64754 0
M  V30 903 N 82.9457 5.73738 -0.88347 0
M  V30 904 H 85.7107 1.92156 -2.29991 0
M  V30 905 H 83.2717 0.922172 -1.3307 0
M  V30 906 H 85.2637 3.9657 -0.807128 0
M  V30 907 H 83.8337 3.12181 -0.161807 0
M  V30 908 H 83.0537 2.92751 -2.6399 0
M  V30 909 H 84.3417 4.07563 -3.04581 0
M  V30 910 H 83.7397 5.64999 -0.281517 0
M  V30 911 H 82.2967 6.47947 -0.707662 0
M  V30 912 N 85.7298 1.2412 0.971189 0
M  V30 913 C 86.6598 1.05508 2.08304 0
M  V30 914 C 87.6408 -0.0308864 1.70072 0
M  V30 915 O 88.8258 0.135521 1.93727 0
M  V30 916 C 85.9558 0.655365 3.4106 0
M  V30 917 C 84.9098 1.68971 3.93234 0
M  V30 918 C 84.2358 1.14516 5.22293 0
M  V30 919 C 85.5358 3.08487 4.21465 0
M  V30 920 H 87.2298 1.98507 2.24132 0
M  V30 921 H 84.7758 0.955821 1.07704 0
M  V30 922 H 86.7288 0.51217 4.18276 0
M  V30 923 H 85.4528 -0.31032 3.25122 0
M  V30 924 H 84.1118 1.82106 3.18171 0
M  V30 925 H 83.7598 0.170189 5.02712 0
M  V30 926 H 83.4598 1.83635 5.58168 0
M  V30 927 H 84.9838 1.01401 6.02121 0
M  V30 928 H 86.3978 2.98601 4.89398 0
M  V30 929 H 84.7948 3.74926 4.68562 0
M  V30 930 H 85.8648 3.56787 3.28376 0
M  V30 931 N 87.2079 -1.17134 1.05439 0
M  V30 932 C 88.4329 -1.91913 0.786396 0
M  V30 933 C 88.8579 -1.7643 -0.652234 0
M  V30 934 O 88.2159 -1.08372 -1.45345 0
M  V30 935 C 88.2639 -3.40921 1.17497 0
M  V30 936 O 87.3679 -4.11244 0.308589 0
M  V30 937 H 86.7089 -0.598215 0.288158 0
M  V30 938 H 89.2389 -1.48457 1.4079 0
M  V30 939 H 89.2489 -3.91668 1.14281 0
M  V30 940 H 87.9239 -3.5151 2.22292 0
M  V30 941 H 86.5009 -3.70731 0.40157 0
M  V30 942 N 88.686 -0.835752 -1.33615 0
M  V30 943 C 89.935 -0.426289 -1.97144 0
M  V30 944 C 90.248 1.01912 -1.66953 0
M  V30 945 O 91.454 1.53311 -2.24072 0
M  V30 946 C 89.91 -0.711321 -3.52801 0
M  V30 947 C 89.518 -2.1712 -3.91871 0
M  V30 948 C 91.262 -0.368654 -4.22896 0
M  V30 949 C 89.169 -2.40044 -5.40493 0
M  V30 950 H 88.099 -0.15567 -0.737755 0
M  V30 951 H 90.75 -1.0239 -1.52278 0
M  V30 952 H 89.132 -0.0433766 -3.95976 0
M  V30 953 H 90.306 -2.87936 -3.59763 0
M  V30 954 H 88.621 -2.47654 -3.34749 0
M  V30 955 H 91.218 -0.517601 -5.32189 0
M  V30 956 H 91.561 0.688078 -4.10574 0
M  V30 957 H 92.094 -0.991702 -3.8524 0
M  V30 958 H 88.833 -3.44271 -5.57815 0
M  V30 959 H 88.353 -1.73785 -5.74072 0
M  V30 960 H 90.032 -2.23042 -6.0734 0
M  V30 961 N 90.1641 1.46063 -0.591896 0
M  V30 962 C 91.1111 2.30399 0.136069 0
M  V30 963 C 92.0811 1.41169 0.875238 0
M  V30 964 O 93.2661 1.70112 0.86409 0
M  V30 965 C 90.4061 3.25804 1.13781 0
M  V30 966 C 89.5191 4.30134 0.401137 0
M  V30 967 C 88.6541 5.12659 1.39121 0
M  V30 968 C 87.6931 6.0873 0.641462 0
M  V30 969 N 86.8301 6.8409 1.58004 0
M  V30 970 H 91.6701 2.92118 -0.589144 0
M  V30 971 H 89.2071 1.43959 -0.302342 0
M  V30 972 H 91.1651 3.79569 1.73156 0
M  V30 973 H 89.7951 2.65872 1.83062 0
M  V30 974 H 88.8471 3.79152 -0.307826 0
M  V30 975 H 90.1591 4.98458 -0.184565 0
M  V30 976 H 89.3131 5.70747 2.05749 0
M  V30 977 H 88.0521 4.44316 2.01084 0
M  V30 978 H 87.0571 5.49786 -0.0385419 0
M  V30 979 H 88.2821 6.79095 0.0270945 0
M  V30 980 H 86.2281 6.18449 2.18761 0
M  V30 981 H 86.1451 7.48709 1.04738 0
M  V30 982 H 87.4131 7.4673 2.23639 0
M  V30 983 N 91.6422 0.330177 1.54103 0
M  V30 984 C 92.6052 -0.520144 2.2322 0
M  V30 985 C 93.6052 -1.03828 1.22786 0
M  V30 986 O 94.7952 -0.929652 1.4732 0
M  V30 987 C 91.9272 -1.72317 2.94142 0
M  V30 988 H 93.1202 0.0841605 2.99782 0
M  V30 989 H 90.6732 0.0813433 1.56088 0
M  V30 990 H 91.4082 -2.36653 2.21734 0
M  V30 991 H 91.1932 -1.35898 3.67796 0
M  V30 992 H 92.6832 -2.3266 3.46784 0
M  V30 993 N 93.1203 -1.57491 0.0584922 0
M  V30 994 C 94.3483 -1.97296 -0.623037 0
M  V30 995 C 94.7633 -0.936338 -1.63946 0
M  V30 996 O 94.1203 0.0785981 -1.82331 0
M  V30 997 C 94.1713 -3.37183 -1.30345 0
M  V30 998 O 93.8923 -4.36872 -0.32773 0
M  V30 999 C 95.3933 -3.91788 -2.07406 0
M  V30 1000 H 92.6133 -0.649153 -0.169826 0
M  V30 1001 H 95.1573 -2.04106 0.12696 0
M  V30 1002 H 93.3123 -3.31502 -2.00463 0
M  V30 1003 H 93.7263 -5.18141 -0.814269 0
M  V30 1004 H 95.2003 -4.91926 -2.50425 0
M  V30 1005 H 95.6773 -3.27609 -2.92521 0
M  V30 1006 H 96.2833 -4.00829 -1.42184 0
M  V30 1007 N 94.5984 0.214957 -1.56127 0
M  V30 1008 C 95.5284 1.2695 -1.95974 0
M  V30 1009 C 96.5094 1.48539 -0.828868 0
M  V30 1010 O 97.6944 1.60611 -1.09168 0
M  V30 1011 C 94.8244 2.61794 -2.28214 0
M  V30 1012 C 93.7784 2.54851 -3.43853 0
M  V30 1013 C 93.1044 3.93785 -3.61715 0
M  V30 1014 C 94.4044 2.09065 -4.78632 0
M  V30 1015 H 96.0984 0.93846 -2.84312 0
M  V30 1016 H 93.6444 0.449996 -1.36788 0
M  V30 1017 H 95.5974 3.35731 -2.54682 0
M  V30 1018 H 94.3214 2.96599 -1.36736 0
M  V30 1019 H 92.9804 1.8337 -3.17444 0
M  V30 1020 H 92.6284 4.25908 -2.67602 0
M  V30 1021 H 92.3284 3.90019 -4.39498 0
M  V30 1022 H 93.8524 4.69374 -3.90539 0
M  V30 1023 H 95.2664 2.7275 -5.04262 0
M  V30 1024 H 93.6634 2.16346 -5.59745 0
M  V30 1025 H 94.7334 1.04315 -4.73547 0
M  V30 1026 N 96.0765 1.50051 0.48192 0
M  V30 1027 C 97.3535 1.51009 1.2432 0
M  V30 1028 C 97.7335 0.248587 2.09631 0
M  V30 1029 O 97.0815 -0.768409 2.15192 0
M  V30 1030 C 97.2915 2.79981 2.08355 0
M  V30 1031 C 98.6395 3.3022 2.66908 0
M  V30 1032 O 99.6635 2.81228 2.18607 0
M  V30 1033 O 98.5225 4.15595 3.54884 0
M  V30 1034 H 95.6165 0.605239 0.563573 0
M  V30 1035 H 98.1625 1.62332 0.494627 0
M  V30 1036 H 96.9345 3.63275 1.45419 0
M  V30 1037 H 96.5575 2.7161 2.90368 0
M  V30 1038 N 97.5546 -0.734337 1.39446 0
M  V30 1039 C 98.7796 -1.52866 1.40167 0
M  V30 1040 C 99.2046 -1.881 -0.00171513 0
M  V30 1041 O 98.5626 -1.51957 -0.988879 0
M  V30 1042 C 98.6106 -2.79235 2.28167 0
M  V30 1043 O 97.7146 -3.75185 1.71201 0
M  V30 1044 H 97.0556 -0.461618 0.477289 0
M  V30 1045 H 99.5856 -0.905949 1.8345 0
M  V30 1046 H 99.5956 -3.27963 2.42702 0
M  V30 1047 H 98.2706 -2.52923 3.30156 0
M  V30 1048 H 96.8476 -3.33958 1.65912 0
M  V30 1049 N 99.0327 -1.24633 -0.964593 0
M  V30 1050 C 99.9797 -1.04144 -2.05968 0
M  V30 1051 C 100.95 0.046262 -1.66036 0
M  V30 1052 O 102.135 -0.108972 -1.90489 0
M  V30 1053 C 99.2747 -0.65563 -3.38815 0
M  V30 1054 C 98.3877 -1.81714 -3.91923 0
M  V30 1055 C 97.5227 -1.37662 -5.13052 0
M  V30 1056 C 96.5617 -2.50788 -5.58365 0
M  V30 1057 N 95.6987 -2.07582 -6.70712 0
M  V30 1058 H 100.539 -1.9787 -2.22827 0
M  V30 1059 H 98.0757 -0.9855 -1.09208 0
M  V30 1060 H 100.034 -0.412954 -4.15151 0
M  V30 1061 H 98.6637 0.244627 -3.21872 0
M  V30 1062 H 97.7157 -2.1734 -3.12198 0
M  V30 1063 H 99.0277 -2.66705 -4.21509 0
M  V30 1064 H 98.1817 -1.093 -5.96773 0
M  V30 1065 H 96.9207 -0.497293 -4.85158 0
M  V30 1066 H 95.9257 -2.79906 -4.73215 0
M  V30 1067 H 97.1507 -3.39283 -5.88272 0
M  V30 1068 H 95.0967 -1.22051 -6.44546 0
M  V30 1069 H 95.0137 -2.86125 -6.99763 0
M  V30 1070 H 96.2817 -1.82369 -7.57867 0
M  V30 1071 N 100.511 1.16574 -1.06058 0
M  V30 1072 C 101.474 2.19085 -0.673392 0
M  V30 1073 C 102.474 1.5835 0.279648 0
M  V30 1074 O 103.664 1.74088 0.0623488 0
M  V30 1075 C 100.796 3.40899 0.00954234 0
M  V30 1076 H 101.989 2.54853 -1.58081 0
M  V30 1077 H 99.5418 1.30808 -0.855516 0
M  V30 1078 H 100.277 3.10684 0.929826 0
M  V30 1079 H 100.062 3.86233 -0.67573 0
M  V30 1080 H 101.552 4.1675 0.266245 0
M  V30 1081 N 101.989 0.842826 1.3317 0
M  V30 1082 C 102.952 0.284065 2.27433 0
M  V30 1083 C 103.952 -0.54948 1.5112 0
M  V30 1084 O 105.142 -0.362699 1.70382 0
M  V30 1085 C 102.274 -0.599384 3.35589 0
M  V30 1086 H 103.467 1.11589 2.78366 0
M  V30 1087 H 101.02 0.616221 1.4364 0
M  V30 1088 H 101.755 -1.45349 2.89904 0
M  V30 1089 H 101.54 -0.00291266 3.921 0
M  V30 1090 H 103.03 -0.983488 4.05854 0
M  V30 1091 N 103.467 -1.45747 0.599634 0
M  V30 1092 C 104.697 -2.06369 0.0977132 0
M  V30 1093 C 105.105 -1.44624 -1.21985 0
M  V30 1094 O 104.448 -0.551831 -1.75216 0
M  V30 1095 C 104.51 -3.59284 -0.124673 0
M  V30 1096 C 104.174 -4.43318 1.10987 0
M  V30 1097 C 105.171 -4.78796 2.02609 0
M  V30 1098 C 102.856 -4.84194 1.33647 0
M  V30 1099 C 104.85 -5.53997 3.15224 0
M  V30 1100 C 102.537 -5.5915 2.46565 0
M  V30 1101 C 103.535 -5.93968 3.37182 0
M  V30 1102 O 103.223 -6.67405 4.48136 0
M  V30 1103 H 102.955 -0.673122 0.0623153 0
M  V30 1104 H 105.509 -1.88104 0.824981 0
M  V30 1105 H 103.739 -3.75919 -0.906745 0
M  V30 1106 H 105.428 -4.01775 -0.577201 0
M  V30 1107 H 106.194 -4.47781 1.86325 0
M  V30 1108 H 102.073 -4.56534 0.64016 0
M  V30 1109 H 105.617 -5.81091 3.85978 0
M  V30 1110 H 101.514 -5.89579 2.62805 0
M  V30 1111 H 102.282 -6.85847 4.46717 0
M  V30 1112 N 104.945 -0.338344 -1.53925 0
M  V30 1113 C 105.892 0.520845 -2.24846 0
M  V30 1114 C 106.862 1.09976 -1.24477 0
M  V30 1115 O 108.047 1.13735 -1.53196 0
M  V30 1116 C 105.187 1.6685 -3.02084 0
M  V30 1117 C 104.3 1.11739 -4.17299 0
M  V30 1118 C 103.435 2.23193 -4.82036 0
M  V30 1119 C 102.474 1.65407 -5.89328 0
M  V30 1120 N 101.611 2.70582 -6.47866 0
M  V30 1121 H 106.451 -0.0904881 -2.97863 0
M  V30 1122 H 103.988 -0.0564282 -1.46992 0
M  V30 1123 H 105.946 2.34407 -3.45122 0
M  V30 1124 H 104.576 2.2509 -2.31375 0
M  V30 1125 H 103.628 0.332919 -3.7894 0
M  V30 1126 H 104.94 0.654677 -4.94485 0
M  V30 1127 H 104.094 2.98626 -5.28117 0
M  V30 1128 H 102.833 2.72807 -4.04262 0
M  V30 1129 H 101.838 0.884779 -5.42634 0
M  V30 1130 H 103.063 1.16652 -6.69006 0
M  V30 1131 H 101.009 3.1946 -5.72959 0
M  V30 1132 H 100.926 2.28917 -7.20509 0
M  V30 1133 H 102.194 3.45799 -6.98601 0
M  V30 1134 N 106.423 1.57458 -0.0668435 0
M  V30 1135 C 107.333 2.15937 0.916975 0
M  V30 1136 C 108.349 1.12123 1.33058 0
M  V30 1137 O 109.525 1.44366 1.40429 0
M  V30 1138 C 106.59 2.70547 2.16807 0
M  V30 1139 C 105.651 3.89215 1.81135 0
M  V30 1140 C 104.884 4.41211 3.0028 0
M  V30 1141 O 105.107 3.92225 4.14144 0
M  V30 1142 O 104.041 5.32605 2.80384 0
M  V30 1143 H 107.867 3.00354 0.449561 0
M  V30 1144 H 105.452 1.48584 0.155949 0
M  V30 1145 H 107.334 3.0557 2.90181 0
M  V30 1146 H 106.009 1.89192 2.62656 0
M  V30 1147 H 104.916 3.59054 1.05028 0
M  V30 1148 H 106.249 4.71848 1.40073 0
M  V30 1149 N 107.901 -0.206675 1.56239 0
M  V30 1150 C 108.864 -1.23976 1.92776 0
M  V30 1151 C 109.864 -1.39041 0.807729 0
M  V30 1152 O 111.054 -1.37051 1.0753 0
M  V30 1153 C 108.186 -2.61112 2.19165 0
M  V30 1154 H 109.379 -0.927764 2.85189 0
M  V30 1155 H 106.932 -0.447718 1.4975 0
M  V30 1156 H 107.667 -2.97386 1.29352 0
M  V30 1157 H 107.452 -2.51552 3.00772 0
M  V30 1158 H 108.942 -3.35633 2.48476 0
M  V30 1159 N 109.379 -1.50304 -0.473955 0
M  V30 1160 C 110.289 -1.7174 -1.5982 0
M  V30 1161 C 111.305 -0.600457 -1.63311 0
M  V30 1162 O 112.481 -0.878441 -1.81233 0
M  V30 1163 C 109.546 -1.80427 -2.96052 0
M  V30 1164 C 108.607 -3.04148 -3.02972 0
M  V30 1165 C 107.84 -3.12411 -4.32706 0
M  V30 1166 O 108.063 -2.27542 -5.23049 0
M  V30 1167 O 106.997 -4.05113 -4.45159 0
M  V30 1168 H 110.823 -2.67035 -1.44657 0
M  V30 1169 H 108.408 -1.34366 -0.653148 0
M  V30 1170 H 110.29 -1.88338 -3.7697 0
M  V30 1171 H 108.965 -0.883156 -3.11419 0
M  V30 1172 H 107.872 -3.0174 -2.21142 0
M  V30 1173 H 109.205 -3.95829 -2.92541 0
M  V30 1174 N 110.857 0.726932 -1.39834 0
M  V30 1175 C 111.787 1.85405 -1.41941 0
M  V30 1176 C 112.768 1.67751 -0.281728 0
M  V30 1177 O 113.953 1.8795 -0.488717 0
M  V30 1178 C 111.083 3.23243 -1.2701 0
M  V30 1179 C 110.037 3.55549 -2.38262 0
M  V30 1180 C 109.363 4.9241 -2.08415 0
M  V30 1181 C 110.663 3.577 -3.80589 0
M  V30 1182 H 112.357 1.83899 -2.36266 0
M  V30 1183 H 109.903 0.883349 -1.13723 0
M  V30 1184 H 111.856 4.01775 -1.27103 0
M  V30 1185 H 110.58 3.25296 -0.291564 0
M  V30 1186 H 109.239 2.79351 -2.37399 0
M  V30 1187 H 108.887 4.91052 -1.0898 0
M  V30 1188 H 108.587 5.14992 -2.82943 0
M  V30 1189 H 110.111 5.73289 -2.10171 0
M  V30 1190 H 111.525 4.26293 -3.83337 0
M  V30 1191 H 109.922 3.91804 -4.54543 0
M  V30 1192 H 110.992 2.57328 -4.10987 0
M  V30 1193 N 112.336 1.25143 0.95797 0
M  V30 1194 C 113.582 1.09855 1.70469 0
M  V30 1195 C 113.915 -0.360187 1.90831 0
M  V30 1196 O 113.19 -1.26568 1.47685 0
M  V30 1197 C 113.473 1.8497 3.08963 0
M  V30 1198 C 113.326 3.38652 2.96032 0
M  V30 1199 C 114.645 1.63016 4.08795 0
M  V30 1200 H 111.764 0.400465 0.618706 0
M  V30 1201 H 114.406 1.53933 1.11376 0
M  V30 1202 H 112.556 1.47505 3.59409 0
M  V30 1203 H 114.228 3.85772 2.52938 0
M  V30 1204 H 112.471 3.66534 2.32025 0
M  V30 1205 H 113.142 3.8642 3.94187 0
M  V30 1206 H 115.618 1.95625 3.67247 0
M  V30 1207 H 114.494 2.18015 5.03747 0
M  V30 1208 H 114.755 0.570692 4.38401 0
M  V30 1209 N 113.814 -1.1601 1.06675 0
M  V30 1210 C 115.063 -1.85973 0.780818 0
M  V30 1211 C 115.376 -1.82819 -0.695444 0
M  V30 1212 O 116.582 -2.484 -1.09589 0
M  V30 1213 C 115.038 -3.33757 1.34665 0
M  V30 1214 C 114.646 -3.45374 2.85343 0
M  V30 1215 C 116.39 -4.0895 1.13843 0
M  V30 1216 C 114.297 -4.87266 3.35151 0
M  V30 1217 H 113.227 -0.696661 0.288407 0
M  V30 1218 H 115.878 -1.30903 1.28595 0
M  V30 1219 H 114.26 -3.88456 0.769274 0
M  V30 1220 H 115.434 -3.00816 3.49065 0
M  V30 1221 H 113.749 -2.83619 3.04876 0
M  V30 1222 H 116.346 -5.13654 1.4854 0
M  V30 1223 H 116.689 -4.16229 0.0770282 0
M  V30 1224 H 117.222 -3.605 1.68179 0
M  V30 1225 H 113.961 -4.85168 4.40786 0
M  V30 1226 H 113.481 -5.32433 2.76179 0
M  V30 1227 H 115.16 -5.56097 3.30704 0
M  V30 1228 N 115.292 -0.849877 -1.32721 0
M  V30 1229 C 116.541 -0.447175 -1.96681 0
M  V30 1230 C 116.854 1.00135 -1.68025 0
M  V30 1231 O 118.06 1.50926 -2.25685 0
M  V30 1232 C 116.516 -0.7487 -3.52026 0
M  V30 1233 C 116.124 -2.21264 -3.89546 0
M  V30 1234 C 117.868 -0.413487 -4.22481 0
M  V30 1235 C 115.775 -2.45763 -5.37917 0
M  V30 1236 H 114.705 -0.163486 -0.736063 0
M  V30 1237 H 117.356 -1.03999 -1.51183 0
M  V30 1238 H 115.738 -0.0853727 -3.95908 0
M  V30 1239 H 116.912 -2.91736 -3.56689 0
M  V30 1240 H 115.227 -2.5119 -3.32103 0
M  V30 1241 H 117.824 -0.574017 -5.3161 0
M  V30 1242 H 118.167 0.644492 -4.11281 0
M  V30 1243 H 118.7 -1.03251 -3.84167 0
M  V30 1244 H 115.439 -3.50168 -5.54132 0
M  V30 1245 H 114.959 -1.79864 -5.72197 0
M  V30 1246 H 116.638 -2.29471 -6.0494 0
M  V30 1247 N 116.77 1.45427 -0.607355 0
M  V30 1248 C 117.733 2.28974 0.101693 0
M  V30 1249 C 118.733 1.39754 0.795329 0
M  V30 1250 O 119.923 1.61878 0.643527 0
M  V30 1251 C 117.055 3.20768 1.15414 0
M  V30 1252 H 118.248 2.93147 -0.632844 0
M  V30 1253 H 115.801 1.51945 -0.366391 0
M  V30 1254 H 116.536 2.61395 1.91945 0
M  V30 1255 H 116.321 3.86489 0.66098 0
M  V30 1256 H 117.811 3.83589 1.65073 0
M  V30 1257 N 118.248 0.346503 1.53744 0
M  V30 1258 C 119.476 -0.25041 2.05379 0
M  V30 1259 C 119.891 -1.43979 1.22129 0
M  V30 1260 O 119.248 -1.80677 0.257321 0
M  V30 1261 C 119.299 -0.662575 3.55376 0
M  V30 1262 O 119.02 0.479515 4.35468 0
M  V30 1263 C 120.521 -1.31989 4.23195 0
M  V30 1264 H 117.741 -0.0478198 0.669294 0
M  V30 1265 H 120.285 0.499346 1.9831 0
M  V30 1266 H 118.44 -1.36227 3.62658 0
M  V30 1267 H 118.854 0.15037 5.24284 0
M  V30 1268 H 120.328 -1.55902 5.29527 0
M  V30 1269 H 120.805 -2.27436 3.75725 0
M  V30 1270 H 121.411 -0.662154 4.20114 0
M  V30 1271 N 119.726 -1.57421 0.075193 0
M  V30 1272 C 121.137 -1.81021 -0.456964 0
M  V30 1273 C 121.488 -0.98936 -1.69429 0
M  V30 1274 O 120.613 -0.212865 -2.15351 0
M  V30 1275 C 121.208 -3.28329 -0.83581 0
M  V30 1276 C 119.767 -3.52764 -1.31281 0
M  V30 1277 C 118.914 -2.75676 -0.299648 0
M  V30 1278 H 121.865 -1.55822 0.300856 0
M  V30 1279 H 121.886 -3.40564 -1.69696 0
M  V30 1280 H 121.398 -3.88046 0.0649238 0
M  V30 1281 H 119.499 -2.98355 -2.23193 0
M  V30 1282 H 119.612 -4.61451 -1.28839 0
M  V30 1283 H 117.976 -2.42538 -0.777641 0
M  V30 1284 H 118.759 -3.38132 0.593417 0
M  V30 1285 N 121.204 0.198386 -1.56346 0
M  V30 1286 C 122.432 0.935572 -1.84539 0
M  V30 1287 C 122.847 1.76989 -0.657281 0
M  V30 1288 O 122.204 1.78626 0.374043 0
M  V30 1289 C 122.255 1.8344 -3.11499 0
M  V30 1290 O 121.976 1.03377 -4.25728 0
M  V30 1291 C 123.477 2.68355 -3.52846 0
M  V30 1292 H 120.697 0.273126 -0.612897 0
M  V30 1293 H 123.241 0.20663 -2.03453 0
M  V30 1294 H 121.396 2.51701 -2.94492 0
M  V30 1295 H 121.81 1.64599 -4.98003 0
M  V30 1296 H 123.284 3.27085 -4.44657 0
M  V30 1297 H 123.761 3.41901 -2.75681 0
M  V30 1298 H 124.367 2.05471 -3.72373 0
M  V30 1299 N 122.682 1.50554 0.465978 0
M  V30 1300 C 123.63 1.70324 1.58406 0
M  V30 1301 C 124.624 0.569139 1.59553 0
M  V30 1302 O 125.83 0.749776 1.63641 0
M  V30 1303 H 122.205 0.537688 0.525734 0
M  V30 1304 H 124.176 2.64104 1.38894 0
M  V30 1305 C 122.925 1.81928 2.96307 0
M  V30 1306 H 122.248 2.68586 2.96144 0
M  V30 1307 H 123.688 1.99784 3.73982 0
M  V30 1308 C 122.147 0.572095 3.32007 0
M  V30 1309 O 122.677 -0.286416 4.00678 0
M  V30 1310 N 120.883 0.424606 2.87481 0
M  V30 1311 H 120.43 1.12427 2.31771 0
M  V30 1312 H 120.388 -0.408697 3.11732 0
M  V30 1313 N 124.16 -0.719506 1.40217 0
M  V30 1314 C 125.39 -1.50646 1.41384 0
M  V30 1315 C 125.798 -1.89197 0.0107743 0
M  V30 1316 O 125.141 -1.55709 -0.974708 0
M  V30 1317 C 125.203 -2.81405 2.23722 0
M  V30 1318 C 124.867 -2.65199 3.72181 0
M  V30 1319 C 125.864 -2.32717 4.64907 0
M  V30 1320 C 123.549 -2.81586 4.1595 0
M  V30 1321 C 125.543 -2.16827 5.99387 0
M  V30 1322 C 123.23 -2.65313 5.50502 0
M  V30 1323 C 124.228 -2.32981 6.42035 0
M  V30 1324 O 123.916 -2.16827 7.74107 0
M  V30 1325 H 123.648 -0.471606 0.484318 0
M  V30 1326 H 126.202 -0.895456 1.84853 0
M  V30 1327 H 124.432 -3.44823 1.75026 0
M  V30 1328 H 126.121 -3.43102 2.16878 0
M  V30 1329 H 126.887 -2.19694 4.32388 0
M  V30 1330 H 122.766 -3.0574 3.45027 0
M  V30 1331 H 126.31 -1.91513 6.70797 0
M  V30 1332 H 122.207 -2.7792 5.82607 0
M  V30 1333 H 122.975 -2.31778 7.84998 0
M  V30 1334 N 125.638 -1.25649 -0.95132 0
M  V30 1335 C 126.586 -1.06118 -2.06982 0
M  V30 1336 C 127.58 0.00889169 -1.69398 0
M  V30 1337 O 128.786 -0.146988 -1.79399 0
M  V30 1338 H 125.161 -0.326248 -0.677544 0
M  V30 1339 H 127.132 -2.00932 -2.2061 0
M  V30 1340 C 125.881 -0.700145 -3.40578 0
M  V30 1341 H 125.204 -1.51537 -3.69968 0
M  V30 1342 H 126.644 -0.603211 -4.19687 0
M  V30 1343 C 125.103 0.59403 -3.31622 0
M  V30 1344 O 125.633 1.63522 -3.66911 0
M  V30 1345 N 123.839 0.58089 -2.84735 0
M  V30 1346 H 123.386 -0.266783 -2.56215 0
M  V30 1347 H 123.344 1.44695 -2.79125 0
M  V30 1348 N 127.117 1.15442 -1.07289 0
M  V30 1349 C 128.342 1.90638 -0.816828 0
M  V30 1350 C 128.767 1.77445 0.624083 0
M  V30 1351 O 128.125 1.10671 1.43602 0
M  V30 1352 C 128.173 3.39008 -1.22906 0
M  V30 1353 O 127.277 4.10701 -0.373975 0
M  V30 1354 H 126.618 0.593555 -0.297638 0
M  V30 1355 H 129.148 1.46198 -1.43134 0
M  V30 1356 H 129.158 3.89801 -1.20497 0
M  V30 1357 H 127.833 3.47929 -2.27856 0
M  V30 1358 H 126.41 3.70046 -0.460499 0
M  V30 1359 N 128.595 0.856903 1.32268 0
M  V30 1360 C 130.011 0.547061 1.49931 0
M  V30 1361 C 130.211 -0.921781 1.7918 0
M  V30 1362 O 129.267 -1.70469 1.8627 0
M  V30 1363 C 130.58 1.43599 2.64196 0
M  V30 1364 C 132.128 1.43665 2.78081 0
M  V30 1365 C 132.603 2.31085 3.95428 0
M  V30 1366 N 134.094 2.28893 4.02694 0
M  V30 1367 C 134.829 2.93262 4.92732 0
M  V30 1368 N 134.325 3.66751 5.87763 0
M  V30 1369 N 136.118 2.82638 4.85873 0
M  V30 1370 H 128.269 1.8075 1.11549 0
M  V30 1371 H 130.532 0.772144 0.549997 0
M  V30 1372 H 130.238 2.48058 2.49319 0
M  V30 1373 H 130.112 1.12502 3.60032 0
M  V30 1374 H 132.499 0.399701 2.92381 0
M  V30 1375 H 132.58 1.7878 1.82952 0
M  V30 1376 H 132.224 3.34849 3.81888 0
M  V30 1377 H 132.154 1.93302 4.89839 0
M  V30 1378 H 134.645 1.75466 3.34694 0
M  V30 1379 H 134.958 4.13027 6.53168 0
M  V30 1380 H 133.303 3.70859 5.87783 0
M  V30 1381 H 136.494 2.24774 4.10602 0
M  V30 1382 H 136.667 3.33084 5.55841 0
M  V30 1383 N 130.073 -1.45103 0.615059 0
M  V30 1384 C 131.322 -2.01396 0.110718 0
M  V30 1385 C 131.635 -1.48834 -1.26916 0
M  V30 1386 O 132.841 -1.97152 -1.86664 0
M  V30 1387 C 131.297 -3.59599 0.14723 0
M  V30 1388 C 130.905 -4.21158 1.52743 0
M  V30 1389 C 132.649 -4.23428 -0.30148 0
M  V30 1390 C 130.556 -5.71535 1.51992 0
M  V30 1391 H 129.486 -0.753061 0.0376241 0
M  V30 1392 H 132.137 -1.66494 0.77149 0
M  V30 1393 H 130.519 -3.91724 -0.580339 0
M  V30 1394 H 131.693 -4.00594 2.2773 0
M  V30 1395 H 130.008 -3.69552 1.91886 0
M  V30 1396 H 132.605 -5.33703 -0.326392 0
M  V30 1397 H 132.948 -3.94629 -1.32565 0
M  V30 1398 H 133.481 -3.96047 0.373065 0
M  V30 1399 H 130.22 -6.05044 2.52193 0
M  V30 1400 H 129.74 -5.94268 0.81274 0
M  V30 1401 H 131.419 -6.34873 1.24681 0
M  V30 1402 N 131.551 -0.354651 -1.53558 0
M  V30 1403 C 132.499 0.512195 -2.26891 0
M  V30 1404 C 133.493 1.09263 -1.29452 0
M  V30 1405 O 134.699 1.03709 -1.47121 0
M  V30 1406 H 131.074 0.183878 -0.729173 0
M  V30 1407 H 133.045 -0.128202 -2.98124 0
M  V30 1408 C 131.794 1.64563 -3.06291 0
M  V30 1409 H 131.117 1.20829 -3.81104 0
M  V30 1410 H 132.557 2.22711 -3.60799 0
M  V30 1411 C 131.016 2.58158 -2.16462 0
M  V30 1412 O 131.546 3.60695 -1.76811 0
M  V30 1413 N 129.752 2.27096 -1.81317 0
M  V30 1414 H 129.299 1.43751 -2.1376 0
M  V30 1415 H 129.257 2.89975 -1.21498 0
M  V30 1416 N 133.029 1.57378 -0.0835403 0
M  V30 1417 C 134.259 1.97975 0.590713 0
M  V30 1418 C 134.667 0.961083 1.62972 0
M  V30 1419 O 134.01 -0.0590879 1.83605 0
M  V30 1420 C 134.072 3.34915 1.3066 0
M  V30 1421 C 133.736 4.55069 0.419698 0
M  V30 1422 C 134.733 5.18868 -0.32749 0
M  V30 1423 C 132.418 5.0114 0.341137 0
M  V30 1424 C 134.412 6.27098 -1.14134 0
M  V30 1425 C 132.099 6.0924 -0.476374 0
M  V30 1426 C 133.097 6.72083 -1.21627 0
M  V30 1427 O 132.785 7.781 -2.02028 0
M  V30 1428 H 132.517 0.655818 0.163947 0
M  V30 1429 H 135.071 2.04807 -0.156021 0
M  V30 1430 H 133.301 3.24733 2.09966 0
M  V30 1431 H 134.99 3.60037 1.87424 0
M  V30 1432 H 135.756 4.84211 -0.276459 0
M  V30 1433 H 131.635 4.51996 0.90668 0
M  V30 1434 H 135.179 6.7608 -1.71935 0
M  V30 1435 H 131.076 6.43329 -0.528927 0
M  V30 1436 H 131.844 7.95034 -1.94586 0
M  V30 1437 N 134.507 -0.190092 1.56449 0
M  V30 1438 C 135.754 -0.909705 1.80916 0
M  V30 1439 C 136.082 -1.83047 0.657583 0
M  V30 1440 O 135.337 -1.92428 -0.356356 0
M  V30 1441 C 135.636 -1.75382 3.1141 0
M  V30 1442 C 135.302 -0.983606 4.40041 0
M  V30 1443 C 133.964 -0.770967 4.74984 0
M  V30 1444 C 136.316 -0.442024 5.19322 0
M  V30 1445 C 133.644 -0.0053448 5.867 0
M  V30 1446 C 135.996 0.310412 6.31838 0
M  V30 1447 C 134.66 0.534023 6.6536 0
M  V30 1448 H 133.93 -0.332885 0.662019 0
M  V30 1449 H 136.577 -0.175762 1.90692 0
M  V30 1450 H 134.882 -2.55659 2.96893 0
M  V30 1451 H 136.579 -2.31331 3.27547 0
M  V30 1452 H 133.169 -1.15936 4.12622 0
M  V30 1453 H 137.353 -0.593693 4.92736 0
M  V30 1454 H 132.609 0.177825 6.11141 0
M  V30 1455 H 136.783 0.737419 6.92485 0
M  V30 1456 H 134.41 1.12918 7.51767 0
M  V30 1457 N 135.985 -1.50799 -0.457987 0
M  V30 1458 C 137.262 -1.52968 -1.21902 0
M  V30 1459 C 137.642 -0.281906 -2.09209 0
M  V30 1460 O 136.99 0.734076 -2.16388 0
M  V30 1461 C 137.2 -2.8326 -2.03875 0
M  V30 1462 C 138.548 -3.34425 -2.6162 0
M  V30 1463 O 139.572 -2.8467 -2.14106 0
M  V30 1464 O 138.431 -4.21188 -3.48228 0
M  V30 1465 H 135.525 -0.614129 -0.553873 0
M  V30 1466 H 138.071 -1.63098 -0.468739 0
M  V30 1467 H 136.843 -3.65543 -1.39621 0
M  V30 1468 H 136.466 -2.76195 -2.8601 0
M  V30 1469 N 137.463 0.71206 -1.40597 0
M  V30 1470 C 138.691 1.50111 -1.42388 0
M  V30 1471 C 139.106 1.88784 -0.0245395 0
M  V30 1472 O 138.463 1.55681 0.952351 0
M  V30 1473 C 138.514 2.7742 -2.31776 0
M  V30 1474 O 138.235 2.40382 -3.66262 0
M  V30 1475 C 139.736 3.7129 -2.42196 0
M  V30 1476 H 136.956 0.46314 -0.485533 0
M  V30 1477 H 139.5 0.878068 -1.8469 0
M  V30 1478 H 137.655 3.36001 -1.92827 0
M  V30 1479 H 138.069 3.22324 -4.13772 0
M  V30 1480 H 139.543 4.57448 -3.08943 0
M  V30 1481 H 140.02 4.14641 -1.44809 0
M  V30 1482 H 140.626 3.18619 -2.81712 0
M  V30 1483 N 138.941 1.26152 0.944643 0
M  V30 1484 C 139.873 1.03199 2.04652 0
M  V30 1485 C 140.886 -0.00642356 1.62799 0
M  V30 1486 O 142.075 0.233263 1.76969 0
M  V30 1487 C 139.175 0.540111 3.34568 0
M  V30 1488 C 138.348 1.64697 4.05208 0
M  V30 1489 C 137.407 1.15374 5.13396 0
M  V30 1490 O 136.433 1.85013 5.38293 0
M  V30 1491 N 137.635 0.00031529 5.805 0
M  V30 1492 H 140.4 1.9808 2.2491 0
M  V30 1493 H 137.961 1.17491 1.11389 0
M  V30 1494 H 139.953 0.194401 4.04233 0
M  V30 1495 H 138.523 -0.315021 3.11009 0
M  V30 1496 H 137.743 2.16379 3.29506 0
M  V30 1497 H 139.031 2.3903 4.49157 0
M  V30 1498 H 138.429 -0.581336 5.62705 0
M  V30 1499 H 136.986 -0.286346 6.51171 0
M  V30 1500 N 140.419 -1.14872 1.07899 0
M  V30 1501 C 141.369 -2.17809 0.674027 0
M  V30 1502 C 142.353 -1.58008 -0.303699 0
M  V30 1503 O 143.545 -1.76616 -0.11654 0
M  V30 1504 C 140.674 -3.43208 0.0793318 0
M  V30 1505 C 139.76 -4.10051 1.08253 0
M  V30 1506 N 140.151 -4.52296 2.2641 0
M  V30 1507 C 138.449 -4.36469 0.917124 0
M  V30 1508 C 139.15 -5.04199 2.901 0
M  V30 1509 N 138.126 -4.98088 2.17736 0
M  V30 1510 H 141.928 -2.48207 1.57386 0
M  V30 1511 H 139.442 -1.315 0.952976 0
M  V30 1512 H 141.439 -4.16272 -0.228719 0
M  V30 1513 H 140.099 -3.14291 -0.815551 0
M  V30 1514 H 141.11 -4.45504 2.64096 0
M  V30 1515 H 137.787 -4.17432 0.0756078 0
M  V30 1516 H 139.177 -5.46802 3.90458 0
M  V30 1517 N 141.898 -0.863906 -1.31812 0
M  V30 1518 C 143.144 -0.472535 -1.97218 0
M  V30 1519 C 143.477 0.971394 -1.68159 0
M  V30 1520 O 142.752 1.68309 -0.974798 0
M  V30 1521 C 143.035 -0.723054 -3.52766 0
M  V30 1522 C 142.888 -2.21608 -3.91421 0
M  V30 1523 C 144.207 -0.185522 -4.39709 0
M  V30 1524 H 141.326 -0.173158 -0.71637 0
M  V30 1525 H 143.968 -1.08403 -1.56041 0
M  V30 1526 H 142.118 -0.202577 -3.87971 0
M  V30 1527 H 143.79 -2.80334 -3.66347 0
M  V30 1528 H 142.033 -2.691 -3.40246 0
M  V30 1529 H 142.704 -2.34203 -4.99853 0
M  V30 1530 H 145.18 -0.630726 -4.11292 0
M  V30 1531 H 144.056 -0.390306 -5.47511 0
M  V30 1532 H 144.317 0.912229 -4.32586 0
M  V30 1533 N 143.376 1.44774 -0.622745 0
M  V30 1534 C 144.286 2.34433 0.0886031 0
M  V30 1535 C 145.302 1.52131 0.844529 0
M  V30 1536 O 146.478 1.84886 0.798691 0
M  V30 1537 C 143.543 3.29986 1.0635 0
M  V30 1538 C 142.604 4.28195 0.307873 0
M  V30 1539 C 141.837 5.19183 1.23633 0
M  V30 1540 O 142.06 5.13918 2.47476 0
M  V30 1541 O 140.994 5.97515 0.725189 0
M  V30 1542 H 144.82 2.96693 -0.648599 0
M  V30 1543 H 142.405 1.44408 -0.382957 0
M  V30 1544 H 144.287 3.88825 1.6246 0
M  V30 1545 H 142.962 2.70269 1.78146 0
M  V30 1546 H 141.869 3.72927 -0.296064 0
M  V30 1547 H 143.202 4.90808 -0.3699 0
M  V30 1548 N 144.854 0.36279 1.53368 0
M  V30 1549 C 146.082 -0.228613 2.05633 0
M  V30 1550 C 146.497 -1.42676 1.23649 0
M  V30 1551 O 145.854 -1.80394 0.27647 0
M  V30 1552 C 145.905 -0.624845 3.56059 0
M  V30 1553 O 145.626 0.525675 4.34935 0
M  V30 1554 C 147.127 -1.27493 4.24571 0
M  V30 1555 H 144.347 -0.0407183 0.669763 0
M  V30 1556 H 146.891 0.520352 1.97769 0
M  V30 1557 H 145.046 -1.32373 3.64083 0
M  V30 1558 H 145.46 0.205969 5.24095 0
M  V30 1559 H 146.934 -1.50277 5.31151 0
M  V30 1560 H 147.411 -2.23439 3.78116 0
M  V30 1561 H 148.017 -0.617558 4.20792 0
M  V30 1562 N 146.332 -1.57332 0.0918853 0
M  V30 1563 C 147.578 -1.94524 -0.573425 0
M  V30 1564 C 147.911 -0.973578 -1.68033 0
M  V30 1565 O 147.186 -0.00609226 -1.94499 0
M  V30 1566 C 147.469 -3.41858 -1.13161 0
M  V30 1567 C 147.322 -4.4979 -0.0299747 0
M  V30 1568 C 148.641 -3.90435 -2.03098 0
M  V30 1569 H 145.76 -0.70734 -0.206975 0
M  V30 1570 H 148.402 -1.89309 0.161942 0
M  V30 1571 H 146.552 -3.46433 -1.7583 0
M  V30 1572 H 148.224 -4.57327 0.604112 0
M  V30 1573 H 146.467 -4.291 0.636833 0
M  V30 1574 H 147.138 -5.50069 -0.461287 0
M  V30 1575 H 149.614 -3.87992 -1.50338 0
M  V30 1576 H 148.49 -4.94097 -2.39081 0
M  V30 1577 H 148.751 -3.29541 -2.94712 0
M  V30 1578 N 147.81 0.181792 -1.56548 0
M  V30 1579 C 149.059 0.898348 -1.8059 0
M  V30 1580 C 149.372 1.83862 -0.667379 0
M  V30 1581 O 150.578 2.59678 -0.792446 0
M  V30 1582 C 149.034 1.64791 -3.19956 0
M  V30 1583 C 148.642 0.751789 -4.41647 0
M  V30 1584 C 150.386 2.35331 -3.53298 0
M  V30 1585 C 148.293 1.50098 -5.72035 0
M  V30 1586 H 147.223 0.339194 -0.673397 0
M  V30 1587 H 149.874 0.151413 -1.82874 0
M  V30 1588 H 148.256 2.43921 -3.11959 0
M  V30 1589 H 149.43 -0.0018076 -4.608 0
M  V30 1590 H 147.745 0.156562 -4.16106 0
M  V30 1591 H 150.342 2.91958 -4.47956 0
M  V30 1592 H 150.685 3.10164 -2.77676 0
M  V30 1593 H 151.218 1.63154 -3.62803 0
M  V30 1594 H 147.957 0.795175 -6.50659 0
M  V30 1595 H 147.477 2.22817 -5.56878 0
M  V30 1596 H 149.156 2.05125 -6.13622 0
M  V30 1597 N 149.288 1.51039 0.449983 0
M  V30 1598 C 150.235 1.71439 1.54523 0
M  V30 1599 C 151.205 0.555871 1.56522 0
M  V30 1600 O 152.39 0.788871 1.73728 0
M  V30 1601 C 149.53 1.83384 2.92343 0
M  V30 1602 C 148.643 3.10873 2.9997 0
M  V30 1603 C 147.778 3.13488 4.28834 0
M  V30 1604 C 146.817 4.35343 4.30282 0
M  V30 1605 N 145.954 4.35579 5.5065 0
M  V30 1606 H 150.794 2.64934 1.36433 0
M  V30 1607 H 148.331 1.31312 0.662982 0
M  V30 1608 H 150.289 1.88291 3.72293 0
M  V30 1609 H 148.919 0.933086 3.0902 0
M  V30 1610 H 147.971 3.15336 2.12761 0
M  V30 1611 H 149.283 4.00814 2.96901 0
M  V30 1612 H 148.437 3.17241 5.17149 0
M  V30 1613 H 147.176 2.21414 4.34543 0
M  V30 1614 H 146.181 4.3178 3.40362 0
M  V30 1615 H 147.406 5.28668 4.26248 0
M  V30 1616 H 145.352 3.46369 5.57104 0
M  V30 1617 H 145.269 5.19313 5.49409 0
M  V30 1618 H 146.537 4.43507 6.41032 0
M  V30 1619 N 150.766 -0.704594 1.40972 0
M  V30 1620 C 151.676 -1.84856 1.44448 0
M  V30 1621 C 152.692 -1.70726 0.335961 0
M  V30 1622 O 153.868 -1.92799 0.582276 0
M  V30 1623 C 150.933 -3.20758 1.31587 0
M  V30 1624 C 149.994 -3.47063 2.52677 0
M  V30 1625 C 149.227 -4.76481 2.4042 0
M  V30 1626 O 149.45 -5.52341 1.42391 0
M  V30 1627 O 148.384 -5.03367 3.30007 0
M  V30 1628 H 152.21 -1.8488 2.40942 0
M  V30 1629 H 149.795 -0.85647 1.22413 0
M  V30 1630 H 151.677 -4.01913 1.26665 0
M  V30 1631 H 150.352 -3.21438 0.382049 0
M  V30 1632 H 149.259 -2.65873 2.63177 0
M  V30 1633 H 150.592 -3.5119 3.44858 0
M  V30 1634 N 152.244 -1.26651 -0.937939 0
M  V30 1635 C 153.49 -1.12553 -1.687 0
M  V30 1636 C 153.823 0.329782 -1.91379 0
M  V30 1637 O 153.098 1.24202 -1.4968 0
M  V30 1638 C 153.381 -1.89862 -3.05981 0
M  V30 1639 C 153.234 -3.43318 -2.90607 0
M  V30 1640 C 154.553 -1.69499 -4.0615 0
M  V30 1641 H 151.672 -0.410257 -0.612257 0
M  V30 1642 H 154.314 -1.55685 -1.08913 0
M  V30 1643 H 152.464 -1.53204 -3.57017 0
M  V30 1644 H 154.136 -3.89747 -2.46769 0
M  V30 1645 H 152.379 -3.70179 -2.26164 0
M  V30 1646 H 153.05 -3.92642 -3.8799 0
M  V30 1647 H 155.526 -2.01442 -3.64088 0
M  V30 1648 H 154.402 -2.26002 -5.00214 0
M  V30 1649 H 154.663 -0.640365 -4.37438 0
M  V30 1650 N 153.722 1.14298 -1.08507 0
M  V30 1651 C 154.652 2.21542 -0.737646 0
M  V30 1652 C 155.633 1.67773 0.280377 0
M  V30 1653 O 156.818 1.93616 0.150521 0
M  V30 1654 C 153.948 3.46988 -0.147259 0
M  V30 1655 C 152.902 4.13789 -1.09374 0
M  V30 1656 C 152.228 5.33449 -0.365524 0
M  V30 1657 C 153.528 4.62208 -2.4323 0
M  V30 1658 H 155.222 2.5086 -1.6343 0
M  V30 1659 H 152.768 1.20576 -0.787243 0
M  V30 1660 H 154.721 4.21262 0.107808 0
M  V30 1661 H 153.445 3.17037 0.784538 0
M  V30 1662 H 152.104 3.4147 -1.33393 0
M  V30 1663 H 151.752 4.99759 0.57011 0
M  V30 1664 H 151.452 5.79088 -0.996512 0
M  V30 1665 H 152.976 6.10485 -0.118534 0
M  V30 1666 H 154.39 5.27952 -2.23472 0
M  V30 1667 H 152.787 5.18553 -3.02031 0
M  V30 1668 H 153.857 3.77224 -3.04681 0
M  V30 1669 N 155.201 0.870884 1.31352 0
M  V30 1670 C 156.426 0.495957 2.01383 0
M  V30 1671 C 156.851 -0.904324 1.64935 0
M  V30 1672 O 156.209 -1.59687 0.858466 0
M  V30 1673 C 156.257 0.661433 3.54482 0
M  V30 1674 O 155.361 -0.298851 4.11316 0
M  V30 1675 H 154.702 0.197158 0.634054 0
M  V30 1676 H 157.232 1.17455 1.67527 0
M  V30 1677 H 157.242 0.555072 4.04207 0
M  V30 1678 H 155.917 1.68246 3.8035 0
M  V30 1679 H 154.494 -0.147368 3.72609 0
M  V30 1680 N 156.679 -1.44442 0.630414 0
M  V30 1681 C 157.925 -2.02351 0.134816 0
M  V30 1682 C 158.258 -1.4947 -1.23986 0
M  V30 1683 O 157.533 -0.678475 -1.82283 0
M  V30 1684 C 157.816 -3.59898 0.120707 0
M  V30 1685 C 157.669 -4.23063 1.52767 0
M  V30 1686 C 158.988 -4.36585 -0.555127 0
M  V30 1687 H 156.107 -0.73527 0.0504646 0
M  V30 1688 H 158.749 -1.72022 0.806751 0
M  V30 1689 H 156.899 -3.85868 -0.451477 0
M  V30 1690 H 158.571 -4.08202 2.14869 0
M  V30 1691 H 156.814 -3.80586 2.08175 0
M  V30 1692 H 157.485 -5.32071 1.46984 0
M  V30 1693 H 159.961 -4.16044 -0.0685429 0
M  V30 1694 H 158.837 -5.46294 -0.534185 0
M  V30 1695 H 159.098 -4.11138 -1.62535 0
M  V30 1696 N 158.157 -0.370918 -1.53173 0
M  V30 1697 C 159.105 0.488101 -2.27421 0
M  V30 1698 C 160.099 1.07884 -1.30604 0
M  V30 1699 O 161.305 1.02143 -1.48212 0
M  V30 1700 H 157.68 0.176134 -0.731082 0
M  V30 1701 H 159.651 -0.159815 -2.97972 0
M  V30 1702 C 158.4 1.61306 -3.08019 0
M  V30 1703 H 157.723 1.1678 -3.82364 0
M  V30 1704 H 159.163 2.18872 -3.63141 0
M  V30 1705 C 157.622 2.55848 -2.19188 0
M  V30 1706 O 158.152 3.58799 -1.80626 0
M  V30 1707 N 156.358 2.2516 -1.83715 0
M  V30 1708 H 155.905 1.41476 -2.15273 0
M  V30 1709 H 155.863 2.8867 -1.24567 0
M  V30 1710 N 159.635 1.57281 -0.100228 0
M  V30 1711 C 160.86 1.99302 0.573881 0
M  V30 1712 C 161.285 0.979059 1.60611 0
M  V30 1713 O 160.643 -0.0517803 1.81226 0
M  V30 1714 C 160.691 3.40274 1.19358 0
M  V30 1715 O 159.795 3.41676 2.30935 0
M  V30 1716 H 159.136 0.647944 0.145138 0
M  V30 1717 H 161.666 2.03779 -0.183156 0
M  V30 1718 H 161.676 3.78078 1.53365 0
M  V30 1719 H 160.351 4.13594 0.437385 0
M  V30 1720 H 158.928 3.15672 1.98509 0
M  V30 1721 N 161.113 -0.173488 1.56642 0
M  V30 1722 C 162.063 -1.21941 1.92651 0
M  V30 1723 C 163.047 -1.39912 0.794577 0
M  V30 1724 O 164.239 -1.41919 1.05773 0
M  V30 1725 C 161.368 -2.55935 2.28806 0
M  V30 1726 C 160.454 -2.41667 3.48508 0
M  V30 1727 N 160.845 -1.9711 4.65813 0
M  V30 1728 C 159.143 -2.72499 3.53072 0
M  V30 1729 C 159.844 -1.95253 5.47952 0
M  V30 1730 N 158.82 -2.37575 4.88937 0
M  V30 1731 H 162.622 -0.866581 2.80834 0
M  V30 1732 H 160.136 -0.381776 1.57849 0
M  V30 1733 H 162.133 -3.31511 2.52797 0
M  V30 1734 H 160.793 -2.92022 1.41961 0
M  V30 1735 H 161.804 -1.67481 4.90072 0
M  V30 1736 H 158.481 -3.12639 2.767 0
M  V30 1737 H 159.871 -1.6252 6.51948 0
M  V30 1738 N 162.591 -1.51276 -0.441967 0
M  V30 1739 C 163.554 -1.7167 -1.51862 0
M  V30 1740 C 164.554 -0.586793 -1.49711 0
M  V30 1741 O 165.744 -0.854276 -1.51815 0
M  V30 1742 C 162.876 -1.76889 -2.91416 0
M  V30 1743 H 164.069 -2.67754 -1.35084 0
M  V30 1744 H 161.622 -1.41196 -0.670333 0
M  V30 1745 H 162.357 -0.826026 -3.13604 0
M  V30 1746 H 162.142 -2.59001 -2.94382 0
M  V30 1747 H 163.632 -1.94522 -3.69528 0
M  V30 1748 N 164.069 0.697108 -1.41344 0
M  V30 1749 C 165.297 1.48593 -1.43972 0
M  V30 1750 C 165.712 1.88747 -0.0445612 0
M  V30 1751 O 165.069 1.56682 0.935785 0
M  V30 1752 C 165.12 2.74946 -2.34706 0
M  V30 1753 O 164.841 2.36484 -3.68791 0
M  V30 1754 C 166.342 3.687 -2.46121 0
M  V30 1755 H 163.562 0.457964 -0.490418 0
M  V30 1756 H 166.106 0.858429 -1.8561 0
M  V30 1757 H 164.261 3.33937 -1.9638 0
M  V30 1758 H 164.675 3.17918 -4.17167 0
M  V30 1759 H 166.149 4.54145 -3.13777 0
M  V30 1760 H 166.626 4.13081 -1.49199 0
M  V30 1761 H 167.232 3.15613 -2.85076 0
M  V30 1762 N 165.547 1.27147 0.931209 0
M  V30 1763 C 166.477 1.12081 2.04842 0
M  V30 1764 C 167.458 0.0232364 1.70084 0
M  V30 1765 O 168.643 0.197085 1.93197 0
M  V30 1766 C 165.773 0.76354 3.38803 0
M  V30 1767 C 164.727 1.81396 3.87659 0
M  V30 1768 C 164.053 1.31075 5.18385 0
M  V30 1769 C 165.353 3.21739 4.11438 0
M  V30 1770 H 167.047 2.05537 2.17703 0
M  V30 1771 H 164.593 0.989603 1.04608 0
M  V30 1772 H 166.546 0.644982 4.16435 0
M  V30 1773 H 165.27 -0.206727 3.25945 0
M  V30 1774 H 163.929 1.92136 3.12217 0
M  V30 1775 H 163.577 0.330037 5.01916 0
M  V30 1776 H 163.277 2.013 5.52044 0
M  V30 1777 H 164.801 1.20506 5.98591 0
M  V30 1778 H 166.215 3.14019 4.79651 0
M  V30 1779 H 164.612 3.89644 4.56397 0
M  V30 1780 H 165.682 3.67054 3.16859 0
M  V30 1781 N 167.025 -1.13721 1.09112 0
M  V30 1782 C 168.274 -1.84275 0.82009 0
M  V30 1783 C 168.587 -1.84253 -0.656509 0
M  V30 1784 O 169.793 -2.50668 -1.04296 0
M  V30 1785 C 168.249 -3.30825 1.41714 0
M  V30 1786 C 167.857 -3.39244 2.92605 0
M  V30 1787 C 169.601 -4.06443 1.22492 0
M  V30 1788 C 167.508 -4.80047 3.45411 0
M  V30 1789 H 166.438 -0.690387 0.30312 0
M  V30 1790 H 169.089 -1.28146 1.31343 0
M  V30 1791 H 167.471 -3.86737 0.851498 0
M  V30 1792 H 168.645 -2.93344 3.55367 0
M  V30 1793 H 166.96 -2.77088 3.10823 0
M  V30 1794 H 169.557 -5.10387 1.59402 0
M  V30 1795 H 169.9 -4.15972 0.165299 0
M  V30 1796 H 170.433 -3.56852 1.75788 0
M  V30 1797 H 167.172 -4.75709 4.50978 0
M  V30 1798 H 166.692 -5.26455 2.87411 0
M  V30 1799 H 168.371 -5.48957 3.42425 0
M  V30 1800 N 168.503 -0.877838 -1.30888 0
M  V30 1801 C 169.752 -0.488793 -1.95688 0
M  V30 1802 C 170.065 0.965485 -1.70111 0
M  V30 1803 O 171.271 1.46104 -2.28836 0
M  V30 1804 C 169.727 -0.823201 -3.50359 0
M  V30 1805 C 169.335 -2.29477 -3.84765 0
M  V30 1806 C 171.079 -0.503009 -4.21509 0
M  V30 1807 C 168.986 -2.57118 -5.32583 0
M  V30 1808 H 167.916 -0.179062 -0.732429 0
M  V30 1809 H 170.567 -1.07183 -1.48943 0
M  V30 1810 H 168.949 -0.169331 -3.95638 0
M  V30 1811 H 170.123 -2.99236 -3.5042 0
M  V30 1812 H 168.438 -2.58178 -3.267 0
M  V30 1813 H 171.035 -0.68665 -5.30273 0
M  V30 1814 H 171.378 0.557109 -4.12555 0
M  V30 1815 H 171.911 -1.11376 -3.8189 0
M  V30 1816 H 168.65 -3.61843 -5.4658 0
M  V30 1817 H 168.17 -1.91961 -5.68253 0
M  V30 1818 H 169.849 -2.42251 -5.99936 0
M  V30 1819 N 169.982 1.44106 -0.638065 0
M  V30 1820 C 170.929 2.30715 0.062701 0
M  V30 1821 C 171.899 1.43882 0.829883 0
M  V30 1822 O 173.084 1.72775 0.809532 0
M  V30 1823 C 170.224 3.29258 1.03358 0
M  V30 1824 C 169.337 4.31192 0.26409 0
M  V30 1825 C 168.472 5.16825 1.22741 0
M  V30 1826 C 167.511 6.10462 0.447475 0
M  V30 1827 N 166.648 6.8877 1.36161 0
M  V30 1828 H 171.488 2.90096 -0.681781 0
M  V30 1829 H 169.025 1.42925 -0.347988 0
M  V30 1830 H 170.983 3.84886 1.60992 0
M  V30 1831 H 169.613 2.71562 1.74511 0
M  V30 1832 H 168.665 3.77981 -0.428295 0
M  V30 1833 H 169.977 4.97619 -0.343052 0
M  V30 1834 H 169.131 5.77004 1.87487 0
M  V30 1835 H 167.87 4.50488 1.86847 0
M  V30 1836 H 166.875 5.49386 -0.213433 0
M  V30 1837 H 168.1 6.78837 -0.188968 0
M  V30 1838 H 166.046 6.25096 1.98975 0
M  V30 1839 H 165.963 7.51663 0.808656 0
M  V30 1840 H 167.231 7.53467 1.99769 0
M  V30 1841 N 171.46 0.379036 1.52974 0
M  V30 1842 C 172.685 -0.209353 2.06341 0
M  V30 1843 C 173.11 -1.40583 1.24972 0
M  V30 1844 O 172.468 -1.79246 0.272155 0
M  V30 1845 C 172.516 -0.567786 3.56102 0
M  V30 1846 O 171.62 -1.66318 3.77375 0
M  V30 1847 H 170.961 -0.0272919 0.663439 0
M  V30 1848 H 173.491 0.543536 1.97248 0
M  V30 1849 H 173.501 -0.835003 3.99364 0
M  V30 1850 H 172.176 0.307013 4.14765 0
M  V30 1851 H 170.753 -1.39048 3.46006 0
M  V30 1852 N 172.938 -1.57226 0.108567 0
M  V30 1853 C 174.166 -1.99179 -0.559954 0
M  V30 1854 C 174.581 -0.988022 -1.60884 0
M  V30 1855 O 173.938 0.0205512 -1.82488 0
M  V30 1856 C 173.989 -3.41159 -1.19552 0
M  V30 1857 O 173.71 -4.37694 -0.188577 0
M  V30 1858 C 175.211 -3.98188 -1.94837 0
M  V30 1859 H 172.431 -0.654228 -0.149088 0
M  V30 1860 H 174.975 -2.03598 0.19183 0
M  V30 1861 H 173.13 -3.37711 -1.89815 0
M  V30 1862 H 173.544 -5.20469 -0.649014 0
M  V30 1863 H 175.018 -4.99644 -2.34648 0
M  V30 1864 H 175.495 -3.3675 -2.81951 0
M  V30 1865 H 176.101 -4.0515 -1.2936 0
M  V30 1866 N 174.416 0.165178 -1.56732 0
M  V30 1867 C 175.665 0.879143 -1.81532 0
M  V30 1868 C 175.978 1.83144 -0.686842 0
M  V30 1869 O 177.184 2.58823 -0.819944 0
M  V30 1870 C 175.64 1.61388 -3.21686 0
M  V30 1871 C 175.248 0.704904 -4.4242 0
M  V30 1872 C 176.992 2.3157 -3.55774 0
M  V30 1873 C 174.899 1.44022 -5.73595 0
M  V30 1874 H 173.829 0.332033 -0.676957 0
M  V30 1875 H 176.48 0.132008 -1.83025 0
M  V30 1876 H 174.862 2.40599 -3.14529 0
M  V30 1877 H 176.036 -0.0506815 -4.60772 0
M  V30 1878 H 174.351 0.112419 -4.16248 0
M  V30 1879 H 176.948 2.8719 -4.51028 0
M  V30 1880 H 177.291 3.07201 -2.8095 0
M  V30 1881 H 177.824 1.59297 -3.64513 0
M  V30 1882 H 174.563 0.72612 -6.51466 0
M  V30 1883 H 174.083 2.16898 -5.5921 0
M  V30 1884 H 175.762 1.98606 -6.15764 0
M  V30 1885 N 175.894 1.51508 0.433938 0
M  V30 1886 C 177.305 1.56784 1.01369 0
M  V30 1887 C 177.656 0.393349 1.92217 0
M  V30 1888 O 176.781 -0.489441 2.10792 0
M  V30 1889 C 177.376 2.84144 1.8452 0
M  V30 1890 C 175.935 2.9198 2.37539 0
M  V30 1891 C 175.082 2.51482 1.16843 0
M  V30 1892 H 178.033 1.57236 0.215081 0
M  V30 1893 H 178.054 2.68098 2.70007 0
M  V30 1894 H 177.566 3.69607 1.18373 0
M  V30 1895 H 175.667 2.10955 3.0713 0
M  V30 1896 H 175.78 3.95704 2.70103 0
M  V30 1897 H 174.144 2.04758 1.51481 0
M  V30 1898 H 174.927 3.39293 0.523015 0
M  V30 1899 N 177.372 -0.689602 1.41712 0
M  V30 1900 C 178.621 -1.44534 1.40686 0
M  V30 1901 C 178.934 -1.95588 0.0213352 0
M  V30 1902 O 180.14 -2.71271 -0.111534 0
M  V30 1903 C 178.596 -2.61387 2.47396 0
M  V30 1904 C 178.204 -2.17094 3.91885 0
M  V30 1905 C 179.948 -3.38986 2.55517 0
M  V30 1906 C 177.855 -3.3094 4.90135 0
M  V30 1907 H 176.785 -0.542925 0.52321 0
M  V30 1908 H 179.436 -0.748054 1.6756 0
M  V30 1909 H 177.818 -3.33412 2.13664 0
M  V30 1910 H 178.992 -1.52318 4.34897 0
M  V30 1911 H 177.307 -1.52473 3.8748 0
M  V30 1912 H 179.904 -4.23747 3.26102 0
M  V30 1913 H 180.247 -3.84578 1.59391 0
M  V30 1914 H 180.78 -2.74021 2.8837 0
M  V30 1915 H 177.519 -2.90355 5.87685 0
M  V30 1916 H 177.039 -3.94546 4.51767 0
M  V30 1917 H 178.718 -3.9663 5.11169 0
M  V30 1918 N 178.85 -1.27639 -0.924453 0
M  V30 1919 C 180.098 -1.13941 -1.66918 0
M  V30 1920 C 180.419 0.314589 -1.92446 0
M  V30 1921 O 179.689 1.21964 -1.53303 0
M  V30 1922 H 178.269 -0.418678 -0.618642 0
M  V30 1923 H 180.931 -1.60213 -1.10985 0
M  V30 1924 H 180.027 -1.67094 -2.63602 0
M  V30 1925 N 180.328 1.1314 -1.09713 0
M  V30 1926 C 181.575 1.84484 -0.834987 0
M  V30 1927 C 181.903 1.83689 0.639418 0
M  V30 1928 O 181.158 1.2724 1.4869 0
M  V30 1929 C 181.457 3.32167 -1.3191 0
M  V30 1930 C 181.123 3.53139 -2.80363 0
M  V30 1931 C 179.785 3.58571 -3.20905 0
M  V30 1932 C 182.137 3.60866 -3.76065 0
M  V30 1933 C 179.465 3.69267 -4.55916 0
M  V30 1934 C 181.817 3.73089 -5.10869 0
M  V30 1935 C 180.481 3.76775 -5.50996 0
M  V30 1936 H 179.751 0.675073 -0.305544 0
M  V30 1937 H 182.398 1.33554 -1.37243 0
M  V30 1938 H 180.703 3.85469 -0.701517 0
M  V30 1939 H 182.4 3.85821 -1.09284 0
M  V30 1940 H 178.99 3.49569 -2.47991 0
M  V30 1941 H 183.174 3.55946 -3.45855 0
M  V30 1942 H 178.43 3.70388 -4.86438 0
M  V30 1943 H 182.604 3.78011 -5.84877 0
M  V30 1944 H 180.231 3.84815 -6.55608 0
M  V30 1945 N 181.806 0.884767 1.30421 0
M  V30 1946 C 183.055 0.499164 1.95426 0
M  V30 1947 C 183.368 -0.95645 1.70621 0
M  V30 1948 O 184.574 -1.44889 2.29607 0
M  V30 1949 C 183.03 0.84177 3.49917 0
M  V30 1950 C 182.638 2.31514 3.83543 0
M  V30 1951 C 184.382 0.525355 4.21237 0
M  V30 1952 C 182.289 2.59939 5.31212 0
M  V30 1953 H 181.219 0.182944 0.73147 0
M  V30 1954 H 183.87 1.07971 1.48373 0
M  V30 1955 H 182.252 0.190311 3.95542 0
M  V30 1956 H 183.426 3.0109 3.48829 0
M  V30 1957 H 181.741 2.59907 3.25326 0
M  V30 1958 H 184.338 0.714762 5.29901 0
M  V30 1959 H 184.681 -0.535222 4.12845 0
M  V30 1960 H 185.214 1.134 3.81294 0
M  V30 1961 H 181.953 3.64736 5.44654 0
M  V30 1962 H 181.473 1.94972 5.67227 0
M  V30 1963 H 183.152 2.45429 5.98643 0
M  V30 1964 N 183.284 -1.43765 0.645699 0
M  V30 1965 C 184.512 -2.06253 0.163556 0
M  V30 1966 C 184.927 -1.48352 -1.16778 0
M  V30 1967 O 184.284 -0.611932 -1.71935 0
M  V30 1968 C 184.335 -3.61453 0.0583186 0
M  V30 1969 O 184.056 -4.172 1.33702 0
M  V30 1970 C 185.557 -4.41002 -0.450795 0
M  V30 1971 H 182.777 -0.665413 0.0864077 0
M  V30 1972 H 185.321 -1.84396 0.884222 0
M  V30 1973 H 183.476 -3.82522 -0.612865 0
M  V30 1974 H 183.89 -5.10791 1.19131 0
M  V30 1975 H 185.364 -5.49966 -0.473403 0
M  V30 1976 H 185.841 -4.13488 -1.48068 0
M  V30 1977 H 186.447 -4.24886 0.187637 0
M  V30 1978 N 184.763 -0.387143 -1.52771 0
M  V30 1979 C 185.673 0.456442 -2.30117 0
M  V30 1980 C 186.689 1.07342 -1.36944 0
M  V30 1981 O 187.865 1.07971 -1.70013 0
M  V30 1982 C 184.93 1.56957 -3.09136 0
M  V30 1983 C 183.991 0.977916 -4.18014 0
M  V30 1984 C 183.224 2.038 -4.93256 0
M  V30 1985 O 183.447 3.25271 -4.68567 0
M  V30 1986 O 182.381 1.6565 -5.78657 0
M  V30 1987 H 186.207 -0.17359 -3.03203 0
M  V30 1988 H 183.792 -0.150919 -1.48636 0
M  V30 1989 H 185.674 2.21628 -3.58412 0
M  V30 1990 H 184.349 2.18461 -2.38865 0
M  V30 1991 H 183.256 0.294525 -3.72939 0
M  V30 1992 H 184.589 0.407128 -4.90513 0
M  V30 1993 N 186.241 1.57166 -0.116904 0
M  V30 1994 C 187.174 2.10912 0.871291 0
M  V30 1995 C 188.152 1.025 1.26224 0
M  V30 1996 O 189.336 1.3014 1.36366 0
M  V30 1997 C 186.463 2.6041 2.16574 0
M  V30 1998 C 185.509 3.80687 1.92302 0
M  V30 1999 S 186.342 5.23199 1.14119 0
M  V30 2000 C 187.498 5.76064 2.44748 0
M  V30 2001 H 187.731 2.94401 0.414138 0
M  V30 2002 H 185.264 1.54096 0.096829 0
M  V30 2003 H 187.222 2.89583 2.9095 0
M  V30 2004 H 185.883 1.77106 2.59408 0
M  V30 2005 H 185.076 4.13462 2.8821 0
M  V30 2006 H 184.678 3.5212 1.26047 0
M  V30 2007 H 186.97 5.8566 3.406 0
M  V30 2008 H 187.913 6.74184 2.16521 0
M  V30 2009 H 188.321 5.04117 2.54019 0
M  V30 2010 N 187.719 -0.156864 1.56817 0
M  V30 2011 C 189.135 -0.50916 1.5126 0
M  V30 2012 C 189.335 -1.83897 0.823658 0
M  V30 2013 O 188.391 -2.49469 0.390055 0
M  V30 2014 C 189.704 -0.52857 2.96018 0
M  V30 2015 C 191.252 -0.614771 3.06903 0
M  V30 2016 C 191.727 -0.664938 4.53147 0
M  V30 2017 N 193.218 -0.727433 4.57452 0
M  V30 2018 C 193.953 -0.787067 5.67973 0
M  V30 2019 N 193.449 -0.806649 6.88088 0
M  V30 2020 N 195.242 -0.827195 5.5598 0
M  V30 2021 H 187.393 0.714935 2.00006 0
M  V30 2022 H 189.656 0.259526 0.911784 0
M  V30 2023 H 189.362 0.380154 3.49639 0
M  V30 2024 H 189.236 -1.36998 3.51442 0
M  V30 2025 H 191.623 -1.51392 2.53307 0
M  V30 2026 H 191.704 0.253597 2.5454 0
M  V30 2027 H 191.348 0.230011 5.07379 0
M  V30 2028 H 191.278 -1.54966 5.03282 0
M  V30 2029 H 193.769 -0.719998 3.70978 0
M  V30 2030 H 194.082 -0.853727 7.6807 0
M  V30 2031 H 192.427 -0.774687 6.90669 0
M  V30 2032 H 195.618 -0.808998 4.61056 0
M  V30 2033 H 195.791 -0.870206 6.4213 0
M  V30 2034 N 189.197 -1.51736 -0.425897 0
M  V30 2035 C 190.129 -1.70083 -1.53638 0
M  V30 2036 C 191.142 -0.581349 -1.52066 0
M  V30 2037 O 192.331 -0.856017 -1.56635 0
M  V30 2038 C 189.431 -1.71078 -2.9255 0
M  V30 2039 C 188.604 -2.99795 -3.185 0
M  V30 2040 C 187.663 -2.92825 -4.37196 0
M  V30 2041 O 186.689 -3.66756 -4.35291 0
M  V30 2042 N 187.891 -2.0946 -5.41393 0
M  V30 2043 H 190.656 -2.65882 -1.383 0
M  V30 2044 H 188.217 -1.49765 -0.614988 0
M  V30 2045 H 190.209 -1.63969 -3.69995 0
M  V30 2046 H 188.779 -0.828242 -3.01428 0
M  V30 2047 H 187.999 -3.20684 -2.2925 0
M  V30 2048 H 189.287 -3.84977 -3.32671 0
M  V30 2049 H 188.685 -1.48792 -5.45781 0
M  V30 2050 H 187.242 -2.08221 -6.17647 0
M  V30 2051 N 190.675 0.682077 -1.42076 0
M  V30 2052 C 191.622 1.79578 -1.44984 0
M  V30 2053 C 192.592 1.6332 -0.302614 0
M  V30 2054 O 193.777 1.83978 -0.505633 0
M  V30 2055 C 190.917 3.1756 -1.35091 0
M  V30 2056 C 190.03 3.45156 -2.59791 0
M  V30 2057 C 189.165 4.72826 -2.42093 0
M  V30 2058 C 188.204 4.93433 -3.62202 0
M  V30 2059 N 187.341 6.12338 -3.43491 0
M  V30 2060 H 192.181 1.76427 -2.40161 0
M  V30 2061 H 189.718 0.861376 -1.19242 0
M  V30 2062 H 191.676 3.97287 -1.27354 0
M  V30 2063 H 190.306 3.19854 -0.435133 0
M  V30 2064 H 189.358 2.59736 -2.77923 0
M  V30 2065 H 190.67 3.5628 -3.49094 0
M  V30 2066 H 189.824 5.60631 -2.319 0
M  V30 2067 H 188.563 4.63973 -1.50268 0
M  V30 2068 H 187.568 4.04073 -3.72834 0
M  V30 2069 H 188.793 5.04136 -4.54998 0
M  V30 2070 H 186.739 6.04672 -2.54377 0
M  V30 2071 H 186.656 6.2429 -4.26377 0
M  V30 2072 H 187.924 7.02841 -3.37097 0
M  V30 2073 N 192.153 1.28127 0.917671 0
M  V30 2074 C 193.4 1.15052 1.66641 0
M  V30 2075 C 193.728 -0.301677 1.92146 0
M  V30 2076 O 192.983 -1.23622 1.51711 0
M  V30 2077 C 193.282 1.89018 3.03327 0
M  V30 2078 C 192.948 3.38832 2.97496 0
M  V30 2079 C 191.61 3.79693 2.95613 0
M  V30 2080 C 193.962 4.34378 2.88036 0
M  V30 2081 C 191.29 5.14447 2.82066 0
M  V30 2082 C 193.642 5.69201 2.7603 0
M  V30 2083 C 192.306 6.09343 2.72502 0
M  V30 2084 H 191.576 0.421006 0.609783 0
M  V30 2085 H 194.223 1.58855 1.06945 0
M  V30 2086 H 192.528 1.37752 3.66785 0
M  V30 2087 H 194.225 1.76321 3.60156 0
M  V30 2088 H 190.815 3.06342 2.99754 0
M  V30 2089 H 194.999 4.03775 2.88581 0
M  V30 2090 H 190.255 5.44681 2.77728 0
M  V30 2091 H 194.429 6.42901 2.67678 0
M  V30 2092 H 192.056 7.13712 2.61762 0
M  V30 2093 N 193.631 -1.12557 1.10312 0
M  V30 2094 C 194.563 -2.17971 0.708625 0
M  V30 2095 C 195.576 -1.60806 -0.254027 0
M  V30 2096 O 196.765 -1.78458 -0.0386891 0
M  V30 2097 C 193.865 -3.38891 0.0248198 0
M  V30 2098 C 193.038 -4.25548 1.01132 0
M  V30 2099 C 192.097 -5.24972 0.35924 0
M  V30 2100 O 191.123 -5.60174 1.00965 0
M  V30 2101 N 192.325 -5.73747 -0.882847 0
M  V30 2102 H 195.09 -2.52427 1.61557 0
M  V30 2103 H 192.651 -1.27967 0.991771 0
M  V30 2104 H 194.643 -4.02485 -0.422852 0
M  V30 2105 H 193.213 -3.02596 -0.784514 0
M  V30 2106 H 192.433 -3.58589 1.6373 0
M  V30 2107 H 193.721 -4.80294 1.67914 0
M  V30 2108 H 193.119 -5.4731 -1.43065 0
M  V30 2109 H 191.676 -6.39234 -1.27369 0
M  V30 2110 N 195.109 -0.891671 -1.2995 0
M  V30 2111 C 196.337 -0.52866 -2.00032 0
M  V30 2112 C 196.752 0.884574 -1.66795 0
M  V30 2113 O 196.109 1.5827 -0.908669 0
M  V30 2114 C 196.16 -0.701814 -3.54622 0
M  V30 2115 O 195.881 -2.05942 -3.86678 0
M  V30 2116 C 197.382 -0.342683 -4.41973 0
M  V30 2117 H 194.602 -0.203659 -0.639347 0
M  V30 2118 H 197.146 -1.19881 -1.65677 0
M  V30 2119 H 195.301 -0.0789468 -3.8732 0
M  V30 2120 H 195.715 -2.08291 -4.81368 0
M  V30 2121 H 197.189 -0.514709 -5.49595 0
M  V30 2122 H 197.666 0.71975 -4.33262 0
M  V30 2123 H 198.272 -0.942154 -4.14733 0
M  V30 2124 N 196.587 1.43421 -0.653314 0
M  V30 2125 C 197.864 1.95361 -0.0966581 0
M  V30 2126 C 198.244 1.59461 1.38331 0
M  V30 2127 O 197.592 0.879777 2.10884 0
M  V30 2128 C 197.802 3.47311 -0.342988 0
M  V30 2129 C 199.15 4.23875 -0.24798 0
M  V30 2130 O 200.174 3.55133 -0.275553 0
M  V30 2131 O 199.033 5.4623 -0.171771 0
M  V30 2132 H 196.127 0.826945 0.00956291 0
M  V30 2133 H 198.673 1.5336 -0.726558 0
M  V30 2134 H 197.445 3.66569 -1.36906 0
M  V30 2135 H 197.068 3.9631 0.319975 0
M  V30 2136 N 198.065 0.39524 1.52563 0
M  V30 2137 C 199.481 0.0454682 1.59535 0
M  V30 2138 C 199.681 -1.44056 1.4089 0
M  V30 2139 O 198.737 -2.20579 1.22888 0
M  V30 2140 C 200.05 0.527963 2.96029 0
M  V30 2141 C 201.598 0.484733 3.09224 0
M  V30 2142 C 202.073 0.943512 4.48176 0
M  V30 2143 N 203.564 0.899765 4.54377 0
M  V30 2144 C 204.299 1.22609 5.60138 0
M  V30 2145 N 203.795 1.62319 6.73516 0
M  V30 2146 N 205.588 1.14696 5.50274 0
M  V30 2147 H 197.739 1.36261 1.62931 0
M  V30 2148 H 200.002 0.558887 0.765735 0
M  V30 2149 H 199.708 1.56607 3.14908 0
M  V30 2150 H 199.582 -0.0698056 3.77135 0
M  V30 2151 H 201.969 -0.544298 2.90037 0
M  V30 2152 H 202.05 1.11838 2.30056 0
M  V30 2153 H 201.694 1.9708 4.68104 0
M  V30 2154 H 201.624 0.286817 5.25818 0
M  V30 2155 H 204.115 0.607632 3.72983 0
M  V30 2156 H 204.428 1.85567 7.5019 0
M  V30 2157 H 202.773 1.66211 6.74833 0
M  V30 2158 H 205.964 0.835701 4.6058 0
M  V30 2159 H 206.137 1.40459 6.32594 0
M  V30 2160 N 199.544 -1.57102 0.125237 0
M  V30 2161 C 200.793 -1.94582 -0.531095 0
M  V30 2162 C 201.106 -1.01126 -1.6743 0
M  V30 2163 O 202.312 -1.28097 -2.39381 0
M  V30 2164 C 200.768 -3.45839 -0.996164 0
M  V30 2165 C 200.376 -4.47842 0.118926 0
M  V30 2166 C 202.12 -3.92227 -1.62352 0
M  V30 2167 C 200.027 -5.90284 -0.363192 0
M  V30 2168 H 198.957 -0.726391 -0.20217 0
M  V30 2169 H 201.608 -1.82339 0.206092 0
M  V30 2170 H 199.99 -3.53338 -1.78796 0
M  V30 2171 H 201.164 -4.52018 0.895358 0
M  V30 2172 H 199.479 -4.11243 0.653324 0
M  V30 2173 H 202.076 -4.96069 -1.99548 0
M  V30 2174 H 202.419 -3.32552 -2.50429 0
M  V30 2175 H 202.952 -3.87554 -0.897019 0
M  V30 2176 H 199.691 -6.53728 0.481679 0
M  V30 2177 H 199.211 -5.89515 -1.10597 0
M  V30 2178 H 200.89 -6.41752 -0.822377 0
M  V30 2179 N 201.022 0.148545 -1.56898 0
M  V30 2180 C 202.271 0.85984 -1.82454 0
M  V30 2181 C 202.584 1.82406 -0.706229 0
M  V30 2182 O 203.79 2.57938 -0.847349 0
M  V30 2183 C 202.246 1.57967 -3.2338 0
M  V30 2184 C 201.854 0.65794 -4.43142 0
M  V30 2185 C 203.598 2.27784 -3.58211 0
M  V30 2186 C 201.505 1.3793 -5.75091 0
M  V30 2187 H 200.435 0.324834 -0.68044 0
M  V30 2188 H 203.086 0.112588 -1.83154 0
M  V30 2189 H 201.468 2.37249 -3.17063 0
M  V30 2190 H 202.642 -0.0995497 -4.60692 0
M  V30 2191 H 200.957 0.0682643 -4.16344 0
M  V30 2192 H 203.554 2.8239 -4.54048 0
M  V30 2193 H 203.897 3.04204 -2.84193 0
M  V30 2194 H 204.43 1.55421 -3.66182 0
M  V30 2195 H 201.169 0.656982 -6.52199 0
M  V30 2196 H 200.689 2.10954 -5.61479 0
M  V30 2197 H 202.368 1.92063 -6.17835 0
M  V30 2198 N 202.5 1.5196 0.417844 0
M  V30 2199 C 203.747 1.65591 1.16559 0
M  V30 2200 C 204.075 0.381565 1.90721 0
M  V30 2201 O 203.33 -0.635156 1.85106 0
M  V30 2202 C 203.629 2.82269 2.19223 0
M  V30 2203 C 203.295 4.20819 1.61933 0
M  V30 2204 C 201.957 4.58506 1.46033 0
M  V30 2205 C 204.309 5.07196 1.20008 0
M  V30 2206 C 201.637 5.80257 0.867113 0
M  V30 2207 C 203.989 6.29544 0.621086 0
M  V30 2208 C 202.653 6.65987 0.449144 0
M  V30 2209 H 201.923 0.605939 0.42652 0
M  V30 2210 H 204.57 1.86041 0.45397 0
M  V30 2211 H 202.875 2.56118 2.96498 0
M  V30 2212 H 204.572 2.90012 2.76936 0
M  V30 2213 H 201.162 3.91116 1.7529 0
M  V30 2214 H 205.346 4.7867 1.31105 0
M  V30 2215 H 200.602 6.07124 0.721833 0
M  V30 2216 H 204.776 6.95805 0.287798 0
M  V30 2217 H 202.403 7.60199 -0.012632 0
M  V30 2218 N 203.978 -0.674533 1.42435 0
M  V30 2219 C 205.203 -1.46784 1.46524 0
M  V30 2220 C 205.628 -1.87938 0.078066 0
M  V30 2221 O 204.986 -1.56014 -0.92354 0
M  V30 2222 C 205.034 -2.69307 2.39805 0
M  V30 2223 O 204.138 -3.67587 1.86959 0
M  V30 2224 H 203.479 -0.440959 0.496439 0
M  V30 2225 H 206.009 -0.827326 1.87127 0
M  V30 2226 H 206.019 -3.17374 2.56393 0
M  V30 2227 H 204.694 -2.38692 3.40586 0
M  V30 2228 H 203.271 -3.2662 1.79927 0
M  V30 2229 N 205.456 -1.28612 -0.910864 0
M  V30 2230 C 206.867 -1.14406 -1.47541 0
M  V30 2231 C 207.218 0.264901 -1.94403 0
M  V30 2232 O 206.343 1.15942 -1.82719 0
M  V30 2233 C 206.938 -2.07073 -2.68153 0
M  V30 2234 C 205.497 -1.96923 -3.20778 0
M  V30 2235 C 204.644 -1.98646 -1.93481 0
M  V30 2236 H 207.595 -1.41259 -0.723291 0
M  V30 2237 H 207.616 -1.63642 -3.43514 0
M  V30 2238 H 207.128 -3.09611 -2.34015 0
M  V30 2239 H 205.229 -0.97433 -3.59635 0
M  V30 2240 H 205.342 -2.84026 -3.85832 0
M  V30 2241 H 203.706 -1.43093 -2.10705 0
M  V30 2242 H 204.489 -3.02868 -1.61634 0
M  V30 2243 N 206.934 1.1197 -1.10907 0
M  V30 2244 C 207.844 2.21433 -0.774896 0
M  V30 2245 C 208.86 1.72478 0.229657 0
M  V30 2246 O 210.036 2.01288 0.0672008 0
M  V30 2247 C 207.101 3.4602 -0.216986 0
M  V30 2248 C 206.162 4.09791 -1.27944 0
M  V30 2249 C 205.395 5.28431 -0.748055 0
M  V30 2250 O 205.618 5.68823 0.423833 0
M  V30 2251 O 204.552 5.82644 -1.51027 0
M  V30 2252 H 208.378 2.5242 -1.68873 0
M  V30 2253 H 205.963 1.20399 -0.884555 0
M  V30 2254 H 207.845 4.21304 0.090059 0
M  V30 2255 H 206.52 3.16698 0.669633 0
M  V30 2256 H 205.427 3.36265 -1.63941 0
M  V30 2257 H 206.76 4.4328 -2.13925 0
M  V30 2258 N 208.412 0.89855 1.29475 0
M  V30 2259 C 209.659 0.523882 1.95606 0
M  V30 2260 C 209.987 -0.929608 1.70847 0
M  V30 2261 O 209.242 -1.67401 1.01367 0
M  V30 2262 C 209.541 0.761398 3.49195 0
M  V30 2263 C 209.207 2.19207 3.94029 0
M  V30 2264 C 207.869 2.58326 4.05982 0
M  V30 2265 C 210.221 3.12379 4.17216 0
M  V30 2266 C 207.549 3.898 4.38489 0
M  V30 2267 C 209.901 4.43401 4.51197 0
M  V30 2268 C 208.565 4.82394 4.61359 0
M  V30 2269 H 207.835 0.191702 0.715773 0
M  V30 2270 H 210.482 1.13699 1.54094 0
M  V30 2271 H 208.787 0.0653622 3.91745 0
M  V30 2272 H 210.484 0.450904 3.98457 0
M  V30 2273 H 207.074 1.87846 3.85242 0
M  V30 2274 H 211.258 2.83371 4.07449 0
M  V30 2275 H 206.514 4.19734 4.44559 0
M  V30 2276 H 210.688 5.15623 4.68087 0
M  V30 2277 H 208.315 5.84306 4.86303 0
M  V30 2278 N 209.89 -1.43072 0.660911 0
M  V30 2279 C 210.82 -2.33497 -0.0122829 0
M  V30 2280 C 211.801 -1.49903 -0.803925 0
M  V30 2281 O 212.986 -1.78546 -0.763864 0
M  V30 2282 C 210.116 -3.33363 -0.973994 0
M  V30 2283 C 209.07 -4.27003 -0.291928 0
M  V30 2284 C 208.396 -5.16967 -1.36562 0
M  V30 2285 C 209.696 -5.15816 0.820462 0
M  V30 2286 H 211.39 -2.90038 0.742873 0
M  V30 2287 H 208.936 -1.39461 0.358688 0
M  V30 2288 H 210.889 -3.95524 -1.45392 0
M  V30 2289 H 209.613 -2.75095 -1.7604 0
M  V30 2290 H 208.272 -3.66217 0.167623 0
M  V30 2291 H 207.92 -4.55034 -2.14366 0
M  V30 2292 H 207.62 -5.80441 -0.914454 0
M  V30 2293 H 209.144 -5.82003 -1.84675 0
M  V30 2294 H 210.558 -5.71742 0.422366 0
M  V30 2295 H 208.955 -5.8805 1.19656 0
M  V30 2296 H 210.025 -4.55045 1.67518 0
M  V30 2297 N 211.368 -0.403325 -1.52352 0
M  V30 2298 C 212.784 -0.0539281 -1.59509 0
M  V30 2299 C 212.984 1.43307 -1.41652 0
M  V30 2300 O 212.04 2.19924 -1.24056 0
M  V30 2301 C 213.353 -0.543654 -2.95745 0
M  V30 2302 C 214.901 -0.501125 -3.08962 0
M  V30 2303 C 215.376 -0.967267 -4.47669 0
M  V30 2304 N 216.867 -0.923849 -4.53893 0
M  V30 2305 C 217.602 -1.25578 -5.5948 0
M  V30 2306 N 217.098 -1.65889 -6.72646 0
M  V30 2307 N 218.891 -1.17613 -5.49658 0
M  V30 2308 H 211.042 -1.37123 -1.62206 0
M  V30 2309 H 213.305 -0.56294 -0.76276 0
M  V30 2310 H 213.011 -1.58275 -3.14073 0
M  V30 2311 H 212.885 0.0498042 -3.77167 0
M  V30 2312 H 215.272 0.528909 -2.90321 0
M  V30 2313 H 215.353 -1.13056 -2.2946 0
M  V30 2314 H 214.997 -1.9956 -4.67053 0
M  V30 2315 H 214.927 -0.314698 -5.25659 0
M  V30 2316 H 217.418 -0.627403 -3.72655 0
M  V30 2317 H 217.731 -1.89543 -7.49195 0
M  V30 2318 H 216.076 -1.69787 -6.73942 0
M  V30 2319 H 219.267 -0.860115 -4.6013 0
M  V30 2320 H 219.44 -1.43812 -6.3184 0
M  V30 2321 N 212.846 1.57033 -0.133567 0
M  V30 2322 C 213.756 2.19632 0.824564 0
M  V30 2323 C 214.772 1.17666 1.28182 0
M  V30 2324 O 215.948 1.50193 1.3418 0
M  V30 2325 C 213.013 2.79499 2.05137 0
M  V30 2326 C 212.074 3.96548 1.64464 0
M  V30 2327 C 211.307 4.5355 2.81297 0
M  V30 2328 O 211.53 4.09438 3.97136 0
M  V30 2329 O 210.464 5.44018 2.57542 0
M  V30 2330 H 214.29 3.01991 0.321766 0
M  V30 2331 H 211.875 1.49112 0.0927889 0
M  V30 2332 H 213.757 3.17602 2.7696 0
M  V30 2333 H 212.432 2.00162 2.54395 0
M  V30 2334 H 211.339 3.63186 0.897048 0
M  V30 2335 H 212.672 4.77364 1.19934 0
M  V30 2336 N 214.325 -0.140222 1.56975 0
M  V30 2337 C 215.55 -0.870414 1.88251 0
M  V30 2338 C 215.975 -1.73637 0.723312 0
M  V30 2339 O 215.333 -1.78329 -0.32689 0
M  V30 2340 C 215.381 -1.69737 3.18154 0
M  V30 2341 O 214.485 -2.80229 3.02565 0
M  V30 2342 H 213.826 -0.242025 0.61832 0
M  V30 2343 H 216.356 -0.128999 2.04193 0
M  V30 2344 H 216.366 -2.09099 3.50345 0
M  V30 2345 H 215.041 -1.06152 4.02125 0
M  V30 2346 H 213.618 -2.44224 2.81796 0
M  V30 2347 N 215.803 -1.52179 -0.40978 0
M  V30 2348 C 216.75 -1.75475 -1.49924 0
M  V30 2349 C 217.72 -0.597175 -1.54994 0
M  V30 2350 O 218.905 -0.834655 -1.71575 0
M  V30 2351 C 216.045 -1.9107 -2.87378 0
M  V30 2352 C 215.158 -3.18717 -2.91622 0
M  V30 2353 C 214.293 -3.24747 -4.20372 0
M  V30 2354 C 213.332 -4.46598 -4.18588 0
M  V30 2355 N 212.469 -4.50025 -5.38908 0
M  V30 2356 H 217.309 -2.68458 -1.29361 0
M  V30 2357 H 214.846 -1.33024 -0.627934 0
M  V30 2358 H 216.804 -1.98096 -3.6717 0
M  V30 2359 H 215.434 -1.01469 -3.06437 0
M  V30 2360 H 214.486 -3.20866 -2.04326 0
M  V30 2361 H 215.798 -4.08544 -2.86169 0
M  V30 2362 H 214.952 -3.30841 -5.08556 0
M  V30 2363 H 213.691 -2.32857 -4.28519 0
M  V30 2364 H 212.696 -4.40652 -3.28794 0
M  V30 2365 H 213.921 -5.39783 -4.12081 0
M  V30 2366 H 211.867 -3.61017 -5.47725 0
M  V30 2367 H 211.784 -5.33697 -5.35447 0
M  V30 2368 H 213.052 -4.60347 -6.29048 0
M  V30 2369 N 217.281 0.66697 -1.42791 0
M  V30 2370 C 218.244 1.76211 -1.46568 0
M  V30 2371 C 219.244 1.56896 -0.352196 0
M  V30 2372 O 220.434 1.63044 -0.613364 0
M  V30 2373 C 217.566 3.14935 -1.30494 0
M  V30 2374 H 218.759 1.74247 -2.44086 0
M  V30 2375 H 216.312 0.877342 -1.29354 0
M  V30 2376 H 217.047 3.2252 -0.339301 0
M  V30 2377 H 216.832 3.30359 -2.11199 0
M  V30 2378 H 218.322 3.94821 -1.36038 0
M  V30 2379 N 218.759 1.29093 0.90403 0
M  V30 2380 C 219.689 1.16401 2.02418 0
M  V30 2381 C 220.67 0.0593085 1.69997 0
M  V30 2382 O 221.855 0.238021 1.92736 0
M  V30 2383 C 218.985 0.835233 3.37107 0
M  V30 2384 C 217.939 1.89578 3.83724 0
M  V30 2385 C 217.265 1.42041 5.15489 0
M  V30 2386 C 218.565 3.30394 4.04521 0
M  V30 2387 H 220.259 2.10109 2.13295 0
M  V30 2388 H 217.805 1.01157 1.02486 0
M  V30 2389 H 219.758 0.733169 4.14973 0
M  V30 2390 H 218.482 -0.137543 3.2631 0
M  V30 2391 H 217.141 1.98715 3.08071 0
M  V30 2392 H 216.789 0.436426 5.01103 0
M  V30 2393 H 216.489 2.12964 5.4765 0
M  V30 2394 H 218.013 1.33176 5.959 0
M  V30 2395 H 219.427 3.24123 4.72882 0
M  V30 2396 H 217.824 3.99237 4.48029 0
M  V30 2397 H 218.894 3.73692 3.09002 0
M  V30 2398 N 220.237 -1.11381 1.11499 0
M  V30 2399 C 221.467 -1.86663 0.885464 0
M  V30 2400 C 221.875 -1.80464 -0.568281 0
M  V30 2401 O 221.218 -1.18445 -1.40415 0
M  V30 2402 C 221.28 -3.36337 1.26956 0
M  V30 2403 C 220.944 -3.66304 2.73259 0
M  V30 2404 C 221.941 -3.63733 3.71476 0
M  V30 2405 C 219.626 -3.9529 3.09921 0
M  V30 2406 C 221.62 -3.89725 5.04374 0
M  V30 2407 C 219.307 -4.20941 4.43004 0
M  V30 2408 C 220.305 -4.18147 5.40039 0
M  V30 2409 O 219.993 -4.43153 6.70724 0
M  V30 2410 H 219.725 -0.597114 0.316908 0
M  V30 2411 H 222.279 -1.41782 1.48617 0
M  V30 2412 H 220.509 -3.81826 0.611999 0
M  V30 2413 H 222.198 -3.92986 1.01573 0
M  V30 2414 H 222.964 -3.41389 3.44498 0
M  V30 2415 H 218.843 -3.966 2.35009 0
M  V30 2416 H 222.387 -3.8746 5.80104 0
M  V30 2417 H 218.284 -4.42761 4.69716 0
M  V30 2418 H 219.052 -4.60717 6.76522 0
M  V30 2419 N 221.715 -0.905404 -1.28997 0
M  V30 2420 C 222.992 -0.453513 -1.9027 0
M  V30 2421 C 223.372 1.06721 -1.82137 0
M  V30 2422 O 222.72 1.91159 -1.25182 0
M  V30 2423 C 222.93 -0.974494 -3.35119 0
M  V30 2424 C 224.278 -1.0216 -4.12127 0
M  V30 2425 O 225.302 -0.922557 -3.44046 0
M  V30 2426 O 224.161 -1.17121 -5.33802 0
M  V30 2427 H 221.255 -0.142347 -0.814657 0
M  V30 2428 H 223.801 -0.995642 -1.37423 0
M  V30 2429 H 222.573 -2.01848 -3.35221 0
M  V30 2430 H 222.196 -0.412706 -3.95452 0
M  V30 2431 N 223.193 1.4272 -0.668489 0
M  V30 2432 C 224.141 2.32586 0.0254857 0
M  V30 2433 C 225.135 1.49471 0.797176 0
M  V30 2434 O 226.341 1.65583 0.705853 0
M  V30 2435 H 222.716 0.751514 0.0270339 0
M  V30 2436 H 224.687 2.88823 -0.749936 0
M  V30 2437 C 223.436 3.3397 0.967427 0
M  V30 2438 H 222.759 3.97961 0.383048 0
M  V30 2439 H 224.199 3.9945 1.42181 0
M  V30 2440 C 222.658 2.65744 2.0708 0
M  V30 2441 O 223.188 2.48454 3.15648 0
M  V30 2442 N 221.394 2.2487 1.8407 0
M  V30 2443 H 220.941 2.39132 0.95778 0
M  V30 2444 H 220.899 1.79552 2.58086 0
M  V30 2445 N 224.671 0.411399 1.52136 0
M  V30 2446 C 225.601 -0.404015 2.29978 0
M  V30 2447 C 226.582 -1.04412 1.34284 0
M  V30 2448 O 227.767 -1.0527 1.63192 0
M  V30 2449 C 224.897 -1.5197 3.12286 0
M  V30 2450 C 223.851 -1.00448 4.16046 0
M  V30 2451 C 223.177 -2.21393 4.86712 0
M  V30 2452 C 224.477 -0.0569336 5.22269 0
M  V30 2453 H 226.171 0.245529 2.98392 0
M  V30 2454 H 223.717 0.119525 1.43503 0
M  V30 2455 H 225.67 -2.09715 3.6551 0
M  V30 2456 H 224.394 -2.19716 2.41646 0
M  V30 2457 H 223.053 -0.449421 3.63835 0
M  V30 2458 H 222.701 -2.87699 4.12599 0
M  V30 2459 H 222.401 -1.87571 5.56858 0
M  V30 2460 H 223.925 -2.7974 5.4275 0
M  V30 2461 H 225.339 -0.54325 5.7072 0
M  V30 2462 H 223.736 0.192594 5.99791 0
M  V30 2463 H 224.806 0.887663 4.76706 0
M  V30 2464 N 226.149 -1.5696 0.141893 0
M  V30 2465 C 227.379 -2.00031 -0.516828 0
M  V30 2466 C 227.787 -1.02091 -1.59293 0
M  V30 2467 O 227.13 -0.00909657 -1.83698 0
M  V30 2468 C 227.192 -3.39534 -1.1814 0
M  V30 2469 C 226.856 -4.56313 -0.250513 0
M  V30 2470 C 227.853 -5.17295 0.519839 0
M  V30 2471 C 225.538 -5.02061 -0.154907 0
M  V30 2472 C 227.532 -6.2243 1.3733 0
M  V30 2473 C 225.219 -6.07053 0.702161 0
M  V30 2474 C 226.217 -6.67106 1.46487 0
M  V30 2475 O 225.905 -7.70066 2.30767 0
M  V30 2476 H 225.637 -0.661451 -0.139493 0
M  V30 2477 H 228.191 -2.04086 0.231926 0
M  V30 2478 H 226.421 -3.32302 -1.97769 0
M  V30 2479 H 228.11 -3.66745 -1.73933 0
M  V30 2480 H 228.876 -4.82852 0.45598 0
M  V30 2481 H 224.755 -4.5505 -0.7383 0
M  V30 2482 H 228.299 -6.69233 1.96909 0
M  V30 2483 H 224.196 -6.40923 0.76733 0
M  V30 2484 H 224.964 -7.87264 2.23959 0
M  V30 2485 N 227.627 0.131896 -1.57047 0
M  V30 2486 C 229.038 0.690407 -1.73465 0
M  V30 2487 C 229.389 1.8094 -0.758629 0
M  V30 2488 O 228.514 2.16282 0.0713813 0
M  V30 2489 C 229.109 1.25916 -3.14532 0
M  V30 2490 C 227.668 1.76409 -3.32501 0
M  V30 2491 C 226.815 0.658579 -2.69366 0
M  V30 2492 H 229.766 -0.0939144 -1.58422 0
M  V30 2493 H 229.787 2.12892 -3.15369 0
M  V30 2494 H 229.299 0.444515 -3.85546 0
M  V30 2495 H 227.4 2.60391 -2.66509 0
M  V30 2496 H 227.513 1.88241 -4.4057 0
M  V30 2497 H 225.877 1.08899 -2.30246 0
M  V30 2498 H 226.66 -0.14487 -3.42994 0
M  V30 2499 N 229.106 1.52395 0.401703 0
M  V30 2500 C 230.331 1.70972 1.17403 0
M  V30 2501 C 230.756 0.421615 1.83314 0
M  V30 2502 O 230.114 -0.621564 1.70312 0
M  V30 2503 C 230.162 2.85151 2.20728 0
M  V30 2504 O 229.266 2.51238 3.27037 0
M  V30 2505 H 228.607 0.568927 0.342372 0
M  V30 2506 H 231.137 1.99131 0.469891 0
M  V30 2507 H 231.147 3.10279 2.64936 0
M  V30 2508 H 229.822 3.78603 1.7214 0
M  V30 2509 H 228.399 2.36808 2.88057 0
M  V30 2510 N 230.584 -0.659388 1.43143 0
M  V30 2511 C 232 -0.974337 1.26407 0
M  V30 2512 C 232.2 -2.007 0.179341 0
M  V30 2513 O 231.256 -2.4856 -0.444295 0
M  V30 2514 C 232.569 -1.46447 2.62628 0
M  V30 2515 C 234.117 -1.58144 2.7011 0
M  V30 2516 C 234.592 -2.1055 4.06734 0
M  V30 2517 N 236.083 -2.17861 4.08767 0
M  V30 2518 C 236.818 -2.59519 5.1131 0
M  V30 2519 N 236.314 -3.00518 6.24228 0
M  V30 2520 N 238.107 -2.59404 4.98664 0
M  V30 2521 H 230.258 0.0240528 2.12386 0
M  V30 2522 H 232.521 -0.0518065 0.946583 0
M  V30 2523 H 232.227 -0.780123 3.42939 0
M  V30 2524 H 232.101 -2.44058 2.87603 0
M  V30 2525 H 234.488 -2.25682 1.90136 0
M  V30 2526 H 234.569 -0.589828 2.48907 0
M  V30 2527 H 234.213 -1.43616 4.87172 0
M  V30 2528 H 234.143 -3.10531 4.25298 0
M  V30 2529 H 236.634 -1.88975 3.27257 0
M  V30 2530 H 236.947 -3.31036 6.98309 0
M  V30 2531 H 235.292 -2.98337 6.2771 0
M  V30 2532 H 238.483 -2.26747 4.09516 0
M  V30 2533 H 238.656 -2.91548 5.78709 0
M  V30 2534 N 232.062 -1.29571 -0.897171 0
M  V30 2535 C 233.311 -1.1706 -1.64256 0
M  V30 2536 C 233.624 0.276476 -1.93636 0
M  V30 2537 O 234.83 0.52294 -2.66416 0
M  V30 2538 C 233.286 -2.0475 -2.95982 0
M  V30 2539 C 232.894 -3.54295 -2.74187 0
M  V30 2540 C 234.638 -2.0097 -3.73914 0
M  V30 2541 C 232.545 -4.34081 -4.01656 0
M  V30 2542 H 231.475 -0.43452 -0.616205 0
M  V30 2543 H 234.126 -1.54229 -0.994268 0
M  V30 2544 H 232.508 -1.60452 -3.62038 0
M  V30 2545 H 233.682 -4.06662 -2.1671 0
M  V30 2546 H 231.997 -3.59773 -2.09648 0
M  V30 2547 H 234.594 -2.57838 -4.68427 0
M  V30 2548 H 234.937 -0.990273 -4.0435 0
M  V30 2549 H 235.47 -2.43325 -3.14703 0
M  V30 2550 H 232.209 -5.36671 -3.76384 0
M  V30 2551 H 231.729 -3.86483 -4.58684 0
M  V30 2552 H 233.408 -4.44877 -4.69781 0
M  V30 2553 N 233.54 1.10788 -1.12088 0
M  V30 2554 C 234.789 1.82036 -0.868659 0
M  V30 2555 C 235.102 1.85929 0.607426 0
M  V30 2556 O 236.308 2.53346 0.97613 0
M  V30 2557 C 234.764 3.26951 -1.50435 0
M  V30 2558 C 234.372 3.31367 -3.01496 0
M  V30 2559 C 236.116 4.03053 -1.33225 0
M  V30 2560 C 234.023 4.7072 -3.58017 0
M  V30 2561 H 232.953 0.682108 -0.321318 0
M  V30 2562 H 235.604 1.24618 -1.34694 0
M  V30 2563 H 233.986 3.84343 -0.953735 0
M  V30 2564 H 235.16 2.83819 -3.6302 0
M  V30 2565 H 233.475 2.6875 -3.18061 0
M  V30 2566 H 236.072 5.05981 -1.72878 0
M  V30 2567 H 236.415 4.15387 -0.275529 0
M  V30 2568 H 236.948 3.52066 -1.85188 0
M  V30 2569 H 233.687 4.63585 -4.63432 0
M  V30 2570 H 233.207 5.1865 -3.01268 0
M  V30 2571 H 234.886 5.39685 -3.56859 0
M  V30 2572 N 235.018 0.912232 1.28515 0
M  V30 2573 C 236.264 0.545405 1.95328 0
M  V30 2574 C 236.597 -0.908313 1.71649 0
M  V30 2575 O 235.872 -1.64575 1.03659 0
M  V30 2576 C 236.155 0.853483 3.4984 0
M  V30 2577 C 236.008 2.35982 3.82926 0
M  V30 2578 C 237.327 0.348589 4.38717 0
M  V30 2579 H 234.446 0.199626 0.709449 0
M  V30 2580 H 237.088 1.1412 1.5191 0
M  V30 2581 H 235.238 0.34643 3.86952 0
M  V30 2582 H 236.91 2.93738 3.55691 0
M  V30 2583 H 235.153 2.81543 3.30024 0
M  V30 2584 H 235.824 2.52593 4.90816 0
M  V30 2585 H 238.3 0.78294 4.08668 0
M  V30 2586 H 237.176 0.593242 5.45685 0
M  V30 2587 H 237.437 -0.751049 4.35674 0
M  V30 2588 N 236.496 -1.42363 0.676048 0
M  V30 2589 C 237.721 -2.06377 0.205705 0
M  V30 2590 C 238.146 -1.50463 -1.12883 0
M  V30 2591 O 237.504 -0.623619 -1.70237 0
M  V30 2592 C 237.552 -3.60277 0.152655 0
M  V30 2593 O 236.656 -4.02935 -0.87845 0
M  V30 2594 H 235.997 -0.655588 0.105359 0
M  V30 2595 H 238.527 -1.82475 0.925412 0
M  V30 2596 H 238.537 -4.07993 -0.0230675 0
M  V30 2597 H 237.212 -4.00346 1.12675 0
M  V30 2598 H 235.789 -3.66764 -0.673668 0
M  V30 2599 N 237.974 -0.419461 -1.51915 0
M  V30 2600 C 239.214 0.152336 -2.03832 0
M  V30 2601 C 239.578 1.41501 -1.29775 0
M  V30 2602 O 240.779 2.06591 -1.7197 0
M  V30 2603 C 239.05 0.383812 -3.55333 0
M  V30 2604 S 240.609 0.921577 -4.29013 0
M  V30 2605 H 237.427 0.0402193 -0.709862 0
M  V30 2606 H 240.029 -0.574758 -1.8686 0
M  V30 2607 H 238.733 -0.541794 -4.06808 0
M  V30 2608 H 238.264 1.13849 -3.76566 0
M  V30 2609 H 240.279 2.20108 -4.4471 0
M  V30 2610 N 239.452 1.56882 -0.150215 0
M  V30 2611 C 240.362 2.20494 0.801222 0
M  V30 2612 C 241.378 1.19019 1.26927 0
M  V30 2613 O 242.554 1.51607 1.32579 0
M  V30 2614 C 239.619 2.81659 2.02161 0
M  V30 2615 C 238.68 3.9827 1.60249 0
M  V30 2616 C 237.913 4.56508 2.7647 0
M  V30 2617 O 238.136 4.13627 3.92771 0
M  V30 2618 O 237.07 5.46719 2.51757 0
M  V30 2619 H 240.896 3.02315 0.289717 0
M  V30 2620 H 238.481 1.49202 0.0769684 0
M  V30 2621 H 240.363 3.20522 2.73576 0
M  V30 2622 H 239.038 2.02849 2.52258 0
M  V30 2623 H 237.945 3.64117 0.858477 0
M  V30 2624 H 239.278 4.78609 1.14864 0
M  V30 2625 N 240.93 -0.123565 1.57115 0
M  V30 2626 C 241.84 -1.17074 2.033 0
M  V30 2627 C 242.856 -1.4561 0.952559 0
M  V30 2628 O 244.032 -1.56817 1.26374 0
M  V30 2629 C 241.097 -2.47857 2.42421 0
M  V30 2630 C 240.158 -2.26758 3.64526 0
M  V30 2631 C 239.391 -3.51305 4.01771 0
M  V30 2632 O 239.614 -4.5843 3.39409 0
M  V30 2633 O 238.548 -3.42578 4.94898 0
M  V30 2634 H 242.374 -0.808555 2.92739 0
M  V30 2635 H 239.959 -0.334027 1.45618 0
M  V30 2636 H 241.841 -3.2492 2.68338 0
M  V30 2637 H 240.516 -2.83558 1.5613 0
M  V30 2638 H 239.423 -1.47569 3.43765 0
M  V30 2639 H 240.756 -1.95963 4.51508 0
M  V30 2640 N 242.408 -1.52605 -0.393616 0
M  V30 2641 C 243.356 -1.77688 -1.50099 0
M  V30 2642 C 244.35 -0.644615 -1.56656 0
M  V30 2643 O 245.556 -0.826997 -1.59877 0
M  V30 2644 H 241.931 -0.562159 -0.499481 0
M  V30 2645 H 243.902 -2.7043 -1.26135 0
M  V30 2646 C 242.651 -1.95858 -2.87289 0
M  V30 2647 H 241.974 -2.8241 -2.82992 0
M  V30 2648 H 243.414 -2.174 -3.64024 0
M  V30 2649 C 241.873 -0.729848 -3.28899 0
M  V30 2650 O 242.403 0.0949217 -4.01588 0
M  V30 2651 N 240.609 -0.561283 -2.85128 0
M  V30 2652 H 240.156 -1.23357 -2.26143 0
M  V30 2653 H 240.114 0.2595 -3.13327 0
M  V30 2654 N 243.887 0.651787 -1.4349 0
M  V30 2655 C 245.164 1.40909 -1.35661 0
M  V30 2656 C 245.544 2.11099 -0.00511733 0
M  V30 2657 O 244.892 2.04892 1.0115 0
M  V30 2658 C 245.102 2.3926 -2.54078 0
M  V30 2659 C 246.45 3.03217 -2.97228 0
M  V30 2660 O 247.474 2.49588 -2.54135 0
M  V30 2661 O 246.333 4.00455 -3.71885 0
M  V30 2662 H 243.427 0.629625 -0.536191 0
M  V30 2663 H 245.973 0.678575 -1.55542 0
M  V30 2664 H 244.745 1.86352 -3.44076 0
M  V30 2665 H 244.368 3.1976 -2.36303 0
M  V30 2666 N 245.365 1.30045 0.890287 0
M  V30 2667 C 246.59 1.21598 1.68014 0
M  V30 2668 C 247.015 -0.218678 1.86825 0
M  V30 2669 O 246.373 -1.15756 1.39536 0
M  V30 2670 C 246.421 1.94434 3.03691 0
M  V30 2671 O 245.525 1.2678 3.92429 0
M  V30 2672 H 244.866 0.420856 0.513592 0
M  V30 2673 H 247.396 1.71775 1.11151 0
M  V30 2674 H 247.406 2.03251 3.5377 0
M  V30 2675 H 246.081 2.98777 2.89318 0
M  V30 2676 H 244.658 1.26282 3.50866 0
M  V30 2677 N 246.843 -1.10192 1.12674 0
M  V30 2678 C 248.254 -1.63707 0.897604 0
M  V30 2679 C 248.605 -1.87812 -0.567546 0
M  V30 2680 O 247.73 -1.62196 -1.43253 0
M  V30 2681 C 248.325 -2.974 1.62292 0
M  V30 2682 C 246.884 -3.47772 1.43986 0
M  V30 2683 C 246.031 -2.22332 1.65722 0
M  V30 2684 H 248.982 -0.936587 1.28116 0
M  V30 2685 H 249.003 -3.64986 1.07541 0
M  V30 2686 H 248.515 -2.79824 2.68924 0
M  V30 2687 H 246.616 -3.70487 0.396206 0
M  V30 2688 H 246.729 -4.25723 2.19765 0
M  V30 2689 H 245.093 -2.30599 1.08149 0
M  V30 2690 H 245.876 -2.07285 2.73657 0
M  V30 2691 N 248.321 -0.919034 -1.28029 0
M  V30 2692 C 249.268 -0.410005 -2.27129 0
M  V30 2693 C 250.238 0.518405 -1.57803 0
M  V30 2694 O 251.423 0.439451 -1.8567 0
M  V30 2695 C 248.563 0.339054 -3.4343 0
M  V30 2696 C 247.676 -0.622468 -4.27492 0
M  V30 2697 C 246.811 0.145567 -5.31001 0
M  V30 2698 C 245.85 -0.809226 -6.06727 0
M  V30 2699 N 244.987 -0.0743728 -7.02061 0
M  V30 2700 H 249.827 -1.26011 -2.70047 0
M  V30 2701 H 247.364 -0.632663 -1.328 0
M  V30 2702 H 249.322 0.789586 -4.0966 0
M  V30 2703 H 247.952 1.15346 -3.01488 0
M  V30 2704 H 247.004 -1.19153 -3.61257 0
M  V30 2705 H 248.316 -1.35252 -4.80113 0
M  V30 2706 H 247.47 0.656417 -6.03139 0
M  V30 2707 H 246.209 0.908643 -4.79161 0
M  V30 2708 H 245.214 -1.3314 -5.33436 0
M  V30 2709 H 246.439 -1.57194 -6.60656 0
M  V30 2710 H 244.385 0.670616 -6.52563 0
M  V30 2711 H 244.302 -0.744157 -7.52329 0
M  V30 2712 H 245.57 0.416109 -7.78389 0
M  V30 2713 N 249.799 1.42003 -0.683588 0
M  V30 2714 C 251.045 2.01712 -0.209825 0
M  V30 2715 C 251.378 1.53968 1.18353 0
M  V30 2716 O 250.653 0.745661 1.79639 0
M  V30 2717 C 250.936 3.59202 -0.254197 0
M  V30 2718 C 250.789 4.17102 -1.68363 0
M  V30 2719 C 252.108 4.38344 0.392709 0
M  V30 2720 H 249.227 0.732891 -0.0777189 0
M  V30 2721 H 251.869 1.68909 -0.87004 0
M  V30 2722 H 250.019 3.87278 0.307954 0
M  V30 2723 H 251.691 3.99946 -2.29871 0
M  V30 2724 H 249.934 3.72597 -2.22157 0
M  V30 2725 H 250.605 5.26249 -1.6663 0
M  V30 2726 H 253.081 4.16011 -0.0859162 0
M  V30 2727 H 251.957 5.47901 0.331063 0
M  V30 2728 H 252.218 4.16887 1.47164 0
M  V30 2729 N 251.277 0.427512 1.51691 0
M  V30 2730 C 252.224 -0.388867 2.275 0
M  V30 2731 C 253.194 -1.02532 1.30677 0
M  V30 2732 O 254.379 -1.0461 1.59566 0
M  V30 2733 C 251.519 -1.48954 3.11298 0
M  V30 2734 C 250.632 -0.872194 4.23104 0
M  V30 2735 C 249.767 -1.94709 4.94228 0
M  V30 2736 C 248.806 -1.30766 5.97969 0
M  V30 2737 N 247.943 -2.32349 6.62539 0
M  V30 2738 H 252.783 0.263997 2.96828 0
M  V30 2739 H 250.32 0.142033 1.46413 0
M  V30 2740 H 252.278 -2.13887 3.58201 0
M  V30 2741 H 250.908 -2.11217 2.44105 0
M  V30 2742 H 249.96 -0.111419 3.80237 0
M  V30 2743 H 251.272 -0.365264 4.97461 0
M  V30 2744 H 250.426 -2.67327 5.44629 0
M  V30 2745 H 249.165 -2.48773 4.1948 0
M  V30 2746 H 248.17 -0.566902 5.4687 0
M  V30 2747 H 249.395 -0.774483 6.74669 0
M  V30 2748 H 247.341 -2.85511 5.90609 0
M  V30 2749 H 247.258 -1.8652 7.3263 0
M  V30 2750 H 248.526 -3.04481 7.17574 0
M  V30 2751 N 252.755 -1.56801 0.158532 0
M  V30 2752 C 253.718 -2.16138 -0.762705 0
M  V30 2753 C 254.718 -1.1061 -1.16713 0
M  V30 2754 O 255.908 -1.36191 -1.08617 0
M  V30 2755 C 253.04 -2.73386 -2.03649 0
M  V30 2756 H 254.233 -2.98886 -0.246354 0
M  V30 2757 H 251.786 -1.56035 -0.0909744 0
M  V30 2758 H 252.521 -1.94335 -2.59623 0
M  V30 2759 H 252.306 -3.50601 -1.75559 0
M  V30 2760 H 253.796 -3.19065 -2.6942 0
M  V30 2761 N 254.233 0.115231 -1.57178 0
M  V30 2762 C 255.51 0.852873 -1.76027 0
M  V30 2763 C 255.89 1.97892 -0.73498 0
M  V30 2764 O 255.238 2.27232 0.24036 0
M  V30 2765 C 255.448 1.36608 -3.21153 0
M  V30 2766 C 256.796 1.81692 -3.83762 0
M  V30 2767 O 257.82 1.46278 -3.24779 0
M  V30 2768 O 256.679 2.47104 -4.87444 0
M  V30 2769 H 253.773 0.405296 -0.720877 0
M  V30 2770 H 256.319 0.0986785 -1.69413 0
M  V30 2771 H 255.091 0.558357 -3.87296 0
M  V30 2772 H 254.714 2.18287 -3.3232 0
M  V30 2773 N 255.711 1.52812 0.385517 0
M  V30 2774 C 256.674 1.77188 1.45386 0
M  V30 2775 C 257.674 0.641953 1.4743 0
M  V30 2776 O 258.864 0.910033 1.4854 0
M  V30 2777 C 255.996 1.87582 2.8465 0
M  V30 2778 H 257.189 2.72583 1.25054 0
M  V30 2779 H 254.742 1.43586 0.617467 0
M  V30 2780 H 255.477 0.941849 3.10322 0
M  V30 2781 H 255.262 2.69748 2.84567 0
M  V30 2782 H 256.752 2.08102 3.62054 0
M  V30 2783 N 257.189 -0.644168 1.43834 0
M  V30 2784 C 258.099 -1.78563 1.52159 0
M  V30 2785 C 259.115 -1.69147 0.408069 0
M  V30 2786 O 260.291 -1.90156 0.663524 0
M  V30 2787 C 257.356 -3.14888 1.45073 0
M  V30 2788 C 256.417 -3.36034 2.6717 0
M  V30 2789 C 255.65 -4.65855 2.60413 0
M  V30 2790 O 255.873 -5.45805 1.65689 0
M  V30 2791 O 254.807 -4.88918 3.5106 0
M  V30 2792 H 258.633 -1.74494 2.48567 0
M  V30 2793 H 256.218 -0.80378 1.25935 0
M  V30 2794 H 258.1 -3.96179 1.43597 0
M  V30 2795 H 256.775 -3.19528 0.518037 0
M  V30 2796 H 255.682 -2.54472 2.74217 0
M  V30 2797 H 257.015 -3.36247 3.59442 0
M  V30 2798 N 258.668 -1.30515 -0.883378 0
M  V30 2799 C 259.615 -1.17032 -1.98927 0
M  V30 2800 C 260.585 -0.0594241 -1.65994 0
M  V30 2801 O 261.77 -0.229895 -1.8941 0
M  V30 2802 C 258.91 -0.869777 -3.33959 0
M  V30 2803 C 258.023 -2.06271 -3.79574 0
M  V30 2804 C 257.158 -1.70011 -5.03259 0
M  V30 2805 C 256.197 -2.8579 -5.41286 0
M  V30 2806 N 255.334 -2.49816 -6.56153 0
M  V30 2807 H 260.174 -2.1164 -2.09792 0
M  V30 2808 H 257.711 -1.05296 -1.02719 0
M  V30 2809 H 259.669 -0.676138 -4.11685 0
M  V30 2810 H 258.299 0.0394332 -3.22776 0
M  V30 2811 H 257.351 -2.36755 -2.97744 0
M  V30 2812 H 258.663 -2.92971 -4.03694 0
M  V30 2813 H 257.817 -1.47032 -5.88614 0
M  V30 2814 H 256.556 -0.804829 -4.81013 0
M  V30 2815 H 255.561 -3.09434 -4.54456 0
M  V30 2816 H 256.786 -3.76008 -5.65504 0
M  V30 2817 H 254.732 -1.62795 -6.35479 0
M  V30 2818 H 254.649 -3.30048 -6.8015 0
M  V30 2819 H 255.917 -2.30197 -7.44735 0
M  V30 2820 N 260.146 1.09593 -1.13257 0
M  V30 2821 C 261.393 1.81734 -0.893257 0
M  V30 2822 C 261.721 1.8563 0.580656 0
M  V30 2823 O 260.976 1.31906 1.44566 0
M  V30 2824 C 261.275 3.27802 -1.42411 0
M  V30 2825 C 260.941 3.44041 -2.91456 0
M  V30 2826 C 259.603 3.48181 -3.3215 0
M  V30 2827 C 261.955 3.48719 -3.87356 0
M  V30 2828 C 259.283 3.54575 -4.67433 0
M  V30 2829 C 261.635 3.56648 -5.2248 0
M  V30 2830 C 260.299 3.59055 -5.62704 0
M  V30 2831 H 259.569 0.665011 -0.326866 0
M  V30 2832 H 262.216 1.2912 -1.41422 0
M  V30 2833 H 260.521 3.83042 -0.823795 0
M  V30 2834 H 262.218 3.82149 -1.21503 0
M  V30 2835 H 258.808 3.41502 -2.58987 0
M  V30 2836 H 262.992 3.44763 -3.57004 0
M  V30 2837 H 258.248 3.54725 -4.97976 0
M  V30 2838 H 262.422 3.59212 -5.96607 0
M  V30 2839 H 260.049 3.63763 -6.67518 0
M  V30 2840 N 261.624 0.925811 1.2754 0
M  V30 2841 C 262.587 0.428129 2.25166 0
M  V30 2842 C 263.587 -0.452261 1.54309 0
M  V30 2843 O 264.777 -0.253608 1.72344 0
M  V30 2844 C 261.909 -0.384749 3.38722 0
M  V30 2845 H 263.102 1.29066 2.70706 0
M  V30 2846 H 260.655 0.706323 1.3943 0
M  V30 2847 H 261.39 -1.26618 2.98561 0
M  V30 2848 H 261.175 0.246454 3.91325 0
M  V30 2849 H 262.665 -0.723389 4.11287 0
M  V30 2850 N 263.102 -1.41638 0.69111 0
M  V30 2851 C 264.032 -2.3347 0.037248 0
M  V30 2852 C 265.013 -1.51575 -0.771947 0
M  V30 2853 O 266.198 -1.80126 -0.72582 0
M  V30 2854 C 263.328 -3.35354 -0.903064 0
M  V30 2855 C 262.282 -4.27526 -0.201288 0
M  V30 2856 C 261.608 -5.19747 -1.25565 0
M  V30 2857 C 262.908 -5.13959 0.929689 0
M  V30 2858 H 264.602 -2.88397 0.804227 0
M  V30 2859 H 262.148 -1.38669 0.388189 0
M  V30 2860 H 264.101 -3.98519 -1.36969 0
M  V30 2861 H 262.825 -2.78767 -1.70166 0
M  V30 2862 H 261.484 -3.65779 0.245265 0
M  V30 2863 H 261.132 -4.59479 -2.04666 0
M  V30 2864 H 260.832 -5.8225 -0.791128 0
M  V30 2865 H 262.356 -5.85789 -1.72288 0
M  V30 2866 H 263.77 -5.70718 0.543546 0
M  V30 2867 H 262.167 -5.85379 1.32103 0
M  V30 2868 H 263.237 -4.51389 1.77133 0
M  V30 2869 N 264.58 -0.43555 -1.51462 0
M  V30 2870 C 265.51 0.367376 -2.30592 0
M  V30 2871 C 266.491 1.02263 -1.35928 0
M  V30 2872 O 267.676 1.02661 -1.64847 0
M  V30 2873 C 264.806 1.46983 -3.14664 0
M  V30 2874 C 263.76 0.938161 -4.17591 0
M  V30 2875 C 263.086 2.13622 -4.90173 0
M  V30 2876 C 264.386 -0.0261621 -5.22293 0
M  V30 2877 H 266.08 -0.292969 -2.97963 0
M  V30 2878 H 263.626 -0.14234 -1.43295 0
M  V30 2879 H 265.579 2.03873 -3.688 0
M  V30 2880 H 264.303 2.15843 -2.4511 0
M  V30 2881 H 262.962 0.391481 -3.64504 0
M  V30 2882 H 262.61 2.81098 -4.17124 0
M  V30 2883 H 262.31 1.78688 -5.59772 0
M  V30 2884 H 263.834 2.7107 -5.47132 0
M  V30 2885 H 265.248 0.452384 -5.71512 0
M  V30 2886 H 263.645 -0.287992 -5.99409 0
M  V30 2887 H 264.715 -0.963391 -4.75233 0
M  V30 2888 N 266.058 1.56714 -0.166846 0
M  V30 2889 C 266.988 2.20754 0.760913 0
M  V30 2890 C 267.969 1.16178 1.24244 0
M  V30 2891 O 269.154 1.44592 1.29641 0
M  V30 2892 C 266.284 2.84478 1.99223 0
M  V30 2893 C 265.238 3.95053 1.64672 0
M  V30 2894 C 264.564 4.45805 2.95232 0
M  V30 2895 C 265.864 5.14865 0.878155 0
M  V30 2896 H 267.558 2.98537 0.22713 0
M  V30 2897 H 265.104 1.43596 0.107805 0
M  V30 2898 H 267.057 3.27951 2.64624 0
M  V30 2899 H 265.781 2.04056 2.55007 0
M  V30 2900 H 264.44 3.52228 1.01641 0
M  V30 2901 H 264.088 3.62181 3.49047 0
M  V30 2902 H 263.788 5.204 2.7287 0
M  V30 2903 H 265.312 4.91962 3.6167 0
M  V30 2904 H 266.726 5.55059 1.43466 0
M  V30 2905 H 265.123 5.95348 0.753738 0
M  V30 2906 H 266.193 4.84735 -0.126377 0
M  V30 2907 N 267.536 -0.106894 1.57237 0
M  V30 2908 C 268.483 -1.13049 2.01217 0
M  V30 2909 C 269.453 -1.40471 0.886403 0
M  V30 2910 O 270.638 -1.52133 1.15153 0
M  V30 2911 C 267.778 -2.4487 2.43172 0
M  V30 2912 C 266.891 -2.24281 3.69218 0
M  V30 2913 C 266.026 -3.49417 4.00101 0
M  V30 2914 C 265.065 -3.24038 5.19294 0
M  V30 2915 N 264.202 -4.41409 5.45988 0
M  V30 2916 H 269.042 -0.748456 2.88448 0
M  V30 2917 H 266.579 -0.358054 1.42676 0
M  V30 2918 H 268.537 -3.21786 2.65537 0
M  V30 2919 H 267.167 -2.80944 1.58967 0
M  V30 2920 H 266.219 -1.38224 3.54398 0
M  V30 2921 H 267.531 -2.01512 4.56283 0
M  V30 2922 H 266.685 -4.34746 4.2318 0
M  V30 2923 H 265.424 -3.75229 3.11535 0
M  V30 2924 H 264.429 -2.37102 4.96047 0
M  V30 2925 H 265.654 -2.99584 6.09447 0
M  V30 2926 H 263.6 -4.67319 4.60379 0
M  V30 2927 H 263.517 -4.21788 6.274 0
M  V30 2928 H 264.785 -5.27836 5.73593 0
M  V30 2929 N 269.014 -1.53014 -0.377408 0
M  V30 2930 C 270.239 -1.72818 -1.14668 0
M  V30 2931 C 270.664 -0.450725 -1.8262 0
M  V30 2932 O 270.022 0.59439 -1.7128 0
M  V30 2933 C 270.07 -2.88627 -2.16164 0
M  V30 2934 O 269.174 -2.56409 -3.22998 0
M  V30 2935 H 268.515 -0.574301 -0.333278 0
M  V30 2936 H 271.045 -1.99853 -0.438152 0
M  V30 2937 H 271.055 -3.14455 -2.59966 0
M  V30 2938 H 269.73 -3.81294 -1.66095 0
M  V30 2939 H 268.307 -2.4136 -2.84253 0
M  V30 2940 N 270.492 0.636531 -1.44174 0
M  V30 2941 C 271.455 1.73063 -1.50273 0
M  V30 2942 C 272.455 1.56113 -0.385397 0
M  V30 2943 O 273.645 1.61707 -0.64781 0
M  V30 2944 C 270.777 3.12096 -1.37145 0
M  V30 2945 H 271.97 1.69031 -2.47727 0
M  V30 2946 H 269.523 0.849706 -1.31186 0
M  V30 2947 H 270.258 3.21728 -0.407636 0
M  V30 2948 H 270.043 3.25805 -2.18159 0
M  V30 2949 H 271.533 3.91846 -1.44382 0
M  V30 2950 N 271.97 1.30982 0.876444 0
M  V30 2951 C 272.933 1.18054 1.96459 0
M  V30 2952 C 273.933 0.109399 1.60427 0
M  V30 2953 O 275.123 0.358173 1.70478 0
M  V30 2954 C 272.255 0.810616 3.31122 0
M  V30 2955 H 273.448 2.14735 2.09354 0
M  V30 2956 H 271.001 1.145 1.06392 0
M  V30 2957 H 271.736 -0.155322 3.23928 0
M  V30 2958 H 271.521 1.58481 3.58645 0
M  V30 2959 H 273.011 0.743876 4.10921 0
M  V30 2960 N 273.449 -1.08991 1.13837 0
M  V30 2961 C 274.396 -2.15748 0.819835 0
M  V30 2962 C 275.366 -1.64636 -0.220026 0
M  V30 2963 O 276.551 -1.90582 -0.0912757 0
M  V30 2964 C 273.691 -3.4382 0.296913 0
M  V30 2965 C 272.804 -4.0881 1.39636 0
M  V30 2966 C 271.939 -5.24655 0.831314 0
M  V30 2967 C 270.978 -5.81575 1.90886 0
M  V30 2968 N 270.115 -6.88774 1.36142 0
M  V30 2969 H 274.955 -2.42338 1.73426 0
M  V30 2970 H 272.492 -1.18935 0.865613 0
M  V30 2971 H 274.45 -4.17193 -0.0244339 0
M  V30 2972 H 273.08 -3.17535 -0.580628 0
M  V30 2973 H 272.132 -3.33258 1.83422 0
M  V30 2974 H 273.444 -4.47141 2.21058 0
M  V30 2975 H 272.598 -6.04942 0.461515 0
M  V30 2976 H 271.337 -4.87698 -0.013932 0
M  V30 2977 H 270.342 -4.99946 2.28767 0
M  V30 2978 H 271.567 -6.20592 2.75758 0
M  V30 2979 H 269.513 -6.53788 0.538254 0
M  V30 2980 H 269.43 -7.25898 2.11208 0
M  V30 2981 H 270.698 -7.72806 1.01933 0
M  V30 2982 N 274.927 -0.932562 -1.27047 0
M  V30 2983 C 275.874 -0.434072 -2.26681 0
M  V30 2984 C 276.844 0.501639 -1.58344 0
M  V30 2985 O 278.029 0.419734 -1.86126 0
M  V30 2986 C 275.169 0.30261 -3.43771 0
M  V30 2987 C 274.282 -0.667774 -4.26808 0
M  V30 2988 C 273.417 0.0892393 -5.31125 0
M  V30 2989 C 272.456 -0.873532 -6.05835 0
M  V30 2990 N 271.593 -0.148832 -7.01942 0
M  V30 2991 H 276.433 -1.28868 -2.68695 0
M  V30 2992 H 273.97 -0.646713 -1.32121 0
M  V30 2993 H 275.928 0.746092 -4.10474 0
M  V30 2994 H 274.558 1.12142 -3.02695 0
M  V30 2995 H 273.61 -1.22978 -3.59973 0
M  V30 2996 H 274.922 -1.40337 -4.78651 0
M  V30 2997 H 274.076 0.592409 -6.03801 0
M  V30 2998 H 272.815 0.85777 -4.80097 0
M  V30 2999 H 271.82 -1.38791 -5.31994 0
M  V30 3000 H 273.045 -1.64193 -6.58952 0
M  V30 3001 H 270.991 0.601365 -6.53238 0
M  V30 3002 H 270.908 -0.82391 -7.51497 0
M  V30 3003 H 272.176 0.333527 -7.78786 0
M  V30 3004 N 276.405 1.4127 -0.698611 0
M  V30 3005 C 277.353 2.32588 -0.023855 0
M  V30 3006 C 278.347 1.51128 0.765292 0
M  V30 3007 O 279.553 1.67043 0.670571 0
M  V30 3008 H 275.928 0.751918 0.0110871 0
M  V30 3009 H 277.899 2.87167 -0.811031 0
M  V30 3010 C 276.648 3.35947 0.896369 0
M  V30 3011 H 275.971 3.98684 0.298548 0
M  V30 3012 H 277.411 4.02376 1.33676 0
M  V30 3013 C 275.87 2.70076 2.01396 0
M  V30 3014 O 276.4 2.55093 3.10307 0
M  V30 3015 N 274.606 2.28724 1.79259 0
M  V30 3016 H 274.153 2.4111 0.906841 0
M  V30 3017 H 274.111 1.84986 2.54219 0
M  V30 3018 N 277.883 0.443576 1.51229 0
M  V30 3019 C 278.831 -0.37904 2.29491 0
M  V30 3020 C 279.825 -1.0153 1.35603 0
M  V30 3021 O 281.031 -0.94955 1.52917 0
M  V30 3022 H 277.406 -0.141053 0.738653 0
M  V30 3023 H 279.377 0.301799 2.9687 0
M  V30 3024 C 278.126 -1.46426 3.15364 0
M  V30 3025 H 277.449 -0.984037 3.87501 0
M  V30 3026 H 278.889 -2.01297 3.7317 0
M  V30 3027 C 277.348 -2.45099 2.31146 0
M  V30 3028 O 277.878 -3.49773 1.9754 0
M  V30 3029 N 276.084 -2.16139 1.94249 0
M  V30 3030 H 275.631 -1.31044 2.21777 0
M  V30 3031 H 275.589 -2.82398 1.38198 0
M  V30 3032 N 279.361 -1.56624 0.175154 0
M  V30 3033 C 280.607 -1.9729 -0.469506 0
M  V30 3034 C 280.94 -1.06128 -1.62636 0
M  V30 3035 O 280.215 -0.109183 -1.94193 0
M  V30 3036 C 280.498 -3.47375 -0.948804 0
M  V30 3037 C 280.351 -4.49317 0.208491 0
M  V30 3038 C 281.67 -4.00652 -1.82116 0
M  V30 3039 H 278.789 -0.717317 -0.16919 0
M  V30 3040 H 281.431 -1.88184 0.262062 0
M  V30 3041 H 279.581 -3.55267 -1.57219 0
M  V30 3042 H 281.253 -4.53482 0.845682 0
M  V30 3043 H 279.496 -4.25121 0.863395 0
M  V30 3044 H 280.167 -5.51741 -0.169059 0
M  V30 3045 H 282.643 -3.95416 -1.2956 0
M  V30 3046 H 281.519 -5.06075 -2.12554 0
M  V30 3047 H 281.78 -3.44699 -2.7683 0
M  V30 3048 N 280.839 0.0985539 -1.57292 0
M  V30 3049 C 282.25 0.653457 -1.74891 0
M  V30 3050 C 282.601 1.7929 -0.796838 0
M  V30 3051 O 281.726 2.16385 0.0254886 0
M  V30 3052 C 282.321 1.19216 -3.17133 0
M  V30 3053 C 280.88 1.69316 -3.36168 0
M  V30 3054 C 280.027 0.601294 -2.70702 0
M  V30 3055 H 282.978 -0.127497 -1.58187 0
M  V30 3056 H 282.999 2.06154 -3.19814 0
M  V30 3057 H 282.511 0.362635 -3.86402 0
M  V30 3058 H 280.612 2.5468 -2.71972 0
M  V30 3059 H 280.725 1.78853 -4.44464 0
M  V30 3060 H 279.089 1.0399 -2.32504 0
M  V30 3061 H 279.872 -0.217592 -3.4261 0
M  V30 3062 N 282.317 1.53212 0.369288 0
M  V30 3063 C 283.563 1.69466 1.11397 0
M  V30 3064 C 283.896 0.443257 1.89074 0
M  V30 3065 O 283.171 -0.559386 1.86282 0
M  V30 3066 C 283.454 2.9422 2.07621 0
M  V30 3067 C 283.307 4.29508 1.33577 0
M  V30 3068 C 284.626 3.14565 3.07794 0
M  V30 3069 H 281.745 0.616667 0.403597 0
M  V30 3070 H 284.387 1.85845 0.395179 0
M  V30 3071 H 282.537 2.80387 2.68916 0
M  V30 3072 H 284.209 4.55147 0.750955 0
M  V30 3073 H 282.452 4.29088 0.637618 0
M  V30 3074 H 283.123 5.12926 2.03989 0
M  V30 3075 H 285.599 3.2756 2.56601 0
M  V30 3076 H 284.475 4.03297 3.72348 0
M  V30 3077 H 284.736 2.29675 3.77759 0
M  V30 3078 N 283.795 -0.628877 1.44509 0
M  V30 3079 C 284.725 -1.75187 1.54376 0
M  V30 3080 C 285.706 -1.65411 0.396618 0
M  V30 3081 O 286.891 -1.84137 0.617031 0
M  V30 3082 C 284.021 -3.13725 1.48976 0
M  V30 3083 C 282.975 -3.38291 2.62189 0
M  V30 3084 C 282.301 -4.76883 2.41841 0
M  V30 3085 C 283.601 -3.30632 4.04326 0
M  V30 3086 H 285.295 -1.67187 2.48373 0
M  V30 3087 H 282.841 -0.802909 1.19538 0
M  V30 3088 H 284.794 -3.92064 1.54478 0
M  V30 3089 H 283.518 -3.22515 0.514961 0
M  V30 3090 H 282.177 -2.62334 2.56079 0
M  V30 3091 H 281.825 -4.82378 1.42548 0
M  V30 3092 H 281.525 -4.94278 3.17747 0
M  V30 3093 H 283.049 -5.57449 2.49165 0
M  V30 3094 H 284.463 -3.98873 4.11793 0
M  V30 3095 H 282.86 -3.59561 4.80454 0
M  V30 3096 H 283.93 -2.28404 4.27738 0
M  V30 3097 N 285.273 -1.31445 -0.869486 0
M  V30 3098 C 286.522 -1.20517 -1.61736 0
M  V30 3099 C 286.835 0.235341 -1.94179 0
M  V30 3100 O 288.041 0.466312 -2.67465 0
M  V30 3101 C 286.497 -2.10982 -2.91573 0
M  V30 3102 C 286.105 -3.60032 -2.66611 0
M  V30 3103 C 287.849 -2.08856 -3.69567 0
M  V30 3104 C 285.756 -4.42503 -3.92358 0
M  V30 3105 H 284.686 -0.447493 -0.606849 0
M  V30 3106 H 287.337 -1.56303 -0.96133 0
M  V30 3107 H 285.719 -1.68095 -3.58553 0
M  V30 3108 H 286.893 -4.11167 -2.08035 0
M  V30 3109 H 285.208 -3.64139 -2.0197 0
M  V30 3110 H 287.805 -2.67716 -4.62852 0
M  V30 3111 H 288.148 -1.07582 -4.02159 0
M  V30 3112 H 288.681 -2.49945 -3.09471 0
M  V30 3113 H 285.42 -5.44533 -3.64916 0
M  V30 3114 H 284.94 -3.96125 -4.50383 0
M  V30 3115 H 286.619 -4.54741 -4.60238 0
M  V30 3116 N 286.751 1.08385 -1.14413 0
M  V30 3117 C 287.684 2.14642 -0.774871 0
M  V30 3118 C 288.662 1.60761 0.243876 0
M  V30 3119 O 289.846 1.88031 0.132883 0
M  V30 3120 C 286.973 3.38366 -0.150491 0
M  V30 3121 C 286.019 4.10997 -1.13945 0
M  V30 3122 S 286.852 4.63797 -2.67679 0
M  V30 3123 C 288.008 5.90808 -2.06631 0
M  V30 3124 H 288.241 2.45633 -1.67487 0
M  V30 3125 H 285.774 1.20498 -0.96538 0
M  V30 3126 H 287.732 4.09996 0.203334 0
M  V30 3127 H 286.393 3.05572 0.72694 0
M  V30 3128 H 285.586 4.99783 -0.65059 0
M  V30 3129 H 285.188 3.4528 -1.43727 0
M  V30 3130 H 287.48 6.62411 -1.4219 0
M  V30 3131 H 288.423 6.4439 -2.93542 0
M  V30 3132 H 288.831 5.4383 -1.51357 0
M  V30 3133 N 288.23 0.939286 1.26551 0
M  V30 3134 C 289.478 0.58469 1.93457 0
M  V30 3135 C 289.799 -0.878774 1.74076 0
M  V30 3136 O 289.069 -1.62421 1.09528 0
M  V30 3137 H 287.649 0.21325 0.715914 0
M  V30 3138 H 290.311 1.1942 1.54029 0
M  V30 3139 H 289.407 0.800849 3.0165 0
M  V30 3140 N 289.708 -1.40897 0.706093 0
M  V30 3141 C 290.671 -2.29131 0.0562841 0
M  V30 3142 C 291.671 -1.44901 -0.697166 0
M  V30 3143 O 292.861 -1.65926 -0.530484 0
M  V30 3144 C 289.993 -3.27957 -0.93043 0
M  V30 3145 H 291.186 -2.88091 0.833284 0
M  V30 3146 H 288.739 -1.4906 0.470192 0
M  V30 3147 H 289.474 -2.73997 -1.73482 0
M  V30 3148 H 289.259 -3.90124 -0.393166 0
M  V30 3149 H 290.749 -3.94049 -1.38256 0
M  V30 3150 N 291.186 -0.45159 -1.50991 0
M  V30 3151 C 292.411 0.110667 -2.07105 0
M  V30 3152 C 292.836 1.3446 -1.31538 0
M  V30 3153 O 292.194 1.77743 -0.357365 0
M  V30 3154 C 292.242 0.397238 -3.58405 0
M  V30 3155 O 291.346 1.48124 -3.84881 0
M  V30 3156 H 290.687 -0.00439271 -0.663985 0
M  V30 3157 H 293.217 -0.637026 -1.9443 0
M  V30 3158 H 293.227 0.64351 -4.02893 0
M  V30 3159 H 291.902 -0.504553 -4.12828 0
M  V30 3160 H 290.479 1.22381 -3.52246 0
M  V30 3161 N 292.664 1.56529 -0.183458 0
M  V30 3162 C 293.574 2.22144 0.754272 0
M  V30 3163 C 294.59 1.21684 1.24374 0
M  V30 3164 O 295.766 1.54385 1.29333 0
M  V30 3165 C 292.831 2.85884 1.96141 0
M  V30 3166 C 291.892 4.01579 1.51765 0
M  V30 3167 C 291.125 4.6227 2.66725 0
M  V30 3168 O 291.348 4.21865 3.83909 0
M  V30 3169 O 290.282 5.51936 2.40104 0
M  V30 3170 H 294.108 3.02861 0.225527 0
M  V30 3171 H 291.693 1.49331 0.0453032 0
M  V30 3172 H 293.575 3.26253 2.66715 0
M  V30 3173 H 292.25 2.08154 2.47899 0
M  V30 3174 H 291.157 3.65856 0.781049 0
M  V30 3175 H 292.49 4.80938 1.04686 0
M  V30 3176 N 294.142 -0.090211 1.57342 0
M  V30 3177 C 295.105 -1.09335 2.01441 0
M  V30 3178 C 296.105 -1.32666 0.908641 0
M  V30 3179 O 297.295 -1.28697 1.174 0
M  V30 3180 C 294.427 -2.44136 2.3793 0
M  V30 3181 H 295.62 -0.713662 2.91285 0
M  V30 3182 H 293.173 -0.335404 1.52659 0
M  V30 3183 H 293.908 -2.86972 1.51055 0
M  V30 3184 H 293.693 -2.28548 3.18603 0
M  V30 3185 H 295.183 -3.16277 2.72688 0
M  V30 3186 N 295.62 -1.53406 -0.361157 0
M  V30 3187 C 296.53 -1.83122 -1.4664 0
M  V30 3188 C 297.546 -0.719943 -1.58407 0
M  V30 3189 O 298.722 -1.01046 -1.74218 0
M  V30 3190 C 295.787 -2.01891 -2.81853 0
M  V30 3191 C 294.848 -3.25784 -2.79577 0
M  V30 3192 C 294.081 -3.43648 -4.0834 0
M  V30 3193 O 294.304 -2.65714 -5.0473 0
M  V30 3194 O 293.238 -4.37018 -4.13883 0
M  V30 3195 H 297.064 -2.7703 -1.24451 0
M  V30 3196 H 294.649 -1.38841 -0.551678 0
M  V30 3197 H 296.531 -2.15782 -3.61962 0
M  V30 3198 H 295.206 -1.11173 -3.0401 0
M  V30 3199 H 294.113 -3.17312 -1.98151 0
M  V30 3200 H 295.446 -4.16439 -2.62373 0
M  V30 3201 N 297.098 0.621204 -1.44841 0
M  V30 3202 C 298.061 1.71459 -1.521 0
M  V30 3203 C 299.061 1.55696 -0.401933 0
M  V30 3204 O 300.251 1.61011 -0.664925 0
M  V30 3205 C 297.383 3.10624 -1.40447 0
M  V30 3206 H 298.576 1.66394 -2.49506 0
M  V30 3207 H 296.129 0.835745 -1.3208 0
M  V30 3208 H 296.864 3.21277 -0.441737 0
M  V30 3209 H 296.649 3.23473 -2.21602 0
M  V30 3210 H 298.139 3.90293 -1.4853 0
M  V30 3211 N 298.576 1.31904 0.862503 0
M  V30 3212 C 299.822 1.22197 1.61851 0
M  V30 3213 C 300.155 -0.217641 1.92977 0
M  V30 3214 O 299.43 -1.15264 1.56666 0
M  V30 3215 C 299.713 2.07378 2.94391 0
M  V30 3216 C 299.566 3.59678 2.70096 0
M  V30 3217 C 300.885 1.92891 3.95577 0
M  V30 3218 H 298.004 0.445255 0.587296 0
M  V30 3219 H 300.646 1.6177 0.99651 0
M  V30 3220 H 298.796 1.73758 3.47477 0
M  V30 3221 H 300.468 4.03472 2.23625 0
M  V30 3222 H 298.711 3.82735 2.04197 0
M  V30 3223 H 299.382 4.14595 3.64438 0
M  V30 3224 H 301.858 2.22327 3.51724 0
M  V30 3225 H 300.734 2.54781 4.86187 0
M  V30 3226 H 300.995 0.894315 4.3296 0
M  V30 3227 N 300.054 -1.07777 1.14986 0
M  V30 3228 C 301.001 -2.14867 0.842672 0
M  V30 3229 C 301.971 -1.6486 -0.202552 0
M  V30 3230 O 303.156 -1.90668 -0.0710568 0
M  V30 3231 C 300.296 -3.43486 0.333363 0
M  V30 3232 C 299.409 -4.07306 1.43965 0
M  V30 3233 C 298.544 -5.23744 0.886914 0
M  V30 3234 C 297.583 -5.79517 1.97043 0
M  V30 3235 N 296.72 -6.87291 1.4344 0
M  V30 3236 H 301.56 -2.40485 1.75986 0
M  V30 3237 H 299.097 -1.1801 0.878179 0
M  V30 3238 H 301.055 -4.17195 0.0198163 0
M  V30 3239 H 299.685 -3.18133 -0.546916 0
M  V30 3240 H 298.737 -3.31293 1.86946 0
M  V30 3241 H 300.049 -4.44771 2.25788 0
M  V30 3242 H 299.203 -6.04419 0.525651 0
M  V30 3243 H 297.942 -4.87685 0.0377957 0
M  V30 3244 H 296.947 -4.97491 2.34057 0
M  V30 3245 H 298.172 -6.17632 2.82325 0
M  V30 3246 H 296.118 -6.5318 0.607567 0
M  V30 3247 H 296.035 -7.23617 2.18895 0
M  V30 3248 H 297.303 -7.71682 1.10124 0
M  V30 3249 N 301.532 -0.945985 -1.26051 0
M  V30 3250 C 302.462 -0.477172 -2.28572 0
M  V30 3251 C 303.443 0.472032 -1.63419 0
M  V30 3252 O 304.628 0.372853 -1.90587 0
M  V30 3253 C 301.758 0.253975 -3.4637 0
M  V30 3254 C 300.712 -0.609135 -4.23643 0
M  V30 3255 C 300.038 0.252252 -5.34105 0
M  V30 3256 C 301.338 -1.8829 -4.8718 0
M  V30 3257 H 303.032 -1.33402 -2.68038 0
M  V30 3258 H 300.578 -0.642904 -1.28852 0
M  V30 3259 H 302.531 0.593016 -4.17207 0
M  V30 3260 H 301.255 1.145 -3.05871 0
M  V30 3261 H 299.914 -0.931138 -3.54578 0
M  V30 3262 H 299.562 1.14278 -4.89846 0
M  V30 3263 H 299.262 -0.32188 -5.86718 0
M  V30 3264 H 300.786 0.586454 -6.07777 0
M  V30 3265 H 302.2 -1.61081 -5.50205 0
M  V30 3266 H 300.597 -2.40199 -5.49931 0
M  V30 3267 H 301.667 -2.59134 -4.09851 0
M  V30 3268 N 303.011 1.40521 -0.713556 0
M  V30 3269 C 304.258 2.00923 -0.25219 0
M  V30 3270 C 304.586 1.56571 1.15395 0
M  V30 3271 O 303.841 0.775874 1.79663 0
M  V30 3272 C 304.14 3.56317 -0.278 0
M  V30 3273 C 303.806 4.20246 -1.63415 0
M  V30 3274 C 302.468 4.37422 -2.00538 0
M  V30 3275 C 304.82 4.55923 -2.52554 0
M  V30 3276 C 302.148 4.87558 -3.2635 0
M  V30 3277 C 304.5 5.07458 -3.77716 0
M  V30 3278 C 303.164 5.22843 -4.14959 0
M  V30 3279 H 302.434 0.735231 -0.0922829 0
M  V30 3280 H 305.081 1.68161 -0.916188 0
M  V30 3281 H 303.386 3.88976 0.469567 0
M  V30 3282 H 305.083 4.00883 0.0967819 0
M  V30 3283 H 301.673 4.07263 -1.33546 0
M  V30 3284 H 305.857 4.42291 -2.25149 0
M  V30 3285 H 301.113 4.97654 -3.55176 0
M  V30 3286 H 305.287 5.34041 -4.4696 0
M  V30 3287 H 302.914 5.61454 -5.12516 0
M  V30 3288 N 304.489 0.459591 1.5075 0
M  V30 3289 C 305.452 -0.329093 2.26825 0
M  V30 3290 C 306.452 -0.930481 1.31144 0
M  V30 3291 O 307.642 -0.801453 1.54669 0
M  V30 3292 C 304.774 -1.46768 3.07688 0
M  V30 3293 H 305.967 0.337924 2.9799 0
M  V30 3294 H 303.52 0.213336 1.54837 0
M  V30 3295 H 304.255 -2.17009 2.40993 0
M  V30 3296 H 304.04 -1.04238 3.77991 0
M  V30 3297 H 305.53 -2.02433 3.65254 0
M  V30 3298 N 305.967 -1.56429 0.191757 0
M  V30 3299 C 306.915 -2.20273 -0.747174 0
M  V30 3300 C 307.909 -1.17288 -1.22229 0
M  V30 3301 O 309.115 -1.35441 -1.18557 0
M  V30 3302 H 305.49 -0.705885 -0.259289 0
M  V30 3303 H 307.461 -2.97826 -0.184963 0
M  V30 3304 C 306.21 -2.87356 -1.95759 0
M  V30 3305 H 305.533 -3.66341 -1.60106 0
M  V30 3306 H 306.973 -3.3547 -2.59299 0
M  V30 3307 C 305.432 -1.88213 -2.79423 0
M  V30 3308 O 305.962 -1.38033 -3.7724 0
M  V30 3309 N 304.168 -1.56516 -2.44849 0
M  V30 3310 H 303.715 -1.97516 -1.65364 0
M  V30 3311 H 303.673 -0.904369 -3.01112 0
M  V30 3312 N 307.445 0.0818655 -1.57387 0
M  V30 3313 C 308.673 0.796108 -1.9097 0
M  V30 3314 C 309.088 1.71626 -0.786757 0
M  V30 3315 O 308.445 1.80908 0.240513 0
M  V30 3316 C 308.496 1.59829 -3.24248 0
M  V30 3317 O 308.217 0.715131 -4.32224 0
M  V30 3318 C 309.718 2.41442 -3.7178 0
M  V30 3319 H 306.938 0.22691 -0.631469 0
M  V30 3320 H 309.482 0.0551439 -2.04426 0
M  V30 3321 H 307.637 2.29163 -3.12351 0
M  V30 3322 H 308.051 1.27205 -5.08841 0
M  V30 3323 H 309.525 2.932 -4.67694 0
M  V30 3324 H 310.002 3.2051 -3.00283 0
M  V30 3325 H 310.608 1.77283 -3.86589 0
M  V30 3326 N 308.923 1.53595 0.353017 0
M  V30 3327 C 310.153 1.74058 1.11299 0
M  V30 3328 C 310.561 0.475205 1.83135 0
M  V30 3329 O 309.904 -0.562344 1.74881 0
M  V30 3330 C 309.966 2.85994 2.17825 0
M  V30 3331 C 309.63 4.25923 1.65647 0
M  V30 3332 C 310.627 5.07829 1.11383 0
M  V30 3333 C 308.312 4.72377 1.7078 0
M  V30 3334 C 310.306 6.34285 0.629439 0
M  V30 3335 C 307.993 5.98808 1.21953 0
M  V30 3336 C 308.991 6.79594 0.681265 0
M  V30 3337 O 308.679 8.03651 0.200248 0
M  V30 3338 H 308.411 0.585327 0.338183 0
M  V30 3339 H 310.965 2.01186 0.413927 0
M  V30 3340 H 309.195 2.54368 2.91262 0
M  V30 3341 H 310.884 2.94515 2.79313 0
M  V30 3342 H 311.65 4.73107 1.06746 0
M  V30 3343 H 307.529 4.0956 2.11617 0
M  V30 3344 H 311.073 6.97288 0.208636 0
M  V30 3345 H 306.97 6.33026 1.26287 0
M  V30 3346 H 307.738 8.1788 0.318416 0
M  V30 3347 N 310.401 -0.613514 1.45168 0
M  V30 3348 C 311.331 -1.7354 1.56225 0
M  V30 3349 C 312.312 -1.64981 0.41414 0
M  V30 3350 O 313.497 -1.83472 0.636526 0
M  V30 3351 C 310.627 -3.12128 1.52295 0
M  V30 3352 C 309.581 -3.35491 2.65762 0
M  V30 3353 C 308.907 -4.74291 2.46885 0
M  V30 3354 C 310.207 -3.26325 4.0781 0
M  V30 3355 H 311.901 -1.64543 2.50132 0
M  V30 3356 H 309.447 -0.790185 1.20383 0
M  V30 3357 H 311.4 -3.90404 1.58628 0
M  V30 3358 H 310.124 -3.2195 0.549139 0
M  V30 3359 H 308.783 -2.59603 2.58847 0
M  V30 3360 H 308.431 -4.80839 1.47657 0
M  V30 3361 H 308.131 -4.9088 3.22972 0
M  V30 3362 H 309.655 -5.54775 2.55063 0
M  V30 3363 H 311.069 -3.94483 4.16 0
M  V30 3364 H 309.466 -3.54445 4.8424 0
M  V30 3365 H 310.536 -2.23855 4.30136 0
M  V30 3366 N 311.879 -1.3236 -0.855495 0
M  V30 3367 C 312.842 -1.21164 -1.94556 0
M  V30 3368 C 313.842 -0.134908 -1.60233 0
M  V30 3369 O 315.032 -0.385249 -1.69887 0
M  V30 3370 C 312.164 -0.863192 -3.29791 0
M  V30 3371 H 313.357 -2.18038 -2.05911 0
M  V30 3372 H 310.91 -1.16179 -1.04557 0
M  V30 3373 H 311.645 0.103769 -3.24134 0
M  V30 3374 H 311.43 -1.64166 -3.56078 0
M  V30 3375 H 312.92 -0.809156 -4.09686 0
M  V30 3376 N 313.357 1.07166 -1.15556 0
M  V30 3377 C 314.287 2.16403 -0.877046 0
M  V30 3378 C 315.268 1.69217 0.173111 0
M  V30 3379 O 316.453 1.94181 0.027084 0
M  V30 3380 C 313.583 3.45349 -0.367632 0
M  V30 3381 C 312.537 4.05995 -1.35468 0
M  V30 3382 C 311.863 5.30045 -0.704038 0
M  V30 3383 C 313.163 4.45804 -2.72132 0
M  V30 3384 H 314.857 2.39959 -1.79053 0
M  V30 3385 H 312.403 1.15325 -0.862331 0
M  V30 3386 H 314.356 4.21095 -0.160317 0
M  V30 3387 H 313.08 3.21385 0.581326 0
M  V30 3388 H 311.739 3.32296 -1.54839 0
M  V30 3389 H 311.387 5.02373 0.251128 0
M  V30 3390 H 311.087 5.71579 -1.36277 0
M  V30 3391 H 312.611 6.08495 -0.50654 0
M  V30 3392 H 314.025 5.12671 -2.56595 0
M  V30 3393 H 312.422 4.98296 -3.34397 0
M  V30 3394 H 313.492 3.57083 -3.28054 0
M  V30 3395 N 314.835 0.952656 1.25548 0
M  V30 3396 C 316.251 0.656769 1.4546 0
M  V30 3397 C 316.451 -0.78633 1.85524 0
M  V30 3398 O 315.507 -1.56183 1.98402 0
M  V30 3399 C 316.82 1.62801 2.52817 0
M  V30 3400 C 318.368 1.63897 2.66659 0
M  V30 3401 C 318.843 2.5978 3.77198 0
M  V30 3402 N 320.334 2.58133 3.84606 0
M  V30 3403 C 321.069 3.29003 4.69621 0
M  V30 3404 N 320.565 4.09339 5.58939 0
M  V30 3405 N 322.358 3.179 4.63569 0
M  V30 3406 H 314.509 1.88526 0.978344 0
M  V30 3407 H 316.772 0.810815 0.491206 0
M  V30 3408 H 316.478 2.65869 2.30232 0
M  V30 3409 H 316.352 1.38898 3.50695 0
M  V30 3410 H 318.739 0.615481 2.8861 0
M  V30 3411 H 318.82 1.91858 1.69187 0
M  V30 3412 H 318.464 3.62254 3.55997 0
M  V30 3413 H 318.394 2.29105 4.7415 0
M  V30 3414 H 320.885 1.99809 3.20757 0
M  V30 3415 H 321.198 4.6034 6.20731 0
M  V30 3416 H 319.543 4.13438 5.58654 0
M  V30 3417 H 322.734 2.54612 3.92798 0
M  V30 3418 H 322.907 3.73398 5.29602 0
M  V30 3419 N 316.313 -1.40141 0.720998 0
M  V30 3420 C 317.559 -2.01084 0.263231 0
M  V30 3421 C 317.892 -1.57052 -1.14229 0
M  V30 3422 O 317.167 -0.793027 -1.77599 0
M  V30 3423 C 317.45 -3.58401 0.349344 0
M  V30 3424 C 317.303 -4.12491 1.79363 0
M  V30 3425 C 318.622 -4.39231 -0.276351 0
M  V30 3426 H 315.741 -0.730572 0.0971228 0
M  V30 3427 H 318.383 -1.66543 0.914518 0
M  V30 3428 H 316.533 -3.87958 -0.205165 0
M  V30 3429 H 318.205 -3.93711 2.40394 0
M  V30 3430 H 316.448 -3.66576 2.31958 0
M  V30 3431 H 317.119 -5.21646 1.80524 0
M  V30 3432 H 319.595 -4.15637 0.196184 0
M  V30 3433 H 318.471 -5.48586 -0.185681 0
M  V30 3434 H 318.732 -4.20643 -1.36059 0
M  V30 3435 N 317.792 -0.46758 -1.50504 0
M  V30 3436 C 318.755 0.317059 -2.26996 0
M  V30 3437 C 319.755 0.923513 -1.31635 0
M  V30 3438 O 320.945 0.793239 -1.55091 0
M  V30 3439 C 318.077 1.45134 -3.08462 0
M  V30 3440 H 319.27 -0.353723 -2.97807 0
M  V30 3441 H 316.823 -0.221545 -1.54722 0
M  V30 3442 H 317.558 2.15728 -2.4214 0
M  V30 3443 H 317.343 1.02232 -3.78538 0
M  V30 3444 H 318.833 2.00493 -3.66323 0
M  V30 3445 N 319.27 1.56325 -0.20005 0
M  V30 3446 C 320.5 2.01811 0.442232 0
M  V30 3447 C 320.908 1.07932 1.55394 0
M  V30 3448 O 320.251 0.0772685 1.83537 0
M  V30 3449 C 320.313 3.43685 1.05457 0
M  V30 3450 C 319.977 4.56928 0.0809833 0
M  V30 3451 C 320.974 5.15009 -0.711471 0
M  V30 3452 C 318.659 5.0229 -0.0315364 0
M  V30 3453 C 320.653 6.16904 -1.60336 0
M  V30 3454 C 318.34 6.04028 -0.926981 0
M  V30 3455 C 319.338 6.6121 -1.71146 0
M  V30 3456 O 319.026 7.60971 -2.59189 0
M  V30 3457 H 318.758 0.666173 0.114848 0
M  V30 3458 H 321.312 2.03085 -0.307511 0
M  V30 3459 H 319.542 3.39413 1.85299 0
M  V30 3460 H 321.231 3.72948 1.60201 0
M  V30 3461 H 321.997 4.80827 -0.634873 0
M  V30 3462 H 317.876 4.57476 0.568902 0
M  V30 3463 H 321.42 6.61464 -2.21611 0
M  V30 3464 H 317.317 6.37634 -1.00468 0
M  V30 3465 H 318.085 7.7841 -2.53023 0
M  V30 3466 N 320.748 -0.0735177 1.57428 0
M  V30 3467 C 321.995 -0.772999 1.87166 0
M  V30 3468 C 322.323 -1.77665 0.791551 0
M  V30 3469 O 321.578 -1.94541 -0.212636 0
M  V30 3470 C 321.877 -1.51799 3.23561 0
M  V30 3471 C 321.543 -0.654484 4.46125 0
M  V30 3472 C 320.205 -0.416511 4.79394 0
M  V30 3473 C 322.557 -0.0555862 5.2117 0
M  V30 3474 C 319.885 0.429869 5.85123 0
M  V30 3475 C 322.237 0.778239 6.27795 0
M  V30 3476 C 320.901 1.0261 6.59566 0
M  V30 3477 H 320.171 -0.282861 0.684888 0
M  V30 3478 H 322.818 -0.0338272 1.9147 0
M  V30 3479 H 321.123 -2.32932 3.1504 0
M  V30 3480 H 322.82 -2.06397 3.43804 0
M  V30 3481 H 319.41 -0.850091 4.20085 0
M  V30 3482 H 323.594 -0.226558 4.95783 0
M  V30 3483 H 318.85 0.630665 6.08139 0
M  V30 3484 H 323.024 1.24906 6.85107 0
M  V30 3485 H 320.651 1.68371 7.4132 0
M  V30 3486 N 322.226 -1.5378 -0.344866 0
M  V30 3487 C 323.174 -1.82373 -1.4437 0
M  V30 3488 C 324.168 -0.694128 -1.54526 0
M  V30 3489 O 325.374 -0.877442 -1.57165 0
M  V30 3490 H 321.749 -0.577765 -0.481344 0
M  V30 3491 H 323.72 -2.74306 -1.17468 0
M  V30 3492 C 322.469 -2.04898 -2.80913 0
M  V30 3493 H 321.792 -2.9127 -2.73865 0
M  V30 3494 H 323.232 -2.28871 -3.56923 0
M  V30 3495 C 321.691 -0.834116 -3.26411 0
M  V30 3496 O 322.221 -0.0328885 -4.01687 0
M  V30 3497 N 320.427 -0.65171 -2.83198 0
M  V30 3498 H 319.974 -1.30489 -2.22104 0
M  V30 3499 H 319.932 0.159686 -3.13994 0
M  V30 3500 N 323.704 0.605807 -1.45491 0
M  V30 3501 C 324.614 1.74466 -1.56839 0
M  V30 3502 C 325.63 1.68006 -0.452772 0
M  V30 3503 O 326.806 1.8833 -0.713708 0
M  V30 3504 C 323.871 3.10931 -1.53371 0
M  V30 3505 C 322.932 3.28832 -2.75986 0
M  V30 3506 C 322.165 4.58787 -2.72673 0
M  V30 3507 O 322.388 5.4122 -1.80102 0
M  V30 3508 O 321.322 4.79438 -3.63899 0
M  V30 3509 H 325.148 1.67843 -2.53106 0
M  V30 3510 H 322.733 0.770108 -1.28022 0
M  V30 3511 H 324.615 3.92233 -1.54051 0
M  V30 3512 H 323.29 3.18042 -0.602572 0
M  V30 3513 H 322.197 2.47112 -2.80867 0
M  V30 3514 H 323.53 3.26599 -3.68231 0
M  V30 3515 N 325.182 1.32811 0.848464 0
M  V30 3516 C 326.112 1.24882 1.97299 0
M  V30 3517 C 327.093 0.131357 1.69592 0
M  V30 3518 O 328.278 0.319553 1.91553 0
M  V30 3519 C 325.408 0.97746 3.33261 0
M  V30 3520 C 324.362 2.05682 3.75338 0
M  V30 3521 C 323.688 1.63777 5.09 0
M  V30 3522 C 324.988 3.47254 3.90144 0
M  V30 3523 H 326.682 2.18966 2.04191 0
M  V30 3524 H 324.228 1.05413 0.981029 0
M  V30 3525 H 326.181 0.908513 4.1149 0
M  V30 3526 H 324.905 0.000980011 3.266 0
M  V30 3527 H 323.564 2.11603 2.99366 0
M  V30 3528 H 323.212 0.648569 4.98801 0
M  V30 3529 H 322.912 2.36 5.38124 0
M  V30 3530 H 324.436 1.5833 5.89715 0
M  V30 3531 H 325.85 3.43888 4.58709 0
M  V30 3532 H 324.247 4.1788 4.30693 0
M  V30 3533 H 325.317 3.86462 2.92874 0
M  V30 3534 N 326.66 -1.06551 1.16123 0
M  V30 3535 C 327.937 -1.76097 0.85142 0
M  V30 3536 C 328.317 -2.00802 -0.6513 0
M  V30 3537 O 327.665 -1.63302 -1.59827 0
M  V30 3538 C 327.875 -3.06384 1.67122 0
M  V30 3539 C 329.223 -3.80585 1.88255 0
M  V30 3540 O 330.247 -3.16218 1.63966 0
M  V30 3541 O 329.106 -4.96212 2.2899 0
M  V30 3542 H 326.2 -0.765102 0.313923 0
M  V30 3543 H 328.746 -1.12844 1.26745 0
M  V30 3544 H 327.518 -2.84071 2.69108 0
M  V30 3545 H 327.141 -3.77371 1.25206 0
M  V30 3546 N 328.138 -0.959301 -1.25041 0
M  V30 3547 C 329.366 -0.633949 -1.96948 0
M  V30 3548 C 329.781 0.794916 -1.7125 0
M  V30 3549 O 329.138 1.53231 -0.991287 0
M  V30 3550 C 329.189 -0.888805 -3.50403 0
M  V30 3551 O 328.91 -2.26149 -3.75218 0
M  V30 3552 C 330.411 -0.576482 -4.39536 0
M  V30 3553 H 327.631 -0.237263 -0.627652 0
M  V30 3554 H 330.175 -1.28495 -1.59089 0
M  V30 3555 H 328.33 -0.284145 -3.86357 0
M  V30 3556 H 328.744 -2.33514 -4.6965 0
M  V30 3557 H 330.218 -0.805314 -5.46094 0
M  V30 3558 H 330.695 0.489075 -4.36468 0
M  V30 3559 H 331.301 -1.16067 -4.09156 0
M  V30 3560 N 329.616 1.39756 -0.72842 0
M  V30 3561 C 330.846 2.04651 -0.283117 0
M  V30 3562 C 331.254 1.5502 1.08469 0
M  V30 3563 O 330.597 0.707343 1.69536 0
M  V30 3564 C 330.659 3.58947 -0.199309 0
M  V30 3565 C 330.323 4.31525 -1.5045 0
M  V30 3566 C 331.32 4.5861 -2.44894 0
M  V30 3567 C 329.005 4.70195 -1.76698 0
M  V30 3568 C 330.999 5.23366 -3.63822 0
M  V30 3569 C 328.686 5.3468 -2.95906 0
M  V30 3570 C 329.684 5.61198 -3.89289 0
M  V30 3571 O 329.372 6.24347 -5.06404 0
M  V30 3572 H 329.104 0.664777 -0.122666 0
M  V30 3573 H 331.658 1.79913 -0.990987 0
M  V30 3574 H 329.888 3.82556 0.56461 0
M  V30 3575 H 331.577 4.0534 0.213125 0
M  V30 3576 H 332.343 4.29187 -2.25883 0
M  V30 3577 H 328.222 4.48916 -1.04859 0
M  V30 3578 H 331.766 5.4398 -4.36728 0
M  V30 3579 H 327.663 5.63524 -3.14819 0
M  V30 3580 H 328.431 6.42842 -5.06652 0
M  V30 3581 N 331.094 0.475555 1.50254 0
M  V30 3582 C 332.057 -0.305016 2.27161 0
M  V30 3583 C 333.057 -0.916519 1.32123 0
M  V30 3584 O 334.247 -0.785003 1.5551 0
M  V30 3585 C 331.379 -1.43496 3.09227 0
M  V30 3586 H 332.572 0.369511 2.97615 0
M  V30 3587 H 330.125 0.229747 1.54602 0
M  V30 3588 H 330.86 -2.14441 2.43281 0
M  V30 3589 H 330.645 -1.00223 3.79075 0
M  V30 3590 H 332.135 -1.98548 3.67381 0
M  V30 3591 N 332.573 -1.56217 0.208337 0
M  V30 3592 C 333.483 -2.23316 -0.718836 0
M  V30 3593 C 334.499 -1.23648 -1.22422 0
M  V30 3594 O 335.675 -1.56423 -1.26861 0
M  V30 3595 C 332.74 -2.88968 -1.91568 0
M  V30 3596 C 331.801 -4.03943 -1.45357 0
M  V30 3597 C 331.034 -4.66455 -2.59337 0
M  V30 3598 O 331.257 -4.27919 -3.77149 0
M  V30 3599 O 330.191 -5.55686 -2.31293 0
M  V30 3600 H 334.017 -3.03182 -0.177315 0
M  V30 3601 H 331.602 -1.49384 -0.0215402 0
M  V30 3602 H 333.484 -3.30455 -2.61491 0
M  V30 3603 H 332.159 -2.12071 -2.44556 0
M  V30 3604 H 331.066 -3.67052 -0.722746 0
M  V30 3605 H 332.399 -4.82543 -0.970219 0
M  V30 3606 N 334.051 0.0651679 -1.57465 0
M  V30 3607 C 335.276 0.779605 -1.9219 0
M  V30 3608 C 335.701 1.69988 -0.805333 0
M  V30 3609 O 335.059 1.79685 0.241435 0
M  V30 3610 C 335.107 1.54364 -3.2589 0
M  V30 3611 O 334.211 2.65474 -3.1559 0
M  V30 3612 H 333.552 0.212249 -0.629163 0
M  V30 3613 H 336.082 0.0314294 -2.04576 0
M  V30 3614 H 336.092 1.92146 -3.59922 0
M  V30 3615 H 334.767 0.868457 -4.06732 0
M  V30 3616 H 333.344 2.30501 -2.93128 0
M  V30 3617 N 335.529 1.53961 0.336706 0
M  V30 3618 C 336.945 1.44378 0.680241 0
M  V30 3619 C 337.145 0.606034 1.9217 0
M  V30 3620 O 336.201 0.099688 2.52303 0
M  V30 3621 C 337.514 2.87945 0.8665 0
M  V30 3622 C 339.062 2.97763 0.964682 0
M  V30 3623 C 339.537 4.42453 1.18321 0
M  V30 3624 N 341.028 4.46008 1.25025 0
M  V30 3625 C 341.763 5.55102 1.43697 0
M  V30 3626 N 341.259 6.7419 1.59498 0
M  V30 3627 N 343.052 5.42727 1.463 0
M  V30 3628 H 335.203 2.06918 -0.479455 0
M  V30 3629 H 337.466 0.935634 -0.152619 0
M  V30 3630 H 337.172 3.51691 0.0256937 0
M  V30 3631 H 337.046 3.33293 1.76623 0
M  V30 3632 H 339.433 2.34153 1.796 0
M  V30 3633 H 339.514 2.55766 0.041708 0
M  V30 3634 H 339.158 5.06645 0.356788 0
M  V30 3635 H 339.088 4.82048 2.11985 0
M  V30 3636 H 341.579 3.60196 1.14312 0
M  V30 3637 H 341.892 7.53095 1.734 0
M  V30 3638 H 340.237 6.77123 1.56621 0
M  V30 3639 H 343.428 4.48647 1.33543 0
M  V30 3640 H 343.601 6.27806 1.6051 0
M  V30 3641 N 337.007 -0.598083 1.45811 0
M  V30 3642 C 337.954 -1.7082 1.55207 0
M  V30 3643 C 338.924 -1.61278 0.39732 0
M  V30 3644 O 340.109 -1.80717 0.612038 0
M  V30 3645 C 337.249 -3.09144 1.53376 0
M  V30 3646 C 336.362 -3.29423 2.79472 0
M  V30 3647 C 335.497 -4.57907 2.69248 0
M  V30 3648 C 334.536 -4.71476 3.90354 0
M  V30 3649 N 333.673 -5.9127 3.78608 0
M  V30 3650 H 338.513 -1.62125 2.50039 0
M  V30 3651 H 336.05 -0.790389 1.24062 0
M  V30 3652 H 338.008 -3.89186 1.50301 0
M  V30 3653 H 336.638 -3.16773 0.620876 0
M  V30 3654 H 335.69 -2.43091 2.92594 0
M  V30 3655 H 337.002 -3.3532 3.69272 0
M  V30 3656 H 336.156 -5.46157 2.64192 0
M  V30 3657 H 334.895 -4.54423 1.77063 0
M  V30 3658 H 333.9 -3.81648 3.95759 0
M  V30 3659 H 335.125 -4.76751 4.83617 0
M  V30 3660 H 333.071 -5.88813 2.89199 0
M  V30 3661 H 332.988 -5.98369 4.6205 0
M  V30 3662 H 334.256 -6.81992 3.77501 0
M  V30 3663 N 338.485 -1.33259 -0.841409 0
M  V30 3664 C 339.415 -1.25926 -1.96634 0
M  V30 3665 C 340.396 -0.140349 -1.6952 0
M  V30 3666 O 341.581 -0.329707 -1.91381 0
M  V30 3667 C 338.711 -0.99512 -3.32738 0
M  V30 3668 C 337.665 -2.0767 -3.74242 0
M  V30 3669 C 336.991 -1.66474 -5.08125 0
M  V30 3670 C 338.291 -3.49318 -3.88297 0
M  V30 3671 H 339.985 -2.20046 -2.03027 0
M  V30 3672 H 337.531 -1.05931 -0.975425 0
M  V30 3673 H 339.484 -0.930323 -4.11002 0
M  V30 3674 H 338.208 -0.0183004 -3.26595 0
M  V30 3675 H 336.867 -2.13187 -2.98239 0
M  V30 3676 H 336.515 -0.675012 -4.9845 0
M  V30 3677 H 336.215 -2.3885 -5.36865 0
M  V30 3678 H 337.739 -1.61455 -5.88867 0
M  V30 3679 H 339.153 -3.46316 -4.56879 0
M  V30 3680 H 337.55 -4.20158 -4.28471 0
M  V30 3681 H 338.62 -3.8801 -2.9082 0
M  V30 3682 N 339.963 1.05934 -1.16686 0
M  V30 3683 C 340.911 2.15603 -0.872817 0
M  V30 3684 C 341.905 1.68647 0.159576 0
M  V30 3685 O 343.111 1.79995 0.0132125 0
M  V30 3686 H 339.486 0.703885 -0.264671 0
M  V30 3687 H 341.457 2.37613 -1.80507 0
M  V30 3688 C 340.206 3.45457 -0.394344 0
M  V30 3689 H 339.529 3.81984 -1.18019 0
M  V30 3690 H 340.969 4.2339 -0.227408 0
M  V30 3691 C 339.428 3.25021 0.88673 0
M  V30 3692 O 339.958 3.50906 1.95519 0
M  V30 3693 N 338.164 2.78437 0.831925 0
M  V30 3694 H 337.711 2.57572 -0.0377619 0
M  V30 3695 H 337.669 2.65144 1.68956 0
M  V30 3696 N 341.441 0.965919 1.2453 0
M  V30 3697 C 342.666 0.643971 1.97149 0
M  V30 3698 C 343.091 -0.779487 1.71189 0
M  V30 3699 O 342.449 -1.5288 0.974553 0
M  V30 3700 C 342.497 0.922557 3.48599 0
M  V30 3701 O 341.601 0.00707672 4.12399 0
M  V30 3702 H 340.942 0.243647 0.617683 0
M  V30 3703 H 343.472 1.29558 1.58353 0
M  V30 3704 H 343.482 0.853373 3.98976 0
M  V30 3705 H 342.157 1.95996 3.66822 0
M  V30 3706 H 340.734 0.12943 3.72675 0
M  V30 3707 N 342.919 -1.39368 0.735821 0
M  V30 3708 C 343.869 -2.27885 0.0724287 0
M  V30 3709 C 344.853 -1.44301 -0.711756 0
M  V30 3710 O 346.045 -1.67206 -0.58063 0
M  V30 3711 C 343.174 -3.33029 -0.833454 0
M  V30 3712 C 342.26 -4.24078 -0.0433749 0
M  V30 3713 N 342.651 -4.96138 0.983903 0
M  V30 3714 C 340.949 -4.45164 -0.272905 0
M  V30 3715 C 341.65 -5.63069 1.4604 0
M  V30 3716 N 340.626 -5.37991 0.778857 0
M  V30 3717 H 344.428 -2.81052 0.859467 0
M  V30 3718 H 341.942 -1.5206 0.570227 0
M  V30 3719 H 343.939 -3.95311 -1.32419 0
M  V30 3720 H 342.599 -2.81421 -1.61964 0
M  V30 3721 H 343.61 -4.9958 1.36528 0
M  V30 3722 H 340.287 -4.04497 -1.03383 0
M  V30 3723 H 341.677 -6.30755 2.31511 0
M  V30 3724 N 344.397 -0.483516 -1.5 0
M  V30 3725 C 345.33 0.350427 -2.25493 0
M  V30 3726 C 346.308 0.985549 -1.29328 0
M  V30 3727 O 347.492 1.01906 -1.58579 0
M  V30 3728 C 344.619 1.49202 -3.04066 0
M  V30 3729 C 343.665 0.973036 -4.15252 0
M  V30 3730 S 344.498 -0.122237 -5.3536 0
M  V30 3731 C 345.654 1.02294 -6.17484 0
M  V30 3732 H 345.887 -0.290381 -2.95878 0
M  V30 3733 H 343.42 -0.268562 -1.52046 0
M  V30 3734 H 345.378 2.14623 -3.49925 0
M  V30 3735 H 344.039 2.10438 -2.33183 0
M  V30 3736 H 343.232 1.82804 -4.69679 0
M  V30 3737 H 342.834 0.396335 -3.71894 0
M  V30 3738 H 345.126 1.93195 -6.49371 0
M  V30 3739 H 346.069 0.517664 -7.06205 0
M  V30 3740 H 346.477 1.28238 -5.49741 0
M  V30 3741 N 345.875 1.56104 -0.216619 0
M  V30 3742 C 347.124 1.97348 0.416744 0
M  V30 3743 C 347.437 1.10715 1.6125 0
M  V30 3744 O 348.643 1.41836 2.31506 0
M  V30 3745 C 347.099 3.51059 0.792835 0
M  V30 3746 C 346.707 4.46387 -0.379828 0
M  V30 3747 C 348.451 4.01026 1.39208 0
M  V30 3748 C 346.358 5.91397 0.0184223 0
M  V30 3749 H 345.288 0.736942 0.159475 0
M  V30 3750 H 347.939 1.80827 -0.31205 0
M  V30 3751 H 346.321 3.63162 1.57891 0
M  V30 3752 H 347.495 4.46029 -1.15737 0
M  V30 3753 H 345.81 4.06734 -0.891979 0
M  V30 3754 H 348.407 5.0686 1.70286 0
M  V30 3755 H 348.75 3.46587 2.30614 0
M  V30 3756 H 349.283 3.92125 0.669537 0
M  V30 3757 H 346.022 6.49807 -0.862002 0
M  V30 3758 H 345.542 5.94961 0.760384 0
M  V30 3759 H 347.221 6.45455 0.446818 0
M  V30 3760 N 347.353 -0.0568162 1.57498 0
M  V30 3761 C 348.602 -0.752001 1.87157 0
M  V30 3762 C 348.915 -1.77978 0.811375 0
M  V30 3763 O 350.121 -2.52559 0.996293 0
M  V30 3764 C 348.577 -1.38844 3.3204 0
M  V30 3765 C 348.185 -0.398456 4.46225 0
M  V30 3766 C 349.929 -2.06512 3.70882 0
M  V30 3767 C 347.836 -1.04166 5.82154 0
M  V30 3768 H 346.766 -0.28461 0.698222 0
M  V30 3769 H 349.417 -0.00561272 1.83499 0
M  V30 3770 H 347.799 -2.1836 3.30356 0
M  V30 3771 H 348.973 0.367977 4.59328 0
M  V30 3772 H 347.288 0.174592 4.16034 0
M  V30 3773 H 349.885 -2.55437 4.6974 0
M  V30 3774 H 350.228 -2.87117 3.01445 0
M  V30 3775 H 350.761 -1.33808 3.7462 0
M  V30 3776 H 347.5 -0.275614 6.5492 0
M  V30 3777 H 347.02 -1.7786 5.72823 0
M  V30 3778 H 348.699 -1.55715 6.27982 0
M  V30 3779 N 348.832 -1.54138 -0.328536 0
M  V30 3780 C 349.764 -1.79509 -1.4251 0
M  V30 3781 C 350.777 -0.67688 -1.48061 0
M  V30 3782 O 351.966 -0.953898 -1.50874 0
M  V30 3783 C 349.066 -1.89337 -2.81078 0
M  V30 3784 C 348.239 -3.19443 -2.98789 0
M  V30 3785 C 347.298 -3.20036 -4.17688 0
M  V30 3786 O 346.324 -3.93697 -4.11086 0
M  V30 3787 N 347.526 -2.43467 -5.26976 0
M  V30 3788 H 350.291 -2.74139 -1.21111 0
M  V30 3789 H 347.852 -1.53373 -0.518499 0
M  V30 3790 H 349.844 -1.87167 -3.58818 0
M  V30 3791 H 348.414 -1.01826 -2.95551 0
M  V30 3792 H 347.634 -3.34614 -2.08391 0
M  V30 3793 H 348.922 -4.05354 -3.07515 0
M  V30 3794 H 348.32 -1.83201 -5.35214 0
M  V30 3795 H 346.877 -2.4708 -6.03154 0
M  V30 3796 N 350.31 0.590341 -1.46126 0
M  V30 3797 C 351.558 1.34616 -1.50742 0
M  V30 3798 C 351.879 1.94363 -0.157486 0
M  V30 3799 O 351.149 1.78136 0.815136 0
M  V30 3800 H 349.729 0.499789 -0.555175 0
M  V30 3801 H 352.391 0.691953 -1.82203 0
M  V30 3802 H 351.487 2.15678 -2.25587 0
M  V30 3803 N 351.788 1.33704 0.83433 0
M  V30 3804 C 353.037 1.24763 1.58484 0
M  V30 3805 C 353.35 -0.183775 1.94735 0
M  V30 3806 O 354.556 -0.395234 2.68608 0
M  V30 3807 C 353.012 2.18638 2.85876 0
M  V30 3808 C 352.62 3.66974 2.56971 0
M  V30 3809 C 354.364 2.18581 3.63899 0
M  V30 3810 C 352.271 4.5275 3.80488 0
M  V30 3811 H 351.201 0.463425 0.594772 0
M  V30 3812 H 353.852 1.58797 0.919551 0
M  V30 3813 H 352.234 1.77542 3.5397 0
M  V30 3814 H 353.408 4.16538 1.9706 0
M  V30 3815 H 351.723 3.69366 1.92244 0
M  V30 3816 H 354.32 2.79894 4.55591 0
M  V30 3817 H 354.663 1.18207 3.99165 0
M  V30 3818 H 355.196 2.58062 3.02735 0
M  V30 3819 H 351.935 5.54017 3.5035 0
M  V30 3820 H 351.455 4.07927 4.39722 0
M  V30 3821 H 353.134 4.66784 4.4802 0
M  V30 3822 N 353.266 -1.05314 1.17247 0
M  V30 3823 C 354.491 -1.82509 0.985148 0
M  V30 3824 C 354.916 -1.82343 -0.461788 0
M  V30 3825 O 354.274 -1.23151 -1.33055 0
M  V30 3826 C 354.322 -3.26566 1.52929 0
M  V30 3827 O 353.426 -4.05666 0.742225 0
M  V30 3828 H 352.767 -0.564347 0.349869 0
M  V30 3829 H 355.297 -1.32718 1.55715 0
M  V30 3830 H 355.307 -3.77369 1.55103 0
M  V30 3831 H 353.982 -3.26001 2.58256 0
M  V30 3832 H 352.559 -3.64397 0.791794 0
M  V30 3833 N 354.744 -0.972509 -1.24016 0
M  V30 3834 C 355.974 -0.653853 -1.9598 0
M  V30 3835 C 356.382 0.781801 -1.72292 0
M  V30 3836 O 355.725 1.53677 -1.00644 0
M  V30 3837 C 355.787 -0.854608 -3.49194 0
M  V30 3838 C 355.451 -2.27082 -3.96589 0
M  V30 3839 C 356.448 -3.24892 -4.05883 0
M  V30 3840 C 354.133 -2.5998 -4.29786 0
M  V30 3841 C 356.127 -4.53684 -4.47716 0
M  V30 3842 C 353.814 -3.88997 -4.71301 0
M  V30 3843 C 354.812 -4.85661 -4.80232 0
M  V30 3844 O 354.5 -6.12376 -5.20818 0
M  V30 3845 H 354.232 -0.242572 -0.630979 0
M  V30 3846 H 356.786 -1.30431 -1.58673 0
M  V30 3847 H 355.016 -0.146985 -3.86421 0
M  V30 3848 H 356.705 -0.534311 -4.02368 0
M  V30 3849 H 357.471 -3.00805 -3.80449 0
M  V30 3850 H 353.35 -1.85457 -4.22051 0
M  V30 3851 H 356.894 -5.29135 -4.54601 0
M  V30 3852 H 352.791 -4.12882 -4.96184 0
M  V30 3853 H 353.559 -6.16013 -5.38953 0
M  V30 3854 N 356.222 1.38976 -0.743202 0
M  V30 3855 C 357.499 1.94351 -0.220705 0
M  V30 3856 C 357.879 1.67935 1.2791 0
M  V30 3857 O 357.227 1.01211 2.04862 0
M  V30 3858 C 357.437 3.44426 -0.563171 0
M  V30 3859 C 358.785 4.2144 -0.517046 0
M  V30 3860 O 359.809 3.52661 -0.500846 0
M  V30 3861 O 358.668 5.44032 -0.518806 0
M  V30 3862 H 355.762 0.825879 -0.043047 0
M  V30 3863 H 358.308 1.48429 -0.822618 0
M  V30 3864 H 357.08 3.5712 -1.59941 0
M  V30 3865 H 356.703 3.97543 0.0672883 0
M  V30 3866 N 357.7 0.491464 1.49741 0
M  V30 3867 C 358.977 -0.118984 1.95238 0
M  V30 3868 C 359.357 -1.55044 1.43264 0
M  V30 3869 O 358.705 -2.19287 0.642287 0
M  V30 3870 C 358.915 -0.0414187 3.48975 0
M  V30 3871 C 360.263 -0.220133 4.24029 0
M  V30 3872 O 361.287 -0.117055 3.56008 0
M  V30 3873 O 360.146 -0.430567 5.44801 0
M  V30 3874 H 357.24 -0.100536 0.820866 0
M  V30 3875 H 359.786 0.553322 1.60426 0
M  V30 3876 H 358.558 0.957214 3.79412 0
M  V30 3877 H 358.181 -0.754292 3.9038 0
M  V30 3878 N 359.178 -1.55987 0.224894 0
M  V30 3879 C 360.594 -1.59066 -0.130426 0
M  V30 3880 C 360.794 -1.24176 -1.5869 0
M  V30 3881 O 359.85 -0.978592 -2.32766 0
M  V30 3882 C 361.163 -3.00042 0.198883 0
M  V30 3883 C 362.711 -3.1268 0.141391 0
M  V30 3884 C 363.186 -4.55839 0.444422 0
M  V30 3885 N 364.677 -4.6152 0.394115 0
M  V30 3886 C 365.412 -5.70231 0.602038 0
M  V30 3887 N 364.908 -6.87291 0.871914 0
M  V30 3888 N 366.701 -5.59555 0.534245 0
M  V30 3889 H 358.852 -1.76941 1.17497 0
M  V30 3890 H 361.115 -0.822604 0.471197 0
M  V30 3891 H 360.821 -3.30234 1.2099 0
M  V30 3892 H 360.695 -3.74075 -0.484535 0
M  V30 3893 H 363.082 -2.82283 -0.860265 0
M  V30 3894 H 363.163 -2.40969 0.858335 0
M  V30 3895 H 362.807 -4.86954 1.44353 0
M  V30 3896 H 362.737 -5.2578 -0.293752 0
M  V30 3897 H 365.228 -3.77405 0.193356 0
M  V30 3898 H 365.541 -7.66058 1.01858 0
M  V30 3899 H 363.886 -6.89028 0.909145 0
M  V30 3900 H 367.077 -4.6698 0.323612 0
M  V30 3901 H 367.25 -6.44211 0.699693 0
M  V30 3902 N 360.656 0.0484629 -1.57525 0
M  V30 3903 C 361.905 0.742065 -1.87553 0
M  V30 3904 C 362.218 1.77545 -0.820802 0
M  V30 3905 O 363.424 2.52027 -1.00967 0
M  V30 3906 C 361.88 1.37081 -3.32771 0
M  V30 3907 C 361.488 0.374786 -4.4643 0
M  V30 3908 C 363.232 2.04542 -3.71972 0
M  V30 3909 C 361.139 1.01077 -5.82698 0
M  V30 3910 H 360.069 0.280903 -0.699721 0
M  V30 3911 H 362.72 -0.00411877 -1.835 0
M  V30 3912 H 361.102 2.16605 -3.31509 0
M  V30 3913 H 362.276 -0.392331 -4.59127 0
M  V30 3914 H 360.591 -0.196653 -4.15935 0
M  V30 3915 H 363.188 2.52943 -4.71088 0
M  V30 3916 H 363.531 2.85515 -3.02964 0
M  V30 3917 H 364.064 1.31819 -3.75325 0
M  V30 3918 H 360.803 0.240878 -6.55057 0
M  V30 3919 H 360.323 1.74819 -5.73758 0
M  V30 3920 H 362.002 1.52383 -6.28799 0
M  V30 3921 N 362.134 1.5431 0.320358 0
M  V30 3922 C 363.382 1.72327 1.05583 0
M  V30 3923 C 363.703 0.50149 1.88441 0
M  V30 3924 O 362.973 -0.48448 1.89815 0
M  V30 3925 H 361.553 0.635387 0.3928 0
M  V30 3926 H 364.215 1.91621 0.356019 0
M  V30 3927 H 363.311 2.60426 1.72003 0
M  V30 3928 N 363.613 -0.582584 1.46437 0
M  V30 3929 C 364.546 -1.70633 1.51524 0
M  V30 3930 C 365.524 -1.58349 0.369351 0
M  V30 3931 O 366.708 -1.79563 0.573516 0
M  V30 3932 C 363.835 -3.08687 1.39392 0
M  V30 3933 C 362.881 -3.3949 2.58164 0
M  V30 3934 S 363.714 -3.31548 4.20519 0
M  V30 3935 C 364.87 -4.72139 4.10896 0
M  V30 3936 H 365.103 -1.66058 2.46601 0
M  V30 3937 H 362.636 -0.761337 1.34324 0
M  V30 3938 H 364.594 -3.8833 1.33079 0
M  V30 3939 H 363.255 -3.10751 0.457436 0
M  V30 3940 H 362.448 -4.40071 2.45669 0
M  V30 3941 H 362.05 -2.67415 2.61468 0
M  V30 3942 H 364.342 -5.62527 3.77584 0
M  V30 3943 H 365.285 -4.89692 5.11476 0
M  V30 3944 H 365.693 -4.48995 3.42146 0
M  V30 3945 N 365.091 -1.34144 -0.827227 0
M  V30 3946 C 366.041 -1.21923 -1.92663 0
M  V30 3947 C 367.025 -0.119294 -1.60457 0
M  V30 3948 O 368.217 -0.348539 -1.73534 0
M  V30 3949 C 365.346 -0.972492 -3.29238 0
M  V30 3950 C 364.432 -2.1154 -3.67576 0
M  V30 3951 N 364.823 -3.36627 -3.77512 0
M  V30 3952 C 363.121 -2.02468 -3.97395 0
M  V30 3953 C 363.822 -4.11658 -4.1099 0
M  V30 3954 N 362.798 -3.40207 -4.23981 0
M  V30 3955 H 366.6 -2.16721 -1.98517 0
M  V30 3956 H 364.114 -1.2632 -1.02064 0
M  V30 3957 H 366.111 -0.865847 -4.0781 0
M  V30 3958 H 364.771 -0.0331509 -3.24683 0
M  V30 3959 H 365.782 -3.71234 -3.61118 0
M  V30 3960 H 362.459 -1.16265 -4.00985 0
M  V30 3961 H 363.849 -5.19657 -4.25918 0
M  V30 3962 N 366.569 1.04691 -1.17803 0
M  V30 3963 C 367.799 1.81183 -0.992788 0
M  V30 3964 C 368.207 1.8347 0.462098 0
M  V30 3965 O 367.55 1.2643 1.33271 0
M  V30 3966 C 367.612 3.28363 -1.46349 0
M  V30 3967 C 367.276 3.49749 -2.94151 0
M  V30 3968 C 368.273 3.41456 -3.92051 0
M  V30 3969 C 365.958 3.76548 -3.32441 0
M  V30 3970 C 367.952 3.59656 -5.26238 0
M  V30 3971 C 365.639 3.94396 -4.66792 0
M  V30 3972 C 366.637 3.8595 -5.635 0
M  V30 3973 O 366.325 4.03294 -6.9542 0
M  V30 3974 H 366.057 0.577622 -0.351182 0
M  V30 3975 H 368.611 1.32876 -1.5663 0
M  V30 3976 H 366.841 3.77609 -0.833574 0
M  V30 3977 H 368.53 3.86395 -1.24313 0
M  V30 3978 H 369.296 3.20723 -3.63815 0
M  V30 3979 H 365.175 3.82224 -2.57732 0
M  V30 3980 H 368.719 3.52979 -6.01707 0
M  V30 3981 H 364.616 4.14622 -4.94731 0
M  V30 3982 H 365.384 4.2049 -7.02232 0
M  V30 3983 N 368.047 0.979072 1.23499 0
M  V30 3984 C 368.995 0.510604 2.26926 0
M  V30 3985 C 369.989 -0.431691 1.63807 0
M  V30 3986 O 371.195 -0.30573 1.77385 0
M  V30 3987 H 367.57 0.146688 0.737554 0
M  V30 3988 H 369.541 1.39466 2.63803 0
M  V30 3989 C 368.29 -0.172658 3.47271 0
M  V30 3990 H 367.613 0.543331 3.96091 0
M  V30 3991 H 369.053 -0.464101 4.21452 0
M  V30 3992 C 367.512 -1.40345 3.06276 0
M  V30 3993 O 368.042 -2.49978 3.14442 0
M  V30 3994 N 366.248 -1.27362 2.61203 0
M  V30 3995 H 365.795 -0.381584 2.54758 0
M  V30 3996 H 365.753 -2.09822 2.34141 0
M  V30 3997 N 369.525 -1.3858 0.750561 0
M  V30 3998 C 370.473 -2.32339 0.110162 0
M  V30 3999 C 371.467 -1.53864 -0.708674 0
M  V30 4000 O 372.673 -1.69417 -0.608112 0
M  V30 4001 H 369.048 -0.751812 0.0168275 0
M  V30 4002 H 371.019 -2.83959 0.917053 0
M  V30 4003 C 369.768 -3.39043 -0.771067 0
M  V30 4004 H 369.091 -3.99517 -0.150374 0
M  V30 4005 H 370.531 -4.07061 -1.1865 0
M  V30 4006 C 368.99 -2.77365 -1.91234 0
M  V30 4007 O 369.52 -2.66434 -3.00626 0
M  V30 4008 N 367.726 -2.35219 -1.70646 0
M  V30 4009 H 367.273 -2.4431 -0.81673 0
M  V30 4010 H 367.231 -1.94294 -2.47178 0
M  V30 4011 N 371.003 -0.499398 -1.49478 0
M  V30 4012 C 372.414 -0.051215 -1.8663 0
M  V30 4013 C 372.765 1.36238 -1.41186 0
M  V30 4014 O 371.89 2.01502 -0.789051 0
M  V30 4015 C 372.485 -0.0861651 -3.3869 0
M  V30 4016 C 371.044 0.30667 -3.75149 0
M  V30 4017 C 370.191 -0.459397 -2.73468 0
M  V30 4018 H 373.142 -0.712264 -1.41818 0
M  V30 4019 H 373.163 0.709507 -3.73826 0
M  V30 4020 H 372.675 -1.11512 -3.71735 0
M  V30 4021 H 370.776 1.33892 -3.47712 0
M  V30 4022 H 370.889 -0.0116669 -4.79099 0
M  V30 4023 H 369.253 0.0905645 -2.54539 0
M  V30 4024 H 370.036 -1.4884 -3.09357 0
M  V30 4025 N 372.481 1.55866 -0.233164 0
M  V30 4026 C 373.706 2.03449 0.402906 0
M  V30 4027 C 374.131 1.11166 1.51736 0
M  V30 4028 O 373.489 0.101996 1.81013 0
M  V30 4029 C 373.537 3.49165 0.9009 0
M  V30 4030 O 372.641 3.60019 2.01147 0
M  V30 4031 H 371.982 0.657913 0.0897025 0
M  V30 4032 H 374.512 2.01493 -0.355201 0
M  V30 4033 H 374.522 3.89716 1.2077 0
M  V30 4034 H 373.197 4.15813 0.0852889 0
M  V30 4035 H 371.774 3.3136 1.71042 0
M  V30 4036 N 373.959 -0.0401083 1.57549 0
M  V30 4037 C 375.206 -0.733125 1.88763 0
M  V30 4038 C 375.534 -1.75946 0.829058 0
M  V30 4039 O 374.789 -1.94949 -0.171323 0
M  V30 4040 C 375.088 -1.44902 3.26708 0
M  V30 4041 C 374.754 -0.559707 4.47413 0
M  V30 4042 C 373.416 -0.314731 4.8017 0
M  V30 4043 C 375.768 0.0549743 5.21171 0
M  V30 4044 C 373.096 0.553886 5.8408 0
M  V30 4045 C 375.448 0.911229 6.26003 0
M  V30 4046 C 374.112 1.16577 6.57241 0
M  V30 4047 H 373.382 -0.268269 0.690733 0
M  V30 4048 H 376.029 0.00679408 1.91499 0
M  V30 4049 H 374.334 -2.26197 3.1991 0
M  V30 4050 H 376.031 -1.99058 3.48105 0
M  V30 4051 H 372.621 -0.760793 4.21794 0
M  V30 4052 H 376.805 -0.121344 4.96152 0
M  V30 4053 H 372.061 0.759518 6.06664 0
M  V30 4054 H 376.235 1.3941 6.82303 0
M  V30 4055 H 373.862 1.84058 7.37582 0
M  V30 4056 N 375.437 -1.54477 -0.31217 0
M  V30 4057 C 376.685 -1.72884 -1.04668 0
M  V30 4058 C 377.006 -0.511477 -1.88173 0
M  V30 4059 O 376.276 0.474407 -1.90069 0
M  V30 4060 H 374.856 -0.637461 -0.389425 0
M  V30 4061 H 377.518 -1.91807 -0.345852 0
M  V30 4062 H 376.614 -2.61334 -1.70619 0
M  V30 4063 N 376.915 0.57481 -1.46744 0
M  V30 4064 C 378.145 1.35659 -1.55821 0
M  V30 4065 C 378.553 1.88129 -0.201036 0
M  V30 4066 O 377.896 1.64723 0.813134 0
M  V30 4067 C 377.958 2.57473 -2.50894 0
M  V30 4068 C 377.622 2.26415 -3.9697 0
M  V30 4069 C 378.619 1.84771 -4.85958 0
M  V30 4070 C 376.304 2.38316 -4.42166 0
M  V30 4071 C 378.298 1.55434 -6.18158 0
M  V30 4072 C 375.985 2.08591 -5.74398 0
M  V30 4073 C 376.983 1.67216 -6.62214 0
M  V30 4074 O 376.671 1.37859 -7.91991 0
M  V30 4075 H 376.403 0.420496 -0.529301 0
M  V30 4076 H 378.957 0.704967 -1.92923 0
M  V30 4077 H 377.187 3.25468 -2.08824 0
M  V30 4078 H 378.876 3.19546 -2.50291 0
M  V30 4079 H 379.642 1.75085 -4.52295 0
M  V30 4080 H 375.521 2.69483 -3.74032 0
M  V30 4081 H 379.065 1.23065 -6.86659 0
M  V30 4082 H 374.962 2.17905 -6.07608 0
M  V30 4083 H 375.73 1.51638 -8.04331 0
M  V30 4084 N 378.394 1.34581 0.820102 0
M  V30 4085 C 379.642 1.26845 1.57336 0
M  V30 4086 C 379.963 -0.160667 1.94337 0
M  V30 4087 O 379.233 -1.09396 1.6251 0
M  V30 4088 H 377.813 0.466514 0.583415 0
M  V30 4089 H 380.475 1.68526 0.979027 0
M  V30 4090 H 379.571 1.87513 2.4949 0
M  V30 4091 N 379.872 -1.04064 1.18357 0
M  V30 4092 C 381.12 -1.76915 0.977013 0
M  V30 4093 C 381.441 -1.88624 -0.494577 0
M  V30 4094 O 380.711 -1.41125 -1.3587 0
M  V30 4095 H 379.291 -0.65535 0.358504 0
M  V30 4096 H 381.953 -1.25592 1.49039 0
M  V30 4097 H 381.049 -2.78178 1.41504 0
M  V30 4098 N 381.35 -0.985608 -1.22978 0
M  V30 4099 C 382.58 -0.674603 -1.95276 0
M  V30 4100 C 382.988 0.763483 -1.73111 0
M  V30 4101 O 382.331 1.52601 -1.02268 0
M  V30 4102 C 382.393 -0.891597 -3.48268 0
M  V30 4103 C 382.057 -2.31275 -3.94158 0
M  V30 4104 C 383.054 -3.29179 -4.02415 0
M  V30 4105 C 380.739 -2.64524 -4.27004 0
M  V30 4106 C 382.733 -4.58407 -4.42879 0
M  V30 4107 C 380.42 -3.93974 -4.67149 0
M  V30 4108 C 381.418 -4.90727 -4.75053 0
M  V30 4109 O 381.106 -6.17865 -5.14294 0
M  V30 4110 H 380.838 -0.249251 -0.628371 0
M  V30 4111 H 383.392 -1.32106 -1.5728 0
M  V30 4112 H 381.622 -0.187962 -3.86243 0
M  V30 4113 H 383.311 -0.576957 -4.01779 0
M  V30 4114 H 384.077 -3.04823 -3.77237 0
M  V30 4115 H 379.956 -1.89923 -4.2006 0
M  V30 4116 H 383.5 -5.33926 -4.48964 0
M  V30 4117 H 379.397 -4.18122 -4.91777 0
M  V30 4118 H 380.165 -6.21694 -5.32389 0
M  V30 4119 N 382.828 1.3818 -0.7579 0
M  V30 4120 C 384.068 2.01864 -0.320968 0
M  V30 4121 C 384.432 1.58863 1.07827 0
M  V30 4122 O 385.633 2.14908 1.61456 0
M  V30 4123 C 383.904 3.54626 -0.44446 0
M  V30 4124 S 385.463 4.38706 -0.0907467 0
M  V30 4125 H 382.281 0.700056 -0.124268 0
M  V30 4126 H 384.883 1.68611 -0.989468 0
M  V30 4127 H 383.587 3.83411 -1.4637 0
M  V30 4128 H 383.118 3.92661 0.241073 0
M  V30 4129 H 385.133 4.83435 1.11826 0
M  V30 4130 N 384.306 0.507319 1.49211 0
M  V30 4131 C 385.236 -0.256939 2.32082 0
M  V30 4132 C 386.217 -0.956609 1.40652 0
M  V30 4133 O 387.402 -0.946788 1.69557 0
M  V30 4134 C 384.532 -1.31802 3.21318 0
M  V30 4135 C 383.486 -0.737855 4.21592 0
M  V30 4136 C 382.812 -1.89992 4.99807 0
M  V30 4137 C 384.112 0.275325 5.21574 0
M  V30 4138 H 385.806 0.434798 2.96226 0
M  V30 4139 H 383.352 0.210546 1.42452 0
M  V30 4140 H 385.305 -1.86045 3.78107 0
M  V30 4141 H 384.029 -2.03903 2.5513 0
M  V30 4142 H 382.688 -0.217126 3.65956 0
M  V30 4143 H 382.336 -2.60877 4.30061 0
M  V30 4144 H 382.036 -1.51777 5.6766 0
M  V30 4145 H 383.56 -2.44657 5.59442 0
M  V30 4146 H 384.974 -0.179193 5.7302 0
M  V30 4147 H 383.371 0.573649 5.97352 0
M  V30 4148 H 384.441 1.18903 4.70096 0
M  V30 4149 N 385.784 -1.5574 0.241426 0
M  V30 4150 C 387.195 -1.84842 -0.262755 0
M  V30 4151 C 387.546 -1.16317 -1.58003 0
M  V30 4152 O 386.671 -0.439653 -2.11887 0
M  V30 4153 C 387.266 -3.35332 -0.483523 0
M  V30 4154 C 385.825 -3.6468 -0.931977 0
M  V30 4155 C 384.972 -2.77299 -0.0061151 0
M  V30 4156 H 387.923 -1.51761 0.464129 0
M  V30 4157 H 387.944 -3.56615 -1.32688 0
M  V30 4158 H 387.456 -3.85178 0.47537 0
M  V30 4159 H 385.557 -3.20307 -1.90353 0
M  V30 4160 H 385.67 -4.72498 -0.792628 0
M  V30 4161 H 384.034 -2.49408 -0.516503 0
M  V30 4162 H 384.817 -3.2995 0.948052 0
M  V30 4163 N 387.262 0.0317525 -1.57568 0
M  V30 4164 C 388.209 1.0332 -2.06382 0
M  V30 4165 C 389.179 1.36082 -0.952414 0
M  V30 4166 O 390.364 1.46466 -1.2228 0
M  V30 4167 C 387.504 2.32989 -2.54578 0
M  V30 4168 C 386.617 2.0641 -3.79498 0
M  V30 4169 C 385.752 3.2993 -4.16317 0
M  V30 4170 C 384.791 2.98893 -5.34162 0
M  V30 4171 N 383.928 4.14857 -5.66426 0
M  V30 4172 H 388.768 0.609982 -2.9169 0
M  V30 4173 H 386.305 0.289573 -1.44222 0
M  V30 4174 H 388.263 3.0875 -2.80587 0
M  V30 4175 H 386.893 2.73039 -1.7219 0
M  V30 4176 H 385.945 1.21158 -3.6059 0
M  V30 4177 H 387.257 1.79513 -4.65378 0
M  V30 4178 H 386.411 4.1406 -4.4344 0
M  V30 4179 H 385.15 3.59938 -3.29083 0
M  V30 4180 H 384.155 2.13164 -5.06795 0
M  V30 4181 H 385.38 2.70165 -6.23047 0
M  V30 4182 H 383.326 4.44821 -4.82151 0
M  V30 4183 H 383.243 3.91374 -6.4681 0
M  V30 4184 H 384.511 4.99868 -5.98124 0
M  V30 4185 N 388.74 1.54641 0.303973 0
M  V30 4186 C 390.017 1.64455 1.05896 0
M  V30 4187 C 390.397 0.490923 2.05312 0
M  V30 4188 O 389.745 -0.512685 2.22674 0
M  V30 4189 C 389.955 3.02331 1.74347 0
M  V30 4190 C 391.303 3.59045 2.26653 0
M  V30 4191 O 392.327 3.04764 1.84384 0
M  V30 4192 O 391.186 4.54081 3.04093 0
M  V30 4193 H 388.28 0.666729 0.489287 0
M  V30 4194 H 390.826 1.66986 0.302298 0
M  V30 4195 H 389.598 3.77734 1.02142 0
M  V30 4196 H 389.221 3.03565 2.56777 0
M  V30 4197 N 390.218 -0.567019 1.47046 0
M  V30 4198 C 391.446 -1.35027 1.56765 0
M  V30 4199 C 391.861 -1.8758 0.214316 0
M  V30 4200 O 391.218 -1.64471 -0.790919 0
M  V30 4201 C 391.269 -2.52698 2.58507 0
M  V30 4202 O 390.99 -2.0232 3.88585 0
M  V30 4203 C 392.491 -3.45043 2.78316 0
M  V30 4204 H 389.711 -0.41195 0.529658 0
M  V30 4205 H 392.255 -0.687832 1.92585 0
M  V30 4206 H 390.41 -3.149 2.25648 0
M  V30 4207 H 390.824 -2.79068 4.44096 0
M  V30 4208 H 392.298 -4.2405 3.53391 0
M  V30 4209 H 392.775 -3.97971 1.85784 0
M  V30 4210 H 393.381 -2.88665 3.12334 0
M  V30 4211 N 391.696 -1.35014 -0.812953 0
M  V30 4212 C 392.643 -1.27412 -1.92444 0
M  V30 4213 C 393.613 -0.14733 -1.65445 0
M  V30 4214 O 394.798 -0.329974 -1.87925 0
M  V30 4215 C 391.938 -1.04558 -3.28879 0
M  V30 4216 C 391.051 -2.26101 -3.68106 0
M  V30 4217 C 390.186 -1.96449 -4.9354 0
M  V30 4218 C 389.225 -3.14081 -5.25376 0
M  V30 4219 N 388.362 -2.84246 -6.41988 0
M  V30 4220 H 393.202 -2.22463 -1.98278 0
M  V30 4221 H 390.739 -1.10593 -0.969933 0
M  V30 4222 H 392.697 -0.893413 -4.07522 0
M  V30 4223 H 391.327 -0.131719 -3.22531 0
M  V30 4224 H 390.379 -2.52204 -2.84775 0
M  V30 4225 H 391.691 -3.13959 -3.87597 0
M  V30 4226 H 390.845 -1.78026 -5.79993 0
M  V30 4227 H 389.584 -1.05867 -4.76071 0
M  V30 4228 H 388.589 -3.33089 -4.37415 0
M  V30 4229 H 389.814 -4.05455 -5.44778 0
M  V30 4230 H 387.76 -1.96252 -6.25956 0
M  V30 4231 H 387.677 -3.65637 -6.61699 0
M  V30 4232 H 388.945 -2.6935 -7.31485 0
M  V30 4233 N 393.175 1.03435 -1.18907 0
M  V30 4234 C 394.107 2.1165 -0.879595 0
M  V30 4235 C 395.12 1.62316 0.125439 0
M  V30 4236 O 396.309 1.78201 -0.103245 0
M  V30 4237 C 393.409 3.37622 -0.294042 0
M  V30 4238 C 392.582 4.16166 -1.34629 0
M  V30 4239 C 391.641 5.20457 -0.775274 0
M  V30 4240 O 390.667 5.50379 -1.4516 0
M  V30 4241 N 391.869 5.78949 0.424126 0
M  V30 4242 H 394.634 2.38791 -1.81105 0
M  V30 4243 H 392.195 1.19681 -1.09032 0
M  V30 4244 H 394.187 4.04572 0.101679 0
M  V30 4245 H 392.757 3.07873 0.541575 0
M  V30 4246 H 391.977 3.44444 -1.91707 0
M  V30 4247 H 393.265 4.65432 -2.05549 0
M  V30 4248 H 392.663 5.56948 0.991209 0
M  V30 4249 H 391.22 6.47334 0.761691 0
M  V30 4250 N 394.653 0.992116 1.22453 0
M  V30 4251 C 395.583 0.561677 2.26644 0
M  V30 4252 C 396.564 -0.411055 1.65059 0
M  V30 4253 O 397.749 -0.301861 1.9184 0
M  V30 4254 C 394.879 -0.125247 3.47074 0
M  V30 4255 C 393.833 0.765948 4.21091 0
M  V30 4256 C 393.159 -0.0538484 5.34673 0
M  V30 4257 C 394.459 2.06242 4.79856 0
M  V30 4258 H 396.153 1.43259 2.62902 0
M  V30 4259 H 393.699 0.690283 1.26377 0
M  V30 4260 H 395.652 -0.437764 4.1912 0
M  V30 4261 H 394.376 -1.03069 3.0991 0
M  V30 4262 H 393.035 1.0621 3.50878 0
M  V30 4263 H 392.683 -0.960188 4.9375 0
M  V30 4264 H 392.383 0.539415 5.85119 0
M  V30 4265 H 393.907 -0.360477 6.09535 0
M  V30 4266 H 395.321 1.8139 5.43848 0
M  V30 4267 H 393.718 2.60444 5.40638 0
M  V30 4268 H 394.788 2.74167 3.99951 0
M  V30 4269 N 396.131 -1.37776 0.765217 0
M  V30 4270 C 397.061 -2.32945 0.160953 0
M  V30 4271 C 398.042 -1.55454 -0.690516 0
M  V30 4272 O 399.227 -1.83721 -0.629318 0
M  V30 4273 C 396.357 -3.39669 -0.724031 0
M  V30 4274 C 395.311 -4.27992 0.0256173 0
M  V30 4275 C 394.637 -5.25673 -0.978383 0
M  V30 4276 C 395.937 -5.08309 1.20082 0
M  V30 4277 H 397.631 -2.83728 0.955969 0
M  V30 4278 H 395.177 -1.36416 0.461149 0
M  V30 4279 H 397.13 -4.05219 -1.15652 0
M  V30 4280 H 395.854 -2.87396 -1.5515 0
M  V30 4281 H 394.513 -3.63964 0.438812 0
M  V30 4282 H 394.161 -4.69682 -1.80022 0
M  V30 4283 H 393.861 -5.85625 -0.481378 0
M  V30 4284 H 395.385 -5.94098 -1.40995 0
M  V30 4285 H 396.799 -5.67034 0.845307 0
M  V30 4286 H 395.196 -5.77554 1.62947 0
M  V30 4287 H 396.266 -4.41365 2.00811 0
M  V30 4288 N 397.609 -0.515225 -1.4894 0
M  V30 4289 C 398.572 0.244681 -2.2789 0
M  V30 4290 C 399.572 0.881166 -1.34507 0
M  V30 4291 O 400.762 0.743497 -1.57537 0
M  V30 4292 C 397.894 1.35247 -3.12923 0
M  V30 4293 H 399.087 -0.448289 -2.96531 0
M  V30 4294 H 396.64 -0.270656 -1.53939 0
M  V30 4295 H 397.375 2.07916 -2.48881 0
M  V30 4296 H 397.16 0.901374 -3.81599 0
M  V30 4297 H 398.65 1.88737 -3.72516 0
M  V30 4298 N 399.087 1.5561 -0.249682 0
M  V30 4299 C 400.035 2.22894 0.664906 0
M  V30 4300 C 401.029 1.21743 1.17792 0
M  V30 4301 O 402.235 1.39748 1.13449 0
M  V30 4302 H 398.61 0.715022 0.232912 0
M  V30 4303 H 400.581 2.98307 0.0742998 0
M  V30 4304 C 399.33 2.94424 1.84959 0
M  V30 4305 H 398.653 3.72031 1.46399 0
M  V30 4306 H 400.093 3.44862 2.4667 0
M  V30 4307 C 398.552 1.98454 2.72245 0
M  V30 4308 O 399.082 1.51939 3.71857 0
M  V30 4309 N 397.288 1.65496 2.38871 0
M  V30 4310 H 396.835 2.03517 1.57919 0
M  V30 4311 H 396.793 1.0155 2.97548 0
M  V30 4312 N 400.565 -0.0233959 1.57583 0
M  V30 4313 C 401.795 -0.723631 1.93513 0
M  V30 4314 C 402.203 -1.69115 0.848333 0
M  V30 4315 O 401.546 -1.82781 -0.183484 0
M  V30 4316 C 401.608 -1.53075 3.25282 0
M  V30 4317 C 401.272 -0.727388 4.51174 0
M  V30 4318 C 402.269 -0.0251924 5.19894 0
M  V30 4319 C 399.954 -0.680256 4.97672 0
M  V30 4320 C 401.948 0.713374 6.33395 0
M  V30 4321 C 399.635 0.0620523 6.11068 0
M  V30 4322 C 400.633 0.757622 6.78785 0
M  V30 4323 O 400.321 1.48787 7.90011 0
M  V30 4324 H 400.053 -0.208051 0.643188 0
M  V30 4325 H 402.607 0.0167489 2.05393 0
M  V30 4326 H 400.837 -2.31508 3.09744 0
M  V30 4327 H 402.526 -2.11413 3.46496 0
M  V30 4328 H 403.292 -0.0526003 4.84971 0
M  V30 4329 H 399.171 -1.21116 4.44805 0
M  V30 4330 H 402.715 1.25683 6.86185 0
M  V30 4331 H 398.612 0.0913634 6.45435 0
M  V30 4332 H 399.38 1.40213 8.06401 0
M  V30 4333 N 402.043 -1.548 -0.295768 0
M  V30 4334 C 402.991 -1.86874 -1.38495 0
M  V30 4335 C 403.985 -0.742938 -1.52239 0
M  V30 4336 O 405.191 -0.926999 -1.54294 0
M  V30 4337 H 401.566 -0.592786 -0.462719 0
M  V30 4338 H 403.537 -2.77904 -1.08682 0
M  V30 4339 C 402.286 -2.13732 -2.74252 0
M  V30 4340 H 401.609 -2.99835 -2.64459 0
M  V30 4341 H 403.049 -2.4011 -3.49461 0
M  V30 4342 C 401.508 -0.937539 -3.23592 0
M  V30 4343 O 402.038 -0.160665 -4.01379 0
M  V30 4344 N 400.244 -0.741478 -2.80981 0
M  V30 4345 H 399.791 -1.37489 -2.1784 0
M  V30 4346 H 399.749 0.0597103 -3.14343 0
M  V30 4347 N 403.521 0.559213 -1.47345 0
M  V30 4348 C 404.469 1.68747 -1.60085 0
M  V30 4349 C 405.463 1.628 -0.46825 0
M  V30 4350 O 406.669 1.68009 -0.645977 0
M  V30 4351 H 403.044 0.558329 -0.503759 0
M  V30 4352 H 405.015 1.55138 -2.54902 0
M  V30 4353 C 403.764 3.07103 -1.63042 0
M  V30 4354 H 403.087 3.12361 -2.49541 0
M  V30 4355 H 404.527 3.85743 -1.76006 0
M  V30 4356 C 402.986 3.34935 -0.363357 0
M  V30 4357 O 403.516 3.98102 0.536416 0
M  V30 4358 N 401.722 2.89574 -0.244 0
M  V30 4359 H 401.269 2.38348 -0.977133 0
M  V30 4360 H 401.227 3.08566 0.602836 0
M  V30 4361 N 404.999 1.35443 0.805782 0
M  V30 4362 C 406.248 1.28097 1.55801 0
M  V30 4363 C 406.561 -0.142428 1.95081 0
M  V30 4364 O 407.767 -0.33817 2.69386 0
M  V30 4365 C 406.223 2.24653 2.81174 0
M  V30 4366 C 405.831 3.72342 2.49129 0
M  V30 4367 C 407.575 2.2625 3.59181 0
M  V30 4368 C 405.482 4.60719 3.70799 0
M  V30 4369 H 404.412 0.475937 0.584808 0
M  V30 4370 H 407.063 1.60712 0.885661 0
M  V30 4371 H 405.445 1.85011 3.50124 0
M  V30 4372 H 406.619 4.20624 1.88181 0
M  V30 4373 H 404.934 3.73361 1.84366 0
M  V30 4374 H 407.531 2.89495 4.49552 0
M  V30 4375 H 407.874 1.26647 3.96568 0
M  V30 4376 H 408.407 2.64426 2.97193 0
M  V30 4377 H 405.146 5.61324 3.3852 0
M  V30 4378 H 404.666 4.17163 4.3097 0
M  V30 4379 H 406.345 4.76182 4.38018 0
M  V30 4380 N 406.477 -1.02803 1.19454 0
M  V30 4381 C 407.888 -1.57667 0.999899 0
M  V30 4382 C 408.239 -1.91041 -0.446956 0
M  V30 4383 O 407.364 -1.70978 -1.32648 0
M  V30 4384 C 407.959 -2.86477 1.80877 0
M  V30 4385 C 406.518 -3.37911 1.65811 0
M  V30 4386 C 405.665 -2.11343 1.79526 0
M  V30 4387 H 408.616 -0.853214 1.33813 0
M  V30 4388 H 408.637 -3.57408 1.30536 0
M  V30 4389 H 408.149 -2.62155 2.86175 0
M  V30 4390 H 406.25 -3.67218 0.63102 0
M  V30 4391 H 406.363 -4.10885 2.46395 0
M  V30 4392 H 404.727 -2.23254 1.22596 0
M  V30 4393 H 405.51 -1.89461 2.86285 0
M  V30 4394 N 407.956 -0.998596 -1.21925 0
M  V30 4395 C 408.888 -0.511879 -2.23411 0
M  V30 4396 C 409.901 0.396094 -1.57908 0
M  V30 4397 O 411.09 0.197316 -1.77406 0
M  V30 4398 C 408.19 0.276802 -3.37768 0
M  V30 4399 C 407.363 -0.628687 -4.32858 0
M  V30 4400 C 406.422 0.109272 -5.26087 0
M  V30 4401 O 405.448 -0.507237 -5.66935 0
M  V30 4402 N 406.65 1.38983 -5.63617 0
M  V30 4403 H 409.415 -1.38457 -2.658 0
M  V30 4404 H 406.976 -0.873981 -1.36283 0
M  V30 4405 H 408.968 0.77928 -3.97126 0
M  V30 4406 H 407.538 1.05063 -2.94415 0
M  V30 4407 H 406.758 -1.31175 -3.71735 0
M  V30 4408 H 408.046 -1.24514 -4.93329 0
M  V30 4409 H 407.444 1.91194 -5.32411 0
M  V30 4410 H 406.001 1.83739 -6.25367 0
M  V30 4411 N 409.434 1.37368 -0.772513 0
M  V30 4412 C 410.662 2.03942 -0.348588 0
M  V30 4413 C 411.077 1.58264 1.02947 0
M  V30 4414 O 410.434 0.764246 1.65727 0
M  V30 4415 C 410.485 3.5946 -0.38351 0
M  V30 4416 O 410.206 4.03468 -1.70721 0
M  V30 4417 C 411.707 4.4327 0.0519152 0
M  V30 4418 H 408.927 0.654931 -0.145966 0
M  V30 4419 H 411.471 1.75686 -1.04665 0
M  V30 4420 H 409.626 3.86486 0.265978 0
M  V30 4421 H 410.04 4.97991 -1.64636 0
M  V30 4422 H 411.514 5.51995 -0.0236733 0
M  V30 4423 H 411.991 4.2514 1.10238 0
M  V30 4424 H 412.597 4.21471 -0.569415 0
M  V30 4425 N 410.912 0.523116 1.48665 0
M  V30 4426 C 411.842 -0.23231 2.32342 0
M  V30 4427 C 412.823 -0.941637 1.41659 0
M  V30 4428 O 414.008 -0.928751 1.70552 0
M  V30 4429 C 411.138 -1.28387 3.22698 0
M  V30 4430 C 410.092 -0.693098 4.22351 0
M  V30 4431 C 409.418 -1.8468 5.01794 0
M  V30 4432 C 410.718 0.33063 5.21252 0
M  V30 4433 H 412.412 0.466192 2.95748 0
M  V30 4434 H 409.958 0.225643 1.42221 0
M  V30 4435 H 411.911 -1.82024 3.80059 0
M  V30 4436 H 410.635 -2.01186 2.57278 0
M  V30 4437 H 409.294 -0.178299 3.66166 0
M  V30 4438 H 408.942 -2.56301 4.32804 0
M  V30 4439 H 408.642 -1.45747 5.69238 0
M  V30 4440 H 410.166 -2.38709 5.62006 0
M  V30 4441 H 411.58 -0.118407 5.73178 0
M  V30 4442 H 409.977 0.636974 5.9671 0
M  V30 4443 H 411.047 1.23883 4.68808 0
M  V30 4444 N 412.39 -1.55475 0.257931 0
M  V30 4445 C 413.639 -1.98383 -0.364275 0
M  V30 4446 C 413.952 -1.14952 -1.58258 0
M  V30 4447 O 415.158 -1.47924 -2.27664 0
M  V30 4448 C 413.614 -3.53037 -0.699479 0
M  V30 4449 C 413.222 -4.45223 0.498046 0
M  V30 4450 C 414.966 -4.04575 -1.28526 0
M  V30 4451 C 412.873 -5.91238 0.138383 0
M  V30 4452 H 411.803 -0.740911 -0.13988 0
M  V30 4453 H 414.454 -1.79936 0.359883 0
M  V30 4454 H 412.836 -3.6722 -1.48207 0
M  V30 4455 H 414.01 -4.42803 1.27522 0
M  V30 4456 H 412.325 -4.04226 0.999503 0
M  V30 4457 H 414.922 -5.11196 -1.56788 0
M  V30 4458 H 415.265 -3.5258 -2.21344 0
M  V30 4459 H 415.798 -3.93762 -0.565337 0
M  V30 4460 H 412.537 -6.47294 1.03398 0
M  V30 4461 H 412.057 -5.96768 -0.602374 0
M  V30 4462 H 413.736 -6.46413 -0.27553 0
M  V30 4463 N 413.868 0.0150385 -1.57593 0
M  V30 4464 C 414.778 1.02791 -2.10882 0
M  V30 4465 C 415.794 1.38702 -1.0506 0
M  V30 4466 O 416.97 1.47739 -1.36877 0
M  V30 4467 C 414.035 2.30568 -2.58919 0
M  V30 4468 C 413.096 2.01108 -3.79281 0
M  V30 4469 C 412.329 3.22794 -4.25018 0
M  V30 4470 O 412.552 4.33959 -3.70183 0
M  V30 4471 O 411.486 3.07672 -5.17322 0
M  V30 4472 H 415.312 0.604973 -2.97613 0
M  V30 4473 H 412.897 0.23292 -1.47573 0
M  V30 4474 H 414.779 3.05662 -2.90084 0
M  V30 4475 H 413.454 2.72129 -1.75293 0
M  V30 4476 H 412.361 1.23537 -3.53114 0
M  V30 4477 H 413.694 1.64394 -4.63935 0
M  V30 4478 N 415.346 1.54954 0.287554 0
M  V30 4479 C 416.309 1.86076 1.33823 0
M  V30 4480 C 417.309 0.734414 1.43049 0
M  V30 4481 O 418.499 1.00266 1.42452 0
M  V30 4482 C 415.631 2.05305 2.72144 0
M  V30 4483 H 416.824 2.79984 1.07465 0
M  V30 4484 H 414.377 1.47223 0.524902 0
M  V30 4485 H 415.112 1.1373 3.03704 0
M  V30 4486 H 414.897 2.873 2.66836 0
M  V30 4487 H 416.387 2.30706 3.48087 0
M  V30 4488 N 416.824 -0.551391 1.4764 0
M  V30 4489 C 418.073 -1.30467 1.53822 0
M  V30 4490 C 418.386 -1.94495 0.207661 0
M  V30 4491 O 419.592 -2.71099 0.147533 0
M  V30 4492 C 418.048 -2.36616 2.71184 0
M  V30 4493 C 417.656 -1.78754 4.10793 0
M  V30 4494 C 419.4 -3.13088 2.86663 0
M  V30 4495 C 417.307 -2.82717 5.19447 0
M  V30 4496 H 416.237 -0.490584 0.572576 0
M  V30 4497 H 418.888 -0.58494 1.73927 0
M  V30 4498 H 417.27 -3.11529 2.4447 0
M  V30 4499 H 418.444 -1.10173 4.47435 0
M  V30 4500 H 416.759 -1.14846 4.00249 0
M  V30 4501 H 419.356 -3.90736 3.65007 0
M  V30 4502 H 419.699 -3.67635 1.95321 0
M  V30 4503 H 420.232 -2.45288 3.13175 0
M  V30 4504 H 416.971 -2.33018 6.12685 0
M  V30 4505 H 416.491 -3.4969 4.87316 0
M  V30 4506 H 418.17 -3.46102 5.46646 0
M  V30 4507 N 418.302 -1.35869 -0.798587 0
M  V30 4508 C 419.548 -1.2978 -1.55836 0
M  V30 4509 C 419.881 0.125322 -1.93795 0
M  V30 4510 O 419.156 1.07658 -1.61987 0
M  V30 4511 C 419.439 -2.21188 -2.84162 0
M  V30 4512 C 419.292 -3.72155 -2.52628 0
M  V30 4513 C 420.611 -2.11545 -3.85923 0
M  V30 4514 H 417.73 -0.472769 -0.565383 0
M  V30 4515 H 420.372 -1.66341 -0.918192 0
M  V30 4516 H 418.522 -1.90139 -3.38791 0
M  V30 4517 H 420.194 -4.13682 -2.04121 0
M  V30 4518 H 418.437 -3.92042 -1.85704 0
M  V30 4519 H 419.108 -4.31511 -3.44242 0
M  V30 4520 H 421.584 -2.38855 -3.40716 0
M  V30 4521 H 420.46 -2.77688 -4.73477 0
M  V30 4522 H 420.721 -1.09987 -4.282 0
M  V30 4523 N 419.78 1.02168 -1.19998 0
M  V30 4524 C 421.005 1.79833 -1.03319 0
M  V30 4525 C 421.43 1.83504 0.413281 0
M  V30 4526 O 420.788 1.26635 1.29743 0
M  V30 4527 C 420.836 3.22396 -1.61533 0
M  V30 4528 O 419.94 4.03555 -0.849519 0
M  V30 4529 H 419.281 0.554872 -0.364709 0
M  V30 4530 H 421.811 1.28542 -1.59179 0
M  V30 4531 H 421.821 3.73124 -1.65054 0
M  V30 4532 H 420.496 3.19039 -2.66809 0
M  V30 4533 H 419.073 3.62169 -0.888129 0
M  V30 4534 N 421.258 1.00505 1.21394 0
M  V30 4535 C 422.483 0.706367 1.95001 0
M  V30 4536 C 422.908 -0.72463 1.73582 0
M  V30 4537 O 422.266 -1.49702 1.0227 0
M  V30 4538 C 422.314 1.03299 3.45487 0
M  V30 4539 O 421.418 0.138275 4.12168 0
M  V30 4540 H 420.759 0.263175 0.609619 0
M  V30 4541 H 423.289 1.34531 1.54151 0
M  V30 4542 H 423.299 0.979872 3.96059 0
M  V30 4543 H 421.974 2.07567 3.60401 0
M  V30 4544 H 420.551 0.247928 3.72075 0
M  V30 4545 N 422.737 -1.36956 0.779787 0
M  V30 4546 C 423.685 -2.32053 0.15942 0
M  V30 4547 C 424.679 -1.55333 -0.675878 0
M  V30 4548 O 425.885 -1.70668 -0.57204 0
M  V30 4549 H 422.26 -0.751286 0.0327707 0
M  V30 4550 H 424.231 -2.8195 0.977078 0
M  V30 4551 C 422.98 -3.40602 -0.698977 0
M  V30 4552 H 422.303 -3.99746 -0.0655966 0
M  V30 4553 H 423.743 -4.09486 -1.09989 0
M  V30 4554 C 422.202 -2.81359 -1.85307 0
M  V30 4555 O 422.732 -2.72751 -2.94906 0
M  V30 4556 N 420.938 -2.38786 -1.65619 0
M  V30 4557 H 420.485 -2.45987 -0.764725 0
M  V30 4558 H 420.443 -1.99493 -2.43002 0
M  V30 4559 N 424.215 -0.530993 -1.48385 0
M  V30 4560 C 425.163 0.244595 -2.3131 0
M  V30 4561 C 426.157 0.93451 -1.41291 0
M  V30 4562 O 427.363 0.85878 -1.58193 0
M  V30 4563 H 423.738 0.0977472 -0.74562 0
M  V30 4564 H 425.709 -0.474369 -2.94605 0
M  V30 4565 C 424.458 1.2779 -3.23365 0
M  V30 4566 H 423.781 0.756439 -3.92579 0
M  V30 4567 H 425.221 1.79198 -3.84271 0
M  V30 4568 C 423.68 2.31205 -2.45042 0
M  V30 4569 O 424.21 3.37661 -2.17596 0
M  V30 4570 N 422.416 2.04446 -2.0652 0
M  V30 4571 H 421.963 1.17891 -2.2904 0
M  V30 4572 H 421.921 2.73861 -1.54427 0
M  V30 4573 N 425.693 1.55336 -0.266172 0
M  V30 4574 C 426.939 1.99692 0.353681 0
M  V30 4575 C 427.272 1.1543 1.56172 0
M  V30 4576 O 426.547 0.222218 1.93226 0
M  V30 4577 C 426.83 3.52316 0.74466 0
M  V30 4578 C 426.683 4.47337 -0.470101 0
M  V30 4579 C 428.002 4.10588 1.58447 0
M  V30 4580 H 425.121 0.725961 0.12708 0
M  V30 4581 H 427.763 1.86336 -0.371333 0
M  V30 4582 H 425.913 3.63829 1.36239 0
M  V30 4583 H 427.585 4.4778 -1.10864 0
M  V30 4584 H 425.828 4.19364 -1.10978 0
M  V30 4585 H 426.499 5.51788 -0.15291 0
M  V30 4586 H 428.975 4.02297 1.06286 0
M  V30 4587 H 427.851 5.17607 1.82686 0
M  V30 4588 H 428.112 3.60253 2.56262 0
M  V30 4589 N 427.171 -0.0066808 1.57599 0
M  V30 4590 C 428.587 -0.36267 1.55425 0
M  V30 4591 C 428.787 -1.75209 0.995187 0
M  V30 4592 O 427.843 -2.44616 0.626058 0
M  V30 4593 C 429.156 -0.244017 2.99708 0
M  V30 4594 C 430.704 -0.319451 3.11366 0
M  V30 4595 C 431.179 -0.229998 4.57422 0
M  V30 4596 N 432.67 -0.288105 4.62303 0
M  V30 4597 C 433.405 -0.242127 5.72889 0
M  V30 4598 N 432.901 -0.147133 6.92644 0
M  V30 4599 N 434.694 -0.293502 5.61333 0
M  V30 4600 H 426.845 0.902314 1.92281 0
M  V30 4601 H 429.108 0.34525 0.882896 0
M  V30 4602 H 428.814 0.711678 3.44424 0
M  V30 4603 H 428.688 -1.02877 3.629 0
M  V30 4604 H 431.075 -1.26559 2.66584 0
M  V30 4605 H 431.156 0.495055 2.50964 0
M  V30 4606 H 430.8 0.712566 5.02877 0
M  V30 4607 H 430.73 -1.0629 5.15761 0
M  V30 4608 H 433.221 -0.363126 3.76151 0
M  V30 4609 H 433.534 -0.117763 7.7271 0
M  V30 4610 H 431.879 -0.112857 6.94908 0
M  V30 4611 H 435.07 -0.365864 4.66668 0
M  V30 4612 H 435.243 -0.254204 6.47501 0
M  V30 4613 N 428.649 -1.55105 -0.279332 0
M  V30 4614 C 429.596 -1.8755 -1.34513 0
M  V30 4615 C 430.566 -0.726384 -1.49375 0
M  V30 4616 O 431.751 -0.977063 -1.63884 0
M  V30 4617 C 428.891 -2.14738 -2.70151 0
M  V30 4618 C 428.004 -3.42285 -2.63562 0
M  V30 4619 C 427.139 -3.59206 -3.91337 0
M  V30 4620 C 426.178 -4.80467 -3.79233 0
M  V30 4621 N 425.315 -4.94079 -4.98829 0
M  V30 4622 H 430.155 -2.78456 -1.06143 0
M  V30 4623 H 427.692 -1.37867 -0.512936 0
M  V30 4624 H 429.65 -2.28501 -3.49061 0
M  V30 4625 H 428.28 -1.27075 -2.96735 0
M  V30 4626 H 427.332 -3.37029 -1.76397 0
M  V30 4627 H 428.644 -4.31328 -2.50515 0
M  V30 4628 H 427.798 -3.72751 -4.78687 0
M  V30 4629 H 426.537 -2.68337 -4.07243 0
M  V30 4630 H 425.542 -4.66932 -2.90266 0
M  V30 4631 H 426.767 -5.72765 -3.64852 0
M  V30 4632 H 424.713 -4.06139 -5.15158 0
M  V30 4633 H 424.63 -5.77156 -4.8829 0
M  V30 4634 H 425.898 -5.12003 -5.8777 0
M  V30 4635 N 430.127 0.543554 -1.4793 0
M  V30 4636 C 431.352 1.32995 -1.59145 0
M  V30 4637 C 431.777 1.86472 -0.246956 0
M  V30 4638 O 431.135 1.63696 0.779324 0
M  V30 4639 C 431.183 2.46623 -2.63077 0
M  V30 4640 O 430.287 3.49261 -2.19295 0
M  V30 4641 H 429.628 0.394472 -0.534124 0
M  V30 4642 H 432.158 0.655489 -1.93816 0
M  V30 4643 H 432.168 2.93001 -2.83926 0
M  V30 4644 H 430.843 2.07059 -3.60693 0
M  V30 4645 H 429.42 3.09094 -2.08603 0
M  V30 4646 N 431.605 1.3629 0.791371 0
M  V30 4647 C 432.835 1.33368 1.57786 0
M  V30 4648 C 433.243 -0.0875188 1.88997 0
M  V30 4649 O 432.586 -1.05427 1.50435 0
M  V30 4650 C 432.648 2.08802 2.92646 0
M  V30 4651 C 432.312 3.57903 2.84174 0
M  V30 4652 C 433.309 4.52191 2.56553 0
M  V30 4653 C 430.994 4.00762 3.02812 0
M  V30 4654 C 432.988 5.87315 2.47669 0
M  V30 4655 C 430.675 5.35977 2.93551 0
M  V30 4656 C 431.673 6.29066 2.66017 0
M  V30 4657 O 431.361 7.61798 2.56746 0
M  V30 4658 H 431.093 0.459166 0.496128 0
M  V30 4659 H 433.647 1.79952 0.990269 0
M  V30 4660 H 431.877 1.56878 3.53449 0
M  V30 4661 H 433.566 1.98762 3.53904 0
M  V30 4662 H 434.332 4.20393 2.41858 0
M  V30 4663 H 430.211 3.2868 3.2325 0
M  V30 4664 H 433.755 6.59943 2.26099 0
M  V30 4665 H 429.652 5.67384 3.07808 0
M  V30 4666 H 430.42 7.71898 2.72242 0
M  V30 4667 N 433.083 -1.0153 1.20538 0
M  V30 4668 C 434.332 -1.74558 1.01057 0
M  V30 4669 C 434.645 -1.90168 -0.457756 0
M  V30 4670 O 435.851 -2.60301 -0.771722 0
M  V30 4671 C 434.307 -3.13963 1.75941 0
M  V30 4672 C 433.915 -3.06361 3.26875 0
M  V30 4673 C 435.659 -3.91191 1.64832 0
M  V30 4674 C 433.566 -4.40782 3.94291 0
M  V30 4675 H 432.496 -0.654417 0.374505 0
M  V30 4676 H 435.147 -1.13521 1.44171 0
M  V30 4677 H 433.529 -3.75549 1.25614 0
M  V30 4678 H 434.703 -2.54074 3.84425 0
M  V30 4679 H 433.018 -2.42625 3.38411 0
M  V30 4680 H 435.615 -4.90644 2.12539 0
M  V30 4681 H 435.958 -4.11884 0.604745 0
M  V30 4682 H 436.491 -3.36236 2.12579 0
M  V30 4683 H 433.23 -4.25292 4.98805 0
M  V30 4684 H 432.75 -4.9307 3.41529 0
M  V30 4685 H 434.429 -5.09621 3.98617 0
M  V30 4686 N 434.561 -1.01147 -1.20859 0
M  V30 4687 C 435.524 -0.582224 -2.21682 0
M  V30 4688 C 436.524 0.344887 -1.57058 0
M  V30 4689 O 437.714 0.134281 -1.73682 0
M  V30 4690 C 434.846 0.150496 -3.40568 0
M  V30 4691 H 436.039 -1.47408 -2.61172 0
M  V30 4692 H 433.592 -0.800695 -1.34233 0
M  V30 4693 H 434.327 1.0575 -3.06574 0
M  V30 4694 H 434.112 -0.515444 -3.88697 0
M  V30 4695 H 435.602 0.438344 -4.15293 0
M  V30 4696 N 436.039 1.36541 -0.78704 0
M  V30 4697 C 436.986 2.30082 -0.181901 0
M  V30 4698 C 437.956 1.5186 0.672896 0
M  V30 4699 O 439.141 1.80374 0.622072 0
M  V30 4700 C 436.281 3.3835 0.679197 0
M  V30 4701 C 435.394 4.31565 -0.193882 0
M  V30 4702 C 434.529 5.26915 0.673364 0
M  V30 4703 C 433.568 6.11769 -0.201315 0
M  V30 4704 N 432.705 6.99315 0.624777 0
M  V30 4705 H 437.545 2.81248 -0.985064 0
M  V30 4706 H 435.082 1.38437 -0.497342 0
M  V30 4707 H 437.04 3.99767 1.19341 0
M  V30 4708 H 435.67 2.8851 1.44781 0
M  V30 4709 H 434.722 3.71323 -0.826044 0
M  V30 4710 H 436.034 4.91191 -0.867937 0
M  V30 4711 H 435.188 5.9361 1.25348 0
M  V30 4712 H 433.927 4.67737 1.38105 0
M  V30 4713 H 432.932 5.44039 -0.793849 0
M  V30 4714 H 434.157 6.73022 -0.906568 0
M  V30 4715 H 432.103 6.42648 1.3168 0
M  V30 4716 H 432.02 7.56 0.00835237 0
M  V30 4717 H 433.288 7.70382 1.18879 0
M  V30 4718 N 437.518 0.538854 1.48102 0
M  V30 4719 C 438.45 -0.256278 2.27763 0
M  V30 4720 C 439.463 -0.89633 1.35904 0
M  V30 4721 O 440.652 -0.773275 1.60881 0
M  V30 4722 C 437.752 -1.37896 3.09577 0
M  V30 4723 C 436.925 -0.839159 4.29275 0
M  V30 4724 C 435.984 -1.84405 4.9283 0
M  V30 4725 O 435.01 -1.39746 5.51779 0
M  V30 4726 N 436.212 -3.17666 4.85869 0
M  V30 4727 H 438.977 0.426968 2.96643 0
M  V30 4728 H 436.538 0.373747 1.57527 0
M  V30 4729 H 438.53 -2.04955 3.48963 0
M  V30 4730 H 437.1 -1.96572 2.4306 0
M  V30 4731 H 436.32 0.00769287 3.94199 0
M  V30 4732 H 437.608 -0.457548 5.06739 0
M  V30 4733 H 437.006 -3.56609 4.39143 0
M  V30 4734 H 435.563 -3.80334 5.29329 0
M  V30 4735 N 438.996 -1.55193 0.274407 0
M  V30 4736 C 440.245 -1.98758 -0.343213 0
M  V30 4737 C 440.558 -1.16624 -1.5703 0
M  V30 4738 O 441.764 -1.5033 -2.26082 0
M  V30 4739 C 440.22 -3.53759 -0.661996 0
M  V30 4740 C 439.828 -4.4467 0.54524 0
M  V30 4741 C 441.572 -4.05916 -1.24228 0
M  V30 4742 C 439.479 -5.91058 0.201084 0
M  V30 4743 H 438.409 -0.742353 -0.132014 0
M  V30 4744 H 441.06 -1.79545 0.378948 0
M  V30 4745 H 439.442 -3.68772 -1.44304 0
M  V30 4746 H 440.616 -4.41426 1.32212 0
M  V30 4747 H 438.931 -4.03143 1.04232 0
M  V30 4748 H 441.528 -5.12831 -1.51357 0
M  V30 4749 H 441.871 -3.54908 -2.17592 0
M  V30 4750 H 442.404 -3.9434 -0.523542 0
M  V30 4751 H 439.143 -6.46161 1.10258 0
M  V30 4752 H 438.663 -5.97373 -0.539045 0
M  V30 4753 H 440.342 -6.46669 -0.206954 0
M  V30 4754 N 440.474 -0.00167713 -1.576 0
M  V30 4755 C 441.723 0.682021 -1.89819 0
M  V30 4756 C 442.036 1.74844 -0.876871 0
M  V30 4757 O 443.242 2.48688 -1.08934 0
M  V30 4758 C 441.698 1.26425 -3.36964 0
M  V30 4759 C 441.306 0.232568 -4.47396 0
M  V30 4760 C 443.05 1.92604 -3.78291 0
M  V30 4761 C 440.957 0.824882 -5.85619 0
M  V30 4762 H 439.887 0.258499 -0.708304 0
M  V30 4763 H 442.538 -0.0624957 -1.83394 0
M  V30 4764 H 440.92 2.05949 -3.38232 0
M  V30 4765 H 442.094 -0.5382 -4.57646 0
M  V30 4766 H 440.409 -0.32888 -4.15099 0
M  V30 4767 H 443.006 2.37827 -4.78897 0
M  V30 4768 H 443.349 2.75732 -3.11894 0
M  V30 4769 H 443.882 1.19812 -3.79328 0
M  V30 4770 H 440.621 0.0323542 -6.55492 0
M  V30 4771 H 440.141 1.56477 -5.79029 0
M  V30 4772 H 441.82 1.32301 -6.33329 0
M  V30 4773 N 441.952 1.55251 0.271103 0
M  V30 4774 C 442.9 1.89054 1.35504 0
M  V30 4775 C 443.894 0.767064 1.51038 0
M  V30 4776 O 445.1 0.951429 1.528 0
M  V30 4777 H 441.475 0.600072 0.45323 0
M  V30 4778 H 443.446 2.79598 1.04247 0
M  V30 4779 C 442.195 2.18068 2.70817 0
M  V30 4780 H 441.518 3.04005 2.59656 0
M  V30 4781 H 442.958 2.4564 3.45597 0
M  V30 4782 C 441.417 0.988901 3.2206 0
M  V30 4783 O 441.947 0.224501 4.01072 0
M  V30 4784 N 440.153 0.786085 2.79766 0
M  V30 4785 H 439.7 1.40937 2.15626 0
M  V30 4786 H 439.658 -0.00969349 3.14399 0
M  V30 4787 N 443.43 -0.535701 1.48216 0
M  V30 4788 C 444.676 -1.29375 1.56173 0
M  V30 4789 C 445.009 -1.92804 0.232429 0
M  V30 4790 O 444.284 -1.78992 -0.761048 0
M  V30 4791 C 444.567 -2.38747 2.69577 0
M  V30 4792 C 444.42 -1.80046 4.12193 0
M  V30 4793 C 445.739 -3.40551 2.78771 0
M  V30 4794 H 442.858 -0.469027 0.568491 0
M  V30 4795 H 445.5 -0.597358 1.80365 0
M  V30 4796 H 443.65 -2.98147 2.4908 0
M  V30 4797 H 445.322 -1.24742 4.44114 0
M  V30 4798 H 443.565 -1.10609 4.19462 0
M  V30 4799 H 444.236 -2.59212 4.87353 0
M  V30 4800 H 446.712 -2.91099 2.97322 0
M  V30 4801 H 445.588 -4.1448 3.59857 0
M  V30 4802 H 445.849 -4.00746 1.86696 0
M  V30 4803 N 444.908 -1.36708 -0.784132 0
M  V30 4804 C 445.838 -1.34153 -1.91116 0
M  V30 4805 C 446.819 -0.212121 -1.68772 0
M  V30 4806 O 448.004 -0.410581 -1.8981 0
M  V30 4807 C 445.134 -1.13535 -3.28218 0
M  V30 4808 C 444.088 -2.23356 -3.65097 0
M  V30 4809 C 443.414 -1.87875 -5.00607 0
M  V30 4810 C 444.714 -3.65473 -3.73131 0
M  V30 4811 H 446.408 -2.28459 -1.93512 0
M  V30 4812 H 443.954 -1.09973 -0.929618 0
M  V30 4813 H 445.907 -1.10381 -4.06687 0
M  V30 4814 H 444.631 -0.156804 -3.26223 0
M  V30 4815 H 443.29 -2.25645 -2.88929 0
M  V30 4816 H 442.938 -0.885814 -4.95139 0
M  V30 4817 H 442.638 -2.61406 -5.26252 0
M  V30 4818 H 444.162 -1.86286 -5.81489 0
M  V30 4819 H 445.576 -3.65382 -4.41779 0
M  V30 4820 H 443.973 -4.37953 -4.10265 0
M  V30 4821 H 445.043 -3.99995 -2.74102 0
M  V30 4822 N 446.386 1.0089 -1.21074 0
M  V30 4823 C 447.333 2.09588 -0.966512 0
M  V30 4824 C 448.303 1.65761 0.106089 0
M  V30 4825 O 449.488 1.90758 -0.0402287 0
M  V30 4826 C 446.628 3.40958 -0.533058 0
M  V30 4827 C 445.741 3.9822 -1.67467 0
M  V30 4828 C 444.876 5.17682 -1.19076 0
M  V30 4829 C 443.915 5.67043 -2.30496 0
M  V30 4830 N 443.052 6.77759 -1.83267 0
M  V30 4831 H 447.892 2.29815 -1.89708 0
M  V30 4832 H 445.429 1.12689 -0.945489 0
M  V30 4833 H 447.387 4.1637 -0.263019 0
M  V30 4834 H 446.017 3.20781 0.360505 0
M  V30 4835 H 445.069 3.1983 -2.05944 0
M  V30 4836 H 446.381 4.3085 -2.51336 0
M  V30 4837 H 445.535 6.00326 -0.877151 0
M  V30 4838 H 444.274 4.86635 -0.322066 0
M  V30 4839 H 443.279 4.82999 -2.62664 0
M  V30 4840 H 444.504 6.00121 -3.17855 0
M  V30 4841 H 442.45 6.48527 -0.987356 0
M  V30 4842 H 442.367 7.09624 -2.60711 0
M  V30 4843 H 443.635 7.63949 -1.54928 0
M  V30 4844 N 447.864 1.01787 1.20321 0
M  V30 4845 C 448.774 0.598898 2.26827 0
M  V30 4846 C 449.79 -0.36418 1.70146 0
M  V30 4847 O 450.966 -0.224812 2.00141 0
M  V30 4848 C 448.031 -0.0549769 3.46656 0
M  V30 4849 C 447.092 0.954205 4.18561 0
M  V30 4850 C 446.325 0.331439 5.3267 0
M  V30 4851 O 446.548 -0.86851 5.63749 0
M  V30 4852 O 445.482 1.0488 5.92692 0
M  V30 4853 H 449.308 1.48562 2.64883 0
M  V30 4854 H 446.893 0.787434 1.26964 0
M  V30 4855 H 448.775 -0.420102 4.19301 0
M  V30 4856 H 447.45 -0.915876 3.10473 0
M  V30 4857 H 446.357 1.37072 3.48083 0
M  V30 4858 H 447.69 1.78511 4.58688 0
M  V30 4859 N 449.342 -1.36122 0.79427 0
M  V30 4860 C 450.274 -2.28683 0.153903 0
M  V30 4861 C 451.287 -1.49707 -0.639669 0
M  V30 4862 O 452.476 -1.7209 -0.474054 0
M  V30 4863 C 449.576 -3.29202 -0.804921 0
M  V30 4864 C 448.749 -4.37358 -0.060366 0
M  V30 4865 C 447.808 -5.17811 -0.935849 0
M  V30 4866 O 446.834 -5.67853 -0.391309 0
M  V30 4867 N 448.036 -5.34721 -2.25951 0
M  V30 4868 H 450.801 -2.84278 0.949008 0
M  V30 4869 H 448.362 -1.4834 0.648611 0
M  V30 4870 H 450.354 -3.79914 -1.39455 0
M  V30 4871 H 448.924 -2.74212 -1.50088 0
M  V30 4872 H 448.144 -3.87746 0.710382 0
M  V30 4873 H 449.432 -5.06777 0.45324 0
M  V30 4874 H 448.83 -4.95687 -2.72601 0
M  V30 4875 H 447.387 -5.88657 -2.79867 0
M  V30 4876 N 450.82 -0.546701 -1.47814 0
M  V30 4877 C 451.73 0.21026 -2.33656 0
M  V30 4878 C 452.746 0.922413 -1.47538 0
M  V30 4879 O 453.922 0.893652 -1.80488 0
M  V30 4880 C 450.987 1.23348 -3.24016 0
M  V30 4881 C 450.048 0.529883 -4.26017 0
M  V30 4882 C 449.281 1.50435 -5.12059 0
M  V30 4883 O 449.504 2.73837 -5.00369 0
M  V30 4884 O 448.438 1.03459 -5.92942 0
M  V30 4885 H 452.264 -0.493605 -2.99662 0
M  V30 4886 H 449.849 -0.307427 -1.46203 0
M  V30 4887 H 451.731 1.82438 -3.79861 0
M  V30 4888 H 450.406 1.91945 -2.60651 0
M  V30 4889 H 449.313 -0.101948 -3.73961 0
M  V30 4890 H 450.646 -0.11445 -4.92067 0
M  V30 4891 N 452.299 1.55045 -0.282633 0
M  V30 4892 C 453.524 2.04628 0.337977 0
M  V30 4893 C 453.949 1.15937 1.48123 0
M  V30 4894 O 453.307 0.159532 1.80597 0
M  V30 4895 C 453.355 3.51854 0.78936 0
M  V30 4896 O 452.459 3.66236 1.89592 0
M  V30 4897 H 451.8 0.660434 0.0687261 0
M  V30 4898 H 454.33 2.00261 -0.419124 0
M  V30 4899 H 454.34 3.93361 1.08311 0
M  V30 4900 H 453.015 4.15873 -0.0470419 0
M  V30 4901 H 451.592 3.36633 1.60413 0
M  V30 4902 N 453.777 0.010035 1.57597 0
M  V30 4903 C 455.188 -0.531426 1.78977 0
M  V30 4904 C 455.539 -1.73375 0.918454 0
M  V30 4905 O 454.664 -2.16047 0.123635 0
M  V30 4906 C 455.259 -0.97086 3.24592 0
M  V30 4907 C 453.818 -1.45756 3.47033 0
M  V30 4908 C 452.965 -0.413384 2.74201 0
M  V30 4909 H 455.916 0.236166 1.56933 0
M  V30 4910 H 455.937 -1.83633 3.33255 0
M  V30 4911 H 455.449 -0.0955893 3.87982 0
M  V30 4912 H 453.55 -2.35339 2.88871 0
M  V30 4913 H 453.663 -1.4781 4.55729 0
M  V30 4914 H 452.027 -0.877266 2.39115 0
M  V30 4915 H 452.81 0.453092 3.40297 0
M  V30 4916 N 455.255 -1.55392 -0.262866 0
M  V30 4917 C 456.501 -1.76737 -0.99458 0
M  V30 4918 C 456.834 -0.572453 -1.85571 0
M  V30 4919 O 456.109 0.429732 -1.89693 0
M  V30 4920 C 456.392 -3.07824 -1.8686 0
M  V30 4921 C 456.245 -4.3769 -1.03672 0
M  V30 4922 C 457.564 -3.35021 -2.85393 0
M  V30 4923 H 454.683 -0.643005 -0.360157 0
M  V30 4924 H 457.325 -1.88126 -0.266216 0
M  V30 4925 H 455.475 -2.98245 -2.48962 0
M  V30 4926 H 457.147 -4.59238 -0.43563 0
M  V30 4927 H 455.39 -4.32461 -0.340513 0
M  V30 4928 H 456.061 -5.25759 -1.6817 0
M  V30 4929 H 458.537 -3.44458 -2.33426 0
M  V30 4930 H 457.413 -4.27989 -3.43681 0
M  V30 4931 H 457.674 -2.55153 -3.61039 0
M  V30 4932 N 456.733 0.527833 -1.48498 0
M  V30 4933 C 457.68 1.6322 -1.6318 0
M  V30 4934 C 458.65 1.59199 -0.473815 0
M  V30 4935 O 459.835 1.77591 -0.697563 0
M  V30 4936 C 456.975 3.01474 -1.67951 0
M  V30 4937 C 456.088 3.15713 -2.94871 0
M  V30 4938 C 455.223 4.44539 -2.90789 0
M  V30 4939 C 454.262 4.52315 -4.12404 0
M  V30 4940 N 453.399 5.72533 -4.06387 0
M  V30 4941 H 458.239 1.50011 -2.57489 0
M  V30 4942 H 455.776 0.730298 -1.27691 0
M  V30 4943 H 457.734 3.81572 -1.68698 0
M  V30 4944 H 456.364 3.1345 -0.771306 0
M  V30 4945 H 455.416 2.28854 -3.03859 0
M  V30 4946 H 456.728 3.1732 -3.8485 0
M  V30 4947 H 455.882 5.3293 -2.89949 0
M  V30 4948 H 454.621 4.45457 -1.98542 0
M  V30 4949 H 453.626 3.62331 -4.13517 0
M  V30 4950 H 454.851 4.53134 -5.05812 0
M  V30 4951 H 452.797 5.74344 -3.16962 0
M  V30 4952 H 452.714 5.75643 -4.90073 0
M  V30 4953 H 453.982 6.63204 -4.0961 0
M  V30 4954 N 458.211 1.37122 0.776871 0
M  V30 4955 C 459.457 1.32243 1.53752 0
M  V30 4956 C 459.79 -0.0944745 1.9397 0
M  V30 4957 O 459.065 -1.05068 1.6368 0
M  V30 4958 C 459.348 2.25681 2.80607 0
M  V30 4959 C 459.201 3.76127 2.46676 0
M  V30 4960 C 460.52 2.17657 3.82509 0
M  V30 4961 H 457.639 0.481704 0.557791 0
M  V30 4962 H 460.281 1.6778 0.891612 0
M  V30 4963 H 458.431 1.95505 3.35723 0
M  V30 4964 H 460.103 4.16877 1.97513 0
M  V30 4965 H 458.346 3.94946 1.79443 0
M  V30 4966 H 459.017 4.36933 3.37333 0
M  V30 4967 H 461.493 2.44245 3.36873 0
M  V30 4968 H 460.369 2.85185 4.69 0
M  V30 4969 H 460.63 1.16785 4.26396 0
M  V30 4970 N 459.689 -1.00246 1.21608 0
M  V30 4971 C 460.935 -1.74319 1.03638 0
M  V30 4972 C 461.268 -1.89408 -0.428749 0
M  V30 4973 O 460.543 -1.43026 -1.3181 0
M  V30 4974 C 460.826 -3.15431 1.73711 0
M  V30 4975 C 460.679 -3.08049 3.27759 0
M  V30 4976 C 461.998 -4.14407 1.48173 0
M  V30 4977 H 459.117 -0.632741 0.377899 0
M  V30 4978 H 461.759 -1.16853 1.49818 0
M  V30 4979 H 459.909 -3.64493 1.34452 0
M  V30 4980 H 461.581 -2.66681 3.76403 0
M  V30 4981 H 459.824 -2.45088 3.57931 0
M  V30 4982 H 460.495 -4.07862 3.71958 0
M  V30 4983 H 462.971 -3.74061 1.82258 0
M  V30 4984 H 461.847 -5.11279 1.99713 0
M  V30 4985 H 462.108 -4.40174 0.412273 0
M  V30 4986 N 461.167 -1.02423 -1.1978 0
M  V30 4987 C 462.415 -0.716569 -1.8897 0
M  V30 4988 C 462.736 0.756769 -1.79716 0
M  V30 4989 O 462.006 1.5449 -1.20456 0
M  V30 4990 H 460.586 -0.262062 -0.699523 0
M  V30 4991 H 463.248 -1.29747 -1.45436 0
M  V30 4992 H 462.344 -1.00675 -2.95417 0
M  V30 4993 N 462.645 1.35699 -0.801477 0
M  V30 4994 C 463.891 1.99208 -0.380022 0
M  V30 4995 C 464.224 1.63445 1.04878 0
M  V30 4996 O 463.499 0.895223 1.72673 0
M  V30 4997 C 463.782 3.55755 -0.557708 0
M  V30 4998 C 463.635 4.01332 -2.03107 0
M  V30 4999 C 464.954 4.40096 0.0197968 0
M  V30 5000 H 462.073 0.723667 -0.139552 0
M  V30 5001 H 464.715 1.60928 -1.01006 0
M  V30 5002 H 462.865 3.88494 -0.0213741 0
M  V30 5003 H 464.537 3.79026 -2.62939 0
M  V30 5004 H 462.78 3.52429 -2.52936 0
M  V30 5005 H 463.451 5.10234 -2.1063 0
M  V30 5006 H 465.927 4.13786 -0.438179 0
M  V30 5007 H 464.803 5.48735 -0.134477 0
M  V30 5008 H 465.064 4.2786 1.11303 0
M  V30 5009 N 464.123 0.554532 1.47522 0
M  V30 5010 C 465.353 0.0342074 2.06572 0
M  V30 5011 C 465.761 -1.26375 1.40805 0
M  V30 5012 O 465.104 -1.7683 0.49769 0
M  V30 5013 C 465.166 -0.235096 3.5873 0
M  V30 5014 C 464.83 0.973024 4.46521 0
M  V30 5015 C 465.827 1.8779 4.848 0
M  V30 5016 C 463.512 1.18694 4.88075 0
M  V30 5017 C 465.506 2.98039 5.63428 0
M  V30 5018 C 463.193 2.29254 5.66468 0
M  V30 5019 C 464.191 3.18757 6.04055 0
M  V30 5020 O 463.879 4.27401 6.8087 0
M  V30 5021 H 463.611 0.041587 0.67472 0
M  V30 5022 H 466.165 0.766748 1.90552 0
M  V30 5023 H 464.395 -1.02191 3.72953 0
M  V30 5024 H 466.084 -0.700477 3.9981 0
M  V30 5025 H 466.85 1.72467 4.53299 0
M  V30 5026 H 462.729 0.49947 4.58286 0
M  V30 5027 H 466.273 3.67926 5.92685 0
M  V30 5028 H 462.17 2.4455 5.97382 0
M  V30 5029 H 462.938 4.25415 6.9926 0
M  V30 5030 N 465.601 -1.54893 0.290851 0
M  V30 5031 C 467.017 -1.59476 -0.0628432 0
M  V30 5032 C 467.217 -1.30795 -1.5328 0
M  V30 5033 O 466.273 -1.07644 -2.28406 0
M  V30 5034 C 467.586 -2.98928 0.325962 0
M  V30 5035 C 469.134 -3.11799 0.273882 0
M  V30 5036 C 469.609 -4.53544 0.637359 0
M  V30 5037 N 471.1 -4.59433 0.589507 0
M  V30 5038 C 471.835 -5.67164 0.84335 0
M  V30 5039 N 471.331 -6.82975 1.16263 0
M  V30 5040 N 473.124 -5.56786 0.771091 0
M  V30 5041 H 465.275 -1.71798 1.24896 0
M  V30 5042 H 467.538 -0.801879 0.505663 0
M  V30 5043 H 467.244 -3.24805 1.34887 0
M  V30 5044 H 467.118 -3.75793 -0.325441 0
M  V30 5045 H 469.505 -2.85677 -0.739765 0
M  V30 5046 H 469.586 -2.37112 0.959766 0
M  V30 5047 H 469.23 -4.80394 1.64877 0
M  V30 5048 H 469.16 -5.26553 -0.0704866 0
M  V30 5049 H 471.651 -3.76245 0.353252 0
M  V30 5050 H 471.964 -7.61048 1.34257 0
M  V30 5051 H 470.309 -6.84552 1.20057 0
M  V30 5052 H 473.5 -4.65187 0.521383 0
M  V30 5053 H 473.673 -6.40664 0.972295 0
M  V30 5054 N 467.08 -0.0183926 -1.57589 0
M  V30 5055 C 468.01 0.965596 -2.12599 0
M  V30 5056 C 468.991 1.34641 -1.0395 0
M  V30 5057 O 470.176 1.42693 -1.31729 0
M  V30 5058 C 467.306 2.25149 -2.64434 0
M  V30 5059 C 466.26 2.01175 -3.77773 0
M  V30 5060 C 465.586 3.35937 -4.15994 0
M  V30 5061 C 466.886 1.35953 -5.04296 0
M  V30 5062 H 468.58 0.507504 -2.95067 0
M  V30 5063 H 466.126 0.242671 -1.41941 0
M  V30 5064 H 468.079 2.94357 -3.01549 0
M  V30 5065 H 466.803 2.73105 -1.79112 0
M  V30 5066 H 465.462 1.34388 -3.4108 0
M  V30 5067 H 465.11 3.81631 -3.27669 0
M  V30 5068 H 464.81 3.20705 -4.92364 0
M  V30 5069 H 466.334 4.0643 -4.55683 0
M  V30 5070 H 467.748 1.95144 -5.39065 0
M  V30 5071 H 466.145 1.31152 -5.85593 0
M  V30 5072 H 467.215 0.331071 -4.83768 0
M  V30 5073 N 468.558 1.5553 0.254621 0
M  V30 5074 C 469.807 1.76202 0.981612 0
M  V30 5075 C 470.12 0.580883 1.86776 0
M  V30 5076 O 471.326 0.670448 2.63092 0
M  V30 5077 C 469.782 3.11921 1.79537 0
M  V30 5078 C 469.39 4.37659 0.956991 0
M  V30 5079 C 471.134 3.41936 2.51555 0
M  V30 5080 C 469.041 5.64411 1.76619 0
M  V30 5081 H 467.971 0.656841 0.370237 0
M  V30 5082 H 470.622 1.81969 0.236556 0
M  V30 5083 H 469.004 3.00241 2.58208 0
M  V30 5084 H 470.178 4.60307 0.21315 0
M  V30 5085 H 468.493 4.14922 0.350497 0
M  V30 5086 H 471.09 4.33849 3.12536 0
M  V30 5087 H 471.433 2.62905 3.22779 0
M  V30 5088 H 471.966 3.54797 1.799 0
M  V30 5089 H 468.705 6.46241 1.09783 0
M  V30 5090 H 468.225 5.45877 2.48551 0
M  V30 5091 H 469.904 6.03386 2.33527 0
M  V30 5092 N 470.036 -0.519951 1.48776 0
M  V30 5093 C 470.969 -1.64053 1.58625 0
M  V30 5094 C 471.947 -1.5664 0.43618 0
M  V30 5095 O 473.131 -1.76969 0.649159 0
M  V30 5096 C 470.258 -3.02497 1.52359 0
M  V30 5097 C 469.304 -3.28235 2.72331 0
M  V30 5098 S 470.137 -3.13414 4.34203 0
M  V30 5099 C 471.293 -4.54287 4.30551 0
M  V30 5100 H 471.526 -1.5545 2.53422 0
M  V30 5101 H 469.059 -0.703681 1.37433 0
M  V30 5102 H 471.017 -3.82336 1.4943 0
M  V30 5103 H 469.678 -3.08531 0.588824 0
M  V30 5104 H 468.871 -4.29256 2.64113 0
M  V30 5105 H 468.473 -2.56085 2.72574 0
M  V30 5106 H 470.765 -5.46006 4.01103 0
M  V30 5107 H 471.708 -4.67558 5.31785 0
M  V30 5108 H 472.116 -4.34079 3.60881 0
M  V30 5109 N 471.514 -1.37532 -0.769588 0
M  V30 5110 C 472.461 -1.3347 -1.88293 0
M  V30 5111 C 473.431 -0.199891 -1.64893 0
M  V30 5112 O 474.616 -0.389594 -1.8678 0
M  V30 5113 C 471.756 -1.14968 -3.25387 0
M  V30 5114 C 470.869 -2.37698 -3.60727 0
M  V30 5115 C 470.004 -2.12051 -4.8704 0
M  V30 5116 C 469.043 -3.30636 -5.15117 0
M  V30 5117 N 468.18 -3.04527 -6.3262 0
M  V30 5118 H 473.02 -2.28658 -1.911 0
M  V30 5119 H 470.557 -1.13622 -0.934257 0
M  V30 5120 H 472.515 -1.02261 -4.04473 0
M  V30 5121 H 471.145 -0.234263 -3.21949 0
M  V30 5122 H 470.197 -2.61137 -2.76608 0
M  V30 5123 H 471.509 -3.26131 -3.77413 0
M  V30 5124 H 470.663 -1.96388 -5.74035 0
M  V30 5125 H 469.402 -1.20959 -4.72462 0
M  V30 5126 H 468.407 -3.46836 -4.26597 0
M  V30 5127 H 469.632 -4.22582 -5.31603 0
M  V30 5128 H 467.578 -2.16067 -6.19396 0
M  V30 5129 H 467.495 -3.86503 -6.49732 0
M  V30 5130 H 468.763 -2.92485 -7.22546 0
M  V30 5131 N 472.992 0.995999 -1.22138 0
M  V30 5132 C 474.217 1.77601 -1.0711 0
M  V30 5133 C 474.642 1.84339 0.374264 0
M  V30 5134 O 474 1.29359 1.27028 0
M  V30 5135 C 474.048 3.18897 -1.68336 0
M  V30 5136 O 473.152 4.01663 -0.934928 0
M  V30 5137 H 472.493 0.547011 -0.376397 0
M  V30 5138 H 475.023 1.25137 -1.6187 0
M  V30 5139 H 475.033 3.69539 -1.72931 0
M  V30 5140 H 473.708 3.13308 -2.73516 0
M  V30 5141 H 472.285 3.60204 -0.964751 0
M  V30 5142 N 474.47 1.03057 1.19235 0
M  V30 5143 C 475.418 0.606391 2.24557 0
M  V30 5144 C 476.412 -0.361826 1.65491 0
M  V30 5145 O 477.618 -0.23022 1.78522 0
M  V30 5146 H 473.993 0.177838 0.730669 0
M  V30 5147 H 475.964 1.50529 2.5765 0
M  V30 5148 C 474.713 -0.0252127 3.47691 0
M  V30 5149 H 474.036 0.710838 3.9343 0
M  V30 5150 H 475.476 -0.284931 4.23042 0
M  V30 5151 C 473.935 -1.27229 3.11953 0
M  V30 5152 O 474.465 -2.36416 3.24762 0
M  V30 5153 N 472.671 -1.16169 2.6637 0
M  V30 5154 H 472.218 -0.273189 2.56147 0
M  V30 5155 H 472.176 -1.99703 2.42829 0
M  V30 5156 N 475.948 -1.35272 0.808662 0
M  V30 5157 C 477.173 -2.03477 0.401475 0
M  V30 5158 C 477.598 -1.60537 -0.980279 0
M  V30 5159 O 476.956 -0.78304 -1.63518 0
M  V30 5160 C 477.004 -3.57181 0.495354 0
M  V30 5161 O 476.108 -4.09474 -0.490397 0
M  V30 5162 H 475.449 -0.642561 0.167366 0
M  V30 5163 H 477.979 -1.72824 1.09512 0
M  V30 5164 H 477.989 -4.06356 0.365912 0
M  V30 5165 H 476.664 -3.87784 1.5032 0
M  V30 5166 H 475.241 -3.71516 -0.321023 0
M  V30 5167 N 477.426 -0.562348 -1.47226 0
M  V30 5168 C 478.703 0.0256985 -1.95583 0
M  V30 5169 C 479.083 1.48032 -1.50498 0
M  V30 5170 O 478.431 2.15973 -0.746181 0
M  V30 5171 C 478.641 -0.125129 -3.48776 0
M  V30 5172 C 479.989 0.0175728 -4.24596 0
M  V30 5173 O 481.013 -0.0529341 -3.56161 0
M  V30 5174 O 479.872 0.170145 -5.46235 0
M  V30 5175 H 476.966 0.0612565 -0.824728 0
M  V30 5176 H 479.512 -0.629233 -1.57603 0
M  V30 5177 H 478.284 -1.13715 -3.74412 0
M  V30 5178 H 477.907 0.567178 -3.93534 0
M  V30 5179 N 478.904 1.54736 -0.299062 0
M  V30 5180 C 479.852 2.24897 0.593658 0
M  V30 5181 C 480.846 1.25429 1.13859 0
M  V30 5182 O 482.052 1.43286 1.08945 0
M  V30 5183 H 478.427 0.72207 0.210046 0
M  V30 5184 H 480.398 2.98393 -0.0206421 0
M  V30 5185 C 479.147 3.00159 1.75499 0
M  V30 5186 H 478.47 3.76501 1.34489 0
M  V30 5187 H 479.91 3.52535 2.35574 0
M  V30 5188 C 478.369 2.07015 2.65794 0
M  V30 5189 O 478.899 1.63692 3.66835 0
M  V30 5190 N 477.105 1.73012 2.33485 0
M  V30 5191 H 476.652 2.08439 1.51364 0
M  V30 5192 H 476.61 1.10965 2.94167 0
M  V30 5193 N 480.382 0.0267497 1.57577 0
M  V30 5194 C 481.629 -0.652404 1.91703 0
M  V30 5195 C 481.957 -1.72271 0.902936 0
M  V30 5196 O 481.212 -1.955 -0.0884843 0
M  V30 5197 C 481.511 -1.30914 3.3256 0
M  V30 5198 C 481.177 -0.369441 4.49384 0
M  V30 5199 C 479.839 -0.110791 4.81072 0
M  V30 5200 C 482.191 0.275971 5.20469 0
M  V30 5201 C 479.519 0.801116 5.81205 0
M  V30 5202 C 481.871 1.17592 6.21575 0
M  V30 5203 C 480.535 1.44348 6.51705 0
M  V30 5204 H 479.805 -0.238732 0.70149 0
M  V30 5205 H 482.452 0.0880091 1.91298 0
M  V30 5206 H 480.757 -2.12425 3.29216 0
M  V30 5207 H 482.454 -1.84115 3.56234 0
M  V30 5208 H 479.044 -0.581211 4.24641 0
M  V30 5209 H 483.228 0.0892 4.9622 0
M  V30 5210 H 478.484 1.01614 6.02897 0
M  V30 5211 H 482.658 1.68223 6.75777 0
M  V30 5212 H 480.285 2.15176 7.29111 0
M  V30 5213 N 481.861 -1.55662 -0.24637 0
M  V30 5214 C 483.277 -1.48098 -0.594907 0
M  V30 5215 C 483.477 -0.717044 -1.8831 0
M  V30 5216 O 482.533 -0.246618 -2.51293 0
M  V30 5217 C 483.846 -2.92507 -0.697146 0
M  V30 5218 C 485.394 -3.02881 -0.789436 0
M  V30 5219 C 485.869 -4.48598 -0.923232 0
M  V30 5220 N 487.36 -4.52538 -0.988088 0
M  V30 5221 C 488.095 -5.62536 -1.11089 0
M  V30 5222 N 487.591 -6.82342 -1.19919 0
M  V30 5223 N 489.384 -5.50334 -1.14408 0
M  V30 5224 H 481.535 -2.0377 0.599278 0
M  V30 5225 H 483.798 -0.925145 0.20691 0
M  V30 5226 H 483.504 -3.51242 0.179396 0
M  V30 5227 H 483.378 -3.43024 -1.5689 0
M  V30 5228 H 485.765 -2.44226 -1.65643 0
M  V30 5229 H 485.846 -2.55574 0.107482 0
M  V30 5230 H 485.49 -5.07864 -0.0607927 0
M  V30 5231 H 485.42 -4.93587 -1.8352 0
M  V30 5232 H 487.911 -3.66248 -0.931167 0
M  V30 5233 H 488.224 -7.61924 -1.29197 0
M  V30 5234 H 486.569 -6.85102 -1.16876 0
M  V30 5235 H 489.76 -4.5567 -1.07158 0
M  V30 5236 H 489.933 -6.36096 -1.23634 0
M  V30 5237 N 483.339 0.512053 -1.4905 0
M  V30 5238 C 484.249 1.64139 -1.67617 0
M  V30 5239 C 485.265 1.64786 -0.558701 0
M  V30 5240 O 486.441 1.8341 -0.832034 0
M  V30 5241 C 483.506 3.00548 -1.72835 0
M  V30 5242 C 482.567 3.10615 -2.96339 0
M  V30 5243 C 481.8 4.40517 -3.01298 0
M  V30 5244 O 482.023 5.28671 -2.14157 0
M  V30 5245 O 480.957 4.55325 -3.93653 0
M  V30 5246 H 484.783 1.51407 -2.63267 0
M  V30 5247 H 482.368 0.687131 -1.32661 0
M  V30 5248 H 484.25 3.81641 -1.78683 0
M  V30 5249 H 482.925 3.13566 -0.803616 0
M  V30 5250 H 481.832 2.2875 -2.96014 0
M  V30 5251 H 483.165 3.0252 -3.88256 0
M  V30 5252 N 484.817 1.37938 0.762283 0
M  V30 5253 C 486.042 1.37059 1.55659 0
M  V30 5254 C 486.467 -0.0396123 1.88058 0
M  V30 5255 O 485.825 -1.01929 1.49934 0
M  V30 5256 C 485.873 2.22494 2.83776 0
M  V30 5257 O 484.977 1.63607 3.78559 0
M  V30 5258 H 484.318 0.467892 0.47114 0
M  V30 5259 H 486.848 1.81587 0.942725 0
M  V30 5260 H 486.858 2.36045 3.32786 0
M  V30 5261 H 485.533 3.24993 2.59524 0
M  V30 5262 H 484.11 1.5915 3.37233 0
M  V30 5263 N 486.295 -0.989507 1.22664 0
M  V30 5264 C 487.258 -2.06183 1.00106 0
M  V30 5265 C 488.258 -1.60765 -0.0337726 0
M  V30 5266 O 489.448 -1.72989 0.205072 0
M  V30 5267 C 486.58 -3.37021 0.51279 0
M  V30 5268 H 487.773 -2.27629 1.95256 0
M  V30 5269 H 485.326 -1.16158 1.0458 0
M  V30 5270 H 486.061 -3.21261 -0.442917 0
M  V30 5271 H 485.846 -3.71323 1.25942 0
M  V30 5272 H 487.336 -4.1591 0.375315 0
M  V30 5273 N 487.773 -1.03688 -1.18687 0
M  V30 5274 C 489.022 -0.733235 -1.879 0
M  V30 5275 C 489.335 0.741745 -1.8099 0
M  V30 5276 O 490.541 1.15875 -2.4553 0
M  V30 5277 C 488.997 -1.26127 -3.37076 0
M  V30 5278 C 488.605 -2.76461 -3.52524 0
M  V30 5279 C 490.349 -1.03398 -4.11715 0
M  V30 5280 C 488.256 -3.22642 -4.95637 0
M  V30 5281 H 487.186 -0.270584 -0.703776 0
M  V30 5282 H 489.837 -1.25222 -1.34133 0
M  V30 5283 H 488.219 -0.670165 -3.90288 0
M  V30 5284 H 489.393 -3.41296 -3.09602 0
M  V30 5285 H 487.708 -2.97559 -2.91286 0
M  V30 5286 H 490.305 -1.3542 -5.17267 0
M  V30 5287 H 490.648 0.0289246 -4.1629 0
M  V30 5288 H 491.181 -1.5895 -3.64664 0
M  V30 5289 H 487.92 -4.28296 -4.96228 0
M  V30 5290 H 487.44 -2.62539 -5.39289 0
M  V30 5291 H 489.119 -3.16444 -5.64333 0
M  V30 5292 N 489.251 1.34841 -0.815825 0
M  V30 5293 C 490.198 2.29644 -0.230664 0
M  V30 5294 C 491.168 1.53253 0.640533 0
M  V30 5295 O 492.353 1.81653 0.583672 0
M  V30 5296 C 489.493 3.39715 0.607275 0
M  V30 5297 C 488.606 4.31056 -0.28538 0
M  V30 5298 C 487.741 5.28225 0.561446 0
M  V30 5299 C 486.78 6.11204 -0.331035 0
M  V30 5300 N 485.917 7.00483 0.476302 0
M  V30 5301 H 490.757 2.79095 -1.0445 0
M  V30 5302 H 488.294 1.37351 -0.526595 0
M  V30 5303 H 490.252 4.02208 1.10835 0
M  V30 5304 H 488.882 2.91517 1.38629 0
M  V30 5305 H 487.934 3.69487 -0.904621 0
M  V30 5306 H 489.246 4.89239 -0.97193 0
M  V30 5307 H 488.4 5.96135 1.12728 0
M  V30 5308 H 487.139 4.70562 1.28153 0
M  V30 5309 H 486.144 5.42232 -0.909069 0
M  V30 5310 H 487.369 6.70947 -1.04912 0
M  V30 5311 H 485.315 6.45296 1.18019 0
M  V30 5312 H 485.232 7.55847 -0.152008 0
M  V30 5313 H 486.5 7.7273 1.02512 0
M  V30 5314 N 490.729 0.570148 1.46925 0
M  V30 5315 C 492.006 -0.0153259 1.95594 0
M  V30 5316 C 492.386 -1.47232 1.51281 0
M  V30 5317 O 491.734 -2.15574 0.757624 0
M  V30 5318 C 491.944 0.143624 3.48704 0
M  V30 5319 C 493.292 0.00494484 4.246 0
M  V30 5320 O 494.316 0.0718214 3.56128 0
M  V30 5321 O 493.175 -0.141175 5.46318 0
M  V30 5322 H 490.269 -0.0568819 0.825041 0
M  V30 5323 H 492.815 0.637583 1.57267 0
M  V30 5324 H 491.587 1.15699 3.73804 0
M  V30 5325 H 491.21 -0.5463 3.93829 0
M  V30 5326 N 492.207 -1.54576 0.307264 0
M  V30 5327 C 493.453 -2.0056 -0.300612 0
M  V30 5328 C 493.786 -1.1953 -1.53057 0
M  V30 5329 O 493.061 -0.27337 -1.92569 0
M  V30 5330 C 493.344 -3.54167 -0.650987 0
M  V30 5331 C 493.197 -4.45933 0.588539 0
M  V30 5332 C 494.516 -4.14645 -1.47506 0
M  V30 5333 H 491.635 -0.729075 -0.107788 0
M  V30 5334 H 494.277 -1.85286 0.420606 0
M  V30 5335 H 492.427 -3.67313 -1.26544 0
M  V30 5336 H 494.099 -4.44683 1.22697 0
M  V30 5337 H 492.342 -4.16274 1.22058 0
M  V30 5338 H 493.013 -5.51189 0.299153 0
M  V30 5339 H 495.489 -4.04973 -0.955821 0
M  V30 5340 H 494.365 -5.22269 -1.68899 0
M  V30 5341 H 494.626 -3.66921 -2.4662 0
M  V30 5342 N 493.685 -0.035106 -1.57561 0
M  V30 5343 C 494.934 0.641604 -1.91223 0
M  V30 5344 C 495.247 1.72944 -0.913761 0
M  V30 5345 O 496.453 2.46321 -1.14185 0
M  V30 5346 C 494.909 1.19249 -3.3957 0
M  V30 5347 C 494.517 0.137616 -4.47789 0
M  V30 5348 C 496.261 1.84537 -3.82291 0
M  V30 5349 C 494.168 0.700478 -5.87237 0
M  V30 5350 H 493.098 0.243417 -0.713627 0
M  V30 5351 H 495.749 -0.101382 -1.8322 0
M  V30 5352 H 494.131 1.98728 -3.42525 0
M  V30 5353 H 495.305 -0.635153 -4.56402 0
M  V30 5354 H 493.62 -0.416855 -4.14308 0
M  V30 5355 H 496.217 2.27616 -4.83834 0
M  V30 5356 H 496.56 2.69054 -3.17672 0
M  V30 5357 H 497.093 1.11739 -3.81784 0
M  V30 5358 H 493.832 -0.106693 -6.55413 0
M  V30 5359 H 493.352 1.4416 -5.82218 0
M  V30 5360 H 495.031 1.18837 -6.35993 0
M  V30 5361 N 495.163 1.55791 0.238111 0
M  V30 5362 C 496.44 1.68798 0.98826 0
M  V30 5363 C 496.82 0.577562 2.03045 0
M  V30 5364 O 496.168 -0.41778 2.24648 0
M  V30 5365 C 496.378 3.09454 1.61367 0
M  V30 5366 C 497.726 3.68335 2.11221 0
M  V30 5367 O 498.75 3.1231 1.71292 0
M  V30 5368 O 497.609 4.6657 2.84561 0
M  V30 5369 H 494.703 0.686881 0.460568 0
M  V30 5370 H 497.249 1.68118 0.231202 0
M  V30 5371 H 496.021 3.81726 0.860295 0
M  V30 5372 H 495.644 3.14182 2.4367 0
M  V30 5373 N 496.642 -0.504142 1.49319 0
M  V30 5374 C 497.891 -1.25507 1.57895 0
M  V30 5375 C 498.204 -1.93735 0.269433 0
M  V30 5376 O 499.41 -2.70492 0.233706 0
M  V30 5377 C 497.866 -2.27869 2.78574 0
M  V30 5378 C 497.474 -1.65594 4.16272 0
M  V30 5379 C 499.218 -3.0381 2.96479 0
M  V30 5380 C 497.125 -2.66048 5.28178 0
M  V30 5381 H 496.055 -0.47212 0.587894 0
M  V30 5382 H 498.706 -0.52931 1.757 0
M  V30 5383 H 497.088 -3.03594 2.54257 0
M  V30 5384 H 498.262 -0.958826 4.50714 0
M  V30 5385 H 496.577 -1.02055 4.037 0
M  V30 5386 H 499.174 -3.78925 3.77253 0
M  V30 5387 H 499.517 -3.61235 2.06918 0
M  V30 5388 H 500.05 -2.352 3.20821 0
M  V30 5389 H 496.789 -2.13408 6.19788 0
M  V30 5390 H 496.309 -3.34009 4.98195 0
M  V30 5391 H 497.988 -3.28536 5.57381 0
M  V30 5392 N 498.12 -1.38341 -0.754957 0
M  V30 5393 C 499.05 -1.38176 -1.88227 0
M  V30 5394 C 500.031 -0.247873 -1.68284 0
M  V30 5395 O 501.216 -0.45075 -1.88896 0
M  V30 5396 C 498.346 -1.20471 -3.25736 0
M  V30 5397 C 497.3 -2.3105 -3.60278 0
M  V30 5398 C 496.626 -1.98452 -4.96509 0
M  V30 5399 C 497.926 -3.73305 -3.65295 0
M  V30 5400 H 499.62 -2.32512 -1.88622 0
M  V30 5401 H 497.166 -1.1192 -0.906082 0
M  V30 5402 H 499.119 -1.18982 -4.04254 0
M  V30 5403 H 497.843 -0.225965 -3.25817 0
M  V30 5404 H 496.502 -2.31723 -2.84078 0
M  V30 5405 H 496.15 -0.990641 -4.93148 0
M  V30 5406 H 495.85 -2.7251 -5.20588 0
M  V30 5407 H 497.374 -1.98578 -5.77407 0
M  V30 5408 H 498.788 -3.7467 -4.3393 0
M  V30 5409 H 497.185 -4.46557 -4.00883 0
M  V30 5410 H 498.255 -4.05719 -2.65556 0
M  V30 5411 N 499.598 0.982988 -1.23187 0
M  V30 5412 C 500.545 2.07491 -1.01075 0
M  V30 5413 C 501.515 1.65949 0.070905 0
M  V30 5414 O 502.7 1.90629 -0.0806822 0
M  V30 5415 C 499.84 3.39751 -0.605261 0
M  V30 5416 C 498.953 3.94578 -1.75876 0
M  V30 5417 C 498.088 5.15039 -1.3003 0
M  V30 5418 C 497.127 5.62027 -2.42472 0
M  V30 5419 N 496.264 6.73719 -1.97602 0
M  V30 5420 H 501.104 2.25739 -1.9454 0
M  V30 5421 H 498.641 1.10659 -0.969179 0
M  V30 5422 H 500.599 4.15719 -0.351279 0
M  V30 5423 H 499.229 3.21473 0.292382 0
M  V30 5424 H 498.281 3.1539 -2.12681 0
M  V30 5425 H 499.593 4.25422 -2.60418 0
M  V30 5426 H 498.747 5.9833 -1.00429 0
M  V30 5427 H 497.486 4.85843 -0.425216 0
M  V30 5428 H 496.491 4.77318 -2.7285 0
M  V30 5429 H 497.716 5.93244 -3.30512 0
M  V30 5430 H 495.662 6.46287 -1.1247 0
M  V30 5431 H 495.579 7.03934 -2.75705 0
M  V30 5432 H 496.847 7.6049 -1.71098 0
M  V30 5433 N 501.076 1.04316 1.18135 0
M  V30 5434 C 502.301 0.768047 1.92655 0
M  V30 5435 C 502.726 -0.66904 1.758 0
M  V30 5436 O 502.084 -1.46372 1.06981 0
M  V30 5437 C 502.132 1.14239 3.42026 0
M  V30 5438 O 501.236 0.269333 4.1152 0
M  V30 5439 H 500.577 0.282436 0.600937 0
M  V30 5440 H 503.107 1.39367 1.49793 0
M  V30 5441 H 503.117 1.10538 3.92741 0
M  V30 5442 H 501.792 2.18928 3.53615 0
M  V30 5443 H 500.369 0.366175 3.71098 0
M  V30 5444 N 502.554 -1.34406 0.822964 0
M  V30 5445 C 503.501 -2.29519 0.24284 0
M  V30 5446 C 504.471 -1.5359 -0.632397 0
M  V30 5447 O 505.656 -1.8196 -0.57403 0
M  V30 5448 C 502.796 -3.40032 -0.58925 0
M  V30 5449 C 501.909 -4.30899 0.308236 0
M  V30 5450 C 501.044 -5.28515 -0.533425 0
M  V30 5451 C 500.083 -6.1102 0.363444 0
M  V30 5452 N 499.22 -7.00725 -0.439147 0
M  V30 5453 H 504.06 -2.78537 1.05929 0
M  V30 5454 H 501.597 -1.3707 0.533872 0
M  V30 5455 H 503.555 -4.0279 -1.087 0
M  V30 5456 H 502.185 -2.92248 -1.37081 0
M  V30 5457 H 501.237 -3.69002 0.924203 0
M  V30 5458 H 502.549 -4.88717 0.997862 0
M  V30 5459 H 501.703 -5.96725 -1.09565 0
M  V30 5460 H 500.442 -4.71235 -1.25656 0
M  V30 5461 H 499.447 -5.41743 0.937812 0
M  V30 5462 H 500.672 -6.70381 1.08469 0
M  V30 5463 H 498.618 -6.45913 -1.14595 0
M  V30 5464 H 498.535 -7.55756 0.19209 0
M  V30 5465 H 499.803 -7.73263 -0.984124 0
M  V30 5466 N 504.032 -0.577932 -1.46621 0
M  V30 5467 C 505.309 0.00495287 -1.95599 0
M  V30 5468 C 505.689 1.46428 -1.5206 0
M  V30 5469 O 505.037 2.1517 -0.769046 0
M  V30 5470 C 505.247 -0.162114 -3.48623 0
M  V30 5471 C 506.595 -0.0274623 -4.24591 0
M  V30 5472 O 507.619 -0.0907067 -3.56084 0
M  V30 5473 O 506.478 0.1122 -5.46385 0
M  V30 5474 H 503.572 0.0525057 -0.825332 0
M  V30 5475 H 506.118 -0.645914 -1.56927 0
M  V30 5476 H 504.89 -1.17679 -3.73185 0
M  V30 5477 H 504.513 0.525407 -3.94113 0
M  V30 5478 N 505.51 1.54411 -0.315457 0
M  V30 5479 C 506.759 1.99599 0.290395 0
M  V30 5480 C 507.072 1.20746 1.53882 0
M  V30 5481 O 508.278 1.56272 2.22017 0
M  V30 5482 C 506.734 3.5539 0.56797 0
M  V30 5483 C 506.342 4.43068 -0.662945 0
M  V30 5484 C 508.086 4.09067 1.13422 0
M  V30 5485 C 505.993 5.90317 -0.357722 0
M  V30 5486 H 504.923 0.745592 0.112286 0
M  V30 5487 H 507.574 1.78477 -0.426418 0
M  V30 5488 H 505.956 3.72468 1.34476 0
M  V30 5489 H 507.13 4.37765 -1.43869 0
M  V30 5490 H 505.445 4.00238 -1.14884 0
M  V30 5491 H 508.042 5.16663 1.37707 0
M  V30 5492 H 508.385 3.60552 2.08106 0
M  V30 5493 H 508.918 3.95589 0.418805 0
M  V30 5494 H 505.657 6.4301 -1.27351 0
M  V30 5495 H 505.177 5.98592 0.380472 0
M  V30 5496 H 506.856 6.4699 0.0354284 0
M  V30 5497 N 506.988 0.0434614 1.5754 0
M  V30 5498 C 507.935 -0.93356 2.11077 0
M  V30 5499 C 508.905 -1.31383 1.01626 0
M  V30 5500 O 510.09 -1.40465 1.29129 0
M  V30 5501 C 507.23 -2.20578 2.65404 0
M  V30 5502 C 506.343 -1.88068 3.88914 0
M  V30 5503 C 505.478 -3.09691 4.31584 0
M  V30 5504 C 504.517 -2.73067 5.47815 0
M  V30 5505 N 503.654 -3.87359 5.85574 0
M  V30 5506 H 508.494 -0.470118 2.94268 0
M  V30 5507 H 506.031 -0.220434 1.45439 0
M  V30 5508 H 507.989 -2.95011 2.94999 0
M  V30 5509 H 506.619 -2.64513 1.85021 0
M  V30 5510 H 505.671 -1.03816 3.6596 0
M  V30 5511 H 506.983 -1.57104 4.73413 0
M  V30 5512 H 506.137 -3.92431 4.62691 0
M  V30 5513 H 504.876 -3.43827 3.45882 0
M  V30 5514 H 503.881 -1.88742 5.16388 0
M  V30 5515 H 505.106 -2.40131 6.35227 0
M  V30 5516 H 503.052 -4.21311 5.02825 0
M  V30 5517 H 502.969 -3.60068 6.64746 0
M  V30 5518 H 504.237 -4.70761 6.21292 0
M  V30 5519 N 508.466 -1.55915 -0.229846 0
M  V30 5520 C 509.715 -1.77742 -0.953455 0
M  V30 5521 C 510.028 -0.610524 -1.85828 0
M  V30 5522 O 511.234 -0.712219 -2.61992 0
M  V30 5523 C 509.69 -3.14738 -1.74551 0
M  V30 5524 C 509.298 -4.39126 -0.887242 0
M  V30 5525 C 511.042 -3.45895 -2.46084 0
M  V30 5526 C 508.949 -5.67149 -1.67617 0
M  V30 5527 H 507.879 -0.662648 -0.359741 0
M  V30 5528 H 510.53 -1.82322 -0.207576 0
M  V30 5529 H 508.912 -3.04311 -2.53399 0
M  V30 5530 H 510.086 -4.60588 -0.139892 0
M  V30 5531 H 508.401 -4.15427 -0.284443 0
M  V30 5532 H 510.998 -4.38767 -3.05594 0
M  V30 5533 H 511.341 -2.68007 -3.18556 0
M  V30 5534 H 511.874 -3.57614 -1.74233 0
M  V30 5535 H 508.613 -6.47906 -0.994881 0
M  V30 5536 H 508.133 -5.49763 -2.39836 0
M  V30 5537 H 509.812 -6.07025 -2.23898 0
M  V30 5538 N 509.944 0.496216 -1.49584 0
M  V30 5539 C 511.193 1.24668 -1.58558 0
M  V30 5540 C 511.506 1.9359 -0.279703 0
M  V30 5541 O 512.712 2.70365 -0.248048 0
M  V30 5542 C 511.168 2.26388 -2.79779 0
M  V30 5543 C 510.776 1.63384 -4.17145 0
M  V30 5544 C 512.52 3.02233 -2.98086 0
M  V30 5545 C 510.427 2.63243 -5.29582 0
M  V30 5546 H 509.357 0.468995 -0.590389 0
M  V30 5547 H 512.008 0.519985 -1.75978 0
M  V30 5548 H 510.39 3.02241 -2.55863 0
M  V30 5549 H 511.564 0.93491 -4.51216 0
M  V30 5550 H 509.879 0.999121 -4.04236 0
M  V30 5551 H 512.476 3.76919 -3.79257 0
M  V30 5552 H 512.819 3.60132 -2.08831 0
M  V30 5553 H 513.352 2.33495 -3.22063 0
M  V30 5554 H 510.091 2.10119 -6.20911 0
M  V30 5555 H 509.611 3.31363 -4.99959 0
M  V30 5556 H 511.29 3.25575 -5.59115 0
M  V30 5557 N 511.423 1.38739 0.74761 0
M  V30 5558 C 512.672 1.3459 1.50228 0
M  V30 5559 C 512.985 -0.0595592 1.95509 0
M  V30 5560 O 514.191 -0.22361 2.70578 0
M  V30 5561 C 512.647 2.36377 2.71393 0
M  V30 5562 C 512.255 3.82573 2.33113 0
M  V30 5563 C 513.999 2.41281 3.49262 0
M  V30 5564 C 511.906 4.76032 3.50924 0
M  V30 5565 H 510.836 0.500312 0.564096 0
M  V30 5566 H 513.487 1.64324 0.8167 0
M  V30 5567 H 511.869 1.99694 3.41962 0
M  V30 5568 H 513.043 4.28227 1.70171 0
M  V30 5569 H 511.358 3.80844 1.68365 0
M  V30 5570 H 513.955 3.08301 4.36869 0
M  V30 5571 H 514.298 1.43353 3.9084 0
M  V30 5572 H 514.831 2.76793 2.85711 0
M  V30 5573 H 511.57 5.75177 3.14408 0
M  V30 5574 H 511.09 4.35066 4.12889 0
M  V30 5575 H 512.769 4.94331 4.17427 0
M  V30 5576 N 512.901 -0.976442 1.23707 0
M  V30 5577 C 514.131 -1.75087 1.09673 0
M  V30 5578 C 514.539 -1.85852 -0.354344 0
M  V30 5579 O 513.882 -1.33985 -1.25673 0
M  V30 5580 C 513.944 -3.19272 1.65245 0
M  V30 5581 C 513.608 -3.32004 3.14042 0
M  V30 5582 C 514.605 -3.18017 4.11292 0
M  V30 5583 C 512.29 -3.56525 3.53829 0
M  V30 5584 C 514.284 -3.28363 5.46312 0
M  V30 5585 C 511.971 -3.6651 4.88993 0
M  V30 5586 C 512.969 -3.52439 5.85043 0
M  V30 5587 O 512.657 -3.62063 7.1775 0
M  V30 5588 H 512.389 -0.556164 0.384262 0
M  V30 5589 H 514.943 -1.23518 1.64111 0
M  V30 5590 H 513.173 -3.72107 1.05231 0
M  V30 5591 H 514.862 -3.7849 1.46629 0
M  V30 5592 H 515.628 -2.98966 3.81896 0
M  V30 5593 H 511.507 -3.66547 2.79579 0
M  V30 5594 H 515.051 -3.17297 6.21263 0
M  V30 5595 H 510.948 -3.85072 5.18063 0
M  V30 5596 H 511.716 -3.78833 7.25553 0
M  V30 5597 N 514.379 -1.04941 -1.1758 0
M  V30 5598 C 515.289 -0.658826 -2.25159 0
M  V30 5599 C 516.305 0.318941 -1.71052 0
M  V30 5600 O 517.481 0.171669 -2.00667 0
M  V30 5601 C 514.546 -0.0369522 -3.4668 0
M  V30 5602 C 513.607 -1.06484 -4.15884 0
M  V30 5603 C 512.84 -0.472551 -5.31604 0
M  V30 5604 O 513.063 0.718736 -5.65854 0
M  V30 5605 O 511.997 -1.20557 -5.89703 0
M  V30 5606 H 515.823 -1.55533 -2.60851 0
M  V30 5607 H 513.408 -0.820819 -1.24832 0
M  V30 5608 H 515.29 0.308784 -4.20267 0
M  V30 5609 H 513.965 0.833238 -3.12792 0
M  V30 5610 H 512.872 -1.46253 -3.44327 0
M  V30 5611 H 514.205 -1.9061 -4.53794 0
M  V30 5612 N 515.857 1.33968 -0.830081 0
M  V30 5613 C 517.268 1.80439 -0.479455 0
M  V30 5614 C 517.619 1.68756 1.00079 0
M  V30 5615 O 516.744 1.23171 1.77927 0
M  V30 5616 C 517.339 3.27611 -0.863505 0
M  V30 5617 C 515.898 3.72133 -0.565145 0
M  V30 5618 C 515.045 2.55549 -1.07657 0
M  V30 5619 H 517.996 1.21614 -1.0196 0
M  V30 5620 H 518.017 3.8012 -0.170083 0
M  V30 5621 H 517.529 3.36082 -1.94089 0
M  V30 5622 H 515.63 3.69196 0.502536 0
M  V30 5623 H 515.743 4.65963 -1.11422 0
M  V30 5624 H 514.107 2.49788 -0.497807 0
M  V30 5625 H 514.89 2.66786 -2.16055 0
M  V30 5626 N 517.335 0.585699 1.46312 0
M  V30 5627 C 518.268 -0.194257 2.27372 0
M  V30 5628 C 519.246 -0.894116 1.3581 0
M  V30 5629 O 520.43 -0.907402 1.65222 0
M  V30 5630 C 517.557 -1.27901 3.13622 0
M  V30 5631 C 516.603 -0.684666 4.20969 0
M  V30 5632 S 517.436 0.490745 5.33247 0
M  V30 5633 C 518.592 -0.595137 6.23064 0
M  V30 5634 H 518.825 0.493515 2.93175 0
M  V30 5635 H 516.358 0.372666 1.49835 0
M  V30 5636 H 518.316 -1.90008 3.63878 0
M  V30 5637 H 516.977 -1.93875 2.47126 0
M  V30 5638 H 516.17 -1.50015 4.81156 0
M  V30 5639 H 515.772 -0.139204 3.73741 0
M  V30 5640 H 518.064 -1.48002 6.61137 0
M  V30 5641 H 519.007 -0.0299446 7.08094 0
M  V30 5642 H 519.415 -0.900627 5.57269 0
M  V30 5643 N 518.813 -1.54241 0.323641 0
M  V30 5644 C 519.743 -2.27289 -0.534993 0
M  V30 5645 C 520.724 -1.28087 -1.11927 0
M  V30 5646 O 521.909 -1.56899 -1.14439 0
M  V30 5647 C 519.039 -3.03075 -1.69596 0
M  V30 5648 C 517.993 -4.09614 -1.24098 0
M  V30 5649 C 517.319 -4.73242 -2.4889 0
M  V30 5650 C 518.619 -5.21087 -0.355789 0
M  V30 5651 H 520.313 -2.99308 0.0743257 0
M  V30 5652 H 517.859 -1.43952 0.0371874 0
M  V30 5653 H 519.812 -3.52907 -2.30293 0
M  V30 5654 H 518.536 -2.28673 -2.33187 0
M  V30 5655 H 517.195 -3.60666 -0.656945 0
M  V30 5656 H 516.843 -3.95455 -3.10845 0
M  V30 5657 H 516.543 -5.45209 -2.19138 0
M  V30 5658 H 518.067 -5.25848 -3.10348 0
M  V30 5659 H 519.481 -5.66675 -0.869042 0
M  V30 5660 H 517.878 -5.9991 -0.151045 0
M  V30 5661 H 518.948 -4.81005 0.613339 0
M  V30 5662 N 520.291 -0.0518155 -1.57515 0
M  V30 5663 C 521.239 0.940195 -2.12751 0
M  V30 5664 C 522.233 1.3218 -1.05948 0
M  V30 5665 O 523.439 1.30138 -1.24355 0
M  V30 5666 H 519.814 0.321066 -0.680015 0
M  V30 5667 H 521.785 0.449217 -2.94999 0
M  V30 5668 C 520.534 2.2055 -2.68799 0
M  V30 5669 H 519.857 1.92066 -3.50643 0
M  V30 5670 H 521.297 2.88119 -3.11068 0
M  V30 5671 C 519.756 2.95061 -1.62605 0
M  V30 5672 O 520.286 3.88025 -1.03921 0
M  V30 5673 N 518.492 2.57804 -1.34111 0
M  V30 5674 H 518.039 1.82281 -1.8202 0
M  V30 5675 H 517.997 3.07964 -0.632872 0
M  V30 5676 N 521.769 1.56035 0.221574 0
M  V30 5677 C 522.716 1.92413 1.27459 0
M  V30 5678 C 523.686 0.781323 1.46576 0
M  V30 5679 O 524.871 1.03721 1.60145 0
M  V30 5680 C 522.011 2.24617 2.61995 0
M  V30 5681 C 521.124 3.51831 2.50677 0
M  V30 5682 C 520.259 3.73482 3.77736 0
M  V30 5683 C 519.298 4.94211 3.6114 0
M  V30 5684 N 518.435 5.12252 4.80148 0
M  V30 5685 H 523.275 2.82203 0.957355 0
M  V30 5686 H 520.812 1.39676 0.461415 0
M  V30 5687 H 522.77 2.41298 3.40339 0
M  V30 5688 H 521.4 1.38 2.91815 0
M  V30 5689 H 520.452 3.43343 1.63767 0
M  V30 5690 H 521.764 4.40328 2.34334 0
M  V30 5691 H 520.918 3.9026 4.64523 0
M  V30 5692 H 519.657 2.83266 3.97003 0
M  V30 5693 H 518.662 4.77384 2.72736 0
M  V30 5694 H 519.887 5.85912 3.43343 0
M  V30 5695 H 517.833 4.24978 4.99729 0
M  V30 5696 H 517.75 5.94881 4.66532 0
M  V30 5697 H 519.018 5.33465 5.68362 0
M  V30 5698 N 523.247 -0.488276 1.49845 0
M  V30 5699 C 524.177 -1.59675 1.70371 0
M  V30 5700 C 525.158 -1.60878 0.552473 0
M  V30 5701 O 526.343 -1.77417 0.78973 0
M  V30 5702 C 523.473 -2.98098 1.782 0
M  V30 5703 C 522.427 -3.11761 2.93239 0
M  V30 5704 C 521.753 -4.51661 2.86193 0
M  V30 5705 C 523.053 -2.90589 4.33999 0
M  V30 5706 H 524.747 -1.42752 2.63177 0
M  V30 5707 H 522.293 -0.685317 1.26647 0
M  V30 5708 H 524.246 -3.75555 1.91144 0
M  V30 5709 H 522.97 -3.16138 0.820018 0
M  V30 5710 H 521.629 -2.36732 2.79917 0
M  V30 5711 H 521.277 -4.66595 1.87877 0
M  V30 5712 H 520.977 -4.61742 3.63412 0
M  V30 5713 H 522.501 -5.31162 3.01163 0
M  V30 5714 H 523.915 -3.57807 4.47936 0
M  V30 5715 H 522.312 -3.1213 5.12538 0
M  V30 5716 H 523.382 -1.86595 4.4756 0
M  V30 5717 N 524.725 -1.39134 -0.740242 0
M  V30 5718 C 525.635 -1.39697 -1.88473 0
M  V30 5719 C 526.651 -0.292403 -1.71526 0
M  V30 5720 O 527.827 -0.533021 -1.94219 0
M  V30 5721 C 524.892 -1.23382 -3.24003 0
M  V30 5722 C 523.953 -2.43763 -3.53381 0
M  V30 5723 C 523.186 -2.28216 -4.82445 0
M  V30 5724 O 523.409 -1.28288 -5.55786 0
M  V30 5725 O 522.343 -3.1709 -5.11603 0
M  V30 5726 H 526.169 -2.36159 -1.90952 0
M  V30 5727 H 523.754 -1.20194 -0.887346 0
M  V30 5728 H 525.636 -1.16395 -4.05006 0
M  V30 5729 H 524.311 -0.300121 -3.22306 0
M  V30 5730 H 523.218 -2.56325 -2.72485 0
M  V30 5731 H 524.551 -3.35808 -3.59852 0
M  V30 5732 N 526.204 0.969867 -1.24223 0
M  V30 5733 C 527.429 1.75289 -1.10853 0
M  V30 5734 C 527.854 1.85091 0.335079 0
M  V30 5735 O 527.212 1.32024 1.24255 0
M  V30 5736 C 527.26 3.15255 -1.75062 0
M  V30 5737 O 526.364 3.99589 -1.01992 0
M  V30 5738 H 525.705 0.538904 -0.387915 0
M  V30 5739 H 528.235 1.21675 -1.64488 0
M  V30 5740 H 528.245 3.65787 -1.80731 0
M  V30 5741 H 526.92 3.07436 -2.801 0
M  V30 5742 H 525.497 3.58077 -1.04094 0
M  V30 5743 N 527.682 1.05563 1.17022 0
M  V30 5744 C 528.592 0.670758 2.24807 0
M  V30 5745 C 529.608 -0.309865 1.71219 0
M  V30 5746 O 530.784 -0.161025 2.00755 0
M  V30 5747 C 527.849 0.055337 3.46656 0
M  V30 5748 C 526.91 1.08688 4.15314 0
M  V30 5749 C 526.143 0.500736 5.31346 0
M  V30 5750 O 526.366 -0.688718 5.66227 0
M  V30 5751 O 525.3 1.23683 5.89055 0
M  V30 5752 H 529.126 1.56914 2.60023 0
M  V30 5753 H 526.711 0.827428 1.24395 0
M  V30 5754 H 528.593 -0.286492 4.20425 0
M  V30 5755 H 527.268 -0.816638 3.13229 0
M  V30 5756 H 526.175 1.48077 3.43546 0
M  V30 5757 H 527.508 1.93014 4.52777 0
M  V30 5758 N 529.16 -1.33526 0.837174 0
M  V30 5759 C 530.437 -1.92369 0.354065 0
M  V30 5760 C 530.817 -1.76348 -1.16038 0
M  V30 5761 O 530.165 -1.15083 -1.97403 0
M  V30 5762 C 530.375 -3.39728 0.799101 0
M  V30 5763 C 531.723 -4.16877 0.806139 0
M  V30 5764 O 532.747 -3.48373 0.742597 0
M  V30 5765 O 531.606 -5.39166 0.892345 0
M  V30 5766 H 528.7 -0.820952 0.0998378 0
M  V30 5767 H 531.246 -1.42409 0.922913 0
M  V30 5768 H 530.018 -3.45254 1.84162 0
M  V30 5769 H 529.641 -3.97062 0.206731 0
M  V30 5770 N 530.638 -0.59345 -1.46 0
M  V30 5771 C 531.57 0.171569 -2.28557 0
M  V30 5772 C 532.583 0.845273 -1.39137 0
M  V30 5773 O 533.772 0.713033 -1.6364 0
M  V30 5774 C 530.872 1.26311 -3.14482 0
M  V30 5775 C 530.045 0.679258 -4.32094 0
M  V30 5776 C 529.104 1.65987 -4.99334 0
M  V30 5777 O 528.13 1.19171 -5.56585 0
M  V30 5778 N 529.332 2.99414 -4.97324 0
M  V30 5779 H 532.097 -0.536771 -2.94854 0
M  V30 5780 H 529.658 -0.431954 -1.56031 0
M  V30 5781 H 531.65 1.91863 -3.5633 0
M  V30 5782 H 530.22 1.87416 -2.50188 0
M  V30 5783 H 529.44 -0.153992 -3.93899 0
M  V30 5784 H 530.728 0.26916 -5.08088 0
M  V30 5785 H 530.126 3.40064 -4.52076 0
M  V30 5786 H 528.683 3.60426 -5.4308 0
M  V30 5787 N 532.116 1.54067 -0.331816 0
M  V30 5788 C 533.341 2.05599 0.272705 0
M  V30 5789 C 533.766 1.2059 1.44359 0
M  V30 5790 O 533.124 0.216907 1.79998 0
M  V30 5791 C 533.172 3.54188 0.677021 0
M  V30 5792 O 532.276 3.72082 1.77844 0
M  V30 5793 H 531.617 0.662286 0.0476801 0
M  V30 5794 H 534.147 1.98826 -0.482624 0
M  V30 5795 H 534.157 3.96608 0.957415 0
M  V30 5796 H 532.832 4.15513 -0.179325 0
M  V30 5797 H 531.409 3.41566 1.49622 0
M  V30 5798 N 533.594 0.0601682 1.57485 0
M  V30 5799 C 534.84 -0.612501 1.93329 0
M  V30 5800 C 535.173 -1.6996 0.939526 0
M  V30 5801 O 534.448 -1.94472 -0.0330957 0
M  V30 5802 C 534.731 -1.20025 3.39508 0
M  V30 5803 C 534.584 -0.12059 4.49638 0
M  V30 5804 C 535.903 -2.10923 3.86264 0
M  V30 5805 H 533.022 -0.221185 0.703027 0
M  V30 5806 H 535.664 0.123768 1.89596 0
M  V30 5807 H 533.814 -1.82774 3.42821 0
M  V30 5808 H 535.486 0.51185 4.58452 0
M  V30 5809 H 533.729 0.550251 4.30296 0
M  V30 5810 H 534.4 -0.572019 5.49028 0
M  V30 5811 H 536.876 -1.58124 3.84884 0
M  V30 5812 H 535.752 -2.48987 4.8918 0
M  V30 5813 H 536.013 -3.01292 3.23536 0
M  V30 5814 N 535.072 -1.5615 -0.213296 0
M  V30 5815 C 536.002 -1.96109 -1.26742 0
M  V30 5816 C 536.983 -0.830448 -1.48451 0
M  V30 5817 O 538.168 -1.09339 -1.60495 0
M  V30 5818 C 535.298 -2.28492 -2.61551 0
M  V30 5819 C 534.252 -3.44124 -2.54485 0
M  V30 5820 C 533.578 -3.62134 -3.93399 0
M  V30 5821 C 534.878 -4.78855 -2.08556 0
M  V30 5822 H 536.572 -2.84412 -0.935434 0
M  V30 5823 H 534.118 -1.36836 -0.44854 0
M  V30 5824 H 536.071 -2.55039 -3.3546 0
M  V30 5825 H 534.795 -1.37052 -2.96453 0
M  V30 5826 H 533.454 -3.17639 -1.83033 0
M  V30 5827 H 533.102 -2.68055 -4.25623 0
M  V30 5828 H 532.802 -4.39913 -3.89551 0
M  V30 5829 H 534.326 -3.91038 -4.68958 0
M  V30 5830 H 535.74 -5.04552 -2.72213 0
M  V30 5831 H 534.137 -5.59975 -2.1575 0
M  V30 5832 H 535.207 -4.73657 -1.03811 0
M  V30 5833 N 536.55 0.480323 -1.50102 0
M  V30 5834 C 537.796 1.23489 -1.60867 0
M  V30 5835 C 538.129 1.91809 -0.303827 0
M  V30 5836 O 537.404 1.81694 0.694092 0
M  V30 5837 C 537.687 2.28578 -2.78252 0
M  V30 5838 C 537.54 1.64624 -4.18592 0
M  V30 5839 C 538.859 3.2997 -2.91218 0
M  V30 5840 H 535.978 0.447605 -0.585507 0
M  V30 5841 H 538.62 0.530005 -1.82458 0
M  V30 5842 H 536.77 2.88697 -2.59974 0
M  V30 5843 H 538.442 1.08173 -4.48438 0
M  V30 5844 H 536.685 0.949645 -4.23278 0
M  V30 5845 H 537.356 2.40946 -4.96638 0
M  V30 5846 H 539.832 2.79864 -3.07921 0
M  V30 5847 H 538.708 4.00839 -3.74993 0
M  V30 5848 H 538.969 3.93541 -2.0144 0
M  V30 5849 N 538.028 1.39524 0.732853 0
M  V30 5850 C 538.976 1.38563 1.86824 0
M  V30 5851 C 539.97 0.268467 1.67259 0
M  V30 5852 O 541.176 0.438613 1.74574 0
M  V30 5853 H 537.551 0.432737 0.615014 0
M  V30 5854 H 539.522 2.34328 1.84751 0
M  V30 5855 C 538.271 1.2481 3.24527 0
M  V30 5856 H 537.594 2.10044 3.40179 0
M  V30 5857 H 539.034 1.28194 4.04156 0
M  V30 5858 C 537.493 -0.0432825 3.36872 0
M  V30 5859 O 538.023 -1.01268 3.88726 0
M  V30 5860 N 536.229 -0.107055 2.90403 0
M  V30 5861 H 535.776 0.682512 2.48394 0
M  V30 5862 H 535.734 -0.970618 2.99042 0
M  V30 5863 N 539.506 -0.963266 1.24736 0
M  V30 5864 C 540.783 -1.68248 0.9976 0
M  V30 5865 C 541.163 -2.05599 -0.478776 0
M  V30 5866 O 540.511 -1.7626 -1.45412 0
M  V30 5867 C 540.721 -2.91118 1.92487 0
M  V30 5868 C 542.069 -3.63261 2.19833 0
M  V30 5869 O 543.093 -3.01184 1.90176 0
M  V30 5870 O 541.952 -4.75019 2.7022 0
M  V30 5871 H 539.046 -0.735744 0.377637 0
M  V30 5872 H 541.592 -1.01696 1.35853 0
M  V30 5873 H 540.364 -2.60242 2.92215 0
M  V30 5874 H 539.987 -3.65402 1.56738 0
M  V30 5875 N 540.985 -1.06182 -1.16461 0
M  V30 5876 C 541.915 -0.692861 -2.22984 0
M  V30 5877 C 542.896 0.314122 -1.67174 0
M  V30 5878 O 544.081 0.189499 -1.93273 0
M  V30 5879 C 541.211 -0.07732 -3.47214 0
M  V30 5880 C 540.165 -1.01015 -4.15909 0
M  V30 5881 C 539.491 -0.257973 -5.34077 0
M  V30 5882 C 540.791 -2.33868 -4.67015 0
M  V30 5883 H 542.485 -1.58343 -2.54102 0
M  V30 5884 H 540.031 -0.76279 -1.22137 0
M  V30 5885 H 541.984 0.19266 -4.20959 0
M  V30 5886 H 540.708 0.848254 -3.15392 0
M  V30 5887 H 539.367 -1.26486 -3.44088 0
M  V30 5888 H 539.015 0.670684 -4.98509 0
M  V30 5889 H 538.715 -0.879638 -5.80979 0
M  V30 5890 H 540.239 0.00448788 -6.106 0
M  V30 5891 H 541.653 -2.1279 -5.32347 0
M  V30 5892 H 540.05 -2.91522 -5.24533 0
M  V30 5893 H 541.12 -2.97019 -3.83286 0
M  V30 5894 N 542.463 1.3308 -0.844243 0
M  V30 5895 C 543.373 2.32876 -0.283922 0
M  V30 5896 C 544.389 1.63589 0.592846 0
M  V30 5897 O 545.565 1.95205 0.495693 0
M  V30 5898 C 542.63 3.42667 0.527283 0
M  V30 5899 C 541.691 4.27664 -0.374394 0
M  V30 5900 C 540.924 5.32212 0.39819 0
M  V30 5901 O 541.147 5.46635 1.62932 0
M  V30 5902 O 540.081 6.01458 -0.2306 0
M  V30 5903 H 543.907 2.82671 -1.11045 0
M  V30 5904 H 541.492 1.36518 -0.606903 0
M  V30 5905 H 543.374 4.09652 0.988078 0
M  V30 5906 H 542.049 2.95079 1.33078 0
M  V30 5907 H 540.956 3.63526 -0.883144 0
M  V30 5908 H 542.289 4.78749 -1.1428 0
M  V30 5909 N 543.941 0.601185 1.45683 0
M  V30 5910 C 544.889 -0.133955 2.32214 0
M  V30 5911 C 545.883 -0.866034 1.45589 0
M  V30 5912 O 547.089 -0.782326 1.6211 0
M  V30 5913 H 543.464 -0.0620613 0.749435 0
M  V30 5914 H 545.435 0.614389 2.92007 0
M  V30 5915 C 544.184 -1.12216 3.29094 0
M  V30 5916 H 543.507 -0.568273 3.95741 0
M  V30 5917 H 544.947 -1.60659 3.92383 0
M  V30 5918 C 543.406 -2.19251 2.55794 0
M  V30 5919 O 543.936 -3.26894 2.33459 0
M  V30 5920 N 542.142 -1.9436 2.16039 0
M  V30 5921 H 541.689 -1.06829 2.34404 0
M  V30 5922 H 541.647 -2.66181 1.67318 0
M  V30 5923 N 545.419 -1.53889 0.339982 0
M  V30 5924 C 546.666 -2.00855 -0.257621 0
M  V30 5925 C 546.994 -1.22788 -1.50842 0
M  V30 5926 O 546.249 -0.302567 -1.93347 0
M  V30 5927 C 546.548 -3.51968 -0.620735 0
M  V30 5928 C 546.214 -4.47741 0.532771 0
M  V30 5929 C 544.876 -4.73645 0.849339 0
M  V30 5930 C 547.228 -5.04551 1.3068 0
M  V30 5931 C 544.556 -5.53614 1.94237 0
M  V30 5932 C 546.908 -5.85713 2.39005 0
M  V30 5933 C 545.572 -6.09912 2.71225 0
M  V30 5934 H 544.842 -0.734979 -0.0942703 0
M  V30 5935 H 547.489 -1.85714 0.467159 0
M  V30 5936 H 545.794 -3.64921 -1.42618 0
M  V30 5937 H 547.491 -3.85762 -1.09495 0
M  V30 5938 H 544.081 -4.27711 0.275973 0
M  V30 5939 H 548.265 -4.84507 1.07549 0
M  V30 5940 H 543.521 -5.7059 2.19628 0
M  V30 5941 H 547.695 -6.28748 2.99415 0
M  V30 5942 H 545.322 -6.71665 3.56047 0
M  V30 5943 N 546.897 -0.0685191 -1.57451 0
M  V30 5944 C 547.844 0.899861 -2.12535 0
M  V30 5945 C 548.814 1.29749 -1.03703 0
M  V30 5946 O 549.999 1.38392 -1.31348 0
M  V30 5947 C 547.139 2.16328 -2.6888 0
M  V30 5948 C 546.252 1.81857 -3.91857 0
M  V30 5949 C 545.387 3.02786 -4.36457 0
M  V30 5950 C 544.426 2.64317 -5.5209 0
M  V30 5951 N 543.563 3.77994 -5.91663 0
M  V30 5952 H 548.403 0.423243 -2.94979 0
M  V30 5953 H 545.94 0.197268 -1.45771 0
M  V30 5954 H 547.898 2.90281 -2.99655 0
M  V30 5955 H 546.528 2.61536 -1.89206 0
M  V30 5956 H 545.58 0.979808 -3.67565 0
M  V30 5957 H 546.892 1.49553 -4.75852 0
M  V30 5958 H 546.046 3.85021 -4.68875 0
M  V30 5959 H 544.785 3.38281 -3.51308 0
M  V30 5960 H 543.79 1.80503 -5.19325 0
M  V30 5961 H 545.015 2.29995 -6.38967 0
M  V30 5962 H 542.961 4.13258 -5.09464 0
M  V30 5963 H 542.878 3.49447 -6.7039 0
M  V30 5964 H 544.146 4.60818 -6.28703 0
M  V30 5965 N 548.375 1.56261 0.205012 0
M  V30 5966 C 549.322 1.93754 1.25411 0
M  V30 5967 C 550.292 0.796826 1.45739 0
M  V30 5968 O 551.477 1.05414 1.59036 0
M  V30 5969 C 548.617 2.27383 2.59598 0
M  V30 5970 C 547.73 3.5447 2.46931 0
M  V30 5971 C 546.865 3.77468 3.73753 0
M  V30 5972 C 545.904 4.98014 3.55877 0
M  V30 5973 N 545.041 5.17316 4.74688 0
M  V30 5974 H 549.881 2.83203 0.92737 0
M  V30 5975 H 547.418 1.40158 0.446574 0
M  V30 5976 H 549.376 2.44895 3.37761 0
M  V30 5977 H 548.006 1.41088 2.90335 0
M  V30 5978 H 547.058 3.45061 1.60116 0
M  V30 5979 H 548.37 4.42789 2.29651 0
M  V30 5980 H 547.524 3.95165 4.60358 0
M  V30 5981 H 546.263 2.87461 3.93976 0
M  V30 5982 H 545.268 4.80249 2.67657 0
M  V30 5983 H 546.493 5.8952 3.37109 0
M  V30 5984 H 544.439 4.30255 4.95194 0
M  V30 5985 H 544.356 5.99796 4.60197 0
M  V30 5986 H 545.624 5.39463 5.62672 0
M  V30 5987 N 549.853 -0.472356 1.50355 0
M  V30 5988 C 550.785 -1.58795 1.65278 0
M  V30 5989 C 551.798 -1.53782 0.534313 0
M  V30 5990 O 552.987 -1.59193 0.807446 0
M  V30 5991 C 550.087 -2.97672 1.62001 0
M  V30 5992 C 549.26 -3.27568 2.89859 0
M  V30 5993 C 548.319 -4.45993 2.79242 0
M  V30 5994 O 547.345 -4.46364 3.53197 0
M  V30 5995 N 548.547 -5.47578 1.92713 0
M  V30 5996 H 551.312 -1.46411 2.61503 0
M  V30 5997 H 548.873 -0.660751 1.47803 0
M  V30 5998 H 550.865 -3.74862 1.52513 0
M  V30 5999 H 549.435 -3.03832 0.735159 0
M  V30 6000 H 548.655 -2.39003 3.13483 0
M  V30 6001 H 549.943 -3.44352 3.74565 0
M  V30 6002 H 549.341 -5.50099 1.31939 0
M  V30 6003 H 547.898 -6.23757 1.8913 0
M  V30 6004 N 551.331 -1.39911 -0.725443 0
M  V30 6005 C 552.294 -1.39156 -1.82121 0
M  V30 6006 C 553.294 -0.287018 -1.58218 0
M  V30 6007 O 554.484 -0.545421 -1.65441 0
M  V30 6008 C 551.616 -1.1736 -3.20062 0
M  V30 6009 H 552.809 -2.36672 -1.84191 0
M  V30 6010 H 550.362 -1.25615 -0.930079 0
M  V30 6011 H 551.097 -0.205648 -3.23647 0
M  V30 6012 H 550.882 -1.97358 -3.3881 0
M  V30 6013 H 552.372 -1.19596 -4.00108 0
M  V30 6014 N 552.809 0.956637 -1.25245 0
M  V30 6015 C 553.757 2.0743 -1.0524 0
M  V30 6016 C 554.751 1.69392 0.0160725 0
M  V30 6017 O 555.957 1.7946 -0.139382 0
M  V30 6018 H 552.332 0.678921 -0.323373 0
M  V30 6019 H 554.303 2.2146 -1.99995 0
M  V30 6020 C 553.052 3.40872 -0.685702 0
M  V30 6021 H 552.375 3.70607 -1.49968 0
M  V30 6022 H 553.815 4.19939 -0.585415 0
M  V30 6023 C 552.274 3.31367 0.608082 0
M  V30 6024 O 552.804 3.66214 1.65076 0
M  V30 6025 N 551.01 2.84486 0.592955 0
M  V30 6026 H 550.557 2.56326 -0.25592 0
M  V30 6027 H 550.515 2.78509 1.45877 0
M  V30 6028 N 554.287 1.06798 1.15896 0
M  V30 6029 C 555.536 0.782796 1.8589 0
M  V30 6030 C 555.849 -0.693498 1.82893 0
M  V30 6031 O 557.055 -1.09325 2.48516 0
M  V30 6032 C 555.511 1.3502 3.33613 0
M  V30 6033 C 555.119 2.8571 3.45071 0
M  V30 6034 C 556.863 1.14278 4.08829 0
M  V30 6035 C 554.77 3.35669 4.86909 0
M  V30 6036 H 553.7 0.289149 0.696354 0
M  V30 6037 H 556.351 1.28734 1.30766 0
M  V30 6038 H 554.733 0.773407 3.88374 0
M  V30 6039 H 555.907 3.49385 3.00445 0
M  V30 6040 H 554.222 3.05178 2.83294 0
M  V30 6041 H 556.819 1.49087 5.13495 0
M  V30 6042 H 557.162 0.0814575 4.1622 0
M  V30 6043 H 557.695 1.68563 3.60321 0
M  V30 6044 H 554.434 4.41302 4.84698 0
M  V30 6045 H 553.954 2.76745 5.32139 0
M  V30 6046 H 555.633 3.31296 5.55745 0
M  V30 6047 N 555.766 -1.3263 0.851289 0
M  V30 6048 C 557.015 -1.96633 0.449267 0
M  V30 6049 C 557.328 -1.68131 -0.999562 0
M  V30 6050 O 558.534 -2.25845 -1.50685 0
M  V30 6051 C 556.99 -3.51946 0.752446 0
M  V30 6052 C 556.598 -3.89311 2.21678 0
M  V30 6053 C 558.342 -4.22437 0.417983 0
M  V30 6054 C 556.249 -5.37655 2.46336 0
M  V30 6055 H 555.179 -0.735888 0.164269 0
M  V30 6056 H 557.83 -1.51073 1.0416 0
M  V30 6057 H 556.212 -3.95899 0.0895858 0
M  V30 6058 H 557.386 -3.56378 2.92115 0
M  V30 6059 H 555.701 -3.31836 2.51543 0
M  V30 6060 H 558.298 -5.31549 0.579674 0
M  V30 6061 H 558.641 -4.11349 -0.640115 0
M  V30 6062 H 559.174 -3.84057 1.03659 0
M  V30 6063 H 555.913 -5.5376 3.50757 0
M  V30 6064 H 555.433 -5.72005 1.80473 0
M  V30 6065 H 557.112 -6.04695 2.30115 0
M  V30 6066 N 557.244 -0.608902 -1.45362 0
M  V30 6067 C 558.49 -0.104762 -2.02529 0
M  V30 6068 C 558.823 1.26191 -1.47613 0
M  V30 6069 O 558.098 1.8327 -0.65134 0
M  V30 6070 C 558.381 -0.0672661 -3.60037 0
M  V30 6071 C 558.234 -1.4647 -4.25284 0
M  V30 6072 C 559.553 0.619877 -4.35713 0
M  V30 6073 H 556.672 -0.0395438 -0.735938 0
M  V30 6074 H 559.314 -0.781126 -1.73201 0
M  V30 6075 H 557.464 0.50871 -3.85155 0
M  V30 6076 H 559.136 -2.08785 -4.11347 0
M  V30 6077 H 557.379 -2.02502 -3.83634 0
M  V30 6078 H 558.05 -1.39069 -5.34195 0
M  V30 6079 H 560.526 0.130297 -4.15896 0
M  V30 6080 H 559.402 0.615224 -5.45441 0
M  V30 6081 H 559.663 1.68621 -4.0868 0
M  V30 6082 N 558.722 1.53707 -0.348139 0
M  V30 6083 C 559.95 2.05406 0.248224 0
M  V30 6084 C 560.365 1.22282 1.43849 0
M  V30 6085 O 559.722 0.259244 1.80649 0
M  V30 6086 C 559.773 3.55446 0.658793 0
M  V30 6087 O 559.494 4.35417 -0.484149 0
M  V30 6088 C 560.995 4.23335 1.31539 0
M  V30 6089 H 558.215 0.669344 0.0471075 0
M  V30 6090 H 560.759 1.98257 -0.501456 0
M  V30 6091 H 558.914 3.62803 1.35841 0
M  V30 6092 H 559.328 5.24268 -0.155949 0
M  V30 6093 H 560.802 5.29692 1.55338 0
M  V30 6094 H 561.279 3.75967 2.27036 0
M  V30 6095 H 561.885 4.20184 0.657683 0
M  V30 6096 N 560.2 0.0768682 1.57412 0
M  V30 6097 C 561.148 -0.906229 2.1422 0
M  V30 6098 C 562.142 -1.30477 1.08037 0
M  V30 6099 O 563.348 -1.28143 1.2641 0
M  V30 6100 H 559.723 -0.310207 0.685037 0
M  V30 6101 H 561.694 -0.402228 2.95677 0
M  V30 6102 C 560.443 -2.16245 2.72274 0
M  V30 6103 H 559.766 -1.86463 3.53655 0
M  V30 6104 H 561.206 -2.83134 3.15613 0
M  V30 6105 C 559.665 -2.92437 1.67279 0
M  V30 6106 O 560.195 -3.86322 1.10081 0
M  V30 6107 N 558.401 -2.55637 1.38195 0
M  V30 6108 H 557.948 -1.79363 1.84897 0
M  V30 6109 H 557.906 -3.06919 0.681787 0
M  V30 6110 N 561.678 -1.56367 -0.196722 0
M  V30 6111 C 563.094 -1.49916 -0.54749 0
M  V30 6112 C 563.294 -0.77659 -1.85934 0
M  V30 6113 O 562.35 -0.32644 -2.50381 0
M  V30 6114 C 563.663 -2.94577 -0.603734 0
M  V30 6115 C 565.211 -3.05239 -0.692677 0
M  V30 6116 C 565.686 -4.51308 -0.780046 0
M  V30 6117 N 567.177 -4.55453 -0.843616 0
M  V30 6118 C 567.912 -5.65786 -0.931358 0
M  V30 6119 N 567.408 -6.85812 -0.981503 0
M  V30 6120 N 569.201 -5.53695 -0.968421 0
M  V30 6121 H 561.352 -2.01761 0.663803 0
M  V30 6122 H 563.615 -0.918094 0.236238 0
M  V30 6123 H 563.321 -3.50494 0.29105 0
M  V30 6124 H 563.195 -3.47841 -1.45898 0
M  V30 6125 H 565.582 -2.49372 -1.57789 0
M  V30 6126 H 565.663 -2.55103 0.188736 0
M  V30 6127 H 565.307 -5.078 0.100811 0
M  V30 6128 H 565.237 -4.99176 -1.67724 0
M  V30 6129 H 567.728 -3.69025 -0.814176 0
M  V30 6130 H 568.041 -7.65648 -1.04892 0
M  V30 6131 H 566.386 -6.88474 -0.950208 0
M  V30 6132 H 569.577 -4.58848 -0.926072 0
M  V30 6133 H 569.75 -6.39708 -1.03334 0
M  V30 6134 N 563.156 0.464375 -1.50603 0
M  V30 6135 C 564.386 1.23727 -1.65454 0
M  V30 6136 C 564.794 1.86119 -0.340032 0
M  V30 6137 O 564.137 1.70301 0.688706 0
M  V30 6138 C 564.199 2.38153 -2.69301 0
M  V30 6139 C 563.863 1.96345 -4.12671 0
M  V30 6140 C 564.86 1.48215 -4.98326 0
M  V30 6141 C 562.545 2.04861 -4.58625 0
M  V30 6142 C 564.539 1.09152 -6.27985 0
M  V30 6143 C 562.226 1.65409 -5.88288 0
M  V30 6144 C 563.224 1.17634 -6.72794 0
M  V30 6145 O 562.912 0.787312 -8.00035 0
M  V30 6146 H 562.644 0.380075 -0.559034 0
M  V30 6147 H 565.198 0.559919 -1.97621 0
M  V30 6148 H 563.428 3.09081 -2.32392 0
M  V30 6149 H 565.117 3.00099 -2.73304 0
M  V30 6150 H 565.883 1.41052 -4.64036 0
M  V30 6151 H 561.762 2.40996 -3.92991 0
M  V30 6152 H 565.306 0.717909 -6.93896 0
M  V30 6153 H 561.203 1.72233 -6.22098 0
M  V30 6154 H 561.971 0.915567 -8.13363 0
M  V30 6155 N 564.634 1.40294 0.718013 0
M  V30 6156 C 565.911 1.2894 1.47084 0
M  V30 6157 C 566.291 -0.0933625 2.10893 0
M  V30 6158 O 565.639 -1.10598 1.99951 0
M  V30 6159 C 565.849 2.4264 2.50852 0
M  V30 6160 C 567.197 2.8276 3.16752 0
M  V30 6161 O 568.221 2.42215 2.61171 0
M  V30 6162 O 567.08 3.528 4.17366 0
M  V30 6163 H 564.174 0.506236 0.653952 0
M  V30 6164 H 566.72 1.52208 0.750394 0
M  V30 6165 H 565.492 3.35009 2.022 0
M  V30 6166 H 565.115 2.21129 3.30435 0
M  V30 6167 N 566.112 -0.949982 1.2575 0
M  V30 6168 C 567.06 -2.06869 1.06339 0
M  V30 6169 C 568.054 -1.69399 -0.00708901 0
M  V30 6170 O 569.26 -1.79383 0.148897 0
M  V30 6171 H 565.635 -0.677197 0.326969 0
M  V30 6172 H 567.606 -2.20396 2.01167 0
M  V30 6173 C 566.355 -3.40503 0.703769 0
M  V30 6174 H 565.678 -3.69807 1.51931 0
M  V30 6175 H 567.118 -4.19623 0.607677 0
M  V30 6176 C 565.577 -3.31685 -0.5905 0
M  V30 6177 O 566.107 -3.67085 -1.63131 0
M  V30 6178 N 564.313 -2.84797 -0.577859 0
M  V30 6179 H 563.86 -2.56186 0.26951 0
M  V30 6180 H 563.818 -2.79279 -1.44398 0
M  V30 6181 N 567.59 -1.07411 -1.15328 0
M  V30 6182 C 568.5 -0.706438 -2.23711 0
M  V30 6183 C 569.516 0.282586 -1.7169 0
M  V30 6184 O 570.692 0.129066 -2.00986 0
M  V30 6185 C 567.757 -0.11048 -3.46524 0
M  V30 6186 C 566.818 -1.15282 -4.13532 0
M  V30 6187 C 566.051 -0.585205 -5.30482 0
M  V30 6188 O 566.274 0.598549 -5.67251 0
M  V30 6189 O 565.208 -1.33039 -5.87013 0
M  V30 6190 H 569.034 -1.61031 -2.57493 0
M  V30 6191 H 566.619 -0.847113 -1.23062 0
M  V30 6192 H 568.501 0.21957 -4.20828 0
M  V30 6193 H 567.176 0.766703 -3.14489 0
M  V30 6194 H 566.083 -1.53523 -3.41147 0
M  V30 6195 H 567.416 -2.00192 -4.49649 0
M  V30 6196 N 569.068 1.32177 -0.85831 0
M  V30 6197 C 569.998 2.31282 -0.321041 0
M  V30 6198 C 570.979 1.59841 0.581786 0
M  V30 6199 O 572.164 1.87619 0.501262 0
M  V30 6200 C 569.294 3.4385 0.48832 0
M  V30 6201 C 568.248 4.26799 -0.320391 0
M  V30 6202 C 567.574 5.31164 0.613934 0
M  V30 6203 C 568.874 4.98829 -1.54813 0
M  V30 6204 H 570.568 2.76469 -1.14915 0
M  V30 6205 H 568.114 1.32916 -0.554028 0
M  V30 6206 H 570.067 4.12224 0.874626 0
M  V30 6207 H 568.791 2.97401 1.34983 0
M  V30 6208 H 567.45 3.60077 -0.688497 0
M  V30 6209 H 567.098 4.80967 1.47239 0
M  V30 6210 H 566.798 5.8755 0.0768097 0
M  V30 6211 H 568.322 6.024 0.997336 0
M  V30 6212 H 569.736 5.59864 -1.23392 0
M  V30 6213 H 568.133 5.64957 -2.02346 0
M  V30 6214 H 569.203 4.26483 -2.30739 0
M  V30 6215 N 570.547 0.616602 1.45037 0
M  V30 6216 C 571.479 -0.135186 2.28801 0
M  V30 6217 C 572.492 -0.82303 1.40464 0
M  V30 6218 O 573.681 -0.686909 1.64754 0
M  V30 6219 C 570.781 -1.21292 3.16451 0
M  V30 6220 C 569.954 -0.61043 4.3312 0
M  V30 6221 C 569.013 -1.58022 5.01912 0
M  V30 6222 O 568.039 -1.10301 5.58411 0
M  V30 6223 N 569.241 -2.91464 5.02025 0
M  V30 6224 H 572.006 0.583612 2.93963 0
M  V30 6225 H 569.567 0.456723 1.55324 0
M  V30 6226 H 571.559 -1.86169 3.59337 0
M  V30 6227 H 570.129 -1.83412 2.53138 0
M  V30 6228 H 569.349 0.216638 3.93604 0
M  V30 6229 H 570.637 -0.188293 5.08451 0
M  V30 6230 H 570.035 -3.32829 4.57429 0
M  V30 6231 H 568.592 -3.51741 5.48745 0
M  V30 6232 N 572.025 -1.5352 0.356285 0
M  V30 6233 C 573.302 -1.93405 -0.292223 0
M  V30 6234 C 573.682 -1.28901 -1.67176 0
M  V30 6235 O 573.03 -0.444632 -2.24132 0
M  V30 6236 C 573.24 -3.47223 -0.35175 0
M  V30 6237 C 574.588 -4.20389 -0.596534 0
M  V30 6238 O 575.612 -3.53554 -0.433344 0
M  V30 6239 O 574.471 -5.3881 -0.913589 0
M  V30 6240 H 571.565 -0.808666 -0.173172 0
M  V30 6241 H 574.111 -1.64713 0.408391 0
M  V30 6242 H 572.883 -3.86423 0.615841 0
M  V30 6243 H 572.506 -3.8212 -1.09864 0
M  V30 6244 N 573.503 -0.0852151 -1.57369 0
M  V30 6245 C 574.749 0.581666 -1.94279 0
M  V30 6246 C 575.082 1.68444 -0.966446 0
M  V30 6247 O 574.357 1.945 0.00215277 0
M  V30 6248 C 574.64 1.14609 -3.41375 0
M  V30 6249 C 574.493 0.0490414 -4.49773 0
M  V30 6250 C 575.812 2.04751 -3.8957 0
M  V30 6251 H 572.931 0.209972 -0.706456 0
M  V30 6252 H 575.573 -0.153915 -1.89376 0
M  V30 6253 H 573.723 1.77297 -3.45685 0
M  V30 6254 H 575.395 -0.584721 -4.57579 0
M  V30 6255 H 573.638 -0.618638 -4.29366 0
M  V30 6256 H 574.309 0.484601 -5.49869 0
M  V30 6257 H 576.785 1.51981 -3.87351 0
M  V30 6258 H 575.661 2.41173 -4.93079 0
M  V30 6259 H 575.922 2.96107 -3.28288 0
M  V30 6260 N 574.981 1.5647 0.188427 0
M  V30 6261 C 575.928 1.95073 1.23349 0
M  V30 6262 C 576.898 0.812238 1.44886 0
M  V30 6263 O 578.083 1.07095 1.57909 0
M  V30 6264 C 575.223 2.30124 2.57171 0
M  V30 6265 C 574.336 3.57069 2.43157 0
M  V30 6266 C 573.471 3.81411 3.69729 0
M  V30 6267 C 572.51 5.0176 3.50575 0
M  V30 6268 N 571.647 5.22321 4.69175 0
M  V30 6269 H 576.487 2.84171 0.89728 0
M  V30 6270 H 574.024 1.40623 0.431683 0
M  V30 6271 H 575.982 2.48463 3.35145 0
M  V30 6272 H 574.612 1.44159 2.88822 0
M  V30 6273 H 573.664 3.4674 1.56447 0
M  V30 6274 H 574.976 4.452 2.24942 0
M  V30 6275 H 574.13 4.00026 4.56141 0
M  V30 6276 H 572.869 2.91624 3.90905 0
M  V30 6277 H 571.874 4.83061 2.62549 0
M  V30 6278 H 573.099 5.93063 3.30837 0
M  V30 6279 H 571.045 4.35483 4.90602 0
M  V30 6280 H 570.962 6.04643 4.53809 0
M  V30 6281 H 572.23 5.45401 5.56919 0
M  V30 6282 N 576.459 -0.456382 1.50847 0
M  V30 6283 C 577.407 -1.57318 1.71329 0
M  V30 6284 C 578.401 -1.59187 0.579287 0
M  V30 6285 O 579.607 -1.6316 0.76018 0
M  V30 6286 H 575.982 -0.5223 0.541024 0
M  V30 6287 H 577.953 -1.3721 2.64983 0
M  V30 6288 C 576.702 -2.95142 1.83811 0
M  V30 6289 H 576.025 -2.94428 2.70467 0
M  V30 6290 H 577.465 -3.72702 2.02161 0
M  V30 6291 C 575.924 -3.31636 0.593224 0
M  V30 6292 O 576.454 -4.00852 -0.260898 0
M  V30 6293 N 574.66 -2.87205 0.442902 0
M  V30 6294 H 574.207 -2.31051 1.13901 0
M  V30 6295 H 574.165 -3.11986 -0.38884 0
M  V30 6296 N 577.937 -1.40673 -0.710563 0
M  V30 6297 C 578.884 -1.41336 -1.82463 0
M  V30 6298 C 579.854 -0.269648 -1.63897 0
M  V30 6299 O 581.039 -0.468463 -1.8496 0
M  V30 6300 C 578.179 -1.28665 -3.20218 0
M  V30 6301 C 577.292 -2.52784 -3.5032 0
M  V30 6302 C 576.427 -2.32517 -4.77608 0
M  V30 6303 C 575.466 -3.52187 -5.0063 0
M  V30 6304 N 574.603 -3.31084 -6.19135 0
M  V30 6305 H 579.443 -2.36558 -1.8123 0
M  V30 6306 H 576.98 -1.17483 -0.885226 0
M  V30 6307 H 578.938 -1.19324 -3.99772 0
M  V30 6308 H 577.568 -0.370602 -3.20666 0
M  V30 6309 H 576.62 -2.72634 -2.65283 0
M  V30 6310 H 577.932 -3.41845 -3.63241 0
M  V30 6311 H 577.086 -2.20558 -5.65189 0
M  V30 6312 H 575.825 -1.40889 -4.66906 0
M  V30 6313 H 574.83 -3.64617 -4.11502 0
M  V30 6314 H 576.055 -4.44749 -5.13201 0
M  V30 6315 H 574.001 -2.42143 -6.09674 0
M  V30 6316 H 573.918 -4.13713 -6.32754 0
M  V30 6317 H 575.186 -3.22868 -7.0949 0
M  V30 6318 N 579.415 0.9433 -1.26252 0
M  V30 6319 C 580.661 1.69175 -1.11837 0
M  V30 6320 C 580.994 1.91238 0.337891 0
M  V30 6321 O 580.269 1.49152 1.24836 0
M  V30 6322 C 580.552 3.06783 -1.88563 0
M  V30 6323 C 580.405 2.9206 -3.42083 0
M  V30 6324 C 581.724 4.06865 -1.67776 0
M  V30 6325 H 578.843 0.61399 -0.407658 0
M  V30 6326 H 581.485 1.09572 -1.55222 0
M  V30 6327 H 579.635 3.57663 -1.51689 0
M  V30 6328 H 581.307 2.48419 -3.88698 0
M  V30 6329 H 579.55 2.27731 -3.69217 0
M  V30 6330 H 580.221 3.89651 -3.90994 0
M  V30 6331 H 582.697 3.64939 -1.99897 0
M  V30 6332 H 581.573 5.01168 -2.23879 0
M  V30 6333 H 581.834 4.37705 -0.621816 0
M  V30 6334 N 580.893 1.08022 1.14757 0
M  V30 6335 C 582.123 0.827646 1.89298 0
M  V30 6336 C 582.531 -0.623506 1.78631 0
M  V30 6337 O 581.874 -1.43991 1.14071 0
M  V30 6338 C 581.936 1.16553 3.40082 0
M  V30 6339 C 581.6 2.61866 3.74533 0
M  V30 6340 C 582.597 3.60116 3.74984 0
M  V30 6341 C 580.282 2.97619 4.04633 0
M  V30 6342 C 582.276 4.92151 4.05051 0
M  V30 6343 C 579.963 4.2985 4.34364 0
M  V30 6344 C 580.961 5.26926 4.34555 0
M  V30 6345 O 580.649 6.5678 4.63568 0
M  V30 6346 H 580.381 0.298396 0.606577 0
M  V30 6347 H 582.935 1.44187 1.46285 0
M  V30 6348 H 581.165 0.494296 3.83528 0
M  V30 6349 H 582.854 0.894407 3.95923 0
M  V30 6350 H 583.62 3.33837 3.51821 0
M  V30 6351 H 579.499 2.22702 4.03639 0
M  V30 6352 H 583.043 5.67915 4.05115 0
M  V30 6353 H 578.94 4.55879 4.56995 0
M  V30 6354 H 579.708 6.62035 4.81303 0
M  V30 6355 N 582.371 -1.3172 0.865308 0
M  V30 6356 C 583.596 -2.01591 0.487415 0
M  V30 6357 C 584.021 -1.6455 -0.911307 0
M  V30 6358 O 583.379 -0.851689 -1.6005 0
M  V30 6359 C 583.427 -3.54759 0.646401 0
M  V30 6360 O 582.531 -4.11185 -0.316284 0
M  V30 6361 H 581.872 -0.634884 0.194468 0
M  V30 6362 H 584.402 -1.68024 1.16744 0
M  V30 6363 H 584.412 -4.04438 0.537932 0
M  V30 6364 H 583.087 -3.8106 1.66632 0
M  V30 6365 H 581.664 -3.72543 -0.163162 0
M  V30 6366 N 583.85 -0.624285 -1.44708 0
M  V30 6367 C 585.266 -0.289322 -1.56956 0
M  V30 6368 C 585.466 1.20773 -1.61295 0
M  V30 6369 O 584.522 1.9915 -1.55227 0
M  V30 6370 C 585.835 -0.975215 -2.84447 0
M  V30 6371 C 587.383 -0.952709 -2.98148 0
M  V30 6372 C 587.858 -1.61893 -4.28433 0
M  V30 6373 N 589.349 -1.5852 -4.35231 0
M  V30 6374 C 590.084 -2.06969 -5.34744 0
M  V30 6375 N 589.58 -2.63579 -6.40701 0
M  V30 6376 N 591.373 -1.97638 -5.26209 0
M  V30 6377 H 583.524 -1.59612 -1.40135 0
M  V30 6378 H 585.787 -0.669592 -0.671081 0
M  V30 6379 H 585.493 -2.02999 -2.87201 0
M  V30 6380 H 585.367 -0.508749 -3.73753 0
M  V30 6381 H 587.754 0.093568 -2.94952 0
M  V30 6382 H 587.835 -1.4576 -2.10209 0
M  V30 6383 H 587.479 -2.66463 -4.32389 0
M  V30 6384 H 587.409 -1.08893 -5.15218 0
M  V30 6385 H 589.899 -1.17183 -3.59272 0
M  V30 6386 H 590.213 -2.98298 -7.12908 0
M  V30 6387 H 588.558 -2.67626 -6.41406 0
M  V30 6388 H 591.749 -1.5314 -4.42341 0
M  V30 6389 H 591.922 -2.35708 -6.03611 0
M  V30 6390 N 585.328 1.53329 -0.364422 0
M  V30 6391 C 586.605 1.93557 0.281962 0
M  V30 6392 C 586.985 1.29786 1.6649 0
M  V30 6393 O 586.333 0.456512 2.23893 0
M  V30 6394 C 586.543 3.47405 0.333331 0
M  V30 6395 C 587.891 4.20699 0.574231 0
M  V30 6396 O 588.915 3.53779 0.414588 0
M  V30 6397 O 587.774 5.39287 0.885002 0
M  V30 6398 H 584.868 0.809573 0.168881 0
M  V30 6399 H 587.414 1.64494 -0.417121 0
M  V30 6400 H 586.186 3.86091 -0.636326 0
M  V30 6401 H 585.809 3.82697 1.07836 0
M  V30 6402 N 586.806 0.0935595 1.57322 0
M  V30 6403 C 588.055 -0.570191 1.93473 0
M  V30 6404 C 588.368 -1.69434 0.977318 0
M  V30 6405 O 589.574 -2.41914 1.23248 0
M  V30 6406 C 588.03 -1.06564 3.43762 0
M  V30 6407 C 587.638 0.0286723 4.47991 0
M  V30 6408 C 589.382 -1.70221 3.88877 0
M  V30 6409 C 587.289 -0.482046 5.89432 0
M  V30 6410 H 586.219 -0.216764 0.72217 0
M  V30 6411 H 588.87 0.169313 1.82717 0
M  V30 6412 H 587.252 -1.85878 3.49664 0
M  V30 6413 H 588.426 0.804106 4.5373 0
M  V30 6414 H 586.741 0.570336 4.12476 0
M  V30 6415 H 589.338 -2.09502 4.91948 0
M  V30 6416 H 589.681 -2.57078 3.27439 0
M  V30 6417 H 590.214 -0.974919 3.85668 0
M  V30 6418 H 586.953 0.349871 6.54566 0
M  V30 6419 H 586.473 -1.22452 5.87167 0
M  V30 6420 H 588.152 -0.951508 6.39965 0
M  V30 6421 N 588.284 -1.56567 -0.180126 0
M  V30 6422 C 589.531 -1.81492 -0.898167 0
M  V30 6423 C 589.859 -0.669225 -1.82624 0
M  V30 6424 O 589.114 0.344096 -1.92651 0
M  V30 6425 C 589.413 -3.1252 -1.73395 0
M  V30 6426 C 589.079 -4.40658 -0.955567 0
M  V30 6427 C 587.741 -4.75465 -0.740707 0
M  V30 6428 C 590.093 -5.19593 -0.408948 0
M  V30 6429 C 587.421 -5.86691 0.0320128 0
M  V30 6430 C 589.773 -6.31627 0.350638 0
M  V30 6431 C 588.437 -6.65007 0.576378 0
M  V30 6432 H 587.707 -0.664125 -0.328662 0
M  V30 6433 H 590.354 -1.908 -0.163616 0
M  V30 6434 H 588.659 -2.98515 -2.53763 0
M  V30 6435 H 590.356 -3.29013 -2.29241 0
M  V30 6436 H 586.946 -4.13352 -1.13306 0
M  V30 6437 H 591.13 -4.93104 -0.562307 0
M  V30 6438 H 586.386 -6.11016 0.216735 0
M  V30 6439 H 590.56 -6.92001 0.781497 0
M  V30 6440 H 588.187 -7.51033 1.17703 0
M  V30 6441 N 589.762 0.448376 -1.51087 0
M  V30 6442 C 591.01 1.19635 -1.62886 0
M  V30 6443 C 591.331 1.91977 -0.342024 0
M  V30 6444 O 590.601 1.85094 0.641636 0
M  V30 6445 H 589.181 0.444598 -0.600285 0
M  V30 6446 H 591.843 0.515138 -1.87969 0
M  V30 6447 H 590.939 1.93194 -2.45117 0
M  V30 6448 N 591.24 1.41047 0.703093 0
M  V30 6449 C 592.656 1.23351 1.01275 0
M  V30 6450 C 592.856 0.11754 2.01157 0
M  V30 6451 O 591.912 -0.520518 2.47077 0
M  V30 6452 C 593.225 2.58001 1.54454 0
M  V30 6453 C 594.773 2.65119 1.66376 0
M  V30 6454 C 595.248 4.00067 2.22958 0
M  V30 6455 N 596.739 4.01875 2.30328 0
M  V30 6456 C 597.474 5.03087 2.75119 0
M  V30 6457 N 596.97 6.14692 3.19571 0
M  V30 6458 N 598.763 4.90451 2.74616 0
M  V30 6459 H 590.914 2.1236 0.0412686 0
M  V30 6460 H 593.177 0.944543 0.08089 0
M  V30 6461 H 592.883 3.40378 0.88521 0
M  V30 6462 H 592.757 2.79962 2.52786 0
M  V30 6463 H 595.144 1.83106 2.31422 0
M  V30 6464 H 595.225 2.46975 0.666089 0
M  V30 6465 H 594.869 4.82526 1.58529 0
M  V30 6466 H 594.799 4.15547 3.23462 0
M  V30 6467 H 597.29 3.21291 1.98949 0
M  V30 6468 H 597.603 6.87799 3.52352 0
M  V30 6469 H 595.948 6.18239 3.17498 0
M  V30 6470 H 599.139 4.0235 2.39233 0
M  V30 6471 H 599.312 5.6947 3.09206 0
M  V30 6472 N 592.718 -0.936591 1.26751 0
M  V30 6473 C 593.995 -1.66094 1.03306 0
M  V30 6474 C 594.375 -2.06568 -0.435058 0
M  V30 6475 O 593.723 -1.79305 -1.41641 0
M  V30 6476 C 593.933 -2.86969 1.98619 0
M  V30 6477 C 595.281 -3.58516 2.27489 0
M  V30 6478 O 596.305 -2.97082 1.96522 0
M  V30 6479 O 595.164 -4.69181 2.80235 0
M  V30 6480 H 592.258 -0.727568 0.393158 0
M  V30 6481 H 594.804 -0.987914 1.3798 0
M  V30 6482 H 593.576 -2.53985 2.9767 0
M  V30 6483 H 593.199 -3.61996 1.64454 0
M  V30 6484 O 594.235 -1.20928 -1.07045 0
M  V30 6485 H 594.926 -0.966183 -1.67883 0
M  V30 END ATOM
M  V30 BEGIN BOND
M  V30 END BOND
M  V30 END CTAB
M  END
$$$$
