drugbank_target|P0C188 NAD(P) transhydrogenase subunit beta (DB03461)
 OpenBabel12092120043D

  0  0  0     0  0            999 V3000
M  V30 BEGIN CTAB
M  V30 COUNTS 6820 6880 0 0 0
M  V30 BEGIN ATOM
M  V30 1 H -0.908 1.98254 -0.117106 0
M  V30 2 N 0 1.576 0 0
M  V30 3 C 0.933 2.03868 1.02534 0
M  V30 4 C 1.911 0.928543 1.3348 0
M  V30 5 O 3.095 1.19667 1.45644 0
M  V30 6 C 0.222 2.43627 2.35294 0
M  V30 7 C -0.732 3.65373 2.2001 0
M  V30 8 S 0.101 5.13292 1.52614 0
M  V30 9 C 1.257 5.56322 2.86805 0
M  V30 10 H 1.49 2.90518 0.631377 0
M  V30 11 H -0.977 1.52953 0.210867 0
M  V30 12 H 0.981 2.67203 3.11629 0
M  V30 13 H -0.358 1.57376 2.7183 0
M  V30 14 H -1.165 3.90944 3.18086 0
M  V30 15 H -1.563 3.418 1.51819 0
M  V30 16 H 0.729 5.58782 3.83104 0
M  V30 17 H 1.672 6.56266 2.65933 0
M  V30 18 H 2.08 4.83886 2.90714 0
M  V30 19 N 1.4781 -0.272755 1.55222 0
M  V30 20 C 2.7061 -1.02255 1.79865 0
M  V30 21 C 3.1211 -1.79924 0.572088 0
M  V30 22 O 2.4781 -1.76638 -0.458842 0
M  V30 23 C 2.5291 -1.98094 3.02392 0
M  V30 24 O 2.2501 -1.23572 4.20311 0
M  V30 25 C 3.7511 -2.84884 3.39641 0
M  V30 26 H 0.9711 -0.302057 0.599168 0
M  V30 27 H 3.5151 -0.303465 2.02236 0
M  V30 28 H 1.6701 -2.65465 2.82147 0
M  V30 29 H 2.0841 -1.88172 4.89583 0
M  V30 30 H 3.5581 -3.47927 4.28545 0
M  V30 31 H 4.0351 -3.54665 2.59055 0
M  V30 32 H 4.6411 -2.23003 3.62146 0
M  V30 33 N 2.9562 -1.48159 -0.537278 0
M  V30 34 C 3.9062 -1.5854 -1.63857 0
M  V30 35 C 4.8902 -0.442969 -1.54682 0
M  V30 36 O 6.0822 -0.69401 -1.62827 0
M  V30 37 C 3.2112 -1.62144 -3.02596 0
M  V30 38 C 2.2972 -2.81841 -3.16901 0
M  V30 39 N 2.6882 -4.06337 -3.01204 0
M  V30 40 C 0.9862 -2.79021 -3.47942 0
M  V30 41 C 1.6872 -4.86606 -3.18731 0
M  V30 42 N 0.6632 -4.19288 -3.45974 0
M  V30 43 H 4.4652 -2.5255 -1.50319 0
M  V30 44 H 1.9792 -1.4443 -0.742555 0
M  V30 45 H 3.9762 -1.67674 -3.81695 0
M  V30 46 H 2.6362 -0.69245 -3.17231 0
M  V30 47 H 3.6472 -4.36888 -2.78117 0
M  V30 48 H 0.3242 -1.95347 -3.6898 0
M  V30 49 H 1.7142 -5.95385 -3.11394 0
M  V30 50 N 4.4343 0.785586 -1.36625 0
M  V30 51 C 5.6593 1.57963 -1.34397 0
M  V30 52 C 6.0843 1.87964 0.071526 0
M  V30 53 O 5.4423 1.48182 1.0446 0
M  V30 54 C 5.4903 2.87511 -2.17646 0
M  V30 55 O 4.5943 3.81281 -1.57158 0
M  V30 56 H 3.9353 0.479014 -0.459828 0
M  V30 57 H 6.4653 0.973411 -1.79961 0
M  V30 58 H 6.4753 3.36745 -2.30362 0
M  V30 59 H 5.1503 2.65002 -3.20541 0
M  V30 60 H 3.7273 3.39885 -1.53403 0
M  V30 61 N 5.9124 1.20967 1.01018 0
M  V30 62 C 6.8424 0.988272 2.11555 0
M  V30 63 C 7.8234 -0.0849778 1.69888 0
M  V30 64 O 9.0084 0.0738202 1.9406 0
M  V30 65 C 6.1384 0.546528 3.42973 0
M  V30 66 C 5.0924 1.56375 3.9841 0
M  V30 67 C 4.4184 0.97842 5.25672 0
M  V30 68 C 5.7184 2.94922 4.31066 0
M  V30 69 H 7.4124 1.91276 2.30334 0
M  V30 70 H 4.9584 0.921073 1.1069 0
M  V30 71 H 6.9114 0.378839 4.19694 0
M  V30 72 H 5.6354 -0.413598 3.23971 0
M  V30 73 H 4.2944 1.71891 3.23804 0
M  V30 74 H 3.9424 0.0101688 5.02999 0
M  V30 75 H 3.6424 1.65784 5.63728 0
M  V30 76 H 5.1664 0.821939 6.05043 0
M  V30 77 H 6.5804 2.8288 4.9865 0
M  V30 78 H 4.9774 3.5983 4.80253 0
M  V30 79 H 6.0474 3.4616 3.39561 0
M  V30 80 N 7.3905 -1.2043 1.01659 0
M  V30 81 C 8.6185 -1.93777 0.725132 0
M  V30 82 C 9.0335 -1.74772 -0.714166 0
M  V30 83 O 8.3905 -1.06169 -1.4844 0
M  V30 84 C 8.4415 -3.45876 1.05129 0
M  V30 85 O 8.1625 -3.6426 2.43406 0
M  V30 86 C 9.6635 -4.36368 0.780891 0
M  V30 87 H 6.8835 -0.615901 0.266284 0
M  V30 88 H 9.4275 -1.52922 1.35776 0
M  V30 89 H 7.5825 -3.8461 0.464065 0
M  V30 90 H 7.9965 -4.58246 2.55169 0
M  V30 91 H 9.4705 -5.41743 1.05918 0
M  V30 92 H 9.9475 -4.38275 -0.284937 0
M  V30 93 H 10.5535 -4.03296 1.35027 0
M  V30 94 N 8.8686 -0.792821 -1.36206 0
M  V30 95 C 9.8016 -0.139422 -2.27774 0
M  V30 96 C 10.7796 0.68649 -1.47398 0
M  V30 97 O 11.9636 0.656738 -1.7669 0
M  V30 98 C 9.0906 0.807947 -3.28922 0
M  V30 99 C 8.1366 0.0633999 -4.26453 0
M  V30 100 S 8.9696 -1.26319 -5.20388 0
M  V30 101 C 10.1256 -0.31991 -6.25082 0
M  V30 102 H 10.3586 -0.915809 -2.82843 0
M  V30 103 H 7.8916 -0.587203 -1.42798 0
M  V30 104 H 9.8496 1.34908 -3.87699 0
M  V30 105 H 8.5106 1.55761 -2.72759 0
M  V30 106 H 7.7036 0.782386 -4.9789 0
M  V30 107 H 7.3056 -0.407352 -3.71775 0
M  V30 108 H 9.5976 0.499985 -6.75653 0
M  V30 109 H 10.5406 -1.00307 -7.00959 0
M  V30 110 H 10.9486 0.0782694 -5.64446 0
M  V30 111 N 10.3467 1.47872 -0.545128 0
M  V30 112 C 11.3097 2.28337 0.198717 0
M  V30 113 C 12.3097 1.36255 0.853888 0
M  V30 114 O 13.4997 1.59003 0.711606 0
M  V30 115 C 10.6317 3.15585 1.28915 0
M  V30 116 H 11.8247 2.95567 -0.507941 0
M  V30 117 H 9.3777 1.53362 -0.301616 0
M  V30 118 H 10.1127 2.53019 2.02859 0
M  V30 119 H 9.8977 3.83337 0.824309 0
M  V30 120 H 11.3877 3.76243 1.81194 0
M  V30 121 N 11.8248 0.280983 1.55075 0
M  V30 122 C 12.7878 -0.590896 2.21452 0
M  V30 123 C 13.7878 -1.07682 1.19421 0
M  V30 124 O 14.9778 -0.97605 1.44288 0
M  V30 125 C 12.1098 -1.81587 2.88511 0
M  V30 126 H 13.3028 -0.0112554 2.99898 0
M  V30 127 H 10.8558 0.0316438 1.56268 0
M  V30 128 H 11.5908 -2.43587 2.14093 0
M  V30 129 H 11.3758 -1.4753 3.63287 0
M  V30 130 H 12.8658 -2.43575 3.39206 0
M  V30 131 N 13.3029 -1.57598 0.00835791 0
M  V30 132 C 14.5329 -1.94931 -0.684496 0
M  V30 133 C 14.9409 -0.882233 -1.67372 0
M  V30 134 O 14.2839 0.146621 -1.83114 0
M  V30 135 C 14.3459 -3.283 -1.4649 0
M  V30 136 C 14.0099 -4.52548 -0.63634 0
M  V30 137 C 15.0069 -5.19839 0.0795586 0
M  V30 138 C 12.6919 -4.98942 -0.579849 0
M  V30 139 C 14.6859 -6.3183 0.840843 0
M  V30 140 C 12.3729 -6.10819 0.185155 0
M  V30 141 C 13.3709 -6.77121 0.894227 0
M  V30 142 O 13.0589 -7.86853 1.64673 0
M  V30 143 H 12.7909 -0.647249 -0.19505 0
M  V30 144 H 15.3449 -2.05318 0.0581272 0
M  V30 145 H 13.5749 -3.14345 -2.2522 0
M  V30 146 H 15.2639 -3.50685 -2.04389 0
M  V30 147 H 16.0299 -4.84979 0.0451202 0
M  V30 148 H 11.9089 -4.47155 -1.1213 0
M  V30 149 H 15.4529 -6.83513 1.39483 0
M  V30 150 H 11.3499 -6.4512 0.221384 0
M  V30 151 H 12.1179 -8.03412 1.56432 0
M  V30 152 N 14.781 0.264519 -1.55364 0
M  V30 153 C 16.03 0.992812 -1.75574 0
M  V30 154 C 16.343 1.87142 -0.568979 0
M  V30 155 O 17.549 2.63513 -0.653682 0
M  V30 156 C 16.005 1.81519 -3.10771 0
M  V30 157 C 15.613 0.984839 -4.37041 0
M  V30 158 C 17.357 2.53727 -3.40327 0
M  V30 159 C 15.264 1.80209 -5.63275 0
M  V30 160 H 14.194 0.374412 -0.65447 0
M  V30 161 H 16.845 0.248138 -1.81815 0
M  V30 162 H 15.227 2.60115 -2.98591 0
M  V30 163 H 16.401 0.242455 -4.60162 0
M  V30 164 H 14.716 0.37691 -4.14691 0
M  V30 165 H 17.313 3.15292 -4.3185 0
M  V30 166 H 17.656 3.24447 -2.60845 0
M  V30 167 H 18.189 1.82156 -3.53644 0
M  V30 168 H 14.928 1.13896 -6.45529 0
M  V30 169 H 14.448 2.52022 -5.44284 0
M  V30 170 H 16.127 2.37364 -6.01887 0
M  V30 171 N 16.2591 1.48442 0.529413 0
M  V30 172 C 17.5051 1.5672 1.28711 0
M  V30 173 C 17.8381 0.2406 1.92704 0
M  V30 174 O 17.1131 -0.753454 1.79313 0
M  V30 175 C 17.3961 2.70587 2.37603 0
M  V30 176 C 17.2491 4.12953 1.78297 0
M  V30 177 C 18.5681 2.80212 3.39366 0
M  V30 178 H 15.6871 0.570474 0.466613 0
M  V30 179 H 18.3291 1.80617 0.589706 0
M  V30 180 H 16.4791 2.50342 2.97088 0
M  V30 181 H 18.1511 4.44639 1.22858 0
M  V30 182 H 16.3941 4.19927 1.0883 0
M  V30 183 H 17.0651 4.88448 2.57144 0
M  V30 184 H 19.5411 2.98553 2.89836 0
M  V30 185 H 18.4171 3.61611 4.12951 0
M  V30 186 H 18.6781 1.88393 3.99951 0
M  V30 187 N 17.7372 -0.778329 1.37039 0
M  V30 188 C 18.7002 -1.87301 1.32102 0
M  V30 189 C 19.7002 -1.59198 0.226405 0
M  V30 190 O 20.8902 -1.67403 0.481861 0
M  V30 191 C 18.0222 -3.24309 1.05055 0
M  V30 192 H 19.2152 -1.93093 2.29467 0
M  V30 193 H 16.7682 -0.977358 1.21973 0
M  V30 194 H 17.5032 -3.24196 0.0819373 0
M  V30 195 H 17.2882 -3.46098 1.84279 0
M  V30 196 H 18.7782 -4.04382 1.04234 0
M  V30 197 N 19.2153 -1.21501 -1.00376 0
M  V30 198 C 20.4633 -1.03095 -1.73827 0
M  V30 199 C 20.7843 0.436341 -1.90055 0
M  V30 200 O 20.0543 1.31466 -1.45236 0
M  V30 201 H 18.6343 -0.378487 -0.644016 0
M  V30 202 H 21.2963 -1.52831 -1.20949 0
M  V30 203 H 20.3923 -1.49991 -2.73695 0
M  V30 204 N 20.6934 1.19889 -1.02296 0
M  V30 205 C 21.9394 1.89701 -0.717033 0
M  V30 206 C 22.2724 1.7905 0.751989 0
M  V30 207 O 21.5474 1.17891 1.547 0
M  V30 208 C 21.8304 3.40858 -1.16136 0
M  V30 209 C 21.6834 3.60411 -2.69117 0
M  V30 210 C 23.0024 4.33876 -0.737549 0
M  V30 211 H 20.1214 0.688874 -0.261957 0
M  V30 212 H 22.7634 1.41154 -1.27183 0
M  V30 213 H 20.9134 3.82335 -0.689342 0
M  V30 214 H 22.5854 3.28145 -3.2422 0
M  V30 215 H 20.8284 3.03665 -3.0979 0
M  V30 216 H 21.4994 4.66396 -2.95261 0
M  V30 217 H 23.9754 4.00081 -1.14344 0
M  V30 218 H 22.8514 5.38242 -1.0764 0
M  V30 219 H 23.1124 4.40628 0.360436 0
M  V30 220 N 22.1715 0.800033 1.35784 0
M  V30 221 C 23.1015 0.220184 2.3246 0
M  V30 222 C 24.0825 -0.65073 1.57161 0
M  V30 223 O 25.2675 -0.582359 1.85263 0
M  V30 224 C 22.3975 -0.637353 3.41402 0
M  V30 225 C 21.3515 0.134531 4.27789 0
M  V30 226 C 20.6775 -0.844285 5.27992 0
M  V30 227 C 21.9775 1.32979 5.05088 0
M  V30 228 H 23.6715 1.02787 2.81203 0
M  V30 229 H 21.2175 0.495717 1.35199 0
M  V30 230 H 23.1705 -1.05302 4.08031 0
M  V30 231 H 21.8945 -1.47785 2.91251 0
M  V30 232 H 20.5535 0.531296 3.6273 0
M  V30 233 H 20.2015 -1.68011 4.74111 0
M  V30 234 H 19.9015 -0.332184 5.8666 0
M  V30 235 H 21.4255 -1.2583 5.97494 0
M  V30 236 H 22.8395 0.98934 5.64699 0
M  V30 237 H 21.2365 1.77593 5.7322 0
M  V30 238 H 22.3065 2.11978 4.36111 0
M  V30 239 N 23.6496 -1.47581 0.552962 0
M  V30 240 C 24.8966 -2.02482 0.0273243 0
M  V30 241 C 25.2246 -1.42776 -1.32081 0
M  V30 242 O 24.4796 -0.571393 -1.87173 0
M  V30 243 C 24.7786 -3.57199 -0.119728 0
M  V30 244 C 24.4446 -4.35804 1.15697 0
M  V30 245 C 23.1066 -4.57 1.50681 0
M  V30 246 C 25.4586 -4.81167 2.00319 0
M  V30 247 C 22.7866 -5.20807 2.70142 0
M  V30 248 C 25.1386 -5.46293 3.18978 0
M  V30 249 C 23.8026 -5.65722 3.54281 0
M  V30 250 H 23.0726 -0.740933 0.00999866 0
M  V30 251 H 25.7196 -1.77302 0.72362 0
M  V30 252 H 24.0246 -3.81348 -0.89896 0
M  V30 253 H 25.7216 -3.97324 -0.541718 0
M  V30 254 H 22.3116 -4.19582 0.874561 0
M  V30 255 H 26.4956 -4.64574 1.74599 0
M  V30 256 H 21.7516 -5.34045 2.97668 0
M  V30 257 H 25.9256 -5.80407 3.84838 0
M  V30 258 H 23.5526 -6.14936 4.46942 0
M  V30 259 N 25.1277 -0.289203 -1.54924 0
M  V30 260 C 26.3767 0.324231 -1.99077 0
M  V30 261 C 26.6897 1.5591 -1.18117 0
M  V30 262 O 27.8957 2.24637 -1.52481 0
M  V30 263 C 26.3517 0.628209 -3.54375 0
M  V30 264 C 25.9597 -0.587647 -4.44129 0
M  V30 265 C 27.7037 1.20349 -4.07083 0
M  V30 266 C 25.6107 -0.257475 -5.90839 0
M  V30 267 H 24.5407 0.124924 -0.743579 0
M  V30 268 H 27.1917 -0.396063 -1.79175 0
M  V30 269 H 25.5737 1.40778 -3.70132 0
M  V30 270 H 26.7477 -1.36418 -4.40144 0
M  V30 271 H 25.0627 -1.08074 -4.0213 0
M  V30 272 H 27.6597 1.46456 -5.14252 0
M  V30 273 H 28.0027 2.14195 -3.56968 0
M  V30 274 H 28.5357 0.485889 -3.94821 0
M  V30 275 H 25.2747 -1.16419 -6.45079 0
M  V30 276 H 24.7947 0.482018 -5.9786 0
M  V30 277 H 26.4737 0.145238 -6.46837 0
M  V30 278 N 26.6058 1.57591 -0.0167156 0
M  V30 279 C 27.5358 2.12496 0.967858 0
M  V30 280 C 28.5168 1.03807 1.34752 0
M  V30 281 O 29.7018 1.31577 1.42833 0
M  V30 282 C 26.8318 2.64194 2.25431 0
M  V30 283 C 25.7858 3.77559 2.01576 0
M  V30 284 C 25.1118 4.15636 3.36379 0
M  V30 285 C 26.4118 5.04151 1.36489 0
M  V30 286 H 28.1058 2.95013 0.510643 0
M  V30 287 H 25.6518 1.41915 0.244181 0
M  V30 288 H 27.6048 3.01236 2.94678 0
M  V30 289 H 26.3288 1.78821 2.73296 0
M  V30 290 H 24.9878 3.40937 1.34751 0
M  V30 291 H 24.6358 3.27263 3.81979 0
M  V30 292 H 24.3358 4.92022 3.21229 0
M  V30 293 H 25.8598 4.5525 4.06915 0
M  V30 294 H 27.2738 5.38857 1.95718 0
M  V30 295 H 25.6708 5.85453 1.31776 0
M  V30 296 H 26.7408 4.83733 0.336219 0
M  V30 297 N 28.0839 -0.256276 1.55502 0
M  V30 298 C 29.0469 -1.30047 1.88734 0
M  V30 299 C 30.0469 -1.4154 0.763086 0
M  V30 300 O 31.2369 -1.40403 1.03115 0
M  V30 301 C 28.3689 -2.67953 2.10747 0
M  V30 302 H 29.5619 -1.01802 2.82093 0
M  V30 303 H 27.1149 -0.495134 1.4825 0
M  V30 304 H 27.8499 -3.01351 1.19825 0
M  V30 305 H 27.6349 -2.60993 2.92617 0
M  V30 306 H 29.1249 -3.43368 2.37673 0
M  V30 307 N 29.562 -1.4872 -0.521534 0
M  V30 308 C 30.492 -1.66771 -1.63431 0
M  V30 309 C 31.473 -0.516499 -1.62069 0
M  V30 310 O 32.658 -0.750013 -1.79132 0
M  V30 311 C 29.788 -1.71515 -3.01993 0
M  V30 312 C 28.742 -2.86222 -3.18216 0
M  V30 313 C 28.068 -2.76061 -4.57924 0
M  V30 314 C 29.368 -4.27419 -3.00184 0
M  V30 315 H 31.062 -2.59932 -1.48579 0
M  V30 316 H 28.608 -1.25089 -0.713358 0
M  V30 317 H 30.561 -1.82731 -3.7972 0
M  V30 318 H 29.285 -0.749393 -3.17886 0
M  V30 319 H 27.944 -2.74575 -2.42908 0
M  V30 320 H 27.592 -1.77437 -4.70665 0
M  V30 321 H 27.292 -3.53037 -4.69722 0
M  V30 322 H 28.816 -2.89256 -5.37739 0
M  V30 323 H 30.23 -4.39855 -3.67697 0
M  V30 324 H 28.627 -5.05458 -3.2347 0
M  V30 325 H 29.697 -4.43293 -1.96518 0
M  V30 326 N 31.0401 0.771051 -1.3745 0
M  V30 327 C 32.4561 1.07171 -1.18265 0
M  V30 328 C 32.6561 2.01491 -0.019287 0
M  V30 329 O 31.7121 2.44244 0.640408 0
M  V30 330 C 33.0251 1.66854 -2.50161 0
M  V30 331 C 34.5731 1.79109 -2.56689 0
M  V30 332 C 35.0481 2.42205 -3.88717 0
M  V30 333 N 36.5391 2.49655 -3.90162 0
M  V30 334 C 37.2741 2.9933 -4.8907 0
M  V30 335 N 36.7701 3.49172 -5.98374 0
M  V30 336 N 38.5631 2.9821 -4.76474 0
M  V30 337 H 30.7141 0.144796 -2.11906 0
M  V30 338 H 32.9771 0.126863 -0.939473 0
M  V30 339 H 32.6831 1.05017 -3.35655 0
M  V30 340 H 32.5571 2.6614 -2.673 0
M  V30 341 H 34.9441 2.40077 -1.71601 0
M  V30 342 H 35.0251 0.785757 -2.43433 0
M  V30 343 H 34.6691 1.81875 -4.74219 0
M  V30 344 H 34.5991 3.43345 -3.99276 0
M  V30 345 H 37.0901 2.14383 -3.11205 0
M  V30 346 H 37.4031 3.8548 -6.69795 0
M  V30 347 H 35.7481 3.47275 -6.02018 0
M  V30 348 H 38.9391 2.58572 -3.90203 0
M  V30 349 H 39.1121 3.36613 -5.53711 0
M  V30 350 N 32.5182 1.22032 0.997298 0
M  V30 351 C 33.7662 1.04016 1.73278 0
M  V30 352 C 34.0872 -0.426255 1.90284 0
M  V30 353 O 33.3572 -1.30694 1.45931 0
M  V30 354 H 31.9372 0.381897 0.642 0
M  V30 355 H 34.5992 1.5347 1.20137 0
M  V30 356 H 33.6952 1.51441 2.72896 0
M  V30 357 N 33.9963 -1.19345 1.0293 0
M  V30 358 C 34.9263 -2.2481 0.631105 0
M  V30 359 C 35.9073 -1.66245 -0.360104 0
M  V30 360 O 37.0923 -1.92677 -0.242726 0
M  V30 361 C 34.2223 -3.47295 -0.0184607 0
M  V30 362 C 33.1763 -4.18536 0.895073 0
M  V30 363 C 32.5023 -5.34586 0.110592 0
M  V30 364 C 33.8023 -4.73287 2.209 0
M  V30 365 H 35.4963 -2.58372 1.51275 0
M  V30 366 H 33.0423 -1.24194 0.728818 0
M  V30 367 H 34.9953 -4.20268 -0.308675 0
M  V30 368 H 33.7193 -3.12933 -0.934907 0
M  V30 369 H 32.3783 -3.47446 1.16949 0
M  V30 370 H 32.0263 -4.96469 -0.807902 0
M  V30 371 H 31.7263 -5.83183 0.719087 0
M  V30 372 H 33.2503 -6.10355 -0.172871 0
M  V30 373 H 34.6643 -5.38013 1.98028 0
M  V30 374 H 33.0613 -5.32373 2.76946 0
M  V30 375 H 34.1313 -3.91331 2.86336 0
M  V30 376 N 35.4744 -0.807222 -1.35358 0
M  V30 377 C 36.6994 -0.399309 -2.0352 0
M  V30 378 C 37.1244 0.981986 -1.60433 0
M  V30 379 O 36.4824 1.63601 -0.781299 0
M  V30 380 C 36.5304 -0.491552 -3.57234 0
M  V30 381 O 35.6344 0.494754 -4.09421 0
M  V30 382 H 34.9754 -0.166682 -0.642739 0
M  V30 383 H 37.5054 -1.09328 -1.72941 0
M  V30 384 H 37.5154 -0.361588 -4.06395 0
M  V30 385 H 36.1904 -1.49907 -3.87944 0
M  V30 386 H 34.7674 0.324977 -3.71481 0
M  V30 387 N 36.9525 1.47285 -0.560781 0
M  V30 388 C 37.9005 2.31756 0.197942 0
M  V30 389 C 38.8945 1.43146 0.905854 0
M  V30 390 O 40.1005 1.59891 0.826733 0
M  V30 391 H 36.4755 0.747438 0.0827049 0
M  V30 392 H 38.4465 2.9359 -0.533629 0
M  V30 393 C 37.1955 3.25874 1.21249 0
M  V30 394 H 36.5185 3.94023 0.67719 0
M  V30 395 H 37.9585 3.87803 1.71419 0
M  V30 396 C 36.4175 2.49651 2.26221 0
M  V30 397 O 36.9475 2.24355 3.33208 0
M  V30 398 N 35.1535 2.10597 2.00243 0
M  V30 399 H 34.7005 2.31369 1.13252 0
M  V30 400 H 34.6585 1.59913 2.70694 0
M  V30 401 N 38.4306 0.297415 1.54768 0
M  V30 402 C 39.8416 -0.195947 1.85669 0
M  V30 403 C 40.1926 -1.53707 1.21937 0
M  V30 404 O 39.3176 -2.10164 0.515754 0
M  V30 405 C 39.9126 -0.362318 3.36857 0
M  V30 406 C 38.4716 -0.799901 3.67802 0
M  V30 407 C 37.6186 0.0938578 2.77141 0
M  V30 408 H 40.5696 0.518538 1.4999 0
M  V30 409 H 40.5906 -1.19745 3.61167 0
M  V30 410 H 40.1026 0.613921 3.83214 0
M  V30 411 H 38.2036 -1.78682 3.26961 0
M  V30 412 H 38.3166 -0.621773 4.75048 0
M  V30 413 H 36.6806 -0.426254 2.51108 0
M  V30 414 H 37.4636 1.06639 3.26318 0
M  V30 415 N 39.9087 -1.5758 0.0250728 0
M  V30 416 C 40.8187 -2.1343 -0.973905 0
M  V30 417 C 41.8347 -1.08556 -1.35984 0
M  V30 418 O 43.0107 -1.40592 -1.44207 0
M  V30 419 C 40.0757 -2.64703 -2.23904 0
M  V30 420 C 39.1367 -3.84276 -1.91391 0
M  V30 421 C 38.3697 -4.33095 -3.11873 0
M  V30 422 O 38.5927 -3.81107 -4.24398 0
M  V30 423 O 37.5267 -5.24984 -2.94406 0
M  V30 424 H 41.3527 -2.99057 -0.529036 0
M  V30 425 H 38.9377 -1.48118 -0.195288 0
M  V30 426 H 40.8197 -2.97769 -2.98181 0
M  V30 427 H 39.4947 -1.82161 -2.6758 0
M  V30 428 H 38.4017 -3.56143 -1.14511 0
M  V30 429 H 39.7347 -4.67968 -1.52534 0
M  V30 430 N 41.3868 0.248026 -1.55636 0
M  V30 431 C 42.6118 0.998028 -1.81808 0
M  V30 432 C 43.0368 1.78207 -0.601979 0
M  V30 433 O 42.3948 1.75653 0.448961 0
M  V30 434 C 42.4428 1.9125 -3.05705 0
M  V30 435 O 41.5468 3.00406 -2.82542 0
M  V30 436 H 40.8878 0.284045 -0.600179 0
M  V30 437 H 43.4178 0.269357 -2.02819 0
M  V30 438 H 43.4278 2.32737 -3.35108 0
M  V30 439 H 42.1028 1.33602 -3.93857 0
M  V30 440 H 40.6798 2.63056 -2.64303 0
M  V30 441 N 42.8649 1.48995 0.513639 0
M  V30 442 C 43.8279 1.64229 1.59879 0
M  V30 443 C 44.8279 0.514696 1.5234 0
M  V30 444 O 46.0179 0.78087 1.55718 0
M  V30 445 C 43.1499 1.62783 2.99524 0
M  V30 446 H 44.3429 2.61004 1.47705 0
M  V30 447 H 41.8959 1.37837 0.736936 0
M  V30 448 H 42.6309 0.675461 3.17188 0
M  V30 449 H 42.4159 2.4466 3.06404 0
M  V30 450 H 43.9059 1.76669 3.78388 0
M  V30 451 N 44.343 -0.763751 1.37857 0
M  V30 452 C 45.759 -1.06542 1.18832 0
M  V30 453 C 45.959 -2.01478 0.0299722 0
M  V30 454 O 45.015 -2.4458 -0.627447 0
M  V30 455 C 46.328 -1.65525 2.51042 0
M  V30 456 C 47.876 -1.77745 2.57635 0
M  V30 457 C 48.351 -2.4014 3.89996 0
M  V30 458 N 49.842 -2.47582 3.91481 0
M  V30 459 C 50.577 -2.96732 4.9065 0
M  V30 460 N 50.073 -3.45993 6.00217 0
M  V30 461 N 51.866 -2.95679 4.78048 0
M  V30 462 H 44.017 -0.133556 2.1198 0
M  V30 463 H 46.28 -0.121879 0.940133 0
M  V30 464 H 45.986 -1.03236 3.36207 0
M  V30 465 H 45.86 -2.64719 2.68707 0
M  V30 466 H 48.247 -2.39164 1.72872 0
M  V30 467 H 48.328 -0.772836 2.43846 0
M  V30 468 H 47.972 -1.79358 4.75177 0
M  V30 469 H 47.902 -3.41223 4.01092 0
M  V30 470 H 50.393 -2.1273 3.12337 0
M  V30 471 H 50.706 -3.81922 6.7183 0
M  V30 472 H 49.051 -3.44077 6.03851 0
M  V30 473 H 52.242 -2.56499 3.91568 0
M  V30 474 H 52.415 -3.33672 5.55488 0
M  V30 475 N 45.8211 -1.22559 -0.990812 0
M  V30 476 C 46.7691 -0.994798 -2.10253 0
M  V30 477 C 47.7631 0.0627798 -1.69284 0
M  V30 478 O 48.9691 -0.0898392 -1.79776 0
M  V30 479 H 45.3441 -0.304527 -0.687581 0
M  V30 480 H 47.3151 -1.93812 -2.26891 0
M  V30 481 C 46.0641 -0.591439 -3.42633 0
M  V30 482 H 45.3871 -1.3969 -3.74602 0
M  V30 483 H 46.8271 -0.469385 -4.21394 0
M  V30 484 C 45.2861 0.699232 -3.29564 0
M  V30 485 O 45.8161 1.75112 -3.61523 0
M  V30 486 N 44.0221 0.671182 -2.82743 0
M  V30 487 H 43.5691 -0.185136 -2.56934 0
M  V30 488 H 43.5271 1.53502 -2.7438 0
M  V30 489 N 47.2992 1.18797 -1.03562 0
M  V30 490 C 48.5472 1.88278 -0.734569 0
M  V30 491 C 48.8682 1.8043 0.739586 0
M  V30 492 O 48.1382 1.21925 1.53333 0
M  V30 493 H 46.7182 0.696991 -0.268725 0
M  V30 494 H 49.3802 1.44192 -1.31129 0
M  V30 495 H 48.4762 2.94443 -1.03489 0
M  V30 496 N 48.7773 0.814389 1.34928 0
M  V30 497 C 49.7253 0.218424 2.31572 0
M  V30 498 C 50.7193 -0.636128 1.57002 0
M  V30 499 O 51.9253 -0.52842 1.72069 0
M  V30 500 H 48.3003 0.0518799 0.750208 0
M  V30 501 H 50.2713 1.04852 2.79372 0
M  V30 502 C 49.0203 -0.61207 3.4227 0
M  V30 503 H 48.3433 0.0361578 3.99784 0
M  V30 504 H 49.7833 -0.995317 4.12152 0
M  V30 505 C 48.2423 -1.78087 2.85984 0
M  V30 506 O 48.7723 -2.8787 2.80168 0
M  V30 507 N 46.9783 -1.59488 2.42924 0
M  V30 508 H 46.5253 -0.701874 2.47854 0
M  V30 509 H 46.4833 -2.37846 2.05613 0
M  V30 510 N 50.2554 -1.46986 0.568584 0
M  V30 511 C 51.6714 -1.57946 0.229189 0
M  V30 512 C 51.8714 -1.56567 -1.26843 0
M  V30 513 O 50.9274 -1.47511 -2.04931 0
M  V30 514 C 52.2404 -2.87963 0.865909 0
M  V30 515 C 53.7884 -3.01568 0.838188 0
M  V30 516 C 54.2634 -4.34301 1.45419 0
M  V30 517 N 55.7544 -4.40965 1.41788 0
M  V30 518 C 56.4894 -5.42256 1.86403 0
M  V30 519 N 55.9854 -6.50297 2.38926 0
M  V30 520 N 57.7784 -5.3337 1.77405 0
M  V30 521 H 49.9294 -1.46126 1.54146 0
M  V30 522 H 52.1924 -0.696156 0.643484 0
M  V30 523 H 51.8984 -2.94742 1.91886 0
M  V30 524 H 51.7724 -3.75423 0.365687 0
M  V30 525 H 54.1594 -2.94379 -0.206106 0
M  V30 526 H 54.2404 -2.1562 1.37629 0
M  V30 527 H 53.8844 -4.42247 2.49761 0
M  V30 528 H 53.8144 -5.19 0.891435 0
M  V30 529 H 56.3054 -3.63484 1.03381 0
M  V30 530 H 56.6184 -7.23777 2.70863 0
M  V30 531 H 54.9634 -6.51155 2.42944 0
M  V30 532 H 58.1544 -4.47865 1.3614 0
M  V30 533 H 58.3274 -6.12169 2.12492 0
M  V30 534 N 51.7335 -0.305618 -1.54608 0
M  V30 535 C 52.6665 0.610536 -2.19881 0
M  V30 536 C 53.6445 1.1294 -1.16976 0
M  V30 537 O 54.8285 1.19673 -1.45638 0
M  V30 538 C 51.9555 1.83583 -2.84631 0
M  V30 539 C 51.0015 1.4498 -4.01102 0
M  V30 540 S 51.8345 0.501793 -5.33144 0
M  V30 541 C 52.9905 1.73478 -6.01379 0
M  V30 542 H 53.2235 0.0560177 -2.97247 0
M  V30 543 H 50.7565 -0.0897434 -1.54139 0
M  V30 544 H 52.7145 2.53898 -3.22562 0
M  V30 545 H 51.3755 2.36152 -2.07102 0
M  V30 546 H 50.5685 2.36236 -4.45206 0
M  V30 547 H 50.1705 0.826553 -3.64752 0
M  V30 548 H 52.4625 2.67473 -6.22467 0
M  V30 549 H 53.4055 1.33622 -6.95378 0
M  V30 550 H 53.8135 1.9136 -5.31076 0
M  V30 551 N 53.2116 1.57565 -0.0334293 0
M  V30 552 C 54.4596 1.91598 0.642999 0
M  V30 553 C 54.7806 0.910847 1.7242 0
M  V30 554 O 54.0506 -0.0469931 1.95844 0
M  V30 555 H 52.6306 0.707228 0.240496 0
M  V30 556 H 55.2926 1.94726 -0.0822488 0
M  V30 557 H 54.3886 2.92336 1.09298 0
M  V30 558 N 54.6897 -0.239769 1.55765 0
M  V30 559 C 55.6227 -1.32356 1.85895 0
M  V30 560 C 56.6007 -1.46053 0.714662 0
M  V30 561 O 57.7847 -1.62154 0.961157 0
M  V30 562 C 54.9117 -2.6962 2.04994 0
M  V30 563 C 53.9577 -2.73036 3.27648 0
M  V30 564 S 54.7907 -2.28929 4.84099 0
M  V30 565 C 55.9467 -3.68103 5.06212 0
M  V30 566 H 56.1797 -1.06601 2.77531 0
M  V30 567 H 53.7127 -0.441112 1.47965 0
M  V30 568 H 55.6707 -3.48653 2.16682 0
M  V30 569 H 54.3317 -2.92609 1.14188 0
M  V30 570 H 53.5247 -3.7386 3.38 0
M  V30 571 H 53.1267 -2.02052 3.14723 0
M  V30 572 H 55.4187 -4.63656 4.93993 0
M  V30 573 H 56.3617 -3.6268 6.08168 0
M  V30 574 H 56.7697 -3.60947 4.34025 0
M  V30 575 N 56.1678 -1.49265 -0.50573 0
M  V30 576 C 57.4138 -1.58748 -1.26202 0
M  V30 577 C 57.7468 -0.271227 -1.92297 0
M  V30 578 O 57.0218 0.724831 -1.80489 0
M  V30 579 C 57.3048 -2.74332 -2.33268 0
M  V30 580 C 57.1578 -4.15737 -1.71705 0
M  V30 581 C 58.4768 -2.85576 -3.34865 0
M  V30 582 H 55.5958 -0.577826 -0.457478 0
M  V30 583 H 58.2378 -1.81532 -0.560897 0
M  V30 584 H 56.3878 -2.55036 -2.93068 0
M  V30 585 H 58.0598 -4.46537 -1.15769 0
M  V30 586 H 56.3028 -4.21605 -1.02135 0
M  V30 587 H 56.9738 -4.92477 -2.49341 0
M  V30 588 H 59.4498 -3.03127 -2.8505 0
M  V30 589 H 58.3258 -3.68135 -4.07146 0
M  V30 590 H 58.5868 -1.94732 -3.96903 0
M  V30 591 N 57.6459 0.756429 -1.3826 0
M  V30 592 C 58.8939 1.51248 -1.34047 0
M  V30 593 C 59.2149 1.94875 0.0698372 0
M  V30 594 O 58.4849 1.67436 1.01696 0
M  V30 595 H 57.0649 0.561018 -0.493222 0
M  V30 596 H 59.7269 0.899347 -1.7291 0
M  V30 597 H 58.8229 2.40472 -1.98947 0
M  V30 598 N 59.124 1.23083 0.984299 0
M  V30 599 C 60.057 0.951786 2.07404 0
M  V30 600 C 61.035 -0.10848 1.62238 0
M  V30 601 O 62.219 0.0249467 1.88483 0
M  V30 602 C 59.346 0.433142 3.35919 0
M  V30 603 C 58.392 1.47941 4.0002 0
M  V30 604 S 59.225 3.05556 4.39768 0
M  V30 605 C 60.381 2.55351 5.71442 0
M  V30 606 H 60.614 1.87456 2.30754 0
M  V30 607 H 58.147 1.06284 1.11996 0
M  V30 608 H 60.105 0.140506 4.10259 0
M  V30 609 H 58.766 -0.468656 3.10584 0
M  V30 610 H 57.959 1.06658 4.92585 0
M  V30 611 H 57.561 1.7212 3.3204 0
M  V30 612 H 59.853 1.97128 6.48187 0
M  V30 613 H 60.796 3.46441 6.17563 0
M  V30 614 H 61.204 1.96339 5.29255 0
M  V30 615 N 60.6021 -1.18246 1.0419 0
M  V30 616 C 61.5651 -2.20128 0.638452 0
M  V30 617 C 62.5651 -1.57885 -0.304805 0
M  V30 618 O 63.7551 -1.73967 -0.0900369 0
M  V30 619 C 60.8871 -3.4084 -0.0637751 0
M  V30 620 H 62.0801 -2.57336 1.54007 0
M  V30 621 H 59.6331 -1.32152 0.834598 0
M  V30 622 H 60.3681 -3.09166 -0.979136 0
M  V30 623 H 60.1531 -3.8726 0.614198 0
M  V30 624 H 61.6431 -4.16274 -0.332512 0
M  V30 625 N 62.0802 -0.821533 -1.34494 0
M  V30 626 C 63.3292 -0.405355 -1.97585 0
M  V30 627 C 63.6422 1.03677 -1.65863 0
M  V30 628 O 64.8482 1.55679 -2.22433 0
M  V30 629 C 63.3042 -0.673861 -3.53535 0
M  V30 630 C 62.9122 -2.12951 -3.94152 0
M  V30 631 C 64.6562 -0.32378 -4.23263 0
M  V30 632 C 62.5632 -2.34298 -5.43009 0
M  V30 633 H 61.4932 -0.147836 -0.739365 0
M  V30 634 H 64.1442 -1.00769 -1.53355 0
M  V30 635 H 62.5262 -0.00137554 -3.96 0
M  V30 636 H 63.7002 -2.84104 -3.62797 0
M  V30 637 H 62.0152 -2.44089 -3.37356 0
M  V30 638 H 64.6122 -0.461126 -5.32708 0
M  V30 639 H 64.9552 0.731586 -4.09821 0
M  V30 640 H 65.4882 -0.950786 -3.8627 0
M  V30 641 H 62.2272 -3.38335 -5.61435 0
M  V30 642 H 61.7472 -1.67687 -5.75883 0
M  V30 643 H 63.4262 -2.16588 -6.09671 0
M  V30 644 N 63.5583 1.46682 -0.576371 0
M  V30 645 C 64.5213 2.28707 0.150239 0
M  V30 646 C 65.5213 1.38035 0.824794 0
M  V30 647 O 66.7113 1.60476 0.677719 0
M  V30 648 C 63.8433 3.18248 1.22192 0
M  V30 649 H 65.0363 2.94423 -0.570521 0
M  V30 650 H 62.5893 1.52688 -0.334078 0
M  V30 651 H 63.3243 2.57265 1.97447 0
M  V30 652 H 63.1093 3.85 0.742812 0
M  V30 653 H 64.5993 3.80001 1.73172 0
M  V30 654 N 65.0364 0.313813 1.54444 0
M  V30 655 C 66.2854 -0.292519 1.99568 0
M  V30 656 C 66.5984 -1.54011 1.20582 0
M  V30 657 O 67.8044 -2.22183 1.56035 0
M  V30 658 C 66.2604 -0.571752 3.55329 0
M  V30 659 C 65.8684 0.658229 4.43138 0
M  V30 660 C 67.6124 -1.13857 4.08946 0
M  V30 661 C 65.5194 0.351439 5.90355 0
M  V30 662 H 64.4494 -0.113079 0.745472 0
M  V30 663 H 67.1004 0.424518 1.78522 0
M  V30 664 H 65.4824 -1.34872 3.72325 0
M  V30 665 H 66.6564 1.43403 4.37918 0
M  V30 666 H 64.9714 1.14458 4.0036 0
M  V30 667 H 67.5684 -1.38257 5.16516 0
M  V30 668 H 67.9114 -2.08489 3.6033 0
M  V30 669 H 68.4444 -0.423015 3.95544 0
M  V30 670 H 65.1834 1.26667 6.43145 0
M  V30 671 H 64.7034 -0.386842 5.98551 0
M  V30 672 H 66.3824 -0.0423134 6.46986 0
M  V30 673 N 66.5145 -1.57545 0.0417849 0
M  V30 674 C 67.4445 -2.14009 -0.933929 0
M  V30 675 C 68.4255 -1.05938 -1.33083 0
M  V30 676 O 69.6105 -1.33833 -1.40721 0
M  V30 677 C 66.7405 -2.67747 -2.21199 0
M  V30 678 C 65.6945 -3.80718 -1.95544 0
M  V30 679 C 65.0205 -4.20935 -3.29724 0
M  V30 680 C 66.3205 -5.06258 -1.28452 0
M  V30 681 H 68.0145 -2.95788 -0.463645 0
M  V30 682 H 65.5605 -1.42285 -0.221573 0
M  V30 683 H 67.5135 -3.05886 -2.89848 0
M  V30 684 H 66.2375 -1.83147 -2.70416 0
M  V30 685 H 64.8965 -3.43037 -1.2931 0
M  V30 686 H 64.5445 -3.33298 -3.76724 0
M  V30 687 H 64.2445 -4.9707 -3.13361 0
M  V30 688 H 65.7685 -4.61666 -3.9962 0
M  V30 689 H 67.1825 -5.41903 -1.8712 0
M  V30 690 H 65.5795 -5.87475 -1.22445 0
M  V30 691 H 66.6495 -4.84207 -0.259219 0
M  V30 692 N 67.9926 0.231505 -1.5589 0
M  V30 693 C 69.2206 0.974505 -1.82513 0
M  V30 694 C 69.6356 1.78344 -0.619591 0
M  V30 695 O 68.9926 1.77792 0.411848 0
M  V30 696 C 69.0436 1.90007 -3.07538 0
M  V30 697 O 68.7646 1.12385 -4.2344 0
M  V30 698 C 70.2656 2.75779 -3.47075 0
M  V30 699 H 67.4856 0.286065 -0.606966 0
M  V30 700 H 70.0296 0.249739 -2.02969 0
M  V30 701 H 68.1846 2.57891 -2.89086 0
M  V30 702 H 68.5986 1.75125 -4.944 0
M  V30 703 H 70.0726 3.36443 -4.37619 0
M  V30 704 H 70.5496 3.47672 -2.68367 0
M  V30 705 H 71.1556 2.13323 -3.67931 0
M  V30 706 N 69.4707 1.49531 0.497807 0
M  V30 707 C 70.6987 1.62893 1.27567 0
M  V30 708 C 71.1137 0.301585 1.86376 0
M  V30 709 O 70.4707 -0.713335 1.67982 0
M  V30 710 C 70.5217 2.70013 2.40364 0
M  V30 711 O 70.2427 3.976 1.83972 0
M  V30 712 C 71.7437 2.94109 3.31685 0
M  V30 713 H 68.9637 0.548298 0.386794 0
M  V30 714 H 71.5077 1.95584 0.597245 0
M  V30 715 H 69.6627 2.40092 3.04031 0
M  V30 716 H 70.0767 4.56631 2.58047 0
M  V30 717 H 71.5507 3.72788 4.07104 0
M  V30 718 H 72.0277 2.04147 3.88871 0
M  V30 719 H 72.6337 3.2546 2.73781 0
M  V30 720 N 70.9488 -0.749086 1.3866 0
M  V30 721 C 71.8788 -1.8764 1.38973 0
M  V30 722 C 72.8598 -1.68178 0.255004 0
M  V30 723 O 74.0448 -1.88704 0.458754 0
M  V30 724 C 71.1748 -3.25222 1.21851 0
M  V30 725 C 70.1288 -3.59295 2.32575 0
M  V30 726 C 69.4548 -4.95663 2.00555 0
M  V30 727 C 70.7548 -3.63709 3.7485 0
M  V30 728 H 72.4488 -1.87635 2.3331 0
M  V30 729 H 69.9948 -0.901329 1.12303 0
M  V30 730 H 71.9478 -4.03746 1.20695 0
M  V30 731 H 70.6718 -3.25719 0.239775 0
M  V30 732 H 69.3308 -2.83093 2.32925 0
M  V30 733 H 68.9788 -4.92724 1.01154 0
M  V30 734 H 68.6788 -5.19429 2.74714 0
M  V30 735 H 70.2028 -5.7656 2.01024 0
M  V30 736 H 71.6168 -4.32338 3.76506 0
M  V30 737 H 70.0138 -3.98986 4.48252 0
M  V30 738 H 71.0838 -2.63834 4.06841 0
M  V30 739 N 72.4269 -1.23603 -0.977757 0
M  V30 740 C 73.3569 -1.04401 -2.0886 0
M  V30 741 C 74.3379 0.0399052 -1.70053 0
M  V30 742 O 75.5229 -0.125246 -1.93796 0
M  V30 743 C 72.6529 -0.637269 -3.41403 0
M  V30 744 C 71.6069 -1.66883 -3.94124 0
M  V30 745 C 70.9329 -1.11745 -5.22893 0
M  V30 746 C 72.2329 -3.06247 -4.23096 0
M  V30 747 H 73.9269 -1.97316 -2.25182 0
M  V30 748 H 71.4729 -0.950096 -1.08209 0
M  V30 749 H 73.4259 -0.48998 -4.18542 0
M  V30 750 H 72.1499 0.327557 -3.24953 0
M  V30 751 H 70.8089 -1.80416 -3.19133 0
M  V30 752 H 70.4569 -0.143527 -5.02795 0
M  V30 753 H 70.1569 -1.80672 -5.59134 0
M  V30 754 H 71.6809 -0.982067 -6.02651 0
M  V30 755 H 73.0949 -2.96001 -4.90975 0
M  V30 756 H 71.4919 -3.72436 -4.70544 0
M  V30 757 H 72.5619 -3.55041 -3.30263 0
M  V30 758 N 73.905 1.17692 -1.04816 0
M  V30 759 C 75.13 1.92327 -0.776207 0
M  V30 760 C 75.555 1.76082 0.661581 0
M  V30 761 O 74.913 1.076 1.45917 0
M  V30 762 C 74.961 3.41539 -1.15687 0
M  V30 763 O 74.065 4.11402 -0.286775 0
M  V30 764 H 73.406 0.599735 -0.284981 0
M  V30 765 H 75.936 1.49201 -1.4 0
M  V30 766 H 75.946 3.92269 -1.12202 0
M  V30 767 H 74.621 3.52684 -2.20425 0
M  V30 768 H 73.198 3.70939 -0.381903 0
M  V30 769 N 75.3831 0.828654 1.34056 0
M  V30 770 C 76.7941 0.477534 1.8049 0
M  V30 771 C 77.1451 -1.00258 1.6865 0
M  V30 772 O 76.2701 -1.78057 1.22982 0
M  V30 773 C 76.8651 0.860018 3.27703 0
M  V30 774 C 75.4241 0.561185 3.72193 0
M  V30 775 C 74.5711 1.07385 2.55663 0
M  V30 776 H 77.5221 1.0183 1.21722 0
M  V30 777 H 77.5431 0.166038 3.80138 0
M  V30 778 H 77.0551 1.93731 3.36288 0
M  V30 779 H 75.1561 -0.506465 3.69142 0
M  V30 780 H 75.2691 1.10926 4.66082 0
M  V30 781 H 73.6331 0.495149 2.49841 0
M  V30 782 H 74.4161 2.15771 2.67016 0
M  V30 783 N 76.8612 -1.46375 0.584142 0
M  V30 784 C 78.0862 -2.07268 0.0740405 0
M  V30 785 C 78.5112 -1.42979 -1.22223 0
M  V30 786 O 77.8692 -0.514092 -1.73859 0
M  V30 787 C 77.9172 -3.60518 -0.0767769 0
M  V30 788 O 77.0212 -3.96533 -1.13292 0
M  V30 789 H 76.3622 -0.660961 0.0634524 0
M  V30 790 H 78.8922 -1.87991 0.807492 0
M  V30 791 H 78.9022 -4.07021 -0.282489 0
M  V30 792 H 77.5772 -4.06702 0.86986 0
M  V30 793 H 76.1542 -3.61738 -0.905553 0
M  V30 794 N 78.3393 -0.321999 -1.54275 0
M  V30 795 C 79.5853 0.281461 -2.00837 0
M  V30 796 C 79.9183 1.51909 -1.20985 0
M  V30 797 O 79.1933 1.923 -0.291733 0
M  V30 798 C 79.4763 0.617162 -3.54772 0
M  V30 799 C 79.3293 -0.631064 -4.45351 0
M  V30 800 C 80.6483 1.43542 -4.16033 0
M  V30 801 H 77.7673 0.100826 -0.730071 0
M  V30 802 H 80.4093 -0.438268 -1.84876 0
M  V30 803 H 78.5593 1.23034 -3.68504 0
M  V30 804 H 80.2313 -1.26934 -4.43492 0
M  V30 805 H 78.4743 -1.26025 -4.15091 0
M  V30 806 H 79.1453 -0.351735 -5.50878 0
M  V30 807 H 81.6213 0.917134 -4.05867 0
M  V30 808 H 80.4973 1.63907 -5.23856 0
M  V30 809 H 80.7583 2.43108 -3.69257 0
M  V30 810 N 79.8174 1.5752 -0.0501392 0
M  V30 811 C 80.7494 2.08413 0.95376 0
M  V30 812 C 81.7624 1.01175 1.27544 0
M  V30 813 O 82.9514 1.28744 1.23641 0
M  V30 814 C 80.0514 2.51138 2.27559 0
M  V30 815 C 79.2244 3.817 2.13598 0
M  V30 816 C 78.2834 4.10749 3.28895 0
M  V30 817 O 77.3094 4.80685 3.04845 0
M  V30 818 N 78.5114 3.62579 4.5334 0
M  V30 819 H 81.2764 2.95165 0.519383 0
M  V30 820 H 78.8374 1.61327 0.136127 0
M  V30 821 H 80.8294 2.67648 3.03557 0
M  V30 822 H 79.3994 1.6964 2.62567 0
M  V30 823 H 78.6194 3.74782 1.22197 0
M  V30 824 H 79.9074 4.67201 2.01496 0
M  V30 825 H 79.3054 3.06039 4.75769 0
M  V30 826 H 77.8624 3.84329 5.26436 0
M  V30 827 N 81.2955 -0.223234 1.56011 0
M  V30 828 C 82.2585 -1.26014 1.9145 0
M  V30 829 C 83.2585 -1.3989 0.792937 0
M  V30 830 O 84.4485 -1.38184 1.0607 0
M  V30 831 C 81.5805 -2.63422 2.16383 0
M  V30 832 H 82.7735 -0.95796 2.84189 0
M  V30 833 H 80.3265 -0.463576 1.49267 0
M  V30 834 H 81.0615 -2.98741 1.2619 0
M  V30 835 H 80.8465 -2.54728 2.98088 0
M  V30 836 H 82.3365 -3.38249 2.44903 0
M  V30 837 N 82.7736 -1.49793 -0.48987 0
M  V30 838 C 84.0036 -1.6333 -1.26518 0
M  V30 839 C 84.4116 -0.308392 -1.8667 0
M  V30 840 O 83.7546 0.717512 -1.69108 0
M  V30 841 C 83.8166 -2.6522 -2.4269 0
M  V30 842 C 83.4806 -4.09279 -2.03321 0
M  V30 843 C 84.4776 -4.95738 -1.56652 0
M  V30 844 C 82.1626 -4.55082 -2.12616 0
M  V30 845 C 84.1566 -6.26041 -1.19795 0
M  V30 846 C 81.8436 -5.85396 -1.75371 0
M  V30 847 C 82.8416 -6.707 -1.29036 0
M  V30 848 O 82.5296 -7.98584 -0.92299 0
M  V30 849 H 82.2616 -0.552502 -0.389509 0
M  V30 850 H 84.8156 -1.96642 -0.593381 0
M  V30 851 H 83.0456 -2.27112 -3.12981 0
M  V30 852 H 84.7346 -2.68171 -3.04695 0
M  V30 853 H 85.5006 -4.61575 -1.48908 0
M  V30 854 H 81.3796 -3.88844 -2.47631 0
M  V30 855 H 84.9236 -6.92578 -0.835582 0
M  V30 856 H 80.8206 -6.19085 -1.82768 0
M  V30 857 H 81.5886 -8.11692 -1.05349 0
M  V30 858 N 84.2517 0.741722 -1.39055 0
M  V30 859 C 85.2147 1.83733 -1.37021 0
M  V30 860 C 86.2147 1.58542 -0.268534 0
M  V30 861 O 87.4047 1.66067 -0.526076 0
M  V30 862 C 84.5367 3.2141 -1.13617 0
M  V30 863 H 85.7297 1.86941 -2.34506 0
M  V30 864 H 83.2827 0.944676 -1.24521 0
M  V30 865 H 84.0177 3.23865 -0.167863 0
M  V30 866 H 83.8027 3.4109 -1.93391 0
M  V30 867 H 85.2927 4.01477 -1.14918 0
M  V30 868 N 85.7298 1.2412 0.971189 0
M  V30 869 C 86.9758 1.09048 1.71698 0
M  V30 870 C 87.3308 -0.367442 1.88859 0
M  V30 871 O 86.6238 -1.26792 1.43646 0
M  V30 872 C 86.8178 1.75983 3.11071 0
M  V30 873 C 86.6468 3.28133 3.07504 0
M  V30 874 C 85.4168 3.97331 3.1218 0
M  V30 875 C 87.6148 4.24773 2.89952 0
M  V30 876 N 85.5968 5.3639 2.98596 0
M  V30 877 C 86.9678 5.50806 2.84627 0
M  V30 878 C 89.0228 4.15392 2.74506 0
M  V30 879 C 87.7258 6.68533 2.65437 0
M  V30 880 C 89.7518 5.32793 2.56682 0
M  V30 881 C 89.1138 6.57756 2.52063 0
M  V30 882 H 85.2128 0.453632 0.636979 0
M  V30 883 H 87.7968 1.56983 1.15171 0
M  V30 884 H 85.9678 1.30566 3.65796 0
M  V30 885 H 87.6998 1.53803 3.74335 0
M  V30 886 H 84.4548 3.48473 3.20724 0
M  V30 887 H 84.8788 6.09321 2.95054 0
M  V30 888 H 89.5208 3.19543 2.76861 0
M  V30 889 H 87.2388 7.64509 2.61825 0
M  V30 890 H 90.8248 5.27383 2.4568 0
M  V30 891 H 89.7048 7.4707 2.38446 0
M  V30 892 N 87.2079 -1.17134 1.05439 0
M  V30 893 C 88.4569 -1.86791 0.761049 0
M  V30 894 C 88.7699 -1.82072 -0.714795 0
M  V30 895 O 89.9759 -2.47223 -1.12218 0
M  V30 896 C 88.4319 -3.35166 1.31117 0
M  V30 897 C 88.0399 -3.48381 2.81664 0
M  V30 898 C 89.7839 -4.10134 1.09499 0
M  V30 899 C 87.6909 -4.90793 3.29964 0
M  V30 900 H 86.6209 -0.699681 0.281002 0
M  V30 901 H 89.2719 -1.3226 1.27199 0
M  V30 902 H 87.6539 -3.8925 0.72803 0
M  V30 903 H 88.8279 -3.04502 3.45855 0
M  V30 904 H 87.1429 -2.86836 3.01851 0
M  V30 905 H 89.7399 -5.152 1.43084 0
M  V30 906 H 90.0829 -4.16287 0.0328772 0
M  V30 907 H 90.6159 -3.62264 1.64346 0
M  V30 908 H 87.3549 -4.89816 4.35616 0
M  V30 909 H 86.8749 -5.35333 2.70516 0
M  V30 910 H 88.5539 -5.59573 3.24787 0
M  V30 911 N 88.686 -0.835752 -1.33615 0
M  V30 912 C 89.932 -0.430596 -1.98176 0
M  V30 913 C 90.265 1.00684 -1.66061 0
M  V30 914 O 89.54 1.70339 -0.938877 0
M  V30 915 C 89.823 -0.648065 -3.5422 0
M  V30 916 C 89.676 -2.13255 -3.96033 0
M  V30 917 C 90.995 -0.0922113 -4.40003 0
M  V30 918 H 88.114 -0.157924 -0.719881 0
M  V30 919 H 90.756 -1.05069 -1.58305 0
M  V30 920 H 88.906 -0.120237 -3.88314 0
M  V30 921 H 90.578 -2.725 -3.72211 0
M  V30 922 H 88.821 -2.61823 -3.45878 0
M  V30 923 H 89.492 -2.23547 -5.04708 0
M  V30 924 H 91.968 -0.543343 -4.12537 0
M  V30 925 H 90.844 -0.274083 -5.48215 0
M  V30 926 H 91.105 1.00378 -4.30554 0
M  V30 927 N 90.1641 1.46063 -0.591896 0
M  V30 928 C 91.0941 2.33172 0.123673 0
M  V30 929 C 92.0751 1.45897 0.87453 0
M  V30 930 O 93.2601 1.74698 0.848181 0
M  V30 931 C 90.3901 3.28336 1.13194 0
M  V30 932 C 89.3441 4.25124 0.495324 0
M  V30 933 C 88.6701 5.09863 1.61071 0
M  V30 934 C 89.9701 5.19143 -0.573425 0
M  V30 935 H 91.6641 2.93252 -0.603646 0
M  V30 936 H 89.2101 1.41014 -0.291741 0
M  V30 937 H 91.1631 3.88137 1.64097 0
M  V30 938 H 89.8871 2.66383 1.88965 0
M  V30 939 H 88.5461 3.66599 0.00729452 0
M  V30 940 H 88.1941 4.44288 2.35832 0
M  V30 941 H 87.8941 5.75417 1.19035 0
M  V30 942 H 89.4181 5.72529 2.12233 0
M  V30 943 H 90.8321 5.73106 -0.1491 0
M  V30 944 H 89.2291 5.93089 -0.914636 0
M  V30 945 H 90.2991 4.62519 -1.45617 0
M  V30 946 N 91.6422 0.330177 1.54103 0
M  V30 947 C 92.6052 -0.520144 2.2322 0
M  V30 948 C 93.6052 -1.03828 1.22786 0
M  V30 949 O 94.7952 -0.929652 1.4732 0
M  V30 950 C 91.9272 -1.72317 2.94142 0
M  V30 951 H 93.1202 0.0841605 2.99782 0
M  V30 952 H 90.6732 0.0813433 1.56088 0
M  V30 953 H 91.4082 -2.36653 2.21734 0
M  V30 954 H 91.1932 -1.35898 3.67796 0
M  V30 955 H 92.6832 -2.3266 3.46784 0
M  V30 956 N 93.1203 -1.57491 0.0584922 0
M  V30 957 C 94.3693 -1.92155 -0.613146 0
M  V30 958 C 94.6823 -0.939334 -1.71569 0
M  V30 959 O 95.8883 -1.17829 -2.44599 0
M  V30 960 C 94.3443 -3.41303 -1.14195 0
M  V30 961 C 93.9523 -4.47944 -0.0711265 0
M  V30 962 C 95.6963 -3.84988 -1.78841 0
M  V30 963 C 93.6033 -5.88212 -0.613225 0
M  V30 964 H 92.5333 -0.717162 -0.232796 0
M  V30 965 H 95.1843 -1.83049 0.12857 0
M  V30 966 H 93.5663 -3.45437 -1.93621 0
M  V30 967 H 94.7403 -4.55408 0.702836 0
M  V30 968 H 93.0553 -4.13644 0.478313 0
M  V30 969 H 95.6523 -4.87159 -2.20408 0
M  V30 970 H 95.9953 -3.21632 -2.64308 0
M  V30 971 H 96.5283 -3.83401 -1.06059 0
M  V30 972 H 93.2673 -6.55183 0.203978 0
M  V30 973 H 92.7873 -5.84294 -1.35501 0
M  V30 974 H 94.4663 -6.37687 -1.09383 0
M  V30 975 N 94.5984 0.214957 -1.56127 0
M  V30 976 C 95.5614 1.24997 -1.92116 0
M  V30 977 C 96.5614 1.39467 -0.800344 0
M  V30 978 O 97.7514 1.37619 -1.06802 0
M  V30 979 C 94.8834 2.62271 -2.17777 0
M  V30 980 H 96.0764 0.942875 -2.84693 0
M  V30 981 H 93.6294 0.455654 -1.49511 0
M  V30 982 H 94.3644 2.98068 -1.27773 0
M  V30 983 H 94.1494 2.53143 -2.99434 0
M  V30 984 H 95.6394 3.36946 -2.46693 0
M  V30 985 N 96.0765 1.50051 0.48192 0
M  V30 986 C 97.3255 1.59741 1.23149 0
M  V30 987 C 97.6385 0.298163 1.93314 0
M  V30 988 O 98.8445 0.273835 2.70116 0
M  V30 989 C 97.3005 2.81926 2.23708 0
M  V30 990 C 96.9085 4.18685 1.59396 0
M  V30 991 C 98.6525 3.00956 2.99375 0
M  V30 992 C 96.5595 5.3207 2.58178 0
M  V30 993 H 95.4895 0.594838 0.46334 0
M  V30 994 H 98.1405 1.76467 0.503169 0
M  V30 995 H 96.5225 2.58736 2.99786 0
M  V30 996 H 97.6965 4.52088 0.891811 0
M  V30 997 H 96.0115 4.05171 0.960503 0
M  V30 998 H 98.6085 3.82836 3.73283 0
M  V30 999 H 98.9515 2.12258 3.58123 0
M  V30 1000 H 99.4845 3.24277 2.30411 0
M  V30 1001 H 96.2235 6.22888 2.04184 0
M  V30 1002 H 95.7435 5.03098 3.26577 0
M  V30 1003 H 97.4225 5.62196 3.20225 0
M  V30 1004 N 97.5546 -0.734337 1.39446 0
M  V30 1005 C 98.8026 -1.49096 1.36436 0
M  V30 1006 C 99.1236 -1.94961 -0.0388255 0
M  V30 1007 O 98.3936 -1.69033 -0.990191 0
M  V30 1008 H 96.9736 -0.5531 0.502085 0
M  V30 1009 H 99.6356 -0.871725 1.74319 0
M  V30 1010 H 98.7316 -2.37276 2.02747 0
M  V30 1011 N 99.0327 -1.24633 -0.964593 0
M  V30 1012 C 100.281 -1.08573 -1.70459 0
M  V30 1013 C 100.602 0.375655 -1.91347 0
M  V30 1014 O 99.8717 1.26779 -1.49345 0
M  V30 1015 H 98.4517 -0.398784 -0.631649 0
M  V30 1016 H 101.114 -1.56601 -1.16026 0
M  V30 1017 H 100.21 -1.58623 -2.68785 0
M  V30 1018 N 100.511 1.16574 -1.06058 0
M  V30 1019 C 101.474 2.19085 -0.673392 0
M  V30 1020 C 102.474 1.5835 0.279648 0
M  V30 1021 O 103.664 1.74088 0.0623488 0
M  V30 1022 C 100.796 3.40899 0.00954234 0
M  V30 1023 H 101.989 2.54853 -1.58081 0
M  V30 1024 H 99.5418 1.30808 -0.855516 0
M  V30 1025 H 100.277 3.10684 0.929826 0
M  V30 1026 H 100.062 3.86233 -0.67573 0
M  V30 1027 H 101.552 4.1675 0.266245 0
M  V30 1028 N 101.989 0.842826 1.3317 0
M  V30 1029 C 103.238 0.436738 1.96915 0
M  V30 1030 C 103.551 -1.01025 1.67491 0
M  V30 1031 O 104.757 -1.5212 2.24881 0
M  V30 1032 C 103.213 0.730021 3.52418 0
M  V30 1033 C 102.821 2.19195 3.90714 0
M  V30 1034 C 104.565 0.391076 4.22695 0
M  V30 1035 C 102.472 2.42907 5.39212 0
M  V30 1036 H 101.402 0.15958 0.736919 0
M  V30 1037 H 104.053 1.03196 1.51733 0
M  V30 1038 H 102.435 0.0643755 3.95948 0
M  V30 1039 H 103.609 2.8984 3.58231 0
M  V30 1040 H 101.924 2.49425 3.33431 0
M  V30 1041 H 104.521 0.545817 5.31907 0
M  V30 1042 H 104.864 -0.666294 4.10933 0
M  V30 1043 H 105.397 1.01212 3.84709 0
M  V30 1044 H 102.136 3.47224 5.55982 0
M  V30 1045 H 101.656 1.76827 5.73142 0
M  V30 1046 H 103.335 2.2626 6.06148 0
M  V30 1047 N 103.467 -1.45747 0.599634 0
M  V30 1048 C 104.715 -2.01893 0.0915472 0
M  V30 1049 C 105.036 -1.47155 -1.27946 0
M  V30 1050 O 104.306 -0.66273 -1.84349 0
M  V30 1051 H 102.886 -0.746363 0.0308524 0
M  V30 1052 H 105.548 -1.78645 0.779237 0
M  V30 1053 H 104.644 -3.1208 0.0353086 0
M  V30 1054 N 104.945 -0.338344 -1.53925 0
M  V30 1055 C 106.173 0.261298 -2.05243 0
M  V30 1056 C 106.588 1.44625 -1.21363 0
M  V30 1057 O 105.945 1.80811 -0.247736 0
M  V30 1058 C 105.996 0.681412 -3.5502 0
M  V30 1059 O 105.717 -0.456414 -4.35716 0
M  V30 1060 C 107.218 1.34232 -4.22489 0
M  V30 1061 H 104.438 0.0513685 -0.669031 0
M  V30 1062 H 106.982 -0.488822 -1.98572 0
M  V30 1063 H 105.137 1.38148 -3.61931 0
M  V30 1064 H 105.551 -0.122564 -5.24357 0
M  V30 1065 H 107.025 1.58708 -5.28693 0
M  V30 1066 H 107.502 2.29426 -3.74514 0
M  V30 1067 H 108.108 0.684424 -4.19757 0
M  V30 1068 N 106.423 1.57458 -0.0668435 0
M  V30 1069 C 107.669 1.93587 0.6043 0
M  V30 1070 C 108.002 0.946722 1.69561 0
M  V30 1071 O 107.277 -0.0248516 1.94484 0
M  V30 1072 C 107.56 3.40014 1.18585 0
M  V30 1073 C 107.413 4.49685 0.101529 0
M  V30 1074 C 108.732 3.87154 2.09284 0
M  V30 1075 H 105.851 0.703958 0.218202 0
M  V30 1076 H 108.493 1.89542 -0.131804 0
M  V30 1077 H 106.643 3.43592 1.81319 0
M  V30 1078 H 108.315 4.5823 -0.531279 0
M  V30 1079 H 106.558 4.30059 -0.568487 0
M  V30 1080 H 107.229 5.49266 0.54874 0
M  V30 1081 H 109.705 3.85551 1.56491 0
M  V30 1082 H 108.581 4.90231 2.46911 0
M  V30 1083 H 108.842 3.2481 2.99918 0
M  V30 1084 N 107.901 -0.206675 1.56239 0
M  V30 1085 C 109.15 -0.926964 1.79138 0
M  V30 1086 C 109.463 -1.84901 0.638043 0
M  V30 1087 O 110.669 -2.60906 0.751033 0
M  V30 1088 C 109.125 -1.6986 3.17294 0
M  V30 1089 C 108.733 -0.821956 4.40395 0
M  V30 1090 C 110.477 -2.40922 3.4951 0
M  V30 1091 C 108.384 -1.59179 5.69575 0
M  V30 1092 H 107.314 -0.349864 0.667915 0
M  V30 1093 H 109.965 -0.180487 1.8261 0
M  V30 1094 H 108.347 -2.48853 3.08039 0
M  V30 1095 H 109.521 -0.0715019 4.60745 0
M  V30 1096 H 107.836 -0.222741 4.15804 0
M  V30 1097 H 110.433 -2.99047 4.43255 0
M  V30 1098 H 110.776 -3.14542 2.72707 0
M  V30 1099 H 111.309 -1.68905 3.60161 0
M  V30 1100 H 108.048 -0.898589 6.49312 0
M  V30 1101 H 107.568 -2.31648 5.53262 0
M  V30 1102 H 109.247 -2.14862 6.10281 0
M  V30 1103 N 109.379 -1.50304 -0.473955 0
M  V30 1104 C 110.342 -1.6841 -1.55469 0
M  V30 1105 C 111.342 -0.554905 -1.50922 0
M  V30 1106 O 112.532 -0.821882 -1.53593 0
M  V30 1107 C 109.664 -1.70667 -2.95102 0
M  V30 1108 H 110.857 -2.64828 -1.40733 0
M  V30 1109 H 108.41 -1.39742 -0.700132 0
M  V30 1110 H 109.145 -0.75932 -3.15285 0
M  V30 1111 H 108.93 -2.52698 -2.9981 0
M  V30 1112 H 110.42 -1.8664 -3.73571 0
M  V30 1113 N 110.857 0.726932 -1.39834 0
M  V30 1114 C 111.804 1.841 -1.39197 0
M  V30 1115 C 112.774 1.642 -0.250502 0
M  V30 1116 O 113.959 1.85494 -0.446846 0
M  V30 1117 C 111.099 3.21697 -1.24919 0
M  V30 1118 C 110.212 3.53247 -2.48678 0
M  V30 1119 C 109.347 4.80289 -2.26928 0
M  V30 1120 C 108.386 5.04707 -3.4632 0
M  V30 1121 N 107.523 6.22956 -3.23836 0
M  V30 1122 H 112.363 1.83979 -2.34427 0
M  V30 1123 H 109.9 0.898876 -1.16442 0
M  V30 1124 H 111.858 4.01137 -1.1465 0
M  V30 1125 H 110.488 3.21076 -0.333153 0
M  V30 1126 H 109.54 2.68447 -2.69519 0
M  V30 1127 H 110.852 3.67205 -3.37582 0
M  V30 1128 H 110.006 5.67725 -2.13947 0
M  V30 1129 H 108.745 4.68519 -1.35431 0
M  V30 1130 H 107.75 4.1573 -3.5979 0
M  V30 1131 H 108.975 5.18357 -4.38729 0
M  V30 1132 H 106.921 6.12459 -2.35011 0
M  V30 1133 H 106.838 6.37539 -4.063 0
M  V30 1134 H 108.106 7.1321 -3.14566 0
M  V30 1135 N 112.336 1.25143 0.95797 0
M  V30 1136 C 113.283 1.05235 2.05412 0
M  V30 1137 C 114.253 -0.0374561 1.66058 0
M  V30 1138 O 115.438 0.119073 1.90428 0
M  V30 1139 C 112.578 0.673589 3.38462 0
M  V30 1140 C 111.691 1.8379 3.90954 0
M  V30 1141 C 110.826 1.40381 5.12315 0
M  V30 1142 C 109.865 2.53746 5.57027 0
M  V30 1143 N 109.002 2.11136 6.69601 0
M  V30 1144 H 113.842 1.99048 2.21774 0
M  V30 1145 H 111.379 0.991277 1.08683 0
M  V30 1146 H 113.337 0.434964 4.14926 0
M  V30 1147 H 111.967 -0.227554 3.21997 0
M  V30 1148 H 111.019 2.18992 3.11041 0
M  V30 1149 H 112.331 2.68937 4.20089 0
M  V30 1150 H 111.485 1.12464 5.96185 0
M  V30 1151 H 110.224 0.523015 4.84887 0
M  V30 1152 H 109.229 2.82412 4.71724 0
M  V30 1153 H 110.454 3.42398 5.86464 0
M  V30 1154 H 108.4 1.25468 6.4389 0
M  V30 1155 H 108.317 2.89832 6.98236 0
M  V30 1156 H 109.585 1.86385 7.56889 0
M  V30 1157 N 113.814 -1.1601 1.06675 0
M  V30 1158 C 115.06 -1.86909 0.786945 0
M  V30 1159 C 115.393 -1.81717 -0.685018 0
M  V30 1160 O 114.668 -1.23551 -1.50218 0
M  V30 1161 C 114.951 -3.36313 1.28707 0
M  V30 1162 C 114.804 -3.50175 2.82308 0
M  V30 1163 C 116.123 -4.3084 0.898071 0
M  V30 1164 H 113.242 -0.678677 0.287343 0
M  V30 1165 H 115.884 -1.36336 1.32334 0
M  V30 1166 H 114.034 -3.79513 0.830768 0
M  V30 1167 H 115.706 -3.15886 3.36175 0
M  V30 1168 H 113.949 -2.91959 3.20847 0
M  V30 1169 H 114.62 -4.55116 3.12368 0
M  V30 1170 H 117.096 -3.95561 1.29114 0
M  V30 1171 H 115.972 -5.33876 1.27543 0
M  V30 1172 H 116.233 -4.41662 -0.196651 0
M  V30 1173 N 115.292 -0.849877 -1.32721 0
M  V30 1174 C 116.222 -0.306308 -2.31482 0
M  V30 1175 C 117.203 0.591952 -1.59468 0
M  V30 1176 O 118.388 0.513199 -1.87296 0
M  V30 1177 C 115.518 0.510204 -3.43532 0
M  V30 1178 C 114.472 -0.293209 -4.26994 0
M  V30 1179 C 113.798 0.647743 -5.30762 0
M  V30 1180 C 115.098 -1.51634 -4.99804 0
M  V30 1181 H 116.792 -1.13153 -2.77195 0
M  V30 1182 H 114.338 -0.545553 -1.33266 0
M  V30 1183 H 116.291 0.900856 -4.11658 0
M  V30 1184 H 115.015 1.36874 -2.96535 0
M  V30 1185 H 113.674 -0.665555 -3.60508 0
M  V30 1186 H 113.322 1.50299 -4.8002 0
M  V30 1187 H 113.022 0.11422 -5.87489 0
M  V30 1188 H 114.546 1.03567 -6.01753 0
M  V30 1189 H 115.96 -1.19824 -5.60638 0
M  V30 1190 H 114.357 -1.98745 -5.66234 0
M  V30 1191 H 115.427 -2.28018 -4.27943 0
M  V30 1192 N 116.77 1.45427 -0.607355 0
M  V30 1193 C 117.703 2.27635 0.160482 0
M  V30 1194 C 118.681 1.37122 0.873857 0
M  V30 1195 O 119.865 1.66551 0.882775 0
M  V30 1196 C 116.992 3.15486 1.23231 0
M  V30 1197 C 116.038 4.21939 0.622097 0
M  V30 1198 S 116.871 5.32459 -0.569852 0
M  V30 1199 C 118.027 6.23879 0.502577 0
M  V30 1200 H 118.26 2.9241 -0.536983 0
M  V30 1201 H 115.793 1.49265 -0.394868 0
M  V30 1202 H 117.751 3.66659 1.84585 0
M  V30 1203 H 116.412 2.49977 1.90185 0
M  V30 1204 H 115.605 4.8333 1.42856 0
M  V30 1205 H 115.207 3.73906 0.0837063 0
M  V30 1206 H 117.499 6.63261 1.38171 0
M  V30 1207 H 118.442 7.0806 -0.0751759 0
M  V30 1208 H 118.85 5.58545 0.8178 0
M  V30 1209 N 118.248 0.346503 1.53744 0
M  V30 1210 C 119.476 -0.25041 2.05379 0
M  V30 1211 C 119.891 -1.43979 1.22129 0
M  V30 1212 O 119.248 -1.80677 0.257321 0
M  V30 1213 C 119.299 -0.662575 3.55376 0
M  V30 1214 O 119.02 0.479515 4.35468 0
M  V30 1215 C 120.521 -1.31989 4.23195 0
M  V30 1216 H 117.741 -0.0478198 0.669294 0
M  V30 1217 H 120.285 0.499346 1.9831 0
M  V30 1218 H 118.44 -1.36227 3.62658 0
M  V30 1219 H 118.854 0.15037 5.24284 0
M  V30 1220 H 120.328 -1.55902 5.29527 0
M  V30 1221 H 120.805 -2.27436 3.75725 0
M  V30 1222 H 121.411 -0.662154 4.20114 0
M  V30 1223 N 119.726 -1.57421 0.075193 0
M  V30 1224 C 120.689 -2.11791 -0.876203 0
M  V30 1225 C 121.689 -1.04268 -1.22412 0
M  V30 1226 O 122.879 -1.30242 -1.15684 0
M  V30 1227 C 120.011 -2.62207 -2.17854 0
M  V30 1228 H 121.204 -2.9716 -0.40444 0
M  V30 1229 H 118.757 -1.55333 -0.173557 0
M  V30 1230 H 119.492 -1.803 -2.6956 0
M  V30 1231 H 119.277 -3.40802 -1.93897 0
M  V30 1232 H 120.767 -3.04335 -2.85955 0
M  V30 1233 N 121.204 0.198386 -1.56346 0
M  V30 1234 C 122.134 1.24865 -1.9731 0
M  V30 1235 C 123.115 1.47651 -0.844576 0
M  V30 1236 O 124.3 1.59444 -1.10866 0
M  V30 1237 C 121.43 2.59358 -2.30977 0
M  V30 1238 C 120.384 2.5119 -3.46537 0
M  V30 1239 C 119.71 3.89926 -3.65871 0
M  V30 1240 C 121.01 2.03977 -4.80823 0
M  V30 1241 H 122.704 0.908252 -2.85291 0
M  V30 1242 H 120.25 0.435462 -1.37258 0
M  V30 1243 H 122.203 3.33011 -2.58228 0
M  V30 1244 H 120.927 2.95132 -1.39874 0
M  V30 1245 H 119.586 1.79993 -3.19371 0
M  V30 1246 H 119.234 4.23046 -2.72105 0
M  V30 1247 H 118.934 3.85336 -4.4361 0
M  V30 1248 H 120.458 4.65205 -3.95495 0
M  V30 1249 H 121.872 2.67386 -5.07127 0
M  V30 1250 H 120.269 2.10397 -5.62008 0
M  V30 1251 H 121.339 0.992861 -4.74626 0
M  V30 1252 N 122.682 1.50554 0.465978 0
M  V30 1253 C 124.093 1.54599 1.04671 0
M  V30 1254 C 124.444 0.352488 1.93008 0
M  V30 1255 O 123.569 -0.534044 2.09707 0
M  V30 1256 C 124.164 2.80166 1.90505 0
M  V30 1257 C 122.723 2.86876 2.43678 0
M  V30 1258 C 121.87 2.48947 1.22151 0
M  V30 1259 H 124.821 1.56744 0.248384 0
M  V30 1260 H 124.842 2.62311 2.75633 0
M  V30 1261 H 124.354 3.67013 1.26186 0
M  V30 1262 H 122.455 2.04393 3.11536 0
M  V30 1263 H 122.568 3.89885 2.78436 0
M  V30 1264 H 120.932 2.01498 1.5579 0
M  V30 1265 H 121.715 3.38107 0.594866 0
M  V30 1266 N 124.16 -0.719506 1.40217 0
M  V30 1267 C 125.092 -1.84428 1.36084 0
M  V30 1268 C 126.105 -1.60597 0.266913 0
M  V30 1269 O 127.294 -1.70544 0.526983 0
M  V30 1270 C 124.394 -3.20757 1.094 0
M  V30 1271 C 123.567 -3.71817 2.30372 0
M  V30 1272 C 122.626 -4.86748 1.99907 0
M  V30 1273 O 121.652 -4.99603 2.72737 0
M  V30 1274 N 122.854 -5.7226 0.974635 0
M  V30 1275 H 125.619 -1.88473 2.33019 0
M  V30 1276 H 123.18 -0.900885 1.3452 0
M  V30 1277 H 125.172 -3.95235 0.870116 0
M  V30 1278 H 123.742 -3.11884 0.211452 0
M  V30 1279 H 122.962 -2.88514 2.68614 0
M  V30 1280 H 124.25 -4.02666 3.11026 0
M  V30 1281 H 123.648 -5.6448 0.371368 0
M  V30 1282 H 122.205 -6.46739 0.810656 0
M  V30 1283 N 125.638 -1.25649 -0.95132 0
M  V30 1284 C 126.568 -1.08808 -2.06599 0
M  V30 1285 C 127.549 0.00382547 -1.701 0
M  V30 1286 O 128.734 -0.166325 -1.93486 0
M  V30 1287 C 125.864 -0.709542 -3.39975 0
M  V30 1288 C 124.818 -1.75206 -3.90496 0
M  V30 1289 C 124.144 -1.22811 -5.20405 0
M  V30 1290 C 125.444 -3.15153 -4.16504 0
M  V30 1291 H 127.138 -2.02048 -2.20946 0
M  V30 1292 H 124.684 -0.972835 -1.06169 0
M  V30 1293 H 126.637 -0.578649 -4.17408 0
M  V30 1294 H 125.361 0.258556 -3.25575 0
M  V30 1295 H 124.02 -1.87145 -3.15234 0
M  V30 1296 H 123.668 -0.250145 -5.02378 0
M  V30 1297 H 123.368 -1.92492 -5.55176 0
M  V30 1298 H 124.892 -1.10968 -6.00432 0
M  V30 1299 H 126.306 -3.06349 -4.84586 0
M  V30 1300 H 124.703 -3.82333 -4.62538 0
M  V30 1301 H 125.773 -3.61966 -3.22658 0
M  V30 1302 N 127.117 1.15442 -1.07289 0
M  V30 1303 C 128.363 1.86489 -0.796846 0
M  V30 1304 C 128.696 1.82078 0.675371 0
M  V30 1305 O 127.971 1.24346 1.4956 0
M  V30 1306 C 128.254 3.35626 -1.30489 0
M  V30 1307 C 128.107 3.48673 -2.84161 0
M  V30 1308 C 129.426 4.30357 -0.920907 0
M  V30 1309 H 126.545 0.677144 -0.290939 0
M  V30 1310 H 129.187 1.35633 -1.33056 0
M  V30 1311 H 127.337 3.79068 -0.850883 0
M  V30 1312 H 129.009 3.14099 -3.37846 0
M  V30 1313 H 127.252 2.90253 -3.22391 0
M  V30 1314 H 127.923 4.53453 -3.14777 0
M  V30 1315 H 130.399 3.94871 -1.3121 0
M  V30 1316 H 129.275 5.33193 -1.30372 0
M  V30 1317 H 129.536 4.4176 0.173226 0
M  V30 1318 N 128.595 0.856903 1.32268 0
M  V30 1319 C 129.558 0.308171 2.27119 0
M  V30 1320 C 130.558 -0.533421 1.51695 0
M  V30 1321 O 131.748 -0.344607 1.70757 0
M  V30 1322 C 128.88 -0.563757 3.36206 0
M  V30 1323 H 130.073 1.14535 2.77167 0
M  V30 1324 H 127.626 0.631421 1.42978 0
M  V30 1325 H 128.361 -1.42266 2.91429 0
M  V30 1326 H 128.146 0.0386749 3.92081 0
M  V30 1327 H 129.636 -0.940386 4.06874 0
M  V30 1328 N 130.073 -1.45103 0.615059 0
M  V30 1329 C 131.036 -2.29025 -0.0895485 0
M  V30 1330 C 132.036 -1.40174 -0.787906 0
M  V30 1331 O 133.226 -1.62217 -0.634933 0
M  V30 1332 C 130.358 -3.21376 -1.13711 0
M  V30 1333 H 131.551 -2.92807 0.648382 0
M  V30 1334 H 129.104 -1.51749 0.374444 0
M  V30 1335 H 129.839 -2.6241 -1.90556 0
M  V30 1336 H 129.624 -3.86834 -0.640475 0
M  V30 1337 H 131.114 -3.84459 -1.63036 0
M  V30 1338 N 131.551 -0.354651 -1.53558 0
M  V30 1339 C 132.798 0.238443 -2.01091 0
M  V30 1340 C 133.126 1.49663 -1.24222 0
M  V30 1341 O 132.381 1.93049 -0.321003 0
M  V30 1342 C 132.68 0.587121 -3.52545 0
M  V30 1343 C 132.346 -0.575472 -4.47213 0
M  V30 1344 C 131.008 -0.894497 -4.72813 0
M  V30 1345 C 133.36 -1.35489 -5.03281 0
M  V30 1346 C 130.688 -1.99511 -5.51736 0
M  V30 1347 C 133.04 -2.44583 -5.83405 0
M  V30 1348 C 131.704 -2.77033 -6.07296 0
M  V30 1349 H 130.974 0.0872526 -0.735845 0
M  V30 1350 H 133.621 -0.484859 -1.8526 0
M  V30 1351 H 131.926 1.39129 -3.66265 0
M  V30 1352 H 133.623 1.05809 -3.86789 0
M  V30 1353 H 130.213 -0.316774 -4.27428 0
M  V30 1354 H 134.397 -1.12167 -4.83459 0
M  V30 1355 H 129.653 -2.25063 -5.68469 0
M  V30 1356 H 133.827 -3.05401 -6.25862 0
M  V30 1357 H 131.454 -3.6244 -6.68237 0
M  V30 1358 N 133.029 1.57378 -0.0835403 0
M  V30 1359 C 133.979 2.09916 0.889905 0
M  V30 1360 C 134.963 1.01151 1.25129 0
M  V30 1361 O 136.155 1.27443 1.2283 0
M  V30 1362 C 133.284 2.67379 2.15322 0
M  V30 1363 C 132.37 3.83167 1.81779 0
M  V30 1364 N 132.761 4.91665 1.18739 0
M  V30 1365 C 131.059 3.92685 2.11459 0
M  V30 1366 C 131.76 5.72409 1.0355 0
M  V30 1367 N 130.736 5.21062 1.54906 0
M  V30 1368 H 134.538 2.91188 0.398378 0
M  V30 1369 H 132.052 1.61956 0.120013 0
M  V30 1370 H 134.049 3.0334 2.8599 0
M  V30 1371 H 132.709 1.87558 2.65051 0
M  V30 1372 H 133.72 5.10784 0.855604 0
M  V30 1373 H 130.397 3.23856 2.63483 0
M  V30 1374 H 131.787 6.69699 0.543425 0
M  V30 1375 N 134.507 -0.190092 1.56449 0
M  V30 1376 C 135.732 -0.929864 1.85387 0
M  V30 1377 C 136.157 -1.7585 0.667704 0
M  V30 1378 O 135.515 -1.77198 -0.383459 0
M  V30 1379 C 135.563 -1.79773 3.12593 0
M  V30 1380 O 134.667 -2.89713 2.93496 0
M  V30 1381 H 134.008 -0.261574 0.610307 0
M  V30 1382 H 136.538 -0.193896 2.03679 0
M  V30 1383 H 136.548 -2.20139 3.43515 0
M  V30 1384 H 135.223 -1.18892 3.98544 0
M  V30 1385 H 133.8 -2.53065 2.73884 0
M  V30 1386 N 135.985 -1.50799 -0.457987 0
M  V30 1387 C 136.915 -1.73553 -1.5621 0
M  V30 1388 C 137.896 -0.584774 -1.59732 0
M  V30 1389 O 139.081 -0.825314 -1.7579 0
M  V30 1390 C 136.211 -1.84169 -2.94447 0
M  V30 1391 C 135.165 -2.99461 -3.0579 0
M  V30 1392 C 134.491 -2.95235 -4.45803 0
M  V30 1393 C 135.791 -4.39766 -2.81786 0
M  V30 1394 H 137.485 -2.66 -1.37421 0
M  V30 1395 H 135.031 -1.28002 -0.659662 0
M  V30 1396 H 136.984 -1.98672 -3.71628 0
M  V30 1397 H 135.708 -0.883545 -3.14422 0
M  V30 1398 H 134.367 -2.8463 -2.31044 0
M  V30 1399 H 134.015 -1.97239 -4.62715 0
M  V30 1400 H 133.715 -3.72642 -4.54326 0
M  V30 1401 H 135.239 -3.11803 -5.24987 0
M  V30 1402 H 136.653 -4.55054 -3.4871 0
M  V30 1403 H 135.05 -5.18722 -3.0174 0
M  V30 1404 H 136.12 -4.51229 -1.7754 0
M  V30 1405 N 137.463 0.71206 -1.40597 0
M  V30 1406 C 138.709 1.47416 -1.39271 0
M  V30 1407 C 139.042 1.942 0.00388791 0
M  V30 1408 O 138.317 1.68403 0.973179 0
M  V30 1409 C 138.6 2.69774 -2.38525 0
M  V30 1410 C 138.453 2.28861 -3.87224 0
M  V30 1411 C 139.772 3.71939 -2.35264 0
M  V30 1412 H 136.891 0.534713 -0.5072 0
M  V30 1413 H 139.533 0.812375 -1.71757 0
M  V30 1414 H 137.683 3.26238 -2.10953 0
M  V30 1415 H 139.355 1.77852 -4.25636 0
M  V30 1416 H 137.598 1.60824 -4.02887 0
M  V30 1417 H 138.269 3.16584 -4.52193 0
M  V30 1418 H 140.745 3.25113 -2.59694 0
M  V30 1419 H 139.621 4.55186 -3.06753 0
M  V30 1420 H 139.882 4.20484 -1.36549 0
M  V30 1421 N 138.941 1.26152 0.944643 0
M  V30 1422 C 140.189 1.11271 1.6871 0
M  V30 1423 C 140.51 -0.345166 1.91921 0
M  V30 1424 O 139.78 -1.24387 1.51343 0
M  V30 1425 H 138.36 0.408783 0.625224 0
M  V30 1426 H 141.022 1.58427 1.1352 0
M  V30 1427 H 140.118 1.62879 2.66227 0
M  V30 1428 N 140.419 -1.14872 1.07899 0
M  V30 1429 C 141.352 -2.18794 0.64841 0
M  V30 1430 C 142.33 -1.59065 -0.337189 0
M  V30 1431 O 143.514 -1.86936 -0.242284 0
M  V30 1432 C 140.641 -3.38667 -0.0470417 0
M  V30 1433 C 139.687 -4.16942 0.897884 0
M  V30 1434 S 140.52 -4.78615 2.40183 0
M  V30 1435 C 141.676 -6.0185 1.71834 0
M  V30 1436 H 141.909 -2.5498 1.52881 0
M  V30 1437 H 139.442 -1.25922 0.893484 0
M  V30 1438 H 141.4 -4.08113 -0.442027 0
M  V30 1439 H 140.061 -3.00814 -0.903861 0
M  V30 1440 H 139.254 -5.02726 0.358096 0
M  V30 1441 H 138.856 -3.53073 1.23352 0
M  V30 1442 H 141.148 -6.69574 1.03328 0
M  V30 1443 H 142.091 -6.60408 2.55473 0
M  V30 1444 H 142.499 -5.5173 1.19392 0
M  V30 1445 N 141.898 -0.863906 -1.31812 0
M  V30 1446 C 142.861 -0.320212 -2.26952 0
M  V30 1447 C 143.861 0.525369 -1.51975 0
M  V30 1448 O 145.051 0.335547 -1.70938 0
M  V30 1449 C 142.183 0.545919 -3.365 0
M  V30 1450 H 143.376 -1.16004 -2.76556 0
M  V30 1451 H 140.929 -0.638995 -1.42641 0
M  V30 1452 H 141.664 1.40718 -2.92179 0
M  V30 1453 H 141.449 -0.0594674 -3.92055 0
M  V30 1454 H 142.939 0.918796 -4.07367 0
M  V30 1455 N 143.376 1.44774 -0.622745 0
M  V30 1456 C 144.339 2.29069 0.0774015 0
M  V30 1457 C 145.339 1.4059 0.780461 0
M  V30 1458 O 146.529 1.62551 0.626322 0
M  V30 1459 C 143.661 3.21974 1.12006 0
M  V30 1460 H 144.854 2.92459 -0.663901 0
M  V30 1461 H 142.407 1.51548 -0.382486 0
M  V30 1462 H 143.142 2.63417 1.89162 0
M  V30 1463 H 142.927 3.87168 0.619951 0
M  V30 1464 H 144.417 3.85318 1.60995 0
M  V30 1465 N 144.854 0.36279 1.53368 0
M  V30 1466 C 146.1 -0.228113 2.01513 0
M  V30 1467 C 146.433 -1.48648 1.2497 0
M  V30 1468 O 145.708 -1.91459 0.342616 0
M  V30 1469 C 145.991 -0.522884 3.56284 0
M  V30 1470 C 145.844 0.74892 4.43521 0
M  V30 1471 C 147.163 -1.32461 4.19693 0
M  V30 1472 H 144.282 -0.0814343 0.732487 0
M  V30 1473 H 146.924 0.48713 1.83649 0
M  V30 1474 H 145.074 -1.1322 3.71636 0
M  V30 1475 H 146.746 1.38648 4.39971 0
M  V30 1476 H 144.989 1.36986 4.11603 0
M  V30 1477 H 145.66 0.497667 5.49752 0
M  V30 1478 H 148.136 -0.809203 4.08156 0
M  V30 1479 H 147.012 -1.49961 5.28018 0
M  V30 1480 H 147.273 -2.33232 3.75573 0
M  V30 1481 N 146.332 -1.57332 0.0918853 0
M  V30 1482 C 147.262 -2.16872 -0.865371 0
M  V30 1483 C 148.243 -1.10118 -1.29646 0
M  V30 1484 O 149.428 -1.38242 -1.36392 0
M  V30 1485 C 146.558 -2.74649 -2.12569 0
M  V30 1486 C 145.512 -3.86747 -1.83333 0
M  V30 1487 C 144.838 -4.31212 -3.16166 0
M  V30 1488 C 146.138 -5.10089 -1.1228 0
M  V30 1489 H 147.832 -2.97114 -0.369307 0
M  V30 1490 H 145.378 -1.42918 -0.176194 0
M  V30 1491 H 147.331 -3.14952 -2.7997 0
M  V30 1492 H 146.055 -1.91657 -2.64452 0
M  V30 1493 H 144.714 -3.46978 -1.18331 0
M  V30 1494 H 144.362 -3.45115 -3.6593 0
M  V30 1495 H 144.062 -5.06788 -2.97388 0
M  V30 1496 H 145.586 -4.74146 -3.84731 0
M  V30 1497 H 147 -5.47582 -1.69785 0
M  V30 1498 H 145.397 -5.91073 -1.03693 0
M  V30 1499 H 146.467 -4.84786 -0.105041 0
M  V30 1500 N 147.81 0.181792 -1.56548 0
M  V30 1501 C 149.056 0.901431 -1.81665 0
M  V30 1502 C 149.389 1.82347 -0.668075 0
M  V30 1503 O 148.664 1.91669 0.330615 0
M  V30 1504 C 148.947 1.70618 -3.17115 0
M  V30 1505 C 148.8 0.807964 -4.42484 0
M  V30 1506 C 150.119 2.67605 -3.49393 0
M  V30 1507 H 147.238 0.32627 -0.660846 0
M  V30 1508 H 149.88 0.168134 -1.89255 0
M  V30 1509 H 148.03 2.33133 -3.10775 0
M  V30 1510 H 149.702 0.19649 -4.60881 0
M  V30 1511 H 147.945 0.115411 -4.33646 0
M  V30 1512 H 148.616 1.40632 -5.33785 0
M  V30 1513 H 151.092 2.15218 -3.56118 0
M  V30 1514 H 149.968 3.20985 -4.45264 0
M  V30 1515 H 150.229 3.47298 -2.73563 0
M  V30 1516 N 149.288 1.51039 0.449983 0
M  V30 1517 C 150.251 1.70863 1.5277 0
M  V30 1518 C 151.251 0.578846 1.5002 0
M  V30 1519 O 152.441 0.846213 1.52266 0
M  V30 1520 C 149.573 1.75341 2.9235 0
M  V30 1521 H 150.766 2.67034 1.36502 0
M  V30 1522 H 148.319 1.40838 0.677812 0
M  V30 1523 H 149.054 0.809383 3.14037 0
M  V30 1524 H 148.839 2.57436 2.95752 0
M  V30 1525 H 150.329 1.92559 3.70555 0
M  V30 1526 N 150.766 -0.704594 1.40972 0
M  V30 1527 C 151.994 -1.49354 1.43182 0
M  V30 1528 C 152.409 -1.88768 0.0345508 0
M  V30 1529 O 151.766 -1.56184 -0.944081 0
M  V30 1530 C 151.817 -2.76187 2.33244 0
M  V30 1531 O 151.538 -2.38436 3.67532 0
M  V30 1532 C 153.039 -3.7 2.44162 0
M  V30 1533 H 150.259 -0.460559 0.487982 0
M  V30 1534 H 152.803 -0.868261 1.85153 0
M  V30 1535 H 150.958 -3.34974 1.94606 0
M  V30 1536 H 151.372 -3.20126 4.15475 0
M  V30 1537 H 152.846 -4.55803 3.11364 0
M  V30 1538 H 153.323 -4.13867 1.47006 0
M  V30 1539 H 153.929 -3.17121 2.83398 0
M  V30 1540 N 152.244 -1.26651 -0.937939 0
M  V30 1541 C 153.492 -1.12165 -1.68118 0
M  V30 1542 C 153.813 0.334983 -1.92101 0
M  V30 1543 O 153.083 1.23583 -1.52 0
M  V30 1544 H 151.663 -0.412093 -0.623048 0
M  V30 1545 H 154.325 -1.59027 -1.12678 0
M  V30 1546 H 153.421 -1.64289 -2.6536 0
M  V30 1547 N 153.722 1.14298 -1.08507 0
M  V30 1548 C 154.685 2.17607 -0.719711 0
M  V30 1549 C 155.685 1.58907 0.245997 0
M  V30 1550 O 156.875 1.74181 0.0254081 0
M  V30 1551 C 154.007 3.40842 -0.0627695 0
M  V30 1552 H 155.2 2.51443 -1.63452 0
M  V30 1553 H 152.753 1.28963 -0.88307 0
M  V30 1554 H 153.488 3.12587 0.863716 0
M  V30 1555 H 153.273 3.84713 -0.757504 0
M  V30 1556 H 154.763 4.17221 0.177786 0
M  V30 1557 N 155.201 0.870884 1.31352 0
M  V30 1558 C 156.131 0.343096 2.30966 0
M  V30 1559 C 157.112 -0.566507 1.60389 0
M  V30 1560 O 158.297 -0.483336 1.88089 0
M  V30 1561 C 155.427 -0.455487 3.443 0
M  V30 1562 C 154.381 0.361103 4.26474 0
M  V30 1563 C 153.707 -0.563221 5.31725 0
M  V30 1564 C 155.007 1.59566 4.97329 0
M  V30 1565 H 156.701 1.17548 2.75359 0
M  V30 1566 H 154.247 0.566686 1.32381 0
M  V30 1567 H 156.2 -0.83525 4.13039 0
M  V30 1568 H 154.924 -1.32139 2.98675 0
M  V30 1569 H 153.583 0.722825 3.59403 0
M  V30 1570 H 153.231 -1.42643 4.82351 0
M  V30 1571 H 152.931 -0.0207409 5.87596 0
M  V30 1572 H 154.455 -0.939808 6.03324 0
M  V30 1573 H 155.869 1.28728 5.58661 0
M  V30 1574 H 154.266 2.07728 5.63 0
M  V30 1575 H 155.336 2.34798 4.24262 0
M  V30 1576 N 156.679 -1.44442 0.630414 0
M  V30 1577 C 157.609 -2.33418 -0.0618083 0
M  V30 1578 C 158.59 -1.48165 -0.835541 0
M  V30 1579 O 159.775 -1.76886 -0.801564 0
M  V30 1580 C 156.905 -3.31222 -1.04449 0
M  V30 1581 C 155.859 -4.26288 -0.382436 0
M  V30 1582 C 155.185 -5.13954 -1.47497 0
M  V30 1583 C 156.485 -5.1744 0.710865 0
M  V30 1584 H 158.179 -2.91548 0.681184 0
M  V30 1585 H 155.725 -1.40191 0.329026 0
M  V30 1586 H 157.678 -3.92351 -1.53748 0
M  V30 1587 H 156.402 -2.71299 -1.81836 0
M  V30 1588 H 155.061 -3.6649 0.0899054 0
M  V30 1589 H 154.709 -4.50385 -2.2397 0
M  V30 1590 H 154.409 -5.7837 -1.03737 0
M  V30 1591 H 155.933 -5.77955 -1.96979 0
M  V30 1592 H 157.347 -5.72509 0.300996 0
M  V30 1593 H 155.744 -5.90455 1.07156 0
M  V30 1594 H 156.814 -4.58496 1.57829 0
M  V30 1595 N 158.157 -0.370918 -1.53173 0
M  V30 1596 C 159.105 0.488101 -2.27421 0
M  V30 1597 C 160.099 1.07884 -1.30604 0
M  V30 1598 O 161.305 1.02143 -1.48212 0
M  V30 1599 H 157.68 0.176134 -0.731082 0
M  V30 1600 H 159.651 -0.159815 -2.97972 0
M  V30 1601 C 158.4 1.61306 -3.08019 0
M  V30 1602 H 157.723 1.1678 -3.82364 0
M  V30 1603 H 159.163 2.18872 -3.63141 0
M  V30 1604 C 157.622 2.55848 -2.19188 0
M  V30 1605 O 158.152 3.58799 -1.80626 0
M  V30 1606 N 156.358 2.2516 -1.83715 0
M  V30 1607 H 155.905 1.41476 -2.15273 0
M  V30 1608 H 155.863 2.8867 -1.24567 0
M  V30 1609 N 159.635 1.57281 -0.100228 0
M  V30 1610 C 161.046 1.81725 0.428107 0
M  V30 1611 C 161.397 1.01619 1.67833 0
M  V30 1612 O 160.522 0.247098 2.14985 0
M  V30 1613 C 161.117 3.29617 0.78347 0
M  V30 1614 C 159.676 3.54808 1.25653 0
M  V30 1615 C 158.823 2.76118 0.255752 0
M  V30 1616 H 161.774 1.55324 -0.325608 0
M  V30 1617 H 161.795 3.4322 1.64256 0
M  V30 1618 H 161.307 3.87893 -0.12665 0
M  V30 1619 H 159.408 3.01868 2.18418 0
M  V30 1620 H 159.521 4.63443 1.21482 0
M  V30 1621 H 157.885 2.43745 0.738956 0
M  V30 1622 H 158.668 3.37145 -0.647136 0
M  V30 1623 N 161.113 -0.173488 1.56642 0
M  V30 1624 C 162.023 -1.23482 1.99473 0
M  V30 1625 C 163.039 -1.48567 0.905752 0
M  V30 1626 O 164.215 -1.60758 1.21321 0
M  V30 1627 C 161.28 -2.55444 2.34413 0
M  V30 1628 C 160.341 -2.38241 3.57127 0
M  V30 1629 C 159.574 -3.63909 3.90392 0
M  V30 1630 O 159.797 -4.68996 3.24653 0
M  V30 1631 O 158.731 -3.58149 4.83749 0
M  V30 1632 H 162.557 -0.901279 2.90018 0
M  V30 1633 H 160.142 -0.380185 1.44482 0
M  V30 1634 H 162.024 -3.33292 2.57865 0
M  V30 1635 H 160.699 -2.88382 1.4703 0
M  V30 1636 H 159.606 -1.58431 3.38896 0
M  V30 1637 H 160.939 -2.10228 4.45045 0
M  V30 1638 N 162.591 -1.51276 -0.441967 0
M  V30 1639 C 163.554 -1.7167 -1.51862 0
M  V30 1640 C 164.554 -0.586793 -1.49711 0
M  V30 1641 O 165.744 -0.854276 -1.51815 0
M  V30 1642 C 162.876 -1.76889 -2.91416 0
M  V30 1643 H 164.069 -2.67754 -1.35084 0
M  V30 1644 H 161.622 -1.41196 -0.670333 0
M  V30 1645 H 162.357 -0.826026 -3.13604 0
M  V30 1646 H 162.142 -2.59001 -2.94382 0
M  V30 1647 H 163.632 -1.94522 -3.69528 0
M  V30 1648 N 164.069 0.697108 -1.41344 0
M  V30 1649 C 165.299 1.48377 -1.43763 0
M  V30 1650 C 165.707 1.89156 -0.0408726 0
M  V30 1651 O 165.05 1.57239 0.949812 0
M  V30 1652 C 165.112 2.7781 -2.2817 0
M  V30 1653 C 164.776 2.59244 -3.76353 0
M  V30 1654 C 165.773 2.25292 -4.68551 0
M  V30 1655 C 163.458 2.74933 -4.20378 0
M  V30 1656 C 165.452 2.07264 -6.02761 0
M  V30 1657 C 163.139 2.56521 -5.54653 0
M  V30 1658 C 164.137 2.22737 -6.4566 0
M  V30 1659 O 163.825 2.04485 -7.77458 0
M  V30 1660 H 163.557 0.463842 -0.491759 0
M  V30 1661 H 166.111 0.865934 -1.86255 0
M  V30 1662 H 164.341 3.41995 -1.8049 0
M  V30 1663 H 166.03 3.39608 -2.22309 0
M  V30 1664 H 166.796 2.12787 -4.35829 0
M  V30 1665 H 162.675 3.00213 -3.49848 0
M  V30 1666 H 166.219 1.80817 -6.73759 0
M  V30 1667 H 162.116 2.68616 -5.86955 0
M  V30 1668 H 162.884 2.1926 -7.88586 0
M  V30 1669 N 165.547 1.27147 0.931209 0
M  V30 1670 C 166.795 1.13055 1.6752 0
M  V30 1671 C 167.116 -0.324791 1.92276 0
M  V30 1672 O 166.386 -1.22775 1.52654 0
M  V30 1673 H 164.966 0.415391 0.620854 0
M  V30 1674 H 167.628 1.59623 1.11833 0
M  V30 1675 H 166.724 1.65694 2.64485 0
M  V30 1676 N 167.025 -1.13721 1.09112 0
M  V30 1677 C 168.274 -1.84275 0.82009 0
M  V30 1678 C 168.587 -1.84253 -0.656509 0
M  V30 1679 O 169.793 -2.50668 -1.04296 0
M  V30 1680 C 168.249 -3.30825 1.41714 0
M  V30 1681 C 167.857 -3.39244 2.92605 0
M  V30 1682 C 169.601 -4.06443 1.22492 0
M  V30 1683 C 167.508 -4.80047 3.45411 0
M  V30 1684 H 166.438 -0.690387 0.30312 0
M  V30 1685 H 169.089 -1.28146 1.31343 0
M  V30 1686 H 167.471 -3.86737 0.851498 0
M  V30 1687 H 168.645 -2.93344 3.55367 0
M  V30 1688 H 166.96 -2.77088 3.10823 0
M  V30 1689 H 169.557 -5.10387 1.59402 0
M  V30 1690 H 169.9 -4.15972 0.165299 0
M  V30 1691 H 170.433 -3.56852 1.75788 0
M  V30 1692 H 167.172 -4.75709 4.50978 0
M  V30 1693 H 166.692 -5.26455 2.87411 0
M  V30 1694 H 168.371 -5.48957 3.42425 0
M  V30 1695 N 168.503 -0.877838 -1.30888 0
M  V30 1696 C 169.751 -0.491723 -1.96027 0
M  V30 1697 C 170.072 0.960827 -1.69685 0
M  V30 1698 O 169.342 1.67462 -1.01654 0
M  V30 1699 H 167.922 -0.17885 -0.725273 0
M  V30 1700 H 170.584 -1.11935 -1.59551 0
M  V30 1701 H 169.68 -0.656016 -3.05128 0
M  V30 1702 N 169.982 1.44106 -0.638065 0
M  V30 1703 C 171.207 2.0685 -0.150916 0
M  V30 1704 C 171.632 1.47417 1.16833 0
M  V30 1705 O 170.99 0.578264 1.71831 0
M  V30 1706 C 171.038 3.60555 -0.05708 0
M  V30 1707 O 170.142 4.00465 0.984972 0
M  V30 1708 H 169.483 0.658151 -0.0879399 0
M  V30 1709 H 172.013 1.84865 -0.876707 0
M  V30 1710 H 172.023 4.07789 0.131232 0
M  V30 1711 H 170.698 4.03193 -1.02021 0
M  V30 1712 H 169.275 3.64849 0.770672 0
M  V30 1713 N 171.46 0.379036 1.52974 0
M  V30 1714 C 172.423 -0.448865 2.24762 0
M  V30 1715 C 173.423 -0.998689 1.26027 0
M  V30 1716 O 174.613 -0.882313 1.50203 0
M  V30 1717 C 171.745 -1.62872 2.99476 0
M  V30 1718 H 172.938 0.179491 2.99362 0
M  V30 1719 H 170.491 0.13096 1.5575 0
M  V30 1720 H 171.226 -2.29479 2.29151 0
M  V30 1721 H 171.011 -1.24128 3.71934 0
M  V30 1722 H 172.501 -2.2151 3.5401 0
M  V30 1723 N 172.938 -1.57226 0.108567 0
M  V30 1724 C 174.186 -1.94448 -0.550853 0
M  V30 1725 C 174.507 -0.992074 -1.67878 0
M  V30 1726 O 173.777 -0.0465 -1.95845 0
M  V30 1727 H 172.357 -0.717897 -0.206479 0
M  V30 1728 H 175.019 -1.94112 0.175062 0
M  V30 1729 H 174.115 -2.97218 -0.952259 0
M  V30 1730 N 174.416 0.165178 -1.56732 0
M  V30 1731 C 175.379 1.18822 -1.95995 0
M  V30 1732 C 176.379 1.3685 -0.84431 0
M  V30 1733 O 177.569 1.34152 -1.11126 0
M  V30 1734 C 174.701 2.5521 -2.26011 0
M  V30 1735 H 175.894 0.851825 -2.87548 0
M  V30 1736 H 173.447 0.407857 -1.50885 0
M  V30 1737 H 174.182 2.93852 -1.37191 0
M  V30 1738 H 173.967 2.43489 -3.07336 0
M  V30 1739 H 175.457 3.28927 -2.57288 0
M  V30 1740 N 175.894 1.51508 0.433938 0
M  V30 1741 C 177.143 1.63578 1.18005 0
M  V30 1742 C 177.456 0.359514 1.92268 0
M  V30 1743 O 178.662 0.359632 2.69108 0
M  V30 1744 C 177.118 2.88901 2.14626 0
M  V30 1745 C 176.726 4.23544 1.45995 0
M  V30 1746 C 178.47 3.10328 2.89649 0
M  V30 1747 C 176.377 5.40014 2.4112 0
M  V30 1748 H 175.307 0.609277 0.444182 0
M  V30 1749 H 177.958 1.77978 0.446773 0
M  V30 1750 H 176.34 2.68142 2.91403 0
M  V30 1751 H 177.514 4.54696 0.747532 0
M  V30 1752 H 175.829 4.08021 0.831115 0
M  V30 1753 H 178.426 3.94518 3.60915 0
M  V30 1754 H 178.769 2.23544 3.51189 0
M  V30 1755 H 179.302 3.31443 2.19978 0
M  V30 1756 H 176.041 6.29068 1.84264 0
M  V30 1757 H 175.561 5.13233 3.10406 0
M  V30 1758 H 177.24 5.72099 3.02177 0
M  V30 1759 N 177.372 -0.689602 1.41712 0
M  V30 1760 C 178.322 -1.79571 1.40493 0
M  V30 1761 C 179.306 -1.58473 0.278409 0
M  V30 1762 O 180.498 -1.69204 0.519532 0
M  V30 1763 C 177.627 -3.17923 1.29536 0
M  V30 1764 C 176.713 -3.44695 2.47075 0
M  V30 1765 N 177.104 -3.42132 3.72531 0
M  V30 1766 C 175.402 -3.75269 2.41017 0
M  V30 1767 C 176.103 -3.67976 4.50521 0
M  V30 1768 N 175.079 -3.88014 3.80718 0
M  V30 1769 H 178.881 -1.75961 2.35404 0
M  V30 1770 H 176.395 -0.889839 1.35851 0
M  V30 1771 H 178.392 -3.97167 1.26745 0
M  V30 1772 H 177.052 -3.22741 0.356153 0
M  V30 1773 H 178.063 -3.22375 4.05333 0
M  V30 1774 H 174.74 -3.87421 1.55599 0
M  V30 1775 H 176.13 -3.7208 5.59469 0
M  V30 1776 N 178.85 -1.27639 -0.924453 0
M  V30 1777 C 179.813 -1.10681 -2.00705 0
M  V30 1778 C 180.813 -0.0497823 -1.60723 0
M  V30 1779 O 182.003 -0.294654 -1.7169 0
M  V30 1780 C 179.135 -0.687164 -3.33902 0
M  V30 1781 H 180.328 -2.06817 -2.17179 0
M  V30 1782 H 177.881 -1.10473 -1.10569 0
M  V30 1783 H 178.616 0.275439 -3.23128 0
M  V30 1784 H 178.401 -1.45061 -3.6428 0
M  V30 1785 H 179.891 -0.590853 -4.13399 0
M  V30 1786 N 180.328 1.1314 -1.09713 0
M  V30 1787 C 181.576 1.84119 -0.833338 0
M  V30 1788 C 181.897 1.84097 0.642904 0
M  V30 1789 O 181.167 1.29881 1.46655 0
M  V30 1790 H 179.747 0.681766 -0.305293 0
M  V30 1791 H 182.409 1.37038 -1.38588 0
M  V30 1792 H 181.505 2.88543 -1.18951 0
M  V30 1793 N 181.806 0.884767 1.30421 0
M  V30 1794 C 183.031 0.517288 2.00845 0
M  V30 1795 C 183.456 -0.886779 1.65885 0
M  V30 1796 O 182.814 -1.58768 0.875354 0
M  V30 1797 C 182.862 0.698994 3.5376 0
M  V30 1798 O 181.966 -0.255208 4.1161 0
M  V30 1799 H 181.307 0.203872 0.631927 0
M  V30 1800 H 183.837 1.19225 1.66272 0
M  V30 1801 H 183.847 0.597912 4.03595 0
M  V30 1802 H 182.522 1.72271 3.78544 0
M  V30 1803 H 181.099 -0.10784 3.72744 0
M  V30 1804 N 183.284 -1.43765 0.645699 0
M  V30 1805 C 184.214 -2.33471 -0.0370477 0
M  V30 1806 C 185.195 -1.49042 -0.819779 0
M  V30 1807 O 186.38 -1.77726 -0.782758 0
M  V30 1808 C 183.51 -3.32311 -1.0093 0
M  V30 1809 C 182.464 -4.2667 -0.337201 0
M  V30 1810 C 181.79 -5.1549 -1.42037 0
M  V30 1811 C 183.09 -5.16657 0.765706 0
M  V30 1812 H 184.784 -2.90809 0.712069 0
M  V30 1813 H 182.33 -1.39834 0.343876 0
M  V30 1814 H 184.283 -3.9396 -1.49578 0
M  V30 1815 H 183.007 -2.73213 -1.78948 0
M  V30 1816 H 181.666 -3.66374 0.128771 0
M  V30 1817 H 181.314 -4.52735 -2.1918 0
M  V30 1818 H 181.014 -5.79438 -0.975966 0
M  V30 1819 H 182.538 -5.80012 -1.90838 0
M  V30 1820 H 183.952 -5.72158 0.361702 0
M  V30 1821 H 182.349 -5.89286 1.13413 0
M  V30 1822 H 183.419 -4.56796 1.62683 0
M  V30 1823 N 184.763 -0.387143 -1.52771 0
M  V30 1824 C 186.009 0.196025 -2.0185 0
M  V30 1825 C 186.342 1.46641 -1.27319 0
M  V30 1826 O 185.617 1.90889 -0.373032 0
M  V30 1827 C 185.9 0.466136 -3.5707 0
M  V30 1828 C 185.753 -0.819385 -4.42274 0
M  V30 1829 C 187.072 1.25768 -4.21747 0
M  V30 1830 H 184.191 0.0697708 -0.73369 0
M  V30 1831 H 186.833 -0.516286 -1.82851 0
M  V30 1832 H 184.983 1.07293 -3.7339 0
M  V30 1833 H 186.655 -1.4563 -4.37709 0
M  V30 1834 H 184.898 -1.43517 -4.09372 0
M  V30 1835 H 185.569 -0.585065 -5.48891 0
M  V30 1836 H 188.045 0.744167 -4.09391 0
M  V30 1837 H 186.921 1.41541 -5.30337 0
M  V30 1838 H 187.182 2.27228 -3.79236 0
M  V30 1839 N 186.241 1.57166 -0.116904 0
M  V30 1840 C 187.151 2.18745 0.847812 0
M  V30 1841 C 188.167 1.163 1.29423 0
M  V30 1842 O 189.343 1.48761 1.35765 0
M  V30 1843 C 186.408 2.77307 2.0809 0
M  V30 1844 C 185.469 3.94781 1.68661 0
M  V30 1845 C 184.702 4.50541 2.86091 0
M  V30 1846 O 184.925 4.05202 4.01456 0
M  V30 1847 O 183.859 5.41256 2.63298 0
M  V30 1848 H 187.685 3.01632 0.353778 0
M  V30 1849 H 185.27 1.49005 0.108599 0
M  V30 1850 H 187.152 3.14647 2.80313 0
M  V30 1851 H 185.827 1.97452 2.56504 0
M  V30 1852 H 184.734 3.62214 0.935518 0
M  V30 1853 H 186.067 4.76065 1.24991 0
M  V30 1854 N 187.719 -0.156864 1.56817 0
M  V30 1855 C 188.652 -1.22316 1.9265 0
M  V30 1856 C 189.63 -1.42059 0.791076 0
M  V30 1857 O 190.814 -1.56831 1.04576 0
M  V30 1858 C 187.941 -2.58375 2.18998 0
M  V30 1859 C 186.987 -2.55284 3.41661 0
M  V30 1860 S 187.82 -2.02946 4.95553 0
M  V30 1861 C 188.976 -3.40753 5.25013 0
M  V30 1862 H 189.209 -0.917403 2.82791 0
M  V30 1863 H 186.742 -0.362059 1.50095 0
M  V30 1864 H 188.7 -3.36677 2.34859 0
M  V30 1865 H 187.361 -2.86145 1.29538 0
M  V30 1866 H 186.554 -3.55418 3.57343 0
M  V30 1867 H 186.156 -1.85086 3.24991 0
M  V30 1868 H 188.448 -4.36819 5.17876 0
M  V30 1869 H 189.391 -3.29933 6.26538 0
M  V30 1870 H 189.799 -3.37433 4.52548 0
M  V30 1871 N 189.197 -1.51736 -0.425897 0
M  V30 1872 C 190.422 -1.69082 -1.20108 0
M  V30 1873 C 190.847 -0.392398 -1.83962 0
M  V30 1874 O 190.205 0.64858 -1.69302 0
M  V30 1875 C 190.253 -2.81604 -2.25237 0
M  V30 1876 O 189.357 -2.46004 -3.30992 0
M  V30 1877 H 188.698 -0.563408 -0.35138 0
M  V30 1878 H 191.228 -1.98358 -0.501512 0
M  V30 1879 H 191.238 -3.06025 -2.69838 0
M  V30 1880 H 189.913 -3.75817 -1.78142 0
M  V30 1881 H 188.49 -2.32195 -2.91787 0
M  V30 1882 N 190.675 0.682077 -1.42076 0
M  V30 1883 C 191.605 1.80796 -1.47767 0
M  V30 1884 C 192.586 1.6677 -0.334954 0
M  V30 1885 O 193.771 1.863 -0.548264 0
M  V30 1886 C 190.901 3.19038 -1.37229 0
M  V30 1887 C 189.855 3.47789 -2.49453 0
M  V30 1888 C 189.181 4.8553 -2.23975 0
M  V30 1889 C 190.481 3.45411 -3.91776 0
M  V30 1890 H 192.175 1.7629 -2.41997 0
M  V30 1891 H 189.721 0.846721 -1.16476 0
M  V30 1892 H 191.674 3.97528 -1.39821 0
M  V30 1893 H 190.398 3.24204 -0.394907 0
M  V30 1894 H 189.057 2.71657 -2.46166 0
M  V30 1895 H 188.705 4.87337 -1.24547 0
M  V30 1896 H 188.405 5.0573 -2.99184 0
M  V30 1897 H 189.929 5.66312 -2.28304 0
M  V30 1898 H 191.343 4.13882 -3.96705 0
M  V30 1899 H 189.74 3.77145 -4.66778 0
M  V30 1900 H 190.81 2.44122 -4.18966 0
M  V30 1901 N 192.153 1.28127 0.917671 0
M  V30 1902 C 193.401 1.14825 1.66312 0
M  V30 1903 C 193.722 -0.304379 1.9261 0
M  V30 1904 O 192.992 -1.21149 1.53947 0
M  V30 1905 H 191.572 0.421953 0.616413 0
M  V30 1906 H 194.234 1.608 1.10134 0
M  V30 1907 H 193.33 1.68489 2.62712 0
M  V30 1908 N 193.631 -1.12557 1.10312 0
M  V30 1909 C 194.561 -2.20341 0.772798 0
M  V30 1910 C 195.542 -1.68198 -0.25365 0
M  V30 1911 O 196.727 -1.93831 -0.119699 0
M  V30 1912 C 193.857 -3.46709 0.202443 0
M  V30 1913 C 192.811 -4.11996 1.15943 0
M  V30 1914 C 192.137 -5.328 0.450345 0
M  V30 1915 C 193.437 -4.5828 2.50552 0
M  V30 1916 H 195.131 -2.48229 1.674 0
M  V30 1917 H 192.677 -1.19308 0.806326 0
M  V30 1918 H 194.63 -4.2138 -0.0407752 0
M  V30 1919 H 193.354 -3.18245 -0.734001 0
M  V30 1920 H 192.013 -3.39305 1.38808 0
M  V30 1921 H 191.661 -5.00602 -0.490531 0
M  V30 1922 H 191.361 -5.7743 1.08851 0
M  V30 1923 H 192.885 -6.10219 0.215642 0
M  V30 1924 H 194.299 -5.2433 2.31843 0
M  V30 1925 H 192.696 -5.13683 3.10242 0
M  V30 1926 H 193.766 -3.72329 3.10643 0
M  V30 1927 N 195.109 -0.891671 -1.2995 0
M  V30 1928 C 196.072 -0.36828 -2.26222 0
M  V30 1929 C 197.072 0.493014 -1.53056 0
M  V30 1930 O 198.262 0.299213 -1.71611 0
M  V30 1931 C 195.394 0.47442 -3.37583 0
M  V30 1932 H 196.587 -1.21844 -2.74033 0
M  V30 1933 H 194.14 -0.669107 -1.41254 0
M  V30 1934 H 194.875 1.34489 -2.95099 0
M  V30 1935 H 194.66 -0.142615 -3.91841 0
M  V30 1936 H 196.15 0.83218 -4.09224 0
M  V30 1937 N 196.587 1.43421 -0.653314 0
M  V30 1938 C 197.833 2.02111 -0.166992 0
M  V30 1939 C 198.166 1.51423 1.21592 0
M  V30 1940 O 197.441 0.707389 1.8118 0
M  V30 1941 C 197.724 3.5966 -0.177948 0
M  V30 1942 C 197.577 4.20579 -1.59478 0
M  V30 1943 C 198.896 4.37413 0.4856 0
M  V30 1944 H 196.015 0.734374 -0.0621557 0
M  V30 1945 H 198.657 1.70717 -0.834016 0
M  V30 1946 H 196.807 3.86537 0.390032 0
M  V30 1947 H 198.479 4.04732 -2.21336 0
M  V30 1948 H 196.722 3.77226 -2.14204 0
M  V30 1949 H 197.393 5.29665 -1.5543 0
M  V30 1950 H 199.869 4.161 0.00234528 0
M  V30 1951 H 198.745 5.47075 0.447207 0
M  V30 1952 H 199.006 4.13672 1.55974 0
M  V30 1953 N 198.065 0.39524 1.52563 0
M  V30 1954 C 199.313 -0.184678 2.01254 0
M  V30 1955 C 199.634 -1.46822 1.28329 0
M  V30 1956 O 198.904 -1.91666 0.405094 0
M  V30 1957 H 197.484 -0.0712355 0.743596 0
M  V30 1958 H 200.146 0.528293 1.87603 0
M  V30 1959 H 199.242 -0.390681 3.09645 0
M  V30 1960 N 199.544 -1.57102 0.125237 0
M  V30 1961 C 200.507 -2.14471 -0.80838 0
M  V30 1962 C 201.507 -1.0811 -1.19033 0
M  V30 1963 O 202.697 -1.33856 -1.11482 0
M  V30 1964 C 199.829 -2.69005 -2.09402 0
M  V30 1965 H 201.022 -2.98297 -0.309696 0
M  V30 1966 H 198.575 -1.55807 -0.124051 0
M  V30 1967 H 199.31 -1.88785 -2.63687 0
M  V30 1968 H 199.095 -3.46799 -1.82957 0
M  V30 1969 H 200.585 -3.13278 -2.76128 0
M  V30 1970 N 201.022 0.148545 -1.56898 0
M  V30 1971 C 202.271 0.85984 -1.82454 0
M  V30 1972 C 202.584 1.82406 -0.706229 0
M  V30 1973 O 203.79 2.57938 -0.847349 0
M  V30 1974 C 202.246 1.57967 -3.2338 0
M  V30 1975 C 201.854 0.65794 -4.43142 0
M  V30 1976 C 203.598 2.27784 -3.58211 0
M  V30 1977 C 201.505 1.3793 -5.75091 0
M  V30 1978 H 200.435 0.324834 -0.68044 0
M  V30 1979 H 203.086 0.112588 -1.83154 0
M  V30 1980 H 201.468 2.37249 -3.17063 0
M  V30 1981 H 202.642 -0.0995497 -4.60692 0
M  V30 1982 H 200.957 0.0682643 -4.16344 0
M  V30 1983 H 203.554 2.8239 -4.54048 0
M  V30 1984 H 203.897 3.04204 -2.84193 0
M  V30 1985 H 204.43 1.55421 -3.66182 0
M  V30 1986 H 201.169 0.656982 -6.52199 0
M  V30 1987 H 200.689 2.10954 -5.61479 0
M  V30 1988 H 202.368 1.92063 -6.17835 0
M  V30 1989 N 202.5 1.5196 0.417844 0
M  V30 1990 C 203.728 1.69426 1.18753 0
M  V30 1991 C 204.143 0.399955 1.84515 0
M  V30 1992 O 203.5 -0.623288 1.71527 0
M  V30 1993 C 203.551 2.82375 2.25714 0
M  V30 1994 O 203.272 4.06793 1.62638 0
M  V30 1995 C 204.773 3.11277 3.15628 0
M  V30 1996 H 201.993 0.568031 0.357186 0
M  V30 1997 H 204.537 1.98475 0.49273 0
M  V30 1998 H 202.692 2.5587 2.90877 0
M  V30 1999 H 203.106 4.69667 2.3348 0
M  V30 2000 H 204.58 3.93843 3.86771 0
M  V30 2001 H 205.057 2.24473 3.77503 0
M  V30 2002 H 205.663 3.39515 2.56144 0
M  V30 2003 N 203.978 -0.674533 1.42435 0
M  V30 2004 C 205.225 -1.43459 1.42919 0
M  V30 2005 C 205.553 -1.94446 0.0457312 0
M  V30 2006 O 204.808 -1.7132 -0.94593 0
M  V30 2007 C 205.107 -2.64767 2.40069 0
M  V30 2008 C 204.773 -2.3232 3.86443 0
M  V30 2009 C 203.435 -2.23182 4.26314 0
M  V30 2010 C 205.787 -2.05977 4.78773 0
M  V30 2011 C 203.115 -1.85827 5.56494 0
M  V30 2012 C 205.467 -1.70125 6.09295 0
M  V30 2013 C 204.131 -1.59498 6.48164 0
M  V30 2014 H 203.401 -0.524952 0.522978 0
M  V30 2015 H 206.048 -0.769097 1.75377 0
M  V30 2016 H 204.353 -3.36349 2.00939 0
M  V30 2017 H 206.05 -3.22949 2.37707 0
M  V30 2018 H 202.64 -2.40334 3.54877 0
M  V30 2019 H 206.824 -2.11969 4.48757 0
M  V30 2020 H 202.08 -1.76168 5.8547 0
M  V30 2021 H 206.254 -1.48767 6.80324 0
M  V30 2022 H 203.881 -1.30322 7.48946 0
M  V30 2023 N 205.456 -1.28612 -0.910864 0
M  V30 2024 C 206.681 -1.1891 -1.69927 0
M  V30 2025 C 207.106 0.248372 -1.86453 0
M  V30 2026 O 206.464 1.17961 -1.37676 0
M  V30 2027 C 206.512 -1.89578 -3.06745 0
M  V30 2028 O 205.616 -1.20521 -3.94396 0
M  V30 2029 H 204.957 -0.412632 -0.520222 0
M  V30 2030 H 207.487 -1.69985 -1.1387 0
M  V30 2031 H 207.497 -1.97597 -3.56958 0
M  V30 2032 H 206.172 -2.94136 -2.94035 0
M  V30 2033 H 204.749 -1.20684 -3.52831 0
M  V30 2034 N 206.934 1.1197 -1.10907 0
M  V30 2035 C 208.182 1.83225 -0.852819 0
M  V30 2036 C 208.503 1.84769 0.623341 0
M  V30 2037 O 207.773 1.3143 1.45269 0
M  V30 2038 H 206.353 0.67849 -0.312507 0
M  V30 2039 H 209.015 1.3556 -1.40033 0
M  V30 2040 H 208.111 2.87265 -1.22005 0
M  V30 2041 N 208.412 0.89855 1.29475 0
M  V30 2042 C 209.637 0.538561 2.00285 0
M  V30 2043 C 210.062 -0.869135 1.66816 0
M  V30 2044 O 209.42 -1.57831 0.892145 0
M  V30 2045 C 209.468 0.736475 3.52999 0
M  V30 2046 O 208.572 -0.211537 4.11857 0
M  V30 2047 H 207.913 0.210563 0.62973 0
M  V30 2048 H 210.443 1.20982 1.64998 0
M  V30 2049 H 210.453 0.640685 4.02938 0
M  V30 2050 H 209.128 1.76276 3.76696 0
M  V30 2051 H 207.705 -0.0682991 3.72837 0
M  V30 2052 N 209.89 -1.43072 0.660911 0
M  V30 2053 C 211.136 -2.0202 0.177708 0
M  V30 2054 C 211.469 -1.52066 -1.20787 0
M  V30 2055 O 210.744 -0.716987 -1.80802 0
M  V30 2056 C 211.027 -3.59561 0.197019 0
M  V30 2057 C 210.88 -4.19727 1.61706 0
M  V30 2058 C 212.199 -4.37664 -0.462396 0
M  V30 2059 H 209.318 -0.734034 0.0660494 0
M  V30 2060 H 211.96 -1.70272 0.843058 0
M  V30 2061 H 210.11 -3.86739 -0.369527 0
M  V30 2062 H 211.782 -4.03553 2.23479 0
M  V30 2063 H 210.025 -3.76084 2.16201 0
M  V30 2064 H 210.696 -5.28834 1.58237 0
M  V30 2065 H 213.172 -4.16095 0.0197215 0
M  V30 2066 H 212.048 -5.47305 -0.418188 0
M  V30 2067 H 212.309 -4.14493 -1.53778 0
M  V30 2068 N 211.368 -0.403325 -1.52352 0
M  V30 2069 C 212.617 0.175668 -2.00934 0
M  V30 2070 C 212.93 1.46718 -1.29356 0
M  V30 2071 O 214.136 2.12708 -1.68724 0
M  V30 2072 C 212.592 0.363612 -3.58058 0
M  V30 2073 C 212.2 -0.915472 -4.38547 0
M  V30 2074 C 213.944 0.89821 -4.14888 0
M  V30 2075 C 211.851 -0.695035 -5.87302 0
M  V30 2076 H 210.781 0.0694234 -0.750797 0
M  V30 2077 H 213.432 -0.527879 -1.75743 0
M  V30 2078 H 211.814 1.12935 -3.79555 0
M  V30 2079 H 212.988 -1.68691 -4.28812 0
M  V30 2080 H 211.303 -1.37606 -3.93006 0
M  V30 2081 H 213.9 1.07907 -5.23699 0
M  V30 2082 H 214.243 1.87126 -3.71873 0
M  V30 2083 H 214.776 0.191681 -3.97338 0
M  V30 2084 H 211.515 -1.63948 -6.34666 0
M  V30 2085 H 211.035 0.0372116 -5.99788 0
M  V30 2086 H 212.714 -0.33497 -6.46132 0
M  V30 2087 N 212.846 1.57033 -0.133567 0
M  V30 2088 C 213.809 2.14897 0.796995 0
M  V30 2089 C 214.809 1.0874 1.18458 0
M  V30 2090 O 215.999 1.34446 1.1077 0
M  V30 2091 C 213.131 2.70112 2.07973 0
M  V30 2092 H 214.324 2.98457 0.293873 0
M  V30 2093 H 211.877 1.55871 0.115787 0
M  V30 2094 H 212.612 1.9018 2.62682 0
M  V30 2095 H 212.397 3.47764 1.81115 0
M  V30 2096 H 213.887 3.14738 2.74462 0
M  V30 2097 N 214.325 -0.140222 1.56975 0
M  V30 2098 C 215.572 -0.851687 1.83719 0
M  V30 2099 C 215.9 -1.80862 0.715485 0
M  V30 2100 O 215.155 -1.93464 -0.294956 0
M  V30 2101 C 215.454 -1.65386 3.16832 0
M  V30 2102 C 215.12 -0.843112 4.42947 0
M  V30 2103 C 213.782 -0.619464 4.77196 0
M  V30 2104 C 216.134 -0.276582 5.20466 0
M  V30 2105 C 213.462 0.181312 5.8642 0
M  V30 2106 C 215.814 0.51127 6.30531 0
M  V30 2107 C 214.478 0.745432 6.63325 0
M  V30 2108 H 213.748 -0.311654 0.672274 0
M  V30 2109 H 216.395 -0.115006 1.91154 0
M  V30 2110 H 214.7 -2.46084 3.04877 0
M  V30 2111 H 216.397 -2.20793 3.34741 0
M  V30 2112 H 212.987 -1.0275 4.16101 0
M  V30 2113 H 217.171 -0.436632 4.94376 0
M  V30 2114 H 212.427 0.372165 6.10266 0
M  V30 2115 H 216.601 0.957354 6.89788 0
M  V30 2116 H 214.228 1.36778 7.47794 0
M  V30 2117 N 215.803 -1.52179 -0.40978 0
M  V30 2118 C 217.051 -1.65878 -1.15451 0
M  V30 2119 C 217.372 -0.390771 -1.91044 0
M  V30 2120 O 216.642 0.594323 -1.86667 0
M  V30 2121 H 215.222 -0.611405 -0.429177 0
M  V30 2122 H 217.884 -1.89219 -0.467134 0
M  V30 2123 H 216.98 -2.49954 -1.86894 0
M  V30 2124 N 217.281 0.66697 -1.42791 0
M  V30 2125 C 218.228 1.7803 -1.4688 0
M  V30 2126 C 219.198 1.6299 -0.319919 0
M  V30 2127 O 220.383 1.83432 -0.525118 0
M  V30 2128 C 217.523 3.1611 -1.38451 0
M  V30 2129 C 216.636 3.42381 -2.63437 0
M  V30 2130 C 215.771 4.70232 -2.47094 0
M  V30 2131 C 214.81 4.89564 -3.67415 0
M  V30 2132 N 213.947 6.08661 -3.49966 0
M  V30 2133 H 218.787 1.7387 -2.42019 0
M  V30 2134 H 216.324 0.84868 -1.20149 0
M  V30 2135 H 218.282 3.95914 -1.31561 0
M  V30 2136 H 216.912 3.19374 -0.469033 0
M  V30 2137 H 215.964 2.56774 -2.80662 0
M  V30 2138 H 217.276 3.52557 -3.52853 0
M  V30 2139 H 216.43 5.5814 -2.37834 0
M  V30 2140 H 215.169 4.62353 -1.5518 0
M  V30 2141 H 214.174 4.00096 -3.77099 0
M  V30 2142 H 215.399 4.99282 -4.6032 0
M  V30 2143 H 213.345 6.0194 -2.60776 0
M  V30 2144 H 213.262 6.19733 -4.32975 0
M  V30 2145 H 214.53 6.99226 -3.44532 0
M  V30 2146 N 218.759 1.29093 0.90403 0
M  V30 2147 C 219.689 1.16401 2.02418 0
M  V30 2148 C 220.67 0.0593085 1.69997 0
M  V30 2149 O 221.855 0.238021 1.92736 0
M  V30 2150 C 218.985 0.835233 3.37107 0
M  V30 2151 C 217.939 1.89578 3.83724 0
M  V30 2152 C 217.265 1.42041 5.15489 0
M  V30 2153 C 218.565 3.30394 4.04521 0
M  V30 2154 H 220.259 2.10109 2.13295 0
M  V30 2155 H 217.805 1.01157 1.02486 0
M  V30 2156 H 219.758 0.733169 4.14973 0
M  V30 2157 H 218.482 -0.137543 3.2631 0
M  V30 2158 H 217.141 1.98715 3.08071 0
M  V30 2159 H 216.789 0.436426 5.01103 0
M  V30 2160 H 216.489 2.12964 5.4765 0
M  V30 2161 H 218.013 1.33176 5.959 0
M  V30 2162 H 219.427 3.24123 4.72882 0
M  V30 2163 H 217.824 3.99237 4.48029 0
M  V30 2164 H 218.894 3.73692 3.09002 0
M  V30 2165 N 220.237 -1.11381 1.11499 0
M  V30 2166 C 221.169 -2.17207 0.731704 0
M  V30 2167 C 222.182 -1.61066 -0.236957 0
M  V30 2168 O 223.371 -1.78489 -0.0197591 0
M  V30 2169 C 220.471 -3.38846 0.0607624 0
M  V30 2170 C 219.644 -4.24451 1.0564 0
M  V30 2171 C 218.703 -5.24562 0.4149 0
M  V30 2172 O 217.729 -5.59071 1.069 0
M  V30 2173 N 218.931 -5.74651 -0.821943 0
M  V30 2174 H 221.696 -2.50699 1.64225 0
M  V30 2175 H 219.257 -1.26908 1.00529 0
M  V30 2176 H 221.249 -4.02911 -0.380139 0
M  V30 2177 H 219.819 -3.03411 -0.752376 0
M  V30 2178 H 219.039 -3.56833 1.67524 0
M  V30 2179 H 220.327 -4.78486 1.72998 0
M  V30 2180 H 219.725 -5.48797 -1.37252 0
M  V30 2181 H 218.282 -6.40549 -1.20582 0
M  V30 2182 N 221.715 -0.905404 -1.28997 0
M  V30 2183 C 222.963 -0.533192 -1.9494 0
M  V30 2184 C 223.284 0.924618 -1.71685 0
M  V30 2185 O 222.554 1.65268 -1.05183 0
M  V30 2186 H 221.134 -0.194194 -0.721317 0
M  V30 2187 H 223.796 -1.15294 -1.57141 0
M  V30 2188 H 222.892 -0.72059 -3.03667 0
M  V30 2189 N 223.193 1.4272 -0.668489 0
M  V30 2190 C 224.123 2.335 -0.000100175 0
M  V30 2191 C 225.104 1.50328 0.795964 0
M  V30 2192 O 226.289 1.78949 0.754385 0
M  V30 2193 C 223.419 3.33874 0.956302 0
M  V30 2194 C 222.373 4.27152 0.269278 0
M  V30 2195 C 221.699 5.17684 1.33818 0
M  V30 2196 C 222.999 5.15373 -0.847805 0
M  V30 2197 H 224.693 2.89639 -0.758244 0
M  V30 2198 H 222.239 1.39269 -0.366079 0
M  V30 2199 H 224.192 3.9629 1.43292 0
M  V30 2200 H 222.916 2.76025 1.74579 0
M  V30 2201 H 221.575 3.66123 -0.187042 0
M  V30 2202 H 221.223 4.56165 2.1195 0
M  V30 2203 H 220.923 5.80918 0.883659 0
M  V30 2204 H 222.447 5.82974 1.81586 0
M  V30 2205 H 223.861 5.7151 -0.452681 0
M  V30 2206 H 222.258 5.87407 -1.22773 0
M  V30 2207 H 223.328 4.5415 -1.69929 0
M  V30 2208 N 224.671 0.411399 1.52136 0
M  V30 2209 C 225.92 -0.165009 2.01024 0
M  V30 2210 C 226.233 -1.4603 1.30133 0
M  V30 2211 O 227.439 -2.1181 1.69849 0
M  V30 2212 C 225.895 -0.344618 3.58246 0
M  V30 2213 C 225.503 0.938716 4.38055 0
M  V30 2214 C 227.247 -0.876195 4.15359 0
M  V30 2215 C 225.154 0.726172 5.86925 0
M  V30 2216 H 224.084 -0.0654407 0.751155 0
M  V30 2217 H 226.735 0.537192 1.75461 0
M  V30 2218 H 225.117 -1.10921 3.80148 0
M  V30 2219 H 226.291 1.70963 4.27912 0
M  V30 2220 H 224.606 1.39688 3.92271 0
M  V30 2221 H 227.203 -1.05128 5.24263 0
M  V30 2222 H 227.546 -1.85152 3.7286 0
M  V30 2223 H 228.079 -0.170607 3.97434 0
M  V30 2224 H 224.818 1.67312 6.33788 0
M  V30 2225 H 224.338 -0.00540283 5.998 0
M  V30 2226 H 226.017 0.369231 6.45946 0
M  V30 2227 N 226.149 -1.5696 0.141893 0
M  V30 2228 C 227.112 -2.15316 -0.785587 0
M  V30 2229 C 228.112 -1.09366 -1.1788 0
M  V30 2230 O 229.302 -1.35031 -1.10056 0
M  V30 2231 C 226.434 -2.71211 -2.06537 0
M  V30 2232 H 227.627 -2.98608 -0.278041 0
M  V30 2233 H 225.18 -1.5593 -0.107519 0
M  V30 2234 H 225.915 -1.91571 -2.6167 0
M  V30 2235 H 225.7 -3.4872 -1.79268 0
M  V30 2236 H 227.19 -3.16189 -2.72789 0
M  V30 2237 N 227.627 0.131896 -1.57047 0
M  V30 2238 C 228.875 0.840269 -1.83804 0
M  V30 2239 C 229.196 1.81017 -0.72512 0
M  V30 2240 O 228.466 1.94272 0.251995 0
M  V30 2241 H 227.046 0.313294 -0.678127 0
M  V30 2242 H 229.708 0.122294 -1.94516 0
M  V30 2243 H 228.804 1.39335 -2.79271 0
M  V30 2244 N 229.106 1.52395 0.401703 0
M  V30 2245 C 230.053 1.76268 1.48991 0
M  V30 2246 C 231.023 0.605386 1.54675 0
M  V30 2247 O 232.208 0.843742 1.7113 0
M  V30 2248 C 229.348 1.92592 2.86361 0
M  V30 2249 C 228.461 3.20259 2.89928 0
M  V30 2250 C 227.596 3.26972 4.18644 0
M  V30 2251 C 226.635 4.48812 4.16214 0
M  V30 2252 N 225.772 4.52877 5.36514 0
M  V30 2253 H 230.612 2.6914 1.27935 0
M  V30 2254 H 228.149 1.33355 0.620871 0
M  V30 2255 H 230.107 2.0004 3.66115 0
M  V30 2256 H 228.737 1.03093 3.05895 0
M  V30 2257 H 227.789 3.21945 2.02621 0
M  V30 2258 H 229.101 4.10056 2.83999 0
M  V30 2259 H 228.255 3.33533 5.06794 0
M  V30 2260 H 226.994 2.35126 4.27278 0
M  V30 2261 H 225.999 4.4239 3.26453 0
M  V30 2262 H 227.224 5.41961 4.09213 0
M  V30 2263 H 225.17 3.63917 5.45802 0
M  V30 2264 H 225.087 5.36529 5.32609 0
M  V30 2265 H 226.355 4.63676 6.26597 0
M  V30 2266 N 230.584 -0.659388 1.43143 0
M  V30 2267 C 231.995 -1.24041 1.39537 0
M  V30 2268 C 232.346 -1.95963 0.0963364 0
M  V30 2269 O 231.471 -2.00892 -0.804438 0
M  V30 2270 C 232.066 -2.25601 2.52764 0
M  V30 2271 C 230.625 -2.79195 2.52443 0
M  V30 2272 C 229.772 -1.53743 2.30778 0
M  V30 2273 H 232.723 -0.451792 1.52133 0
M  V30 2274 H 232.744 -3.07651 2.23899 0
M  V30 2275 H 232.256 -1.73226 3.47296 0
M  V30 2276 H 230.357 -3.35649 1.61773 0
M  V30 2277 H 230.47 -3.2716 3.50004 0
M  V30 2278 H 228.834 -1.80869 1.79328 0
M  V30 2279 H 229.617 -1.03312 3.27386 0
M  V30 2280 N 232.062 -1.29571 -0.897171 0
M  V30 2281 C 233.308 -1.17863 -1.65034 0
M  V30 2282 C 233.641 0.268729 -1.92332 0
M  V30 2283 O 232.916 1.19378 -1.53555 0
M  V30 2284 C 233.199 -1.995 -2.99786 0
M  V30 2285 C 233.052 -3.5239 -2.79538 0
M  V30 2286 C 234.371 -1.82335 -4.00552 0
M  V30 2287 H 231.49 -0.429528 -0.598895 0
M  V30 2288 H 234.132 -1.59072 -1.03905 0
M  V30 2289 H 232.282 -1.64485 -3.51962 0
M  V30 2290 H 233.954 -3.97401 -2.34244 0
M  V30 2291 H 232.197 -3.77187 -2.14273 0
M  V30 2292 H 232.868 -4.04787 -3.75302 0
M  V30 2293 H 235.344 -2.12924 -3.57495 0
M  V30 2294 H 234.22 -2.41801 -4.92771 0
M  V30 2295 H 234.481 -0.779209 -4.35179 0
M  V30 2296 N 233.54 1.10788 -1.12088 0
M  V30 2297 C 234.768 1.86461 -0.896651 0
M  V30 2298 C 235.183 1.80492 0.553912 0
M  V30 2299 O 234.54 1.19102 1.38278 0
M  V30 2300 C 234.591 3.35006 -1.35843 0
M  V30 2301 O 234.312 3.40866 -2.75213 0
M  V30 2302 C 235.813 4.27565 -1.1706 0
M  V30 2303 H 233.033 0.589425 -0.320654 0
M  V30 2304 H 235.577 1.40076 -1.48993 0
M  V30 2305 H 233.732 3.7887 -0.808458 0
M  V30 2306 H 234.146 4.33411 -2.9539 0
M  V30 2307 H 235.62 5.30007 -1.54263 0
M  V30 2308 H 236.097 4.3906 -0.110814 0
M  V30 2309 H 236.703 3.89501 -1.70789 0
M  V30 2310 N 235.018 0.912232 1.28515 0
M  V30 2311 C 236.265 0.544599 1.95039 0
M  V30 2312 C 236.593 -0.911435 1.71823 0
M  V30 2313 O 235.848 -1.66317 1.03137 0
M  V30 2314 C 236.147 0.798392 3.48368 0
M  V30 2315 C 235.813 2.23374 3.91682 0
M  V30 2316 C 234.475 2.62617 4.03219 0
M  V30 2317 C 236.827 3.16786 4.13879 0
M  V30 2318 C 234.155 3.94429 4.3433 0
M  V30 2319 C 236.507 4.48161 4.46469 0
M  V30 2320 C 235.171 4.8726 4.56217 0
M  V30 2321 H 234.441 0.199283 0.7137 0
M  V30 2322 H 237.088 1.15327 1.52879 0
M  V30 2323 H 235.393 0.106908 3.91654 0
M  V30 2324 H 237.09 0.493141 3.97956 0
M  V30 2325 H 233.68 1.91922 3.83228 0
M  V30 2326 H 237.864 2.87677 4.0442 0
M  V30 2327 H 233.12 4.24426 4.40082 0
M  V30 2328 H 237.294 5.20559 4.62592 0
M  V30 2329 H 234.921 5.89431 4.80078 0
M  V30 2330 N 236.496 -1.42363 0.676048 0
M  V30 2331 C 237.907 -1.84649 0.275948 0
M  V30 2332 C 238.258 -1.56588 -1.18214 0
M  V30 2333 O 237.383 -1.02634 -1.90513 0
M  V30 2334 C 237.978 -3.35178 0.494053 0
M  V30 2335 C 236.537 -3.76109 0.148061 0
M  V30 2336 C 235.684 -2.65931 0.785891 0
M  V30 2337 H 238.635 -1.32192 0.878121 0
M  V30 2338 H 238.656 -3.79655 -0.25343 0
M  V30 2339 H 238.168 -3.55571 1.55535 0
M  V30 2340 H 236.269 -3.61323 -0.909742 0
M  V30 2341 H 236.382 -4.7546 0.589454 0
M  V30 2342 H 234.746 -2.53773 0.217113 0
M  V30 2343 H 235.529 -2.89146 1.85067 0
M  V30 2344 N 237.974 -0.419461 -1.51915 0
M  V30 2345 C 238.907 0.445751 -2.23804 0
M  V30 2346 C 239.885 1.03951 -1.25031 0
M  V30 2347 O 241.069 1.08541 -1.54114 0
M  V30 2348 C 238.196 1.61964 -2.97465 0
M  V30 2349 C 237.242 1.14828 -4.10751 0
M  V30 2350 S 238.075 0.104938 -5.35397 0
M  V30 2351 C 239.231 1.28391 -6.1259 0
M  V30 2352 H 239.464 -0.164627 -2.96844 0
M  V30 2353 H 236.997 -0.203833 -1.53049 0
M  V30 2354 H 238.955 2.29271 -3.40507 0
M  V30 2355 H 237.616 2.20139 -2.24048 0
M  V30 2356 H 236.809 2.02561 -4.61503 0
M  V30 2357 H 236.411 0.553712 -3.69878 0
M  V30 2358 H 238.703 2.20563 -6.40592 0
M  V30 2359 H 239.646 0.816724 -7.03374 0
M  V30 2360 H 240.054 1.51439 -5.43807 0
M  V30 2361 N 239.452 1.56882 -0.150215 0
M  V30 2362 C 240.384 2.14057 0.819286 0
M  V30 2363 C 241.397 1.09082 1.20851 0
M  V30 2364 O 242.586 1.36347 1.15203 0
M  V30 2365 C 239.686 2.65102 2.11127 0
M  V30 2366 C 238.859 3.94511 1.88891 0
M  V30 2367 C 237.918 4.30834 3.02107 0
M  V30 2368 O 236.944 4.99099 2.73659 0
M  V30 2369 N 238.146 3.90676 4.29363 0
M  V30 2370 H 240.911 2.97871 0.330618 0
M  V30 2371 H 238.472 1.61866 0.0332538 0
M  V30 2372 H 240.464 2.86411 2.85921 0
M  V30 2373 H 239.034 1.85994 2.51247 0
M  V30 2374 H 238.254 3.81795 0.981152 0
M  V30 2375 H 239.542 4.7907 1.71376 0
M  V30 2376 H 238.94 3.35677 4.55343 0
M  V30 2377 H 237.497 4.1703 5.00928 0
M  V30 2378 N 240.93 -0.123565 1.57115 0
M  V30 2379 C 241.88 -1.1575 1.96433 0
M  V30 2380 C 242.864 -1.37313 0.838686 0
M  V30 2381 O 244.056 -1.38482 1.10235 0
M  V30 2382 C 241.185 -2.48526 2.36833 0
M  V30 2383 C 240.271 -2.30457 3.5602 0
M  V30 2384 N 240.662 -1.8219 4.71848 0
M  V30 2385 C 238.96 -2.61129 3.61563 0
M  V30 2386 C 239.661 -1.77721 5.53886 0
M  V30 2387 N 238.637 -2.21899 4.96248 0
M  V30 2388 H 242.439 -0.776797 2.83449 0
M  V30 2389 H 239.953 -0.331364 1.58983 0
M  V30 2390 H 241.95 -3.233 2.63216 0
M  V30 2391 H 240.61 -2.87358 1.5118 0
M  V30 2392 H 241.621 -1.51805 4.95152 0
M  V30 2393 H 238.298 -3.03678 2.86507 0
M  V30 2394 H 239.688 -1.41697 6.56789 0
M  V30 2395 N 242.408 -1.52605 -0.393616 0
M  V30 2396 C 243.819 -1.59417 -0.971761 0
M  V30 2397 C 244.17 -0.444173 -1.91106 0
M  V30 2398 O 243.295 0.433382 -2.12016 0
M  V30 2399 C 243.89 -2.88936 -1.76921 0
M  V30 2400 C 242.449 -2.98175 -2.29714 0
M  V30 2401 C 241.596 -2.54491 -1.10135 0
M  V30 2402 H 244.547 -1.57751 -0.173317 0
M  V30 2403 H 244.568 -2.75163 -2.62804 0
M  V30 2404 H 244.08 -3.72616 -1.08532 0
M  V30 2405 H 242.181 -2.19024 -3.01429 0
M  V30 2406 H 242.294 -4.02726 -2.59517 0
M  V30 2407 H 240.658 -2.08702 -1.45999 0
M  V30 2408 H 241.441 -3.4056 -0.432874 0
M  V30 2409 N 243.887 0.651787 -1.4349 0
M  V30 2410 C 244.817 1.77621 -1.51569 0
M  V30 2411 C 245.798 1.66022 -0.370253 0
M  V30 2412 O 246.983 1.85095 -0.587658 0
M  V30 2413 C 244.113 3.16056 -1.43966 0
M  V30 2414 C 243.067 3.4242 -2.56774 0
M  V30 2415 C 242.393 4.8067 -2.34223 0
M  V30 2416 C 243.693 3.37023 -3.99015 0
M  V30 2417 H 245.387 1.71117 -2.45681 0
M  V30 2418 H 242.933 0.821825 -1.18246 0
M  V30 2419 H 244.886 3.94472 -1.48221 0
M  V30 2420 H 243.61 3.23293 -0.463586 0
M  V30 2421 H 242.269 2.66375 -2.51873 0
M  V30 2422 H 241.917 4.84585 -1.34856 0
M  V30 2423 H 241.617 4.9927 -3.09844 0
M  V30 2424 H 243.141 5.61342 -2.40265 0
M  V30 2425 H 244.555 4.05374 -4.05395 0
M  V30 2426 H 242.952 3.67159 -4.74673 0
M  V30 2427 H 244.022 2.3518 -4.2405 0
M  V30 2428 N 245.365 1.30045 0.890287 0
M  V30 2429 C 246.313 1.15873 2.01683 0
M  V30 2430 C 247.307 0.0719403 1.69247 0
M  V30 2431 O 248.513 0.232414 1.78493 0
M  V30 2432 H 244.888 0.358203 0.661207 0
M  V30 2433 H 246.859 2.11229 2.10772 0
M  V30 2434 C 245.608 0.861842 3.36849 0
M  V30 2435 H 244.931 1.69016 3.62317 0
M  V30 2436 H 246.371 0.802762 4.16331 0
M  V30 2437 C 244.83 -0.435132 3.34078 0
M  V30 2438 O 245.36 -1.4583 3.74295 0
M  V30 2439 N 243.566 -0.444377 2.87182 0
M  V30 2440 H 243.113 0.388723 2.5465 0
M  V30 2441 H 243.071 -1.31213 2.85711 0
M  V30 2442 N 246.843 -1.10192 1.12674 0
M  V30 2443 C 247.806 -2.14786 0.799979 0
M  V30 2444 C 248.806 -1.59711 -0.18685 0
M  V30 2445 O 249.996 -1.74156 0.0392558 0
M  V30 2446 C 247.128 -3.40374 0.189228 0
M  V30 2447 H 248.321 -2.45203 1.72671 0
M  V30 2448 H 245.874 -1.25597 0.930326 0
M  V30 2449 H 246.609 -3.15577 -0.747107 0
M  V30 2450 H 246.394 -3.81637 0.899766 0
M  V30 2451 H 247.884 -4.17594 -0.0228143 0
M  V30 2452 N 248.321 -0.919034 -1.28029 0
M  V30 2453 C 249.567 -0.555757 -1.95036 0
M  V30 2454 C 249.9 0.899198 -1.72128 0
M  V30 2455 O 249.175 1.64023 -1.04531 0
M  V30 2456 C 249.458 -0.872024 -3.49382 0
M  V30 2457 C 249.311 -2.3801 -3.81669 0
M  V30 2458 C 250.63 -0.37185 -4.38526 0
M  V30 2459 H 247.749 -0.203386 -0.708381 0
M  V30 2460 H 250.391 -1.14924 -1.51303 0
M  V30 2461 H 248.541 -0.366946 -3.86763 0
M  V30 2462 H 250.213 -2.9562 -3.54128 0
M  V30 2463 H 248.456 -2.83289 -3.28526 0
M  V30 2464 H 249.127 -2.55192 -4.8947 0
M  V30 2465 H 251.603 -0.804602 -4.08247 0
M  V30 2466 H 250.479 -0.622173 -5.45362 0
M  V30 2467 H 250.74 0.727934 -4.36066 0
M  V30 2468 N 249.799 1.42003 -0.683588 0
M  V30 2469 C 250.729 2.33487 -0.024866 0
M  V30 2470 C 251.71 1.51163 0.779975 0
M  V30 2471 O 252.895 1.79739 0.735362 0
M  V30 2472 C 250.025 3.3487 0.920836 0
M  V30 2473 C 248.979 4.27414 0.223958 0
M  V30 2474 C 248.305 5.19074 1.2832 0
M  V30 2475 C 249.605 5.14445 -0.90242 0
M  V30 2476 H 251.299 2.88819 -0.788921 0
M  V30 2477 H 248.845 1.38873 -0.38083 0
M  V30 2478 H 250.798 3.97787 1.39081 0
M  V30 2479 H 249.522 2.77861 1.71642 0
M  V30 2480 H 248.181 3.65904 -0.225864 0
M  V30 2481 H 247.829 4.58387 2.071 0
M  V30 2482 H 247.529 5.81822 0.821995 0
M  V30 2483 H 249.053 5.84867 1.75392 0
M  V30 2484 H 250.467 5.70998 -0.513272 0
M  V30 2485 H 248.864 5.86072 -1.28997 0
M  V30 2486 H 249.934 4.52322 -1.74737 0
M  V30 2487 N 251.277 0.427512 1.51691 0
M  V30 2488 C 252.525 -0.141948 2.01601 0
M  V30 2489 C 252.846 -1.44067 1.31414 0
M  V30 2490 O 252.116 -1.90763 0.445658 0
M  V30 2491 H 250.696 -0.0554468 0.744939 0
M  V30 2492 H 253.358 0.567968 1.86441 0
M  V30 2493 H 252.454 -0.324913 3.10404 0
M  V30 2494 N 252.755 -1.56801 0.158532 0
M  V30 2495 C 254.004 -1.95665 -0.489702 0
M  V30 2496 C 254.317 -1.04654 -1.65248 0
M  V30 2497 O 255.523 -1.33146 -2.3661 0
M  V30 2498 C 253.979 -3.47874 -0.922582 0
M  V30 2499 C 253.587 -4.47489 0.213893 0
M  V30 2500 C 255.331 -3.95583 -1.53996 0
M  V30 2501 C 253.238 -5.90921 -0.237903 0
M  V30 2502 H 252.168 -0.730516 -0.186716 0
M  V30 2503 H 254.819 -1.81861 0.244722 0
M  V30 2504 H 253.201 -3.57051 -1.71261 0
M  V30 2505 H 254.375 -4.50017 0.991036 0
M  V30 2506 H 252.69 -4.09764 0.740407 0
M  V30 2507 H 255.287 -5.0019 -1.8898 0
M  V30 2508 H 255.63 -3.37789 -2.43319 0
M  V30 2509 H 256.163 -3.8937 -0.814611 0
M  V30 2510 H 252.902 -6.52559 0.620236 0
M  V30 2511 H 252.422 -5.91729 -0.980676 0
M  V30 2512 H 254.101 -6.43352 -0.686067 0
M  V30 2513 N 254.233 0.115231 -1.57178 0
M  V30 2514 C 255.163 1.1423 -2.03651 0
M  V30 2515 C 256.144 1.42967 -0.921655 0
M  V30 2516 O 257.329 1.53343 -1.19162 0
M  V30 2517 C 254.459 2.4675 -2.44401 0
M  V30 2518 C 253.413 2.32467 -3.59365 0
M  V30 2519 C 252.739 3.69984 -3.86026 0
M  V30 2520 C 254.039 1.78203 -4.90959 0
M  V30 2521 H 255.733 0.755749 -2.89705 0
M  V30 2522 H 253.279 0.362093 -1.39373 0
M  V30 2523 H 255.232 3.18854 -2.75517 0
M  V30 2524 H 253.956 2.87302 -1.55322 0
M  V30 2525 H 252.615 1.62811 -3.28463 0
M  V30 2526 H 252.263 4.08028 -2.94147 0
M  V30 2527 H 251.963 3.61279 -4.63412 0
M  V30 2528 H 253.487 4.43587 -4.19599 0
M  V30 2529 H 254.901 2.40128 -5.20587 0
M  V30 2530 H 253.298 1.8031 -5.72371 0
M  V30 2531 H 254.368 0.739876 -4.79222 0
M  V30 2532 N 255.711 1.52812 0.385517 0
M  V30 2533 C 256.641 1.80808 1.47752 0
M  V30 2534 C 257.622 0.660318 1.5676 0
M  V30 2535 O 258.807 0.908246 1.71652 0
M  V30 2536 C 255.937 1.98008 2.85324 0
M  V30 2537 C 254.891 3.13709 2.91154 0
M  V30 2538 C 254.217 3.16169 4.31209 0
M  V30 2539 C 255.517 4.52709 2.60483 0
M  V30 2540 H 257.211 2.72253 1.24573 0
M  V30 2541 H 254.757 1.31003 0.597839 0
M  V30 2542 H 256.71 2.16176 3.61726 0
M  V30 2543 H 255.434 1.03255 3.09848 0
M  V30 2544 H 254.093 2.95329 2.17201 0
M  V30 2545 H 253.741 2.19092 4.52778 0
M  V30 2546 H 253.441 3.93894 4.36029 0
M  V30 2547 H 254.965 3.36496 5.09512 0
M  V30 2548 H 256.379 4.71173 3.26602 0
M  V30 2549 H 254.776 5.32528 2.76648 0
M  V30 2550 H 255.846 4.59186 1.55809 0
M  V30 2551 N 257.189 -0.644168 1.43834 0
M  V30 2552 C 258.435 -1.40603 1.46146 0
M  V30 2553 C 258.768 -1.93997 0.0887717 0
M  V30 2554 O 258.043 -1.72854 -0.891724 0
M  V30 2555 C 258.326 -2.58086 2.51124 0
M  V30 2556 C 258.179 -2.10126 3.97702 0
M  V30 2557 C 259.498 -3.60291 2.52742 0
M  V30 2558 H 256.617 -0.509905 0.532134 0
M  V30 2559 H 259.259 -0.729502 1.75437 0
M  V30 2560 H 257.409 -3.15801 2.26278 0
M  V30 2561 H 259.081 -1.57342 4.33637 0
M  V30 2562 H 257.324 -1.41419 4.10101 0
M  V30 2563 H 257.995 -2.94649 4.66783 0
M  V30 2564 H 260.471 -3.12352 2.7491 0
M  V30 2565 H 259.347 -4.40032 3.28121 0
M  V30 2566 H 259.608 -4.1349 1.56455 0
M  V30 2567 N 258.668 -1.30515 -0.883378 0
M  V30 2568 C 259.914 -1.19607 -1.63774 0
M  V30 2569 C 260.247 0.248314 -1.92606 0
M  V30 2570 O 259.522 1.17742 -1.54813 0
M  V30 2571 C 259.805 -2.02669 -2.97653 0
M  V30 2572 C 259.658 -3.55335 -2.75784 0
M  V30 2573 C 260.977 -1.86573 -3.98596 0
M  V30 2574 H 258.096 -0.435856 -0.594305 0
M  V30 2575 H 260.738 -1.60165 -1.02212 0
M  V30 2576 H 258.888 -1.68208 -3.50197 0
M  V30 2577 H 260.56 -3.99863 -2.30016 0
M  V30 2578 H 258.803 -3.79438 -2.1026 0
M  V30 2579 H 259.474 -4.08745 -3.70988 0
M  V30 2580 H 261.95 -2.16703 -3.55217 0
M  V30 2581 H 260.826 -2.47014 -4.90179 0
M  V30 2582 H 261.087 -0.825321 -4.34328 0
M  V30 2583 N 260.146 1.09593 -1.13257 0
M  V30 2584 C 261.076 2.18214 -0.830946 0
M  V30 2585 C 262.057 1.68812 0.208966 0
M  V30 2586 O 263.242 1.9408 0.0682666 0
M  V30 2587 C 260.372 3.46051 -0.294296 0
M  V30 2588 C 259.326 4.08778 -1.26826 0
M  V30 2589 C 258.652 5.31419 -0.591449 0
M  V30 2590 C 259.952 4.51476 -2.62615 0
M  V30 2591 H 261.646 2.43703 -1.73923 0
M  V30 2592 H 259.192 1.17128 -0.837675 0
M  V30 2593 H 261.145 4.2134 -0.0709606 0
M  V30 2594 H 259.869 3.20079 0.649366 0
M  V30 2595 H 258.528 3.35505 -1.47756 0
M  V30 2596 H 258.176 5.01727 0.357633 0
M  V30 2597 H 257.876 5.74341 -1.24123 0
M  V30 2598 H 259.4 6.09433 -0.377355 0
M  V30 2599 H 260.814 5.17999 -2.45663 0
M  V30 2600 H 259.211 5.05277 -3.23752 0
M  V30 2601 H 260.281 3.63962 -3.20406 0
M  V30 2602 N 261.624 0.925811 1.2754 0
M  V30 2603 C 262.554 0.440748 2.29303 0
M  V30 2604 C 263.535 -0.497971 1.62648 0
M  V30 2605 O 264.72 -0.403126 1.8997 0
M  V30 2606 C 261.85 -0.309048 3.45922 0
M  V30 2607 C 260.804 0.54166 4.24559 0
M  V30 2608 C 260.13 -0.337191 5.33636 0
M  V30 2609 C 261.43 1.80516 4.90114 0
M  V30 2610 H 263.124 1.29121 2.70126 0
M  V30 2611 H 260.67 0.622323 1.29858 0
M  V30 2612 H 262.623 -0.659315 4.1621 0
M  V30 2613 H 261.347 -1.19352 3.04011 0
M  V30 2614 H 260.006 0.874609 3.56014 0
M  V30 2615 H 259.654 -1.22056 4.87966 0
M  V30 2616 H 259.354 0.228497 5.87156 0
M  V30 2617 H 260.878 -0.683072 6.06767 0
M  V30 2618 H 262.292 1.52307 5.52698 0
M  V30 2619 H 260.689 2.3142 5.53683 0
M  V30 2620 H 261.759 2.52581 4.13921 0
M  V30 2621 N 263.102 -1.41638 0.69111 0
M  V30 2622 C 264.348 -2.01598 0.220519 0
M  V30 2623 C 264.681 -1.54594 -1.17535 0
M  V30 2624 O 263.956 -0.755177 -1.79241 0
M  V30 2625 C 264.239 -3.59062 0.273243 0
M  V30 2626 C 264.092 -4.16203 1.70573 0
M  V30 2627 C 265.411 -4.38546 -0.369457 0
M  V30 2628 H 262.53 -0.732468 0.0816045 0
M  V30 2629 H 265.172 -1.68445 0.878986 0
M  V30 2630 H 263.322 -3.87435 -0.287411 0
M  V30 2631 H 264.994 -3.98722 2.31989 0
M  V30 2632 H 263.237 -3.71414 2.2413 0
M  V30 2633 H 263.908 -5.25358 1.69419 0
M  V30 2634 H 266.384 -4.1596 0.107977 0
M  V30 2635 H 265.26 -5.48069 -0.302002 0
M  V30 2636 H 265.521 -4.17662 -1.44951 0
M  V30 2637 N 264.58 -0.43555 -1.51462 0
M  V30 2638 C 265.826 0.131709 -2.02372 0
M  V30 2639 C 266.159 1.42516 -1.3192 0
M  V30 2640 O 265.434 1.89606 -0.433573 0
M  V30 2641 C 265.717 0.352301 -3.58373 0
M  V30 2642 C 265.57 -0.959676 -4.39443 0
M  V30 2643 C 266.889 1.12286 -4.25535 0
M  V30 2644 H 264.008 0.0463936 -0.735538 0
M  V30 2645 H 266.65 -0.574197 -1.81116 0
M  V30 2646 H 264.8 0.9536 -3.76615 0
M  V30 2647 H 266.472 -1.59482 -4.32855 0
M  V30 2648 H 264.715 -1.56468 -4.04599 0
M  V30 2649 H 265.386 -0.759394 -5.46752 0
M  V30 2650 H 267.862 0.613545 -4.11552 0
M  V30 2651 H 266.738 1.24598 -5.34571 0
M  V30 2652 H 266.999 2.15048 -3.86273 0
M  V30 2653 N 266.058 1.56714 -0.166846 0
M  V30 2654 C 267.305 1.96747 0.479252 0
M  V30 2655 C 267.633 1.05263 1.63554 0
M  V30 2656 O 266.888 0.0858098 1.95512 0
M  V30 2657 C 267.187 3.42889 1.00806 0
M  V30 2658 C 266.853 4.50889 -0.0318574 0
M  V30 2659 C 265.515 4.8015 -0.317675 0
M  V30 2660 C 267.867 5.15949 -0.737956 0
M  V30 2661 C 265.195 5.71772 -1.31506 0
M  V30 2662 C 267.547 6.08647 -1.72429 0
M  V30 2663 C 266.211 6.36277 -2.0176 0
M  V30 2664 H 265.481 0.719949 0.175371 0
M  V30 2665 H 268.128 1.89756 -0.257864 0
M  V30 2666 H 266.433 3.4681 1.82291 0
M  V30 2667 H 268.13 3.71203 1.51689 0
M  V30 2668 H 264.72 4.28128 0.201088 0
M  V30 2669 H 268.904 4.93458 -0.530351 0
M  V30 2670 H 264.16 5.91465 -1.54853 0
M  V30 2671 H 268.334 6.58129 -2.27682 0
M  V30 2672 H 265.961 7.07075 -2.79194 0
M  V30 2673 N 267.536 -0.106894 1.57237 0
M  V30 2674 C 268.499 -1.11466 2.0027 0
M  V30 2675 C 269.499 -1.33623 0.894519 0
M  V30 2676 O 270.689 -1.29935 1.16028 0
M  V30 2677 C 267.821 -2.46646 2.35327 0
M  V30 2678 H 269.014 -0.744516 2.90512 0
M  V30 2679 H 266.567 -0.351576 1.52295 0
M  V30 2680 H 267.302 -2.88558 1.48003 0
M  V30 2681 H 267.087 -2.31915 3.16161 0
M  V30 2682 H 268.577 -3.19151 2.69318 0
M  V30 2683 N 269.014 -1.53014 -0.377408 0
M  V30 2684 C 269.977 -1.77957 -1.44444 0
M  V30 2685 C 270.977 -0.649763 -1.47087 0
M  V30 2686 O 272.167 -0.917897 -1.48055 0
M  V30 2687 C 269.299 -1.89089 -2.83651 0
M  V30 2688 H 270.492 -2.73243 -1.23606 0
M  V30 2689 H 268.045 -1.43912 -0.609844 0
M  V30 2690 H 268.78 -0.958293 -3.09818 0
M  V30 2691 H 268.565 -2.71254 -2.83132 0
M  V30 2692 H 270.055 -2.1002 -3.60945 0
M  V30 2693 N 270.492 0.636531 -1.44174 0
M  V30 2694 C 271.72 1.42353 -1.50144 0
M  V30 2695 C 272.135 1.88389 -0.124575 0
M  V30 2696 O 271.492 1.6051 0.868489 0
M  V30 2697 C 271.543 2.64744 -2.46156 0
M  V30 2698 O 271.264 2.20629 -3.7849 0
M  V30 2699 C 272.765 3.57929 -2.61537 0
M  V30 2700 H 269.985 0.436752 -0.5094 0
M  V30 2701 H 272.529 0.778933 -1.89084 0
M  V30 2702 H 270.684 3.25307 -2.10366 0
M  V30 2703 H 271.098 2.99938 -4.30276 0
M  V30 2704 H 272.572 4.40428 -3.32757 0
M  V30 2705 H 273.049 4.06382 -1.66585 0
M  V30 2706 H 273.655 3.03238 -2.98206 0
M  V30 2707 N 271.97 1.30982 0.876444 0
M  V30 2708 C 272.88 1.2003 2.01569 0
M  V30 2709 C 273.896 0.11838 1.73597 0
M  V30 2710 O 275.072 0.33495 1.98595 0
M  V30 2711 C 272.137 0.901637 3.34771 0
M  V30 2712 C 271.198 2.06979 3.76109 0
M  V30 2713 C 270.431 1.78529 5.02954 0
M  V30 2714 O 270.654 0.717296 5.65872 0
M  V30 2715 O 269.588 2.64019 5.40905 0
M  V30 2716 H 273.414 2.15753 2.13739 0
M  V30 2717 H 270.999 1.10658 1.00375 0
M  V30 2718 H 272.881 0.750645 4.1466 0
M  V30 2719 H 271.556 -0.0256141 3.2369 0
M  V30 2720 H 270.463 2.27616 2.96887 0
M  V30 2721 H 271.796 2.97907 3.91807 0
M  V30 2722 N 273.449 -1.08991 1.13837 0
M  V30 2723 C 274.674 -1.85551 0.926585 0
M  V30 2724 C 275.099 -1.80782 -0.519566 0
M  V30 2725 O 274.457 -1.18855 -1.36906 0
M  V30 2726 C 274.505 -3.31266 1.42462 0
M  V30 2727 O 273.609 -4.07822 0.612789 0
M  V30 2728 H 272.95 -0.575192 0.331738 0
M  V30 2729 H 275.48 -1.37604 1.51414 0
M  V30 2730 H 275.49 -3.82112 1.43019 0
M  V30 2731 H 274.165 -3.34052 2.47754 0
M  V30 2732 H 272.742 -3.66731 0.675463 0
M  V30 2733 N 274.927 -0.932562 -1.27047 0
M  V30 2734 C 275.877 -0.406392 -2.24349 0
M  V30 2735 C 276.861 0.492066 -1.53191 0
M  V30 2736 O 278.053 0.328717 -1.73921 0
M  V30 2737 C 275.182 0.335214 -3.41659 0
M  V30 2738 C 274.268 -0.58004 -4.20115 0
M  V30 2739 N 274.659 -1.70203 -4.76303 0
M  V30 2740 C 272.957 -0.383974 -4.44344 0
M  V30 2741 C 273.658 -2.27167 -5.35509 0
M  V30 2742 N 272.634 -1.56068 -5.20715 0
M  V30 2743 H 276.436 -1.26299 -2.65378 0
M  V30 2744 H 273.95 -0.787408 -1.42034 0
M  V30 2745 H 275.947 0.729142 -4.10474 0
M  V30 2746 H 274.607 1.18868 -3.0216 0
M  V30 2747 H 275.618 -2.08433 -4.74106 0
M  V30 2748 H 272.295 0.428436 -4.15296 0
M  V30 2749 H 273.685 -3.21654 -5.89905 0
M  V30 2750 N 276.405 1.4127 -0.698611 0
M  V30 2751 C 277.633 2.05503 -0.239992 0
M  V30 2752 C 278.048 1.52584 1.11191 0
M  V30 2753 O 277.405 0.675323 1.69545 0
M  V30 2754 C 277.456 3.60987 -0.192429 0
M  V30 2755 O 277.177 4.1195 -1.49094 0
M  V30 2756 C 278.678 4.42371 0.28681 0
M  V30 2757 H 275.898 0.661748 -0.111045 0
M  V30 2758 H 278.442 1.80987 -0.95205 0
M  V30 2759 H 276.597 3.84533 0.470472 0
M  V30 2760 H 277.011 5.06018 -1.38007 0
M  V30 2761 H 278.485 5.51344 0.26896 0
M  V30 2762 H 278.962 4.18699 1.32619 0
M  V30 2763 H 279.568 4.23897 -0.345201 0
M  V30 2764 N 277.883 0.443576 1.51229 0
M  V30 2765 C 278.846 -0.353132 2.26463 0
M  V30 2766 C 279.846 -0.944338 1.3015 0
M  V30 2767 O 281.036 -0.817813 1.5381 0
M  V30 2768 C 278.168 -1.50023 3.06114 0
M  V30 2769 H 279.361 0.3063 2.98332 0
M  V30 2770 H 276.914 0.196902 1.55055 0
M  V30 2771 H 277.649 -2.19553 2.38677 0
M  V30 2772 H 277.434 -1.08241 3.76864 0
M  V30 2773 H 278.924 -2.06296 3.63087 0
M  V30 2774 N 279.361 -1.56624 0.175154 0
M  V30 2775 C 280.591 -2.01082 -0.474283 0
M  V30 2776 C 280.999 -1.05447 -1.57091 0
M  V30 2777 O 280.342 -0.0480595 -1.83637 0
M  V30 2778 C 280.404 -3.41963 -1.10911 0
M  V30 2779 C 280.068 -4.56742 -0.153666 0
M  V30 2780 C 281.065 -5.16076 0.629448 0
M  V30 2781 C 278.75 -5.02277 -0.0483776 0
M  V30 2782 C 280.744 -6.19377 1.50501 0
M  V30 2783 C 278.431 -6.05427 0.830768 0
M  V30 2784 C 279.429 -6.63849 1.60605 0
M  V30 2785 O 279.117 -7.64998 2.47049 0
M  V30 2786 H 278.849 -0.664261 -0.125432 0
M  V30 2787 H 281.403 -2.03549 0.275163 0
M  V30 2788 H 279.633 -3.36422 -1.90676 0
M  V30 2789 H 281.322 -3.70352 -1.66114 0
M  V30 2790 H 282.088 -4.81776 0.558297 0
M  V30 2791 H 277.967 -4.56513 -0.641611 0
M  V30 2792 H 281.511 -6.64906 2.1106 0
M  V30 2793 H 277.408 -6.39151 0.903107 0
M  V30 2794 H 278.176 -7.82336 2.40607 0
M  V30 2795 N 280.839 0.0985539 -1.57292 0
M  V30 2796 C 282.086 0.802678 -1.85912 0
M  V30 2797 C 282.414 1.78901 -0.763186 0
M  V30 2798 O 281.669 1.94178 0.243559 0
M  V30 2799 C 281.968 1.56927 -3.21105 0
M  V30 2800 C 281.634 0.725376 -4.45027 0
M  V30 2801 C 280.296 0.492726 -4.78671 0
M  V30 2802 C 282.648 0.138493 -5.21016 0
M  V30 2803 C 279.976 -0.336727 -5.85733 0
M  V30 2804 C 282.328 -0.678264 -6.28953 0
M  V30 2805 C 280.992 -0.921039 -6.61115 0
M  V30 2806 H 280.262 0.293721 -0.680301 0
M  V30 2807 H 282.909 0.0642841 -1.91392 0
M  V30 2808 H 281.214 2.37914 -3.11294 0
M  V30 2809 H 282.911 2.11841 -3.40477 0
M  V30 2810 H 279.501 0.916815 -4.18679 0
M  V30 2811 H 283.685 0.305404 -4.95359 0
M  V30 2812 H 278.941 -0.533836 -6.09065 0
M  V30 2813 H 283.115 -1.1399 -6.87007 0
M  V30 2814 H 280.742 -1.56556 -7.43905 0
M  V30 2815 N 282.317 1.53212 0.369288 0
M  V30 2816 C 283.28 1.7872 1.43498 0
M  V30 2817 C 284.28 0.657554 1.46741 0
M  V30 2818 O 285.47 0.925736 1.47566 0
M  V30 2819 C 282.602 1.90591 2.82645 0
M  V30 2820 H 283.795 2.73894 1.22156 0
M  V30 2821 H 281.348 1.44233 0.602203 0
M  V30 2822 H 282.083 0.974709 3.09306 0
M  V30 2823 H 281.868 2.72751 2.8169 0
M  V30 2824 H 283.358 2.11931 3.59826 0
M  V30 2825 N 283.795 -0.628877 1.44509 0
M  V30 2826 C 284.725 -1.75187 1.54376 0
M  V30 2827 C 285.706 -1.65411 0.396618 0
M  V30 2828 O 286.891 -1.84137 0.617031 0
M  V30 2829 C 284.021 -3.13725 1.48976 0
M  V30 2830 C 282.975 -3.38291 2.62189 0
M  V30 2831 C 282.301 -4.76883 2.41841 0
M  V30 2832 C 283.601 -3.30632 4.04326 0
M  V30 2833 H 285.295 -1.67187 2.48373 0
M  V30 2834 H 282.841 -0.802909 1.19538 0
M  V30 2835 H 284.794 -3.92064 1.54478 0
M  V30 2836 H 283.518 -3.22515 0.514961 0
M  V30 2837 H 282.177 -2.62334 2.56079 0
M  V30 2838 H 281.825 -4.82378 1.42548 0
M  V30 2839 H 281.525 -4.94278 3.17747 0
M  V30 2840 H 283.049 -5.57449 2.49165 0
M  V30 2841 H 284.463 -3.98873 4.11793 0
M  V30 2842 H 282.86 -3.59561 4.80454 0
M  V30 2843 H 283.93 -2.28404 4.27738 0
M  V30 2844 N 285.273 -1.31445 -0.869486 0
M  V30 2845 C 286.206 -1.13465 -1.97992 0
M  V30 2846 C 287.184 -0.0380291 -1.62556 0
M  V30 2847 O 288.368 -0.194544 -1.87493 0
M  V30 2848 C 285.495 -0.733822 -3.30655 0
M  V30 2849 C 284.541 -1.83356 -3.85075 0
M  V30 2850 S 285.374 -3.43909 -4.10472 0
M  V30 2851 C 286.53 -3.05763 -5.46132 0
M  V30 2852 H 286.763 -2.07471 -2.1294 0
M  V30 2853 H 284.296 -1.15936 -1.01972 0
M  V30 2854 H 286.254 -0.509306 -4.07328 0
M  V30 2855 H 284.915 0.187123 -3.13542 0
M  V30 2856 H 284.108 -1.50574 -4.80982 0
M  V30 2857 H 283.71 -2.01315 -3.15195 0
M  V30 2858 H 286.002 -2.54686 -6.27807 0
M  V30 2859 H 286.945 -4.00635 -5.83864 0
M  V30 2860 H 287.353 -2.43192 -5.09429 0
M  V30 2861 N 286.751 1.08385 -1.14413 0
M  V30 2862 C 288 1.80153 -0.907076 0
M  V30 2863 C 288.313 1.87176 0.567851 0
M  V30 2864 O 289.519 2.55359 0.922172 0
M  V30 2865 C 287.975 3.23687 -1.57336 0
M  V30 2866 C 287.583 3.24897 -3.08457 0
M  V30 2867 C 289.327 4.00136 -1.41744 0
M  V30 2868 C 287.234 4.6302 -3.67921 0
M  V30 2869 H 286.164 0.675139 -0.335714 0
M  V30 2870 H 288.815 1.21733 -1.37307 0
M  V30 2871 H 287.197 3.82234 -1.03505 0
M  V30 2872 H 288.371 2.76055 -3.68958 0
M  V30 2873 H 286.686 2.61943 -3.2369 0
M  V30 2874 H 289.283 5.02201 -1.83572 0
M  V30 2875 H 289.626 4.14709 -0.363576 0
M  V30 2876 H 290.159 3.48058 -1.92614 0
M  V30 2877 H 286.898 4.5365 -4.73161 0
M  V30 2878 H 286.418 5.12143 -3.12201 0
M  V30 2879 H 288.097 5.31994 -3.68227 0
M  V30 2880 N 288.23 0.939286 1.26551 0
M  V30 2881 C 289.16 0.465044 2.28822 0
M  V30 2882 C 290.141 -0.480692 1.63167 0
M  V30 2883 O 291.326 -0.382955 1.90387 0
M  V30 2884 C 288.456 -0.27234 3.46231 0
M  V30 2885 C 287.41 0.58666 4.2396 0
M  V30 2886 C 286.736 -0.280573 5.33963 0
M  V30 2887 C 288.036 1.85704 4.88171 0
M  V30 2888 H 289.73 1.31979 2.68741 0
M  V30 2889 H 287.276 0.636061 1.29191 0
M  V30 2890 H 289.229 -0.615133 4.16886 0
M  V30 2891 H 287.953 -1.16121 3.0526 0
M  V30 2892 H 286.612 0.91232 3.55067 0
M  V30 2893 H 286.26 -1.16874 4.89234 0
M  V30 2894 H 285.96 0.29076 5.8688 0
M  V30 2895 H 287.484 -0.618678 6.07458 0
M  V30 2896 H 288.898 1.58161 5.51052 0
M  V30 2897 H 287.295 2.37279 5.51197 0
M  V30 2898 H 288.365 2.56957 4.11219 0
M  V30 2899 N 289.708 -1.40897 0.706093 0
M  V30 2900 C 290.671 -2.29131 0.0562841 0
M  V30 2901 C 291.671 -1.44901 -0.697166 0
M  V30 2902 O 292.861 -1.65926 -0.530484 0
M  V30 2903 C 289.993 -3.27957 -0.93043 0
M  V30 2904 H 291.186 -2.88091 0.833284 0
M  V30 2905 H 288.739 -1.4906 0.470192 0
M  V30 2906 H 289.474 -2.73997 -1.73482 0
M  V30 2907 H 289.259 -3.90124 -0.393166 0
M  V30 2908 H 290.749 -3.94049 -1.38256 0
M  V30 2909 N 291.186 -0.45159 -1.50991 0
M  V30 2910 C 292.433 0.110074 -2.02201 0
M  V30 2911 C 292.761 1.4146 -1.33489 0
M  V30 2912 O 292.016 1.90617 -0.443125 0
M  V30 2913 C 292.315 0.361728 -3.55565 0
M  V30 2914 C 291.981 -0.858717 -4.42648 0
M  V30 2915 C 290.643 -1.19338 -4.66167 0
M  V30 2916 C 292.995 -1.67221 -4.93646 0
M  V30 2917 C 290.323 -2.34195 -5.37931 0
M  V30 2918 C 292.675 -2.8119 -5.6667 0
M  V30 2919 C 291.339 -3.15094 -5.88449 0
M  V30 2920 H 290.609 0.040279 -0.739904 0
M  V30 2921 H 293.256 -0.601696 -1.81802 0
M  V30 2922 H 291.561 1.15554 -3.74372 0
M  V30 2923 H 293.258 0.80996 -3.92735 0
M  V30 2924 H 289.848 -0.58796 -4.24548 0
M  V30 2925 H 294.032 -1.42686 -4.75347 0
M  V30 2926 H 289.288 -2.6076 -5.53005 0
M  V30 2927 H 293.462 -3.44585 -6.05173 0
M  V30 2928 H 291.089 -4.04204 -6.43835 0
M  V30 2929 N 292.664 1.56529 -0.183458 0
M  V30 2930 C 293.627 2.17324 0.728223 0
M  V30 2931 C 294.627 1.12453 1.14939 0
M  V30 2932 O 295.817 1.37902 1.06437 0
M  V30 2933 C 292.949 2.76591 1.99274 0
M  V30 2934 H 294.142 2.99241 0.198772 0
M  V30 2935 H 291.695 1.5616 0.0661391 0
M  V30 2936 H 292.43 1.98441 2.56499 0
M  V30 2937 H 292.215 3.5335 1.69959 0
M  V30 2938 H 293.705 3.23311 2.6431 0
M  V30 2939 N 294.142 -0.090211 1.57342 0
M  V30 2940 C 295.072 -1.10976 2.05443 0
M  V30 2941 C 296.053 -1.41482 0.944284 0
M  V30 2942 O 297.238 -1.51428 1.21586 0
M  V30 2943 C 294.368 -2.42831 2.48295 0
M  V30 2944 C 293.322 -2.26721 3.63018 0
M  V30 2945 C 292.648 -3.63796 3.91863 0
M  V30 2946 C 293.948 -1.7037 4.93732 0
M  V30 2947 H 295.642 -0.709564 2.9087 0
M  V30 2948 H 293.188 -0.339874 1.39932 0
M  V30 2949 H 295.141 -3.14431 2.80555 0
M  V30 2950 H 293.865 -2.84795 1.59873 0
M  V30 2951 H 292.524 -1.57565 3.31012 0
M  V30 2952 H 292.172 -4.03297 3.00601 0
M  V30 2953 H 291.872 -3.53861 4.69101 0
M  V30 2954 H 293.396 -4.36855 4.26603 0
M  V30 2955 H 294.81 -2.31816 5.24342 0
M  V30 2956 H 293.207 -1.71181 5.75167 0
M  V30 2957 H 294.277 -0.663542 4.80339 0
M  V30 2958 N 295.62 -1.53406 -0.361157 0
M  V30 2959 C 296.868 -1.69467 -1.10115 0
M  V30 2960 C 297.189 -0.451352 -1.89705 0
M  V30 2961 O 296.459 0.534636 -1.88463 0
M  V30 2962 H 295.039 -0.624749 -0.409508 0
M  V30 2963 H 297.701 -1.90609 -0.406699 0
M  V30 2964 H 296.797 -2.55774 -1.78847 0
M  V30 2965 N 297.098 0.621204 -1.44841 0
M  V30 2966 C 298.345 1.38055 -1.48145 0
M  V30 2967 C 298.673 1.94143 -0.117867 0
M  V30 2968 O 297.928 1.74713 0.881694 0
M  V30 2969 C 298.227 2.55675 -2.4973 0
M  V30 2970 C 297.893 2.17817 -3.94799 0
M  V30 2971 C 296.555 2.07205 -4.34303 0
M  V30 2972 C 298.907 1.88065 -4.86087 0
M  V30 2973 C 296.235 1.65045 -5.63007 0
M  V30 2974 C 298.587 1.47394 -6.15189 0
M  V30 2975 C 297.251 1.35331 -6.53637 0
M  V30 2976 H 296.521 0.505181 -0.542101 0
M  V30 2977 H 299.168 0.703477 -1.78111 0
M  V30 2978 H 297.473 3.2866 -2.13284 0
M  V30 2979 H 299.17 3.13904 -2.4953 0
M  V30 2980 H 295.76 2.26998 -3.63552 0
M  V30 2981 H 299.944 1.95168 -4.56315 0
M  V30 2982 H 295.2 1.54317 -5.91605 0
M  V30 2983 H 299.374 1.23415 -6.85377 0
M  V30 2984 H 297.001 1.02435 -7.53267 0
M  V30 2985 N 298.576 1.31904 0.862503 0
M  V30 2986 C 299.506 1.22782 1.98612 0
M  V30 2987 C 300.487 0.113362 1.69722 0
M  V30 2988 O 301.672 0.299218 1.91881 0
M  V30 2989 C 298.802 0.942058 3.34279 0
M  V30 2990 C 297.756 2.0169 3.77499 0
M  V30 2991 C 297.082 1.58369 5.10709 0
M  V30 2992 C 298.382 3.43096 3.93805 0
M  V30 2993 H 300.076 2.16788 2.06502 0
M  V30 2994 H 297.622 1.04366 0.992154 0
M  V30 2995 H 299.575 0.864818 4.1243 0
M  V30 2996 H 298.299 -0.0336603 3.26583 0
M  V30 2997 H 296.958 2.08416 3.01593 0
M  V30 2998 H 296.606 0.595628 4.99461 0
M  V30 2999 H 296.306 2.30279 5.40597 0
M  V30 3000 H 297.83 1.52067 5.91361 0
M  V30 3001 H 299.244 3.39003 4.62331 0
M  V30 3002 H 297.641 4.13288 4.35101 0
M  V30 3003 H 298.711 3.83334 2.96957 0
M  V30 3004 N 300.054 -1.07777 1.14986 0
M  V30 3005 C 300.984 -2.16865 0.865557 0
M  V30 3006 C 301.965 -1.69123 -0.182083 0
M  V30 3007 O 303.15 -1.94164 -0.0373815 0
M  V30 3008 C 300.28 -3.45539 0.349313 0
M  V30 3009 C 299.234 -4.06708 1.33313 0
M  V30 3010 C 298.56 -5.30411 0.675918 0
M  V30 3011 C 299.86 -4.47241 2.69764 0
M  V30 3012 H 301.554 -2.40905 1.77778 0
M  V30 3013 H 299.1 -1.15781 0.856203 0
M  V30 3014 H 301.053 -4.21174 0.137983 0
M  V30 3015 H 299.777 -3.21072 -0.598362 0
M  V30 3016 H 298.436 -3.33112 1.53075 0
M  V30 3017 H 298.084 -5.02232 -0.277767 0
M  V30 3018 H 297.784 -5.72293 1.33244 0
M  V30 3019 H 299.308 -6.08755 0.474262 0
M  V30 3020 H 300.722 -5.14025 2.53873 0
M  V30 3021 H 299.119 -5.00062 3.3175 0
M  V30 3022 H 300.189 -3.58818 3.26156 0
M  V30 3023 N 301.532 -0.945985 -1.26051 0
M  V30 3024 C 302.781 -0.591836 -1.92822 0
M  V30 3025 C 303.094 0.873956 -1.7499 0
M  V30 3026 O 304.3 1.33769 -2.36259 0
M  V30 3027 C 302.756 -1.00776 -3.45503 0
M  V30 3028 C 302.364 -2.4955 -3.7206 0
M  V30 3029 C 304.108 -0.725735 -4.1825 0
M  V30 3030 C 302.015 -2.84988 -5.18205 0
M  V30 3031 H 300.945 -0.217635 -0.721908 0
M  V30 3032 H 303.596 -1.14927 -1.43052 0
M  V30 3033 H 301.978 -0.378812 -3.94184 0
M  V30 3034 H 303.152 -3.1739 -3.34066 0
M  V30 3035 H 301.467 -2.75133 -3.12555 0
M  V30 3036 H 304.064 -0.966771 -5.25887 0
M  V30 3037 H 304.407 0.337639 -4.14929 0
M  V30 3038 H 304.94 -1.31463 -3.7545 0
M  V30 3039 H 301.679 -3.90307 -5.26631 0
M  V30 3040 H 301.199 -2.21813 -5.57278 0
M  V30 3041 H 302.878 -2.73712 -5.86252 0
M  V30 3042 N 303.011 1.40521 -0.713556 0
M  V30 3043 C 304.26 2.00155 -0.249192 0
M  V30 3044 C 304.573 1.57224 1.16362 0
M  V30 3045 O 305.779 2.09542 1.72639 0
M  V30 3046 C 304.235 3.5773 -0.3946 0
M  V30 3047 C 303.843 4.09635 -1.81392 0
M  V30 3048 C 305.587 4.24499 0.00907364 0
M  V30 3049 C 303.494 5.59707 -1.91003 0
M  V30 3050 H 302.424 0.74868 -0.0894114 0
M  V30 3051 H 305.075 1.60784 -0.884352 0
M  V30 3052 H 303.457 3.94792 0.30911 0
M  V30 3053 H 304.631 3.83955 -2.54785 0
M  V30 3054 H 302.946 3.55456 -2.16888 0
M  V30 3055 H 305.543 5.34683 -0.0420404 0
M  V30 3056 H 305.886 4.02824 1.05065 0
M  V30 3057 H 306.419 3.92536 -0.645007 0
M  V30 3058 H 303.158 5.86234 -2.93275 0
M  V30 3059 H 302.678 5.87258 -1.22019 0
M  V30 3060 H 304.357 6.24776 -1.6812 0
M  V30 3061 N 304.489 0.459591 1.5075 0
M  V30 3062 C 305.9 0.00171547 1.867 0
M  V30 3063 C 306.251 -1.39934 1.37525 0
M  V30 3064 O 305.376 -2.03523 0.735349 0
M  V30 3065 C 305.971 -0.00366298 3.388 0
M  V30 3066 C 304.53 -0.406026 3.74204 0
M  V30 3067 C 303.677 0.38673 2.7459 0
M  V30 3068 H 306.628 0.674413 1.43657 0
M  V30 3069 H 306.649 -0.808371 3.71814 0
M  V30 3070 H 306.161 1.01617 3.74561 0
M  V30 3071 H 304.262 -1.43063 3.4404 0
M  V30 3072 H 304.375 -0.115362 4.78961 0
M  V30 3073 H 302.739 -0.158019 2.54209 0
M  V30 3074 H 303.522 1.40585 3.13194 0
M  V30 3075 N 305.967 -1.56429 0.191757 0
M  V30 3076 C 307.216 -1.9666 -0.448088 0
M  V30 3077 C 307.529 -1.08136 -1.62991 0
M  V30 3078 O 308.735 -1.38135 -2.33733 0
M  V30 3079 C 307.191 -3.49753 -0.848585 0
M  V30 3080 C 306.799 -4.46935 0.308764 0
M  V30 3081 C 308.543 -3.9876 -1.4557 0
M  V30 3082 C 306.45 -5.91293 -0.112506 0
M  V30 3083 H 305.38 -0.734312 -0.171179 0
M  V30 3084 H 308.031 -1.81301 0.283242 0
M  V30 3085 H 306.413 -3.60604 -1.63649 0
M  V30 3086 H 307.587 -4.47813 1.08627 0
M  V30 3087 H 305.902 -4.08102 0.827158 0
M  V30 3088 H 308.499 -5.04086 -1.78328 0
M  V30 3089 H 308.842 -3.42875 -2.36099 0
M  V30 3090 H 309.375 -3.9101 -0.731836 0
M  V30 3091 H 306.114 -6.51097 0.758514 0
M  V30 3092 H 305.634 -5.93676 -0.854941 0
M  V30 3093 H 307.313 -6.44663 -0.549448 0
M  V30 3094 N 307.445 0.0818655 -1.57387 0
M  V30 3095 C 308.693 0.781368 -1.86384 0
M  V30 3096 C 309.014 1.78618 -0.782342 0
M  V30 3097 O 308.284 1.94976 0.190061 0
M  V30 3098 H 306.864 0.291562 -0.687751 0
M  V30 3099 H 309.526 0.060348 -1.94807 0
M  V30 3100 H 308.622 1.3038 -2.83562 0
M  V30 3101 N 308.923 1.53595 0.353017 0
M  V30 3102 C 310.171 1.70049 1.09215 0
M  V30 3103 C 310.492 0.461406 1.89463 0
M  V30 3104 O 309.762 -0.524633 1.88744 0
M  V30 3105 H 308.342 0.626912 0.40619 0
M  V30 3106 H 311.004 1.90822 0.396585 0
M  V30 3107 H 310.1 2.56718 1.77488 0
M  V30 3108 N 310.401 -0.613514 1.45168 0
M  V30 3109 C 311.364 -1.7065 1.53007 0
M  V30 3110 C 312.364 -1.5548 0.410184 0
M  V30 3111 O 313.554 -1.60656 0.673455 0
M  V30 3112 C 310.686 -3.09875 1.42093 0
M  V30 3113 H 311.879 -1.65068 2.50385 0
M  V30 3114 H 309.432 -0.828728 1.32521 0
M  V30 3115 H 310.167 -3.21039 0.458769 0
M  V30 3116 H 309.952 -3.22293 2.23315 0
M  V30 3117 H 311.442 -3.895 1.50598 0
M  V30 3118 N 311.879 -1.3236 -0.855495 0
M  V30 3119 C 313.156 -1.13491 -1.59309 0
M  V30 3120 C 313.536 0.30503 -2.08885 0
M  V30 3121 O 312.884 1.30151 -1.87811 0
M  V30 3122 C 313.094 -2.16176 -2.73987 0
M  V30 3123 C 314.442 -2.49463 -3.43589 0
M  V30 3124 O 315.466 -2.14715 -2.84211 0
M  V30 3125 O 314.325 -3.09027 -4.50738 0
M  V30 3126 H 311.419 -0.437887 -0.701559 0
M  V30 3127 H 313.965 -1.43887 -0.899696 0
M  V30 3128 H 312.737 -3.1297 -2.34873 0
M  V30 3129 H 312.36 -1.86769 -3.51003 0
M  V30 3130 N 313.357 1.07166 -1.15556 0
M  V30 3131 C 314.29 2.13808 -0.797593 0
M  V30 3132 C 315.268 1.6101 0.226812 0
M  V30 3133 O 316.452 1.88161 0.112932 0
M  V30 3134 C 313.579 3.38187 -0.186371 0
M  V30 3135 C 312.625 4.09766 -1.18297 0
M  V30 3136 S 313.458 4.60932 -2.72584 0
M  V30 3137 C 314.614 5.88583 -2.12886 0
M  V30 3138 H 314.847 2.43843 -1.70083 0
M  V30 3139 H 312.38 1.19467 -0.978106 0
M  V30 3140 H 314.338 4.10189 0.159837 0
M  V30 3141 H 312.999 3.06326 0.694489 0
M  V30 3142 H 312.192 4.99065 -0.703562 0
M  V30 3143 H 311.794 3.43736 -1.47381 0
M  V30 3144 H 314.086 6.60866 -1.49208 0
M  V30 3145 H 315.029 6.41241 -3.0036 0
M  V30 3146 H 315.437 5.42194 -1.57116 0
M  V30 3147 N 314.835 0.952656 1.25548 0
M  V30 3148 C 316.246 0.647392 1.75116 0
M  V30 3149 C 316.597 -0.837274 1.77438 0
M  V30 3150 O 315.722 -1.65525 1.39393 0
M  V30 3151 C 316.317 1.16845 3.18014 0
M  V30 3152 C 314.876 0.913382 3.6515 0
M  V30 3153 C 314.023 1.31265 2.44264 0
M  V30 3154 H 316.974 1.12968 1.11462 0
M  V30 3155 H 316.995 0.527606 3.76824 0
M  V30 3156 H 316.507 2.24902 3.16292 0
M  V30 3157 H 314.608 -0.152316 3.72289 0
M  V30 3158 H 314.721 1.54845 4.53387 0
M  V30 3159 H 313.085 0.731028 2.43984 0
M  V30 3160 H 313.868 2.40239 2.45234 0
M  V30 3161 N 316.313 -1.40141 0.720998 0
M  V30 3162 C 317.559 -2.01084 0.263231 0
M  V30 3163 C 317.892 -1.57052 -1.14229 0
M  V30 3164 O 317.167 -0.793027 -1.77599 0
M  V30 3165 C 317.45 -3.58401 0.349344 0
M  V30 3166 C 317.303 -4.12491 1.79363 0
M  V30 3167 C 318.622 -4.39231 -0.276351 0
M  V30 3168 H 315.741 -0.730572 0.0971228 0
M  V30 3169 H 318.383 -1.66543 0.914518 0
M  V30 3170 H 316.533 -3.87958 -0.205165 0
M  V30 3171 H 318.205 -3.93711 2.40394 0
M  V30 3172 H 316.448 -3.66576 2.31958 0
M  V30 3173 H 317.119 -5.21646 1.80524 0
M  V30 3174 H 319.595 -4.15637 0.196184 0
M  V30 3175 H 318.471 -5.48586 -0.185681 0
M  V30 3176 H 318.732 -4.20643 -1.36059 0
M  V30 3177 N 317.792 -0.46758 -1.50504 0
M  V30 3178 C 319.038 0.0887532 -2.02606 0
M  V30 3179 C 319.371 1.39686 -1.34913 0
M  V30 3180 O 318.646 1.88644 -0.473694 0
M  V30 3181 C 318.929 0.276206 -3.59039 0
M  V30 3182 C 318.782 -1.05267 -4.37309 0
M  V30 3183 C 320.101 1.03235 -4.27821 0
M  V30 3184 H 317.22 0.0307814 -0.736357 0
M  V30 3185 H 319.862 -0.612485 -1.79857 0
M  V30 3186 H 318.012 0.8735 -3.78553 0
M  V30 3187 H 319.684 -1.68628 -4.29374 0
M  V30 3188 H 317.927 -1.65015 -4.01189 0
M  V30 3189 H 318.598 -0.875197 -5.45018 0
M  V30 3190 H 321.074 0.526111 -4.12761 0
M  V30 3191 H 319.95 1.1323 -5.37094 0
M  V30 3192 H 320.211 2.06806 -3.90748 0
M  V30 3193 N 319.27 1.56325 -0.20005 0
M  V30 3194 C 320.519 1.96895 0.437652 0
M  V30 3195 C 320.832 1.08999 1.62415 0
M  V30 3196 O 322.038 1.39372 2.32997 0
M  V30 3197 C 320.494 3.50198 0.830025 0
M  V30 3198 C 320.102 4.46765 -0.332461 0
M  V30 3199 C 321.846 3.99526 1.43453 0
M  V30 3200 C 319.753 5.91344 0.0811468 0
M  V30 3201 H 318.683 0.735209 0.167282 0
M  V30 3202 H 321.334 1.81148 -0.292853 0
M  V30 3203 H 319.716 3.61467 1.61734 0
M  V30 3204 H 320.89 4.47231 -1.11 0
M  V30 3205 H 319.205 4.07657 -0.848789 0
M  V30 3206 H 321.802 5.05025 1.75652 0
M  V30 3207 H 322.145 3.44122 2.34277 0
M  V30 3208 H 322.678 3.91393 0.71109 0
M  V30 3209 H 319.417 6.50685 -0.793033 0
M  V30 3210 H 318.937 5.94121 0.823445 0
M  V30 3211 H 320.616 6.44945 0.515252 0
M  V30 3212 N 320.748 -0.0735177 1.57428 0
M  V30 3213 C 321.973 -0.789787 1.91774 0
M  V30 3214 C 322.398 -1.70413 0.796306 0
M  V30 3215 O 321.756 -1.79555 -0.250961 0
M  V30 3216 C 321.804 -1.5609 3.25067 0
M  V30 3217 O 320.908 -2.67144 3.14178 0
M  V30 3218 H 320.249 -0.215582 0.628029 0
M  V30 3219 H 322.779 -0.0422781 2.04556 0
M  V30 3220 H 322.789 -1.94052 3.58898 0
M  V30 3221 H 321.464 -0.890015 4.06265 0
M  V30 3222 H 320.041 -2.32052 2.91901 0
M  V30 3223 N 322.226 -1.5378 -0.344866 0
M  V30 3224 C 323.159 -1.7649 -1.4466 0
M  V30 3225 C 324.137 -0.613954 -1.50563 0
M  V30 3226 O 325.321 -0.84896 -1.683 0
M  V30 3227 C 322.448 -1.86235 -2.82903 0
M  V30 3228 C 321.494 -3.08375 -2.94631 0
M  V30 3229 S 322.327 -4.67457 -2.61236 0
M  V30 3230 C 323.483 -4.80079 -4.0159 0
M  V30 3231 H 323.716 -2.69661 -1.2518 0
M  V30 3232 H 321.249 -1.44632 -0.540455 0
M  V30 3233 H 323.207 -1.92535 -3.62547 0
M  V30 3234 H 321.868 -0.940786 -2.9968 0
M  V30 3235 H 321.061 -3.11865 -3.95925 0
M  V30 3236 H 320.663 -3.00294 -2.22934 0
M  V30 3237 H 322.955 -4.61407 -4.96094 0
M  V30 3238 H 323.898 -5.82168 -4.03095 0
M  V30 3239 H 324.306 -4.08544 -3.89554 0
M  V30 3240 N 323.704 0.605807 -1.45491 0
M  V30 3241 C 324.634 1.72709 -1.57143 0
M  V30 3242 C 325.615 1.6476 -0.422884 0
M  V30 3243 O 326.8 1.83132 -0.646247 0
M  V30 3244 C 323.93 3.11316 -1.53948 0
M  V30 3245 C 322.884 3.34077 -2.67537 0
M  V30 3246 C 322.21 4.72975 -2.49397 0
M  V30 3247 C 323.51 3.24158 -4.09535 0
M  V30 3248 H 325.204 1.63214 -2.51001 0
M  V30 3249 H 322.75 0.78379 -1.208 0
M  V30 3250 H 324.703 3.89557 -1.60696 0
M  V30 3251 H 323.427 3.21655 -0.566205 0
M  V30 3252 H 322.086 2.58227 -2.6022 0
M  V30 3253 H 321.734 4.8005 -1.50205 0
M  V30 3254 H 321.434 4.8916 -3.25571 0
M  V30 3255 H 322.958 5.53414 -2.58002 0
M  V30 3256 H 324.372 3.92271 -4.18086 0
M  V30 3257 H 322.769 3.51872 -4.86113 0
M  V30 3258 H 323.839 2.2157 -4.31317 0
M  V30 3259 N 325.182 1.32811 0.848464 0
M  V30 3260 C 326.13 1.22231 1.97895 0
M  V30 3261 C 327.124 0.125749 1.68933 0
M  V30 3262 O 328.33 0.289083 1.77663 0
M  V30 3263 H 324.705 0.379058 0.649476 0
M  V30 3264 H 326.676 2.17828 2.03945 0
M  V30 3265 C 325.425 0.968572 3.33937 0
M  V30 3266 H 324.748 1.80458 3.56756 0
M  V30 3267 H 326.188 0.934808 4.13567 0
M  V30 3268 C 324.647 -0.328628 3.35293 0
M  V30 3269 O 325.177 -1.33848 3.78745 0
M  V30 3270 N 323.383 -0.352788 2.88451 0
M  V30 3271 H 322.93 0.469541 2.53285 0
M  V30 3272 H 322.888 -1.22057 2.89741 0
M  V30 3273 N 326.66 -1.06551 1.16123 0
M  V30 3274 C 327.885 -1.83544 0.965735 0
M  V30 3275 C 328.31 -1.81843 -0.481102 0
M  V30 3276 O 327.668 -1.21732 -1.34354 0
M  V30 3277 C 327.716 -3.28169 1.49457 0
M  V30 3278 O 326.82 -4.0643 0.699157 0
M  V30 3279 H 326.161 -0.568026 0.343864 0
M  V30 3280 H 328.691 -1.34362 1.54299 0
M  V30 3281 H 328.701 -3.78992 1.51092 0
M  V30 3282 H 327.376 -3.28722 2.54784 0
M  V30 3283 H 325.953 -3.65216 0.7531 0
M  V30 3284 N 328.138 -0.959301 -1.25041 0
M  V30 3285 C 329.368 -0.63303 -1.96663 0
M  V30 3286 C 329.776 0.800031 -1.71453 0
M  V30 3287 O 329.119 1.54736 -0.99008 0
M  V30 3288 C 329.181 -0.817523 -3.50081 0
M  V30 3289 C 328.845 -2.22863 -3.98975 0
M  V30 3290 C 329.842 -3.20569 -4.09306 0
M  V30 3291 C 327.527 -2.55407 -4.32519 0
M  V30 3292 C 329.521 -4.4891 -4.52503 0
M  V30 3293 C 327.208 -3.83976 -4.754 0
M  V30 3294 C 328.206 -4.8054 -4.85356 0
M  V30 3295 O 327.894 -6.06817 -5.27284 0
M  V30 3296 H 327.626 -0.235866 -0.633516 0
M  V30 3297 H 330.18 -1.2874 -1.60047 0
M  V30 3298 H 328.41 -0.105992 -3.86555 0
M  V30 3299 H 330.099 -0.491604 -4.02912 0
M  V30 3300 H 330.865 -2.96753 -3.83618 0
M  V30 3301 H 326.744 -1.8097 -4.23994 0
M  V30 3302 H 330.288 -5.24283 -4.60188 0
M  V30 3303 H 326.185 -4.07596 -5.00535 0
M  V30 3304 H 326.953 -6.10262 -5.45457 0
M  V30 3305 N 329.616 1.39756 -0.72842 0
M  V30 3306 C 330.841 2.05472 -0.282159 0
M  V30 3307 C 331.266 1.54549 1.07221 0
M  V30 3308 O 330.624 0.686372 1.67805 0
M  V30 3309 C 330.672 3.59462 -0.286264 0
M  V30 3310 O 329.776 4.05918 0.728298 0
M  V30 3311 H 329.117 0.651226 -0.129618 0
M  V30 3312 H 331.647 1.78915 -0.992499 0
M  V30 3313 H 331.657 4.07798 -0.128373 0
M  V30 3314 H 330.332 3.95889 -1.27456 0
M  V30 3315 H 328.909 3.69012 0.537081 0
M  V30 3316 N 331.094 0.475555 1.50254 0
M  V30 3317 C 332.342 -0.077738 2.0195 0
M  V30 3318 C 332.663 -1.39813 1.35931 0
M  V30 3319 O 331.933 -1.89249 0.506123 0
M  V30 3320 H 330.513 -0.031719 0.746326 0
M  V30 3321 H 333.175 0.626995 1.84539 0
M  V30 3322 H 332.271 -0.225995 3.11281 0
M  V30 3323 N 332.573 -1.56217 0.208337 0
M  V30 3324 C 333.819 -1.98998 -0.42086 0
M  V30 3325 C 334.174 -1.09331 -1.58317 0
M  V30 3326 O 333.467 -0.140466 -1.91084 0
M  V30 3327 C 333.661 -3.45441 -0.916797 0
M  V30 3328 C 333.49 -4.49273 0.195925 0
M  V30 3329 C 332.26 -5.00998 0.657956 0
M  V30 3330 C 334.458 -5.04294 1.00956 0
M  V30 3331 N 332.44 -5.88514 1.74712 0
M  V30 3332 C 333.811 -5.88607 1.94785 0
M  V30 3333 C 335.866 -4.86692 1.05049 0
M  V30 3334 C 334.569 -6.572 2.9237 0
M  V30 3335 C 336.595 -5.56034 2.01446 0
M  V30 3336 C 335.957 -6.40105 2.94016 0
M  V30 3337 H 332.056 -0.772574 -0.121048 0
M  V30 3338 H 334.64 -1.92101 0.317075 0
M  V30 3339 H 332.811 -3.52812 -1.62413 0
M  V30 3340 H 334.543 -3.75164 -1.51771 0
M  V30 3341 H 331.298 -4.72945 0.248912 0
M  V30 3342 H 331.722 -6.36975 2.2933 0
M  V30 3343 H 336.364 -4.21359 0.348759 0
M  V30 3344 H 334.082 -7.21723 3.63512 0
M  V30 3345 H 337.668 -5.44385 2.0527 0
M  V30 3346 H 336.548 -6.92816 3.6739 0
M  V30 3347 N 334.051 0.0651679 -1.57465 0
M  V30 3348 C 335.014 1.06117 -2.03155 0
M  V30 3349 C 336.014 1.31204 -0.929632 0
M  V30 3350 O 337.204 1.26813 -1.19432 0
M  V30 3351 C 334.336 2.4032 -2.41783 0
M  V30 3352 H 335.529 0.667231 -2.92383 0
M  V30 3353 H 333.082 0.311075 -1.53173 0
M  V30 3354 H 333.817 2.84532 -1.55601 0
M  V30 3355 H 333.602 2.23451 -3.22199 0
M  V30 3356 H 335.092 3.11898 -2.77685 0
M  V30 3357 N 335.529 1.53961 0.336706 0
M  V30 3358 C 336.492 1.81724 1.39675 0
M  V30 3359 C 337.492 0.688532 1.45313 0
M  V30 3360 O 338.682 0.956829 1.45569 0
M  V30 3361 C 335.814 1.96543 2.78538 0
M  V30 3362 H 337.007 2.76424 1.16318 0
M  V30 3363 H 334.56 1.45478 0.571474 0
M  V30 3364 H 335.295 1.0401 3.07168 0
M  V30 3365 H 335.08 2.78665 2.75841 0
M  V30 3366 H 336.57 2.19516 3.5525 0
M  V30 3367 N 337.007 -0.598083 1.45811 0
M  V30 3368 C 337.97 -1.69018 1.54808 0
M  V30 3369 C 338.97 -1.55037 0.426652 0
M  V30 3370 O 340.16 -1.59932 0.690456 0
M  V30 3371 C 337.292 -3.0835 1.45371 0
M  V30 3372 H 338.485 -1.62403 2.52121 0
M  V30 3373 H 336.038 -0.814626 1.33392 0
M  V30 3374 H 336.773 -3.20534 0.492793 0
M  V30 3375 H 336.558 -3.19907 2.26721 0
M  V30 3376 H 338.048 -3.8788 1.54721 0
M  V30 3377 N 338.485 -1.33259 -0.841409 0
M  V30 3378 C 339.733 -1.24326 -1.59334 0
M  V30 3379 C 340.054 0.191564 -1.94057 0
M  V30 3380 O 339.324 1.11967 -1.60749 0
M  V30 3381 H 337.904 -0.457174 -0.590763 0
M  V30 3382 H 340.566 -1.66947 -1.00571 0
M  V30 3383 H 339.662 -1.8352 -2.52442 0
M  V30 3384 N 339.963 1.05934 -1.16686 0
M  V30 3385 C 341.212 1.78188 -0.945085 0
M  V30 3386 C 341.525 1.88338 0.528021 0
M  V30 3387 O 342.731 2.57258 0.867799 0
M  V30 3388 C 341.187 3.20277 -1.64167 0
M  V30 3389 C 340.795 3.18281 -3.15279 0
M  V30 3390 C 342.539 3.97039 -1.502 0
M  V30 3391 C 340.446 4.55112 -3.7766 0
M  V30 3392 H 339.376 0.667866 -0.349959 0
M  V30 3393 H 342.027 1.18794 -1.39858 0
M  V30 3394 H 340.409 3.79952 -1.11589 0
M  V30 3395 H 341.583 2.68167 -3.74731 0
M  V30 3396 H 339.898 2.55018 -3.29173 0
M  V30 3397 H 342.495 4.98194 -1.94183 0
M  V30 3398 H 342.838 4.13845 -0.451461 0
M  V30 3399 H 343.371 3.43894 -1.99954 0
M  V30 3400 H 340.11 4.43512 -4.82677 0
M  V30 3401 H 339.63 5.05406 -3.22994 0
M  V30 3402 H 341.309 5.24064 -3.79428 0
M  V30 3403 N 341.441 0.965919 1.2453 0
M  V30 3404 C 342.689 0.625593 1.92174 0
M  V30 3405 C 343.01 -0.841652 1.75901 0
M  V30 3406 O 342.28 -1.60061 1.12948 0
M  V30 3407 H 340.86 0.228388 0.71123 0
M  V30 3408 H 343.522 1.2266 1.51461 0
M  V30 3409 H 342.618 0.864653 2.99884 0
M  V30 3410 N 342.919 -1.39368 0.735821 0
M  V30 3411 C 344.166 -2.00497 0.284123 0
M  V30 3412 C 344.494 -1.58387 -1.12889 0
M  V30 3413 O 343.749 -0.804359 -1.78406 0
M  V30 3414 C 344.048 -3.5583 0.334651 0
M  V30 3415 C 343.714 -4.17593 1.7008 0
M  V30 3416 C 342.376 -4.34176 2.07472 0
M  V30 3417 C 344.728 -4.51848 2.59775 0
M  V30 3418 C 342.056 -4.82304 3.34065 0
M  V30 3419 C 344.408 -5.01384 3.85741 0
M  V30 3420 C 343.072 -5.16175 4.23225 0
M  V30 3421 H 342.342 -0.73367 0.103968 0
M  V30 3422 H 344.989 -1.66683 0.942825 0
M  V30 3423 H 343.294 -3.89674 -0.407625 0
M  V30 3424 H 344.991 -4.00986 -0.0329927 0
M  V30 3425 H 341.581 -4.05087 1.40008 0
M  V30 3426 H 345.765 -4.38653 2.32157 0
M  V30 3427 H 341.021 -4.91941 3.63049 0
M  V30 3428 H 345.195 -5.26863 4.55399 0
M  V30 3429 H 342.822 -5.5323 5.21384 0
M  V30 3430 N 344.397 -0.483516 -1.5 0
M  V30 3431 C 345.625 0.0644831 -2.06799 0
M  V30 3432 C 346.04 1.32399 -1.34596 0
M  V30 3433 O 345.397 1.77626 -0.418946 0
M  V30 3434 C 345.448 0.339927 -3.59898 0
M  V30 3435 O 345.169 -0.869635 -4.29382 0
M  V30 3436 C 346.67 0.933515 -4.33359 0
M  V30 3437 H 343.89 -0.0126333 -0.670881 0
M  V30 3438 H 346.434 -0.675864 -1.93009 0
M  V30 3439 H 344.589 1.03022 -3.7345 0
M  V30 3440 H 345.003 -0.62179 -5.20801 0
M  V30 3441 H 346.477 1.07593 -5.41413 0
M  V30 3442 H 346.954 1.92685 -3.94676 0
M  V30 3443 H 347.56 0.281221 -4.24369 0
M  V30 3444 N 345.875 1.56104 -0.216619 0
M  V30 3445 C 346.805 2.23063 0.690296 0
M  V30 3446 C 347.786 1.20072 1.20485 0
M  V30 3447 O 348.971 1.48643 1.24976 0
M  V30 3448 C 346.101 2.90672 1.90072 0
M  V30 3449 C 345.055 4.00092 1.5202 0
M  V30 3450 C 344.381 4.54972 2.80899 0
M  V30 3451 C 345.681 5.17398 0.71391 0
M  V30 3452 H 347.375 2.99109 0.132038 0
M  V30 3453 H 344.921 1.43866 0.0620664 0
M  V30 3454 H 346.874 3.36204 2.54057 0
M  V30 3455 H 345.598 2.12066 2.48386 0
M  V30 3456 H 344.257 3.55283 0.903839 0
M  V30 3457 H 343.905 3.73102 3.37348 0
M  V30 3458 H 343.605 5.28817 2.56176 0
M  V30 3459 H 345.129 5.0322 3.45836 0
M  V30 3460 H 346.543 5.59342 1.25735 0
M  V30 3461 H 344.94 5.97444 0.563951 0
M  V30 3462 H 346.01 4.84088 -0.280527 0
M  V30 3463 N 347.353 -0.0568162 1.57498 0
M  V30 3464 C 348.601 -0.751617 1.87604 0
M  V30 3465 C 348.922 -1.77351 0.81066 0
M  V30 3466 O 348.192 -1.95254 -0.159018 0
M  V30 3467 H 346.772 -0.280583 0.692302 0
M  V30 3468 H 349.434 -0.0293483 1.94878 0
M  V30 3469 H 348.53 -1.25852 2.856 0
M  V30 3470 N 348.832 -1.54138 -0.328536 0
M  V30 3471 C 349.78 -1.83894 -1.42428 0
M  V30 3472 C 350.774 -0.710478 -1.53781 0
M  V30 3473 O 351.98 -0.894062 -1.56226 0
M  V30 3474 H 348.355 -0.582837 -0.475189 0
M  V30 3475 H 350.326 -2.75537 -1.14552 0
M  V30 3476 C 349.075 -2.07866 -2.78724 0
M  V30 3477 H 348.398 -2.94158 -2.7076 0
M  V30 3478 H 349.838 -2.32644 -3.54476 0
M  V30 3479 C 348.297 -0.868689 -3.25508 0
M  V30 3480 O 348.827 -0.0754908 -4.01629 0
M  V30 3481 N 347.033 -0.681711 -2.82491 0
M  V30 3482 H 346.58 -1.32838 -2.20708 0
M  V30 3483 H 346.538 0.126374 -3.14146 0
M  V30 3484 N 350.31 0.590341 -1.46126 0
M  V30 3485 C 351.721 1.17243 -1.45296 0
M  V30 3486 C 352.072 1.95281 -0.189723 0
M  V30 3487 O 351.197 2.04502 0.707674 0
M  V30 3488 C 351.792 2.13284 -2.6324 0
M  V30 3489 C 350.351 2.66832 -2.65476 0
M  V30 3490 C 349.498 1.42557 -2.3785 0
M  V30 3491 H 352.449 0.378692 -1.54116 0
M  V30 3492 H 352.47 2.96619 -2.38323 0
M  V30 3493 H 351.982 1.56459 -3.55165 0
M  V30 3494 H 350.083 3.27548 -1.77603 0
M  V30 3495 H 350.196 3.10088 -3.65215 0
M  V30 3496 H 348.56 1.72107 -1.87753 0
M  V30 3497 H 349.343 0.875741 -3.31942 0
M  V30 3498 N 351.788 1.33704 0.83433 0
M  V30 3499 C 352.718 1.26967 1.95963 0
M  V30 3500 C 353.699 0.149337 1.69443 0
M  V30 3501 O 354.884 0.339852 1.91203 0
M  V30 3502 C 352.014 1.01275 3.32206 0
M  V30 3503 C 350.968 2.09652 3.73136 0
M  V30 3504 C 350.294 1.69166 5.07235 0
M  V30 3505 C 351.594 3.51372 3.86439 0
M  V30 3506 H 353.288 2.2112 2.01857 0
M  V30 3507 H 350.834 1.06447 0.969793 0
M  V30 3508 H 352.787 0.952106 4.10503 0
M  V30 3509 H 351.511 0.0356203 3.26581 0
M  V30 3510 H 350.17 2.14766 2.97104 0
M  V30 3511 H 349.818 0.701437 4.98085 0
M  V30 3512 H 349.518 2.41694 5.35591 0
M  V30 3513 H 351.042 1.64576 5.88003 0
M  V30 3514 H 352.456 3.48734 4.55036 0
M  V30 3515 H 350.853 4.22425 4.26236 0
M  V30 3516 H 351.923 3.89546 2.88759 0
M  V30 3517 N 353.266 -1.05314 1.17247 0
M  V30 3518 C 354.196 -2.1498 0.911362 0
M  V30 3519 C 355.177 -1.69471 -0.146169 0
M  V30 3520 O 356.362 -1.942 0.003812 0
M  V30 3521 C 353.492 -3.4472 0.422528 0
M  V30 3522 C 352.446 -4.03789 1.4191 0
M  V30 3523 C 351.772 -5.28858 0.788274 0
M  V30 3524 C 353.072 -4.41418 2.7919 0
M  V30 3525 H 354.766 -2.3708 1.82848 0
M  V30 3526 H 352.312 -1.13938 0.880569 0
M  V30 3527 H 354.265 -4.20787 0.227289 0
M  V30 3528 H 352.989 -3.22269 -0.530123 0
M  V30 3529 H 351.648 -3.2979 1.60106 0
M  V30 3530 H 351.296 -5.02709 -0.171173 0
M  V30 3531 H 350.996 -5.69338 1.45353 0
M  V30 3532 H 352.52 -6.07612 0.603282 0
M  V30 3533 H 353.934 -5.08524 2.64719 0
M  V30 3534 H 352.331 -4.92913 3.42282 0
M  V30 3535 H 353.401 -3.51819 3.33693 0
M  V30 3536 N 354.744 -0.972509 -1.24016 0
M  V30 3537 C 355.993 -0.632603 -1.91523 0
M  V30 3538 C 356.306 0.836641 -1.76804 0
M  V30 3539 O 357.512 1.28728 -2.39043 0
M  V30 3540 C 355.968 -1.08082 -3.43287 0
M  V30 3541 C 355.576 -2.57386 -3.66683 0
M  V30 3542 C 357.32 -0.814288 -4.16617 0
M  V30 3543 C 355.227 -2.95915 -5.12043 0
M  V30 3544 H 354.157 -0.232898 -0.717129 0
M  V30 3545 H 356.808 -1.17936 -1.40582 0
M  V30 3546 H 355.19 -0.462339 -3.93292 0
M  V30 3547 H 356.364 -3.24405 -3.27258 0
M  V30 3548 H 354.679 -2.81701 -3.06649 0
M  V30 3549 H 357.276 -1.0781 -5.23718 0
M  V30 3550 H 357.619 0.24955 -4.15551 0
M  V30 3551 H 358.152 -1.39397 -3.72577 0
M  V30 3552 H 354.891 -4.0139 -5.18234 0
M  V30 3553 H 354.411 -2.33584 -5.52448 0
M  V30 3554 H 356.09 -2.86086 -5.80314 0
M  V30 3555 N 356.222 1.38976 -0.743202 0
M  V30 3556 C 357.471 1.99581 -0.291592 0
M  V30 3557 C 357.784 1.59656 1.13001 0
M  V30 3558 O 358.99 2.13157 1.68156 0
M  V30 3559 C 357.446 3.56813 -0.470391 0
M  V30 3560 C 357.054 4.05695 -1.90041 0
M  V30 3561 C 358.798 4.24423 -0.0809709 0
M  V30 3562 C 356.705 5.5553 -2.02832 0
M  V30 3563 H 355.635 0.746615 -0.105272 0
M  V30 3564 H 358.286 1.58872 -0.918258 0
M  V30 3565 H 356.668 3.95359 0.225299 0
M  V30 3566 H 357.842 3.78464 -2.62872 0
M  V30 3567 H 356.157 3.50775 -2.24379 0
M  V30 3568 H 358.754 5.34474 -0.155445 0
M  V30 3569 H 359.097 4.04962 0.96497 0
M  V30 3570 H 359.63 3.9108 -0.728124 0
M  V30 3571 H 356.369 5.79881 -3.05643 0
M  V30 3572 H 355.889 5.84537 -1.34448 0
M  V30 3573 H 357.568 6.21069 -1.81335 0
M  V30 3574 N 357.7 0.491464 1.49741 0
M  V30 3575 C 358.663 -0.280906 2.27472 0
M  V30 3576 C 359.663 -0.902454 1.33088 0
M  V30 3577 O 360.853 -0.768465 1.56334 0
M  V30 3578 C 357.985 -1.40209 3.10732 0
M  V30 3579 H 359.178 0.401056 2.97206 0
M  V30 3580 H 356.731 0.246131 1.5435 0
M  V30 3581 H 357.466 -2.11849 2.45541 0
M  V30 3582 H 357.251 -0.961969 3.80117 0
M  V30 3583 H 358.741 -1.9464 3.69466 0
M  V30 3584 N 359.178 -1.55987 0.224894 0
M  V30 3585 C 360.426 -1.97998 -0.405099 0
M  V30 3586 C 360.747 -1.11387 -1.60056 0
M  V30 3587 O 360.017 -0.191645 -1.9496 0
M  V30 3588 H 358.597 -0.731235 -0.152658 0
M  V30 3589 H 361.259 -1.92279 0.318567 0
M  V30 3590 H 360.355 -3.03463 -0.729167 0
M  V30 3591 N 360.656 0.0484629 -1.57525 0
M  V30 3592 C 361.619 1.03956 -2.04269 0
M  V30 3593 C 362.619 1.30211 -0.943496 0
M  V30 3594 O 363.809 1.25539 -1.20771 0
M  V30 3595 C 360.941 2.37742 -2.44319 0
M  V30 3596 H 362.134 0.636182 -2.93075 0
M  V30 3597 H 359.687 0.294811 -1.53494 0
M  V30 3598 H 360.422 2.82866 -1.5861 0
M  V30 3599 H 360.207 2.20021 -3.24551 0
M  V30 3600 H 361.697 3.08936 -2.80978 0
M  V30 3601 N 362.134 1.5431 0.320358 0
M  V30 3602 C 363.064 1.86912 1.3995 0
M  V30 3603 C 364.045 0.726211 1.53819 0
M  V30 3604 O 365.23 0.980233 1.67646 0
M  V30 3605 C 362.36 2.09932 2.7667 0
M  V30 3606 C 361.314 3.25776 2.77586 0
M  V30 3607 C 360.64 3.34173 4.17412 0
M  V30 3608 C 361.94 4.6335 2.41048 0
M  V30 3609 H 363.634 2.77292 1.12914 0
M  V30 3610 H 361.18 1.33421 0.541738 0
M  V30 3611 H 363.133 2.31324 3.52232 0
M  V30 3612 H 361.857 1.16304 3.0519 0
M  V30 3613 H 360.516 3.04276 2.04479 0
M  V30 3614 H 360.164 2.38098 4.43078 0
M  V30 3615 H 359.864 4.12033 4.18931 0
M  V30 3616 H 361.388 3.57803 4.94782 0
M  V30 3617 H 362.802 4.84602 3.06324 0
M  V30 3618 H 361.199 5.43782 2.53813 0
M  V30 3619 H 362.269 4.65381 1.36193 0
M  V30 3620 N 363.613 -0.582584 1.46437 0
M  V30 3621 C 364.859 -1.34278 1.51978 0
M  V30 3622 C 365.192 -1.93446 0.170973 0
M  V30 3623 O 364.467 -1.76481 -0.817608 0
M  V30 3624 C 364.75 -2.47203 2.61845 0
M  V30 3625 C 364.603 -1.93069 4.06257 0
M  V30 3626 C 365.922 -3.49247 2.67795 0
M  V30 3627 H 363.041 -0.486876 0.553282 0
M  V30 3628 H 365.683 -0.654437 1.78374 0
M  V30 3629 H 363.833 -3.0592 2.39469 0
M  V30 3630 H 365.505 -1.38808 4.3992 0
M  V30 3631 H 363.748 -1.23898 4.1573 0
M  V30 3632 H 364.419 -2.74586 4.7886 0
M  V30 3633 H 366.895 -3.00411 2.8791 0
M  V30 3634 H 365.771 -4.25719 3.46489 0
M  V30 3635 H 366.032 -4.06482 1.73852 0
M  V30 3636 N 365.091 -1.34144 -0.827227 0
M  V30 3637 C 366.339 -1.26009 -1.58007 0
M  V30 3638 C 366.66 0.170971 -1.94249 0
M  V30 3639 O 365.93 1.10256 -1.61927 0
M  V30 3640 H 364.51 -0.463414 -0.585881 0
M  V30 3641 H 367.172 -1.68005 -0.987951 0
M  V30 3642 H 366.268 -1.86187 -2.50481 0
M  V30 3643 N 366.569 1.04691 -1.17803 0
M  V30 3644 C 367.794 1.81984 -0.994813 0
M  V30 3645 C 368.219 1.82586 0.452112 0
M  V30 3646 O 367.577 1.23854 1.324 0
M  V30 3647 C 367.625 3.2575 -1.54659 0
M  V30 3648 O 366.729 4.05267 -0.763728 0
M  V30 3649 H 366.07 0.562483 -0.352857 0
M  V30 3650 H 368.6 1.3189 -1.56417 0
M  V30 3651 H 368.61 3.76541 -1.57102 0
M  V30 3652 H 367.285 3.24627 -2.59981 0
M  V30 3653 H 365.862 3.63972 -0.811108 0
M  V30 3654 N 368.047 0.979072 1.23499 0
M  V30 3655 C 369.272 0.664845 1.96455 0
M  V30 3656 C 369.697 -0.761287 1.72006 0
M  V30 3657 O 369.055 -1.51837 0.990713 0
M  V30 3658 C 369.103 0.959479 3.47601 0
M  V30 3659 O 368.207 0.0508168 4.12369 0
M  V30 3660 H 367.548 0.250185 0.615064 0
M  V30 3661 H 370.078 1.31231 1.5697 0
M  V30 3662 H 370.088 0.895642 3.98048 0
M  V30 3663 H 368.763 1.99876 3.64723 0
M  V30 3664 H 367.34 0.16895 3.72517 0
M  V30 3665 N 369.525 -1.3858 0.750561 0
M  V30 3666 C 370.773 -1.99789 0.30477 0
M  V30 3667 C 371.094 -1.59874 -1.11649 0
M  V30 3668 O 370.364 -0.85417 -1.76297 0
M  V30 3669 H 368.944 -0.738902 0.109694 0
M  V30 3670 H 371.606 -1.69391 0.963983 0
M  V30 3671 H 370.702 -3.09952 0.365499 0
M  V30 3672 N 371.003 -0.499398 -1.49478 0
M  V30 3673 C 371.966 0.268838 -2.27618 0
M  V30 3674 C 372.966 0.895383 -1.33565 0
M  V30 3675 O 374.156 0.760164 -1.56739 0
M  V30 3676 C 371.288 1.38559 -3.11471 0
M  V30 3677 H 372.481 -0.416812 -2.96989 0
M  V30 3678 H 370.034 -0.254313 -1.54217 0
M  V30 3679 H 370.769 2.10544 -2.46661 0
M  V30 3680 H 370.554 0.941797 -3.80621 0
M  V30 3681 H 372.044 1.92678 -3.70493 0
M  V30 3682 N 372.481 1.55866 -0.233164 0
M  V30 3683 C 373.73 1.97779 0.39579 0
M  V30 3684 C 374.043 1.12419 1.60066 0
M  V30 3685 O 375.249 1.44283 2.29988 0
M  V30 3686 C 373.705 3.5188 0.755556 0
M  V30 3687 C 373.313 4.45959 -0.427152 0
M  V30 3688 C 375.057 4.02479 1.34946 0
M  V30 3689 C 372.964 5.91383 -0.0443043 0
M  V30 3690 H 371.894 0.738592 0.15165 0
M  V30 3691 H 374.545 1.80486 -0.331212 0
M  V30 3692 H 372.927 3.64816 1.5403 0
M  V30 3693 H 374.101 4.44776 -1.20462 0
M  V30 3694 H 372.416 4.05765 -0.935068 0
M  V30 3695 H 375.013 5.08637 1.649 0
M  V30 3696 H 375.356 3.49014 2.26925 0
M  V30 3697 H 375.889 3.92813 0.62791 0
M  V30 3698 H 372.628 6.48857 -0.930874 0
M  V30 3699 H 372.148 5.95734 0.697238 0
M  V30 3700 H 373.827 6.45893 0.378334 0
M  V30 3701 N 373.959 -0.0401083 1.57549 0
M  V30 3702 C 374.889 -1.04384 2.08869 0
M  V30 3703 C 375.87 -1.38407 0.988817 0
M  V30 3704 O 377.055 -1.47483 1.26342 0
M  V30 3705 C 374.185 -2.34808 2.55895 0
M  V30 3706 C 373.139 -2.15057 3.70047 0
M  V30 3707 C 372.465 -3.51145 4.03239 0
M  V30 3708 C 373.765 -1.54576 4.98902 0
M  V30 3709 H 375.459 -0.616666 2.92981 0
M  V30 3710 H 373.005 -0.295184 1.40942 0
M  V30 3711 H 374.958 -3.05346 2.90417 0
M  V30 3712 H 373.682 -2.79565 1.68853 0
M  V30 3713 H 372.341 -1.46954 3.35857 0
M  V30 3714 H 371.989 -3.93529 3.13279 0
M  V30 3715 H 371.689 -3.38758 4.80122 0
M  V30 3716 H 373.213 -4.23062 4.40285 0
M  V30 3717 H 374.627 -2.15017 5.31451 0
M  V30 3718 H 373.024 -1.52796 5.80322 0
M  V30 3719 H 374.094 -0.51039 4.82206 0
M  V30 3720 N 375.437 -1.54477 -0.31217 0
M  V30 3721 C 376.662 -1.77526 -1.07235 0
M  V30 3722 C 377.087 -0.527775 -1.80544 0
M  V30 3723 O 376.445 0.52121 -1.73646 0
M  V30 3724 C 376.493 -2.97535 -2.03728 0
M  V30 3725 O 375.597 -2.69878 -3.11833 0
M  V30 3726 H 374.938 -0.58792 -0.30862 0
M  V30 3727 H 377.468 -2.01532 -0.352993 0
M  V30 3728 H 377.478 -3.25198 -2.46395 0
M  V30 3729 H 376.153 -3.87996 -1.49774 0
M  V30 3730 H 374.73 -2.53199 -2.7376 0
M  V30 3731 N 376.915 0.57481 -1.46744 0
M  V30 3732 C 378.145 1.35659 -1.55821 0
M  V30 3733 C 378.553 1.88129 -0.201036 0
M  V30 3734 O 377.896 1.64723 0.813134 0
M  V30 3735 C 377.958 2.57473 -2.50894 0
M  V30 3736 C 377.622 2.26415 -3.9697 0
M  V30 3737 C 378.619 1.84771 -4.85958 0
M  V30 3738 C 376.304 2.38316 -4.42166 0
M  V30 3739 C 378.298 1.55434 -6.18158 0
M  V30 3740 C 375.985 2.08591 -5.74398 0
M  V30 3741 C 376.983 1.67216 -6.62214 0
M  V30 3742 O 376.671 1.37859 -7.91991 0
M  V30 3743 H 376.403 0.420496 -0.529301 0
M  V30 3744 H 378.957 0.704967 -1.92923 0
M  V30 3745 H 377.187 3.25468 -2.08824 0
M  V30 3746 H 378.876 3.19546 -2.50291 0
M  V30 3747 H 379.642 1.75085 -4.52295 0
M  V30 3748 H 375.521 2.69483 -3.74032 0
M  V30 3749 H 379.065 1.23065 -6.86659 0
M  V30 3750 H 374.962 2.17905 -6.07608 0
M  V30 3751 H 375.73 1.51638 -8.04331 0
M  V30 3752 N 378.394 1.34581 0.820102 0
M  V30 3753 C 379.643 1.26437 1.57151 0
M  V30 3754 C 379.956 -0.163111 1.94919 0
M  V30 3755 O 381.162 -0.366722 2.69012 0
M  V30 3756 C 379.618 2.21658 2.83541 0
M  V30 3757 C 379.226 3.69679 2.53065 0
M  V30 3758 C 380.97 2.22428 3.61561 0
M  V30 3759 C 378.877 4.56761 3.75664 0
M  V30 3760 H 377.807 0.469707 0.589823 0
M  V30 3761 H 380.458 1.59763 0.902656 0
M  V30 3762 H 378.84 1.81287 3.52067 0
M  V30 3763 H 380.014 4.18605 1.92631 0
M  V30 3764 H 378.329 3.71384 1.88316 0
M  V30 3765 H 380.926 2.8471 4.52597 0
M  V30 3766 H 381.269 1.22434 3.97889 0
M  V30 3767 H 381.802 2.61259 2.99981 0
M  V30 3768 H 378.541 5.57702 3.44454 0
M  V30 3769 H 378.061 4.12568 4.35371 0
M  V30 3770 H 379.74 4.71509 4.43044 0
M  V30 3771 N 379.872 -1.04064 1.18357 0
M  V30 3772 C 380.805 -2.11618 0.854 0
M  V30 3773 C 381.783 -1.61555 -0.184043 0
M  V30 3774 O 382.967 -1.88395 -0.0630048 0
M  V30 3775 C 380.094 -3.37574 0.27597 0
M  V30 3776 C 379.14 -4.06485 1.2912 0
M  V30 3777 S 379.973 -4.53543 2.84709 0
M  V30 3778 C 381.129 -5.82732 2.28417 0
M  V30 3779 H 381.362 -2.39247 1.76488 0
M  V30 3780 H 378.895 -1.16832 1.00944 0
M  V30 3781 H 380.853 -4.10468 -0.051026 0
M  V30 3782 H 379.514 -3.0806 -0.613028 0
M  V30 3783 H 378.707 -4.97024 0.835633 0
M  V30 3784 H 378.309 -3.39708 1.56443 0
M  V30 3785 H 380.601 -6.56677 1.66677 0
M  V30 3786 H 381.544 -6.33052 3.17256 0
M  V30 3787 H 381.952 -5.37838 1.71436 0
M  V30 3788 N 381.35 -0.985608 -1.22978 0
M  V30 3789 C 382.59 -0.665487 -1.93263 0
M  V30 3790 C 382.954 0.78706 -1.75127 0
M  V30 3791 O 384.155 1.21826 -2.39608 0
M  V30 3792 C 382.426 -1.0515 -3.41582 0
M  V30 3793 S 383.985 -0.848637 -4.30516 0
M  V30 3794 H 380.803 -0.24355 -0.667985 0
M  V30 3795 H 383.405 -1.26635 -1.48942 0
M  V30 3796 H 382.109 -2.10517 -3.52293 0
M  V30 3797 H 381.64 -0.442134 -3.90908 0
M  V30 3798 H 383.655 0.264717 -4.95493 0
M  V30 3799 N 382.828 1.3818 -0.7579 0
M  V30 3800 C 383.775 2.30416 -0.133057 0
M  V30 3801 C 384.745 1.50398 0.704957 0
M  V30 3802 O 385.93 1.79014 0.660192 0
M  V30 3803 C 383.07 3.36834 0.750813 0
M  V30 3804 C 382.183 4.31879 -0.102297 0
M  V30 3805 C 381.318 5.25368 0.784979 0
M  V30 3806 C 380.357 6.12058 -0.0715046 0
M  V30 3807 N 379.494 6.97832 0.772972 0
M  V30 3808 H 384.334 2.83274 -0.925186 0
M  V30 3809 H 381.871 1.39461 -0.467866 0
M  V30 3810 H 383.829 3.97145 1.27794 0
M  V30 3811 H 382.459 2.85374 1.50868 0
M  V30 3812 H 381.511 3.72991 -0.747095 0
M  V30 3813 H 382.823 4.92921 -0.763552 0
M  V30 3814 H 381.977 5.90818 1.37911 0
M  V30 3815 H 380.716 4.64703 1.47996 0
M  V30 3816 H 379.721 5.456 -0.678272 0
M  V30 3817 H 380.946 6.74793 -0.763606 0
M  V30 3818 H 378.892 6.3971 1.45282 0
M  V30 3819 H 378.809 7.55812 0.168709 0
M  V30 3820 H 380.077 7.67687 1.35194 0
M  V30 3821 N 384.306 0.507319 1.49211 0
M  V30 3822 C 385.554 -0.0348839 2.0207 0
M  V30 3823 C 385.875 -1.36898 1.38866 0
M  V30 3824 O 385.145 -1.88133 0.546151 0
M  V30 3825 H 383.725 -0.0158812 0.746831 0
M  V30 3826 H 386.387 0.665998 1.83168 0
M  V30 3827 H 385.483 -0.159917 3.1169 0
M  V30 3828 N 385.784 -1.5574 0.241426 0
M  V30 3829 C 386.717 -2.17168 -0.700935 0
M  V30 3830 C 387.695 -1.12206 -1.1768 0
M  V30 3831 O 388.879 -1.40565 -1.25593 0
M  V30 3832 C 386.006 -2.76796 -1.95196 0
M  V30 3833 C 385.052 -3.94764 -1.61442 0
M  V30 3834 S 385.885 -5.30613 -0.72182 0
M  V30 3835 C 387.041 -5.93691 -1.98197 0
M  V30 3836 H 387.274 -2.96761 -0.178882 0
M  V30 3837 H 384.807 -1.54378 0.0259299 0
M  V30 3838 H 386.765 -3.11787 -2.67019 0
M  V30 3839 H 385.426 -1.9716 -2.44514 0
M  V30 3840 H 384.619 -4.35057 -2.54443 0
M  V30 3841 H 384.221 -3.61022 -0.976672 0
M  V30 3842 H 386.513 -6.10874 -2.92983 0
M  V30 3843 H 387.456 -6.89258 -1.62262 0
M  V30 3844 H 387.864 -5.22709 -2.13156 0
M  V30 3845 N 387.262 0.0317525 -1.57568 0
M  V30 3846 C 388.21 1.05165 -2.07468 0
M  V30 3847 C 389.204 1.3761 -0.98792 0
M  V30 3848 O 390.41 1.36546 -1.17282 0
M  V30 3849 H 386.785 0.35666 -0.66204 0
M  V30 3850 H 388.756 0.604958 -2.92203 0
M  V30 3851 C 387.505 2.34488 -2.56731 0
M  V30 3852 H 386.828 2.10383 -3.39969 0
M  V30 3853 H 388.268 3.04203 -2.95358 0
M  V30 3854 C 386.727 3.03266 -1.46736 0
M  V30 3855 O 387.257 3.92988 -0.832069 0
M  V30 3856 N 385.463 2.6455 -1.20256 0
M  V30 3857 H 385.01 1.91674 -1.72102 0
M  V30 3858 H 384.968 3.10886 -0.468737 0
M  V30 3859 N 388.74 1.54641 0.303973 0
M  V30 3860 C 390.156 1.45788 0.649463 0
M  V30 3861 C 390.356 0.64666 1.90842 0
M  V30 3862 O 389.412 0.153183 2.52035 0
M  V30 3863 C 390.725 2.89718 0.805227 0
M  V30 3864 C 392.273 2.99742 0.901305 0
M  V30 3865 C 392.748 4.44863 1.08909 0
M  V30 3866 N 394.239 4.48559 1.15536 0
M  V30 3867 C 394.974 5.58026 1.3189 0
M  V30 3868 N 394.47 6.77422 1.45161 0
M  V30 3869 N 396.263 5.45708 1.34755 0
M  V30 3870 H 388.414 2.05854 -0.523237 0
M  V30 3871 H 390.677 0.932186 -0.172431 0
M  V30 3872 H 390.383 3.51666 -0.0489108 0
M  V30 3873 H 390.257 3.36964 1.69513 0
M  V30 3874 H 392.644 2.3791 1.74593 0
M  V30 3875 H 392.725 2.55797 -0.0125531 0
M  V30 3876 H 392.369 5.07288 0.249241 0
M  V30 3877 H 392.299 4.86436 2.01713 0
M  V30 3878 H 394.79 3.6254 1.06646 0
M  V30 3879 H 395.103 7.56604 1.57387 0
M  V30 3880 H 393.448 6.80292 1.42223 0
M  V30 3881 H 396.639 4.51378 1.23996 0
M  V30 3882 H 396.812 6.3107 1.47157 0
M  V30 3883 N 390.218 -0.567019 1.47046 0
M  V30 3884 C 391.443 -1.3551 1.57009 0
M  V30 3885 C 391.868 -1.86841 0.217259 0
M  V30 3886 O 391.226 -1.62435 -0.805268 0
M  V30 3887 C 391.274 -2.50777 2.5912 0
M  V30 3888 O 390.378 -3.52706 2.13711 0
M  V30 3889 H 389.719 -0.402919 0.52778 0
M  V30 3890 H 392.249 -0.686241 1.92748 0
M  V30 3891 H 392.259 -2.97481 2.79229 0
M  V30 3892 H 390.934 -2.12771 3.57353 0
M  V30 3893 H 389.511 -3.12374 2.03659 0
M  V30 3894 N 391.696 -1.35014 -0.812953 0
M  V30 3895 C 392.945 -1.27269 -1.56479 0
M  V30 3896 C 393.258 0.152771 -1.95002 0
M  V30 3897 O 394.464 0.352451 -2.69203 0
M  V30 3898 C 392.92 -2.23159 -2.82362 0
M  V30 3899 C 392.528 -3.71016 -2.511 0
M  V30 3900 C 394.272 -2.24342 -3.60376 0
M  V30 3901 C 392.179 -4.58746 -3.73237 0
M  V30 3902 H 391.109 -0.472829 -0.587324 0
M  V30 3903 H 393.76 -1.6024 -0.894171 0
M  V30 3904 H 392.142 -1.83151 -3.51101 0
M  V30 3905 H 393.316 -4.1962 -1.90409 0
M  V30 3906 H 391.631 -3.72378 -1.86343 0
M  V30 3907 H 394.228 -2.87107 -4.51081 0
M  V30 3908 H 394.571 -1.24542 -3.97234 0
M  V30 3909 H 395.104 -2.62846 -2.98591 0
M  V30 3910 H 391.843 -5.59521 -3.41492 0
M  V30 3911 H 391.363 -4.14871 -4.33176 0
M  V30 3912 H 393.042 -4.73852 -4.40537 0
M  V30 3913 N 393.175 1.03435 -1.18907 0
M  V30 3914 C 394.422 1.76743 -0.988334 0
M  V30 3915 C 394.75 1.88447 0.481441 0
M  V30 3916 O 394.005 1.39383 1.37371 0
M  V30 3917 C 394.304 3.19792 -1.59586 0
M  V30 3918 C 393.97 3.28108 -3.09283 0
M  V30 3919 C 392.632 3.30084 -3.5014 0
M  V30 3920 C 394.984 3.27696 -4.05296 0
M  V30 3921 C 392.312 3.29299 -4.85571 0
M  V30 3922 C 394.664 3.28451 -5.4065 0
M  V30 3923 C 393.328 3.28723 -5.80946 0
M  V30 3924 H 392.598 0.64675 -0.361657 0
M  V30 3925 H 395.245 1.21442 -1.48068 0
M  V30 3926 H 393.55 3.78136 -1.02568 0
M  V30 3927 H 395.247 3.75171 -1.41589 0
M  V30 3928 H 391.837 3.27294 -2.76725 0
M  V30 3929 H 396.021 3.25354 -3.74778 0
M  V30 3930 H 391.277 3.2783 -5.16079 0
M  V30 3931 H 395.451 3.27082 -6.14809 0
M  V30 3932 H 393.078 3.27868 -6.85862 0
M  V30 3933 N 394.653 0.992116 1.22453 0
M  V30 3934 C 395.601 0.534644 2.26372 0
M  V30 3935 C 396.595 -0.414293 1.64256 0
M  V30 3936 O 397.801 -0.286899 1.77699 0
M  V30 3937 H 394.176 0.154502 0.735957 0
M  V30 3938 H 396.147 1.42256 2.62309 0
M  V30 3939 C 394.896 -0.135815 3.47435 0
M  V30 3940 H 394.219 0.585311 3.95492 0
M  V30 3941 H 395.659 -0.419374 4.21921 0
M  V30 3942 C 394.118 -1.37089 3.07747 0
M  V30 3943 O 394.648 -2.46629 3.17076 0
M  V30 3944 N 392.854 -1.24585 2.62539 0
M  V30 3945 H 392.401 -0.354542 2.55149 0
M  V30 3946 H 392.359 -2.07327 2.36353 0
M  V30 3947 N 396.131 -1.37776 0.765217 0
M  V30 3948 C 397.377 -2.00145 0.327072 0
M  V30 3949 C 397.71 -1.60607 -1.09175 0
M  V30 3950 O 396.985 -0.849127 -1.74986 0
M  V30 3951 C 397.268 -3.57109 0.46319 0
M  V30 3952 C 397.121 -4.06576 1.92395 0
M  V30 3953 C 398.44 -4.39888 -0.136473 0
M  V30 3954 H 395.559 -0.727113 0.120316 0
M  V30 3955 H 398.201 -1.63549 0.967039 0
M  V30 3956 H 396.351 -3.88414 -0.0816358 0
M  V30 3957 H 398.023 -3.85864 2.52798 0
M  V30 3958 H 396.266 -3.59011 2.43503 0
M  V30 3959 H 396.937 -5.15639 1.97028 0
M  V30 3960 H 399.413 -4.14803 0.328317 0
M  V30 3961 H 398.289 -5.48899 -0.0110582 0
M  V30 3962 H 398.55 -4.24758 -1.22608 0
M  V30 3963 N 397.609 -0.515225 -1.4894 0
M  V30 3964 C 398.858 0.0261361 -2.01683 0
M  V30 3965 C 399.171 1.36719 -1.39883 0
M  V30 3966 O 400.377 1.99606 -1.84037 0
M  V30 3967 C 398.833 0.0970111 -3.59769 0
M  V30 3968 C 398.441 -1.23825 -4.30548 0
M  V30 3969 C 400.185 0.587981 -4.20408 0
M  V30 3970 C 398.092 -1.12877 -5.80528 0
M  V30 3971 H 397.022 0.0135398 -0.753878 0
M  V30 3972 H 399.673 -0.656787 -1.71343 0
M  V30 3973 H 398.055 0.844694 -3.86886 0
M  V30 3974 H 399.229 -2.00034 -4.15118 0
M  V30 3975 H 397.544 -1.66379 -3.81716 0
M  V30 3976 H 400.141 0.68763 -5.3026 0
M  V30 3977 H 400.484 1.59026 -3.84729 0
M  V30 3978 H 401.017 -0.103582 -3.97665 0
M  V30 3979 H 397.756 -2.10575 -6.20756 0
M  V30 3980 H 397.276 -0.407799 -5.98412 0
M  V30 3981 H 398.955 -0.813332 -6.41868 0
M  V30 3982 N 399.087 1.5561 -0.249682 0
M  V30 3983 C 400.017 2.24477 0.642826 0
M  V30 3984 C 400.998 1.22601 1.17911 0
M  V30 3985 O 402.183 1.5126 1.21795 0
M  V30 3986 C 399.313 2.94638 1.83863 0
M  V30 3987 C 398.267 4.03227 1.435 0
M  V30 3988 C 397.593 4.60828 2.71186 0
M  V30 3989 C 398.893 5.18796 0.604002 0
M  V30 3990 H 400.587 2.99321 0.0685625 0
M  V30 3991 H 398.133 1.43965 0.0315363 0
M  V30 3992 H 400.086 3.41517 2.46868 0
M  V30 3993 H 398.81 2.17287 2.43832 0
M  V30 3994 H 397.469 3.57121 0.828275 0
M  V30 3995 H 397.117 3.80174 3.29358 0
M  V30 3996 H 396.817 5.34132 2.44901 0
M  V30 3997 H 398.341 5.10442 3.35084 0
M  V30 3998 H 399.755 5.61883 1.13842 0
M  V30 3999 H 398.152 5.98506 0.437097 0
M  V30 4000 H 399.222 4.83384 -0.383147 0
M  V30 4001 N 400.565 -0.0233959 1.57583 0
M  V30 4002 C 401.813 -0.711654 1.89156 0
M  V30 4003 C 402.134 -1.75591 0.848096 0
M  V30 4004 O 401.404 -1.95547 -0.117566 0
M  V30 4005 H 399.984 -0.265835 0.698098 0
M  V30 4006 H 402.646 0.0119948 1.94896 0
M  V30 4007 H 401.742 -1.19766 2.88206 0
M  V30 4008 N 402.043 -1.548 -0.295768 0
M  V30 4009 C 403.291 -1.73985 -1.02828 0
M  V30 4010 C 403.612 -0.531406 -1.87619 0
M  V30 4011 O 402.882 0.454221 -1.90561 0
M  V30 4012 H 401.462 -0.641556 -0.382642 0
M  V30 4013 H 404.124 -1.92163 -0.325489 0
M  V30 4014 H 403.22 -2.63129 -1.67838 0
M  V30 4015 N 403.521 0.559213 -1.47345 0
M  V30 4016 C 404.768 1.31648 -1.53867 0
M  V30 4017 C 405.096 1.93468 -0.200104 0
M  V30 4018 O 404.351 1.78295 0.806799 0
M  V30 4019 C 404.65 2.44853 -2.6035 0
M  V30 4020 C 404.316 2.00876 -4.03683 0
M  V30 4021 C 402.978 1.88599 -4.42701 0
M  V30 4022 C 405.33 1.67279 -4.93626 0
M  V30 4023 C 402.658 1.41017 -5.69501 0
M  V30 4024 C 405.01 1.21169 -6.20887 0
M  V30 4025 C 403.674 1.07487 -6.58789 0
M  V30 4026 H 402.944 0.481734 -0.56304 0
M  V30 4027 H 405.591 0.627301 -1.80934 0
M  V30 4028 H 403.896 3.19318 -2.27032 0
M  V30 4029 H 405.593 3.03039 -2.62619 0
M  V30 4030 H 402.183 2.11374 -3.72853 0
M  V30 4031 H 406.367 1.75638 -4.64182 0
M  V30 4032 H 401.623 1.29086 -5.97618 0
M  V30 4033 H 405.797 0.942345 -6.89995 0
M  V30 4034 H 403.424 0.703946 -7.56934 0
M  V30 4035 N 404.999 1.35443 0.805782 0
M  V30 4036 C 406.247 1.28507 1.55982 0
M  V30 4037 C 406.568 -0.140046 1.94496 0
M  V30 4038 O 405.838 -1.07666 1.63661 0
M  V30 4039 H 404.418 0.472676 0.578434 0
M  V30 4040 H 407.08 1.69555 0.961098 0
M  V30 4041 H 406.176 1.90148 2.47488 0
M  V30 4042 N 406.477 -1.02803 1.19454 0
M  V30 4043 C 407.702 -1.80378 1.02364 0
M  V30 4044 C 408.127 -1.83282 -0.423007 0
M  V30 4045 O 407.485 -1.25945 -1.30413 0
M  V30 4046 C 407.533 -3.23248 1.59821 0
M  V30 4047 O 406.637 -4.04 0.828105 0
M  V30 4048 H 405.978 -0.556799 0.361761 0
M  V30 4049 H 408.508 -1.29385 1.58495 0
M  V30 4050 H 408.518 -3.73994 1.63073 0
M  V30 4051 H 407.193 -3.2045 2.65113 0
M  V30 4052 H 405.77 -3.62635 0.86891 0
M  V30 4053 N 407.956 -0.998596 -1.21925 0
M  V30 4054 C 408.866 -0.562736 -2.27751 0
M  V30 4055 C 409.882 0.391203 -1.69545 0
M  V30 4056 O 411.058 0.256625 -1.99758 0
M  V30 4057 C 408.123 0.11012 -3.46525 0
M  V30 4058 C 407.184 -0.887495 -4.20026 0
M  V30 4059 C 406.417 -0.246654 -5.3313 0
M  V30 4060 O 406.64 0.958088 -5.62296 0
M  V30 4061 O 405.574 -0.954374 -5.94286 0
M  V30 4062 H 409.4 -1.44329 -2.67213 0
M  V30 4063 H 406.985 -0.767135 -1.28201 0
M  V30 4064 H 408.867 0.486756 -4.18579 0
M  V30 4065 H 407.542 0.965154 -3.08976 0
M  V30 4066 H 406.449 -1.31517 -3.5022 0
M  V30 4067 H 407.782 -1.71191 -4.6147 0
M  V30 4068 N 409.434 1.37368 -0.772513 0
M  V30 4069 C 410.682 1.99279 -0.336516 0
M  V30 4070 C 411.003 1.6163 1.09091 0
M  V30 4071 O 410.273 0.882109 1.74916 0
M  V30 4072 H 408.853 0.737063 -0.121435 0
M  V30 4073 H 411.515 1.67836 -0.990809 0
M  V30 4074 H 410.611 3.09332 -0.414763 0
M  V30 4075 N 410.912 0.523116 1.48665 0
M  V30 4076 C 412.16 -0.0134497 2.02096 0
M  V30 4077 C 412.481 -1.35418 1.40311 0
M  V30 4078 O 411.751 -1.87543 0.566074 0
M  V30 4079 H 410.331 -0.00795915 0.746958 0
M  V30 4080 H 412.993 0.685388 1.82451 0
M  V30 4081 H 412.089 -0.126849 3.11842 0
M  V30 4082 N 412.39 -1.55475 0.257931 0
M  V30 4083 C 413.636 -1.99502 -0.364266 0
M  V30 4084 C 413.969 -1.146 -1.56782 0
M  V30 4085 O 413.244 -0.211968 -1.93342 0
M  V30 4086 C 413.527 -3.51917 -0.763333 0
M  V30 4087 C 413.38 -4.4758 0.446371 0
M  V30 4088 C 414.699 -4.09742 -1.60623 0
M  V30 4089 H 411.818 -0.725277 -0.130929 0
M  V30 4090 H 414.46 -1.8653 0.361446 0
M  V30 4091 H 412.61 -3.63101 -1.38166 0
M  V30 4092 H 414.282 -4.48362 1.08487 0
M  V30 4093 H 412.525 -4.19947 1.08753 0
M  V30 4094 H 413.196 -5.51862 0.123645 0
M  V30 4095 H 415.672 -4.01727 -1.08418 0
M  V30 4096 H 414.548 -5.16631 -1.85429 0
M  V30 4097 H 414.809 -3.58889 -2.58169 0
M  V30 4098 N 413.868 0.0150385 -1.57593 0
M  V30 4099 C 414.831 0.995996 -2.06428 0
M  V30 4100 C 415.831 1.2818 -0.970903 0
M  V30 4101 O 417.021 1.22949 -1.23406 0
M  V30 4102 C 414.153 2.32506 -2.49307 0
M  V30 4103 H 415.346 0.573873 -2.94358 0
M  V30 4104 H 412.899 0.262186 -1.54085 0
M  V30 4105 H 413.634 2.79438 -1.64575 0
M  V30 4106 H 413.419 2.13087 -3.29145 0
M  V30 4107 H 414.909 3.02906 -2.87468 0
M  V30 4108 N 415.346 1.54954 0.287554 0
M  V30 4109 C 416.309 1.86076 1.33823 0
M  V30 4110 C 417.309 0.734414 1.43049 0
M  V30 4111 O 418.499 1.00266 1.42452 0
M  V30 4112 C 415.631 2.05305 2.72144 0
M  V30 4113 H 416.824 2.79984 1.07465 0
M  V30 4114 H 414.377 1.47223 0.524902 0
M  V30 4115 H 415.112 1.1373 3.03704 0
M  V30 4116 H 414.897 2.873 2.66836 0
M  V30 4117 H 416.387 2.30706 3.48087 0
M  V30 4118 N 416.824 -0.551391 1.4764 0
M  V30 4119 C 417.787 -1.64007 1.60107 0
M  V30 4120 C 418.787 -1.53601 0.47576 0
M  V30 4121 O 419.977 -1.57655 0.740988 0
M  V30 4122 C 417.109 -3.03569 1.55108 0
M  V30 4123 H 418.302 -1.543 2.57161 0
M  V30 4124 H 415.855 -0.771776 1.35917 0
M  V30 4125 H 416.59 -3.18804 0.594519 0
M  V30 4126 H 416.375 -3.12532 2.36783 0
M  V30 4127 H 417.865 -3.82762 1.66982 0
M  V30 4128 N 418.302 -1.35869 -0.798587 0
M  V30 4129 C 419.55 -1.29332 -1.55298 0
M  V30 4130 C 419.871 0.129729 -1.94568 0
M  V30 4131 O 419.141 1.06796 -1.6423 0
M  V30 4132 H 417.721 -0.475737 -0.57592 0
M  V30 4133 H 420.383 -1.70062 -0.952093 0
M  V30 4134 H 419.479 -1.91458 -2.46476 0
M  V30 4135 N 419.78 1.02168 -1.19998 0
M  V30 4136 C 421.028 1.75338 -1.00504 0
M  V30 4137 C 421.349 1.89387 0.464506 0
M  V30 4138 O 420.619 1.43268 1.33608 0
M  V30 4139 H 419.199 0.649564 -0.368885 0
M  V30 4140 H 421.861 1.23205 -1.51018 0
M  V30 4141 H 420.957 2.75892 -1.45912 0
M  V30 4142 N 421.258 1.00505 1.21394 0
M  V30 4143 C 422.221 0.570459 2.21987 0
M  V30 4144 C 423.221 -0.353211 1.56873 0
M  V30 4145 O 424.411 -0.14349 1.73608 0
M  V30 4146 C 421.543 -0.168555 3.40483 0
M  V30 4147 H 422.736 1.46021 2.6195 0
M  V30 4148 H 420.289 0.793565 1.34656 0
M  V30 4149 H 421.024 -1.07374 3.06009 0
M  V30 4150 H 420.809 0.494823 3.88965 0
M  V30 4151 H 422.299 -0.460362 4.15055 0
M  V30 4152 N 422.737 -1.36956 0.779787 0
M  V30 4153 C 423.7 -2.2851 0.177662 0
M  V30 4154 C 424.7 -1.48393 -0.619377 0
M  V30 4155 O 425.89 -1.68505 -0.441785 0
M  V30 4156 C 423.022 -3.32428 -0.755279 0
M  V30 4157 H 424.215 -2.83269 0.984823 0
M  V30 4158 H 421.768 -1.46358 0.548544 0
M  V30 4159 H 422.503 -2.82808 -1.58714 0
M  V30 4160 H 422.288 -3.91659 -0.185817 0
M  V30 4161 H 423.778 -4.00824 -1.17174 0
M  V30 4162 N 424.215 -0.530993 -1.48385 0
M  V30 4163 C 425.463 0.00273189 -2.021 0
M  V30 4164 C 425.784 1.34672 -1.41027 0
M  V30 4165 O 425.054 1.8724 -0.576012 0
M  V30 4166 H 423.634 0.00399774 -0.746989 0
M  V30 4167 H 426.296 -0.695054 -1.82085 0
M  V30 4168 H 425.392 0.11031 -3.11905 0
M  V30 4169 N 425.693 1.55336 -0.266172 0
M  V30 4170 C 426.97 1.91372 0.404486 0
M  V30 4171 C 427.35 1.18935 1.74407 0
M  V30 4172 O 426.698 0.3132 2.26343 0
M  V30 4173 C 426.908 3.44581 0.553593 0
M  V30 4174 C 428.256 4.16196 0.840618 0
M  V30 4175 O 429.28 3.50426 0.638739 0
M  V30 4176 O 428.139 5.32567 1.22618 0
M  V30 4177 H 425.233 0.797194 0.220025 0
M  V30 4178 H 427.779 1.66813 -0.311664 0
M  V30 4179 H 426.551 3.89357 -0.389498 0
M  V30 4180 H 426.174 3.75065 1.31955 0
M  V30 4181 N 427.171 -0.0066808 1.57599 0
M  V30 4182 C 428.587 -0.36267 1.55425 0
M  V30 4183 C 428.787 -1.75209 0.995187 0
M  V30 4184 O 427.843 -2.44616 0.626058 0
M  V30 4185 C 429.156 -0.244017 2.99708 0
M  V30 4186 C 430.704 -0.319451 3.11366 0
M  V30 4187 C 431.179 -0.229998 4.57422 0
M  V30 4188 N 432.67 -0.288105 4.62303 0
M  V30 4189 C 433.405 -0.242127 5.72889 0
M  V30 4190 N 432.901 -0.147133 6.92644 0
M  V30 4191 N 434.694 -0.293502 5.61333 0
M  V30 4192 H 426.845 0.902314 1.92281 0
M  V30 4193 H 429.108 0.34525 0.882896 0
M  V30 4194 H 428.814 0.711678 3.44424 0
M  V30 4195 H 428.688 -1.02877 3.629 0
M  V30 4196 H 431.075 -1.26559 2.66584 0
M  V30 4197 H 431.156 0.495055 2.50964 0
M  V30 4198 H 430.8 0.712566 5.02877 0
M  V30 4199 H 430.73 -1.0629 5.15761 0
M  V30 4200 H 433.221 -0.363126 3.76151 0
M  V30 4201 H 433.534 -0.117763 7.7271 0
M  V30 4202 H 431.879 -0.112857 6.94908 0
M  V30 4203 H 435.07 -0.365864 4.66668 0
M  V30 4204 H 435.243 -0.254204 6.47501 0
M  V30 4205 N 428.649 -1.55105 -0.279332 0
M  V30 4206 C 429.874 -1.7976 -1.03446 0
M  V30 4207 C 430.299 -0.565952 -1.79384 0
M  V30 4208 O 429.657 0.484259 -1.74713 0
M  V30 4209 C 429.705 -3.0179 -1.97371 0
M  V30 4210 O 428.809 -2.76432 -3.06038 0
M  V30 4211 H 428.15 -0.594334 -0.29608 0
M  V30 4212 H 430.68 -2.02235 -0.310165 0
M  V30 4213 H 430.69 -3.30351 -2.39441 0
M  V30 4214 H 429.365 -3.91085 -1.4151 0
M  V30 4215 H 427.942 -2.58949 -2.68328 0
M  V30 4216 N 430.127 0.543554 -1.4793 0
M  V30 4217 C 431.373 1.30201 -1.55485 0
M  V30 4218 C 431.706 1.92925 -0.222201 0
M  V30 4219 O 430.981 1.78586 0.77053 0
M  V30 4220 C 431.264 2.40174 -2.68307 0
M  V30 4221 C 431.117 1.8223 -4.11233 0
M  V30 4222 C 432.436 3.42024 -2.76961 0
M  V30 4223 H 429.555 0.472036 -0.565996 0
M  V30 4224 H 432.197 0.606914 -1.80046 0
M  V30 4225 H 430.347 2.99463 -2.47495 0
M  V30 4226 H 432.019 1.27096 -4.43446 0
M  V30 4227 H 430.262 1.12832 -4.18869 0
M  V30 4228 H 430.933 2.61793 -4.85972 0
M  V30 4229 H 433.409 2.92672 -2.95774 0
M  V30 4230 H 432.285 4.16383 -3.57654 0
M  V30 4231 H 432.546 4.0173 -1.84568 0
M  V30 4232 N 431.605 1.3629 0.791371 0
M  V30 4233 C 432.552 1.30458 1.90393 0
M  V30 4234 C 433.522 0.173632 1.6519 0
M  V30 4235 O 434.707 0.35983 1.87376 0
M  V30 4236 C 431.847 1.09777 3.27174 0
M  V30 4237 C 430.96 2.31929 3.64462 0
M  V30 4238 C 430.095 2.04276 4.90352 0
M  V30 4239 C 429.134 3.224 5.20312 0
M  V30 4240 N 428.271 2.94424 6.37385 0
M  V30 4241 H 433.111 2.25589 1.94714 0
M  V30 4242 H 430.648 1.12122 0.952216 0
M  V30 4243 H 432.606 0.958133 4.06049 0
M  V30 4244 H 431.236 0.183014 3.22281 0
M  V30 4245 H 430.288 2.56703 2.80727 0
M  V30 4246 H 431.6 3.20085 3.82553 0
M  V30 4247 H 430.754 1.87231 5.77087 0
M  V30 4248 H 429.493 1.13428 4.74326 0
M  V30 4249 H 428.498 3.40005 4.32061 0
M  V30 4250 H 429.723 4.14071 5.38258 0
M  V30 4251 H 427.669 2.06185 6.22755 0
M  V30 4252 H 427.586 3.76118 6.55798 0
M  V30 4253 H 428.854 2.80953 7.27108 0
M  V30 4254 N 433.083 -1.0153 1.20538 0
M  V30 4255 C 434.046 -2.0826 0.957098 0
M  V30 4256 C 435.046 -1.60657 -0.0678655 0
M  V30 4257 O 436.236 -1.73385 0.168332 0
M  V30 4258 C 433.368 -3.38033 0.441188 0
M  V30 4259 H 434.561 -2.31719 1.90384 0
M  V30 4260 H 432.114 -1.1835 1.02093 0
M  V30 4261 H 432.849 -3.20249 -0.510961 0
M  V30 4262 H 432.634 -3.73911 1.18038 0
M  V30 4263 H 434.124 -4.16613 0.287009 0
M  V30 4264 N 434.561 -1.01147 -1.20859 0
M  V30 4265 C 435.809 -0.696486 -1.89719 0
M  V30 4266 C 436.13 0.775788 -1.78904 0
M  V30 4267 O 435.4 1.55759 -1.18811 0
M  V30 4268 H 433.98 -0.254628 -0.702263 0
M  V30 4269 H 436.642 -1.28197 -1.46804 0
M  V30 4270 H 435.738 -0.975357 -2.96468 0
M  V30 4271 N 436.039 1.36541 -0.78704 0
M  V30 4272 C 437.264 2.0409 -0.369053 0
M  V30 4273 C 437.689 1.58957 1.00569 0
M  V30 4274 O 437.047 0.756926 1.64743 0
M  V30 4275 C 437.095 3.57924 -0.438466 0
M  V30 4276 O 436.199 4.08642 0.555479 0
M  V30 4277 H 435.54 0.645142 -0.157122 0
M  V30 4278 H 438.07 1.74545 -1.06749 0
M  V30 4279 H 438.08 4.06887 -0.301218 0
M  V30 4280 H 436.755 3.90127 -1.44132 0
M  V30 4281 H 435.332 3.70958 0.380088 0
M  V30 4282 N 437.518 0.538854 1.48102 0
M  V30 4283 C 438.481 -0.208395 2.28251 0
M  V30 4284 C 439.481 -0.859656 1.35892 0
M  V30 4285 O 440.671 -0.71834 1.58699 0
M  V30 4286 C 437.803 -1.30252 3.15035 0
M  V30 4287 H 438.996 0.495407 2.9578 0
M  V30 4288 H 436.549 0.295112 1.53489 0
M  V30 4289 H 437.284 -2.0393 2.52157 0
M  V30 4290 H 437.069 -0.840551 3.82985 0
M  V30 4291 H 438.559 -1.82787 3.75471 0
M  V30 4292 N 438.996 -1.55193 0.274407 0
M  V30 4293 C 439.906 -2.26164 -0.623473 0
M  V30 4294 C 440.922 -1.28729 -1.17068 0
M  V30 4295 O 442.098 -1.61663 -1.20112 0
M  V30 4296 C 439.163 -2.96833 -1.7914 0
M  V30 4297 C 438.224 -4.09745 -1.28093 0
M  V30 4298 C 437.457 -4.77034 -2.3932 0
M  V30 4299 O 437.68 -4.4353 -3.5866 0
M  V30 4300 O 436.614 -5.64996 -2.07516 0
M  V30 4301 H 440.44 -3.03661 -0.0485661 0
M  V30 4302 H 438.025 -1.49341 0.0418382 0
M  V30 4303 H 439.907 -3.41248 -2.4724 0
M  V30 4304 H 438.582 -2.22253 -2.35341 0
M  V30 4305 H 437.489 -3.69787 -0.566416 0
M  V30 4306 H 438.822 -4.86224 -0.764683 0
M  V30 4307 N 440.474 -0.00167713 -1.576 0
M  V30 4308 C 441.751 0.719951 -1.81868 0
M  V30 4309 C 442.131 1.91895 -0.879747 0
M  V30 4310 O 441.479 2.28389 0.0711423 0
M  V30 4311 C 441.689 1.12409 -3.30402 0
M  V30 4312 C 443.037 1.52724 -3.96182 0
M  V30 4313 O 444.061 1.21784 -3.34734 0
M  V30 4314 O 442.92 2.10265 -5.04431 0
M  V30 4315 H 440.014 0.350707 -0.748955 0
M  V30 4316 H 442.56 -0.0272597 -1.69678 0
M  V30 4317 H 441.332 0.269532 -3.90371 0
M  V30 4318 H 440.955 1.93035 -3.47596 0
M  V30 4319 N 441.952 1.55251 0.271103 0
M  V30 4320 C 442.915 1.87484 1.31842 0
M  V30 4321 C 443.915 0.749545 1.42262 0
M  V30 4322 O 445.105 1.01771 1.4138 0
M  V30 4323 C 442.237 2.0818 2.69951 0
M  V30 4324 H 443.43 2.81108 1.0449 0
M  V30 4325 H 440.983 1.47771 0.509258 0
M  V30 4326 H 441.718 1.16944 3.02481 0
M  V30 4327 H 441.503 2.90114 2.63774 0
M  V30 4328 H 442.993 2.34385 3.4562 0
M  V30 4329 N 443.43 -0.535701 1.48216 0
M  V30 4330 C 444.393 -1.623 1.61838 0
M  V30 4331 C 445.393 -1.53087 0.492024 0
M  V30 4332 O 446.583 -1.5686 0.757668 0
M  V30 4333 C 443.715 -3.01907 1.58319 0
M  V30 4334 H 444.908 -1.51564 2.58783 0
M  V30 4335 H 442.461 -0.757317 1.36727 0
M  V30 4336 H 443.196 -3.18155 0.628299 0
M  V30 4337 H 442.981 -3.10003 2.40085 0
M  V30 4338 H 444.471 -3.80969 1.71033 0
M  V30 4339 N 444.908 -1.36708 -0.784132 0
M  V30 4340 C 446.155 -1.31231 -1.54222 0
M  V30 4341 C 446.483 0.106864 -1.94206 0
M  V30 4342 O 445.738 1.07734 -1.63376 0
M  V30 4343 C 446.037 -2.18571 -2.82774 0
M  V30 4344 C 445.703 -3.67039 -2.61903 0
M  V30 4345 C 444.365 -4.07503 -2.55919 0
M  V30 4346 C 446.717 -4.61149 -2.4288 0
M  V30 4347 C 444.045 -5.40211 -2.28886 0
M  V30 4348 C 446.397 -5.94081 -2.17373 0
M  V30 4349 C 445.061 -6.33664 -2.09825 0
M  V30 4350 H 444.331 -0.48021 -0.56434 0
M  V30 4351 H 446.978 -1.68807 -0.904233 0
M  V30 4352 H 445.283 -1.73949 -3.51068 0
M  V30 4353 H 446.98 -2.11655 -3.40592 0
M  V30 4354 H 443.57 -3.34941 -2.67418 0
M  V30 4355 H 447.754 -4.30756 -2.46501 0
M  V30 4356 H 443.01 -5.69855 -2.21529 0
M  V30 4357 H 447.184 -6.66566 -2.01649 0
M  V30 4358 H 444.811 -7.36423 -1.88641 0
M  V30 4359 N 446.386 1.0089 -1.21074 0
M  V30 4360 C 447.635 1.74019 -1.01981 0
M  V30 4361 C 447.948 1.90408 0.447665 0
M  V30 4362 O 449.154 2.60707 0.757906 0
M  V30 4363 C 447.61 3.13026 -1.77603 0
M  V30 4364 C 447.218 3.04623 -3.28495 0
M  V30 4365 C 448.962 3.90312 -1.66904 0
M  V30 4366 C 446.869 4.38685 -3.96623 0
M  V30 4367 H 445.799 0.652422 -0.377971 0
M  V30 4368 H 448.45 1.12755 -1.44771 0
M  V30 4369 H 446.832 3.74878 -1.27604 0
M  V30 4370 H 448.006 2.52032 -3.85767 0
M  V30 4371 H 446.321 2.40827 -3.39693 0
M  V30 4372 H 448.918 4.8951 -2.15138 0
M  V30 4373 H 449.261 4.11558 -0.62658 0
M  V30 4374 H 449.794 3.35104 -2.14359 0
M  V30 4375 H 446.533 4.22641 -5.01054 0
M  V30 4376 H 446.053 4.91252 -3.4414 0
M  V30 4377 H 447.732 5.075 -4.01314 0
M  V30 4378 N 447.864 1.01787 1.20321 0
M  V30 4379 C 448.797 0.533882 2.21867 0
M  V30 4380 C 449.775 -0.419361 1.57099 0
M  V30 4381 O 450.959 -0.339062 1.85426 0
M  V30 4382 C 448.086 -0.222899 3.37966 0
M  V30 4383 C 447.132 0.680091 4.21043 0
M  V30 4384 S 447.965 2.14997 4.90445 0
M  V30 4385 C 449.121 1.40339 6.09964 0
M  V30 4386 H 449.354 1.39429 2.62577 0
M  V30 4387 H 446.887 0.826867 1.30393 0
M  V30 4388 H 448.845 -0.653425 4.05266 0
M  V30 4389 H 447.506 -1.0589 2.95713 0
M  V30 4390 H 446.699 0.0964704 5.03908 0
M  V30 4391 H 446.301 1.04845 3.59004 0
M  V30 4392 H 448.593 0.68407 6.74038 0
M  V30 4393 H 449.536 2.20823 6.72787 0
M  V30 4394 H 449.944 0.905716 5.57187 0
M  V30 4395 N 449.342 -1.36122 0.79427 0
M  V30 4396 C 450.289 -2.29982 0.194101 0
M  V30 4397 C 451.259 -1.52214 -0.664833 0
M  V30 4398 O 452.444 -1.80702 -0.612498 0
M  V30 4399 C 449.584 -3.38706 -0.661244 0
M  V30 4400 C 448.697 -4.31456 0.216766 0
M  V30 4401 C 447.832 -5.27265 -0.645411 0
M  V30 4402 C 446.871 -6.11653 0.233756 0
M  V30 4403 N 446.008 -6.99636 -0.587682 0
M  V30 4404 H 450.848 -2.80722 0.999965 0
M  V30 4405 H 448.385 -1.38172 0.504677 0
M  V30 4406 H 450.343 -4.00394 -1.17219 0
M  V30 4407 H 448.973 -2.89274 -1.43249 0
M  V30 4408 H 448.025 -3.7088 0.845724 0
M  V30 4409 H 449.337 -4.90724 0.893973 0
M  V30 4410 H 448.491 -5.94266 -1.22198 0
M  V30 4411 H 447.23 -4.68463 -1.35623 0
M  V30 4412 H 446.235 -5.4361 0.82269 0
M  V30 4413 H 447.46 -6.72531 0.942247 0
M  V30 4414 H 445.406 -6.43337 -1.2827 0
M  V30 4415 H 445.323 -7.55993 0.0317402 0
M  V30 4416 H 446.591 -7.71001 -1.14792 0
M  V30 4417 N 450.82 -0.546701 -1.47814 0
M  V30 4418 C 451.768 0.220048 -2.31557 0
M  V30 4419 C 452.762 0.919472 -1.42275 0
M  V30 4420 O 453.968 0.841953 -1.59095 0
M  V30 4421 H 450.343 0.0898334 -0.746615 0
M  V30 4422 H 452.314 -0.505589 -2.94086 0
M  V30 4423 C 451.063 1.24353 -3.24702 0
M  V30 4424 H 450.386 0.714758 -3.93359 0
M  V30 4425 H 451.826 1.75112 -3.8615 0
M  V30 4426 C 450.285 2.28593 -2.47481 0
M  V30 4427 O 450.815 3.35334 -2.21165 0
M  V30 4428 N 449.021 2.02244 -2.08676 0
M  V30 4429 H 448.568 1.15455 -2.30278 0
M  V30 4430 H 448.526 2.72207 -1.57323 0
M  V30 4431 N 452.299 1.55045 -0.282633 0
M  V30 4432 C 453.262 2.21515 0.588539 0
M  V30 4433 C 454.262 1.19535 1.07554 0
M  V30 4434 O 455.452 1.44391 0.974514 0
M  V30 4435 C 452.584 2.88704 1.8128 0
M  V30 4436 H 453.777 2.99899 0.00806397 0
M  V30 4437 H 451.33 1.56265 -0.0333067 0
M  V30 4438 H 452.065 2.14352 2.43359 0
M  V30 4439 H 451.85 3.63443 1.47144 0
M  V30 4440 H 453.34 3.39465 2.43214 0
M  V30 4441 N 453.777 0.010035 1.57597 0
M  V30 4442 C 455.002 -0.687021 1.95691 0
M  V30 4443 C 455.427 -1.65952 0.885519 0
M  V30 4444 O 454.785 -1.80633 -0.15543 0
M  V30 4445 C 454.833 -1.3864 3.32884 0
M  V30 4446 O 453.937 -2.50115 3.27897 0
M  V30 4447 H 453.278 -0.181989 0.638573 0
M  V30 4448 H 455.808 0.0662122 2.04493 0
M  V30 4449 H 455.818 -1.74754 3.6868 0
M  V30 4450 H 454.493 -0.673411 4.10412 0
M  V30 4451 H 453.07 -2.16253 3.03791 0
M  V30 4452 N 455.255 -1.55392 -0.262866 0
M  V30 4453 C 456.202 -1.88966 -1.32516 0
M  V30 4454 C 457.172 -0.742187 -1.48596 0
M  V30 4455 O 458.357 -0.99439 -1.62839 0
M  V30 4456 C 455.497 -2.17592 -2.67858 0
M  V30 4457 C 454.61 -3.45061 -2.59917 0
M  V30 4458 C 453.745 -3.63336 -3.87505 0
M  V30 4459 C 452.784 -4.84462 -3.74116 0
M  V30 4460 N 451.921 -4.99342 -4.93561 0
M  V30 4461 H 456.761 -2.79566 -1.03184 0
M  V30 4462 H 454.298 -1.38404 -0.498285 0
M  V30 4463 H 456.256 -2.3219 -3.46617 0
M  V30 4464 H 454.886 -1.30215 -2.95371 0
M  V30 4465 H 453.938 -3.38881 -1.72812 0
M  V30 4466 H 455.25 -4.3396 -2.45926 0
M  V30 4467 H 454.404 -3.77807 -4.74707 0
M  V30 4468 H 453.143 -2.72641 -4.04374 0
M  V30 4469 H 452.148 -4.69985 -2.85297 0
M  V30 4470 H 453.373 -5.76603 -3.58757 0
M  V30 4471 H 451.319 -4.1158 -5.10821 0
M  V30 4472 H 451.236 -5.82303 -4.82141 0
M  V30 4473 H 452.504 -5.18208 -5.82306 0
M  V30 4474 N 456.733 0.527833 -1.48498 0
M  V30 4475 C 457.979 1.28545 -1.56857 0
M  V30 4476 C 458.312 1.92678 -0.242651 0
M  V30 4477 O 457.587 1.79394 0.751545 0
M  V30 4478 C 457.87 2.37314 -2.70839 0
M  V30 4479 C 457.723 1.77858 -4.13142 0
M  V30 4480 C 459.042 3.39068 -2.80573 0
M  V30 4481 H 456.161 0.466006 -0.570971 0
M  V30 4482 H 458.803 0.587784 -1.8068 0
M  V30 4483 H 456.953 2.96821 -2.50658 0
M  V30 4484 H 458.625 1.22385 -4.44769 0
M  V30 4485 H 456.868 1.08383 -4.20042 0
M  V30 4486 H 457.539 2.56624 -4.88721 0
M  V30 4487 H 460.015 2.89518 -2.98862 0
M  V30 4488 H 458.891 4.12566 -3.6205 0
M  V30 4489 H 459.152 3.9975 -1.88818 0
M  V30 4490 N 458.211 1.37122 0.776871 0
M  V30 4491 C 459.46 1.31373 1.53049 0
M  V30 4492 C 459.773 -0.101016 1.95339 0
M  V30 4493 O 460.979 -0.280953 2.70042 0
M  V30 4494 C 459.435 2.30567 2.76346 0
M  V30 4495 C 459.043 3.77543 2.41175 0
M  V30 4496 C 460.787 2.33818 3.54301 0
M  V30 4497 C 458.694 4.68481 3.60943 0
M  V30 4498 H 457.624 0.488234 0.574581 0
M  V30 4499 H 460.275 1.62554 0.851372 0
M  V30 4500 H 458.657 1.92396 3.46121 0
M  V30 4501 H 459.831 4.24521 1.79216 0
M  V30 4502 H 458.146 3.77187 1.76405 0
M  V30 4503 H 460.743 2.98965 4.4331 0
M  V30 4504 H 461.086 1.3503 3.93793 0
M  V30 4505 H 461.619 2.7067 2.91518 0
M  V30 4506 H 458.358 5.68378 3.26537 0
M  V30 4507 H 457.878 4.2621 4.22025 0
M  V30 4508 H 459.557 4.85366 4.27819 0
M  V30 4509 N 459.689 -1.00246 1.21608 0
M  V30 4510 C 460.938 -1.73476 1.02902 0
M  V30 4511 C 461.251 -1.90643 -0.437561 0
M  V30 4512 O 462.457 -2.61105 -0.74407 0
M  V30 4513 C 460.913 -3.12079 1.79261 0
M  V30 4514 C 460.521 -3.02877 3.30106 0
M  V30 4515 C 462.265 -3.89421 1.68972 0
M  V30 4516 C 460.172 -4.36575 3.98944 0
M  V30 4517 H 459.102 -0.650408 0.381425 0
M  V30 4518 H 461.753 -1.11985 1.45367 0
M  V30 4519 H 460.135 -3.74196 1.2959 0
M  V30 4520 H 461.309 -2.49983 3.87098 0
M  V30 4521 H 459.624 -2.39022 3.40965 0
M  V30 4522 H 462.221 -4.88362 2.17731 0
M  V30 4523 H 462.564 -4.1122 0.648397 0
M  V30 4524 H 463.097 -3.33963 2.16133 0
M  V30 4525 H 459.836 -4.19978 5.03288 0
M  V30 4526 H 459.356 -4.8942 3.4674 0
M  V30 4527 H 461.035 -5.05364 4.04 0
M  V30 4528 N 461.167 -1.02423 -1.1978 0
M  V30 4529 C 462.413 -0.719051 -1.89625 0
M  V30 4530 C 462.746 0.750083 -1.7913 0
M  V30 4531 O 462.021 1.54574 -1.18056 0
M  V30 4532 C 462.304 -1.16499 -3.40735 0
M  V30 4533 C 462.157 -2.695 -3.60125 0
M  V30 4534 C 463.476 -0.742166 -4.33797 0
M  V30 4535 H 460.595 -0.26269 -0.688595 0
M  V30 4536 H 463.237 -1.27333 -1.41018 0
M  V30 4537 H 461.387 -0.69341 -3.82262 0
M  V30 4538 H 463.059 -3.24569 -3.278 0
M  V30 4539 H 461.302 -3.10113 -3.03336 0
M  V30 4540 H 461.973 -2.95757 -4.66081 0
M  V30 4541 H 464.449 -1.1477 -3.99959 0
M  V30 4542 H 463.325 -1.08213 -5.38127 0
M  V30 4543 H 463.586 0.355747 -4.40666 0
M  V30 4544 N 462.645 1.35699 -0.801477 0
M  V30 4545 C 464.056 1.81415 -0.441073 0
M  V30 4546 C 464.407 1.66595 1.03636 0
M  V30 4547 O 463.532 1.19369 1.80499 0
M  V30 4548 C 464.127 3.29369 -0.793819 0
M  V30 4549 C 462.686 3.73248 -0.486083 0
M  V30 4550 C 461.833 2.57775 -1.02213 0
M  V30 4551 H 464.784 1.23749 -0.993572 0
M  V30 4552 H 464.805 3.80395 -0.0894158 0
M  V30 4553 H 464.317 3.40123 -1.86917 0
M  V30 4554 H 462.418 3.68046 0.580735 0
M  V30 4555 H 462.531 4.68222 -1.01513 0
M  V30 4556 H 460.895 2.50788 -0.444712 0
M  V30 4557 H 461.678 2.71309 -2.10348 0
M  V30 4558 N 464.123 0.554532 1.47522 0
M  V30 4559 C 465.371 0.0294208 2.02079 0
M  V30 4560 C 465.692 -1.32411 1.43151 0
M  V30 4561 O 464.962 -1.863 0.605728 0
M  V30 4562 H 463.542 0.00788672 0.746958 0
M  V30 4563 H 466.204 0.723934 1.80956 0
M  V30 4564 H 465.3 -0.0606745 3.12041 0
M  V30 4565 N 465.601 -1.54893 0.290851 0
M  V30 4566 C 466.831 -2.04047 -0.323818 0
M  V30 4567 C 467.239 -1.16809 -1.48837 0
M  V30 4568 O 466.582 -0.184145 -1.82775 0
M  V30 4569 C 466.644 -3.49248 -0.852395 0
M  V30 4570 C 466.308 -4.56623 0.185557 0
M  V30 4571 C 467.305 -5.09985 1.01053 0
M  V30 4572 C 464.99 -5.01252 0.324332 0
M  V30 4573 C 466.984 -6.06507 1.96031 0
M  V30 4574 C 464.671 -5.97596 1.27757 0
M  V30 4575 C 465.669 -6.50107 2.09405 0
M  V30 4576 O 465.357 -7.44565 3.03114 0
M  V30 4577 H 465.089 -0.671735 -0.0758129 0
M  V30 4578 H 467.643 -2.00947 0.425393 0
M  V30 4579 H 465.873 -3.49639 -1.65195 0
M  V30 4580 H 467.562 -3.81654 -1.38185 0
M  V30 4581 H 468.328 -4.76307 0.914129 0
M  V30 4582 H 464.207 -4.60015 -0.301213 0
M  V30 4583 H 467.751 -6.47418 2.598 0
M  V30 4584 H 463.648 -6.30691 1.37473 0
M  V30 4585 H 464.416 -7.62334 2.97976 0
M  V30 4586 N 467.08 -0.0183926 -1.57589 0
M  V30 4587 C 468.328 0.661253 -1.90976 0
M  V30 4588 C 468.649 1.73281 -0.894353 0
M  V30 4589 O 467.919 1.9579 0.0656788 0
M  V30 4590 H 466.499 0.247233 -0.704901 0
M  V30 4591 H 469.161 -0.0636639 -1.94796 0
M  V30 4592 H 468.257 1.12083 -2.9128 0
M  V30 4593 N 468.558 1.5553 0.254621 0
M  V30 4594 C 469.491 1.84624 1.34124 0
M  V30 4595 C 470.469 0.700693 1.46728 0
M  V30 4596 O 471.653 0.94564 1.63064 0
M  V30 4597 C 468.78 2.02412 2.71564 0
M  V30 4598 C 467.826 3.25028 2.7615 0
M  V30 4599 S 468.659 4.81893 2.33538 0
M  V30 4600 C 469.815 5.02677 3.72917 0
M  V30 4601 H 470.048 2.76501 1.09245 0
M  V30 4602 H 467.581 1.47537 0.455211 0
M  V30 4603 H 469.539 2.13345 3.50705 0
M  V30 4604 H 468.2 1.11391 2.93685 0
M  V30 4605 H 467.393 3.34418 3.77069 0
M  V30 4606 H 466.995 3.12781 2.05046 0
M  V30 4607 H 469.287 4.89546 4.68349 0
M  V30 4608 H 470.23 6.0468 3.68467 0
M  V30 4609 H 470.638 4.30561 3.65072 0
M  V30 4610 N 470.036 -0.519951 1.48776 0
M  V30 4611 C 470.999 -1.60574 1.6355 0
M  V30 4612 C 471.999 -1.52557 0.508234 0
M  V30 4613 O 473.189 -1.56047 0.774262 0
M  V30 4614 C 470.321 -3.00211 1.61512 0
M  V30 4615 H 471.514 -1.4881 2.60376 0
M  V30 4616 H 469.067 -0.742772 1.37523 0
M  V30 4617 H 469.802 -3.17471 0.662009 0
M  V30 4618 H 469.587 -3.07439 2.43359 0
M  V30 4619 H 471.077 -3.79134 1.75064 0
M  V30 4620 N 471.514 -1.37532 -0.769588 0
M  V30 4621 C 472.76 -1.33057 -1.53048 0
M  V30 4622 C 473.093 0.0841865 -1.94017 0
M  V30 4623 O 472.368 1.04198 -1.64235 0
M  V30 4624 C 472.651 -2.27166 -2.79406 0
M  V30 4625 C 472.504 -3.77429 -2.44677 0
M  V30 4626 C 473.823 -2.19683 -3.81349 0
M  V30 4627 H 470.942 -0.484655 -0.555228 0
M  V30 4628 H 473.584 -1.68251 -0.882702 0
M  V30 4629 H 471.734 -1.97283 -3.34682 0
M  V30 4630 H 473.406 -4.17918 -1.953 0
M  V30 4631 H 471.649 -3.95892 -1.77346 0
M  V30 4632 H 472.32 -4.38716 -3.35011 0
M  V30 4633 H 474.796 -2.46029 -3.35573 0
M  V30 4634 H 473.672 -2.87668 -4.67481 0
M  V30 4635 H 473.933 -1.19045 -4.25771 0
M  V30 4636 N 472.992 0.995999 -1.22138 0
M  V30 4637 C 473.955 2.06711 -0.990109 0
M  V30 4638 C 474.955 1.60744 0.0422978 0
M  V30 4639 O 476.145 1.73095 -0.195895 0
M  V30 4640 C 473.277 3.37288 -0.49491 0
M  V30 4641 H 474.47 2.28661 -1.94047 0
M  V30 4642 H 472.023 1.16711 -1.03963 0
M  V30 4643 H 472.758 3.21022 0.459948 0
M  V30 4644 H 472.543 3.71986 -1.23971 0
M  V30 4645 H 474.033 4.16103 -0.353253 0
M  V30 4646 N 474.47 1.03057 1.19235 0
M  V30 4647 C 475.402 0.570932 2.21975 0
M  V30 4648 C 476.415 -0.354088 1.58903 0
M  V30 4649 O 477.604 -0.150211 1.77867 0
M  V30 4650 C 474.704 -0.187152 3.38383 0
M  V30 4651 C 473.877 0.743231 4.31039 0
M  V30 4652 C 472.936 0.0302493 5.26191 0
M  V30 4653 O 471.962 0.657371 5.65391 0
M  V30 4654 N 473.164 -1.23991 5.67104 0
M  V30 4655 H 475.929 1.45456 2.62036 0
M  V30 4656 H 473.49 0.909807 1.33918 0
M  V30 4657 H 475.482 -0.673715 3.99053 0
M  V30 4658 H 474.052 -0.972205 2.97098 0
M  V30 4659 H 473.272 1.40985 3.68126 0
M  V30 4660 H 474.56 1.3755 4.89854 0
M  V30 4661 H 473.958 -1.77011 5.37293 0
M  V30 4662 H 472.515 -1.67093 6.30018 0
M  V30 4663 N 475.948 -1.35272 0.808662 0
M  V30 4664 C 476.911 -2.28082 0.226093 0
M  V30 4665 C 477.911 -1.49673 -0.587762 0
M  V30 4666 O 479.101 -1.69404 -0.405943 0
M  V30 4667 C 476.233 -3.33955 -0.684596 0
M  V30 4668 H 477.426 -2.81116 1.04469 0
M  V30 4669 H 474.979 -1.45162 0.579466 0
M  V30 4670 H 475.714 -2.86111 -1.5268 0
M  V30 4671 H 475.499 -3.91965 -0.102699 0
M  V30 4672 H 476.989 -4.03219 -1.08646 0
M  V30 4673 N 477.426 -0.562348 -1.47226 0
M  V30 4674 C 478.358 0.220011 -2.28142 0
M  V30 4675 C 479.371 0.874596 -1.37312 0
M  V30 4676 O 480.56 0.747583 -1.62091 0
M  V30 4677 C 477.66 1.32953 -3.11732 0
M  V30 4678 C 476.833 0.770759 -4.30556 0
M  V30 4679 C 475.892 1.76541 -4.95701 0
M  V30 4680 O 474.918 1.3095 -5.53932 0
M  V30 4681 N 476.12 3.09896 -4.90861 0
M  V30 4682 H 478.885 -0.474107 -2.95926 0
M  V30 4683 H 476.446 -0.398761 -1.56912 0
M  V30 4684 H 478.438 1.99378 -3.5218 0
M  V30 4685 H 477.008 1.92681 -2.46156 0
M  V30 4686 H 476.228 -0.0704056 -3.94137 0
M  V30 4687 H 477.516 0.376872 -5.07402 0
M  V30 4688 H 476.914 3.49577 -4.44761 0
M  V30 4689 H 475.471 3.71865 -5.35313 0
M  V30 4690 N 478.904 1.54736 -0.299062 0
M  V30 4691 C 479.854 2.20155 0.592932 0
M  V30 4692 C 480.838 1.1739 1.10038 0
M  V30 4693 O 482.03 1.43116 1.04147 0
M  V30 4694 C 479.159 2.94437 1.76527 0
M  V30 4695 C 478.245 4.04516 1.27388 0
M  V30 4696 N 478.636 5.03319 0.500339 0
M  V30 4697 C 476.934 4.18022 1.55478 0
M  V30 4698 C 477.635 5.81209 0.238909 0
M  V30 4699 N 476.611 5.37408 0.818163 0
M  V30 4700 H 480.413 2.93899 -0.00563596 0
M  V30 4701 H 477.927 1.62068 -0.103732 0
M  V30 4702 H 479.924 3.3977 2.41582 0
M  V30 4703 H 478.584 2.22209 2.36756 0
M  V30 4704 H 479.595 5.17696 0.145419 0
M  V30 4705 H 476.272 3.56998 2.16469 0
M  V30 4706 H 477.662 6.70812 -0.382223 0
M  V30 4707 N 480.382 0.0267497 1.57577 0
M  V30 4708 C 481.345 -0.940916 2.08996 0
M  V30 4709 C 482.345 -1.25561 1.00455 0
M  V30 4710 O 483.535 -1.19634 1.26623 0
M  V30 4711 C 480.667 -2.25814 2.55384 0
M  V30 4712 H 481.86 -0.495628 2.95776 0
M  V30 4713 H 479.413 -0.221241 1.54726 0
M  V30 4714 H 480.148 -2.74976 1.71926 0
M  V30 4715 H 479.933 -2.04285 3.34679 0
M  V30 4716 H 481.423 -2.95178 2.95398 0
M  V30 4717 N 481.861 -1.55662 -0.24637 0
M  V30 4718 C 482.791 -1.93377 -1.30873 0
M  V30 4719 C 483.772 -0.798773 -1.50179 0
M  V30 4720 O 484.957 -1.0591 -1.62778 0
M  V30 4721 C 482.087 -2.22893 -2.66338 0
M  V30 4722 C 481.041 -3.38649 -2.61727 0
M  V30 4723 C 480.367 -3.53708 -4.00992 0
M  V30 4724 C 481.667 -4.74323 -2.18666 0
M  V30 4725 H 483.361 -2.82363 -0.995552 0
M  V30 4726 H 480.907 -1.35854 -0.477464 0
M  V30 4727 H 482.86 -2.47866 -3.40794 0
M  V30 4728 H 481.584 -1.30733 -2.99293 0
M  V30 4729 H 480.243 -3.13685 -1.89729 0
M  V30 4730 H 479.891 -2.58967 -4.31214 0
M  V30 4731 H 479.591 -4.31551 -3.98795 0
M  V30 4732 H 481.115 -3.81003 -4.77147 0
M  V30 4733 H 482.529 -4.98665 -2.82854 0
M  V30 4734 H 480.926 -5.55273 -2.27579 0
M  V30 4735 H 481.996 -4.71349 -1.13834 0
M  V30 4736 N 483.339 0.512053 -1.4905 0
M  V30 4737 C 484.755 0.84224 -1.35567 0
M  V30 4738 C 484.955 1.97878 -0.380319 0
M  V30 4739 O 484.011 2.51769 0.19201 0
M  V30 4740 C 485.324 1.19286 -2.76028 0
M  V30 4741 C 486.872 1.30171 -2.84648 0
M  V30 4742 C 487.347 1.68568 -4.25851 0
M  V30 4743 N 488.838 1.75638 -4.28609 0
M  V30 4744 C 489.573 2.06769 -5.34821 0
M  V30 4745 N 489.069 2.36201 -6.51292 0
M  V30 4746 N 490.862 2.07927 -5.22229 0
M  V30 4747 H 483.013 -0.237574 -2.11067 0
M  V30 4748 H 485.276 -0.0436747 -0.946993 0
M  V30 4749 H 484.982 0.431199 -3.49047 0
M  V30 4750 H 484.856 2.13889 -3.10695 0
M  V30 4751 H 487.243 2.05411 -2.11873 0
M  V30 4752 H 487.324 0.336457 -2.53578 0
M  V30 4753 H 486.968 0.938824 -4.99148 0
M  V30 4754 H 486.898 2.66174 -4.54377 0
M  V30 4755 H 489.389 1.55097 -3.44606 0
M  V30 4756 H 489.702 2.59112 -7.28066 0
M  V30 4757 H 488.047 2.33681 -6.54536 0
M  V30 4758 H 491.238 1.84403 -4.30248 0
M  V30 4759 H 491.411 2.31856 -6.05101 0
M  V30 4760 N 484.817 1.37938 0.762283 0
M  V30 4761 C 485.727 1.36681 1.90671 0
M  V30 4762 C 486.743 0.265078 1.71969 0
M  V30 4763 O 487.919 0.502055 1.95042 0
M  V30 4764 C 484.984 1.18211 3.25925 0
M  V30 4765 C 484.045 2.3811 3.57214 0
M  V30 4766 C 483.278 2.20512 4.86014 0
M  V30 4767 O 483.501 1.19429 5.57757 0
M  V30 4768 O 482.435 3.08911 5.16583 0
M  V30 4769 H 486.261 2.33091 1.94685 0
M  V30 4770 H 483.846 1.18767 0.906356 0
M  V30 4771 H 485.728 1.09937 4.06807 0
M  V30 4772 H 484.403 0.248807 3.22742 0
M  V30 4773 H 483.31 2.51958 2.76529 0
M  V30 4774 H 484.643 3.30041 3.65149 0
M  V30 4775 N 486.295 -0.989507 1.22664 0
M  V30 4776 C 487.228 -2.07805 0.942985 0
M  V30 4777 C 488.206 -1.6219 -0.115356 0
M  V30 4778 O 489.39 -1.88492 0.0169565 0
M  V30 4779 C 486.517 -3.361 0.418898 0
M  V30 4780 C 485.563 -4.00643 1.46244 0
M  V30 4781 S 486.396 -4.41059 3.03689 0
M  V30 4782 C 487.552 -5.7252 2.52927 0
M  V30 4783 H 487.785 -2.31547 1.86476 0
M  V30 4784 H 485.318 -1.12446 1.05808 0
M  V30 4785 H 487.276 -4.10315 0.123114 0
M  V30 4786 H 485.937 -3.10383 -0.481818 0
M  V30 4787 H 485.13 -4.93033 1.04569 0
M  V30 4788 H 484.732 -3.32767 1.7071 0
M  V30 4789 H 487.024 -6.49017 1.94379 0
M  V30 4790 H 487.967 -6.19026 3.4382 0
M  V30 4791 H 488.375 -5.30083 1.94094 0
M  V30 4792 N 487.773 -1.03688 -1.18687 0
M  V30 4793 C 488.736 -0.629115 -2.20397 0
M  V30 4794 C 489.736 0.311495 -1.57754 0
M  V30 4795 O 490.926 0.0974107 -1.73927 0
M  V30 4796 C 488.058 0.0782231 -3.4081 0
M  V30 4797 H 489.251 -1.52915 -2.57987 0
M  V30 4798 H 486.804 -0.828988 -1.32505 0
M  V30 4799 H 487.539 0.992233 -3.08748 0
M  V30 4800 H 487.324 -0.597776 -3.87517 0
M  V30 4801 H 488.814 0.350156 -4.16129 0
M  V30 4802 N 489.251 1.34841 -0.815825 0
M  V30 4803 C 490.528 1.92908 -0.323416 0
M  V30 4804 C 490.908 1.74479 1.18828 0
M  V30 4805 O 490.256 1.11928 1.99209 0
M  V30 4806 C 490.466 3.40957 -0.744952 0
M  V30 4807 C 491.814 4.18107 -0.739716 0
M  V30 4808 O 492.838 3.49511 -0.68708 0
M  V30 4809 O 491.697 5.40517 -0.806456 0
M  V30 4810 H 488.791 0.822436 -0.0867646 0
M  V30 4811 H 491.337 1.4386 -0.90014 0
M  V30 4812 H 490.109 3.4814 -1.78646 0
M  V30 4813 H 489.732 3.97341 -0.143535 0
M  V30 4814 N 490.729 0.570148 1.46925 0
M  V30 4815 C 491.975 0.0510284 2.02736 0
M  V30 4816 C 492.308 -1.3006 1.44215 0
M  V30 4817 O 491.583 -1.84932 0.602521 0
M  V30 4818 C 491.866 -0.028215 3.60089 0
M  V30 4819 C 491.719 1.35142 4.29018 0
M  V30 4820 C 493.038 -0.735181 4.33916 0
M  V30 4821 H 490.157 0.0200178 0.736728 0
M  V30 4822 H 492.799 0.73493 1.75211 0
M  V30 4823 H 490.949 -0.610648 3.83671 0
M  V30 4824 H 492.621 1.97806 4.16738 0
M  V30 4825 H 490.864 1.9226 3.88868 0
M  V30 4826 H 491.535 1.24857 5.37694 0
M  V30 4827 H 494.011 -0.240519 4.15404 0
M  V30 4828 H 492.887 -0.759622 5.43618 0
M  V30 4829 H 493.148 -1.79397 4.04066 0
M  V30 4830 N 492.207 -1.54576 0.307264 0
M  V30 4831 C 493.137 -2.26708 -0.55907 0
M  V30 4832 C 494.118 -1.26893 -1.1328 0
M  V30 4833 O 495.303 -1.55677 -1.16097 0
M  V30 4834 C 492.433 -3.01259 -1.72801 0
M  V30 4835 C 491.387 -4.08275 -1.28435 0
M  V30 4836 C 490.713 -4.70575 -2.53895 0
M  V30 4837 C 492.013 -5.2068 -0.411038 0
M  V30 4838 H 493.707 -2.9937 0.042576 0
M  V30 4839 H 491.253 -1.43983 0.0219173 0
M  V30 4840 H 493.206 -3.50444 -2.34023 0
M  V30 4841 H 491.93 -2.26187 -2.356 0
M  V30 4842 H 490.589 -3.59949 -0.695161 0
M  V30 4843 H 490.237 -3.92136 -3.15021 0
M  V30 4844 H 489.937 -5.42854 -2.24908 0
M  V30 4845 H 491.461 -5.22527 -3.15908 0
M  V30 4846 H 492.875 -5.65721 -0.929097 0
M  V30 4847 H 491.272 -5.99716 -0.214664 0
M  V30 4848 H 492.342 -4.81629 0.562287 0
M  V30 4849 N 493.685 -0.035106 -1.57561 0
M  V30 4850 C 494.632 0.94474 -2.10578 0
M  V30 4851 C 495.602 1.3192 -1.00927 0
M  V30 4852 O 496.787 1.41147 -1.28382 0
M  V30 4853 C 493.927 2.21982 -2.64231 0
M  V30 4854 C 493.04 1.90128 -3.87911 0
M  V30 4855 C 492.175 3.11975 -4.29936 0
M  V30 4856 C 491.214 2.75968 -5.46359 0
M  V30 4857 N 490.351 3.90459 -5.83512 0
M  V30 4858 H 495.191 0.485717 -2.94015 0
M  V30 4859 H 492.728 0.228143 -1.4532 0
M  V30 4860 H 494.686 2.96572 -2.9343 0
M  V30 4861 H 493.316 2.6549 -1.83616 0
M  V30 4862 H 492.368 1.05755 -3.65404 0
M  V30 4863 H 493.68 1.59613 -4.72573 0
M  V30 4864 H 492.834 3.9488 -4.60603 0
M  V30 4865 H 491.573 3.45657 -3.44053 0
M  V30 4866 H 490.578 1.91478 -5.1538 0
M  V30 4867 H 491.803 2.43497 -6.33945 0
M  V30 4868 H 489.749 4.23971 -5.00584 0
M  V30 4869 H 489.666 3.63588 -6.62827 0
M  V30 4870 H 490.934 4.7405 -6.18787 0
M  V30 4871 N 495.163 1.55791 0.238111 0
M  V30 4872 C 496.11 1.9105 1.29493 0
M  V30 4873 C 497.08 0.765733 1.47397 0
M  V30 4874 O 498.265 1.02017 1.61236 0
M  V30 4875 C 495.405 2.21826 2.64362 0
M  V30 4876 C 494.518 3.49153 2.54394 0
M  V30 4877 C 493.653 3.69455 3.81676 0
M  V30 4878 C 492.692 4.90353 3.66361 0
M  V30 4879 N 491.829 5.07131 4.85554 0
M  V30 4880 H 496.669 2.81172 0.987233 0
M  V30 4881 H 494.206 1.39179 0.476203 0
M  V30 4882 H 496.164 2.37675 3.4288 0
M  V30 4883 H 494.794 1.34897 2.93262 0
M  V30 4884 H 493.846 3.41587 1.67399 0
M  V30 4885 H 495.158 4.37818 2.38991 0
M  V30 4886 H 494.312 3.85311 4.68636 0
M  V30 4887 H 493.051 2.7904 3.99985 0
M  V30 4888 H 492.056 4.74464 2.77784 0
M  V30 4889 H 493.281 5.82237 3.49538 0
M  V30 4890 H 491.227 4.19654 5.04209 0
M  V30 4891 H 491.144 5.89899 4.72816 0
M  V30 4892 H 492.412 5.27407 5.73988 0
M  V30 4893 N 496.642 -0.504142 1.49319 0
M  V30 4894 C 497.552 -1.63248 1.68486 0
M  V30 4895 C 498.568 -1.64488 0.567432 0
M  V30 4896 O 499.744 -1.82966 0.841749 0
M  V30 4897 C 496.809 -2.99627 1.74426 0
M  V30 4898 C 495.87 -3.09039 2.97982 0
M  V30 4899 C 495.103 -4.38913 3.0363 0
M  V30 4900 O 495.326 -5.27528 2.16958 0
M  V30 4901 O 494.26 -4.53231 3.96062 0
M  V30 4902 H 498.086 -1.50008 2.64067 0
M  V30 4903 H 495.671 -0.680086 1.33023 0
M  V30 4904 H 497.553 -3.80689 1.80705 0
M  V30 4905 H 496.228 -3.13136 0.820233 0
M  V30 4906 H 495.135 -2.27177 2.97223 0
M  V30 4907 H 496.468 -3.00456 3.89855 0
M  V30 4908 N 498.12 -1.38341 -0.754957 0
M  V30 4909 C 499.368 -1.34208 -1.51105 0
M  V30 4910 C 499.689 0.0677634 -1.94882 0
M  V30 4911 O 498.959 1.01517 -1.67544 0
M  V30 4912 H 497.539 -0.493819 -0.560493 0
M  V30 4913 H 500.201 -1.73005 -0.897507 0
M  V30 4914 H 499.297 -1.99203 -2.4026 0
M  V30 4915 N 499.598 0.982988 -1.23187 0
M  V30 4916 C 500.844 1.72648 -1.06398 0
M  V30 4917 C 501.177 1.90066 0.398561 0
M  V30 4918 O 500.452 1.45105 1.29518 0
M  V30 4919 C 500.735 3.12627 -1.78707 0
M  V30 4920 C 500.588 3.02795 -3.32618 0
M  V30 4921 C 501.907 4.11997 -1.54747 0
M  V30 4922 H 499.026 0.626649 -0.387918 0
M  V30 4923 H 501.668 1.14455 -1.51658 0
M  V30 4924 H 499.818 3.62308 -1.40234 0
M  V30 4925 H 501.49 2.60659 -3.80598 0
M  V30 4926 H 499.733 2.39362 -3.61785 0
M  V30 4927 H 500.404 4.01893 -3.78399 0
M  V30 4928 H 502.88 3.71114 -1.88186 0
M  V30 4929 H 501.756 5.08037 -2.07821 0
M  V30 4930 H 502.017 4.39462 -0.482249 0
M  V30 4931 N 501.076 1.04316 1.18135 0
M  V30 4932 C 501.986 0.646876 2.25505 0
M  V30 4933 C 503.002 -0.328008 1.7088 0
M  V30 4934 O 504.178 -0.182309 2.00573 0
M  V30 4935 C 501.243 0.0185664 3.46695 0
M  V30 4936 C 500.304 1.04277 4.16443 0
M  V30 4937 C 499.537 0.444352 5.31847 0
M  V30 4938 O 499.76 -0.748735 5.65465 0
M  V30 4939 O 498.694 1.17428 5.90334 0
M  V30 4940 H 502.52 1.54147 2.61672 0
M  V30 4941 H 500.105 0.814188 1.25265 0
M  V30 4942 H 501.987 -0.331068 4.20097 0
M  V30 4943 H 500.662 -0.849814 3.12346 0
M  V30 4944 H 499.569 1.44425 3.45098 0
M  V30 4945 H 500.902 1.882 4.54798 0
M  V30 4946 N 502.554 -1.34406 0.822964 0
M  V30 4947 C 503.8 -1.98578 0.411666 0
M  V30 4948 C 504.133 -1.65093 -1.02264 0
M  V30 4949 O 503.408 -0.92258 -1.71227 0
M  V30 4950 C 503.691 -3.54823 0.614235 0
M  V30 4951 C 503.544 -3.9805 2.09466 0
M  V30 4952 C 504.863 -4.40071 0.050221 0
M  V30 4953 H 501.982 -0.721355 0.151047 0
M  V30 4954 H 504.624 -1.59301 1.03554 0
M  V30 4955 H 502.774 -3.88411 0.0831774 0
M  V30 4956 H 504.446 -3.74795 2.68936 0
M  V30 4957 H 502.689 -3.4836 2.5851 0
M  V30 4958 H 503.36 -5.06819 2.18721 0
M  V30 4959 H 505.836 -4.13037 0.503953 0
M  V30 4960 H 504.712 -5.48452 0.221759 0
M  V30 4961 H 504.973 -4.29576 -1.04482 0
M  V30 4962 N 504.032 -0.577932 -1.46621 0
M  V30 4963 C 505.257 -0.0652536 -2.07297 0
M  V30 4964 C 505.682 1.22828 -1.4246 0
M  V30 4965 O 505.04 1.74075 -0.506718 0
M  V30 4966 C 505.088 0.0920589 -3.60482 0
M  V30 4967 O 504.192 1.14972 -3.96049 0
M  V30 4968 H 503.533 -0.06065 -0.661224 0
M  V30 4969 H 506.063 -0.799515 -1.88332 0
M  V30 4970 H 506.073 0.299741 -4.06897 0
M  V30 4971 H 504.748 -0.852612 -4.07067 0
M  V30 4972 H 503.325 0.920879 -3.61351 0
M  V30 4973 N 505.51 1.54411 -0.315457 0
M  V30 4974 C 506.74 2.04536 0.291315 0
M  V30 4975 C 507.148 1.19162 1.4696 0
M  V30 4976 O 506.491 0.213199 1.82459 0
M  V30 4977 C 506.553 3.5056 0.796725 0
M  V30 4978 C 506.217 4.5627 -0.258178 0
M  V30 4979 C 507.214 5.08312 -1.09153 0
M  V30 4980 C 504.899 5.00672 -0.404036 0
M  V30 4981 C 506.893 6.03312 -2.05655 0
M  V30 4982 C 504.58 5.95488 -1.37248 0
M  V30 4983 C 505.578 6.46693 -2.19721 0
M  V30 4984 O 505.266 7.39648 -3.14921 0
M  V30 4985 H 504.998 0.672856 0.0651165 0
M  V30 4986 H 507.552 2.00244 -0.457308 0
M  V30 4987 H 505.782 3.52223 1.59612 0
M  V30 4988 H 507.471 3.83804 1.32096 0
M  V30 4989 H 508.237 4.74793 -0.98979 0
M  V30 4990 H 504.116 4.60436 0.22799 0
M  V30 4991 H 507.66 6.43203 -2.70067 0
M  V30 4992 H 503.557 6.28424 -1.47489 0
M  V30 4993 H 504.325 7.57496 -3.10067 0
M  V30 4994 N 506.988 0.0434614 1.5754 0
M  V30 4995 C 507.951 -0.918696 2.09982 0
M  V30 4996 C 508.951 -1.24488 1.01781 0
M  V30 4997 O 510.141 -1.18284 1.27885 0
M  V30 4998 C 507.273 -2.23093 2.57764 0
M  V30 4999 H 508.466 -0.464229 2.96285 0
M  V30 5000 H 506.019 -0.204818 1.54952 0
M  V30 5001 H 506.754 -2.73137 1.74832 0
M  V30 5002 H 506.539 -2.00724 3.36827 0
M  V30 5003 H 508.029 -2.92028 2.98512 0
M  V30 5004 N 508.466 -1.55915 -0.229846 0
M  V30 5005 C 509.715 -1.77742 -0.953455 0
M  V30 5006 C 510.028 -0.610524 -1.85828 0
M  V30 5007 O 511.234 -0.712219 -2.61992 0
M  V30 5008 C 509.69 -3.14738 -1.74551 0
M  V30 5009 C 509.298 -4.39126 -0.887242 0
M  V30 5010 C 511.042 -3.45895 -2.46084 0
M  V30 5011 C 508.949 -5.67149 -1.67617 0
M  V30 5012 H 507.879 -0.662648 -0.359741 0
M  V30 5013 H 510.53 -1.82322 -0.207576 0
M  V30 5014 H 508.912 -3.04311 -2.53399 0
M  V30 5015 H 510.086 -4.60588 -0.139892 0
M  V30 5016 H 508.401 -4.15427 -0.284443 0
M  V30 5017 H 510.998 -4.38767 -3.05594 0
M  V30 5018 H 511.341 -2.68007 -3.18556 0
M  V30 5019 H 511.874 -3.57614 -1.74233 0
M  V30 5020 H 508.613 -6.47906 -0.994881 0
M  V30 5021 H 508.133 -5.49763 -2.39836 0
M  V30 5022 H 509.812 -6.07025 -2.23898 0
M  V30 5023 N 509.944 0.496216 -1.49584 0
M  V30 5024 C 510.894 1.59422 -1.62999 0
M  V30 5025 C 511.878 1.53402 -0.485457 0
M  V30 5026 O 513.07 1.60851 -0.738649 0
M  V30 5027 C 510.199 2.98009 -1.70427 0
M  V30 5028 C 509.285 3.09008 -2.90473 0
M  V30 5029 N 509.676 2.89884 -4.14489 0
M  V30 5030 C 507.974 3.40115 -2.8851 0
M  V30 5031 C 508.675 3.0519 -4.95211 0
M  V30 5032 N 507.651 3.3428 -4.2867 0
M  V30 5033 H 511.453 1.43297 -2.56599 0
M  V30 5034 H 508.967 0.702443 -1.46422 0
M  V30 5035 H 510.964 3.76926 -1.78136 0
M  V30 5036 H 509.624 3.152 -0.77967 0
M  V30 5037 H 510.635 2.65963 -4.44392 0
M  V30 5038 H 507.312 3.63452 -2.05448 0
M  V30 5039 H 508.702 2.94856 -6.03746 0
M  V30 5040 N 511.423 1.38739 0.74761 0
M  V30 5041 C 512.834 1.31507 1.32524 0
M  V30 5042 C 513.185 -0.0263963 1.96182 0
M  V30 5043 O 512.31 -0.92849 1.95469 0
M  V30 5044 C 512.905 2.38162 2.40966 0
M  V30 5045 C 511.464 2.34489 2.94434 0
M  V30 5046 C 510.611 2.20712 1.67873 0
M  V30 5047 H 513.562 1.4901 0.546043 0
M  V30 5048 H 513.583 2.04222 3.21051 0
M  V30 5049 H 513.095 3.35783 1.94605 0
M  V30 5050 H 511.196 1.40467 3.45108 0
M  V30 5051 H 511.309 3.28861 3.48407 0
M  V30 5052 H 509.673 1.67667 1.91729 0
M  V30 5053 H 510.456 3.20285 1.23582 0
M  V30 5054 N 512.901 -0.976442 1.23707 0
M  V30 5055 C 514.147 -1.72081 1.07312 0
M  V30 5056 C 514.48 -1.90275 -0.388476 0
M  V30 5057 O 513.755 -1.4579 -1.28746 0
M  V30 5058 C 514.038 -3.11675 1.80363 0
M  V30 5059 C 513.891 -3.01027 3.3422 0
M  V30 5060 C 515.21 -4.1117 1.5693 0
M  V30 5061 H 512.329 -0.624583 0.391236 0
M  V30 5062 H 514.971 -1.13649 1.52263 0
M  V30 5063 H 513.121 -3.61559 1.42153 0
M  V30 5064 H 514.793 -2.58637 3.81975 0
M  V30 5065 H 513.036 -2.3744 3.63049 0
M  V30 5066 H 513.707 -3.9988 3.80525 0
M  V30 5067 H 516.183 -3.7011 1.90151 0
M  V30 5068 H 515.059 -5.06928 2.10513 0
M  V30 5069 H 515.32 -4.392 0.505548 0
M  V30 5070 N 514.379 -1.04941 -1.1758 0
M  V30 5071 C 515.342 -0.652456 -2.19717 0
M  V30 5072 C 516.342 0.294745 -1.58076 0
M  V30 5073 O 517.532 0.0789579 -1.74021 0
M  V30 5074 C 514.664 0.0420712 -3.40874 0
M  V30 5075 H 515.857 -1.55642 -2.5635 0
M  V30 5076 H 513.41 -0.842995 -1.31618 0
M  V30 5077 H 514.145 0.95943 -3.09783 0
M  V30 5078 H 513.93 -0.638844 -3.86861 0
M  V30 5079 H 515.42 0.306 -4.16477 0
M  V30 5080 N 515.857 1.33968 -0.830081 0
M  V30 5081 C 517.105 1.97672 -0.420734 0
M  V30 5082 C 517.426 1.66111 1.02138 0
M  V30 5083 O 516.696 0.955503 1.71017 0
M  V30 5084 H 515.276 0.73125 -0.152587 0
M  V30 5085 H 517.938 1.63483 -1.0611 0
M  V30 5086 H 517.034 3.07294 -0.545588 0
M  V30 5087 N 517.335 0.585699 1.46312 0
M  V30 5088 C 518.751 0.247607 1.57668 0
M  V30 5089 C 518.951 -1.25007 1.58037 0
M  V30 5090 O 518.007 -2.03196 1.49893 0
M  V30 5091 C 519.32 0.899456 2.86933 0
M  V30 5092 C 520.868 0.873326 3.00569 0
M  V30 5093 C 521.343 1.50477 4.32574 0
M  V30 5094 N 522.834 1.46925 4.3928 0
M  V30 5095 C 523.569 1.92719 5.40044 0
M  V30 5096 N 523.065 2.46499 6.47464 0
M  V30 5097 N 524.858 1.83617 5.31264 0
M  V30 5098 H 517.009 1.55841 1.44317 0
M  V30 5099 H 519.272 0.651564 0.688599 0
M  V30 5100 H 518.978 1.95313 2.92482 0
M  V30 5101 H 518.852 0.409476 3.74971 0
M  V30 5102 H 521.239 -0.171736 2.946 0
M  V30 5103 H 521.32 1.40136 2.13999 0
M  V30 5104 H 520.964 2.54905 4.39302 0
M  V30 5105 H 520.894 0.951944 5.17924 0
M  V30 5106 H 523.385 1.07616 3.62253 0
M  V30 5107 H 523.698 2.79291 7.20567 0
M  V30 5108 H 522.043 2.50526 6.48276 0
M  V30 5109 H 525.234 1.41358 4.46246 0
M  V30 5110 H 525.407 2.19622 6.09648 0
M  V30 5111 N 518.813 -1.54241 0.323641 0
M  V30 5112 C 519.746 -2.20579 -0.584833 0
M  V30 5113 C 520.724 -1.18286 -1.11567 0
M  V30 5114 O 521.908 -1.47025 -1.17966 0
M  V30 5115 C 519.035 -2.86754 -1.80249 0
M  V30 5116 C 518.081 -4.02767 -1.4029 0
M  V30 5117 S 518.914 -5.33693 -0.439539 0
M  V30 5118 C 520.07 -6.03362 -1.66448 0
M  V30 5119 H 520.303 -2.97292 -0.0213238 0
M  V30 5120 H 517.836 -1.54024 0.107726 0
M  V30 5121 H 519.794 -3.25503 -2.50116 0
M  V30 5122 H 518.455 -2.09844 -2.33719 0
M  V30 5123 H 517.648 -4.47933 -2.31024 0
M  V30 5124 H 517.25 -3.65692 -0.783928 0
M  V30 5125 H 519.542 -6.25546 -2.6019 0
M  V30 5126 H 520.485 -6.9689 -1.25498 0
M  V30 5127 H 520.893 -5.33273 -1.85149 0
M  V30 5128 N 520.291 -0.0518155 -1.57515 0
M  V30 5129 C 521.702 0.483787 -1.80323 0
M  V30 5130 C 522.053 1.70879 -0.964099 0
M  V30 5131 O 521.178 2.15643 -0.180872 0
M  V30 5132 C 521.773 0.884459 -3.27052 0
M  V30 5133 C 520.332 1.36504 -3.50776 0
M  V30 5134 C 519.479 0.340539 -2.75201 0
M  V30 5135 H 522.43 -0.277691 -1.56252 0
M  V30 5136 H 522.451 1.74733 -3.38007 0
M  V30 5137 H 521.963 -0.00731093 -3.88099 0
M  V30 5138 H 520.064 2.27598 -2.95009 0
M  V30 5139 H 520.177 1.35675 -4.59488 0
M  V30 5140 H 518.541 0.81356 -2.41357 0
M  V30 5141 H 519.324 -0.543156 -3.38976 0
M  V30 5142 N 521.769 1.56035 0.221574 0
M  V30 5143 C 523.017 1.78693 0.944102 0
M  V30 5144 C 523.338 0.620317 1.8487 0
M  V30 5145 O 522.608 -0.362784 1.92512 0
M  V30 5146 H 521.188 0.659082 0.351597 0
M  V30 5147 H 523.85 1.93497 0.233435 0
M  V30 5148 H 522.946 2.70837 1.55093 0
M  V30 5149 N 523.247 -0.488276 1.49845 0
M  V30 5150 C 524.197 -1.58556 1.63842 0
M  V30 5151 C 525.181 -1.53142 0.493586 0
M  V30 5152 O 526.373 -1.60457 0.747169 0
M  V30 5153 C 523.502 -2.97101 1.72005 0
M  V30 5154 C 522.588 -3.07463 2.92108 0
M  V30 5155 N 522.979 -2.87681 4.16021 0
M  V30 5156 C 521.277 -3.3858 2.90309 0
M  V30 5157 C 521.978 -3.0256 4.96822 0
M  V30 5158 N 520.954 -3.32002 4.30437 0
M  V30 5159 H 524.756 -1.41935 2.57355 0
M  V30 5160 H 522.27 -0.694668 1.46793 0
M  V30 5161 H 524.267 -3.75976 1.80132 0
M  V30 5162 H 522.927 -3.14782 0.796375 0
M  V30 5163 H 523.938 -2.63603 4.45796 0
M  V30 5164 H 520.615 -3.62357 2.07372 0
M  V30 5165 H 522.005 -2.9165 6.05301 0
M  V30 5166 N 524.725 -1.39134 -0.740242 0
M  V30 5167 C 525.658 -1.3182 -1.86276 0
M  V30 5168 C 526.636 -0.192794 -1.61453 0
M  V30 5169 O 527.82 -0.372365 -1.84786 0
M  V30 5170 C 524.947 -1.04564 -3.22155 0
M  V30 5171 C 523.993 -2.19224 -3.65846 0
M  V30 5172 S 524.826 -3.81466 -3.75824 0
M  V30 5173 C 525.982 -3.56425 -5.14502 0
M  V30 5174 H 526.215 -2.26822 -1.92195 0
M  V30 5175 H 523.748 -1.25127 -0.904576 0
M  V30 5176 H 525.706 -0.895228 -4.00619 0
M  V30 5177 H 524.367 -0.112578 -3.13898 0
M  V30 5178 H 523.56 -1.95732 -4.6444 0
M  V30 5179 H 523.162 -2.30441 -2.94572 0
M  V30 5180 H 525.454 -3.13366 -6.00673 0
M  V30 5181 H 526.397 -4.54462 -5.43019 0
M  V30 5182 H 526.805 -2.90641 -4.8393 0
M  V30 5183 N 526.204 0.969867 -1.24223 0
M  V30 5184 C 527.152 2.08535 -1.03034 0
M  V30 5185 C 528.146 1.69366 0.0340379 0
M  V30 5186 O 529.352 1.79597 -0.12034 0
M  V30 5187 H 525.727 0.682313 -0.316154 0
M  V30 5188 H 527.698 2.23569 -1.97635 0
M  V30 5189 C 526.447 3.4158 -0.649509 0
M  V30 5190 H 525.77 3.72177 -1.46028 0
M  V30 5191 H 527.21 4.20536 -0.540841 0
M  V30 5192 C 525.669 3.30703 0.643194 0
M  V30 5193 O 526.199 3.64443 1.68951 0
M  V30 5194 N 524.405 2.83841 0.623095 0
M  V30 5195 H 523.952 2.56583 -0.228719 0
M  V30 5196 H 523.91 2.76946 1.48823 0
M  V30 5197 N 527.682 1.05563 1.17022 0
M  V30 5198 C 528.928 0.769074 1.87652 0
M  V30 5199 C 529.261 -0.702326 1.81055 0
M  V30 5200 O 528.536 -1.5139 1.22112 0
M  V30 5201 C 528.819 1.25492 3.37526 0
M  V30 5202 C 528.672 2.78953 3.52853 0
M  V30 5203 C 529.991 0.856919 4.31677 0
M  V30 5204 H 527.11 0.280854 0.681388 0
M  V30 5205 H 529.752 1.31027 1.37593 0
M  V30 5206 H 527.902 0.794516 3.80289 0
M  V30 5207 H 529.574 3.33146 3.19079 0
M  V30 5208 H 527.817 3.18046 2.95007 0
M  V30 5209 H 528.488 3.08011 4.58076 0
M  V30 5210 H 530.964 1.25334 3.96775 0
M  V30 5211 H 529.84 1.22443 5.35069 0
M  V30 5212 H 530.101 -0.238787 4.41455 0
M  V30 5213 N 529.16 -1.33526 0.837174 0
M  V30 5214 C 530.09 -2.31764 0.284206 0
M  V30 5215 C 531.071 -1.58896 -0.607142 0
M  V30 5216 O 532.256 -1.86798 -0.531047 0
M  V30 5217 C 529.386 -3.43029 -0.542962 0
M  V30 5218 C 528.34 -4.27255 0.252451 0
M  V30 5219 C 527.666 -5.3012 -0.69836 0
M  V30 5220 C 528.966 -5.01229 1.46858 0
M  V30 5221 H 530.66 -2.78262 1.10502 0
M  V30 5222 H 528.206 -1.3378 0.532812 0
M  V30 5223 H 530.159 -4.1078 -0.940096 0
M  V30 5224 H 528.883 -2.95216 -1.39697 0
M  V30 5225 H 527.542 -3.61127 0.631124 0
M  V30 5226 H 527.19 -4.78564 -1.54872 0
M  V30 5227 H 526.89 -5.87353 -0.170274 0
M  V30 5228 H 528.414 -6.00737 -1.09305 0
M  V30 5229 H 529.828 -5.61756 1.14469 0
M  V30 5230 H 528.225 -5.68104 1.93333 0
M  V30 5231 H 529.295 -4.301 2.23924 0
M  V30 5232 N 530.638 -0.59345 -1.46 0
M  V30 5233 C 531.568 0.121192 -2.33185 0
M  V30 5234 C 532.549 0.872977 -1.4599 0
M  V30 5235 O 533.734 0.846321 -1.74789 0
M  V30 5236 C 530.864 1.12844 -3.28456 0
M  V30 5237 C 529.818 0.4908 -4.25177 0
M  V30 5238 C 529.144 1.60529 -5.10034 0
M  V30 5239 C 530.444 -0.578949 -5.19081 0
M  V30 5240 H 532.138 -0.606767 -2.93187 0
M  V30 5241 H 529.684 -0.293242 -1.40983 0
M  V30 5242 H 531.637 1.63684 -3.88311 0
M  V30 5243 H 530.361 1.88681 -2.66584 0
M  V30 5244 H 529.02 0.00339328 -3.666 0
M  V30 5245 H 528.668 2.35359 -4.44539 0
M  V30 5246 H 528.368 1.18422 -5.75543 0
M  V30 5247 H 529.892 2.11623 -5.72755 0
M  V30 5248 H 531.306 -0.155199 -5.7309 0
M  V30 5249 H 529.703 -0.920947 -5.92991 0
M  V30 5250 H 530.773 -1.46109 -4.62364 0
M  V30 5251 N 532.116 1.54067 -0.331816 0
M  V30 5252 C 533.079 2.23275 0.517768 0
M  V30 5253 C 534.079 1.22897 1.03697 0
M  V30 5254 O 535.269 1.47419 0.928084 0
M  V30 5255 C 532.401 2.94326 1.72004 0
M  V30 5256 H 533.594 2.99773 -0.0873507 0
M  V30 5257 H 531.147 1.56079 -0.0830042 0
M  V30 5258 H 531.882 2.21986 2.36417 0
M  V30 5259 H 531.667 3.67941 1.35507 0
M  V30 5260 H 533.157 3.47031 2.32291 0
M  V30 5261 N 533.594 0.0601682 1.57485 0
M  V30 5262 C 534.504 -0.926121 2.15546 0
M  V30 5263 C 535.52 -1.33532 1.11558 0
M  V30 5264 O 536.696 -1.4104 1.4377 0
M  V30 5265 C 533.761 -2.17952 2.69625 0
M  V30 5266 C 532.822 -1.82783 3.88444 0
M  V30 5267 C 532.055 -3.02148 4.39935 0
M  V30 5268 O 532.278 -4.15803 3.90466 0
M  V30 5269 O 531.212 -2.82639 5.31412 0
M  V30 5270 H 535.038 -0.462289 3.00161 0
M  V30 5271 H 532.623 -0.162246 1.48516 0
M  V30 5272 H 534.505 -2.91474 3.04337 0
M  V30 5273 H 533.18 -2.63456 1.88077 0
M  V30 5274 H 532.087 -1.06549 3.58606 0
M  V30 5275 H 533.42 -1.42072 4.7125 0
M  V30 5276 N 535.072 -1.5615 -0.213296 0
M  V30 5277 C 536.035 -1.92249 -1.24792 0
M  V30 5278 C 537.035 -0.801828 -1.39382 0
M  V30 5279 O 538.225 -1.06948 -1.37506 0
M  V30 5280 C 535.357 -2.18056 -2.62039 0
M  V30 5281 H 536.55 -2.84793 -0.939845 0
M  V30 5282 H 534.103 -1.49559 -0.454062 0
M  V30 5283 H 534.838 -1.2809 -2.97932 0
M  V30 5284 H 534.623 -2.99703 -2.52825 0
M  V30 5285 H 536.113 -2.47051 -3.36683 0
M  V30 5286 N 536.55 0.480323 -1.50102 0
M  V30 5287 C 537.498 1.60024 -1.68805 0
M  V30 5288 C 538.492 1.60089 -0.553888 0
M  V30 5289 O 539.698 1.64349 -0.734127 0
M  V30 5290 H 536.073 0.530841 -0.532646 0
M  V30 5291 H 538.044 1.41408 -2.62767 0
M  V30 5292 C 536.793 2.98029 -1.79092 0
M  V30 5293 H 536.116 2.98694 -2.65748 0
M  V30 5294 H 537.556 3.75871 -1.96206 0
M  V30 5295 C 536.015 3.32538 -0.540388 0
M  V30 5296 O 536.545 4.00386 0.324637 0
M  V30 5297 N 534.751 2.87873 -0.397154 0
M  V30 5298 H 534.298 2.32834 -1.1021 0
M  V30 5299 H 534.256 3.11328 0.438425 0
M  V30 5300 N 538.028 1.39524 0.732853 0
M  V30 5301 C 539.274 1.37068 1.49467 0
M  V30 5302 C 539.607 -0.0327166 1.94172 0
M  V30 5303 O 538.882 -0.998071 1.66939 0
M  V30 5304 C 539.165 2.34494 2.73285 0
M  V30 5305 C 539.018 3.83784 2.34585 0
M  V30 5306 C 540.337 2.29717 3.75391 0
M  V30 5307 H 537.456 0.499206 0.542183 0
M  V30 5308 H 540.098 1.70532 0.837783 0
M  V30 5309 H 538.248 2.06087 3.29333 0
M  V30 5310 H 539.92 4.22949 1.84151 0
M  V30 5311 H 538.163 4.00455 1.66787 0
M  V30 5312 H 538.834 4.47444 3.23262 0
M  V30 5313 H 541.31 2.54839 3.28932 0
M  V30 5314 H 540.186 2.99962 4.59689 0
M  V30 5315 H 540.447 1.30291 4.22465 0
M  V30 5316 N 539.506 -0.963266 1.24736 0
M  V30 5317 C 540.917 -1.52145 1.08207 0
M  V30 5318 C 541.268 -1.93142 -0.345061 0
M  V30 5319 O 540.393 -1.77769 -1.23399 0
M  V30 5320 C 540.988 -2.76486 1.95808 0
M  V30 5321 C 539.547 -3.28646 1.8349 0
M  V30 5322 C 538.694 -2.01529 1.90476 0
M  V30 5323 H 541.645 -0.781083 1.38148 0
M  V30 5324 H 541.666 -3.49986 1.49297 0
M  V30 5325 H 541.178 -2.46617 2.99669 0
M  V30 5326 H 539.279 -3.63357 0.824787 0
M  V30 5327 H 539.392 -3.97246 2.67829 0
M  V30 5328 H 537.756 -2.16442 1.34258 0
M  V30 5329 H 538.539 -1.7402 2.95926 0
M  V30 5330 N 540.985 -1.06182 -1.16461 0
M  V30 5331 C 542.215 -0.797425 -1.9059 0
M  V30 5332 C 542.623 0.651845 -1.77616 0
M  V30 5333 O 541.966 1.45788 -1.11766 0
M  V30 5334 C 542.028 -1.11128 -3.41893 0
M  V30 5335 C 541.692 -2.55874 -3.78652 0
M  V30 5336 C 542.689 -3.54104 -3.80665 0
M  V30 5337 C 540.374 -2.91144 -4.09317 0
M  V30 5338 C 542.368 -4.85645 -4.12829 0
M  V30 5339 C 540.055 -4.22885 -4.41148 0
M  V30 5340 C 541.053 -5.19945 -4.42883 0
M  V30 5341 O 540.741 -6.49322 -4.73959 0
M  V30 5342 H 540.473 -0.288709 -0.611247 0
M  V30 5343 H 543.027 -1.41841 -1.4856 0
M  V30 5344 H 541.257 -0.433217 -3.84266 0
M  V30 5345 H 542.946 -0.831306 -3.97296 0
M  V30 5346 H 543.712 -3.28197 -3.57088 0
M  V30 5347 H 539.591 -2.16252 -4.07131 0
M  V30 5348 H 543.135 -5.61398 -4.14099 0
M  V30 5349 H 539.032 -4.48551 -4.6419 0
M  V30 5350 H 539.8 -6.54294 -4.91774 0
M  V30 5351 N 542.463 1.3308 -0.844243 0
M  V30 5352 C 543.74 1.92178 -0.364261 0
M  V30 5353 C 544.12 1.76961 1.15101 0
M  V30 5354 O 543.468 1.16128 1.9679 0
M  V30 5355 C 543.678 3.393 -0.817106 0
M  V30 5356 C 545.026 4.16444 -0.828236 0
M  V30 5357 O 546.05 3.47975 -0.761062 0
M  V30 5358 O 544.909 5.38685 -0.920926 0
M  V30 5359 H 542.003 0.820411 -0.10419 0
M  V30 5360 H 544.549 1.41918 -0.930453 0
M  V30 5361 H 543.321 3.44272 -1.85991 0
M  V30 5362 H 542.944 3.96947 -0.227785 0
M  V30 5363 N 543.941 0.601185 1.45683 0
M  V30 5364 C 544.851 -0.123395 2.34275 0
M  V30 5365 C 545.867 -0.86702 1.5086 0
M  V30 5366 O 547.043 -0.826049 1.8368 0
M  V30 5367 C 544.108 -1.11237 3.2837 0
M  V30 5368 C 543.169 -0.371405 4.2769 0
M  V30 5369 C 542.402 -1.31327 5.1729 0
M  V30 5370 O 542.625 -2.55078 5.10188 0
M  V30 5371 O 541.559 -0.813811 5.96373 0
M  V30 5372 H 545.385 0.604483 2.97623 0
M  V30 5373 H 542.97 0.361477 1.44961 0
M  V30 5374 H 544.852 -1.68214 3.8637 0
M  V30 5375 H 543.527 -1.82139 2.67595 0
M  V30 5376 H 542.434 0.24067 3.73325 0
M  V30 5377 H 543.767 0.296998 4.91303 0
M  V30 5378 N 545.419 -1.53889 0.339982 0
M  V30 5379 C 546.665 -2.01152 -0.258003 0
M  V30 5380 C 546.998 -1.22749 -1.50487 0
M  V30 5381 O 546.273 -0.314156 -1.91946 0
M  V30 5382 C 546.556 -3.55468 -0.575717 0
M  V30 5383 C 546.409 -4.44584 0.682996 0
M  V30 5384 C 547.728 -4.1768 -1.38677 0
M  V30 5385 H 544.847 -0.731198 -0.0922992 0
M  V30 5386 H 547.489 -1.84352 0.459814 0
M  V30 5387 H 545.639 -3.69914 -1.18725 0
M  V30 5388 H 547.311 -4.41981 1.32102 0
M  V30 5389 H 545.554 -4.13592 1.3086 0
M  V30 5390 H 546.225 -5.5043 0.416001 0
M  V30 5391 H 548.701 -4.0691 -0.869705 0
M  V30 5392 H 547.577 -5.25734 -1.57783 0
M  V30 5393 H 547.838 -3.72069 -2.38782 0
M  V30 5394 N 546.897 -0.0685191 -1.57451 0
M  V30 5395 C 548.144 0.601348 -1.93365 0
M  V30 5396 C 548.472 1.69816 -0.948294 0
M  V30 5397 O 547.727 1.95666 0.0366199 0
M  V30 5398 C 548.026 1.22051 -3.35914 0
M  V30 5399 C 547.692 0.250165 -4.50205 0
M  V30 5400 C 546.354 -0.0167954 -4.81197 0
M  V30 5401 C 548.706 -0.413867 -5.19554 0
M  V30 5402 C 546.034 -0.95493 -5.78876 0
M  V30 5403 C 548.386 -1.3403 -6.18238 0
M  V30 5404 C 547.05 -1.61576 -6.47649 0
M  V30 5405 H 546.32 0.220049 -0.707573 0
M  V30 5406 H 548.967 -0.138697 -1.90997 0
M  V30 5407 H 547.272 2.03622 -3.34732 0
M  V30 5408 H 548.969 1.74605 -3.6099 0
M  V30 5409 H 545.559 0.468421 -4.26033 0
M  V30 5410 H 549.743 -0.220733 -4.95809 0
M  V30 5411 H 544.999 -1.17563 -5.99991 0
M  V30 5412 H 549.173 -1.86081 -6.71079 0
M  V30 5413 H 546.8 -2.34431 -7.2315 0
M  V30 5414 N 548.375 1.56261 0.205012 0
M  V30 5415 C 549.285 1.96944 1.27476 0
M  V30 5416 C 550.301 0.875636 1.50362 0
M  V30 5417 O 551.477 1.18058 1.6317 0
M  V30 5418 C 548.542 2.29219 2.60115 0
M  V30 5419 C 547.603 3.52255 2.45387 0
M  V30 5420 C 546.836 3.8298 3.71701 0
M  V30 5421 O 547.059 3.15138 4.75441 0
M  V30 5422 O 545.993 4.76435 3.67823 0
M  V30 5423 H 549.819 2.88144 0.959527 0
M  V30 5424 H 547.404 1.43686 0.409217 0
M  V30 5425 H 549.286 2.51098 3.3842 0
M  V30 5426 H 547.961 1.4119 2.91285 0
M  V30 5427 H 546.868 3.35635 1.65227 0
M  V30 5428 H 548.201 4.40719 2.19152 0
M  V30 5429 N 549.853 -0.472356 1.50355 0
M  V30 5430 C 550.783 -1.57859 1.72055 0
M  V30 5431 C 551.764 -1.60283 0.569505 0
M  V30 5432 O 552.949 -1.7657 0.808503 0
M  V30 5433 C 550.079 -2.96191 1.81351 0
M  V30 5434 C 549.033 -3.08633 2.96529 0
M  V30 5435 C 548.359 -4.486 2.90968 0
M  V30 5436 C 549.659 -2.85969 4.37057 0
M  V30 5437 H 551.353 -1.39953 2.64676 0
M  V30 5438 H 548.899 -0.671846 1.27367 0
M  V30 5439 H 550.852 -3.73507 1.95117 0
M  V30 5440 H 549.576 -3.15251 0.853502 0
M  V30 5441 H 548.235 -2.33749 2.82413 0
M  V30 5442 H 547.883 -4.64577 1.92815 0
M  V30 5443 H 547.583 -4.57861 3.68289 0
M  V30 5444 H 549.107 -5.27938 3.0678 0
M  V30 5445 H 550.521 -3.53036 4.51706 0
M  V30 5446 H 548.918 -3.06677 5.15819 0
M  V30 5447 H 549.988 -1.81838 4.49514 0
M  V30 5448 N 551.331 -1.39911 -0.725443 0
M  V30 5449 C 552.241 -1.41688 -1.8698 0
M  V30 5450 C 553.257 -0.310579 -1.71206 0
M  V30 5451 O 554.433 -0.55359 -1.93642 0
M  V30 5452 C 551.498 -1.26811 -3.22676 0
M  V30 5453 C 550.559 -2.47497 -3.50776 0
M  V30 5454 C 549.792 -2.3332 -4.79997 0
M  V30 5455 O 550.015 -1.34175 -5.54394 0
M  V30 5456 O 548.949 -3.22498 -5.08211 0
M  V30 5457 H 552.775 -2.38171 -1.88436 0
M  V30 5458 H 550.36 -1.21128 -0.874548 0
M  V30 5459 H 552.242 -1.20684 -4.03749 0
M  V30 5460 H 550.917 -0.334289 -3.21969 0
M  V30 5461 H 549.824 -2.59201 -2.69751 0
M  V30 5462 H 551.157 -3.39606 -3.5627 0
M  V30 5463 N 552.809 0.956637 -1.25245 0
M  V30 5464 C 553.719 2.0868 -1.0719 0
M  V30 5465 C 554.735 1.73997 -0.00959074 0
M  V30 5466 O 555.911 2.00301 -0.210104 0
M  V30 5467 C 552.976 3.39754 -0.690526 0
M  V30 5468 C 552.037 3.88316 -1.83055 0
M  V30 5469 C 551.27 5.13134 -1.46728 0
M  V30 5470 O 551.493 5.6925 -0.362029 0
M  V30 5471 O 550.427 5.56356 -2.29677 0
M  V30 5472 H 554.253 2.26813 -2.01965 0
M  V30 5473 H 551.838 1.07098 -1.04165 0
M  V30 5474 H 553.72 4.18543 -0.489871 0
M  V30 5475 H 552.395 3.22896 0.227981 0
M  V30 5476 H 551.302 3.1054 -2.08604 0
M  V30 5477 H 552.635 4.09669 -2.72822 0
M  V30 5478 N 554.287 1.06798 1.15896 0
M  V30 5479 C 555.536 0.782796 1.8589 0
M  V30 5480 C 555.849 -0.693498 1.82893 0
M  V30 5481 O 557.055 -1.09325 2.48516 0
M  V30 5482 C 555.511 1.3502 3.33613 0
M  V30 5483 C 555.119 2.8571 3.45071 0
M  V30 5484 C 556.863 1.14278 4.08829 0
M  V30 5485 C 554.77 3.35669 4.86909 0
M  V30 5486 H 553.7 0.289149 0.696354 0
M  V30 5487 H 556.351 1.28734 1.30766 0
M  V30 5488 H 554.733 0.773407 3.88374 0
M  V30 5489 H 555.907 3.49385 3.00445 0
M  V30 5490 H 554.222 3.05178 2.83294 0
M  V30 5491 H 556.819 1.49087 5.13495 0
M  V30 5492 H 557.162 0.0814575 4.1622 0
M  V30 5493 H 557.695 1.68563 3.60321 0
M  V30 5494 H 554.434 4.41302 4.84698 0
M  V30 5495 H 553.954 2.76745 5.32139 0
M  V30 5496 H 555.633 3.31296 5.55745 0
M  V30 5497 N 555.766 -1.3263 0.851289 0
M  V30 5498 C 556.714 -2.30882 0.282202 0
M  V30 5499 C 557.708 -1.58697 -0.592589 0
M  V30 5500 O 558.914 -1.73461 -0.480768 0
M  V30 5501 H 555.289 -0.748492 0.0725487 0
M  V30 5502 H 557.26 -2.76374 1.12516 0
M  V30 5503 C 556.009 -3.43828 -0.517449 0
M  V30 5504 H 555.332 -3.99532 0.146392 0
M  V30 5505 H 556.772 -4.1474 -0.88128 0
M  V30 5506 C 555.231 -2.90786 -1.70133 0
M  V30 5507 O 555.761 -2.88 -2.80034 0
M  V30 5508 N 553.967 -2.4723 -1.52728 0
M  V30 5509 H 553.514 -2.49695 -0.633257 0
M  V30 5510 H 553.472 -2.12094 -2.32085 0
M  V30 5511 N 557.244 -0.608902 -1.45362 0
M  V30 5512 C 558.469 -0.10921 -2.07112 0
M  V30 5513 C 558.894 1.19779 -1.45033 0
M  V30 5514 O 558.252 1.72961 -0.543527 0
M  V30 5515 C 558.3 0.0155745 -3.60597 0
M  V30 5516 O 557.404 1.06546 -3.98399 0
M  V30 5517 H 556.745 -0.0746619 -0.659789 0
M  V30 5518 H 559.275 -0.839283 -1.86594 0
M  V30 5519 H 559.285 0.213364 -4.07442 0
M  V30 5520 H 557.96 -0.938765 -4.05167 0
M  V30 5521 H 556.537 0.844024 -3.63223 0
M  V30 5522 N 558.722 1.53707 -0.348139 0
M  V30 5523 C 559.947 2.05877 0.250883 0
M  V30 5524 C 560.372 1.22115 1.43072 0
M  V30 5525 O 559.73 0.235986 1.79758 0
M  V30 5526 C 559.778 3.54886 0.639416 0
M  V30 5527 O 558.882 3.73948 1.73888 0
M  V30 5528 H 558.223 0.662754 0.040653 0
M  V30 5529 H 560.753 1.98303 -0.503685 0
M  V30 5530 H 560.763 3.97601 0.915295 0
M  V30 5531 H 559.438 4.153 -0.223386 0
M  V30 5532 H 558.015 3.43134 1.45991 0
M  V30 5533 N 560.2 0.0768682 1.57412 0
M  V30 5534 C 561.447 -0.591085 1.93681 0
M  V30 5535 C 561.775 -1.69311 0.957286 0
M  V30 5536 O 561.03 -1.95682 -0.0262428 0
M  V30 5537 C 561.329 -1.20268 3.36557 0
M  V30 5538 C 560.995 -0.226286 4.50332 0
M  V30 5539 C 559.657 0.0423142 4.81181 0
M  V30 5540 C 562.009 0.441415 5.19327 0
M  V30 5541 C 559.337 0.985616 5.78362 0
M  V30 5542 C 561.689 1.37307 6.17519 0
M  V30 5543 C 560.353 1.65009 6.46783 0
M  V30 5544 H 559.623 -0.216293 0.70873 0
M  V30 5545 H 562.27 0.148824 1.90921 0
M  V30 5546 H 560.575 -2.01844 3.35807 0
M  V30 5547 H 562.272 -1.72688 3.61911 0
M  V30 5548 H 558.862 -0.445821 4.26275 0
M  V30 5549 H 563.046 0.247023 4.95685 0
M  V30 5550 H 558.302 1.20743 5.99359 0
M  V30 5551 H 562.476 1.89637 6.70083 0
M  V30 5552 H 560.103 2.38263 7.21897 0
M  V30 5553 N 561.678 -1.56367 -0.196722 0
M  V30 5554 C 562.61 -1.90941 -1.26784 0
M  V30 5555 C 563.623 -0.799928 -1.41792 0
M  V30 5556 O 564.812 -1.07833 -1.42247 0
M  V30 5557 C 561.912 -2.12477 -2.6402 0
M  V30 5558 C 561.085 -3.43616 -2.70641 0
M  V30 5559 C 560.144 -3.54284 -3.89062 0
M  V30 5560 O 559.17 -4.2712 -3.76241 0
M  V30 5561 N 560.372 -2.87252 -5.04447 0
M  V30 5562 H 563.137 -2.83417 -0.974417 0
M  V30 5563 H 560.698 -1.57215 -0.386649 0
M  V30 5564 H 562.69 -2.16904 -3.41665 0
M  V30 5565 H 561.26 -1.26508 -2.85857 0
M  V30 5566 H 560.48 -3.51072 -1.79283 0
M  V30 5567 H 561.768 -4.29958 -2.72054 0
M  V30 5568 H 561.166 -2.27901 -5.17762 0
M  V30 5569 H 559.723 -2.97308 -5.80044 0
M  V30 5570 N 563.156 0.464375 -1.50603 0
M  V30 5571 C 564.384 1.23907 -1.65695 0
M  V30 5572 C 564.799 1.85658 -0.343027 0
M  V30 5573 O 564.156 1.69529 0.675739 0
M  V30 5574 C 564.207 2.3429 -2.75301 0
M  V30 5575 O 563.928 1.7507 -4.01599 0
M  V30 5576 C 565.429 3.25051 -3.01424 0
M  V30 5577 H 562.649 0.374485 -0.556778 0
M  V30 5578 H 565.193 0.55353 -1.96866 0
M  V30 5579 H 563.348 2.98607 -2.46804 0
M  V30 5580 H 563.762 2.47812 -4.62266 0
M  V30 5581 H 565.236 3.98699 -3.81763 0
M  V30 5582 H 565.713 3.84227 -2.12758 0
M  V30 5583 H 566.319 2.66463 -3.31477 0
M  V30 5584 N 564.634 1.40294 0.718013 0
M  V30 5585 C 565.597 1.4012 1.81381 0
M  V30 5586 C 566.597 0.295405 1.58063 0
M  V30 5587 O 567.787 0.554187 1.6515 0
M  V30 5588 C 564.919 1.19056 3.19435 0
M  V30 5589 H 566.112 2.37645 1.82933 0
M  V30 5590 H 563.665 1.26107 0.923405 0
M  V30 5591 H 564.4 0.222809 3.23534 0
M  V30 5592 H 564.185 1.99152 3.37758 0
M  V30 5593 H 565.675 1.21716 3.99468 0
M  V30 5594 N 566.112 -0.949982 1.2575 0
M  V30 5595 C 567.389 -1.6718 1.01539 0
M  V30 5596 C 567.769 -2.06095 -0.456942 0
M  V30 5597 O 567.117 -1.77792 -1.43534 0
M  V30 5598 C 567.327 -2.8906 1.95564 0
M  V30 5599 C 568.675 -3.60909 2.23673 0
M  V30 5600 O 569.699 -2.9915 1.9336 0
M  V30 5601 O 568.558 -4.72127 2.75243 0
M  V30 5602 H 565.652 -0.731697 0.385419 0
M  V30 5603 H 568.198 -1.00249 1.36924 0
M  V30 5604 H 566.97 -2.57128 2.94959 0
M  V30 5605 H 566.593 -3.63719 1.60605 0
M  V30 5606 N 567.59 -1.07411 -1.15328 0
M  V30 5607 C 568.836 -0.798831 -1.86404 0
M  V30 5608 C 569.169 0.673433 -1.8215 0
M  V30 5609 O 568.444 1.49428 -1.24505 0
M  V30 5610 C 568.727 -1.30846 -3.35487 0
M  V30 5611 C 568.58 -2.84532 -3.4837 0
M  V30 5612 C 569.899 -0.925486 -4.30259 0
M  V30 5613 H 567.018 -0.291659 -0.676834 0
M  V30 5614 H 569.66 -1.332 -1.35491 0
M  V30 5615 H 567.81 -0.854916 -3.78977 0
M  V30 5616 H 569.482 -3.3818 -3.13739 0
M  V30 5617 H 567.725 -3.22699 -2.8991 0
M  V30 5618 H 568.396 -3.15259 -4.53118 0
M  V30 5619 H 570.872 -1.3163 -3.94731 0
M  V30 5620 H 569.748 -1.3094 -5.33053 0
M  V30 5621 H 570.009 0.168525 -4.41779 0
M  V30 5622 N 569.068 1.32177 -0.85831 0
M  V30 5623 C 570.031 2.27086 -0.310588 0
M  V30 5624 C 571.031 1.51751 0.531806 0
M  V30 5625 O 572.221 1.70794 0.34279 0
M  V30 5626 C 569.353 3.36266 0.560179 0
M  V30 5627 H 570.546 2.77045 -1.1483 0
M  V30 5628 H 568.099 1.42911 -0.632942 0
M  V30 5629 H 568.834 2.9158 1.41956 0
M  V30 5630 H 568.619 3.92077 -0.0428473 0
M  V30 5631 H 570.109 4.06974 0.936056 0
M  V30 5632 N 570.547 0.616602 1.45037 0
M  V30 5633 C 571.794 0.115331 2.02171 0
M  V30 5634 C 572.122 -1.25748 1.48383 0
M  V30 5635 O 571.377 -1.84511 0.652229 0
M  V30 5636 C 571.676 0.0356829 3.57382 0
M  V30 5637 C 571.342 1.34535 4.30362 0
M  V30 5638 C 570.004 1.70408 4.50016 0
M  V30 5639 C 572.356 2.21049 4.72003 0
M  V30 5640 C 569.684 2.92529 5.0857 0
M  V30 5641 C 572.036 3.42427 5.31908 0
M  V30 5642 C 570.7 3.78541 5.49784 0
M  V30 5643 H 569.97 0.0422024 0.739797 0
M  V30 5644 H 572.617 0.80002 1.73988 0
M  V30 5645 H 570.922 -0.732314 3.84895 0
M  V30 5646 H 572.619 -0.368463 3.99304 0
M  V30 5647 H 569.209 1.05615 4.15383 0
M  V30 5648 H 573.393 1.94632 4.56544 0
M  V30 5649 H 568.649 3.20605 5.20598 0
M  V30 5650 H 572.823 4.09709 5.63127 0
M  V30 5651 H 570.45 4.73255 5.94923 0
M  V30 5652 N 572.025 -1.5352 0.356285 0
M  V30 5653 C 573.271 -2.01414 -0.236653 0
M  V30 5654 C 573.604 -1.24339 -1.49176 0
M  V30 5655 O 572.879 -0.334496 -1.91602 0
M  V30 5656 C 573.162 -3.56059 -0.537982 0
M  V30 5657 C 573.015 -4.43835 0.730112 0
M  V30 5658 C 574.334 -4.19127 -1.34239 0
M  V30 5659 H 571.453 -0.732135 -0.0845386 0
M  V30 5660 H 574.095 -1.83854 0.479341 0
M  V30 5661 H 572.245 -3.71153 -1.14795 0
M  V30 5662 H 573.917 -4.40555 1.36782 0
M  V30 5663 H 572.16 -4.1218 1.3524 0
M  V30 5664 H 572.831 -5.49958 0.474358 0
M  V30 5665 H 575.307 -4.07809 -0.826498 0
M  V30 5666 H 574.183 -5.27378 -1.52198 0
M  V30 5667 H 574.444 -3.74581 -2.34822 0
M  V30 5668 N 573.503 -0.0852151 -1.57369 0
M  V30 5669 C 574.752 0.580443 -1.93168 0
M  V30 5670 C 575.065 1.6995 -0.968319 0
M  V30 5671 O 576.271 2.42564 -1.21963 0
M  V30 5672 C 574.727 1.08386 -3.43192 0
M  V30 5673 C 574.335 -0.00491388 -4.48 0
M  V30 5674 C 576.079 1.72281 -3.87968 0
M  V30 5675 C 573.986 0.513299 -5.89168 0
M  V30 5676 H 572.916 0.22059 -0.72101 0
M  V30 5677 H 575.567 -0.159621 -1.82804 0
M  V30 5678 H 573.949 1.8773 -3.48674 0
M  V30 5679 H 575.123 -0.780032 -4.5415 0
M  V30 5680 H 573.438 -0.548453 -4.12772 0
M  V30 5681 H 576.035 2.12108 -4.9083 0
M  V30 5682 H 576.378 2.58811 -3.26071 0
M  V30 5683 H 576.911 0.995359 -3.85146 0
M  V30 5684 H 573.65 -0.315153 -6.54742 0
M  V30 5685 H 573.17 1.25564 -5.8651 0
M  V30 5686 H 574.849 0.985433 -6.39451 0
M  V30 5687 N 574.981 1.5647 0.188427 0
M  V30 5688 C 576.229 1.80655 0.905986 0
M  V30 5689 C 576.55 0.659391 1.83513 0
M  V30 5690 O 575.82 -0.321868 1.93238 0
M  V30 5691 H 574.4 0.666391 0.337538 0
M  V30 5692 H 577.062 1.93949 0.192339 0
M  V30 5693 H 576.158 2.74066 1.49313 0
M  V30 5694 N 576.459 -0.456382 1.50847 0
M  V30 5695 C 577.422 -1.53493 1.70213 0
M  V30 5696 C 578.422 -1.50264 0.572481 0
M  V30 5697 O 579.612 -1.52623 0.839751 0
M  V30 5698 C 576.744 -2.93091 1.741 0
M  V30 5699 H 577.937 -1.37633 2.66453 0
M  V30 5700 H 575.49 -0.683776 1.4055 0
M  V30 5701 H 576.225 -3.14378 0.796063 0
M  V30 5702 H 576.01 -2.9684 2.5618 0
M  V30 5703 H 577.5 -3.71368 1.90987 0
M  V30 5704 N 577.937 -1.40673 -0.710563 0
M  V30 5705 C 578.885 -1.41517 -1.84596 0
M  V30 5706 C 579.879 -0.295043 -1.66811 0
M  V30 5707 O 581.085 -0.466331 -1.73854 0
M  V30 5708 H 577.46 -0.442467 -0.608052 0
M  V30 5709 H 579.431 -2.37238 -1.80999 0
M  V30 5710 C 578.18 -1.29957 -3.225 0
M  V30 5711 H 577.503 -2.15429 -3.36794 0
M  V30 5712 H 578.943 -1.34608 -4.02066 0
M  V30 5713 C 577.402 -0.0103164 -3.36898 0
M  V30 5714 O 577.932 0.950707 -3.90288 0
M  V30 5715 N 576.138 0.0608409 -2.90536 0
M  V30 5716 H 575.685 -0.721943 -2.47277 0
M  V30 5717 H 575.643 0.92292 -3.00549 0
M  V30 5718 N 579.415 0.9433 -1.26252 0
M  V30 5719 C 580.692 1.66639 -1.02424 0
M  V30 5720 C 581.072 2.06335 0.446006 0
M  V30 5721 O 580.42 1.78551 1.42589 0
M  V30 5722 C 580.63 2.88019 -1.97094 0
M  V30 5723 C 581.978 3.59718 -2.25584 0
M  V30 5724 O 583.002 2.9812 -1.94943 0
M  V30 5725 O 581.861 4.7066 -2.77743 0
M  V30 5726 H 578.955 0.729643 -0.389294 0
M  V30 5727 H 581.501 0.995218 -1.37454 0
M  V30 5728 H 580.273 2.5556 -2.96319 0
M  V30 5729 H 579.896 3.62863 -1.62532 0
M  V30 5730 N 580.893 1.08022 1.14757 0
M  V30 5731 C 582.139 0.808705 1.85978 0
M  V30 5732 C 582.472 -0.663764 1.82504 0
M  V30 5733 O 581.747 -1.48765 1.25296 0
M  V30 5734 C 582.03 1.32623 3.34788 0
M  V30 5735 C 581.883 2.86375 3.46856 0
M  V30 5736 C 583.202 0.948291 4.29762 0
M  V30 5737 H 580.321 0.295244 0.675278 0
M  V30 5738 H 582.963 1.33917 1.34783 0
M  V30 5739 H 581.113 0.875002 3.78518 0
M  V30 5740 H 582.785 3.39839 3.11941 0
M  V30 5741 H 581.028 3.24232 2.88194 0
M  V30 5742 H 581.699 3.17658 4.51439 0
M  V30 5743 H 584.175 1.33722 3.94028 0
M  V30 5744 H 583.051 1.33765 5.32352 0
M  V30 5745 H 583.312 -0.145094 4.41862 0
M  V30 5746 N 582.371 -1.3172 0.865308 0
M  V30 5747 C 583.599 -2.01057 0.488251 0
M  V30 5748 C 584.014 -1.64979 -0.918 0
M  V30 5749 O 583.371 -0.876597 -1.60069 0
M  V30 5750 C 583.422 -3.55964 0.630224 0
M  V30 5751 O 583.143 -3.90749 1.98109 0
M  V30 5752 C 584.644 -4.42574 0.253567 0
M  V30 5753 H 581.864 -0.64332 0.190736 0
M  V30 5754 H 584.408 -1.68058 1.16519 0
M  V30 5755 H 582.563 -3.874 0.000895422 0
M  V30 5756 H 582.977 -4.85467 1.9855 0
M  V30 5757 H 584.451 -5.50521 0.403875 0
M  V30 5758 H 584.928 -4.31724 -0.806895 0
M  V30 5759 H 585.534 -4.16547 0.858404 0
M  V30 5760 N 583.85 -0.624285 -1.44708 0
M  V30 5761 C 584.798 0.0969952 -2.32398 0
M  V30 5762 C 585.792 0.842762 -1.46949 0
M  V30 5763 O 586.998 0.756436 -1.63334 0
M  V30 5764 H 583.373 0.0501306 -0.750327 0
M  V30 5765 H 585.344 -0.660767 -2.90992 0
M  V30 5766 C 584.093 1.06967 -3.30837 0
M  V30 5767 H 583.416 0.505242 -3.96595 0
M  V30 5768 H 584.856 1.54397 -3.94889 0
M  V30 5769 C 583.315 2.15153 -2.5925 0
M  V30 5770 O 583.845 3.23139 -2.3863 0
M  V30 5771 N 582.051 1.90898 -2.19103 0
M  V30 5772 H 581.598 1.03086 -2.36074 0
M  V30 5773 H 581.556 2.63485 -1.71531 0
M  V30 5774 N 585.328 1.53329 -0.364422 0
M  V30 5775 C 586.739 1.86345 0.115039 0
M  V30 5776 C 587.09 1.28505 1.4826 0
M  V30 5777 O 586.215 0.606639 2.07723 0
M  V30 5778 C 586.81 3.38114 0.215522 0
M  V30 5779 C 585.369 3.70932 0.639237 0
M  V30 5780 C 584.516 2.76471 -0.214261 0
M  V30 5781 H 587.467 1.47593 -0.583258 0
M  V30 5782 H 587.488 3.66031 1.0393 0
M  V30 5783 H 587 3.80182 -0.779948 0
M  V30 5784 H 585.101 3.3442 1.64298 0
M  V30 5785 H 585.214 4.77302 0.41465 0
M  V30 5786 H 583.578 2.52724 0.316678 0
M  V30 5787 H 584.361 3.21373 -1.20725 0
M  V30 5788 N 586.806 0.0935595 1.57322 0
M  V30 5789 C 587.769 -0.851426 2.12799 0
M  V30 5790 C 588.769 -1.21187 1.0569 0
M  V30 5791 O 589.959 -1.14156 1.31583 0
M  V30 5792 C 587.091 -2.14779 2.64731 0
M  V30 5793 H 588.284 -0.369733 2.97612 0
M  V30 5794 H 585.837 -0.155417 1.55525 0
M  V30 5795 H 586.572 -2.67437 1.83434 0
M  V30 5796 H 586.357 -1.89907 3.43042 0
M  V30 5797 H 587.847 -2.82383 3.07651 0
M  V30 5798 N 588.284 -1.56567 -0.180126 0
M  V30 5799 C 589.247 -1.94852 -1.20686 0
M  V30 5800 C 590.247 -0.831212 -1.3765 0
M  V30 5801 O 591.437 -1.09841 -1.35206 0
M  V30 5802 C 588.569 -2.23565 -2.57355 0
M  V30 5803 H 589.762 -2.86722 -0.879225 0
M  V30 5804 H 587.315 -1.50489 -0.422237 0
M  V30 5805 H 588.05 -1.34381 -2.95148 0
M  V30 5806 H 587.835 -3.04999 -2.46411 0
M  V30 5807 H 589.325 -2.54137 -3.31367 0
M  V30 5808 N 589.762 0.448376 -1.51087 0
M  V30 5809 C 590.709 1.54341 -1.71603 0
M  V30 5810 C 591.679 1.56463 -0.557536 0
M  V30 5811 O 592.864 1.73644 -0.79072 0
M  V30 5812 C 590.004 2.92148 -1.83695 0
M  V30 5813 C 589.117 2.99639 -3.11192 0
M  V30 5814 C 588.252 4.285 -3.13944 0
M  V30 5815 C 587.291 4.29819 -4.35801 0
M  V30 5816 N 586.428 5.50186 -4.36164 0
M  V30 5817 H 591.268 1.36151 -2.65079 0
M  V30 5818 H 588.805 0.661585 -1.31383 0
M  V30 5819 H 590.763 3.72093 -1.88687 0
M  V30 5820 H 589.393 3.0892 -0.936374 0
M  V30 5821 H 588.445 2.12425 -3.15562 0
M  V30 5822 H 589.757 2.96474 -4.01129 0
M  V30 5823 H 588.911 5.16811 -3.17791 0
M  V30 5824 H 587.65 4.34307 -2.21876 0
M  V30 5825 H 586.655 3.39902 -4.32142 0
M  V30 5826 H 587.88 4.25685 -5.29121 0
M  V30 5827 H 585.826 5.56735 -3.46961 0
M  V30 5828 H 585.743 5.48856 -5.19897 0
M  V30 5829 H 587.011 6.40559 -4.44189 0
M  V30 5830 N 591.24 1.41047 0.703093 0
M  V30 5831 C 592.468 1.4334 1.49202 0
M  V30 5832 C 592.883 0.0365596 1.88765 0
M  V30 5833 O 592.24 -0.942419 1.56284 0
M  V30 5834 C 592.291 2.33538 2.75939 0
M  V30 5835 O 592.012 3.67786 2.38045 0
M  V30 5836 C 593.513 2.44555 3.6974 0
M  V30 5837 H 590.733 0.488472 0.460039 0
M  V30 5838 H 593.277 1.85245 0.86629 0
M  V30 5839 H 591.432 1.94962 3.34766 0
M  V30 5840 H 591.846 4.15816 3.19683 0
M  V30 5841 H 593.32 3.11849 4.55471 0
M  V30 5842 H 593.797 1.47447 4.1371 0
M  V30 5843 H 594.403 2.83735 3.16819 0
M  V30 5844 N 592.718 -0.936591 1.26751 0
M  V30 5845 C 593.995 -1.66094 1.03306 0
M  V30 5846 C 594.375 -2.06568 -0.435058 0
M  V30 5847 O 593.723 -1.79305 -1.41641 0
M  V30 5848 C 593.933 -2.86969 1.98619 0
M  V30 5849 C 595.281 -3.58516 2.27489 0
M  V30 5850 O 596.305 -2.97082 1.96522 0
M  V30 5851 O 595.164 -4.69181 2.80235 0
M  V30 5852 H 592.258 -0.727568 0.393158 0
M  V30 5853 H 594.804 -0.987914 1.3798 0
M  V30 5854 H 593.576 -2.53985 2.9767 0
M  V30 5855 H 593.199 -3.61996 1.64454 0
M  V30 5856 N 594.196 -1.08629 -1.14182 0
M  V30 5857 C 595.607 -0.838003 -1.66836 0
M  V30 5858 C 595.958 0.634885 -1.85644 0
M  V30 5859 O 595.083 1.49008 -1.56926 0
M  V30 5860 C 595.678 -1.51465 -3.03058 0
M  V30 5861 C 594.237 -1.31355 -3.52736 0
M  V30 5862 C 593.384 -1.57599 -2.28162 0
M  V30 5863 H 596.335 -1.24656 -0.982165 0
M  V30 5864 H 596.356 -0.943134 -3.68626 0
M  V30 5865 H 595.868 -2.58661 -2.89337 0
M  V30 5866 H 593.969 -0.262384 -3.71675 0
M  V30 5867 H 594.082 -2.04275 -4.33369 0
M  V30 5868 H 592.446 -0.997659 -2.34348 0
M  V30 5869 H 593.229 -2.66006 -2.17015 0
M  V30 5870 N 595.674 1.31259 -0.872281 0
M  V30 5871 C 596.899 2.0133 -0.498099 0
M  V30 5872 C 597.324 1.65031 0.902568 0
M  V30 5873 O 596.682 0.860164 1.59596 0
M  V30 5874 C 596.73 3.54411 -0.665205 0
M  V30 5875 O 595.834 4.11347 0.294473 0
M  V30 5876 H 595.175 0.633844 -0.197832 0
M  V30 5877 H 597.705 1.67402 -1.17633 0
M  V30 5878 H 597.715 4.04147 -0.559373 0
M  V30 5879 H 596.39 3.80171 -1.68651 0
M  V30 5880 H 594.967 3.72624 0.143403 0
M  V30 5881 N 597.152 0.631951 1.44375 0
M  V30 5882 C 598.377 0.142146 2.06912 0
M  V30 5883 C 598.802 -1.17456 1.4692 0
M  V30 5884 O 598.16 -1.72074 0.570975 0
M  V30 5885 C 598.208 0.0417952 3.60576 0
M  V30 5886 O 597.312 -1.00194 4.00044 0
M  V30 5887 H 596.653 0.0851491 0.658518 0
M  V30 5888 H 599.183 0.868863 1.85235 0
M  V30 5889 H 599.193 -0.148517 4.0773 0
M  V30 5890 H 597.868 1.0031 4.03622 0
M  V30 5891 H 596.445 -0.786131 3.64519 0
M  V30 5892 N 598.631 -1.53133 0.372548 0
M  V30 5893 C 600.042 -1.86404 -0.105155 0
M  V30 5894 C 600.393 -1.29289 -1.47576 0
M  V30 5895 O 599.518 -0.617646 -2.07398 0
M  V30 5896 C 600.113 -3.38223 -0.197588 0
M  V30 5897 C 598.672 -3.71266 -0.619556 0
M  V30 5898 C 597.819 -2.76353 0.228919 0
M  V30 5899 H 600.77 -1.47282 0.591077 0
M  V30 5900 H 600.791 -3.66577 -1.01987 0
M  V30 5901 H 600.303 -3.79763 0.800099 0
M  V30 5902 H 598.404 -3.35287 -1.62522 0
M  V30 5903 H 598.517 -4.77515 -0.389332 0
M  V30 5904 H 596.881 -2.52888 -0.303271 0
M  V30 5905 H 597.664 -3.20728 1.22428 0
M  V30 5906 N 600.109 -0.101901 -1.5727 0
M  V30 5907 C 601.358 0.559922 -1.93772 0
M  V30 5908 C 601.671 1.68913 -0.98629 0
M  V30 5909 O 602.877 2.41256 -1.24529 0
M  V30 5910 C 601.333 1.04739 -3.44322 0
M  V30 5911 C 600.941 -0.05243 -4.47969 0
M  V30 5912 C 602.685 1.68157 -3.89774 0
M  V30 5913 C 600.592 0.450781 -5.8968 0
M  V30 5914 H 599.522 0.212931 -0.723309 0
M  V30 5915 H 602.173 -0.179001 -1.82625 0
M  V30 5916 H 600.555 1.84021 -3.50645 0
M  V30 5917 H 601.729 -0.828157 -4.53297 0
M  V30 5918 H 600.044 -0.592202 -4.12167 0
M  V30 5919 H 602.641 2.0689 -4.93052 0
M  V30 5920 H 602.984 2.55338 -3.28798 0
M  V30 5921 H 603.517 0.954453 -3.8618 0
M  V30 5922 H 600.256 -0.38458 -6.54371 0
M  V30 5923 H 599.776 1.19336 -5.87809 0
M  V30 5924 H 601.455 0.917555 -6.40461 0
M  V30 5925 N 601.587 1.56661 0.17182 0
M  V30 5926 C 602.817 1.85831 0.902804 0
M  V30 5927 C 603.225 0.685157 1.76358 0
M  V30 5928 O 602.568 -0.354947 1.80238 0
M  V30 5929 C 602.63 3.09406 1.83053 0
M  V30 5930 C 602.294 4.4231 1.1494 0
M  V30 5931 C 603.291 5.17342 0.515104 0
M  V30 5932 C 600.976 4.89045 1.14631 0
M  V30 5933 C 602.97 6.37299 -0.113194 0
M  V30 5934 C 600.657 6.08933 0.514184 0
M  V30 5935 C 601.655 6.82904 -0.114463 0
M  V30 5936 O 601.343 8.00518 -0.736622 0
M  V30 5937 H 601.075 0.620715 0.267748 0
M  V30 5938 H 603.629 2.04637 0.176918 0
M  V30 5939 H 601.859 2.86544 2.59672 0
M  V30 5940 H 603.548 3.25027 2.4313 0
M  V30 5941 H 604.314 4.82317 0.509474 0
M  V30 5942 H 600.193 4.31409 1.62502 0
M  V30 5943 H 603.737 6.94976 -0.604477 0
M  V30 5944 H 599.634 6.43423 0.517395 0
M  V30 5945 H 600.402 8.16027 -0.635822 0
M  V30 5946 N 603.065 -0.440357 1.51323 0
M  V30 5947 C 604.313 -1.18769 1.63518 0
M  V30 5948 C 604.634 -1.91793 0.352201 0
M  V30 5949 O 603.904 -1.85432 -0.631811 0
M  V30 5950 H 602.484 -0.441408 0.602634 0
M  V30 5951 H 605.146 -0.505162 1.8824 0
M  V30 5952 H 604.242 -1.91892 2.46138 0
M  V30 5953 N 604.543 -1.41418 -0.695603 0
M  V30 5954 C 605.476 -1.3768 -1.81988 0
M  V30 5955 C 606.454 -0.244061 -1.60758 0
M  V30 5956 O 607.638 -0.430965 -1.83507 0
M  V30 5957 C 604.765 -1.1476 -3.18666 0
M  V30 5958 C 603.811 -2.30752 -3.58686 0
M  V30 5959 S 604.644 -3.9323 -3.63498 0
M  V30 5960 C 605.8 -3.72613 -5.02902 0
M  V30 5961 H 606.033 -2.32822 -1.84882 0
M  V30 5962 H 603.566 -1.27942 -0.86431 0
M  V30 5963 H 605.524 -1.02223 -3.97569 0
M  V30 5964 H 604.185 -0.212385 -3.13381 0
M  V30 5965 H 603.378 -2.10409 -4.57978 0
M  V30 5966 H 602.98 -2.39696 -2.87092 0
M  V30 5967 H 605.272 -3.32317 -5.904 0
M  V30 5968 H 606.215 -4.71507 -5.28286 0
M  V30 5969 H 606.623 -3.0589 -4.74438 0
M  V30 5970 N 606.021 0.929856 -1.27246 0
M  V30 5971 C 607.432 1.49223 -1.12203 0
M  V30 5972 C 607.783 1.93989 0.293731 0
M  V30 5973 O 606.908 1.80978 1.18642 0
M  V30 5974 C 607.503 2.71198 -2.0307 0
M  V30 5975 C 606.062 3.23666 -1.92139 0
M  V30 5976 C 605.209 1.96409 -1.95752 0
M  V30 5977 H 608.16 0.744181 -1.4017 0
M  V30 5978 H 608.181 3.45905 -1.58524 0
M  V30 5979 H 607.693 2.38585 -3.06102 0
M  V30 5980 H 605.794 3.61042 -0.920834 0
M  V30 5981 H 605.907 3.90006 -2.78267 0
M  V30 5982 H 604.271 2.12806 -1.39949 0
M  V30 5983 H 605.054 1.66113 -3.00436 0
M  V30 5984 N 607.499 1.09233 1.13605 0
M  V30 5985 C 608.748 0.82205 1.84188 0
M  V30 5986 C 609.061 -0.654548 1.84323 0
M  V30 5987 O 610.267 -1.04029 2.50779 0
M  V30 5988 C 608.723 1.42066 3.30674 0
M  V30 5989 C 608.331 2.92965 3.38933 0
M  V30 5990 C 610.075 1.22924 4.06313 0
M  V30 5991 C 607.982 3.45922 4.79679 0
M  V30 5992 H 606.912 0.303854 0.690064 0
M  V30 5993 H 609.563 1.31479 1.28006 0
M  V30 5994 H 607.945 0.855613 3.86646 0
M  V30 5995 H 609.119 3.55679 2.92966 0
M  V30 5996 H 607.434 3.11118 2.76757 0
M  V30 5997 H 610.031 1.59945 5.10217 0
M  V30 5998 H 610.374 0.169726 4.15954 0
M  V30 5999 H 610.907 1.76168 3.56665 0
M  V30 6000 H 607.646 4.51484 4.75229 0
M  V30 6001 H 607.166 2.87971 5.26149 0
M  V30 6002 H 608.845 3.43009 5.48592 0
M  V30 6003 N 608.977 -1.30795 0.87923 0
M  V30 6004 C 609.907 -2.30742 0.357796 0
M  V30 6005 C 610.888 -1.60747 -0.556283 0
M  V30 6006 O 612.073 -1.88393 -0.47135 0
M  V30 6007 C 609.203 -3.44583 -0.433555 0
M  V30 6008 C 608.157 -4.26235 0.388251 0
M  V30 6009 C 607.483 -5.32073 -0.529352 0
M  V30 6010 C 608.783 -4.96303 1.62729 0
M  V30 6011 H 610.477 -2.74605 1.19299 0
M  V30 6012 H 608.023 -1.32017 0.575104 0
M  V30 6013 H 609.976 -4.13563 -0.808934 0
M  V30 6014 H 608.7 -2.99511 -1.30234 0
M  V30 6015 H 607.359 -3.58936 0.745695 0
M  V30 6016 H 607.007 -4.83249 -1.39569 0
M  V30 6017 H 606.707 -5.87598 0.0166741 0
M  V30 6018 H 608.231 -6.0391 -0.901373 0
M  V30 6019 H 609.645 -5.5783 1.32283 0
M  V30 6020 H 608.042 -5.61666 2.11309 0
M  V30 6021 H 609.112 -4.22758 2.37494 0
M  V30 6022 N 610.455 -0.639598 -1.44038 0
M  V30 6023 C 611.732 -0.078012 -1.95444 0
M  V30 6024 C 612.112 1.39847 -1.58133 0
M  V30 6025 O 611.46 2.11714 -0.859614 0
M  V30 6026 C 611.67 -0.309832 -3.47622 0
M  V30 6027 C 613.018 -0.207521 -4.24093 0
M  V30 6028 O 614.042 -0.241653 -3.55379 0
M  V30 6029 O 612.901 -0.119641 -5.46369 0
M  V30 6030 H 609.995 0.0174534 -0.826816 0
M  V30 6031 H 612.541 -0.711891 -1.54046 0
M  V30 6032 H 611.313 -1.33401 -3.67858 0
M  V30 6033 H 610.936 0.357777 -3.95987 0
M  V30 6034 N 611.933 1.52934 -0.380664 0
M  V30 6035 C 613.179 2.01765 0.20458 0
M  V30 6036 C 613.512 1.26696 1.47179 0
M  V30 6037 O 612.787 0.364936 1.91046 0
M  V30 6038 C 613.07 3.56869 0.481269 0
M  V30 6039 C 612.923 4.42617 -0.800629 0
M  V30 6040 C 614.242 4.2121 1.27554 0
M  V30 6041 H 611.361 0.733388 0.0728803 0
M  V30 6042 H 614.003 1.83068 -0.50853 0
M  V30 6043 H 612.153 3.72932 1.08875 0
M  V30 6044 H 613.825 4.38323 -1.43773 0
M  V30 6045 H 612.068 4.09977 -1.4178 0
M  V30 6046 H 612.739 5.49134 -0.561791 0
M  V30 6047 H 615.215 4.09072 0.761514 0
M  V30 6048 H 614.091 5.29732 1.43788 0
M  V30 6049 H 614.352 3.78269 2.28833 0
M  V30 6050 N 613.412 0.11024 1.57214 0
M  V30 6051 C 614.322 -0.857077 2.18383 0
M  V30 6052 C 615.338 -1.29915 1.1575 0
M  V30 6053 O 616.514 -1.36394 1.48184 0
M  V30 6054 C 613.579 -2.09264 2.76423 0
M  V30 6055 C 612.64 -1.70333 3.94063 0
M  V30 6056 C 611.873 -2.87999 4.49324 0
M  V30 6057 O 612.096 -4.0317 4.03497 0
M  V30 6058 O 611.03 -2.6559 5.40135 0
M  V30 6059 H 614.856 -0.366561 3.0148 0
M  V30 6060 H 612.441 -0.114914 1.48957 0
M  V30 6061 H 614.323 -2.81644 3.13456 0
M  V30 6062 H 612.998 -2.57339 1.96363 0
M  V30 6063 H 611.905 -0.950864 3.61814 0
M  V30 6064 H 613.238 -1.27007 4.75531 0
M  V30 6065 N 614.89 -1.56749 -0.16351 0
M  V30 6066 C 615.837 -1.97011 -1.2023 0
M  V30 6067 C 616.807 -0.835186 -1.43575 0
M  V30 6068 O 617.992 -1.09594 -1.56185 0
M  V30 6069 C 615.132 -2.34186 -2.53478 0
M  V30 6070 C 614.245 -3.60893 -2.37446 0
M  V30 6071 C 613.38 -3.87245 -3.63614 0
M  V30 6072 C 612.419 -5.07274 -3.42548 0
M  V30 6073 N 611.556 -5.29719 -4.60806 0
M  V30 6074 H 616.396 -2.85562 -0.851958 0
M  V30 6075 H 613.933 -1.41292 -0.409257 0
M  V30 6076 H 615.891 -2.53764 -3.31149 0
M  V30 6077 H 614.521 -1.48736 -2.86492 0
M  V30 6078 H 613.573 -3.49185 -1.50911 0
M  V30 6079 H 614.885 -4.48722 -2.1783 0
M  V30 6080 H 614.039 -4.07232 -4.49719 0
M  V30 6081 H 612.778 -2.97806 -3.86216 0
M  V30 6082 H 611.783 -4.87177 -2.5483 0
M  V30 6083 H 613.008 -5.98251 -3.2136 0
M  V30 6084 H 610.954 -4.43233 -4.83612 0
M  V30 6085 H 610.871 -6.11786 -4.44132 0
M  V30 6086 H 612.139 -5.54192 -5.48171 0
M  V30 6087 N 616.368 0.432326 -1.51554 0
M  V30 6088 C 617.331 1.50765 -1.72634 0
M  V30 6089 C 618.331 1.49334 -0.596314 0
M  V30 6090 O 619.521 1.51268 -0.863925 0
M  V30 6091 C 616.653 2.90284 -1.7874 0
M  V30 6092 H 617.846 1.33377 -2.68609 0
M  V30 6093 H 615.399 0.661329 -1.4162 0
M  V30 6094 H 616.134 3.13071 -0.845977 0
M  V30 6095 H 615.919 2.92727 -2.6087 0
M  V30 6096 H 617.409 3.68282 -1.96871 0
M  V30 6097 N 617.846 1.41785 0.688094 0
M  V30 6098 C 619.094 1.41264 1.4453 0
M  V30 6099 C 619.415 0.0252946 1.94984 0
M  V30 6100 O 618.685 -0.934081 1.72197 0
M  V30 6101 H 617.265 0.519998 0.536294 0
M  V30 6102 H 619.927 1.7709 0.813941 0
M  V30 6103 H 619.023 2.10439 2.30482 0
M  V30 6104 N 619.324 -0.923095 1.27737 0
M  V30 6105 C 620.552 -1.70525 1.17171 0
M  V30 6106 C 620.967 -1.86847 -0.270881 0
M  V30 6107 O 620.324 -1.38879 -1.18401 0
M  V30 6108 C 620.375 -3.10242 1.85559 0
M  V30 6109 O 620.096 -2.94683 3.24182 0
M  V30 6110 C 621.597 -4.04586 1.81176 0
M  V30 6111 H 618.817 -0.533347 0.407163 0
M  V30 6112 H 621.361 -1.15599 1.68692 0
M  V30 6113 H 619.516 -3.62014 1.3793 0
M  V30 6114 H 619.93 -3.83045 3.58297 0
M  V30 6115 H 621.404 -5.00119 2.33633 0
M  V30 6116 H 621.881 -4.3218 0.782099 0
M  V30 6117 H 622.487 -3.58741 2.2844 0
M  V30 6118 N 620.802 -1.09834 -1.13024 0
M  V30 6119 C 622.048 -0.83819 -1.84668 0
M  V30 6120 C 622.381 0.634645 -1.83537 0
M  V30 6121 O 621.656 1.46753 -1.27647 0
M  V30 6122 C 621.939 -1.37933 -3.32636 0
M  V30 6123 C 621.792 -2.91857 -3.42257 0
M  V30 6124 C 623.111 -1.01654 -4.28199 0
M  V30 6125 H 620.23 -0.30595 -0.670495 0
M  V30 6126 H 622.872 -1.36044 -1.32635 0
M  V30 6127 H 621.022 -0.935111 -3.77078 0
M  V30 6128 H 622.694 -3.44759 -3.06495 0
M  V30 6129 H 620.937 -3.28776 -2.83 0
M  V30 6130 H 621.608 -3.24799 -4.46329 0
M  V30 6131 H 624.084 -1.39973 -3.9185 0
M  V30 6132 H 622.96 -1.42217 -5.30156 0
M  V30 6133 H 623.221 0.0747794 -4.42037 0
M  V30 6134 N 622.28 1.30327 -0.886154 0
M  V30 6135 C 623.21 2.30549 -0.370028 0
M  V30 6136 C 624.191 1.61039 0.547751 0
M  V30 6137 O 625.376 1.8864 0.461353 0
M  V30 6138 C 622.506 3.44808 0.415275 0
M  V30 6139 C 621.46 4.26024 -0.41085 0
M  V30 6140 C 620.786 5.32347 0.501128 0
M  V30 6141 C 622.086 4.95433 -1.65359 0
M  V30 6142 H 623.78 2.73969 -1.20754 0
M  V30 6143 H 621.326 1.3171 -0.582097 0
M  V30 6144 H 623.279 4.13986 0.78699 0
M  V30 6145 H 622.003 3.00197 1.28644 0
M  V30 6146 H 620.662 3.58535 -0.764719 0
M  V30 6147 H 620.31 4.83982 1.37004 0
M  V30 6148 H 620.01 5.87581 -0.0478356 0
M  V30 6149 H 621.534 6.0438 0.869333 0
M  V30 6150 H 622.948 5.5712 -1.35239 0
M  V30 6151 H 621.345 5.60537 -2.14284 0
M  V30 6152 H 622.415 4.21493 -2.39733 0
M  V30 6153 N 623.758 0.647228 1.43697 0
M  V30 6154 C 625.005 0.158188 2.01881 0
M  V30 6155 C 625.333 -1.22573 1.51017 0
M  V30 6156 O 624.588 -1.83086 0.69122 0
M  V30 6157 C 624.887 0.111481 3.57226 0
M  V30 6158 C 624.553 1.43633 4.27411 0
M  V30 6159 C 623.215 1.79915 4.463 0
M  V30 6160 C 625.567 2.31011 4.67208 0
M  V30 6161 C 622.895 3.03251 5.02251 0
M  V30 6162 C 625.247 3.53633 5.24525 0
M  V30 6163 C 623.911 3.90118 5.41631 0
M  V30 6164 H 623.181 0.0578851 0.738736 0
M  V30 6165 H 625.828 0.836746 1.72252 0
M  V30 6166 H 624.133 -0.650507 3.86362 0
M  V30 6167 H 625.83 -0.283682 3.99995 0
M  V30 6168 H 622.42 1.14403 4.1305 0
M  V30 6169 H 626.604 2.04272 4.52313 0
M  V30 6170 H 621.86 3.31575 5.13681 0
M  V30 6171 H 626.034 4.21561 5.5431 0
M  V30 6172 H 623.661 4.85768 5.84751 0
M  V30 6173 N 625.236 -1.5273 0.388769 0
M  V30 6174 C 626.485 -2.00757 -0.194833 0
M  V30 6175 C 626.798 -1.27951 -1.47946 0
M  V30 6176 O 628.004 -1.66686 -2.14308 0
M  V30 6177 C 626.46 -3.57695 -0.397762 0
M  V30 6178 C 626.068 -4.394 0.873583 0
M  V30 6179 C 627.812 -4.14012 -0.937759 0
M  V30 6180 C 625.719 -5.87938 0.638962 0
M  V30 6181 H 624.649 -0.750101 -0.0765845 0
M  V30 6182 H 627.3 -1.76239 0.511086 0
M  V30 6183 H 625.682 -3.7846 -1.16552 0
M  V30 6184 H 626.856 -4.30403 1.64591 0
M  V30 6185 H 625.171 -3.94301 1.33849 0
M  V30 6186 H 627.768 -5.22645 -1.12899 0
M  V30 6187 H 628.111 -3.7007 -1.90666 0
M  V30 6188 H 628.644 -3.97137 -0.229588 0
M  V30 6189 H 625.383 -6.36202 1.57885 0
M  V30 6190 H 624.903 -5.99726 -0.094443 0
M  V30 6191 H 626.582 -6.46423 0.273299 0
M  V30 6192 N 626.714 -0.118576 -1.57153 0
M  V30 6193 C 627.661 0.831789 -2.1529 0
M  V30 6194 C 628.631 1.26385 -1.07778 0
M  V30 6195 O 629.816 1.34144 -1.35684 0
M  V30 6196 C 626.956 2.07664 -2.75626 0
M  V30 6197 C 626.069 1.69298 -3.97444 0
M  V30 6198 C 625.204 2.88747 -4.45868 0
M  V30 6199 C 624.243 2.46619 -5.60219 0
M  V30 6200 N 623.38 3.5898 -6.03389 0
M  V30 6201 H 628.22 0.329183 -2.96176 0
M  V30 6202 H 625.757 0.150792 -1.46325 0
M  V30 6203 H 627.715 2.80601 -3.08738 0
M  V30 6204 H 626.345 2.55384 -1.97431 0
M  V30 6205 H 625.397 0.862374 -3.70496 0
M  V30 6206 H 626.709 1.34338 -4.80369 0
M  V30 6207 H 625.863 3.69909 -4.80887 0
M  V30 6208 H 624.602 3.26933 -3.61892 0
M  V30 6209 H 623.607 1.63889 -5.24805 0
M  V30 6210 H 624.832 2.0955 -6.45961 0
M  V30 6211 H 622.778 3.9684 -5.22354 0
M  V30 6212 H 622.695 3.27942 -6.81168 0
M  V30 6213 H 623.963 4.40583 -6.43045 0
M  V30 6214 N 628.193 1.56834 0.155195 0
M  V30 6215 C 629.609 1.51315 0.50755 0
M  V30 6216 C 629.809 0.825614 1.83809 0
M  V30 6217 O 628.865 0.39271 2.49427 0
M  V30 6218 C 630.178 2.96074 0.52542 0
M  V30 6219 C 631.726 3.06968 0.611505 0
M  V30 6220 C 632.201 4.53218 0.660115 0
M  V30 6221 N 633.692 4.5753 0.722564 0
M  V30 6222 C 634.427 5.68056 0.781023 0
M  V30 6223 N 633.923 6.88173 0.799327 0
M  V30 6224 N 635.716 5.56068 0.821278 0
M  V30 6225 H 627.867 1.9993 -0.717063 0
M  V30 6226 H 630.13 0.911507 -0.260496 0
M  V30 6227 H 629.836 3.49599 -0.383875 0
M  V30 6228 H 629.71 3.51587 1.36624 0
M  V30 6229 H 632.097 2.53468 1.51122 0
M  V30 6230 H 632.178 2.54513 -0.256306 0
M  V30 6231 H 631.822 5.07354 -0.23541 0
M  V30 6232 H 631.752 5.03447 1.5443 0
M  V30 6233 H 634.243 3.71054 0.716049 0
M  V30 6234 H 634.556 7.6816 0.845553 0
M  V30 6235 H 632.901 6.90751 0.767337 0
M  V30 6236 H 636.092 4.61142 0.804091 0
M  V30 6237 H 636.265 6.42223 0.863372 0
M  V30 6238 N 629.671 -0.424282 1.51781 0
M  V30 6239 C 630.896 -1.19928 1.6921 0
M  V30 6240 C 631.321 -1.8392 0.394355 0
M  V30 6241 O 630.679 -1.69371 -0.646778 0
M  V30 6242 C 630.727 -2.24937 2.81843 0
M  V30 6243 O 629.831 -3.3073 2.46356 0
M  V30 6244 H 629.172 -0.35078 0.563781 0
M  V30 6245 H 631.702 -0.499401 1.98412 0
M  V30 6246 H 631.712 -2.69512 3.06312 0
M  V30 6247 H 630.387 -1.77742 3.76006 0
M  V30 6248 H 628.964 -2.9154 2.32505 0
M  V30 6249 N 631.149 -1.42148 -0.680565 0
M  V30 6250 C 632.082 -1.39602 -1.80517 0
M  V30 6251 C 633.06 -0.261098 -1.6049 0
M  V30 6252 O 634.244 -0.450404 -1.8304 0
M  V30 6253 C 631.371 -1.18134 -3.1743 0
M  V30 6254 C 630.417 -2.34543 -3.56219 0
M  V30 6255 S 631.25 -3.97063 -3.59306 0
M  V30 6256 C 632.406 -3.77926 -4.98921 0
M  V30 6257 H 632.639 -2.3477 -1.82402 0
M  V30 6258 H 630.172 -1.28851 -0.850691 0
M  V30 6259 H 632.13 -1.06434 -3.96462 0
M  V30 6260 H 630.791 -0.245611 -3.13138 0
M  V30 6261 H 629.984 -2.15255 -4.55721 0
M  V30 6262 H 629.586 -2.42728 -2.84533 0
M  V30 6263 H 631.878 -3.3856 -5.86842 0
M  V30 6264 H 632.821 -4.77084 -5.23256 0
M  V30 6265 H 633.229 -3.10904 -4.71167 0
M  V30 6266 N 632.627 0.916307 -1.28225 0
M  V30 6267 C 633.59 1.99996 -1.11957 0
M  V30 6268 C 634.59 1.60688 -0.0600152 0
M  V30 6269 O 635.78 1.71499 -0.30558 0
M  V30 6270 C 632.912 3.33458 -0.708411 0
M  V30 6271 H 634.105 2.15858 -2.08196 0
M  V30 6272 H 631.658 1.09863 -1.11175 0
M  V30 6273 H 632.393 3.23297 0.254859 0
M  V30 6274 H 632.178 3.63349 -1.47377 0
M  V30 6275 H 633.668 4.13014 -0.617164 0
M  V30 6276 N 634.105 1.10431 1.1244 0
M  V30 6277 C 635.33 0.869089 1.88313 0
M  V30 6278 C 635.755 -0.574912 1.79099 0
M  V30 6279 O 635.113 -1.40496 1.14589 0
M  V30 6280 C 635.161 1.32208 3.3549 0
M  V30 6281 O 634.265 0.487092 4.09513 0
M  V30 6282 H 633.606 0.313894 0.585121 0
M  V30 6283 H 636.136 1.47111 1.42195 0
M  V30 6284 H 636.146 1.31201 3.86329 0
M  V30 6285 H 634.821 2.37364 3.41513 0
M  V30 6286 H 633.398 0.562372 3.68635 0
M  V30 6287 N 635.583 -1.29855 0.893053 0
M  V30 6288 C 636.831 -1.9544 0.514566 0
M  V30 6289 C 637.152 -1.70795 -0.940959 0
M  V30 6290 O 636.422 -1.03601 -1.66264 0
M  V30 6291 H 635.002 -0.723137 0.187302 0
M  V30 6292 H 637.664 -1.58234 1.13789 0
M  V30 6293 H 636.76 -3.04341 0.691581 0
M  V30 6294 N 637.061 -0.65484 -1.43351 0
M  V30 6295 C 638.291 -0.176429 -2.05845 0
M  V30 6296 C 638.699 1.16375 -1.49176 0
M  V30 6297 O 638.042 1.72981 -0.618322 0
M  V30 6298 C 638.104 -0.0125844 -3.59498 0
M  V30 6299 C 637.768 -1.27831 -4.38758 0
M  V30 6300 C 638.765 -2.2074 -4.70712 0
M  V30 6301 C 636.45 -1.52035 -4.78739 0
M  V30 6302 C 638.444 -3.36145 -5.41558 0
M  V30 6303 C 636.131 -2.67732 -5.49329 0
M  V30 6304 C 637.129 -3.59612 -5.80662 0
M  V30 6305 O 636.817 -4.73289 -6.4981 0
M  V30 6306 H 636.549 -0.0879682 -0.670252 0
M  V30 6307 H 639.103 -0.896193 -1.84818 0
M  V30 6308 H 637.333 0.762567 -3.79107 0
M  V30 6309 H 639.022 0.423392 -4.03686 0
M  V30 6310 H 639.788 -2.03284 -4.40341 0
M  V30 6311 H 635.667 -0.813987 -4.53757 0
M  V30 6312 H 639.211 -4.07881 -5.65932 0
M  V30 6313 H 635.108 -2.85122 -5.79116 0
M  V30 6314 H 635.876 -4.72575 -6.68293 0
M  V30 6315 N 638.539 1.52521 -0.396863 0
M  V30 6316 C 639.502 2.2527 0.422604 0
M  V30 6317 C 640.502 1.27184 0.983913 0
M  V30 6318 O 641.692 1.51222 0.864723 0
M  V30 6319 C 638.824 3.01356 1.59365 0
M  V30 6320 H 640.017 2.99133 -0.214416 0
M  V30 6321 H 637.57 1.55587 -0.149128 0
M  V30 6322 H 638.305 2.31813 2.26789 0
M  V30 6323 H 638.09 3.73357 1.19779 0
M  V30 6324 H 639.58 3.56571 2.17363 0
M  V30 6325 N 640.017 0.126909 1.57088 0
M  V30 6326 C 641.265 -0.528123 1.95078 0
M  V30 6327 C 641.586 -1.66708 1.0116 0
M  V30 6328 O 640.856 -1.95777 0.0693527 0
M  V30 6329 H 639.436 -0.198087 0.720257 0
M  V30 6330 H 642.098 0.197703 1.93895 0
M  V30 6331 H 641.194 -0.917507 2.98309 0
M  V30 6332 N 641.495 -1.56914 -0.146875 0
M  V30 6333 C 642.741 -1.83628 -0.860741 0
M  V30 6334 C 643.074 -0.708528 -1.80813 0
M  V30 6335 O 642.349 0.287838 -1.92358 0
M  V30 6336 C 642.632 -3.20836 -1.63511 0
M  V30 6337 C 642.485 -4.44174 -0.709199 0
M  V30 6338 C 643.804 -3.55268 -2.59756 0
M  V30 6339 H 640.923 -0.667949 -0.311468 0
M  V30 6340 H 643.565 -1.89582 -0.125936 0
M  V30 6341 H 641.715 -3.15891 -2.26153 0
M  V30 6342 H 643.387 -4.61205 -0.0937781 0
M  V30 6343 H 641.63 -4.33796 -0.0187856 0
M  V30 6344 H 642.301 -5.36785 -1.28707 0
M  V30 6345 H 644.777 -3.60824 -2.07232 0
M  V30 6346 H 643.653 -4.52303 -3.10987 0
M  V30 6347 H 643.914 -2.81231 -3.41118 0
M  V30 6348 N 642.974 0.416227 -1.52004 0
M  V30 6349 C 643.884 1.53147 -1.77717 0
M  V30 6350 C 644.9 1.609 -0.662368 0
M  V30 6351 O 646.076 1.77747 -0.946991 0
M  V30 6352 C 643.141 2.88948 -1.91598 0
M  V30 6353 C 642.202 2.9114 -3.15493 0
M  V30 6354 C 641.435 4.20464 -3.28703 0
M  V30 6355 O 641.658 5.13981 -2.47345 0
M  V30 6356 O 640.592 4.29368 -4.21813 0
M  V30 6357 H 644.418 1.34357 -2.72363 0
M  V30 6358 H 642.003 0.601373 -1.36762 0
M  V30 6359 H 643.885 3.69505 -2.02593 0
M  V30 6360 H 642.56 3.07821 -1.00141 0
M  V30 6361 H 641.467 2.09461 -3.09962 0
M  V30 6362 H 642.8 2.77216 -4.06709 0
M  V30 6363 N 644.452 1.42507 0.673017 0
M  V30 6364 C 645.4 1.46362 1.80779 0
M  V30 6365 C 646.394 0.339166 1.6597 0
M  V30 6366 O 647.6 0.512262 1.72557 0
M  V30 6367 H 643.975 0.458433 0.596107 0
M  V30 6368 H 645.946 2.41953 1.74646 0
M  V30 6369 C 644.695 1.38462 3.18941 0
M  V30 6370 H 644.018 2.24283 3.30964 0
M  V30 6371 H 645.458 1.45221 3.98355 0
M  V30 6372 C 643.917 0.0996354 3.36753 0
M  V30 6373 O 644.447 -0.846894 3.92671 0
M  V30 6374 N 642.653 0.016211 2.90595 0
M  V30 6375 H 642.2 0.78725 2.45276 0
M  V30 6376 H 642.158 -0.84291 3.0289 0
M  V30 6377 N 645.93 -0.909495 1.28709 0
M  V30 6378 C 646.84 -2.04558 1.14861 0
M  V30 6379 C 647.856 -1.73842 0.0741621 0
M  V30 6380 O 649.032 -1.99383 0.2843 0
M  V30 6381 C 646.097 -3.36957 0.816148 0
M  V30 6382 C 645.158 -3.81255 1.97341 0
M  V30 6383 C 644.391 -5.07335 1.65671 0
M  V30 6384 O 644.614 -5.67514 0.573053 0
M  V30 6385 O 643.548 -5.47449 2.50167 0
M  V30 6386 H 647.374 -2.19161 2.10243 0
M  V30 6387 H 644.959 -1.03159 1.08068 0
M  V30 6388 H 646.841 -4.16436 0.644873 0
M  V30 6389 H 645.516 -3.2352 -0.107983 0
M  V30 6390 H 644.423 -3.02584 2.19986 0
M  V30 6391 H 645.756 -3.99261 2.87839 0
M  V30 6392 N 647.408 -1.11026 -1.11852 0
M  V30 6393 C 648.338 -0.786812 -2.19844 0
M  V30 6394 C 649.319 0.242935 -1.68356 0
M  V30 6395 O 650.504 0.107355 -1.93903 0
M  V30 6396 C 647.634 -0.224516 -3.46574 0
M  V30 6397 C 646.588 -1.18564 -4.1125 0
M  V30 6398 C 645.914 -0.484261 -5.32503 0
M  V30 6399 C 647.214 -2.53465 -4.56676 0
M  V30 6400 H 648.908 -1.68978 -2.47158 0
M  V30 6401 H 646.454 -0.813906 -1.18792 0
M  V30 6402 H 648.407 0.0139435 -4.21398 0
M  V30 6403 H 647.131 0.713722 -3.18706 0
M  V30 6404 H 645.79 -1.40966 -3.38414 0
M  V30 6405 H 645.438 0.458646 -5.00905 0
M  V30 6406 H 645.138 -1.12526 -5.76725 0
M  V30 6407 H 646.662 -0.254492 -6.10069 0
M  V30 6408 H 648.076 -2.35177 -5.22843 0
M  V30 6409 H 646.473 -3.13507 -5.11697 0
M  V30 6410 H 647.543 -3.13008 -3.70343 0
M  V30 6411 N 648.886 1.2938 -0.899927 0
M  V30 6412 C 650.133 1.9555 -0.525963 0
M  V30 6413 C 650.461 1.70945 0.927789 0
M  V30 6414 O 649.716 1.01545 1.67293 0
M  V30 6415 C 650.015 3.49114 -0.765113 0
M  V30 6416 C 649.681 3.93796 -2.19626 0
M  V30 6417 C 648.343 4.05707 -2.58758 0
M  V30 6418 C 650.695 4.16883 -3.12823 0
M  V30 6419 C 648.023 4.38074 -3.90267 0
M  V30 6420 C 650.375 4.50725 -4.4388 0
M  V30 6421 C 649.039 4.60845 -4.82885 0
M  V30 6422 H 648.309 0.715569 -0.192463 0
M  V30 6423 H 650.956 1.53972 -1.13863 0
M  V30 6424 H 649.261 3.91738 -0.069531 0
M  V30 6425 H 650.958 3.98409 -0.455144 0
M  V30 6426 H 647.548 3.85042 -1.88256 0
M  V30 6427 H 651.732 4.07147 -2.83804 0
M  V30 6428 H 646.988 4.44112 -4.20207 0
M  V30 6429 H 651.162 4.67538 -5.16121 0
M  V30 6430 H 648.789 4.85681 -5.84823 0
M  V30 6431 N 650.364 0.662433 1.43002 0
M  V30 6432 C 651.611 0.179591 2.01702 0
M  V30 6433 C 651.939 -1.20964 1.52309 0
M  V30 6434 O 651.194 -1.82343 0.7106 0
M  V30 6435 C 651.493 0.149363 3.57088 0
M  V30 6436 C 651.159 1.48158 4.25864 0
M  V30 6437 C 649.821 1.84638 4.44367 0
M  V30 6438 C 652.173 2.35953 4.64732 0
M  V30 6439 C 649.501 3.08561 4.99006 0
M  V30 6440 C 651.853 3.59176 5.20745 0
M  V30 6441 C 650.517 3.95841 5.37463 0
M  V30 6442 H 649.787 0.0657172 0.73808 0
M  V30 6443 H 652.434 0.854968 1.71355 0
M  V30 6444 H 650.739 -0.609491 3.8703 0
M  V30 6445 H 652.436 -0.241241 4.00274 0
M  V30 6446 H 649.026 1.18777 4.11813 0
M  V30 6447 H 653.21 2.09058 4.50121 0
M  V30 6448 H 648.466 3.37005 5.10135 0
M  V30 6449 H 652.64 4.27417 5.49807 0
M  V30 6450 H 650.267 4.91942 5.79566 0
M  V30 6451 N 651.842 -1.52309 0.404946 0
M  V30 6452 C 653.258 -1.59503 0.0556255 0
M  V30 6453 C 653.458 -1.41805 -1.43156 0
M  V30 6454 O 652.514 -1.2429 -2.19792 0
M  V30 6455 C 653.827 -2.95687 0.546801 0
M  V30 6456 C 655.375 -3.08909 0.504413 0
M  V30 6457 C 655.85 -4.47566 0.97203 0
M  V30 6458 N 657.341 -4.53795 0.928679 0
M  V30 6459 C 658.076 -5.59346 1.26174 0
M  V30 6460 N 657.572 -6.72469 1.66604 0
M  V30 6461 N 659.365 -5.49532 1.18198 0
M  V30 6462 H 651.516 -1.6206 1.37296 0
M  V30 6463 H 653.779 -0.762161 0.563751 0
M  V30 6464 H 653.485 -3.13905 1.58609 0
M  V30 6465 H 653.359 -3.77172 -0.0457905 0
M  V30 6466 H 655.746 -2.90378 -0.525819 0
M  V30 6467 H 655.827 -2.2934 1.13301 0
M  V30 6468 H 655.471 -4.6684 2.00057 0
M  V30 6469 H 655.401 -5.25625 0.320292 0
M  V30 6470 H 657.892 -3.72588 0.631369 0
M  V30 6471 H 658.205 -7.48993 1.9034 0
M  V30 6472 H 656.55 -6.73761 1.70504 0
M  V30 6473 H 659.741 -4.60038 0.865011 0
M  V30 6474 H 659.914 -6.31687 1.44485 0
M  V30 6475 N 653.32 -0.135238 -1.57019 0
M  V30 6476 C 654.268 0.826099 -2.17436 0
M  V30 6477 C 655.262 1.26378 -1.12805 0
M  V30 6478 O 656.468 1.23363 -1.31079 0
M  V30 6479 H 652.843 0.284568 -0.696078 0
M  V30 6480 H 654.814 0.292212 -2.96966 0
M  V30 6481 C 653.563 2.05991 -2.80112 0
M  V30 6482 H 652.886 1.73209 -3.60331 0
M  V30 6483 H 654.326 2.71225 -3.25903 0
M  V30 6484 C 652.785 2.86027 -1.78017 0
M  V30 6485 O 653.315 3.81971 -1.24344 0
M  V30 6486 N 651.521 2.50332 -1.47588 0
M  V30 6487 H 651.068 1.72377 -1.91426 0
M  V30 6488 H 651.026 3.04177 -0.795228 0
M  V30 6489 N 654.798 1.5699 0.138552 0
M  V30 6490 C 655.746 1.99858 1.18994 0
M  V30 6491 C 656.74 0.89231 1.43994 0
M  V30 6492 O 657.946 1.0775 1.44187 0
M  V30 6493 H 654.321 0.636325 0.400743 0
M  V30 6494 H 656.292 2.87427 0.801755 0
M  V30 6495 C 655.041 2.40235 2.51361 0
M  V30 6496 H 654.364 3.24917 2.32957 0
M  V30 6497 H 655.804 2.74045 3.23535 0
M  V30 6498 C 654.263 1.25829 3.1252 0
M  V30 6499 O 654.793 0.563604 3.97727 0
M  V30 6500 N 652.999 1.02036 2.72097 0
M  V30 6501 H 652.546 1.58705 2.02905 0
M  V30 6502 H 652.504 0.256796 3.1335 0
M  V30 6503 N 656.276 -0.40816 1.52223 0
M  V30 6504 C 657.504 -1.17672 1.70179 0
M  V30 6505 C 657.919 -1.84257 0.411696 0
M  V30 6506 O 657.276 -1.7192 -0.612354 0
M  V30 6507 C 657.327 -2.23911 2.83806 0
M  V30 6508 O 657.048 -1.60044 4.0782 0
M  V30 6509 C 658.549 -3.1364 3.13281 0
M  V30 6510 H 655.769 -0.353562 0.570293 0
M  V30 6511 H 658.313 -0.480083 1.98785 0
M  V30 6512 H 656.468 -2.89242 2.57717 0
M  V30 6513 H 656.882 -2.30484 4.71145 0
M  V30 6514 H 658.356 -3.84255 3.96298 0
M  V30 6515 H 658.833 -3.76066 2.26872 0
M  V30 6516 H 659.439 -2.53977 3.41139 0
M  V30 6517 N 657.755 -1.42862 -0.66545 0
M  V30 6518 C 658.688 -1.41509 -1.79026 0
M  V30 6519 C 659.666 -0.278106 -1.60204 0
M  V30 6520 O 660.85 -0.469792 -1.82552 0
M  V30 6521 C 657.977 -1.21494 -3.1616 0
M  V30 6522 C 657.023 -2.38308 -3.53711 0
M  V30 6523 S 657.856 -4.00852 -3.55075 0
M  V30 6524 C 659.012 -3.83197 -4.94885 0
M  V30 6525 H 659.245 -2.36691 -1.79902 0
M  V30 6526 H 656.778 -1.29746 -0.836977 0
M  V30 6527 H 658.736 -1.10633 -3.95311 0
M  V30 6528 H 657.397 -0.27881 -3.1286 0
M  V30 6529 H 656.59 -2.20076 -4.53412 0
M  V30 6530 H 656.192 -2.45732 -2.81943 0
M  V30 6531 H 658.484 -3.44765 -5.83218 0
M  V30 6532 H 659.427 -4.82607 -5.18166 0
M  V30 6533 H 659.835 -3.15884 -4.67843 0
M  V30 6534 N 659.233 0.902656 -1.29189 0
M  V30 6535 C 660.166 2.00816 -1.0839 0
M  V30 6536 C 661.144 1.626 0.00335266 0
M  V30 6537 O 662.328 1.87928 -0.146765 0
M  V30 6538 C 659.455 3.32415 -0.649435 0
M  V30 6539 C 658.501 3.89617 -1.73496 0
M  V30 6540 S 659.334 4.19091 -3.33351 0
M  V30 6541 C 660.49 5.53736 -2.91766 0
M  V30 6542 H 660.723 2.18151 -2.01984 0
M  V30 6543 H 658.256 1.0489 -1.13303 0
M  V30 6544 H 660.214 4.08492 -0.405479 0
M  V30 6545 H 658.875 3.12964 0.266857 0
M  V30 6546 H 658.068 4.84658 -1.38284 0
M  V30 6547 H 657.67 3.20217 -1.93229 0
M  V30 6548 H 659.962 6.34085 -2.38627 0
M  V30 6549 H 660.905 5.93871 -3.85647 0
M  V30 6550 H 661.313 5.15453 -2.30149 0
M  V30 6551 N 660.711 1.11618 1.11262 0
M  V30 6552 C 661.641 0.79846 2.19424 0
M  V30 6553 C 662.622 -0.234003 1.68483 0
M  V30 6554 O 663.807 -0.0970704 1.93957 0
M  V30 6555 C 660.937 0.242892 3.4645 0
M  V30 6556 C 659.891 1.20744 4.10615 0
M  V30 6557 C 659.217 0.512494 5.32238 0
M  V30 6558 C 660.517 2.55884 4.55325 0
M  V30 6559 H 662.211 1.70286 2.46258 0
M  V30 6560 H 659.757 0.820195 1.18359 0
M  V30 6561 H 661.71 0.00840447 4.21399 0
M  V30 6562 H 660.434 -0.696811 3.1908 0
M  V30 6563 H 659.093 1.42759 3.37662 0
M  V30 6564 H 658.741 -0.432075 5.01141 0
M  V30 6565 H 658.441 1.15583 5.7612 0
M  V30 6566 H 659.965 0.286842 6.09926 0
M  V30 6567 H 661.379 2.37946 5.21588 0
M  V30 6568 H 659.776 3.16216 5.10027 0
M  V30 6569 H 660.846 3.14968 3.68678 0
M  V30 6570 N 662.189 -1.289 0.906776 0
M  V30 6571 C 663.436 -1.95269 0.536326 0
M  V30 6572 C 663.764 -1.71435 -0.918711 0
M  V30 6573 O 663.019 -1.02431 -1.66752 0
M  V30 6574 C 663.318 -3.48704 0.783617 0
M  V30 6575 C 662.984 -3.92626 2.21711 0
M  V30 6576 C 661.646 -4.04329 2.60906 0
M  V30 6577 C 663.998 -4.15218 3.15029 0
M  V30 6578 C 661.326 -4.35998 3.92584 0
M  V30 6579 C 663.678 -4.48365 4.46264 0
M  V30 6580 C 662.342 -4.58278 4.85322 0
M  V30 6581 H 661.612 -0.714538 0.196256 0
M  V30 6582 H 664.259 -1.53366 1.14678 0
M  V30 6583 H 662.564 -3.91696 0.0903048 0
M  V30 6584 H 664.261 -3.98162 0.476267 0
M  V30 6585 H 660.851 -3.84038 1.90296 0
M  V30 6586 H 665.035 -4.05636 2.8596 0
M  V30 6587 H 660.291 -4.41878 4.22557 0
M  V30 6588 H 664.465 -4.64795 5.18593 0
M  V30 6589 H 662.092 -4.82573 5.87391 0
M  V30 6590 N 663.667 -0.670007 -1.42649 0
M  V30 6591 C 664.915 -0.18991 -2.01206 0
M  V30 6592 C 665.236 1.20617 -1.53221 0
M  V30 6593 O 664.506 1.80898 -0.751856 0
M  V30 6594 H 663.086 -0.0672189 -0.743969 0
M  V30 6595 H 665.748 -0.865442 -1.74631 0
M  V30 6596 H 664.844 -0.187481 -3.11536 0
M  V30 6597 N 665.145 1.52092 -0.413018 0
M  V30 6598 C 666.422 1.94356 0.22024 0
M  V30 6599 C 666.802 1.35017 1.62277 0
M  V30 6600 O 666.15 0.527511 2.22328 0
M  V30 6601 C 666.36 3.48289 0.222638 0
M  V30 6602 C 667.708 4.22313 0.440098 0
M  V30 6603 O 668.732 3.54919 0.301826 0
M  V30 6604 O 667.591 5.41829 0.712984 0
M  V30 6605 H 664.685 0.814536 0.14304 0
M  V30 6606 H 667.231 1.63083 -0.469242 0
M  V30 6607 H 666.003 3.83872 -0.758836 0
M  V30 6608 H 665.626 3.85934 0.956057 0
M  V30 6609 N 666.623 0.143563 1.56945 0
M  V30 6610 C 667.586 -0.783295 2.154 0
M  V30 6611 C 668.586 -1.17763 1.09492 0
M  V30 6612 O 669.776 -1.09912 1.35148 0
M  V30 6613 C 666.908 -2.06248 2.7143 0
M  V30 6614 H 668.101 -0.274863 2.98638 0
M  V30 6615 H 665.654 -0.105859 1.55941 0
M  V30 6616 H 666.389 -2.61466 1.91849 0
M  V30 6617 H 666.174 -1.78897 3.4891 0
M  V30 6618 H 667.664 -2.72453 3.16479 0
M  V30 6619 N 668.101 -1.57061 -0.130224 0
M  V30 6620 C 669.048 -1.99517 -1.16024 0
M  V30 6621 C 670.018 -0.865452 -1.41771 0
M  V30 6622 O 671.203 -1.12882 -1.53826 0
M  V30 6623 C 668.343 -2.3951 -2.48453 0
M  V30 6624 C 667.456 -3.65848 -2.29737 0
M  V30 6625 C 666.591 -3.9487 -3.55318 0
M  V30 6626 C 665.63 -5.14426 -3.31711 0
M  V30 6627 N 664.767 -5.39375 -4.49466 0
M  V30 6628 H 669.607 -2.87305 -0.791194 0
M  V30 6629 H 667.144 -1.42129 -0.379195 0
M  V30 6630 H 669.102 -2.60731 -3.25692 0
M  V30 6631 H 667.732 -1.54779 -2.83272 0
M  V30 6632 H 666.784 -3.52307 -1.4347 0
M  V30 6633 H 668.096 -4.53241 -2.08263 0
M  V30 6634 H 667.25 -4.16679 -4.4098 0
M  V30 6635 H 665.989 -3.05931 -3.79813 0
M  V30 6636 H 664.994 -4.92473 -2.44439 0
M  V30 6637 H 666.219 -6.04933 -3.08598 0
M  V30 6638 H 664.165 -4.53391 -4.74102 0
M  V30 6639 H 664.082 -6.21069 -4.31055 0
M  V30 6640 H 665.35 -5.65694 -5.36293 0
M  V30 6641 N 669.579 0.400081 -1.52437 0
M  V30 6642 C 670.526 1.48803 -1.76426 0
M  V30 6643 C 671.496 1.5461 -0.607032 0
M  V30 6644 O 672.681 1.71041 -0.845563 0
M  V30 6645 C 669.821 2.86156 -1.92896 0
M  V30 6646 C 668.934 2.89587 -3.20567 0
M  V30 6647 C 668.069 4.18296 -3.27417 0
M  V30 6648 C 667.108 4.15736 -4.49255 0
M  V30 6649 N 666.245 5.36032 -4.53447 0
M  V30 6650 H 671.085 1.27649 -2.69276 0
M  V30 6651 H 668.622 0.619451 -1.33421 0
M  V30 6652 H 670.58 3.65901 -2.00429 0
M  V30 6653 H 669.21 3.05785 -1.03418 0
M  V30 6654 H 668.262 2.02278 -3.22161 0
M  V30 6655 H 669.574 2.83562 -4.10358 0
M  V30 6656 H 668.728 5.06439 -3.34072 0
M  V30 6657 H 667.467 4.27028 -2.35581 0
M  V30 6658 H 666.472 3.25982 -4.42737 0
M  V30 6659 H 667.697 4.08636 -5.42396 0
M  V30 6660 H 665.643 5.45415 -3.64498 0
M  V30 6661 H 665.56 5.32038 -5.37096 0
M  V30 6662 H 666.828 6.26104 -4.64343 0
M  V30 6663 N 671.057 1.43213 0.657864 0
M  V30 6664 C 671.99 1.42456 1.78273 0
M  V30 6665 C 672.968 0.286598 1.60054 0
M  V30 6666 O 674.152 0.479467 1.823 0
M  V30 6667 C 671.279 1.23169 3.15511 0
M  V30 6668 C 670.325 2.40181 3.52442 0
M  V30 6669 S 671.158 4.02729 3.52944 0
M  V30 6670 C 672.314 3.85816 4.92846 0
M  V30 6671 H 672.547 2.37642 1.78644 0
M  V30 6672 H 670.08 1.30188 0.830084 0
M  V30 6673 H 672.038 1.12728 3.94719 0
M  V30 6674 H 670.699 0.295398 3.12708 0
M  V30 6675 H 669.892 2.22478 4.52239 0
M  V30 6676 H 669.494 2.47224 2.80636 0
M  V30 6677 H 671.786 3.47853 5.81381 0
M  V30 6678 H 672.729 4.85348 5.15599 0
M  V30 6679 H 673.137 3.18361 4.66162 0
M  V30 6680 N 672.536 -0.895792 1.29666 0
M  V30 6681 C 673.764 -1.68001 1.20761 0
M  V30 6682 C 674.179 -1.87379 -0.231187 0
M  V30 6683 O 673.536 -1.41359 -1.15429 0
M  V30 6684 C 673.587 -3.06236 1.92098 0
M  V30 6685 O 673.308 -2.8774 3.30359 0
M  V30 6686 C 674.809 -4.00652 1.89717 0
M  V30 6687 H 672.029 -0.524591 0.418384 0
M  V30 6688 H 674.573 -1.11995 1.71106 0
M  V30 6689 H 672.728 -3.59007 1.45578 0
M  V30 6690 H 673.142 -3.75359 3.66342 0
M  V30 6691 H 674.616 -4.95051 2.44189 0
M  V30 6692 H 675.093 -4.30424 0.873595 0
M  V30 6693 H 675.699 -3.53815 2.35998 0
M  V30 6694 N 674.014 -1.12206 -1.10668 0
M  V30 6695 C 674.924 -0.800686 -2.20513 0
M  V30 6696 C 675.94 0.209512 -1.72734 0
M  V30 6697 O 677.116 0.043705 -2.01353 0
M  V30 6698 C 674.181 -0.257353 -3.45744 0
M  V30 6699 C 673.242 -1.32718 -4.0827 0
M  V30 6700 C 672.475 -0.809674 -5.27522 0
M  V30 6701 O 672.698 0.35742 -5.69279 0
M  V30 6702 O 671.632 -1.57816 -5.80842 0
M  V30 6703 H 675.458 -1.71807 -2.50432 0
M  V30 6704 H 673.043 -0.898546 -1.19359 0
M  V30 6705 H 674.925 0.0408849 -4.2138 0
M  V30 6706 H 673.6 0.632627 -3.17458 0
M  V30 6707 H 672.507 -1.67855 -3.34329 0
M  V30 6708 H 673.84 -2.19083 -4.40753 0
M  V30 6709 N 675.492 1.28418 -0.913599 0
M  V30 6710 C 676.424 2.26368 -0.359169 0
M  V30 6711 C 677.437 1.54858 0.502285 0
M  V30 6712 O 678.626 1.75659 0.31719 0
M  V30 6713 C 675.726 3.35112 0.50526 0
M  V30 6714 C 674.899 4.36126 -0.333648 0
M  V30 6715 C 673.958 5.24134 0.465845 0
M  V30 6716 O 672.984 5.6907 -0.121538 0
M  V30 6717 N 674.186 5.52892 1.76891 0
M  V30 6718 H 676.951 2.74579 -1.2011 0
M  V30 6719 H 674.512 1.41898 -0.779532 0
M  V30 6720 H 676.504 3.90926 1.04684 0
M  V30 6721 H 675.074 2.86611 1.2479 0
M  V30 6722 H 674.294 3.79776 -1.0566 0
M  V30 6723 H 675.582 5.00638 -0.907669 0
M  V30 6724 H 674.98 5.18217 2.26865 0
M  V30 6725 H 673.537 6.11464 2.25732 0
M  V30 6726 N 676.97 0.677563 1.42291 0
M  V30 6727 C 678.219 0.198173 2.00724 0
M  V30 6728 C 678.532 -1.20325 1.54211 0
M  V30 6729 O 679.738 -1.77916 2.05081 0
M  V30 6730 C 678.194 0.303432 3.58619 0
M  V30 6731 C 677.802 1.70909 4.14119 0
M  V30 6732 C 679.546 -0.117103 4.24338 0
M  V30 6733 C 677.453 1.76696 5.64387 0
M  V30 6734 H 676.383 0.070329 0.750713 0
M  V30 6735 H 679.034 0.843147 1.62982 0
M  V30 6736 H 677.416 -0.409482 3.93877 0
M  V30 6737 H 678.59 2.44931 3.90315 0
M  V30 6738 H 676.905 2.07771 3.6086 0
M  V30 6739 H 679.502 -0.0940471 5.34617 0
M  V30 6740 H 679.845 -1.15283 4.00019 0
M  V30 6741 H 680.378 0.5449 3.9405 0
M  V30 6742 H 677.117 2.7826 5.93508 0
M  V30 6743 H 676.637 1.07034 5.90173 0
M  V30 6744 H 678.316 1.52166 6.28852 0
M  V30 6745 N 678.448 -1.51871 0.421078 0
M  V30 6746 C 679.694 -2.02237 -0.151014 0
M  V30 6747 C 680.027 -1.30554 -1.43768 0
M  V30 6748 O 679.302 -0.41546 -1.90011 0
M  V30 6749 C 679.585 -3.5802 -0.386482 0
M  V30 6750 C 679.438 -4.40339 0.9177 0
M  V30 6751 C 680.757 -4.24444 -1.16342 0
M  V30 6752 H 677.876 -0.735062 -0.0534102 0
M  V30 6753 H 680.518 -1.81656 0.556888 0
M  V30 6754 H 678.668 -3.75688 -0.989494 0
M  V30 6755 H 680.34 -4.34357 1.55344 0
M  V30 6756 H 678.583 -4.06073 1.526 0
M  V30 6757 H 679.254 -5.47451 0.707187 0
M  V30 6758 H 681.73 -4.10948 -0.652788 0
M  V30 6759 H 680.606 -5.33358 -1.29693 0
M  V30 6760 H 680.867 -3.84204 -2.18724 0
M  V30 6761 N 679.926 -0.151884 -1.56866 0
M  V30 6762 C 680.858 0.817008 -2.14144 0
M  V30 6763 C 681.871 1.20735 -1.0921 0
M  V30 6764 O 683.06 1.15058 -1.36469 0
M  V30 6765 C 680.16 2.10844 -2.65326 0
M  V30 6766 C 679.333 1.88471 -3.94712 0
M  V30 6767 C 678.392 3.01649 -4.31155 0
M  V30 6768 O 677.418 2.73127 -4.9939 0
M  V30 6769 N 678.62 4.28947 -3.91132 0
M  V30 6770 H 681.385 0.327448 -2.97906 0
M  V30 6771 H 678.946 0.0315313 -1.61869 0
M  V30 6772 H 680.938 2.85616 -2.86715 0
M  V30 6773 H 679.508 2.51049 -1.86262 0
M  V30 6774 H 678.728 0.977088 -3.81899 0
M  V30 6775 H 680.016 1.70866 -4.79252 0
M  V30 6776 H 679.414 4.54986 -3.36161 0
M  V30 6777 H 677.971 5.00484 -4.17563 0
M  V30 6778 N 681.404 1.57128 0.121893 0
M  V30 6779 C 682.367 1.99197 1.13372 0
M  V30 6780 C 683.367 0.881728 1.3447 0
M  V30 6781 O 684.557 1.14783 1.31036 0
M  V30 6782 C 681.689 2.32963 2.4888 0
M  V30 6783 H 682.882 2.89788 0.772204 0
M  V30 6784 H 680.435 1.51952 0.366093 0
M  V30 6785 H 681.17 1.45243 2.89957 0
M  V30 6786 H 680.955 3.13934 2.34921 0
M  V30 6787 H 682.445 2.66261 3.21706 0
M  V30 6788 N 682.882 -0.391992 1.52647 0
M  V30 6789 C 683.815 -1.50019 1.71958 0
M  V30 6790 C 684.793 -1.5238 0.567365 0
M  V30 6791 O 685.977 -1.70831 0.796806 0
M  V30 6792 C 683.104 -2.88496 1.77447 0
M  V30 6793 C 682.15 -3.03974 2.99169 0
M  V30 6794 S 682.983 -2.75487 4.59203 0
M  V30 6795 C 684.139 -4.16163 4.67503 0
M  V30 6796 H 684.372 -1.33413 2.65685 0
M  V30 6797 H 681.905 -0.584674 1.42902 0
M  V30 6798 H 683.863 -3.68296 1.81296 0
M  V30 6799 H 682.524 -3.02431 0.848188 0
M  V30 6800 H 681.717 -4.05328 2.99542 0
M  V30 6801 H 681.319 -2.32062 2.93297 0
M  V30 6802 H 683.611 -5.10048 4.45934 0
M  V30 6803 H 684.554 -4.20806 5.69498 0
M  V30 6804 H 684.962 -4.01933 3.96371 0
M  V30 6805 N 684.36 -1.4356 -0.65026 0
M  V30 6806 C 685.308 -1.49219 -1.78427 0
M  V30 6807 C 686.302 -0.365528 -1.65409 0
M  V30 6808 O 687.508 -0.539649 -1.7172 0
M  V30 6809 H 683.883 -0.467858 -0.588738 0
M  V30 6810 H 685.854 -2.44701 -1.70774 0
M  V30 6811 C 684.603 -1.43519 -3.16698 0
M  V30 6812 H 683.926 -2.2952 -3.27354 0
M  V30 6813 H 685.366 -1.5154 -3.95995 0
M  V30 6814 C 683.825 -0.153197 -3.36552 0
M  V30 6815 O 684.355 0.784317 -3.93969 0
M  V30 6816 N 682.561 -0.0624402 -2.90533 0
M  V30 6817 H 682.108 -0.826172 -2.43992 0
M  V30 6818 H 682.066 0.794616 -3.04193 0
M  V30 6819 O 685.877 0.793351 -1.40671 0
M  V30 6820 H 686.568 1.43915 -1.29646 0
M  V30 END ATOM
M  V30 BEGIN BOND
M  V30 END BOND
M  V30 END CTAB
M  END
$$$$
