drugbank_target|P0C1V1 Delta-hemolysin (DB04464)
 OpenBabel12092120463D

435437  0  0  0  0  0  0  0  0999 V2000
   -0.9080    1.9825   -0.1171 H   0  0  0  0  0 15  0  0  0  0  0  0
    0.0000    1.5760    0.0000 N   0  0  0  0  0 15  0  0  0  0  0  0
    0.9330    2.0387    1.0253 C   0  0  0  0  0 15  0  0  0  0  0  0
    1.9110    0.9285    1.3348 C   0  0  0  0  0 15  0  0  0  0  0  0
    3.0950    1.1967    1.4564 O   0  0  0  0  0 15  0  0  0  0  0  0
    0.2220    2.4363    2.3529 C   0  0  0  0  0 15  0  0  0  0  0  0
   -0.7320    3.6537    2.2001 C   0  0  0  0  0 15  0  0  0  0  0  0
    0.1010    5.1329    1.5261 S   0  0  0  0  0 15  0  0  0  0  0  0
    1.2570    5.5632    2.8680 C   0  0  0  0  0 15  0  0  0  0  0  0
    1.4900    2.9052    0.6314 H   0  0  0  0  0 15  0  0  0  0  0  0
   -0.9770    1.5295    0.2109 H   0  0  0  0  0 15  0  0  0  0  0  0
    0.9810    2.6720    3.1163 H   0  0  0  0  0 15  0  0  0  0  0  0
   -0.3580    1.5738    2.7183 H   0  0  0  0  0 15  0  0  0  0  0  0
   -1.1650    3.9094    3.1809 H   0  0  0  0  0 15  0  0  0  0  0  0
   -1.5630    3.4180    1.5182 H   0  0  0  0  0 15  0  0  0  0  0  0
    0.7290    5.5878    3.8310 H   0  0  0  0  0 15  0  0  0  0  0  0
    1.6720    6.5627    2.6593 H   0  0  0  0  0 15  0  0  0  0  0  0
    2.0800    4.8389    2.9071 H   0  0  0  0  0 15  0  0  0  0  0  0
    1.4781   -0.2728    1.5522 N   0  0  0  0  0 15  0  0  0  0  0  0
    2.4411   -1.3204    1.8734 C   0  0  0  0  0 15  0  0  0  0  0  0
    3.4411   -1.4234    0.7480 C   0  0  0  0  0 15  0  0  0  0  0  0
    4.6311   -1.4149    1.0162 O   0  0  0  0  0 15  0  0  0  0  0  0
    1.7631   -2.7017    2.0789 C   0  0  0  0  0 15  0  0  0  0  0  0
    2.9561   -1.0479    2.8100 H   0  0  0  0  0 15  0  0  0  0  0  0
    0.5091   -0.5108    1.4772 H   0  0  0  0  0 15  0  0  0  0  0  0
    1.2441   -3.0260    1.1662 H   0  0  0  0  0 15  0  0  0  0  0  0
    1.0291   -2.6408    2.8983 H   0  0  0  0  0 15  0  0  0  0  0  0
    2.5191   -3.4587    2.3402 H   0  0  0  0  0 15  0  0  0  0  0  0
    2.9562   -1.4816   -0.5373 N   0  0  0  0  0 15  0  0  0  0  0  0
    3.8882   -1.5822   -1.6583 C   0  0  0  0  0 15  0  0  0  0  0  0
    4.9012   -0.4669   -1.5596 C   0  0  0  0  0 15  0  0  0  0  0  0
    6.0902   -0.7375   -1.6255 O   0  0  0  0  0 15  0  0  0  0  0  0
    3.1902   -1.4891   -3.0443 C   0  0  0  0  0 15  0  0  0  0  0  0
    2.3632   -2.7534   -3.3986 C   0  0  0  0  0 15  0  0  0  0  0  0
    1.4222   -2.5959   -4.5771 C   0  0  0  0  0 15  0  0  0  0  0  0
    0.4482   -3.3346   -4.6130 O   0  0  0  0  0 15  0  0  0  0  0  0
    1.6502   -1.6872   -5.5544 N   0  0  0  0  0 15  0  0  0  0  0  0
    4.4152   -2.5489   -1.5764 H   0  0  0  0  0 15  0  0  0  0  0  0
    1.9762   -1.4479   -0.7244 H   0  0  0  0  0 15  0  0  0  0  0  0
    3.9682   -1.3607   -3.8114 H   0  0  0  0  0 15  0  0  0  0  0  0
    2.5382   -0.6024   -3.0674 H   0  0  0  0  0 15  0  0  0  0  0  0
    1.7582   -3.0280   -2.5241 H   0  0  0  0  0 15  0  0  0  0  0  0
    3.0462   -3.5924   -3.6031 H   0  0  0  0  0 15  0  0  0  0  0  0
    2.4442   -1.0790   -5.5531 H   0  0  0  0  0 15  0  0  0  0  0  0
    1.0012   -1.6183   -6.3139 H   0  0  0  0  0 15  0  0  0  0  0  0
    4.4343    0.7856   -1.3662 N   0  0  0  0  0 15  0  0  0  0  0  0
    5.7113    1.5320   -1.2161 C   0  0  0  0  0 15  0  0  0  0  0  0
    6.0913    2.1019    0.1961 C   0  0  0  0  0 15  0  0  0  0  0  0
    5.4393    1.9432    1.2022 O   0  0  0  0  0 15  0  0  0  0  0  0
    5.6493    2.6239   -2.3012 C   0  0  0  0  0 15  0  0  0  0  0  0
    6.9973    3.3017   -2.6697 C   0  0  0  0  0 15  0  0  0  0  0  0
    8.0213    2.7267   -2.2919 O   0  0  0  0  0 15  0  0  0  0  0  0
    6.8803    4.3408   -3.3202 O   0  0  0  0  0 15  0  0  0  0  0  0
    3.9743    0.6779   -0.4737 H   0  0  0  0  0 15  0  0  0  0  0  0
    6.5203    0.8237   -1.4837 H   0  0  0  0  0 15  0  0  0  0  0  0
    5.2923    2.1830   -3.2475 H   0  0  0  0  0 15  0  0  0  0  0  0
    4.9153    3.4083   -2.0475 H   0  0  0  0  0 15  0  0  0  0  0  0
    5.9124    1.2097    1.0102 N   0  0  0  0  0 15  0  0  0  0  0  0
    7.1614    1.0180    1.7413 C   0  0  0  0  0 15  0  0  0  0  0  0
    7.4744   -0.4497    1.9036 C   0  0  0  0  0 15  0  0  0  0  0  0
    8.6804   -0.7607    2.6063 O   0  0  0  0  0 15  0  0  0  0  0  0
    7.1364    1.7727    3.1321 C   0  0  0  0  0 15  0  0  0  0  0  0
    6.7444    3.2817    3.0497 C   0  0  0  0  0 15  0  0  0  0  0  0
    8.4884    1.6649    3.9049 C   0  0  0  0  0 15  0  0  0  0  0  0
    6.3954    3.9616    4.3911 C   0  0  0  0  0 15  0  0  0  0  0  0
    5.3254    0.3773    0.6528 H   0  0  0  0  0 15  0  0  0  0  0  0
    7.9764    1.4465    1.1291 H   0  0  0  0  0 15  0  0  0  0  0  0
    6.3584    1.2720    3.7501 H   0  0  0  0  0 15  0  0  0  0  0  0
    7.5324    3.8550    2.5244 H   0  0  0  0  0 15  0  0  0  0  0  0
    5.8474    3.3944    2.4119 H   0  0  0  0  0 15  0  0  0  0  0  0
    8.4444    2.1462    4.8974 H   0  0  0  0  0 15  0  0  0  0  0  0
    8.7874    0.6222    4.1162 H   0  0  0  0  0 15  0  0  0  0  0  0
    9.3204    2.1400    3.3533 H   0  0  0  0  0 15  0  0  0  0  0  0
    6.0594    5.0060    4.2317 H   0  0  0  0  0 15  0  0  0  0  0  0
    5.5794    3.4362    4.9162 H   0  0  0  0  0 15  0  0  0  0  0  0
    7.2584    4.0077    5.0793 H   0  0  0  0  0 15  0  0  0  0  0  0
    7.3905   -1.2043    1.0166 N   0  0  0  0  0 15  0  0  0  0  0  0
    8.6395   -1.8912    0.7012 C   0  0  0  0  0 15  0  0  0  0  0  0
    8.9525   -1.7971   -0.7724 C   0  0  0  0  0 15  0  0  0  0  0  0
   10.1585   -2.4353   -1.2003 O   0  0  0  0  0 15  0  0  0  0  0  0
    8.6145   -3.3917    1.2039 C   0  0  0  0  0 15  0  0  0  0  0  0
    8.2225   -3.5717    2.7044 C   0  0  0  0  0 15  0  0  0  0  0  0
    9.9665   -4.1341    0.9640 C   0  0  0  0  0 15  0  0  0  0  0  0
    7.8735   -5.0104    3.1418 C   0  0  0  0  0 15  0  0  0  0  0  0
    6.8035   -0.7083    0.2586 H   0  0  0  0  0 15  0  0  0  0  0  0
    9.4545   -1.3624    1.2293 H   0  0  0  0  0 15  0  0  0  0  0  0
    7.8365   -3.9137    0.6038 H   0  0  0  0  0 15  0  0  0  0  0  0
    9.0105   -3.1535    3.3599 H   0  0  0  0  0 15  0  0  0  0  0  0
    7.3255   -2.9629    2.9257 H   0  0  0  0  0 15  0  0  0  0  0  0
    9.9225   -5.1949    1.2662 H   0  0  0  0  0 15  0  0  0  0  0  0
   10.2655   -4.1618   -0.0996 H   0  0  0  0  0 15  0  0  0  0  0  0
   10.7985   -3.6731    1.5274 H   0  0  0  0  0 15  0  0  0  0  0  0
    7.5375   -5.0343    4.1981 H   0  0  0  0  0 15  0  0  0  0  0  0
    7.0575   -5.4367    2.5335 H   0  0  0  0  0 15  0  0  0  0  0  0
    8.7365   -5.6962    3.0682 H   0  0  0  0  0 15  0  0  0  0  0  0
    8.8686   -0.7928   -1.3621 N   0  0  0  0  0 15  0  0  0  0  0  0
   10.0936   -0.3777   -2.0393 C   0  0  0  0  0 15  0  0  0  0  0  0
   10.5186    0.9989   -1.5938 C   0  0  0  0  0 15  0  0  0  0  0  0
    9.8766    1.6442   -0.7639 O   0  0  0  0  0 15  0  0  0  0  0  0
    9.9246   -0.4536   -3.5774 C   0  0  0  0  0 15  0  0  0  0  0  0
    9.0286    0.5382   -4.0887 O   0  0  0  0  0 15  0  0  0  0  0  0
    8.3696   -0.1599   -0.6445 H   0  0  0  0  0 15  0  0  0  0  0  0
   10.8996   -1.0749   -1.7409 H   0  0  0  0  0 15  0  0  0  0  0  0
   10.9096   -0.3185   -4.0676 H   0  0  0  0  0 15  0  0  0  0  0  0
    9.5846   -1.4578   -3.8951 H   0  0  0  0  0 15  0  0  0  0  0  0
    8.1616    0.3644   -3.7112 H   0  0  0  0  0 15  0  0  0  0  0  0
   10.3467    1.4787   -0.5451 N   0  0  0  0  0 15  0  0  0  0  0  0
   11.5747    2.0689   -0.0211 C   0  0  0  0  0 15  0  0  0  0  0  0
   11.9897    1.3996    1.2672 C   0  0  0  0  0 15  0  0  0  0  0  0
   11.3467    0.4920    1.7574 O   0  0  0  0  0 15  0  0  0  0  0  0
   11.3977    3.6100    0.1908 C   0  0  0  0  0 15  0  0  0  0  0  0
   11.1187    4.2542   -1.0464 O   0  0  0  0  0 15  0  0  0  0  0  0
   12.6197    4.3685    0.7535 C   0  0  0  0  0 15  0  0  0  0  0  0
    9.8397    0.6698   -0.0404 H   0  0  0  0  0 15  0  0  0  0  0  0
   12.3837    1.9005   -0.7551 H   0  0  0  0  0 15  0  0  0  0  0  0
   10.5387    3.7739    0.8749 H   0  0  0  0  0 15  0  0  0  0  0  0
   10.9527    5.1778   -0.8366 H   0  0  0  0  0 15  0  0  0  0  0  0
   12.4267    5.4540    0.8511 H   0  0  0  0  0 15  0  0  0  0  0  0
   12.9037    4.0231    1.7620 H   0  0  0  0  0 15  0  0  0  0  0  0
   13.5097    4.2517    0.1055 H   0  0  0  0  0 15  0  0  0  0  0  0
   11.8248    0.2810    1.5507 N   0  0  0  0  0 15  0  0  0  0  0  0
   13.0738   -0.3348    1.9890 C   0  0  0  0  0 15  0  0  0  0  0  0
   13.3868   -1.5653    1.1729 C   0  0  0  0  0 15  0  0  0  0  0  0
   14.5928   -2.2544    1.5129 O   0  0  0  0  0 15  0  0  0  0  0  0
   13.0488   -0.6470    3.5404 C   0  0  0  0  0 15  0  0  0  0  0  0
   12.6568    0.5641    4.4443 C   0  0  0  0  0 15  0  0  0  0  0  0
   14.4008   -1.2251    4.0644 C   0  0  0  0  0 15  0  0  0  0  0  0
   12.3078    0.2261    5.9097 C   0  0  0  0  0 15  0  0  0  0  0  0
   11.2378   -0.1289    0.7429 H   0  0  0  0  0 15  0  0  0  0  0  0
   13.8888    0.3866    1.7938 H   0  0  0  0  0 15  0  0  0  0  0  0
   12.2708   -1.4274    3.6938 H   0  0  0  0  0 15  0  0  0  0  0  0
   13.4448    1.3408    4.4086 H   0  0  0  0  0 15  0  0  0  0  0  0
   11.7598    1.0594    4.0270 H   0  0  0  0  0 15  0  0  0  0  0  0
   14.3568   -1.4918    5.1347 H   0  0  0  0  0 15  0  0  0  0  0  0
   14.6998   -2.1609    3.5583 H   0  0  0  0  0 15  0  0  0  0  0  0
   15.2328   -0.5068    3.9456 H   0  0  0  0  0 15  0  0  0  0  0  0
   11.9718    1.1300    6.4569 H   0  0  0  0  0 15  0  0  0  0  0  0
   11.4918   -0.5137    5.9760 H   0  0  0  0  0 15  0  0  0  0  0  0
   13.1708   -0.1795    6.4675 H   0  0  0  0  0 15  0  0  0  0  0  0
   13.3029   -1.5760    0.0084 N   0  0  0  0  0 15  0  0  0  0  0  0
   14.5509   -1.9055   -0.6734 C   0  0  0  0  0 15  0  0  0  0  0  0
   14.8719   -0.8833   -1.7385 C   0  0  0  0  0 15  0  0  0  0  0  0
   14.1419    0.0781   -1.9574 O   0  0  0  0  0 15  0  0  0  0  0  0
   12.7219   -0.7033   -0.2517 H   0  0  0  0  0 15  0  0  0  0  0  0
   15.3839   -1.9483    0.0513 H   0  0  0  0  0 15  0  0  0  0  0  0
   14.4799   -2.9056   -1.1394 H   0  0  0  0  0 15  0  0  0  0  0  0
   14.7810    0.2645   -1.5536 N   0  0  0  0  0 15  0  0  0  0  0  0
   16.0580    1.0168   -1.6710 C   0  0  0  0  0 15  0  0  0  0  0  0
   16.4380    2.0400   -0.5430 C   0  0  0  0  0 15  0  0  0  0  0  0
   15.7860    2.2391    0.4558 O   0  0  0  0  0 15  0  0  0  0  0  0
   15.9960    1.6660   -3.0667 C   0  0  0  0  0 15  0  0  0  0  0  0
   17.3440    2.1744   -3.6470 C   0  0  0  0  0 15  0  0  0  0  0  0
   18.3680    1.7657   -3.0936 O   0  0  0  0  0 15  0  0  0  0  0  0
   17.2270    2.9244   -4.6167 O   0  0  0  0  0 15  0  0  0  0  0  0
   14.3210    0.4722   -0.6790 H   0  0  0  0  0 15  0  0  0  0  0  0
   16.8670    0.2597   -1.6770 H   0  0  0  0  0 15  0  0  0  0  0  0
   15.6390    0.9250   -3.8021 H   0  0  0  0  0 15  0  0  0  0  0  0
   15.2620    2.4897   -3.1000 H   0  0  0  0  0 15  0  0  0  0  0  0
   16.2591    1.4844    0.5294 N   0  0  0  0  0 15  0  0  0  0  0  0
   17.1891    1.6590    1.6431 C   0  0  0  0  0 15  0  0  0  0  0  0
   18.1701    0.5079    1.6234 C   0  0  0  0  0 15  0  0  0  0  0  0
   19.3551    0.7405    1.7953 O   0  0  0  0  0 15  0  0  0  0  0  0
   16.4851    1.6991    3.0290 C   0  0  0  0  0 15  0  0  0  0  0  0
   15.4391    2.8453    3.1973 C   0  0  0  0  0 15  0  0  0  0  0  0
   14.7651    2.7363    4.5938 C   0  0  0  0  0 15  0  0  0  0  0  0
   16.0651    4.2582    3.0245 C   0  0  0  0  0 15  0  0  0  0  0  0
   17.7591    2.5914    1.4996 H   0  0  0  0  0 15  0  0  0  0  0  0
   15.3051    1.2471    0.7200 H   0  0  0  0  0 15  0  0  0  0  0  0
   17.2581    1.8071    3.8068 H   0  0  0  0  0 15  0  0  0  0  0  0
   15.9821    0.7325    3.1828 H   0  0  0  0  0 15  0  0  0  0  0  0
   14.6411    2.7328    2.4436 H   0  0  0  0  0 15  0  0  0  0  0  0
   14.2891    1.7494    4.7160 H   0  0  0  0  0 15  0  0  0  0  0  0
   13.9891    3.5054    4.7159 H   0  0  0  0  0 15  0  0  0  0  0  0
   15.5131    2.8640    5.3927 H   0  0  0  0  0 15  0  0  0  0  0  0
   16.9271    4.3790    3.7002 H   0  0  0  0  0 15  0  0  0  0  0  0
   15.3241    5.0373    3.2615 H   0  0  0  0  0 15  0  0  0  0  0  0
   16.3941    4.4224    1.9887 H   0  0  0  0  0 15  0  0  0  0  0  0
   17.7372   -0.7783    1.3704 N   0  0  0  0  0 15  0  0  0  0  0  0
   18.9832   -1.5389    1.3208 C   0  0  0  0  0 15  0  0  0  0  0  0
   19.3162   -1.9396   -0.0965 C   0  0  0  0  0 15  0  0  0  0  0  0
   18.5912   -1.6357   -1.0524 O   0  0  0  0  0 15  0  0  0  0  0  0
   18.8742   -2.8085    2.2538 C   0  0  0  0  0 15  0  0  0  0  0  0
   18.7272   -2.4708    3.7586 C   0  0  0  0  0 15  0  0  0  0  0  0
   20.0462   -3.8274    2.1725 C   0  0  0  0  0 15  0  0  0  0  0  0
   17.1652   -0.5583    0.4811 H   0  0  0  0  0 15  0  0  0  0  0  0
   19.8072   -0.8934    1.6769 H   0  0  0  0  0 15  0  0  0  0  0  0
   17.9572   -3.3593    1.9515 H   0  0  0  0  0 15  0  0  0  0  0  0
   19.6292   -1.9796    4.1667 H   0  0  0  0  0 15  0  0  0  0  0  0
   17.8722   -1.7986    3.9476 H   0  0  0  0  0 15  0  0  0  0  0  0
   18.5432   -3.3780    4.3657 H   0  0  0  0  0 15  0  0  0  0  0  0
   21.0192   -3.3713    2.4389 H   0  0  0  0  0 15  0  0  0  0  0  0
   19.8952   -4.6930    2.8469 H   0  0  0  0  0 15  0  0  0  0  0  0
   20.1562   -4.2652    1.1633 H   0  0  0  0  0 15  0  0  0  0  0  0
   19.2153   -1.2150   -1.0038 N   0  0  0  0  0 15  0  0  0  0  0  0
   20.1623   -0.9754   -2.0918 C   0  0  0  0  0 15  0  0  0  0  0  0
   21.1323    0.0991   -1.6580 C   0  0  0  0  0 15  0  0  0  0  0  0
   22.3173   -0.0483   -1.9074 O   0  0  0  0  0 15  0  0  0  0  0  0
   19.4573   -0.5475   -3.4073 C   0  0  0  0  0 15  0  0  0  0  0  0
   18.5703   -1.6915   -3.9751 C   0  0  0  0  0 15  0  0  0  0  0  0
   17.7053   -1.2127   -5.1717 C   0  0  0  0  0 15  0  0  0  0  0  0
   16.7443   -2.3290   -5.6606 C   0  0  0  0  0 15  0  0  0  0  0  0
   15.8813   -1.8614   -6.7698 N   0  0  0  0  0 15  0  0  0  0  0  0
   20.7213   -1.9068   -2.2901 H   0  0  0  0  0 15  0  0  0  0  0  0
   18.2583   -0.9503   -1.1229 H   0  0  0  0  0 15  0  0  0  0  0  0
   20.2163   -0.2807   -4.1625 H   0  0  0  0  0 15  0  0  0  0  0  0
   18.8463    0.3469   -3.2093 H   0  0  0  0  0 15  0  0  0  0  0  0
   17.8983   -2.0730   -3.1895 H   0  0  0  0  0 15  0  0  0  0  0  0
   19.2103   -2.5316   -4.2978 H   0  0  0  0  0 15  0  0  0  0  0  0
   18.3643   -0.9026   -5.9995 H   0  0  0  0  0 15  0  0  0  0  0  0
   17.1033   -0.3427   -4.8649 H   0  0  0  0  0 15  0  0  0  0  0  0
   16.1083   -2.6471   -4.8188 H   0  0  0  0  0 15  0  0  0  0  0  0
   17.3333   -3.2040   -5.9877 H   0  0  0  0  0 15  0  0  0  0  0  0
   15.2793   -1.0148   -6.4810 H   0  0  0  0  0 15  0  0  0  0  0  0
   15.1963   -2.6372   -7.0851 H   0  0  0  0  0 15  0  0  0  0  0  0
   16.4643   -1.5817   -7.6328 H   0  0  0  0  0 15  0  0  0  0  0  0
   20.6934    1.1989   -1.0230 N   0  0  0  0  0 15  0  0  0  0  0  0
   21.9394    1.8997   -0.7268 C   0  0  0  0  0 15  0  0  0  0  0  0
   22.2944    1.7776    0.7361 C   0  0  0  0  0 15  0  0  0  0  0  0
   21.5874    1.1552    1.5286 O   0  0  0  0  0 15  0  0  0  0  0  0
   21.7814    3.3988   -1.1052 C   0  0  0  0  0 15  0  0  0  0  0  0
   21.6104    3.6668   -2.6033 C   0  0  0  0  0 15  0  0  0  0  0  0
   20.3804    3.8504   -3.2721 C   0  0  0  0  0 15  0  0  0  0  0  0
   22.5784    3.6873   -3.5853 C   0  0  0  0  0 15  0  0  0  0  0  0
   20.5604    3.9942   -4.6619 N   0  0  0  0  0 15  0  0  0  0  0  0
   21.9314    3.8860   -4.8310 C   0  0  0  0  0 15  0  0  0  0  0  0
   23.9864    3.5172   -3.5241 C   0  0  0  0  0 15  0  0  0  0  0  0
   22.6894    3.9324   -6.0229 C   0  0  0  0  0 15  0  0  0  0  0  0
   24.7154    3.5763   -4.7101 C   0  0  0  0  0 15  0  0  0  0  0  0
   24.0774    3.7799   -5.9439 C   0  0  0  0  0 15  0  0  0  0  0  0
   20.1764    0.7146   -0.3177 H   0  0  0  0  0 15  0  0  0  0  0  0
   22.7604    1.4412   -1.3091 H   0  0  0  0  0 15  0  0  0  0  0  0
   20.9314    3.8447   -0.5511 H   0  0  0  0  0 15  0  0  0  0  0  0
   22.6634    3.9746   -0.7619 H   0  0  0  0  0 15  0  0  0  0  0  0
   19.4184    3.8369   -2.7763 H   0  0  0  0  0 15  0  0  0  0  0  0
   19.8424    4.1047   -5.3837 H   0  0  0  0  0 15  0  0  0  0  0  0
   24.4844    3.3494   -2.5802 H   0  0  0  0  0 15  0  0  0  0  0  0
   22.2024    4.0881   -6.9706 H   0  0  0  0  0 15  0  0  0  0  0  0
   25.7884    3.4577   -4.6790 H   0  0  0  0  0 15  0  0  0  0  0  0
   24.6684    3.8243   -6.8463 H   0  0  0  0  0 15  0  0  0  0  0  0
   22.1715    0.8000    1.3578 N   0  0  0  0  0 15  0  0  0  0  0  0
   23.4205    0.3739    1.9820 C   0  0  0  0  0 15  0  0  0  0  0  0
   23.7335   -1.0630    1.6419 C   0  0  0  0  0 15  0  0  0  0  0  0
   24.9395   -1.5920    2.1993 O   0  0  0  0  0 15  0  0  0  0  0  0
   23.3955    0.6175    3.5456 C   0  0  0  0  0 15  0  0  0  0  0  0
   23.0035    2.0665    3.9749 C   0  0  0  0  0 15  0  0  0  0  0  0
   24.7475    0.2564    4.2372 C   0  0  0  0  0 15  0  0  0  0  0  0
   22.6545    2.2563    5.4667 C   0  0  0  0  0 15  0  0  0  0  0  0
   21.5845    0.1361    0.7416 H   0  0  0  0  0 15  0  0  0  0  0  0
   24.2355    0.9832    1.5494 H   0  0  0  0  0 15  0  0  0  0  0  0
   22.6175   -0.0616    3.9595 H   0  0  0  0  0 15  0  0  0  0  0  0
   23.7915    2.7830    3.6727 H   0  0  0  0  0 15  0  0  0  0  0  0
   22.1065    2.3869    3.4120 H   0  0  0  0  0 15  0  0  0  0  0  0
   24.7035    0.3763    5.3337 H   0  0  0  0  0 15  0  0  0  0  0  0
   25.0465   -0.7967    4.0861 H   0  0  0  0  0 15  0  0  0  0  0  0
   25.5795    0.8892    3.8773 H   0  0  0  0  0 15  0  0  0  0  0  0
   22.3185    3.2936    5.6675 H   0  0  0  0  0 15  0  0  0  0  0  0
   21.8385    1.5850    5.7848 H   0  0  0  0  0 15  0  0  0  0  0  0
   23.5175    2.0686    6.1304 H   0  0  0  0  0 15  0  0  0  0  0  0
   23.6496   -1.4758    0.5530 N   0  0  0  0  0 15  0  0  0  0  0  0
   24.8986   -2.0168    0.0252 C   0  0  0  0  0 15  0  0  0  0  0  0
   25.2116   -1.4332   -1.3311 C   0  0  0  0  0 15  0  0  0  0  0  0
   26.4176   -1.8906   -1.9486 O   0  0  0  0  0 15  0  0  0  0  0  0
   24.8736   -3.5990   -0.0054 C   0  0  0  0  0 15  0  0  0  0  0  0
   24.4816   -4.2726    1.3474 C   0  0  0  0  0 15  0  0  0  0  0  0
   26.2256   -4.2177   -0.4808 C   0  0  0  0  0 15  0  0  0  0  0  0
   24.1326   -5.7747    1.2761 C   0  0  0  0  0 15  0  0  0  0  0  0
   23.0626   -0.7540    0.0057 H   0  0  0  0  0 15  0  0  0  0  0  0
   25.7136   -1.6962    0.7002 H   0  0  0  0  0 15  0  0  0  0  0  0
   24.0956   -3.8891   -0.7460 H   0  0  0  0  0 15  0  0  0  0  0  0
   25.2696   -4.0989    2.1053 H   0  0  0  0  0 15  0  0  0  0  0  0
   23.5846   -3.7736    1.7604 H   0  0  0  0  0 15  0  0  0  0  0  0
   26.1816   -5.3184   -0.5525 H   0  0  0  0  0 15  0  0  0  0  0  0
   26.5246   -3.8865   -1.4918 H   0  0  0  0  0 15  0  0  0  0  0  0
   27.0576   -3.9727    0.2048 H   0  0  0  0  0 15  0  0  0  0  0  0
   23.7966   -6.1520    2.2630 H   0  0  0  0  0 15  0  0  0  0  0  0
   23.3166   -5.9718    0.5600 H   0  0  0  0  0 15  0  0  0  0  0  0
   24.9956   -6.3959    0.9764 H   0  0  0  0  0 15  0  0  0  0  0  0
   25.1277   -0.2892   -1.5492 N   0  0  0  0  0 15  0  0  0  0  0  0
   26.4047    0.3760   -1.9195 C   0  0  0  0  0 15  0  0  0  0  0  0
   26.7847    1.7262   -1.2151 C   0  0  0  0  0 15  0  0  0  0  0  0
   26.1327    2.2585   -0.3468 O   0  0  0  0  0 15  0  0  0  0  0  0
   26.3427    0.5024   -3.4537 C   0  0  0  0  0 15  0  0  0  0  0  0
   27.6907    0.7787   -4.1740 C   0  0  0  0  0 15  0  0  0  0  0  0
   28.7147    0.5866   -3.5134 O   0  0  0  0  0 15  0  0  0  0  0  0
   27.5737    1.1470   -5.3433 O   0  0  0  0  0 15  0  0  0  0  0  0
   24.6677    0.2082   -0.8004 H   0  0  0  0  0 15  0  0  0  0  0  0
   27.2137   -0.3364   -1.6633 H   0  0  0  0  0 15  0  0  0  0  0  0
   25.9857   -0.4473   -3.8874 H   0  0  0  0  0 15  0  0  0  0  0  0
   25.6087    1.2637   -3.7698 H   0  0  0  0  0 15  0  0  0  0  0  0
   26.6058    1.5759   -0.0167 N   0  0  0  0  0 15  0  0  0  0  0  0
   27.8338    1.9558    0.6751 C   0  0  0  0  0 15  0  0  0  0  0  0
   28.2488    0.8925    1.6637 C   0  0  0  0  0 15  0  0  0  0  0  0
   27.6058   -0.1269    1.8206 O   0  0  0  0  0 15  0  0  0  0  0  0
   27.6568    3.3361    1.3924 C   0  0  0  0  0 15  0  0  0  0  0  0
   27.3778    4.3585    0.4434 O   0  0  0  0  0 15  0  0  0  0  0  0
   28.8788    3.8615    2.1772 C   0  0  0  0  0 15  0  0  0  0  0  0
   26.0988    0.6444    0.1870 H   0  0  0  0  0 15  0  0  0  0  0  0
   28.6428    2.0437   -0.0728 H   0  0  0  0  0 15  0  0  0  0  0  0
   26.7978    3.2607    2.0918 H   0  0  0  0  0 15  0  0  0  0  0  0
   27.2118    5.1580    0.9514 H   0  0  0  0  0 15  0  0  0  0  0  0
   28.6858    4.8511    2.6338 H   0  0  0  0  0 15  0  0  0  0  0  0
   29.1628    3.1974    3.0110 H   0  0  0  0  0 15  0  0  0  0  0  0
   29.7688    3.9692    1.5276 H   0  0  0  0  0 15  0  0  0  0  0  0
   28.0839   -0.2563    1.5550 N   0  0  0  0  0 15  0  0  0  0  0  0
   29.3299   -0.9871    1.7716 C   0  0  0  0  0 15  0  0  0  0  0  0
   29.6629   -1.8533    0.5803 C   0  0  0  0  0 15  0  0  0  0  0  0
   28.9379   -1.8987   -0.4217 O   0  0  0  0  0 15  0  0  0  0  0  0
   29.2209   -1.8555    3.0861 C   0  0  0  0  0 15  0  0  0  0  0  0
   29.0739   -1.0182    4.3813 C   0  0  0  0  0 15  0  0  0  0  0  0
   30.3929   -2.8397    3.3623 C   0  0  0  0  0 15  0  0  0  0  0  0
   27.5119   -0.3574    0.6445 H   0  0  0  0  0 15  0  0  0  0  0  0
   30.1539   -0.2582    1.8824 H   0  0  0  0  0 15  0  0  0  0  0  0
   28.3039   -2.4770    2.9930 H   0  0  0  0  0 15  0  0  0  0  0  0
   29.9759   -0.4162    4.5942 H   0  0  0  0  0 15  0  0  0  0  0  0
   28.2189   -0.3222    4.3260 H   0  0  0  0  0 15  0  0  0  0  0  0
   28.8899   -1.6594    5.2647 H   0  0  0  0  0 15  0  0  0  0  0  0
   31.3659   -2.3196    3.4544 H   0  0  0  0  0 15  0  0  0  0  0  0
   30.2419   -3.4186    4.2944 H   0  0  0  0  0 15  0  0  0  0  0  0
   30.5029   -3.5995    2.5668 H   0  0  0  0  0 15  0  0  0  0  0  0
   29.5620   -1.4872   -0.5215 N   0  0  0  0  0 15  0  0  0  0  0  0
   30.5100   -1.6433   -1.6462 C   0  0  0  0  0 15  0  0  0  0  0  0
   31.5040   -0.5095   -1.6156 C   0  0  0  0  0 15  0  0  0  0  0  0
   32.7100   -0.6885   -1.6631 O   0  0  0  0  0 15  0  0  0  0  0  0
   29.0850   -0.5178   -0.5453 H   0  0  0  0  0 15  0  0  0  0  0  0
   31.0560   -2.5877   -1.4860 H   0  0  0  0  0 15  0  0  0  0  0  0
   29.8050   -1.7080   -3.0285 C   0  0  0  0  0 15  0  0  0  0  0  0
   29.1280   -2.5741   -3.0591 H   0  0  0  0  0 15  0  0  0  0  0  0
   30.5680   -1.8577   -3.8114 H   0  0  0  0  0 15  0  0  0  0  0  0
   29.0270   -0.4485   -3.3390 C   0  0  0  0  0 15  0  0  0  0  0  0
   29.5570    0.4349   -3.9934 O   0  0  0  0  0 15  0  0  0  0  0  0
   27.7630   -0.3176   -2.8886 N   0  0  0  0  0 15  0  0  0  0  0  0
   27.3100   -1.0375   -2.3578 H   0  0  0  0  0 15  0  0  0  0  0  0
   27.2680    0.5241   -3.1000 H   0  0  0  0  0 15  0  0  0  0  0  0
   31.0401    0.7711   -1.3745 N   0  0  0  0  0 15  0  0  0  0  0  0
   31.9871    1.8844   -1.3327 C   0  0  0  0  0 15  0  0  0  0  0  0
   32.9571    1.6491   -0.1981 C   0  0  0  0  0 15  0  0  0  0  0  0
   34.1421    1.8682   -0.3876 O   0  0  0  0  0 15  0  0  0  0  0  0
   31.2821    3.2551   -1.1462 C   0  0  0  0  0 15  0  0  0  0  0  0
   30.3951    3.6098   -2.3731 C   0  0  0  0  0 15  0  0  0  0  0  0
   29.5301    4.8727   -2.1153 C   0  0  0  0  0 15  0  0  0  0  0  0
   28.5691    5.1547   -3.3009 C   0  0  0  0  0 15  0  0  0  0  0  0
   27.7061    6.3294   -3.0385 N   0  0  0  0  0 15  0  0  0  0  0  0
   32.5461    1.9134   -2.2845 H   0  0  0  0  0 15  0  0  0  0  0  0
   30.0831    0.9355   -1.1352 H   0  0  0  0  0 15  0  0  0  0  0  0
   32.0411    4.0458   -1.0183 H   0  0  0  0  0 15  0  0  0  0  0  0
   30.6711    3.2197   -0.2308 H   0  0  0  0  0 15  0  0  0  0  0  0
   29.7231    2.7689   -2.6084 H   0  0  0  0  0 15  0  0  0  0  0  0
   31.0351    3.7776   -3.2573 H   0  0  0  0  0 15  0  0  0  0  0  0
   30.1891    5.7424   -1.9578 H   0  0  0  0  0 15  0  0  0  0  0  0
   28.9281    4.7259   -1.2046 H   0  0  0  0  0 15  0  0  0  0  0  0
   27.9331    4.2697   -3.4638 H   0  0  0  0  0 15  0  0  0  0  0  0
   29.1581    5.3205   -4.2202 H   0  0  0  0  0 15  0  0  0  0  0  0
   27.1041    6.1963   -2.1541 H   0  0  0  0  0 15  0  0  0  0  0  0
   27.0211    6.5014   -3.8581 H   0  0  0  0  0 15  0  0  0  0  0  0
   28.2891    7.2286   -2.9172 H   0  0  0  0  0 15  0  0  0  0  0  0
   32.5182    1.2203    0.9973 N   0  0  0  0  0 15  0  0  0  0  0  0
   33.7652    1.0422    1.7362 C   0  0  0  0  0 15  0  0  0  0  0  0
   34.0932   -0.4233    1.8984 C   0  0  0  0  0 15  0  0  0  0  0  0
   33.3482   -1.3302    1.4354 O   0  0  0  0  0 15  0  0  0  0  0  0
   33.6472    1.6934    3.1473 C   0  0  0  0  0 15  0  0  0  0  0  0
   33.3132    3.1923    3.1844 C   0  0  0  0  0 15  0  0  0  0  0  0
   31.9752    3.6012    3.1916 C   0  0  0  0  0 15  0  0  0  0  0  0
   34.3272    4.1518    3.1508 C   0  0  0  0  0 15  0  0  0  0  0  0
   31.6552    4.9547    3.1421 C   0  0  0  0  0 15  0  0  0  0  0  0
   34.0072    5.5049    3.1167 C   0  0  0  0  0 15  0  0  0  0  0  0
   32.6712    5.9078    3.1070 C   0  0  0  0  0 15  0  0  0  0  0  0
   31.9412    0.3814    0.6353 H   0  0  0  0  0 15  0  0  0  0  0  0
   34.5882    1.5173    1.1683 H   0  0  0  0  0 15  0  0  0  0  0  0
   32.8932    1.1415    3.7480 H   0  0  0  0  0 15  0  0  0  0  0  0
   34.5902    1.5306    3.7064 H   0  0  0  0  0 15  0  0  0  0  0  0
   31.1802    2.8666    3.1863 H   0  0  0  0  0 15  0  0  0  0  0  0
   35.3642    3.8461    3.1368 H   0  0  0  0  0 15  0  0  0  0  0  0
   30.6202    5.2592    3.1181 H   0  0  0  0  0 15  0  0  0  0  0  0
   34.7942    6.2458    3.0802 H   0  0  0  0  0 15  0  0  0  0  0  0
   32.4212    6.9562    3.0662 H   0  0  0  0  0 15  0  0  0  0  0  0
   33.9963   -1.1934    1.0293 N   0  0  0  0  0 15  0  0  0  0  0  0
   35.2243   -1.9300    0.7456 C   0  0  0  0  0 15  0  0  0  0  0  0
   35.6393   -1.7552   -0.6956 C   0  0  0  0  0 15  0  0  0  0  0  0
   34.9963   -1.0774   -1.4731 O   0  0  0  0  0 15  0  0  0  0  0  0
   35.0473   -3.4474    1.0879 C   0  0  0  0  0 15  0  0  0  0  0  0
   34.7683   -3.6166    2.4726 O   0  0  0  0  0 15  0  0  0  0  0  0
   36.2693   -4.3552    0.8271 C   0  0  0  0  0 15  0  0  0  0  0  0
   33.4893   -0.6130    0.2728 H   0  0  0  0  0 15  0  0  0  0  0  0
   36.0333   -1.5147    1.3739 H   0  0  0  0  0 15  0  0  0  0  0  0
   34.1883   -3.8410    0.5048 H   0  0  0  0  0 15  0  0  0  0  0  0
   34.6023   -4.5551    2.6001 H   0  0  0  0  0 15  0  0  0  0  0  0
   36.0763   -5.4059    1.1166 H   0  0  0  0  0 15  0  0  0  0  0  0
   36.5533   -4.3855   -0.2384 H   0  0  0  0  0 15  0  0  0  0  0  0
   37.1593   -4.0184    1.3930 H   0  0  0  0  0 15  0  0  0  0  0  0
   35.4744   -0.8072   -1.3536 N   0  0  0  0  0 15  0  0  0  0  0  0
   36.4214   -0.2160   -2.2979 C   0  0  0  0  0 15  0  0  0  0  0  0
   37.3914    0.6503   -1.5284 C   0  0  0  0  0 15  0  0  0  0  0  0
   38.5764    0.5952   -1.8128 O   0  0  0  0  0 15  0  0  0  0  0  0
   35.7164    0.6289   -3.3932 C   0  0  0  0  0 15  0  0  0  0  0  0
   34.8294   -0.2579   -4.3123 C   0  0  0  0  0 15  0  0  0  0  0  0
   33.9644    0.5951   -5.2786 C   0  0  0  0  0 15  0  0  0  0  0  0
   33.0034   -0.2921   -6.1140 C   0  0  0  0  0 15  0  0  0  0  0  0
   32.1404    0.5209   -7.0017 N   0  0  0  0  0 15  0  0  0  0  0  0
   36.9804   -1.0267   -2.7975 H   0  0  0  0  0 15  0  0  0  0  0  0
   34.5174   -0.5178   -1.3768 H   0  0  0  0  0 15  0  0  0  0  0  0
   36.4754    1.1339   -4.0149 H   0  0  0  0  0 15  0  0  0  0  0  0
   35.1054    1.4048   -2.9063 H   0  0  0  0  0 15  0  0  0  0  0  0
   34.1574   -0.8811   -3.7006 H   0  0  0  0  0 15  0  0  0  0  0  0
   35.4694   -0.9408   -4.8985 H   0  0  0  0  0 15  0  0  0  0  0  0
   34.6234    1.1652   -5.9541 H   0  0  0  0  0 15  0  0  0  0  0  0
   33.3624    1.3115   -4.6974 H   0  0  0  0  0 15  0  0  0  0  0  0
   32.3674   -0.8745   -5.4280 H   0  0  0  0  0 15  0  0  0  0  0  0
   33.5924   -1.0064   -6.7160 H   0  0  0  0  0 15  0  0  0  0  0  0
   31.5384    1.2213   -6.4453 H   0  0  0  0  0 15  0  0  0  0  0  0
   31.4554   -0.1039   -7.5593 H   0  0  0  0  0 15  0  0  0  0  0  0
   32.7234    1.0743   -7.7206 H   0  0  0  0  0 15  0  0  0  0  0  0
   36.9525    1.4729   -0.5608 N   0  0  0  0  0 15  0  0  0  0  0  0
   37.8995    2.3006    0.1849 C   0  0  0  0  0 15  0  0  0  0  0  0
   38.8695    1.3928    0.9050 C   0  0  0  0  0 15  0  0  0  0  0  0
   40.0545    1.6824    0.9000 O   0  0  0  0  0 15  0  0  0  0  0  0
   37.1945    3.2332    1.2067 C   0  0  0  0  0 15  0  0  0  0  0  0
   36.3075    4.2919    0.4923 C   0  0  0  0  0 15  0  0  0  0  0  0
   35.4425    5.0959    1.4996 C   0  0  0  0  0 15  0  0  0  0  0  0
   34.4815    6.0723    0.7704 C   0  0  0  0  0 15  0  0  0  0  0  0
   33.6185    6.8058    1.7248 N   0  0  0  0  0 15  0  0  0  0  0  0
   38.4585    2.9330   -0.5270 H   0  0  0  0  0 15  0  0  0  0  0  0
   35.9955    1.4457   -0.2717 H   0  0  0  0  0 15  0  0  0  0  0  0
   37.9535    3.7581    1.8117 H   0  0  0  0  0 15  0  0  0  0  0  0
   36.5835    2.6193    1.8866 H   0  0  0  0  0 15  0  0  0  0  0  0
   35.6355    3.7972   -0.2273 H   0  0  0  0  0 15  0  0  0  0  0  0
   36.9475    4.9874   -0.0788 H   0  0  0  0  0 15  0  0  0  0  0  0
   36.1015    5.6625    2.1781 H   0  0  0  0  0 15  0  0  0  0  0  0
   34.8405    4.3995    2.1046 H   0  0  0  0  0 15  0  0  0  0  0  0
   33.8455    5.4974    0.0781 H   0  0  0  0  0 15  0  0  0  0  0  0
   35.0705    6.7888    0.1711 H   0  0  0  0  0 15  0  0  0  0  0  0
   33.0165    6.1367    2.3183 H   0  0  0  0  0 15  0  0  0  0  0  0
   32.9335    7.4632    1.2060 H   0  0  0  0  0 15  0  0  0  0  0  0
   34.2015    7.4182    2.3943 H   0  0  0  0  0 15  0  0  0  0  0  0
   38.4695    0.4395    1.5541 O   0  0  0  0  0 15  0  0  0  0  0  0
   39.1605   -0.0937    1.9347 H   0  0  0  0  0 15  0  0  0  0  0  0
M  END
$$$$
