drugbank_target|P0C2P0 Blasticidin-S deaminase (DB04649)
 OpenBabel12092120303D

  0  0  0     0  0            999 V3000
M  V30 BEGIN CTAB
M  V30 COUNTS 1890 1905 0 0 0
M  V30 BEGIN ATOM
M  V30 1 H -0.908 1.98254 -0.117106 0
M  V30 2 N 0 1.576 0 0
M  V30 3 C 0.933 2.03868 1.02534 0
M  V30 4 C 1.911 0.928543 1.3348 0
M  V30 5 O 3.095 1.19667 1.45644 0
M  V30 6 C 0.222 2.43627 2.35294 0
M  V30 7 C -0.732 3.65373 2.2001 0
M  V30 8 S 0.101 5.13292 1.52614 0
M  V30 9 C 1.257 5.56322 2.86805 0
M  V30 10 H 1.49 2.90518 0.631377 0
M  V30 11 H -0.977 1.52953 0.210867 0
M  V30 12 H 0.981 2.67203 3.11629 0
M  V30 13 H -0.358 1.57376 2.7183 0
M  V30 14 H -1.165 3.90944 3.18086 0
M  V30 15 H -1.563 3.418 1.51819 0
M  V30 16 H 0.729 5.58782 3.83104 0
M  V30 17 H 1.672 6.56266 2.65933 0
M  V30 18 H 2.08 4.83886 2.90714 0
M  V30 19 N 1.4781 -0.272755 1.55222 0
M  V30 20 C 2.8891 -0.84378 1.66545 0
M  V30 21 C 3.2401 -1.87035 0.592641 0
M  V30 22 O 2.3651 -2.14761 -0.265818 0
M  V30 23 C 2.9601 -1.53723 3.01918 0
M  V30 24 C 1.5191 -2.05628 3.15268 0
M  V30 25 C 0.6661 -0.898424 2.62343 0
M  V30 26 H 3.6171 -0.0490998 1.58624 0
M  V30 27 H 3.6381 -2.40421 2.94921 0
M  V30 28 H 3.1501 -0.78983 3.79978 0
M  V30 29 H 1.2511 -2.83329 2.41983 0
M  V30 30 H 1.3641 -2.27142 4.21833 0
M  V30 31 H -0.2719 -1.29186 2.19506 0
M  V30 32 H 0.5111 -0.164528 3.42906 0
M  V30 33 N 2.9562 -1.48159 -0.537278 0
M  V30 34 C 3.8862 -1.65029 -1.6519 0
M  V30 35 C 4.8672 -0.499281 -1.62607 0
M  V30 36 O 6.0522 -0.730972 -1.79918 0
M  V30 37 C 3.1822 -1.68303 -3.03795 0
M  V30 38 C 2.1362 -2.8283 -3.21234 0
M  V30 39 C 1.4622 -2.71189 -4.60826 0
M  V30 40 C 2.7622 -4.24211 -3.04701 0
M  V30 41 H 4.4562 -2.58341 -1.51328 0
M  V30 42 H 2.0022 -1.24325 -0.726585 0
M  V30 43 H 3.9552 -1.78693 -3.81637 0
M  V30 44 H 2.6792 -0.715635 -3.18663 0
M  V30 45 H 1.3382 -2.71983 -2.45807 0
M  V30 46 H 0.9862 -1.72435 -4.7252 0
M  V30 47 H 0.6862 -3.48035 -4.7344 0
M  V30 48 H 2.2102 -2.83537 -5.40777 0
M  V30 49 H 3.6242 -4.3593 -3.72341 0
M  V30 50 H 2.0212 -5.01998 -3.28813 0
M  V30 51 H 3.0912 -4.41184 -2.01209 0
M  V30 52 N 4.4343 0.785586 -1.36625 0
M  V30 53 C 5.6593 1.57963 -1.34397 0
M  V30 54 C 6.0843 1.87964 0.071526 0
M  V30 55 O 5.4423 1.48182 1.0446 0
M  V30 56 C 5.4903 2.87511 -2.17646 0
M  V30 57 O 4.5943 3.81281 -1.57158 0
M  V30 58 H 3.9353 0.479014 -0.459828 0
M  V30 59 H 6.4653 0.973411 -1.79961 0
M  V30 60 H 6.4753 3.36745 -2.30362 0
M  V30 61 H 5.1503 2.65002 -3.20541 0
M  V30 62 H 3.7273 3.39885 -1.53403 0
M  V30 63 N 5.9124 1.20967 1.01018 0
M  V30 64 C 6.8444 0.922059 2.09835 0
M  V30 65 C 7.8574 -0.0927106 1.62536 0
M  V30 66 O 9.0464 0.139127 1.77957 0
M  V30 67 C 6.1464 0.362004 3.36961 0
M  V30 68 C 5.3194 1.42986 4.13369 0
M  V30 69 C 4.3784 0.879976 5.1879 0
M  V30 70 O 3.4044 1.56219 5.47343 0
M  V30 71 N 4.6064 -0.307396 5.79686 0
M  V30 72 H 7.3714 1.8588 2.35093 0
M  V30 73 H 4.9324 1.11422 1.1746 0
M  V30 74 H 6.9244 -0.0201474 4.04695 0
M  V30 75 H 5.4944 -0.479437 3.08902 0
M  V30 76 H 4.7144 1.98608 3.40512 0
M  V30 77 H 6.0024 2.14885 4.61196 0
M  V30 78 H 5.4004 -0.878796 5.58832 0
M  V30 79 H 3.9574 -0.631115 6.48737 0
M  V30 80 N 7.3905 -1.2043 1.01659 0
M  V30 81 C 8.3005 -2.2689 0.596484 0
M  V30 82 C 9.3165 -1.70107 -0.36599 0
M  V30 83 O 10.4925 -2.00117 -0.226942 0
M  V30 84 C 7.5575 -3.4665 -0.0586659 0
M  V30 85 C 6.6185 -4.18662 0.949751 0
M  V30 86 C 5.8515 -5.32705 0.32577 0
M  V30 87 O 6.0745 -5.63656 -0.874509 0
M  V30 88 O 5.0085 -5.92803 1.04249 0
M  V30 89 H 8.8345 -2.65041 1.4828 0
M  V30 90 H 6.4195 -1.27048 0.786082 0
M  V30 91 H 8.3015 -4.19256 -0.424564 0
M  V30 92 H 6.9765 -3.10375 -0.91918 0
M  V30 93 H 5.8835 -3.48229 1.36702 0
M  V30 94 H 7.2165 -4.58878 1.78023 0
M  V30 95 N 8.8686 -0.792821 -1.36206 0
M  V30 96 C 9.7786 -0.194808 -2.3379 0
M  V30 97 C 10.7946 0.654869 -1.61206 0
M  V30 98 O 11.9706 0.569856 -1.9317 0
M  V30 99 C 9.0356 0.657721 -3.40404 0
M  V30 100 C 8.0966 -0.210849 -4.28782 0
M  V30 101 C 7.3296 0.601086 -5.30304 0
M  V30 102 O 7.5526 1.83682 -5.40016 0
M  V30 103 O 6.4866 -0.000808277 -6.019 0
M  V30 104 H 10.3126 -1.00172 -2.86704 0
M  V30 105 H 7.8976 -0.554341 -1.38735 0
M  V30 106 H 9.7796 1.14375 -4.05581 0
M  V30 107 H 8.4546 1.44247 -2.89784 0
M  V30 108 H 7.3616 -0.743714 -3.66633 0
M  V30 109 H 8.6946 -0.959195 -4.82763 0
M  V30 110 N 10.3467 1.47872 -0.545128 0
M  V30 111 C 11.5717 2.07391 -0.0190611 0
M  V30 112 C 11.9967 1.39688 1.25971 0
M  V30 113 O 11.3547 0.467816 1.7516 0
M  V30 114 C 11.4027 3.60188 0.172335 0
M  V30 115 O 10.5067 3.9339 1.23766 0
M  V30 116 H 9.8477 0.662411 -0.0459059 0
M  V30 117 H 12.3777 1.90066 -0.757365 0
M  V30 118 H 12.3877 4.06129 0.390305 0
M  V30 119 H 11.0627 4.08865 -0.761725 0
M  V30 120 H 9.6397 3.5921 1.00114 0
M  V30 121 N 11.8248 0.280983 1.55075 0
M  V30 122 C 13.0528 -0.337293 2.04132 0
M  V30 123 C 13.4678 -1.4903 1.15912 0
M  V30 124 O 12.8248 -1.81606 0.180459 0
M  V30 125 C 12.8758 -0.812706 3.52246 0
M  V30 126 O 12.5968 0.294387 4.3711 0
M  V30 127 C 14.0978 -1.4982 4.17216 0
M  V30 128 H 11.3178 -0.0761638 0.666663 0
M  V30 129 H 13.8618 0.414787 2.00249 0
M  V30 130 H 12.0168 -1.51486 3.56554 0
M  V30 131 H 12.4308 -0.0721325 5.2445 0
M  V30 132 H 13.9048 -1.7822 5.22438 0
M  V30 133 H 14.3818 -2.43168 3.65741 0
M  V30 134 H 14.9878 -0.839742 4.16927 0
M  V30 135 N 13.3029 -1.57598 0.00835791 0
M  V30 136 C 14.2329 -2.1198 -0.979113 0
M  V30 137 C 15.2139 -1.03091 -1.35301 0
M  V30 138 O 16.3989 -1.30818 -1.43528 0
M  V30 139 C 13.5289 -2.62995 -2.26828 0
M  V30 140 C 12.4829 -3.76485 -2.03576 0
M  V30 141 C 11.8089 -4.13846 -3.38579 0
M  V30 142 C 13.1089 -5.0342 -1.39161 0
M  V30 143 H 14.8029 -2.94738 -0.526281 0
M  V30 144 H 12.3489 -1.41783 -0.251704 0
M  V30 145 H 14.3019 -2.99669 -2.96271 0
M  V30 146 H 13.0259 -1.7737 -2.7424 0
M  V30 147 H 11.6849 -3.40217 -1.36557 0
M  V30 148 H 11.3329 -3.25232 -3.83709 0
M  V30 149 H 11.0329 -4.90312 -3.23834 0
M  V30 150 H 12.5569 -4.53086 -4.09323 0
M  V30 151 H 13.9709 -5.37812 -1.98573 0
M  V30 152 H 12.3679 -5.84746 -1.34878 0
M  V30 153 H 13.4379 -4.83548 -0.361868 0
M  V30 154 N 14.781 0.264519 -1.55364 0
M  V30 155 C 16.03 0.992812 -1.75574 0
M  V30 156 C 16.343 1.87142 -0.568979 0
M  V30 157 O 17.549 2.63513 -0.653682 0
M  V30 158 C 16.005 1.81519 -3.10771 0
M  V30 159 C 15.613 0.984839 -4.37041 0
M  V30 160 C 17.357 2.53727 -3.40327 0
M  V30 161 C 15.264 1.80209 -5.63275 0
M  V30 162 H 14.194 0.374412 -0.65447 0
M  V30 163 H 16.845 0.248138 -1.81815 0
M  V30 164 H 15.227 2.60115 -2.98591 0
M  V30 165 H 16.401 0.242455 -4.60162 0
M  V30 166 H 14.716 0.37691 -4.14691 0
M  V30 167 H 17.313 3.15292 -4.3185 0
M  V30 168 H 17.656 3.24447 -2.60845 0
M  V30 169 H 18.189 1.82156 -3.53644 0
M  V30 170 H 14.928 1.13896 -6.45529 0
M  V30 171 H 14.448 2.52022 -5.44284 0
M  V30 172 H 16.127 2.37364 -6.01887 0
M  V30 173 N 16.2591 1.48442 0.529413 0
M  V30 174 C 17.1691 1.6569 1.66084 0
M  V30 175 C 18.1851 0.539432 1.65427 0
M  V30 176 O 19.3611 0.810572 1.84368 0
M  V30 177 C 16.4261 1.69315 3.02545 0
M  V30 178 C 15.4871 2.92694 3.14052 0
M  V30 179 C 14.7201 2.96137 4.44003 0
M  V30 180 O 14.9431 2.07973 5.31134 0
M  V30 181 O 13.8771 3.88312 4.59888 0
M  V30 182 H 17.7031 2.61483 1.54469 0
M  V30 183 H 15.2881 1.3185 0.702567 0
M  V30 184 H 17.1701 1.74217 3.83701 0
M  V30 185 H 15.8451 0.766966 3.14483 0
M  V30 186 H 14.7521 2.93324 2.32189 0
M  V30 187 H 16.0851 3.84699 3.0703 0
M  V30 188 N 17.7372 -0.778329 1.37039 0
M  V30 189 C 19.1532 -1.07796 1.17695 0
M  V30 190 C 19.3532 -2.01498 0.00860115 0
M  V30 191 O 18.4092 -2.43901 -0.653352 0
M  V30 192 C 19.7222 -1.68178 2.49272 0
M  V30 193 C 21.2702 -1.80467 2.55735 0
M  V30 194 C 21.7452 -2.44263 3.87427 0
M  V30 195 N 23.2362 -2.51721 3.88833 0
M  V30 196 C 23.9712 -3.01919 4.87476 0
M  V30 197 N 23.4672 -3.5234 5.96513 0
M  V30 198 N 25.2602 -3.00733 4.74885 0
M  V30 199 H 17.4112 -0.156032 2.11826 0
M  V30 200 H 19.6742 -0.131844 0.938787 0
M  V30 201 H 19.3802 -1.06796 3.35093 0
M  V30 202 H 19.2542 -2.67554 2.65885 0
M  V30 203 H 21.6412 -2.40984 1.70325 0
M  V30 204 H 21.7222 -0.798656 2.43013 0
M  V30 205 H 21.3662 -1.84388 4.73248 0
M  V30 206 H 21.2962 -3.45458 3.9745 0
M  V30 207 H 23.7872 -2.1603 3.10063 0
M  V30 208 H 24.1002 -3.89027 6.67741 0
M  V30 209 H 22.4452 -3.50462 6.00168 0
M  V30 210 H 25.6362 -2.60638 3.88826 0
M  V30 211 H 25.8092 -3.39545 5.51918 0
M  V30 212 N 19.2153 -1.21501 -1.00376 0
M  V30 213 C 20.1783 -0.976927 -2.07337 0
M  V30 214 C 21.1783 0.0525322 -1.60714 0
M  V30 215 O 22.3683 -0.184869 -1.73216 0
M  V30 216 C 19.5003 -0.473423 -3.37597 0
M  V30 217 H 20.6933 -1.92587 -2.29892 0
M  V30 218 H 18.2463 -1.03217 -1.17371 0
M  V30 219 H 18.9813 0.480379 -3.20722 0
M  V30 220 H 18.7663 -1.216 -3.72768 0
M  V30 221 H 20.2563 -0.32675 -4.1632 0
M  V30 222 N 20.6934 1.19889 -1.02296 0
M  V30 223 C 21.9214 1.9339 -0.735399 0
M  V30 224 C 22.3364 1.75148 0.704887 0
M  V30 225 O 21.6934 1.06954 1.47875 0
M  V30 226 C 21.7444 3.45313 -1.06962 0
M  V30 227 O 21.4654 3.62964 -2.45334 0
M  V30 228 C 22.9664 4.35948 -0.804021 0
M  V30 229 H 20.1864 0.61448 -0.269546 0
M  V30 230 H 22.7304 1.522 -1.36585 0
M  V30 231 H 20.8854 3.84359 -0.484455 0
M  V30 232 H 21.2994 4.56886 -2.57595 0
M  V30 233 H 22.7734 5.41174 -1.0879 0
M  V30 234 H 23.2504 4.3842 0.261691 0
M  V30 235 H 23.8564 4.02574 -1.37164 0
M  V30 236 N 22.1715 0.800033 1.35784 0
M  V30 237 C 23.1345 0.211565 2.28221 0
M  V30 238 C 24.1345 -0.59728 1.49296 0
M  V30 239 O 25.3245 -0.416721 1.69142 0
M  V30 240 C 22.4565 -0.705846 3.33513 0
M  V30 241 H 23.6495 1.02677 2.81776 0
M  V30 242 H 21.2025 0.570211 1.45528 0
M  V30 243 H 21.9375 -1.54498 2.85133 0
M  V30 244 H 21.7225 -0.127655 3.91892 0
M  V30 245 H 23.2125 -1.11211 4.02519 0
M  V30 246 N 23.6496 -1.47581 0.552962 0
M  V30 247 C 24.8776 -2.06875 0.0320556 0
M  V30 248 C 25.2926 -1.40625 -1.25976 0
M  V30 249 O 24.6496 -0.501349 -1.75479 0
M  V30 250 C 24.7006 -3.61092 -0.17167 0
M  V30 251 O 24.4216 -4.24858 1.06899 0
M  V30 252 C 25.9226 -4.37242 -0.730344 0
M  V30 253 H 23.1426 -0.669561 0.043915 0
M  V30 254 H 25.6866 -1.89646 0.765163 0
M  V30 255 H 23.8416 -3.7785 -0.854894 0
M  V30 256 H 24.2556 -5.17334 0.864059 0
M  V30 257 H 25.7296 -5.45842 -0.822203 0
M  V30 258 H 26.2066 -4.03235 -1.74064 0
M  V30 259 H 26.8126 -4.25219 -0.0829543 0
M  V30 260 N 25.1277 -0.289203 -1.54924 0
M  V30 261 C 26.3767 0.324231 -1.99077 0
M  V30 262 C 26.6897 1.5591 -1.18117 0
M  V30 263 O 27.8957 2.24637 -1.52481 0
M  V30 264 C 26.3517 0.628209 -3.54375 0
M  V30 265 C 25.9597 -0.587647 -4.44129 0
M  V30 266 C 27.7037 1.20349 -4.07083 0
M  V30 267 C 25.6107 -0.257475 -5.90839 0
M  V30 268 H 24.5407 0.124924 -0.743579 0
M  V30 269 H 27.1917 -0.396063 -1.79175 0
M  V30 270 H 25.5737 1.40778 -3.70132 0
M  V30 271 H 26.7477 -1.36418 -4.40144 0
M  V30 272 H 25.0627 -1.08074 -4.0213 0
M  V30 273 H 27.6597 1.46456 -5.14252 0
M  V30 274 H 28.0027 2.14195 -3.56968 0
M  V30 275 H 28.5357 0.485889 -3.94821 0
M  V30 276 H 25.2747 -1.16419 -6.45079 0
M  V30 277 H 24.7947 0.482018 -5.9786 0
M  V30 278 H 26.4737 0.145238 -6.46837 0
M  V30 279 N 26.6058 1.57591 -0.0167156 0
M  V30 280 C 27.5538 2.10604 0.987353 0
M  V30 281 C 28.5478 1.02977 1.34507 0
M  V30 282 O 29.7538 1.21425 1.32875 0
M  V30 283 H 26.1288 0.672695 0.336134 0
M  V30 284 H 28.0998 2.93925 0.514817 0
M  V30 285 C 26.8488 2.6382 2.26483 0
M  V30 286 H 26.1718 3.46278 1.99829 0
M  V30 287 H 27.6118 3.04573 2.94977 0
M  V30 288 C 26.0708 1.55992 2.9861 0
M  V30 289 O 26.6008 0.952521 3.90243 0
M  V30 290 N 24.8068 1.28335 2.60727 0
M  V30 291 H 24.3538 1.77914 1.86291 0
M  V30 292 H 24.3118 0.564115 3.09298 0
M  V30 293 N 28.0839 -0.256276 1.55502 0
M  V30 294 C 29.3089 -1.00766 1.81276 0
M  V30 295 C 29.7339 -1.78524 0.59252 0
M  V30 296 O 29.0919 -1.75413 -0.45827 0
M  V30 297 C 29.1399 -1.92869 3.04687 0
M  V30 298 O 28.2439 -3.019 2.80945 0
M  V30 299 H 27.5849 -0.287224 0.598664 0
M  V30 300 H 30.1149 -0.280109 2.02674 0
M  V30 301 H 30.1249 -2.34511 3.33869 0
M  V30 302 H 28.7999 -1.35689 3.93143 0
M  V30 303 H 27.3769 -2.64454 2.62904 0
M  V30 304 N 29.562 -1.4872 -0.521534 0
M  V30 305 C 30.811 -1.56419 -1.27341 0
M  V30 306 C 31.124 -0.246805 -1.94037 0
M  V30 307 O 32.33 -0.202122 -2.70747 0
M  V30 308 C 30.786 -2.75896 -2.31105 0
M  V30 309 C 30.394 -4.14311 -1.70441 0
M  V30 310 C 32.138 -2.92913 -3.07249 0
M  V30 311 C 30.045 -5.25038 -2.72194 0
M  V30 312 H 28.975 -0.582344 -0.478949 0
M  V30 313 H 31.626 -1.75071 -0.549779 0
M  V30 314 H 30.008 -2.50697 -3.06541 0
M  V30 315 H 31.182 -4.49564 -1.01136 0
M  V30 316 H 29.497 -4.02482 -1.06759 0
M  V30 317 H 32.094 -3.72805 -3.83302 0
M  V30 318 H 32.437 -2.02689 -3.63625 0
M  V30 319 H 32.97 -3.18054 -2.38928 0
M  V30 320 H 29.709 -6.17255 -2.20627 0
M  V30 321 H 29.229 -4.94263 -3.39801 0
M  V30 322 H 30.908 -5.53508 -3.35019 0
M  V30 323 N 31.0401 0.771051 -1.3745 0
M  V30 324 C 32.4511 1.34737 -1.29239 0
M  V30 325 C 32.8021 1.96109 0.0596908 0
M  V30 326 O 31.9271 1.93865 0.961534 0
M  V30 327 C 32.5221 2.44973 -2.34037 0
M  V30 328 C 31.0811 2.98372 -2.29458 0
M  V30 329 C 30.2281 1.71595 -2.17831 0
M  V30 330 H 33.1791 0.571256 -1.48062 0
M  V30 331 H 33.2001 3.24471 -1.98744 0
M  V30 332 H 32.7121 2.00276 -3.32432 0
M  V30 333 H 30.8131 3.47443 -1.34589 0
M  V30 334 H 30.9261 3.53939 -3.229 0
M  V30 335 H 29.2901 1.94547 -1.64388 0
M  V30 336 H 30.0731 1.29001 -3.18141 0
M  V30 337 N 32.5182 1.22032 0.997298 0
M  V30 338 C 33.7672 1.03637 1.73038 0
M  V30 339 C 34.0802 -0.429475 1.90827 0
M  V30 340 O 35.2862 -0.732995 2.61418 0
M  V30 341 C 33.7422 1.80582 3.11317 0
M  V30 342 C 33.3502 3.31387 3.01474 0
M  V30 343 C 35.0942 1.70621 3.88701 0
M  V30 344 C 33.0012 4.00791 4.3488 0
M  V30 345 H 31.9312 0.384179 0.648785 0
M  V30 346 H 34.5822 1.4584 1.11368 0
M  V30 347 H 32.9642 1.31175 3.73643 0
M  V30 348 H 34.1382 3.88155 2.4834 0
M  V30 349 H 32.4532 3.41976 2.37575 0
M  V30 350 H 35.0502 2.19799 4.87434 0
M  V30 351 H 35.3932 0.665823 4.10941 0
M  V30 352 H 35.9262 2.17547 3.33044 0
M  V30 353 H 32.6652 5.05064 4.1784 0
M  V30 354 H 32.1852 3.48811 4.87945 0
M  V30 355 H 33.8642 4.06139 5.03647 0
M  V30 356 N 33.9963 -1.19345 1.0293 0
M  V30 357 C 35.2213 -1.93538 0.745511 0
M  V30 358 C 35.6463 -1.75007 -0.689511 0
M  V30 359 O 35.0043 -1.05265 -1.47611 0
M  V30 360 C 35.0523 -3.43336 1.10239 0
M  V30 361 O 34.1563 -4.11806 0.221289 0
M  V30 362 H 33.4973 -0.604193 0.275404 0
M  V30 363 H 36.0273 -1.5141 1.37609 0
M  V30 364 H 36.0373 -3.94004 1.05947 0
M  V30 365 H 34.7123 -3.56146 2.14786 0
M  V30 366 H 33.2893 -3.715 0.322842 0
M  V30 367 N 35.4744 -0.807222 -1.35358 0
M  V30 368 C 36.3844 -0.219594 -2.3357 0
M  V30 369 C 37.4004 0.637734 -1.61892 0
M  V30 370 O 38.5764 0.549336 -1.93763 0
M  V30 371 C 35.6414 0.62158 -3.41083 0
M  V30 372 C 34.7024 -0.256315 -4.28534 0
M  V30 373 C 33.9354 0.544807 -5.30912 0
M  V30 374 O 34.1584 1.77944 -5.41934 0
M  V30 375 O 33.0924 -0.0646478 -6.01865 0
M  V30 376 H 36.9184 -1.03208 -2.85625 0
M  V30 377 H 34.5034 -0.569025 -1.38139 0
M  V30 378 H 36.3854 1.10067 -4.06772 0
M  V30 379 H 35.0604 1.41165 -2.91297 0
M  V30 380 H 33.9674 -0.782559 -3.65823 0
M  V30 381 H 35.3004 -1.01034 -4.81719 0
M  V30 382 N 36.9525 1.47285 -0.560781 0
M  V30 383 C 38.2295 1.9558 0.0277798 0
M  V30 384 C 38.6095 1.5034 1.48192 0
M  V30 385 O 37.9575 0.743882 2.16052 0
M  V30 386 C 38.1675 3.48789 -0.121418 0
M  V30 387 C 39.5155 4.24594 0.0220912 0
M  V30 388 O 40.5395 3.56166 -0.0491439 0
M  V30 389 O 39.3985 5.46217 0.175958 0
M  V30 390 H 36.4925 0.824663 0.0621342 0
M  V30 391 H 39.0385 1.5767 -0.627556 0
M  V30 392 H 37.8105 3.74533 -1.13316 0
M  V30 393 H 37.4335 3.93473 0.571366 0
M  V30 394 N 38.4306 0.297415 1.54768 0
M  V30 395 C 39.6606 -0.315165 2.04182 0
M  V30 396 C 40.0686 -1.4834 1.17439 0
M  V30 397 O 39.4116 -1.82695 0.191891 0
M  V30 398 C 39.4736 -0.837583 3.49607 0
M  V30 399 C 39.1376 0.204912 4.5654 0
M  V30 400 C 40.1346 1.03214 5.09552 0
M  V30 401 C 37.8196 0.345578 5.0111 0
M  V30 402 C 39.8136 1.986 6.05671 0
M  V30 403 C 37.5006 1.30289 5.97049 0
M  V30 404 C 38.4986 2.12159 6.49213 0
M  V30 405 O 38.1866 3.06268 7.43273 0
M  V30 406 H 37.9186 -0.0729646 0.672051 0
M  V30 407 H 40.4726 0.433907 2.00765 0
M  V30 408 H 38.7026 -1.63712 3.50336 0
M  V30 409 H 40.3916 -1.36566 3.82236 0
M  V30 410 H 41.1576 0.934312 4.75916 0
M  V30 411 H 37.0366 -0.28171 4.60138 0
M  V30 412 H 40.5806 2.62542 6.46311 0
M  V30 413 H 36.4776 1.40145 6.30103 0
M  V30 414 H 37.2456 3.01205 7.61064 0
M  V30 415 N 39.9087 -1.5758 0.0250728 0
M  V30 416 C 41.1337 -1.96337 -0.668317 0
M  V30 417 C 41.5587 -0.901314 -1.651 0
M  V30 418 O 40.9167 0.138187 -1.80773 0
M  V30 419 C 40.9647 -3.34191 -1.35457 0
M  V30 420 O 40.0687 -3.30269 -2.46974 0
M  V30 421 H 39.4097 -0.640281 -0.175887 0
M  V30 422 H 41.9397 -2.0442 0.0857224 0
M  V30 423 H 41.9497 -3.70331 -1.71228 0
M  V30 424 H 40.6247 -4.11036 -0.634218 0
M  V30 425 H 39.2017 -3.05841 -2.13344 0
M  V30 426 N 41.3868 0.248026 -1.55636 0
M  V30 427 C 42.6328 0.97767 -1.77678 0
M  V30 428 C 42.9658 1.85016 -0.590135 0
M  V30 429 O 42.2408 1.90095 0.411611 0
M  V30 430 C 42.5238 1.83914 -3.09593 0
M  V30 431 C 42.3768 0.99491 -4.38659 0
M  V30 432 C 43.6958 2.82183 -3.37729 0
M  V30 433 H 40.8148 0.354005 -0.646413 0
M  V30 434 H 43.4568 0.248253 -1.88371 0
M  V30 435 H 41.6068 2.46104 -3.00608 0
M  V30 436 H 43.2788 0.391789 -4.59633 0
M  V30 437 H 41.5218 0.299231 -4.32767 0
M  V30 438 H 42.1928 1.63145 -5.2734 0
M  V30 439 H 44.6688 2.30129 -3.4667 0
M  V30 440 H 43.5448 3.39582 -4.31249 0
M  V30 441 H 43.8058 3.58588 -2.58586 0
M  V30 442 N 42.8649 1.48995 0.513639 0
M  V30 443 C 43.8279 1.64229 1.59879 0
M  V30 444 C 44.8279 0.514696 1.5234 0
M  V30 445 O 46.0179 0.78087 1.55718 0
M  V30 446 C 43.1499 1.62783 2.99524 0
M  V30 447 H 44.3429 2.61004 1.47705 0
M  V30 448 H 41.8959 1.37837 0.736936 0
M  V30 449 H 42.6309 0.675461 3.17188 0
M  V30 450 H 42.4159 2.4466 3.06404 0
M  V30 451 H 43.9059 1.76669 3.78388 0
M  V30 452 N 44.343 -0.763751 1.37857 0
M  V30 453 C 45.568 -1.55805 1.36893 0
M  V30 454 C 45.993 -1.88054 -0.0416135 0
M  V30 455 O 45.351 -1.49825 -1.02089 0
M  V30 456 C 45.399 -2.84012 2.22192 0
M  V30 457 O 44.503 -3.78732 1.63204 0
M  V30 458 H 43.844 -0.471638 0.46739 0
M  V30 459 H 46.374 -0.944657 1.81487 0
M  V30 460 H 46.384 -3.33037 2.35691 0
M  V30 461 H 45.059 -2.59869 3.24716 0
M  V30 462 H 43.636 -3.37402 1.58791 0
M  V30 463 N 45.8211 -1.22559 -0.990812 0
M  V30 464 C 46.7841 -0.998863 -2.0629 0
M  V30 465 C 47.7841 0.0354834 -1.60761 0
M  V30 466 O 48.9741 -0.203231 -1.7301 0
M  V30 467 C 46.1061 -0.509203 -3.37076 0
M  V30 468 H 47.2991 -1.95014 -2.27837 0
M  V30 469 H 44.8521 -1.04456 -1.16269 0
M  V30 470 H 45.5871 0.446335 -3.21214 0
M  V30 471 H 45.3721 -1.25547 -3.71457 0
M  V30 472 H 46.8621 -0.370888 -4.1595 0
M  V30 473 N 47.2992 1.18797 -1.03562 0
M  V30 474 C 48.2622 2.20464 -0.626769 0
M  V30 475 C 49.2622 1.57721 0.313173 0
M  V30 476 O 50.4522 1.73917 0.0992615 0
M  V30 477 C 47.5842 3.40802 0.0818498 0
M  V30 478 H 48.7772 2.58149 -1.5264 0
M  V30 479 H 46.3302 1.32593 -0.827578 0
M  V30 480 H 47.0652 3.08642 0.995518 0
M  V30 481 H 46.8502 3.8758 -0.593652 0
M  V30 482 H 48.3402 4.16092 0.354584 0
M  V30 483 N 48.7773 0.814389 1.34928 0
M  V30 484 C 49.7073 0.244827 2.32213 0
M  V30 485 C 50.6883 -0.634024 1.57842 0
M  V30 486 O 51.8733 -0.562676 1.8587 0
M  V30 487 C 49.0033 -0.601106 3.42058 0
M  V30 488 C 47.9573 0.179896 4.27622 0
M  V30 489 C 47.2833 -0.788237 5.28858 0
M  V30 490 C 48.5833 1.38329 5.03649 0
M  V30 491 H 50.2773 1.05763 2.80097 0
M  V30 492 H 47.8233 0.510029 1.34665 0
M  V30 493 H 49.7763 -1.00968 4.09125 0
M  V30 494 H 48.5003 -1.44688 2.92802 0
M  V30 495 H 47.1593 0.569739 3.62146 0
M  V30 496 H 46.8073 -1.62973 4.75866 0
M  V30 497 H 46.5073 -0.269942 5.8698 0
M  V30 498 H 48.0313 -1.19485 5.98795 0
M  V30 499 H 49.4453 1.04918 5.63618 0
M  V30 500 H 47.8423 1.83662 5.71304 0
M  V30 501 H 48.9123 2.16592 4.33839 0
M  V30 502 N 50.2554 -1.46986 0.568584 0
M  V30 503 C 51.4804 -2.07335 0.0520528 0
M  V30 504 C 51.9054 -1.41675 -1.23733 0
M  V30 505 O 51.2634 -0.495623 -1.74394 0
M  V30 506 C 51.3114 -3.60417 -0.11501 0
M  V30 507 O 50.4154 -3.95309 -1.17492 0
M  V30 508 H 49.7564 -0.661597 0.0564385 0
M  V30 509 H 52.2864 -1.88837 0.787507 0
M  V30 510 H 52.2964 -4.06698 -0.325644 0
M  V30 511 H 50.9714 -4.07601 0.826675 0
M  V30 512 H 49.5484 -3.60757 -0.943869 0
M  V30 513 N 51.7335 -0.305618 -1.54608 0
M  V30 514 C 52.9585 0.307562 -2.05107 0
M  V30 515 C 53.3835 1.46385 -1.18123 0
M  V30 516 O 52.7415 1.8034 -0.186324 0
M  V30 517 C 52.7895 0.73704 -3.52987 0
M  V30 518 O 51.8935 1.84134 -3.6901 0
M  V30 519 H 51.2345 0.0589143 -0.661381 0
M  V30 520 H 53.7645 -0.448807 -1.99617 0
M  V30 521 H 53.7745 1.02459 -3.94925 0
M  V30 522 H 52.4495 -0.108773 -4.15758 0
M  V30 523 H 51.0265 1.55398 -3.38978 0
M  V30 524 N 53.2116 1.57565 -0.0334293 0
M  V30 525 C 54.4886 1.83282 0.683163 0
M  V30 526 C 54.8686 0.91823 1.90084 0
M  V30 527 O 54.2166 -0.025113 2.28486 0
M  V30 528 C 54.4266 3.32599 1.0573 0
M  V30 529 C 55.7746 3.99179 1.44711 0
M  V30 530 O 56.7986 3.3712 1.15015 0
M  V30 531 O 55.6576 5.08565 2.0006 0
M  V30 532 H 52.7516 0.755869 0.335546 0
M  V30 533 H 55.2976 1.69589 -0.0614402 0
M  V30 534 H 54.0696 3.90834 0.190828 0
M  V30 535 H 53.6926 3.51415 1.85993 0
M  V30 536 N 54.6897 -0.239769 1.55765 0
M  V30 537 C 55.9377 -0.964892 1.77579 0
M  V30 538 C 56.2587 -1.85582 0.598699 0
M  V30 539 O 55.5287 -1.92075 -0.385226 0
M  V30 540 H 54.1087 -0.359265 0.654933 0
M  V30 541 H 56.7707 -0.256001 1.93211 0
M  V30 542 H 55.8667 -1.58243 2.69009 0
M  V30 543 N 56.1678 -1.49265 -0.50573 0
M  V30 544 C 57.5838 -1.35923 -0.836486 0
M  V30 545 C 57.7838 -0.388704 -1.97715 0
M  V30 546 O 56.8398 0.181336 -2.51848 0
M  V30 547 C 58.1528 -2.76531 -1.18115 0
M  V30 548 C 59.7008 -2.85197 -1.28964 0
M  V30 549 C 60.1758 -4.26561 -1.66761 0
M  V30 550 N 61.6668 -4.2935 -1.73819 0
M  V30 551 C 62.4018 -5.35693 -2.045 0
M  V30 552 N 61.8978 -6.52287 -2.33438 0
M  V30 553 N 63.6908 -5.23105 -2.05711 0
M  V30 554 H 55.8418 -2.10965 0.246519 0
M  V30 555 H 58.1048 -0.9468 0.0476887 0
M  V30 556 H 57.8108 -3.49226 -0.416398 0
M  V30 557 H 57.6848 -3.11599 -2.1257 0
M  V30 558 H 60.0718 -2.12742 -2.04511 0
M  V30 559 H 60.1528 -2.53718 -0.325704 0
M  V30 560 H 59.7968 -4.99541 -0.917656 0
M  V30 561 H 59.7268 -4.55502 -2.64246 0
M  V30 562 H 62.2178 -3.4526 -1.53635 0
M  V30 563 H 62.5308 -7.29158 -2.56024 0
M  V30 564 H 60.8758 -6.55521 -2.30905 0
M  V30 565 H 64.0668 -4.31026 -1.82577 0
M  V30 566 H 64.2398 -6.06078 -2.29289 0
M  V30 567 N 57.6459 0.756429 -1.3826 0
M  V30 568 C 58.8949 1.51082 -1.3363 0
M  V30 569 C 59.2079 1.95467 0.0720068 0
M  V30 570 O 60.4139 2.7043 0.240834 0
M  V30 571 C 58.8699 2.72893 -2.34644 0
M  V30 572 C 58.4779 2.35544 -3.81081 0
M  V30 573 C 60.2219 3.50791 -2.39052 0
M  V30 574 C 58.1289 3.53948 -4.73787 0
M  V30 575 H 57.0589 0.56727 -0.49671 0
M  V30 576 H 59.7099 0.827147 -1.638 0
M  V30 577 H 58.0919 3.43227 -1.97513 0
M  V30 578 H 59.2659 1.72894 -4.27135 0
M  V30 579 H 57.5809 1.70786 -3.79764 0
M  V30 580 H 60.1779 4.38823 -3.05513 0
M  V30 581 H 60.5209 3.91745 -1.40861 0
M  V30 582 H 61.0539 2.87467 -2.74968 0
M  V30 583 H 57.7929 3.18064 -5.73163 0
M  V30 584 H 57.3129 4.15651 -4.32428 0
M  V30 585 H 58.9919 4.20566 -4.91663 0
M  V30 586 N 59.124 1.23083 0.984299 0
M  V30 587 C 60.371 1.06057 1.72505 0
M  V30 588 C 60.699 -0.403105 1.90277 0
M  V30 589 O 59.954 -1.3149 1.44944 0
M  V30 590 C 60.253 1.72673 3.1292 0
M  V30 591 C 59.919 3.22586 3.15038 0
M  V30 592 C 58.581 3.63489 3.15324 0
M  V30 593 C 60.933 4.185 3.10657 0
M  V30 594 C 58.261 4.98772 3.08939 0
M  V30 595 C 60.613 5.53769 3.05814 0
M  V30 596 C 59.277 5.94041 3.04419 0
M  V30 597 H 58.547 0.388091 0.631242 0
M  V30 598 H 61.194 1.52963 1.15215 0
M  V30 599 H 59.499 1.18116 3.73572 0
M  V30 600 H 61.196 1.56982 3.68996 0
M  V30 601 H 57.786 2.90022 3.15571 0
M  V30 602 H 61.97 3.87911 3.09579 0
M  V30 603 H 57.226 5.29193 3.0621 0
M  V30 604 H 61.4 6.27808 3.0138 0
M  V30 605 H 59.027 6.98833 2.99227 0
M  V30 606 N 60.6021 -1.18246 1.0419 0
M  V30 607 C 61.8301 -1.92195 0.766072 0
M  V30 608 C 62.2451 -1.76247 -0.676933 0
M  V30 609 O 61.6021 -1.09293 -1.46155 0
M  V30 610 C 61.6531 -3.43568 1.12442 0
M  V30 611 O 61.3741 -3.59015 2.51078 0
M  V30 612 C 62.8751 -4.34613 0.873275 0
M  V30 613 H 60.0951 -0.610114 0.279288 0
M  V30 614 H 62.6391 -1.50007 1.38989 0
M  V30 615 H 60.7941 -3.8354 0.545542 0
M  V30 616 H 61.2081 -4.5273 2.64831 0
M  V30 617 H 62.6821 -5.39374 1.17385 0
M  V30 618 H 63.1591 -4.38781 -0.191909 0
M  V30 619 H 63.7651 -4.00341 1.43551 0
M  V30 620 N 62.0802 -0.821533 -1.34494 0
M  V30 621 C 63.3282 -0.408139 -1.97936 0
M  V30 622 C 63.6492 1.03193 -1.65457 0
M  V30 623 O 62.9192 1.71622 -0.944595 0
M  V30 624 H 61.4992 -0.147928 -0.732206 0
M  V30 625 H 64.1612 -1.05067 -1.64155 0
M  V30 626 H 63.2572 -0.52601 -3.07635 0
M  V30 627 N 63.5583 1.46682 -0.576371 0
M  V30 628 C 64.8043 2.02712 -0.0596221 0
M  V30 629 C 65.1373 1.44765 1.29448 0
M  V30 630 O 64.4123 0.610355 1.84675 0
M  V30 631 C 64.6953 3.60098 0.0129503 0
M  V30 632 C 64.5483 4.28441 -1.3696 0
M  V30 633 C 65.8673 4.34224 0.71678 0
M  V30 634 H 62.9863 0.736637 -0.0231407 0
M  V30 635 H 65.6283 1.74898 -0.742351 0
M  V30 636 H 63.7783 3.83926 0.594378 0
M  V30 637 H 65.4503 4.15896 -1.9957 0
M  V30 638 H 63.6933 3.8805 -1.93907 0
M  V30 639 H 64.3643 5.3716 -1.27135 0
M  V30 640 H 66.8403 4.15503 0.222908 0
M  V30 641 H 65.7163 5.43936 0.73657 0
M  V30 642 H 65.9773 4.04823 1.77682 0
M  V30 643 N 65.0364 0.313813 1.54444 0
M  V30 644 C 65.9844 -0.572171 2.25453 0
M  V30 645 C 66.9784 -1.12657 1.2651 0
M  V30 646 O 68.1844 -1.07573 1.44319 0
M  V30 647 H 64.5594 -0.203146 0.724041 0
M  V30 648 H 66.5304 0.0491145 2.9836 0
M  V30 649 C 65.2794 -1.72626 3.0182 0
M  V30 650 H 64.6024 -1.30891 3.77767 0
M  V30 651 H 66.0424 -2.32199 3.54767 0
M  V30 652 C 64.5014 -2.63806 2.09542 0
M  V30 653 O 65.0314 -3.65256 1.67185 0
M  V30 654 N 63.2374 -2.31824 1.75232 0
M  V30 655 H 62.7844 -1.49368 2.09873 0
M  V30 656 H 62.7424 -2.93095 1.13767 0
M  V30 657 N 66.5145 -1.57545 0.0417849 0
M  V30 658 C 67.7605 -1.92601 -0.635021 0
M  V30 659 C 68.0935 -0.919627 -1.71045 0
M  V30 660 O 67.3685 0.0557892 -1.9442 0
M  V30 661 C 67.6515 -3.38085 -1.23979 0
M  V30 662 C 67.5045 -4.49467 -0.173057 0
M  V30 663 C 68.8235 -3.83776 -2.15416 0
M  V30 664 H 65.9425 -0.700397 -0.229374 0
M  V30 665 H 68.5845 -1.89728 0.101633 0
M  V30 666 H 66.7345 -3.40664 -1.86762 0
M  V30 667 H 68.4065 -4.59018 0.458312 0
M  V30 668 H 66.6495 -4.30909 0.499996 0
M  V30 669 H 67.3205 -5.48323 -0.636054 0
M  V30 670 H 69.7965 -3.83013 -1.62605 0
M  V30 671 H 68.6725 -4.8624 -2.54679 0
M  V30 672 H 68.9335 -3.19998 -3.05047 0
M  V30 673 N 67.9926 0.231505 -1.5589 0
M  V30 674 C 69.2226 0.973092 -1.82248 0
M  V30 675 C 69.6306 1.78845 -0.617328 0
M  V30 676 O 68.9736 1.78752 0.423499 0
M  V30 677 C 69.0356 1.94732 -3.02192 0
M  V30 678 C 68.6996 1.31743 -4.37599 0
M  V30 679 C 69.6966 0.712238 -5.14998 0
M  V30 680 C 67.3816 1.33218 -4.84312 0
M  V30 681 C 69.3756 0.130195 -6.37267 0
M  V30 682 C 67.0626 0.746286 -6.06526 0
M  V30 683 C 68.0606 0.146337 -6.82843 0
M  V30 684 O 67.7486 -0.430465 -8.02747 0
M  V30 685 H 67.4806 0.29125 -0.61004 0
M  V30 686 H 70.0346 0.254915 -2.03812 0
M  V30 687 H 68.2646 2.70422 -2.76422 0
M  V30 688 H 69.9536 2.55362 -3.15508 0
M  V30 689 H 70.7196 0.69324 -4.8002 0
M  V30 690 H 66.5986 1.78854 -4.24891 0
M  V30 691 H 70.1426 -0.33871 -6.96777 0
M  V30 692 H 66.0396 0.762663 -6.40979 0
M  V30 693 H 66.8076 -0.323818 -8.17859 0
M  V30 694 N 69.4707 1.49531 0.497807 0
M  V30 695 C 70.4207 1.62829 1.59596 0
M  V30 696 C 71.4047 0.483824 1.53453 0
M  V30 697 O 72.5967 0.736937 1.60929 0
M  V30 698 C 69.7257 1.7011 2.98191 0
M  V30 699 C 68.8117 2.90144 3.09317 0
M  V30 700 N 69.2027 4.1418 2.90324 0
M  V30 701 C 67.5007 2.88148 3.40422 0
M  V30 702 C 68.2017 4.94886 3.05717 0
M  V30 703 N 67.1777 4.28314 3.34736 0
M  V30 704 H 70.9797 2.56446 1.4357 0
M  V30 705 H 68.4937 1.46347 0.704001 0
M  V30 706 H 70.4907 1.77735 3.77115 0
M  V30 707 H 69.1507 0.776315 3.15283 0
M  V30 708 H 70.1617 4.44109 2.66436 0
M  V30 709 H 66.8387 2.05061 3.63671 0
M  V30 710 H 68.2287 6.03432 2.95499 0
M  V30 711 N 70.9488 -0.749086 1.3866 0
M  V30 712 C 72.1958 -1.50833 1.35114 0
M  V30 713 C 72.5238 -1.94415 -0.0574049 0
M  V30 714 O 71.7788 -1.66065 -1.03541 0
M  V30 715 C 72.0778 -2.7712 2.25697 0
M  V30 716 C 71.7438 -2.52477 3.73585 0
M  V30 717 C 70.4058 -2.45466 4.13884 0
M  V30 718 C 72.7578 -2.31066 4.67181 0
M  V30 719 C 70.0858 -2.15064 5.45861 0
M  V30 720 C 72.4378 -2.02183 5.9942 0
M  V30 721 C 71.1018 -1.93631 6.38798 0
M  V30 722 H 70.3718 -0.551936 0.494416 0
M  V30 723 H 73.0188 -0.860979 1.71054 0
M  V30 724 H 71.3238 -3.46528 1.82827 0
M  V30 725 H 73.0208 -3.35096 2.20254 0
M  V30 726 H 69.6108 -2.58807 3.41638 0
M  V30 727 H 73.7948 -2.35459 4.3689 0
M  V30 728 H 69.0508 -2.06954 5.75308 0
M  V30 729 H 73.2248 -1.8462 6.71482 0
M  V30 730 H 70.8518 -1.69839 7.40985 0
M  V30 731 N 72.4269 -1.23603 -0.977757 0
M  V30 732 C 73.6549 -1.09646 -1.75458 0
M  V30 733 C 74.0699 0.351859 -1.85492 0
M  V30 734 O 73.4269 1.24327 -1.336 0
M  V30 735 C 73.4779 -1.71895 -3.18016 0
M  V30 736 O 73.1989 -3.11063 -3.08498 0
M  V30 737 C 74.6999 -1.63415 -4.12081 0
M  V30 738 H 71.9199 -0.38359 -0.550545 0
M  V30 739 H 74.4639 -1.63507 -1.22824 0
M  V30 740 H 72.6189 -1.22061 -3.67668 0
M  V30 741 H 73.0329 -3.41305 -3.9826 0
M  V30 742 H 74.5069 -2.11669 -5.09804 0
M  V30 743 H 74.9839 -0.593462 -4.35172 0
M  V30 744 H 75.5899 -2.12628 -3.68334 0
M  V30 745 N 73.905 1.17692 -1.04816 0
M  V30 746 C 75.153 1.87488 -0.754497 0
M  V30 747 C 75.474 1.81205 0.720407 0
M  V30 748 O 74.744 1.23544 1.52032 0
M  V30 749 H 73.324 0.694101 -0.276102 0
M  V30 750 H 75.986 1.42793 -1.32651 0
M  V30 751 H 75.082 2.93328 -1.06606 0
M  V30 752 N 75.3831 0.828654 1.34056 0
M  V30 753 C 76.6311 0.41863 1.97717 0
M  V30 754 C 76.9521 -1.02314 1.66002 0
M  V30 755 O 76.2221 -1.71119 0.953683 0
M  V30 756 H 74.8021 0.151809 0.731412 0
M  V30 757 H 77.4641 1.05936 1.63596 0
M  V30 758 H 76.5601 0.542318 3.07352 0
M  V30 759 N 76.8612 -1.46375 0.584142 0
M  V30 760 C 78.2722 -1.86031 0.157959 0
M  V30 761 C 78.6232 -1.48753 -1.27933 0
M  V30 762 O 77.7482 -0.903098 -1.96655 0
M  V30 763 C 78.3432 -3.37642 0.279892 0
M  V30 764 C 76.9022 -3.76289 -0.09143 0
M  V30 765 C 76.0492 -2.7039 0.615178 0
M  V30 766 H 79.0002 -1.37509 0.792274 0
M  V30 767 H 79.0212 -3.77275 -0.494364 0
M  V30 768 H 78.5332 -3.64742 1.32607 0
M  V30 769 H 76.6342 -3.54806 -1.13769 0
M  V30 770 H 76.7472 -4.78246 0.285886 0
M  V30 771 H 75.1112 -2.5464 0.0552833 0
M  V30 772 H 75.8942 -3.0033 1.66303 0
M  V30 773 N 78.3393 -0.321999 -1.54275 0
M  V30 774 C 79.5793 0.281657 -2.0245 0
M  V30 775 C 79.9433 1.49468 -1.20513 0
M  V30 776 O 81.1443 2.17109 -1.58484 0
M  V30 777 C 79.4153 0.609014 -3.52173 0
M  V30 778 S 80.9743 1.19255 -4.22284 0
M  V30 779 H 77.7923 0.0852825 -0.705867 0
M  V30 780 H 80.3943 -0.454758 -1.90137 0
M  V30 781 H 79.0983 -0.281982 -4.0943 0
M  V30 782 H 78.6293 1.37567 -3.68563 0
M  V30 783 H 80.6443 2.47944 -4.29812 0
M  V30 784 N 79.8174 1.5752 -0.0501392 0
M  V30 785 C 80.7804 2.1037 0.909786 0
M  V30 786 C 81.7804 1.02308 1.24056 0
M  V30 787 O 82.9704 1.28385 1.17741 0
M  V30 788 C 80.1024 2.58708 2.21998 0
M  V30 789 H 81.2954 2.96479 0.451665 0
M  V30 790 H 78.8484 1.55038 0.198248 0
M  V30 791 H 79.5834 1.75989 2.72394 0
M  V30 792 H 79.3684 3.37675 1.99295 0
M  V30 793 H 80.8584 2.99747 2.9076 0
M  V30 794 N 81.2955 -0.223234 1.56011 0
M  V30 795 C 82.2055 -1.29766 1.95443 0
M  V30 796 C 83.2215 -1.51373 0.858028 0
M  V30 797 O 84.3975 -1.64536 1.16146 0
M  V30 798 C 81.4625 -2.62772 2.26167 0
M  V30 799 C 80.5235 -2.49482 3.49367 0
M  V30 800 C 79.7565 -3.76145 3.78616 0
M  V30 801 O 79.9795 -4.79087 3.09568 0
M  V30 802 O 78.9135 -3.73358 4.72109 0
M  V30 803 H 82.7395 -0.99309 2.87004 0
M  V30 804 H 80.3245 -0.425958 1.43199 0
M  V30 805 H 82.2065 -3.41327 2.47131 0
M  V30 806 H 80.8815 -2.92913 1.37781 0
M  V30 807 H 79.7885 -1.69133 3.33684 0
M  V30 808 H 81.1215 -2.2428 4.38131 0
M  V30 809 N 82.7736 -1.49793 -0.48987 0
M  V30 810 C 83.7036 -1.70201 -1.59856 0
M  V30 811 C 84.6846 -0.55076 -1.60937 0
M  V30 812 O 85.8696 -0.787841 -1.77501 0
M  V30 813 C 82.9996 -1.77882 -2.98287 0
M  V30 814 C 81.9536 -2.92907 -3.12073 0
M  V30 815 C 81.2796 -2.85712 -4.51965 0
M  V30 816 C 82.5796 -4.3369 -2.91051 0
M  V30 817 H 84.2736 -2.63025 -1.43032 0
M  V30 818 H 81.8196 -1.26574 -0.686664 0
M  V30 819 H 83.7726 -1.90744 -3.75759 0
M  V30 820 H 82.4966 -0.816653 -3.16225 0
M  V30 821 H 81.1556 -2.79665 -2.37029 0
M  V30 822 H 80.8036 -1.8738 -4.66795 0
M  V30 823 H 80.5036 -3.62921 -4.62128 0
M  V30 824 H 82.0276 -3.00598 -5.31482 0
M  V30 825 H 83.4416 -4.47555 -3.58284 0
M  V30 826 H 81.8386 -5.12205 -3.12675 0
M  V30 827 H 82.9086 -4.47362 -1.87071 0
M  V30 828 N 84.2517 0.741722 -1.39055 0
M  V30 829 C 85.4977 1.50336 -1.36113 0
M  V30 830 C 85.8307 1.94148 0.0450796 0
M  V30 831 O 85.1057 1.66301 1.00868 0
M  V30 832 C 85.3887 2.74773 -2.32749 0
M  V30 833 C 85.2417 2.37023 -3.82283 0
M  V30 834 C 86.5607 3.76846 -2.27322 0
M  V30 835 H 83.6797 0.545351 -0.495743 0
M  V30 836 H 86.3217 0.848624 -1.69995 0
M  V30 837 H 84.4717 3.30639 -2.03986 0
M  V30 838 H 86.1437 1.8684 -4.21768 0
M  V30 839 H 84.3867 1.69334 -3.99385 0
M  V30 840 H 85.0577 3.26104 -4.45376 0
M  V30 841 H 87.5337 3.30548 -2.5274 0
M  V30 842 H 86.4097 4.6159 -2.97028 0
M  V30 843 H 86.6707 4.23286 -1.27599 0
M  V30 844 N 85.7298 1.2412 0.971189 0
M  V30 845 C 86.9758 1.08041 1.71625 0
M  V30 846 C 87.3088 -0.380407 1.90438 0
M  V30 847 O 86.5838 -1.28127 1.46334 0
M  V30 848 C 86.8668 1.81682 3.10908 0
M  V30 849 C 86.7198 3.35493 2.99608 0
M  V30 850 C 88.0388 1.58671 4.10501 0
M  V30 851 H 85.1578 0.39388 0.622919 0
M  V30 852 H 87.7998 1.52743 1.13003 0
M  V30 853 H 85.9498 1.43684 3.60953 0
M  V30 854 H 87.6218 3.83068 2.57015 0
M  V30 855 H 85.8648 3.64052 2.35899 0
M  V30 856 H 86.5358 3.82217 3.98264 0
M  V30 857 H 89.0118 1.91719 3.69301 0
M  V30 858 H 87.8878 2.1266 5.06031 0
M  V30 859 H 88.1488 0.524161 4.38982 0
M  V30 860 N 87.2079 -1.17134 1.05439 0
M  V30 861 C 88.1379 -2.2342 0.678649 0
M  V30 862 C 89.1189 -1.66971 -0.32476 0
M  V30 863 O 90.3039 -1.93149 -0.201802 0
M  V30 864 C 87.4339 -3.47256 0.0552099 0
M  V30 865 C 86.3879 -4.16543 0.98365 0
M  V30 866 C 85.7139 -5.34231 0.223961 0
M  V30 867 C 87.0139 -4.68495 2.3089 0
M  V30 868 H 88.7079 -2.55105 1.56722 0
M  V30 869 H 86.2539 -1.2262 0.754998 0
M  V30 870 H 88.2069 -4.20828 -0.21946 0
M  V30 871 H 86.9309 -3.14846 -0.868319 0
M  V30 872 H 85.5899 -3.44887 1.24293 0
M  V30 873 H 85.2379 -4.98071 -0.702412 0
M  V30 874 H 84.9379 -5.81527 0.842627 0
M  V30 875 H 86.4619 -6.10585 -0.0433671 0
M  V30 876 H 87.8759 -5.33691 2.09396 0
M  V30 877 H 86.2729 -5.26379 2.88176 0
M  V30 878 H 87.3429 -3.85169 2.94572 0
M  V30 879 N 88.686 -0.835752 -1.33615 0
M  V30 880 C 89.934 -0.429109 -1.97492 0
M  V30 881 C 90.255 1.01433 -1.66543 0
M  V30 882 O 89.525 1.70611 -0.962744 0
M  V30 883 H 88.105 -0.155686 -0.730596 0
M  V30 884 H 90.767 -1.06802 -1.63031 0
M  V30 885 H 89.863 -0.55861 -3.0706 0
M  V30 886 N 90.1641 1.46063 -0.591896 0
M  V30 887 C 91.3921 2.06717 -0.0868936 0
M  V30 888 C 91.8071 1.43916 1.22203 0
M  V30 889 O 91.1641 0.547698 1.74088 0
M  V30 890 C 91.2151 3.6142 0.0758725 0
M  V30 891 O 90.9361 4.21874 -1.18126 0
M  V30 892 C 92.4371 4.39025 0.61416 0
M  V30 893 H 89.6571 0.668162 -0.0616518 0
M  V30 894 H 92.2011 1.8755 -0.815175 0
M  V30 895 H 90.3561 3.79983 0.754413 0
M  V30 896 H 90.7701 5.14861 -1.00092 0
M  V30 897 H 92.2441 5.4783 0.677193 0
M  V30 898 H 92.7211 4.07708 1.63312 0
M  V30 899 H 93.3271 4.2529 -0.0298142 0
M  V30 900 N 91.6422 0.330177 1.54103 0
M  V30 901 C 92.6052 -0.520144 2.2322 0
M  V30 902 C 93.6052 -1.03828 1.22786 0
M  V30 903 O 94.7952 -0.929652 1.4732 0
M  V30 904 C 91.9272 -1.72317 2.94142 0
M  V30 905 H 93.1202 0.0841605 2.99782 0
M  V30 906 H 90.6732 0.0813433 1.56088 0
M  V30 907 H 91.4082 -2.36653 2.21734 0
M  V30 908 H 91.1932 -1.35898 3.67796 0
M  V30 909 H 92.6832 -2.3266 3.46784 0
M  V30 910 N 93.1203 -1.57491 0.0584922 0
M  V30 911 C 94.0833 -2.1085 -0.898617 0
M  V30 912 C 95.0833 -1.02964 -1.23511 0
M  V30 913 O 96.2733 -1.29007 -1.17059 0
M  V30 914 C 93.4053 -2.59881 -2.20623 0
M  V30 915 H 94.5983 -2.96715 -0.435936 0
M  V30 916 H 92.1513 -1.55141 -0.190023 0
M  V30 917 H 92.8863 -1.77431 -2.71457 0
M  V30 918 H 92.6713 -3.38727 -1.97501 0
M  V30 919 H 94.1613 -3.01285 -2.89166 0
M  V30 920 N 94.5984 0.214957 -1.56127 0
M  V30 921 C 95.5614 1.24997 -1.92116 0
M  V30 922 C 96.5614 1.39467 -0.800344 0
M  V30 923 O 97.7514 1.37619 -1.06802 0
M  V30 924 C 94.8834 2.62271 -2.17777 0
M  V30 925 H 96.0764 0.942875 -2.84693 0
M  V30 926 H 93.6294 0.455654 -1.49511 0
M  V30 927 H 94.3644 2.98068 -1.27773 0
M  V30 928 H 94.1494 2.53143 -2.99434 0
M  V30 929 H 95.6394 3.36946 -2.46693 0
M  V30 930 N 96.0765 1.50051 0.48192 0
M  V30 931 C 97.0395 1.67584 1.5636 0
M  V30 932 C 98.0395 0.546894 1.51214 0
M  V30 933 O 99.2295 0.813725 1.54026 0
M  V30 934 C 96.3615 1.691 2.96003 0
M  V30 935 H 97.5545 2.64078 1.42136 0
M  V30 936 H 95.1075 1.39369 0.707533 0
M  V30 937 H 95.8425 0.742589 3.15684 0
M  V30 938 H 95.6275 2.51105 3.01146 0
M  V30 939 H 97.1175 1.84656 3.74556 0
M  V30 940 N 97.5546 -0.734337 1.39446 0
M  V30 941 C 98.5176 -1.83004 1.37994 0
M  V30 942 C 99.5176 -1.58397 0.276938 0
M  V30 943 O 100.708 -1.65785 0.534875 0
M  V30 944 C 97.8396 -3.20802 1.1532 0
M  V30 945 H 99.0326 -1.85694 2.35494 0
M  V30 946 H 96.5856 -0.938059 1.25021 0
M  V30 947 H 97.3206 -3.23772 0.185036 0
M  V30 948 H 97.1056 -3.4006 1.95197 0
M  V30 949 H 98.5956 -4.00862 1.17046 0
M  V30 950 N 99.0327 -1.24633 -0.964593 0
M  V30 951 C 99.9957 -1.0424 -2.04124 0
M  V30 952 C 100.996 0.00137563 -1.608 0
M  V30 953 O 102.186 -0.239883 -1.7254 0
M  V30 954 C 99.3177 -0.580588 -3.3592 0
M  V30 955 H 100.511 -1.99803 -2.23649 0
M  V30 956 H 98.0637 -1.06899 -1.14027 0
M  V30 957 H 98.7987 0.3781 -3.22088 0
M  V30 958 H 98.5837 -1.33398 -3.6871 0
M  V30 959 H 100.074 -0.459034 -4.15069 0
M  V30 960 N 100.511 1.16574 -1.06058 0
M  V30 961 C 101.759 1.86677 -0.77434 0
M  V30 962 C 102.08 1.81959 0.701147 0
M  V30 963 O 101.35 1.2515 1.50713 0
M  V30 964 H 99.9298 0.691134 -0.283449 0
M  V30 965 H 102.592 1.41378 -1.34158 0
M  V30 966 H 101.688 2.92181 -1.09711 0
M  V30 967 N 101.989 0.842826 1.3317 0
M  V30 968 C 102.937 0.267495 2.31057 0
M  V30 969 C 103.931 -0.602682 1.58316 0
M  V30 970 O 105.137 -0.491803 1.73151 0
M  V30 971 H 101.512 0.0677813 0.748939 0
M  V30 972 H 103.483 1.10754 2.77085 0
M  V30 973 C 102.232 -0.539331 3.43492 0
M  V30 974 H 101.555 0.12095 3.99617 0
M  V30 975 H 102.995 -0.90767 4.14171 0
M  V30 976 C 101.454 -1.71981 2.89697 0
M  V30 977 O 101.984 -2.81862 2.86211 0
M  V30 978 N 100.19 -1.54299 2.46252 0
M  V30 979 H 99.7369 -0.649143 2.49287 0
M  V30 980 H 99.6949 -2.33431 2.10612 0
M  V30 981 N 103.467 -1.45747 0.599634 0
M  V30 982 C 104.397 -2.33235 -0.111306 0
M  V30 983 C 105.378 -1.46359 -0.866781 0
M  V30 984 O 106.563 -1.75146 -0.838904 0
M  V30 985 C 103.693 -3.28932 -1.11451 0
M  V30 986 C 102.647 -4.25381 -0.472772 0
M  V30 987 C 101.973 -5.1071 -1.58365 0
M  V30 988 C 103.273 -5.18831 0.600948 0
M  V30 989 H 104.967 -2.92927 0.61919 0
M  V30 990 H 102.513 -1.40857 0.299215 0
M  V30 991 H 104.466 -3.89002 -1.62036 0
M  V30 992 H 103.19 -2.67381 -1.8755 0
M  V30 993 H 101.849 -3.66598 0.0121472 0
M  V30 994 H 101.497 -4.45533 -2.33473 0
M  V30 995 H 101.197 -5.7604 -1.15982 0
M  V30 996 H 102.721 -5.73647 -2.09194 0
M  V30 997 H 104.135 -5.73019 0.179491 0
M  V30 998 H 102.532 -5.92595 0.946076 0
M  V30 999 H 103.602 -4.6174 1.48068 0
M  V30 1000 N 104.945 -0.338344 -1.53925 0
M  V30 1001 C 106.173 0.261298 -2.05243 0
M  V30 1002 C 106.588 1.44625 -1.21363 0
M  V30 1003 O 105.945 1.80811 -0.247736 0
M  V30 1004 C 105.996 0.681412 -3.5502 0
M  V30 1005 O 105.717 -0.456414 -4.35716 0
M  V30 1006 C 107.218 1.34232 -4.22489 0
M  V30 1007 H 104.438 0.0513685 -0.669031 0
M  V30 1008 H 106.982 -0.488822 -1.98572 0
M  V30 1009 H 105.137 1.38148 -3.61931 0
M  V30 1010 H 105.551 -0.122564 -5.24357 0
M  V30 1011 H 107.025 1.58708 -5.28693 0
M  V30 1012 H 107.502 2.29426 -3.74514 0
M  V30 1013 H 108.108 0.684424 -4.19757 0
M  V30 1014 N 106.423 1.57458 -0.0668435 0
M  V30 1015 C 107.663 1.95175 0.607116 0
M  V30 1016 C 108.027 0.946039 1.67075 0
M  V30 1017 O 109.228 1.2107 2.39991 0
M  V30 1018 C 107.499 3.37582 1.17358 0
M  V30 1019 S 109.058 3.97271 1.86336 0
M  V30 1020 H 105.876 0.682604 0.19893 0
M  V30 1021 H 108.478 1.95002 -0.139519 0
M  V30 1022 H 107.182 4.08566 0.387553 0
M  V30 1023 H 106.713 3.41288 1.95669 0
M  V30 1024 H 108.728 3.83772 3.14537 0
M  V30 1025 N 107.901 -0.206675 1.56239 0
M  V30 1026 C 109.15 -0.926964 1.79138 0
M  V30 1027 C 109.463 -1.84901 0.638043 0
M  V30 1028 O 110.669 -2.60906 0.751033 0
M  V30 1029 C 109.125 -1.6986 3.17294 0
M  V30 1030 C 108.733 -0.821956 4.40395 0
M  V30 1031 C 110.477 -2.40922 3.4951 0
M  V30 1032 C 108.384 -1.59179 5.69575 0
M  V30 1033 H 107.314 -0.349864 0.667915 0
M  V30 1034 H 109.965 -0.180487 1.8261 0
M  V30 1035 H 108.347 -2.48853 3.08039 0
M  V30 1036 H 109.521 -0.0715019 4.60745 0
M  V30 1037 H 107.836 -0.222741 4.15804 0
M  V30 1038 H 110.433 -2.99047 4.43255 0
M  V30 1039 H 110.776 -3.14542 2.72707 0
M  V30 1040 H 111.309 -1.68905 3.60161 0
M  V30 1041 H 108.048 -0.898589 6.49312 0
M  V30 1042 H 107.568 -2.31648 5.53262 0
M  V30 1043 H 109.247 -2.14862 6.10281 0
M  V30 1044 N 109.379 -1.50304 -0.473955 0
M  V30 1045 C 110.625 -1.61389 -1.22806 0
M  V30 1046 C 110.958 -0.311955 -1.91678 0
M  V30 1047 O 110.233 0.686384 -1.81986 0
M  V30 1048 C 110.516 -2.79219 -2.27396 0
M  V30 1049 C 110.369 -4.19286 -1.62848 0
M  V30 1050 C 111.688 -2.92614 -3.28732 0
M  V30 1051 H 108.807 -0.587399 -0.445119 0
M  V30 1052 H 111.449 -1.82681 -0.522265 0
M  V30 1053 H 109.599 -2.61195 -2.87592 0
M  V30 1054 H 111.271 -4.48892 -1.06271 0
M  V30 1055 H 109.514 -4.23677 -0.931693 0
M  V30 1056 H 110.185 -4.97655 -2.38838 0
M  V30 1057 H 112.661 -3.09105 -2.78556 0
M  V30 1058 H 111.537 -3.76688 -3.99246 0
M  V30 1059 H 111.798 -2.03107 -3.92683 0
M  V30 1060 N 110.857 0.726932 -1.39834 0
M  V30 1061 C 111.82 1.82269 -1.38962 0
M  V30 1062 C 112.82 1.58248 -0.285334 0
M  V30 1063 O 114.01 1.65499 -0.54366 0
M  V30 1064 C 111.142 3.20186 -1.17019 0
M  V30 1065 H 112.335 1.84443 -2.36476 0
M  V30 1066 H 109.888 0.931416 -1.25516 0
M  V30 1067 H 110.623 3.23669 -0.202204 0
M  V30 1068 H 110.408 3.3902 -1.96998 0
M  V30 1069 H 111.898 4.00235 -1.1917 0
M  V30 1070 N 112.336 1.25143 0.95797 0
M  V30 1071 C 113.585 1.0909 1.69654 0
M  V30 1072 C 113.898 -0.368548 1.92097 0
M  V30 1073 O 115.104 -0.649455 2.63618 0
M  V30 1074 C 113.56 1.90395 3.05414 0
M  V30 1075 C 113.168 3.4081 2.90779 0
M  V30 1076 C 114.912 1.82901 3.83076 0
M  V30 1077 C 112.819 4.14423 4.21909 0
M  V30 1078 H 111.749 0.404625 0.636235 0
M  V30 1079 H 114.4 1.4931 1.06672 0
M  V30 1080 H 112.782 1.42996 3.69281 0
M  V30 1081 H 113.956 3.95859 2.35865 0
M  V30 1082 H 112.271 3.49361 2.26575 0
M  V30 1083 H 114.868 2.35196 4.80195 0
M  V30 1084 H 115.211 0.796224 4.08615 0
M  V30 1085 H 115.744 2.28033 3.25954 0
M  V30 1086 H 112.483 5.18102 4.01561 0
M  V30 1087 H 112.003 3.64159 4.76601 0
M  V30 1088 H 113.682 4.21956 4.90471 0
M  V30 1089 N 113.814 -1.1601 1.06675 0
M  V30 1090 C 115.062 -1.86264 0.784229 0
M  V30 1091 C 115.383 -1.82328 -0.691488 0
M  V30 1092 O 114.653 -1.25947 -1.50047 0
M  V30 1093 H 113.233 -0.689621 0.28711 0
M  V30 1094 H 115.895 -1.40664 1.34906 0
M  V30 1095 H 114.991 -2.91595 1.11259 0
M  V30 1096 N 115.292 -0.849877 -1.32721 0
M  V30 1097 C 116.24 -0.279745 -2.30912 0
M  V30 1098 C 117.234 0.594278 -1.58634 0
M  V30 1099 O 118.44 0.482613 -1.73409 0
M  V30 1100 H 114.815 -0.0717521 -0.748569 0
M  V30 1101 H 116.786 -1.12222 -2.76494 0
M  V30 1102 C 115.535 0.521108 -3.43773 0
M  V30 1103 H 114.858 -0.142141 -3.99547 0
M  V30 1104 H 116.298 0.885693 -4.14646 0
M  V30 1105 C 114.757 1.70442 -2.90605 0
M  V30 1106 O 115.287 2.8034 -2.87702 0
M  V30 1107 N 113.493 1.52991 -2.47067 0
M  V30 1108 H 113.04 0.635914 -2.49628 0
M  V30 1109 H 112.998 2.32311 -2.11847 0
M  V30 1110 N 116.77 1.45427 -0.607355 0
M  V30 1111 C 117.68 2.34325 0.113463 0
M  V30 1112 C 118.696 1.51226 0.860617 0
M  V30 1113 O 119.872 1.84029 0.818255 0
M  V30 1114 C 116.937 3.28839 1.09844 0
M  V30 1115 C 115.998 4.27844 0.353271 0
M  V30 1116 C 115.231 5.17842 1.29133 0
M  V30 1117 O 115.454 5.11264 2.52913 0
M  V30 1118 O 114.388 5.96713 0.788523 0
M  V30 1119 H 118.214 2.97364 -0.617094 0
M  V30 1120 H 115.799 1.44807 -0.367619 0
M  V30 1121 H 117.681 3.8708 1.66575 0
M  V30 1122 H 116.356 2.68365 1.81003 0
M  V30 1123 H 115.263 3.7322 -0.256494 0
M  V30 1124 H 116.596 4.91173 -0.317822 0
M  V30 1125 N 118.248 0.346503 1.53744 0
M  V30 1126 C 119.196 -0.52422 2.26616 0
M  V30 1127 C 120.19 -1.09948 1.28871 0
M  V30 1128 O 121.396 -1.04488 1.46568 0
M  V30 1129 H 117.771 -0.187743 0.728187 0
M  V30 1130 H 119.742 0.11239 2.98188 0
M  V30 1131 C 118.491 -1.66186 3.05414 0
M  V30 1132 H 117.814 -1.22848 3.80458 0
M  V30 1133 H 119.254 -2.24622 3.59612 0
M  V30 1134 C 117.713 -2.59302 2.1509 0
M  V30 1135 O 118.243 -3.61628 1.74895 0
M  V30 1136 N 116.449 -2.28055 1.8011 0
M  V30 1137 H 115.996 -1.44883 2.12994 0
M  V30 1138 H 115.954 -2.90615 1.19958 0
M  V30 1139 N 119.726 -1.57421 0.075193 0
M  V30 1140 C 121.142 -1.57099 -0.281444 0
M  V30 1141 C 121.342 -1.08486 -1.69803 0
M  V30 1142 O 120.398 -0.752279 -2.41033 0
M  V30 1143 C 121.711 -3.00571 -0.0880041 0
M  V30 1144 C 123.259 -3.12605 -0.157281 0
M  V30 1145 C 123.734 -4.57999 0.0079207 0
M  V30 1146 N 125.225 -4.63176 -0.0475725 0
M  V30 1147 C 125.96 -5.73373 0.0557876 0
M  V30 1148 N 125.456 -6.92473 0.21286 0
M  V30 1149 N 127.249 -5.621 -0.00152098 0
M  V30 1150 H 119.4 -1.87335 1.00098 0
M  V30 1151 H 121.663 -0.86377 0.390646 0
M  V30 1152 H 121.369 -3.40262 0.889629 0
M  V30 1153 H 121.243 -3.67754 -0.838875 0
M  V30 1154 H 123.63 -2.72798 -1.1254 0
M  V30 1155 H 123.711 -2.48053 0.62475 0
M  V30 1156 H 123.355 -4.98496 0.972824 0
M  V30 1157 H 123.285 -5.20586 -0.793556 0
M  V30 1158 H 125.776 -3.7753 -0.167244 0
M  V30 1159 H 126.089 -7.72279 0.283781 0
M  V30 1160 H 124.434 -6.94556 0.248267 0
M  V30 1161 H 127.625 -4.67938 -0.122958 0
M  V30 1162 H 127.798 -6.47948 0.0824844 0
M  V30 1163 N 121.204 0.198386 -1.56346 0
M  V30 1164 C 122.452 0.91747 -1.80075 0
M  V30 1165 C 122.773 1.83929 -0.647692 0
M  V30 1166 O 122.043 1.93029 0.334166 0
M  V30 1167 H 120.623 0.341774 -0.664228 0
M  V30 1168 H 123.285 0.204684 -1.93822 0
M  V30 1169 H 122.381 1.51055 -2.7311 0
M  V30 1170 N 122.682 1.50554 0.465978 0
M  V30 1171 C 123.931 1.61038 1.21448 0
M  V30 1172 C 124.244 0.31865 1.92987 0
M  V30 1173 O 125.45 0.302469 2.6981 0
M  V30 1174 C 123.906 2.84283 2.20706 0
M  V30 1175 C 123.514 4.20352 1.54946 0
M  V30 1176 C 125.258 3.04115 2.96166 0
M  V30 1177 C 123.165 5.34778 2.5252 0
M  V30 1178 H 122.095 0.599718 0.457005 0
M  V30 1179 H 124.746 1.7699 0.484424 0
M  V30 1180 H 123.128 2.61901 2.97025 0
M  V30 1181 H 124.302 4.53008 0.843811 0
M  V30 1182 H 122.617 4.06167 0.917475 0
M  V30 1183 H 125.214 3.86774 3.69202 0
M  V30 1184 H 125.557 2.16045 3.55852 0
M  V30 1185 H 126.09 3.26702 2.26959 0
M  V30 1186 H 122.829 6.25018 1.97566 0
M  V30 1187 H 122.349 5.06534 3.21222 0
M  V30 1188 H 124.028 5.65561 3.14245 0
M  V30 1189 N 124.16 -0.719506 1.40217 0
M  V30 1190 C 125.09 -1.8465 1.42922 0
M  V30 1191 C 126.071 -1.67599 0.29062 0
M  V30 1192 O 127.256 -1.87688 0.498677 0
M  V30 1193 C 124.386 -3.22565 1.28722 0
M  V30 1194 C 123.34 -3.54281 2.40144 0
M  V30 1195 C 122.666 -4.91298 2.11023 0
M  V30 1196 C 123.966 -3.55676 3.82481 0
M  V30 1197 H 125.66 -1.82644 2.37237 0
M  V30 1198 H 123.206 -0.877305 1.1419 0
M  V30 1199 H 125.159 -4.01095 1.29232 0
M  V30 1200 H 123.883 -3.25137 0.308811 0
M  V30 1201 H 122.542 -2.78088 2.38877 0
M  V30 1202 H 122.19 -4.90468 1.11582 0
M  V30 1203 H 121.89 -5.13485 2.8567 0
M  V30 1204 H 123.414 -5.72166 2.13209 0
M  V30 1205 H 124.828 -4.24254 3.85592 0
M  V30 1206 H 123.225 -3.89388 4.56614 0
M  V30 1207 H 124.295 -2.55144 4.12346 0
M  V30 1208 N 125.638 -1.25649 -0.95132 0
M  V30 1209 C 126.863 -1.13443 -1.73624 0
M  V30 1210 C 127.288 0.307565 -1.85568 0
M  V30 1211 O 126.646 1.22282 -1.33854 0
M  V30 1212 C 126.694 -1.79723 -3.12621 0
M  V30 1213 O 125.798 -1.07912 -3.98031 0
M  V30 1214 H 125.139 -0.395872 -0.533086 0
M  V30 1215 H 127.669 -1.66276 -1.1922 0
M  V30 1216 H 127.679 -1.86141 -3.63064 0
M  V30 1217 H 126.354 -2.84633 -3.03244 0
M  V30 1218 H 124.931 -1.09398 -3.56492 0
M  V30 1219 N 127.117 1.15442 -1.07289 0
M  V30 1220 C 128.528 1.67803 -0.818475 0
M  V30 1221 C 128.879 1.8489 0.656507 0
M  V30 1222 O 128.004 1.55176 1.50829 0
M  V30 1223 C 128.599 3.04805 -1.47917 0
M  V30 1224 C 127.158 3.54245 -1.27229 0
M  V30 1225 C 126.305 2.29986 -1.54925 0
M  V30 1226 H 129.256 0.996646 -1.23502 0
M  V30 1227 H 129.277 3.69702 -0.90005 0
M  V30 1228 H 128.789 2.92336 -2.55267 0
M  V30 1229 H 126.89 3.71956 -0.21899 0
M  V30 1230 H 127.003 4.35723 -1.99203 0
M  V30 1231 H 125.367 2.35496 -0.970242 0
M  V30 1232 H 126.15 2.20105 -2.63455 0
M  V30 1233 N 128.595 0.856903 1.32268 0
M  V30 1234 C 129.835 0.467705 1.98977 0
M  V30 1235 C 130.199 -0.959231 1.66321 0
M  V30 1236 O 131.4 -1.4531 2.26138 0
M  V30 1237 C 129.671 0.70256 3.50427 0
M  V30 1238 S 131.23 0.411269 4.36868 0
M  V30 1239 H 128.048 0.175121 0.689096 0
M  V30 1240 H 130.65 1.1101 1.60925 0
M  V30 1241 H 129.354 1.74012 3.71683 0
M  V30 1242 H 128.885 0.0466707 3.93372 0
M  V30 1243 H 130.9 -0.761799 4.90317 0
M  V30 1244 N 130.073 -1.45103 0.615059 0
M  V30 1245 C 131.321 -2.01784 0.112955 0
M  V30 1246 C 131.642 -1.48504 -1.26378 0
M  V30 1247 O 130.912 -0.682245 -1.83636 0
M  V30 1248 H 129.492 -0.745993 0.0387668 0
M  V30 1249 H 132.154 -1.77808 0.798141 0
M  V30 1250 H 131.25 -3.12025 0.0684069 0
M  V30 1251 N 131.551 -0.354651 -1.53558 0
M  V30 1252 C 132.967 -0.00315426 -1.596 0
M  V30 1253 C 133.167 1.47741 -1.37021 0
M  V30 1254 O 132.223 2.23759 -1.16996 0
M  V30 1255 C 133.536 -0.44929 -2.97325 0
M  V30 1256 C 135.084 -0.402578 -3.104 0
M  V30 1257 C 135.559 -0.824355 -4.5052 0
M  V30 1258 N 137.05 -0.778979 -4.56603 0
M  V30 1259 C 137.785 -1.07715 -5.63192 0
M  V30 1260 N 137.281 -1.44405 -6.77583 0
M  V30 1261 N 139.074 -1.00066 -5.53121 0
M  V30 1262 H 131.225 -1.31893 -1.66487 0
M  V30 1263 H 133.488 -0.538388 -0.780284 0
M  V30 1264 H 133.194 -1.48202 -3.1895 0
M  V30 1265 H 133.068 0.169772 -3.76818 0
M  V30 1266 H 135.455 0.621004 -2.88492 0
M  V30 1267 H 135.536 -1.05699 -2.32941 0
M  V30 1268 H 135.18 -1.846 -4.73165 0
M  V30 1269 H 135.11 -0.147304 -5.26394 0
M  V30 1270 H 137.601 -0.508528 -3.74463 0
M  V30 1271 H 137.914 -1.65612 -7.54846 0
M  V30 1272 H 136.259 -1.4826 -6.79002 0
M  V30 1273 H 139.45 -0.713293 -4.62633 0
M  V30 1274 H 139.623 -1.23638 -6.36096 0
M  V30 1275 N 133.029 1.57378 -0.0835403 0
M  V30 1276 C 134.269 1.95808 0.586381 0
M  V30 1277 C 134.633 0.963706 1.66062 0
M  V30 1278 O 135.834 1.23608 2.38693 0
M  V30 1279 C 134.105 3.38808 1.13771 0
M  V30 1280 S 135.664 3.99225 1.82112 0
M  V30 1281 H 132.482 0.684675 0.191679 0
M  V30 1282 H 135.084 1.94843 -0.160194 0
M  V30 1283 H 133.788 4.08954 0.344197 0
M  V30 1284 H 133.319 3.43344 1.92038 0
M  V30 1285 H 135.334 3.87087 3.10449 0
M  V30 1286 N 134.507 -0.190092 1.56449 0
M  V30 1287 C 135.923 -0.54113 1.50146 0
M  V30 1288 C 136.123 -1.85603 0.784465 0
M  V30 1289 O 135.179 -2.5024 0.337051 0
M  V30 1290 C 136.492 -0.591241 2.9483 0
M  V30 1291 C 138.04 -0.679732 3.0553 0
M  V30 1292 C 138.515 -0.760908 4.51635 0
M  V30 1293 N 140.006 -0.824302 4.55806 0
M  V30 1294 C 140.741 -0.907365 5.66175 0
M  V30 1295 N 140.237 -0.952422 6.86222 0
M  V30 1296 N 142.03 -0.94494 5.541 0
M  V30 1297 H 134.181 0.67235 2.01478 0
M  V30 1298 H 136.444 0.240127 0.917084 0
M  V30 1299 H 136.15 0.305905 3.50367 0
M  V30 1300 H 136.024 -1.44422 3.48457 0
M  V30 1301 H 138.411 -1.56731 2.50039 0
M  V30 1302 H 138.492 0.199549 2.5502 0
M  V30 1303 H 138.136 0.122336 5.07753 0
M  V30 1304 H 138.066 -1.65606 4.99882 0
M  V30 1305 H 140.557 -0.798526 3.69367 0
M  V30 1306 H 140.87 -1.01645 7.66086 0
M  V30 1307 H 139.215 -0.921014 6.8887 0
M  V30 1308 H 142.406 -0.906612 4.59236 0
M  V30 1309 H 142.579 -1.00622 6.4014 0
M  V30 1310 N 135.985 -1.50799 -0.457987 0
M  V30 1311 C 136.917 -1.66786 -1.57211 0
M  V30 1312 C 137.93 -0.548962 -1.53265 0
M  V30 1313 O 139.119 -0.8226 -1.58416 0
M  V30 1314 C 136.219 -1.64834 -2.96113 0
M  V30 1315 C 135.392 -2.92971 -3.24787 0
M  V30 1316 C 134.451 -2.83485 -4.43309 0
M  V30 1317 O 133.477 -3.5744 -4.42973 0
M  V30 1318 N 134.679 -1.97929 -5.45714 0
M  V30 1319 H 137.444 -2.62889 -1.43909 0
M  V30 1320 H 135.005 -1.48427 -0.646617 0
M  V30 1321 H 136.997 -1.56084 -3.7339 0
M  V30 1322 H 135.567 -0.764118 -3.03117 0
M  V30 1323 H 134.787 -3.15749 -2.36 0
M  V30 1324 H 136.075 -3.77834 -3.40762 0
M  V30 1325 H 135.473 -1.37182 -5.48815 0
M  V30 1326 H 134.03 -1.95073 -6.21924 0
M  V30 1327 N 137.463 0.71206 -1.40597 0
M  V30 1328 C 138.709 1.47416 -1.39271 0
M  V30 1329 C 139.042 1.942 0.00388791 0
M  V30 1330 O 138.317 1.68403 0.973179 0
M  V30 1331 C 138.6 2.69774 -2.38525 0
M  V30 1332 C 138.453 2.28861 -3.87224 0
M  V30 1333 C 139.772 3.71939 -2.35264 0
M  V30 1334 H 136.891 0.534713 -0.5072 0
M  V30 1335 H 139.533 0.812375 -1.71757 0
M  V30 1336 H 137.683 3.26238 -2.10953 0
M  V30 1337 H 139.355 1.77852 -4.25636 0
M  V30 1338 H 137.598 1.60824 -4.02887 0
M  V30 1339 H 138.269 3.16584 -4.52193 0
M  V30 1340 H 140.745 3.25113 -2.59694 0
M  V30 1341 H 139.621 4.55186 -3.06753 0
M  V30 1342 H 139.882 4.20484 -1.36549 0
M  V30 1343 N 138.941 1.26152 0.944643 0
M  V30 1344 C 139.871 1.09902 2.06019 0
M  V30 1345 C 140.852 0.00519538 1.70099 0
M  V30 1346 O 142.037 0.176583 1.93396 0
M  V30 1347 C 139.167 0.727562 3.39594 0
M  V30 1348 C 138.121 1.77274 3.89561 0
M  V30 1349 C 137.447 1.25569 5.19747 0
M  V30 1350 C 138.747 3.17357 4.14827 0
M  V30 1351 H 140.441 2.03217 2.19871 0
M  V30 1352 H 137.987 0.978452 1.05652 0
M  V30 1353 H 139.94 0.600777 4.17095 0
M  V30 1354 H 138.664 -0.241287 3.25707 0
M  V30 1355 H 137.323 1.88814 3.14237 0
M  V30 1356 H 136.971 0.276783 5.02238 0
M  V30 1357 H 136.671 1.95433 5.54148 0
M  V30 1358 H 138.195 1.1415 5.99835 0
M  V30 1359 H 139.609 3.08914 4.82954 0
M  V30 1360 H 138.006 3.84781 4.60504 0
M  V30 1361 H 139.076 3.63673 3.20734 0
M  V30 1362 N 140.419 -1.14872 1.07899 0
M  V30 1363 C 141.349 -2.2193 0.725887 0
M  V30 1364 C 142.33 -1.67622 -0.28927 0
M  V30 1365 O 143.515 -1.93533 -0.160787 0
M  V30 1366 C 140.645 -3.47061 0.128856 0
M  V30 1367 C 139.599 -4.14363 1.07178 0
M  V30 1368 C 138.925 -5.33636 0.337229 0
M  V30 1369 C 140.225 -4.63492 2.40775 0
M  V30 1370 H 141.919 -2.51724 1.62097 0
M  V30 1371 H 139.465 -1.20991 0.780838 0
M  V30 1372 H 141.418 -4.21199 -0.130147 0
M  V30 1373 H 140.142 -3.16617 -0.80134 0
M  V30 1374 H 138.801 -3.42173 1.3158 0
M  V30 1375 H 138.449 -4.99449 -0.596606 0
M  V30 1376 H 138.149 -5.79609 0.965788 0
M  V30 1377 H 139.673 -6.10539 0.0861567 0
M  V30 1378 H 141.087 -5.2913 2.20669 0
M  V30 1379 H 139.484 -5.20148 2.99276 0
M  V30 1380 H 140.554 -3.78834 3.02676 0
M  V30 1381 N 141.898 -0.863906 -1.31812 0
M  V30 1382 C 143.175 -0.39275 -1.91616 0
M  V30 1383 C 143.555 1.12461 -1.7865 0
M  V30 1384 O 142.903 1.95045 -1.19037 0
M  V30 1385 C 143.113 -0.867385 -3.38049 0
M  V30 1386 C 144.461 -0.889966 -4.15168 0
M  V30 1387 O 145.485 -0.812635 -3.46806 0
M  V30 1388 O 144.344 -1.00079 -5.37258 0
M  V30 1389 H 141.438 -0.116358 -0.818773 0
M  V30 1390 H 143.984 -0.951418 -1.40521 0
M  V30 1391 H 142.756 -1.91081 -3.41473 0
M  V30 1392 H 142.379 -0.286687 -3.96565 0
M  V30 1393 N 143.376 1.44774 -0.622745 0
M  V30 1394 C 144.306 2.33382 0.0741861 0
M  V30 1395 C 145.287 1.47719 0.843387 0
M  V30 1396 O 146.472 1.76458 0.810934 0
M  V30 1397 C 143.602 3.30663 1.06204 0
M  V30 1398 C 142.556 4.26079 0.405037 0
M  V30 1399 C 141.882 5.13165 1.5022 0
M  V30 1400 C 143.182 5.1781 -0.683414 0
M  V30 1401 H 144.876 2.91905 -0.665713 0
M  V30 1402 H 142.422 1.40363 -0.321587 0
M  V30 1403 H 144.375 3.9153 1.55827 0
M  V30 1404 H 143.099 2.70331 1.83272 0
M  V30 1405 H 141.758 3.66532 -0.0704683 0
M  V30 1406 H 141.406 4.49191 2.26355 0
M  V30 1407 H 141.106 5.77812 1.06803 0
M  V30 1408 H 142.63 5.76902 2.00041 0
M  V30 1409 H 144.044 5.72661 -0.270631 0
M  V30 1410 H 142.441 5.91015 -1.04023 0
M  V30 1411 H 143.511 4.59326 -1.55395 0
M  V30 1412 N 144.854 0.36279 1.53368 0
M  V30 1413 C 145.804 -0.501391 2.22419 0
M  V30 1414 C 146.788 -1.0509 1.2184 0
M  V30 1415 O 147.98 -0.981404 1.47301 0
M  V30 1416 C 145.109 -1.64201 3.01484 0
M  V30 1417 C 144.195 -1.10552 4.09438 0
M  V30 1418 N 144.586 -0.291788 5.04958 0
M  V30 1419 C 142.884 -1.3806 4.24094 0
M  V30 1420 C 143.585 0.00162655 5.817 0
M  V30 1421 N 142.561 -0.595244 5.40331 0
M  V30 1422 H 146.363 0.127159 2.93625 0
M  V30 1423 H 143.877 0.170658 1.61501 0
M  V30 1424 H 145.874 -2.27326 3.49469 0
M  V30 1425 H 144.534 -2.27365 2.31809 0
M  V30 1426 H 145.545 0.0687731 5.17854 0
M  V30 1427 H 142.222 -2.01522 3.65644 0
M  V30 1428 H 143.612 0.659278 6.68658 0
M  V30 1429 N 146.332 -1.57332 0.0918853 0
M  V30 1430 C 147.743 -1.81496 -0.437739 0
M  V30 1431 C 148.094 -1.00727 -1.6837 0
M  V30 1432 O 147.219 -0.235694 -2.15113 0
M  V30 1433 C 147.814 -3.29197 -0.800939 0
M  V30 1434 C 146.373 -3.54136 -1.27532 0
M  V30 1435 C 145.52 -2.75979 -0.270392 0
M  V30 1436 H 148.471 -1.55494 0.317366 0
M  V30 1437 H 148.492 -3.42344 -1.66074 0
M  V30 1438 H 148.004 -3.87955 0.106078 0
M  V30 1439 H 146.105 -3.00705 -2.20016 0
M  V30 1440 H 146.218 -4.62792 -1.23938 0
M  V30 1441 H 144.582 -2.43349 -0.751872 0
M  V30 1442 H 145.365 -3.37484 0.629248 0
M  V30 1443 N 147.81 0.181792 -1.56548 0
M  V30 1444 C 149.058 0.89832 -1.81038 0
M  V30 1445 C 149.379 1.83232 -0.667164 0
M  V30 1446 O 148.649 1.93372 0.313673 0
M  V30 1447 H 147.229 0.33471 -0.667816 0
M  V30 1448 H 149.891 0.184116 -1.94028 0
M  V30 1449 H 148.987 1.4815 -2.74696 0
M  V30 1450 N 149.288 1.51039 0.449983 0
M  V30 1451 C 150.537 1.62317 1.19733 0
M  V30 1452 C 150.85 0.339101 1.92638 0
M  V30 1453 O 152.056 0.331069 2.69474 0
M  V30 1454 C 150.512 2.86608 2.17678 0
M  V30 1455 C 150.12 4.21972 1.50479 0
M  V30 1456 C 151.864 3.07239 2.92924 0
M  V30 1457 C 149.771 5.37426 2.46834 0
M  V30 1458 H 148.701 0.604532 0.450619 0
M  V30 1459 H 151.352 1.77494 0.465625 0
M  V30 1460 H 149.734 2.65037 2.94231 0
M  V30 1461 H 150.908 4.53878 0.795716 0
M  V30 1462 H 149.223 4.07117 0.874344 0
M  V30 1463 H 151.82 3.90668 3.65079 0
M  V30 1464 H 152.163 2.19807 3.5354 0
M  V30 1465 H 152.696 3.29091 2.23481 0
M  V30 1466 H 149.435 6.27079 1.90926 0
M  V30 1467 H 148.955 5.09912 3.15832 0
M  V30 1468 H 150.634 5.68862 3.08228 0
M  V30 1469 N 150.766 -0.704594 1.40972 0
M  V30 1470 C 151.713 -1.81862 1.42109 0
M  V30 1471 C 152.683 -1.63781 0.276593 0
M  V30 1472 O 153.868 -1.84759 0.4763 0
M  V30 1473 C 151.008 -3.19669 1.30022 0
M  V30 1474 C 150.121 -3.49246 2.54267 0
M  V30 1475 C 149.256 -4.76618 2.3454 0
M  V30 1476 C 148.295 -4.99133 3.54306 0
M  V30 1477 N 147.432 -6.17726 3.33706 0
M  V30 1478 H 152.272 -1.80226 2.37324 0
M  V30 1479 H 149.809 -0.880238 1.17857 0
M  V30 1480 H 151.767 -3.99263 1.21018 0
M  V30 1481 H 150.397 -3.20506 0.384192 0
M  V30 1482 H 149.449 -2.64125 2.73756 0
M  V30 1483 H 150.761 -3.61788 3.43381 0
M  V30 1484 H 149.915 -5.64249 2.22952 0
M  V30 1485 H 148.654 -4.66305 1.42867 0
M  V30 1486 H 147.659 -4.09953 3.66359 0
M  V30 1487 H 148.884 -5.11311 4.4692 0
M  V30 1488 H 146.83 -6.08642 2.44725 0
M  V30 1489 H 146.747 -6.30995 4.16391 0
M  V30 1490 H 148.015 -7.08115 3.25873 0
M  V30 1491 N 152.244 -1.26651 -0.937939 0
M  V30 1492 C 153.207 -1.08546 -2.01867 0
M  V30 1493 C 154.207 -0.0327327 -1.60767 0
M  V30 1494 O 155.397 -0.276427 -1.71993 0
M  V30 1495 C 152.529 -0.651711 -3.34613 0
M  V30 1496 H 153.722 -2.04502 -2.1936 0
M  V30 1497 H 151.275 -1.09294 -1.11734 0
M  V30 1498 H 152.01 0.309696 -3.22818 0
M  V30 1499 H 151.795 -1.41189 -3.65798 0
M  V30 1500 H 153.285 -0.546973 -4.14002 0
M  V30 1501 N 153.722 1.14298 -1.08507 0
M  V30 1502 C 154.971 1.84708 -0.810305 0
M  V30 1503 C 155.284 1.83903 0.666271 0
M  V30 1504 O 156.49 2.50112 1.05624 0
M  V30 1505 C 154.946 3.31572 -1.39957 0
M  V30 1506 C 154.554 3.40791 -2.90801 0
M  V30 1507 C 156.298 4.07087 -1.20334 0
M  V30 1508 C 154.205 4.81872 -3.4286 0
M  V30 1509 H 153.135 0.691985 -0.299454 0
M  V30 1510 H 155.786 1.28841 -1.30661 0
M  V30 1511 H 154.168 3.87183 -0.830976 0
M  V30 1512 H 155.342 2.95225 -3.53806 0
M  V30 1513 H 153.657 2.78732 -3.0935 0
M  V30 1514 H 156.254 5.11225 -1.56693 0
M  V30 1515 H 156.597 4.16054 -0.143237 0
M  V30 1516 H 157.13 3.57779 -1.73893 0
M  V30 1517 H 153.869 4.78094 -4.48449 0
M  V30 1518 H 153.389 5.27972 -2.84615 0
M  V30 1519 H 155.068 5.50765 -3.39509 0
M  V30 1520 N 155.201 0.870884 1.31352 0
M  V30 1521 C 156.447 0.482987 1.96965 0
M  V30 1522 C 156.78 -0.962462 1.68672 0
M  V30 1523 O 156.055 -1.6779 0.98371 0
M  V30 1524 C 156.338 0.741752 3.52378 0
M  V30 1525 C 156.191 2.2368 3.9024 0
M  V30 1526 C 157.51 0.208838 4.39604 0
M  V30 1527 H 154.629 0.176955 0.715441 0
M  V30 1528 H 157.271 1.09229 1.55464 0
M  V30 1529 H 155.421 0.223149 3.87859 0
M  V30 1530 H 157.093 2.82273 3.64856 0
M  V30 1531 H 155.336 2.70901 3.38814 0
M  V30 1532 H 156.007 2.3685 4.98604 0
M  V30 1533 H 158.483 0.652529 4.10952 0
M  V30 1534 H 157.359 0.419336 5.47296 0
M  V30 1535 H 157.62 -0.889275 4.33064 0
M  V30 1536 N 156.679 -1.44442 0.630414 0
M  V30 1537 C 157.626 -2.30678 -0.0749355 0
M  V30 1538 C 158.596 -1.4344 -0.837502 0
M  V30 1539 O 159.781 -1.72343 -0.818684 0
M  V30 1540 C 156.921 -3.28706 -1.05103 0
M  V30 1541 C 156.034 -4.31046 -0.286954 0
M  V30 1542 C 155.169 -5.16167 -1.2548 0
M  V30 1543 C 154.208 -6.10216 -0.479843 0
M  V30 1544 N 153.345 -6.88039 -1.39811 0
M  V30 1545 H 158.185 -2.90454 0.666386 0
M  V30 1546 H 155.722 -1.43107 0.340404 0
M  V30 1547 H 157.68 -3.84027 -1.63031 0
M  V30 1548 H 156.31 -2.70632 -1.75949 0
M  V30 1549 H 155.362 -3.78203 0.408243 0
M  V30 1550 H 156.674 -4.97794 0.316657 0
M  V30 1551 H 155.828 -5.76002 -1.90544 0
M  V30 1552 H 154.567 -4.49491 -1.89233 0
M  V30 1553 H 153.572 -5.49491 0.184295 0
M  V30 1554 H 154.797 -6.78928 0.152965 0
M  V30 1555 H 152.743 -6.24032 -2.02287 0
M  V30 1556 H 152.66 -7.51223 -0.848508 0
M  V30 1557 H 153.928 -7.52397 -2.03762 0
M  V30 1558 N 158.157 -0.370918 -1.53173 0
M  V30 1559 C 159.434 0.273754 -1.93675 0
M  V30 1560 C 159.814 1.65938 -1.3049 0
M  V30 1561 O 159.162 2.23698 -0.465999 0
M  V30 1562 C 159.372 0.318602 -3.47543 0
M  V30 1563 C 160.72 0.556392 -4.20939 0
M  V30 1564 O 161.744 0.399587 -3.53952 0
M  V30 1565 O 160.603 0.862133 -5.39657 0
M  V30 1566 H 157.697 0.165448 -0.810281 0
M  V30 1567 H 160.243 -0.42409 -1.64315 0
M  V30 1568 H 159.015 -0.652687 -3.85818 0
M  V30 1569 H 158.638 1.06212 -3.83151 0
M  V30 1570 N 159.635 1.57281 -0.100228 0
M  V30 1571 C 160.86 1.99302 0.573881 0
M  V30 1572 C 161.285 0.979059 1.60611 0
M  V30 1573 O 160.643 -0.0517803 1.81226 0
M  V30 1574 C 160.691 3.40274 1.19358 0
M  V30 1575 O 159.795 3.41676 2.30935 0
M  V30 1576 H 159.136 0.647944 0.145138 0
M  V30 1577 H 161.666 2.03779 -0.183156 0
M  V30 1578 H 161.676 3.78078 1.53365 0
M  V30 1579 H 160.351 4.13594 0.437385 0
M  V30 1580 H 158.928 3.15672 1.98509 0
M  V30 1581 N 161.113 -0.173488 1.56642 0
M  V30 1582 C 162.39 -0.917617 1.7274 0
M  V30 1583 C 162.77 -2.00484 0.661027 0
M  V30 1584 O 162.118 -2.26184 -0.32453 0
M  V30 1585 C 162.328 -1.48433 3.15862 0
M  V30 1586 C 163.676 -1.95809 3.76754 0
M  V30 1587 O 164.7 -1.58231 3.19126 0
M  V30 1588 O 163.559 -2.65024 4.77938 0
M  V30 1589 H 160.653 -0.431772 0.705338 0
M  V30 1590 H 163.199 -0.161487 1.6893 0
M  V30 1591 H 161.971 -0.701715 3.84957 0
M  V30 1592 H 161.594 -2.30471 3.23989 0
M  V30 1593 N 162.591 -1.51276 -0.441967 0
M  V30 1594 C 163.839 -1.63392 -1.18943 0
M  V30 1595 C 164.16 -0.350159 -1.9183 0
M  V30 1596 O 163.43 0.633784 -1.85364 0
M  V30 1597 H 162.01 -0.602164 -0.442049 0
M  V30 1598 H 164.672 -1.88186 -0.507165 0
M  V30 1599 H 163.768 -2.45934 -1.92154 0
M  V30 1600 N 164.069 0.697108 -1.41344 0
M  V30 1601 C 165.001 1.8224 -1.39001 0
M  V30 1602 C 166.014 1.60152 -0.292428 0
M  V30 1603 O 167.203 1.69684 -0.554048 0
M  V30 1604 C 164.303 3.18976 -1.14489 0
M  V30 1605 C 163.476 3.68105 -2.36258 0
M  V30 1606 C 162.535 4.83506 -2.07625 0
M  V30 1607 O 161.561 4.95201 -2.8065 0
M  V30 1608 N 162.763 5.70637 -1.06555 0
M  V30 1609 H 165.528 1.84742 -2.35988 0
M  V30 1610 H 163.089 0.87937 -1.35936 0
M  V30 1611 H 165.081 3.93801 -0.932885 0
M  V30 1612 H 163.651 3.11508 -0.261043 0
M  V30 1613 H 162.871 2.84204 -2.7317 0
M  V30 1614 H 164.159 3.97667 -3.17393 0
M  V30 1615 H 163.557 5.63817 -0.461125 0
M  V30 1616 H 162.114 6.45368 -0.913444 0
M  V30 1617 N 165.547 1.27147 0.931209 0
M  V30 1618 C 166.958 1.12044 1.49342 0
M  V30 1619 C 167.309 -0.295795 1.93957 0
M  V30 1620 O 166.434 -1.18835 1.80852 0
M  V30 1621 C 167.029 2.02781 2.71414 0
M  V30 1622 C 165.588 1.91794 3.2387 0
M  V30 1623 C 164.735 1.95543 1.96617 0
M  V30 1624 H 167.686 1.40091 0.745672 0
M  V30 1625 H 167.707 1.58156 3.46074 0
M  V30 1626 H 167.219 3.05848 2.38911 0
M  V30 1627 H 165.32 0.916992 3.6114 0
M  V30 1628 H 165.433 2.77852 3.90302 0
M  V30 1629 H 163.797 1.39722 2.12955 0
M  V30 1630 H 164.58 3.00259 1.66432 0
M  V30 1631 N 167.025 -1.13721 1.09112 0
M  V30 1632 C 168.253 -1.88773 0.846899 0
M  V30 1633 C 168.668 -1.7896 -0.601572 0
M  V30 1634 O 168.025 -1.15394 -1.41388 0
M  V30 1635 C 168.076 -3.3849 1.26913 0
M  V30 1636 O 167.797 -3.48043 2.66079 0
M  V30 1637 C 169.298 -4.30518 1.05682 0
M  V30 1638 H 166.518 -0.59772 0.304914 0
M  V30 1639 H 169.062 -1.43977 1.45227 0
M  V30 1640 H 167.217 -3.80881 0.707723 0
M  V30 1641 H 167.631 -4.4109 2.83795 0
M  V30 1642 H 169.105 -5.3391 1.40156 0
M  V30 1643 H 169.582 -4.392 -0.00563416 0
M  V30 1644 H 170.188 -3.93893 1.60402 0
M  V30 1645 N 168.503 -0.877838 -1.30888 0
M  V30 1646 C 169.466 -0.344265 -2.266 0
M  V30 1647 C 170.466 0.50922 -1.52524 0
M  V30 1648 O 171.656 0.317398 -1.71284 0
M  V30 1649 C 168.788 0.510198 -3.37061 0
M  V30 1650 H 169.981 -1.1893 -2.7531 0
M  V30 1651 H 167.534 -0.654088 -1.41956 0
M  V30 1652 H 168.269 1.37612 -2.93655 0
M  V30 1653 H 168.054 -0.101047 -3.9197 0
M  V30 1654 H 169.544 0.875537 -4.08319 0
M  V30 1655 N 169.982 1.44106 -0.638065 0
M  V30 1656 C 171.228 2.02277 -0.145546 0
M  V30 1657 C 171.561 1.50125 1.23191 0
M  V30 1658 O 170.836 0.688133 1.8192 0
M  V30 1659 C 171.119 3.59829 -0.139791 0
M  V30 1660 C 170.972 4.22247 -1.55008 0
M  V30 1661 C 172.291 4.36873 0.531966 0
M  V30 1662 H 169.41 0.734992 -0.0543632 0
M  V30 1663 H 172.052 1.71592 -0.815863 0
M  V30 1664 H 170.202 3.86102 0.431007 0
M  V30 1665 H 171.874 4.07057 -2.1703 0
M  V30 1666 H 170.117 3.79476 -2.10191 0
M  V30 1667 H 170.788 5.31284 -1.49804 0
M  V30 1668 H 173.264 4.16074 0.0464781 0
M  V30 1669 H 172.14 5.4657 0.505206 0
M  V30 1670 H 172.401 4.11995 1.60352 0
M  V30 1671 N 171.46 0.379036 1.52974 0
M  V30 1672 C 172.708 -0.206014 2.01047 0
M  V30 1673 C 173.029 -1.48175 1.26765 0
M  V30 1674 O 172.299 -1.92085 0.384743 0
M  V30 1675 H 170.879 -0.0791184 0.742798 0
M  V30 1676 H 173.541 0.508366 1.88153 0
M  V30 1677 H 172.637 -0.423501 3.09213 0
M  V30 1678 N 172.938 -1.57226 0.108567 0
M  V30 1679 C 174.187 -1.94008 -0.551703 0
M  V30 1680 C 174.5 -0.993442 -1.68494 0
M  V30 1681 O 175.706 -1.25551 -2.40726 0
M  V30 1682 C 174.162 -3.44763 -1.03279 0
M  V30 1683 C 173.77 -4.47943 0.0714193 0
M  V30 1684 C 175.514 -3.90483 -1.66503 0
M  V30 1685 C 173.421 -5.89865 -0.425779 0
M  V30 1686 H 172.351 -0.724206 -0.209863 0
M  V30 1687 H 175.002 -1.82547 0.186741 0
M  V30 1688 H 173.384 -3.51422 -1.82533 0
M  V30 1689 H 174.558 -4.52942 0.847365 0
M  V30 1690 H 172.873 -4.11913 0.609669 0
M  V30 1691 H 175.47 -4.93925 -2.04798 0
M  V30 1692 H 175.813 -3.29877 -2.53942 0
M  V30 1693 H 176.346 -3.86581 -0.938074 0
M  V30 1694 H 173.085 -6.54202 0.412316 0
M  V30 1695 H 172.605 -5.88309 -1.16843 0
M  V30 1696 H 174.284 -6.40844 -0.890397 0
M  V30 1697 N 174.416 0.165178 -1.56732 0
M  V30 1698 C 175.832 0.517174 -1.50988 0
M  V30 1699 C 176.032 1.84331 -0.813894 0
M  V30 1700 O 175.088 2.49672 -0.37682 0
M  V30 1701 C 176.401 0.544261 -2.95733 0
M  V30 1702 C 177.949 0.631039 -3.06573 0
M  V30 1703 C 178.424 0.68896 -4.52788 0
M  V30 1704 N 179.915 0.751683 -4.5706 0
M  V30 1705 C 180.65 0.817177 -5.67547 0
M  V30 1706 N 180.146 0.843129 -6.8765 0
M  V30 1707 N 181.939 0.856668 -5.55534 0
M  V30 1708 H 174.09 -0.704318 -2.00382 0
M  V30 1709 H 176.353 -0.254687 -0.913148 0
M  V30 1710 H 176.059 -0.361607 -3.49836 0
M  V30 1711 H 175.933 1.3886 -3.5071 0
M  V30 1712 H 178.32 1.52733 -2.52501 0
M  V30 1713 H 178.401 -0.240095 -2.54671 0
M  V30 1714 H 178.045 -0.2031 -5.07494 0
M  V30 1715 H 177.975 1.57633 -5.02454 0
M  V30 1716 H 180.466 0.739661 -3.70591 0
M  V30 1717 H 180.779 0.894448 -7.67606 0
M  V30 1718 H 179.124 0.811304 -6.90248 0
M  V30 1719 H 182.315 0.833437 -4.60621 0
M  V30 1720 H 182.488 0.904247 -6.4166 0
M  V30 1721 N 175.894 1.51508 0.433938 0
M  V30 1722 C 176.804 1.75917 1.5521 0
M  V30 1723 C 177.82 0.643545 1.61662 0
M  V30 1724 O 178.996 0.926183 1.7884 0
M  V30 1725 C 176.061 1.88213 2.91164 0
M  V30 1726 C 175.122 3.12074 2.94802 0
M  V30 1727 C 174.355 3.23774 4.24271 0
M  V30 1728 O 174.578 2.4133 5.16833 0
M  V30 1729 O 173.512 4.16774 4.34262 0
M  V30 1730 H 177.338 2.70777 1.37527 0
M  V30 1731 H 174.923 1.36051 0.617293 0
M  V30 1732 H 176.805 1.98267 3.71845 0
M  V30 1733 H 175.48 0.965413 3.08968 0
M  V30 1734 H 174.387 3.07497 2.13065 0
M  V30 1735 H 175.72 4.03446 2.81943 0
M  V30 1736 N 177.372 -0.689602 1.41712 0
M  V30 1737 C 178.302 -1.81577 1.46806 0
M  V30 1738 C 179.283 -1.66945 0.326105 0
M  V30 1739 O 180.468 -1.86588 0.538377 0
M  V30 1740 C 177.598 -3.19762 1.35535 0
M  V30 1741 C 176.552 -3.49107 2.47605 0
M  V30 1742 C 175.878 -4.86711 2.21397 0
M  V30 1743 C 177.178 -3.47483 3.89939 0
M  V30 1744 H 178.872 -1.7757 2.41058 0
M  V30 1745 H 176.418 -0.852887 1.16025 0
M  V30 1746 H 178.371 -3.98263 1.3771 0
M  V30 1747 H 177.095 -3.24409 0.377708 0
M  V30 1748 H 175.754 -2.72959 2.44722 0
M  V30 1749 H 175.402 -4.8799 1.21961 0
M  V30 1750 H 175.102 -5.0731 2.96497 0
M  V30 1751 H 176.626 -5.67515 2.25297 0
M  V30 1752 H 178.04 -4.1598 3.94505 0
M  V30 1753 H 176.437 -3.79615 4.64771 0
M  V30 1754 H 177.507 -2.46341 4.17665 0
M  V30 1755 N 178.85 -1.27639 -0.924453 0
M  V30 1756 C 179.78 -1.13166 -2.04244 0
M  V30 1757 C 180.761 -0.032256 -1.70069 0
M  V30 1758 O 181.946 -0.207328 -1.9309 0
M  V30 1759 C 179.076 -0.781496 -3.38393 0
M  V30 1760 C 178.03 -1.83449 -3.86692 0
M  V30 1761 C 177.356 -1.33822 -5.17683 0
M  V30 1762 C 178.656 -3.23917 -4.09726 0
M  V30 1763 H 180.35 -2.06689 -2.1661 0
M  V30 1764 H 177.896 -0.995136 -1.04082 0
M  V30 1765 H 179.849 -0.667057 -4.16087 0
M  V30 1766 H 178.573 0.189439 -3.2605 0
M  V30 1767 H 177.232 -1.93789 -3.11193 0
M  V30 1768 H 176.88 -0.35665 -5.01734 0
M  V30 1769 H 176.58 -2.04224 -5.50968 0
M  V30 1770 H 178.104 -1.23679 -5.97943 0
M  V30 1771 H 179.518 -3.16559 -4.77978 0
M  V30 1772 H 177.915 -3.92059 -4.54324 0
M  V30 1773 H 178.985 -3.68729 -3.14908 0
M  V30 1774 N 180.328 1.1314 -1.09713 0
M  V30 1775 C 181.739 1.66029 -0.853885 0
M  V30 1776 C 182.09 1.86241 0.617142 0
M  V30 1777 O 181.215 1.5834 1.47503 0
M  V30 1778 C 181.81 3.01599 -1.5435 0
M  V30 1779 C 180.369 3.51467 -1.34714 0
M  V30 1780 C 179.516 2.26648 -1.59769 0
M  V30 1781 H 182.467 0.970226 -1.25588 0
M  V30 1782 H 182.488 3.67709 -0.978267 0
M  V30 1783 H 182 2.86856 -2.6141 0
M  V30 1784 H 180.101 3.71408 -0.297838 0
M  V30 1785 H 180.214 4.314 -2.08401 0
M  V30 1786 H 178.578 2.33385 -1.01998 0
M  V30 1787 H 179.361 2.14467 -2.68065 0
M  V30 1788 N 181.806 0.884767 1.30421 0
M  V30 1789 C 183.031 0.517288 2.00845 0
M  V30 1790 C 183.456 -0.886779 1.65885 0
M  V30 1791 O 182.814 -1.58768 0.875354 0
M  V30 1792 C 182.862 0.698994 3.5376 0
M  V30 1793 O 181.966 -0.255208 4.1161 0
M  V30 1794 H 181.307 0.203872 0.631927 0
M  V30 1795 H 183.837 1.19225 1.66272 0
M  V30 1796 H 183.847 0.597912 4.03595 0
M  V30 1797 H 182.522 1.72271 3.78544 0
M  V30 1798 H 181.099 -0.10784 3.72744 0
M  V30 1799 N 183.284 -1.43765 0.645699 0
M  V30 1800 C 184.532 -2.01499 0.155731 0
M  V30 1801 C 184.853 -1.51151 -1.232 0
M  V30 1802 O 184.123 -0.721044 -1.82148 0
M  V30 1803 H 182.703 -0.745003 0.0545817 0
M  V30 1804 H 185.365 -1.76075 0.835677 0
M  V30 1805 H 184.461 -3.1181 0.134577 0
M  V30 1806 N 184.763 -0.387143 -1.52771 0
M  V30 1807 C 185.993 0.195585 -2.05672 0
M  V30 1808 C 186.401 1.41241 -1.25887 0
M  V30 1809 O 185.744 1.81265 -0.298081 0
M  V30 1810 C 185.806 0.632327 -3.53895 0
M  V30 1811 C 185.47 -0.470739 -4.54569 0
M  V30 1812 C 186.467 -1.32746 -5.02667 0
M  V30 1813 C 184.152 -0.637151 -4.98243 0
M  V30 1814 C 186.146 -2.33574 -5.93061 0
M  V30 1815 C 183.833 -1.64877 -5.88438 0
M  V30 1816 C 184.831 -2.49649 -6.35739 0
M  V30 1817 O 184.519 -3.49082 -7.24153 0
M  V30 1818 H 184.251 0.033658 -0.675162 0
M  V30 1819 H 186.805 -0.550221 -1.97893 0
M  V30 1820 H 185.035 1.43008 -3.59285 0
M  V30 1821 H 186.724 1.14048 -3.89548 0
M  V30 1822 H 187.49 -1.21019 -4.69659 0
M  V30 1823 H 183.369 0.0129567 -4.60998 0
M  V30 1824 H 186.913 -2.99777 -6.29904 0
M  V30 1825 H 182.81 -1.76643 -6.2086 0
M  V30 1826 H 183.578 -3.45065 -7.42208 0
M  V30 1827 N 186.241 1.57166 -0.116904 0
M  V30 1828 C 187.487 1.95412 0.542405 0
M  V30 1829 C 187.82 1.00019 1.66463 0
M  V30 1830 O 187.095 0.0370346 1.94465 0
M  V30 1831 C 187.378 3.43615 1.07708 0
M  V30 1832 C 187.231 4.49781 -0.0415868 0
M  V30 1833 C 188.55 3.93616 1.96861 0
M  V30 1834 H 185.669 0.710543 0.195696 0
M  V30 1835 H 188.311 1.89027 -0.192038 0
M  V30 1836 H 186.461 3.49187 1.70296 0
M  V30 1837 H 188.133 4.56308 -0.676793 0
M  V30 1838 H 186.376 4.28033 -0.705019 0
M  V30 1839 H 187.047 5.50733 0.373717 0
M  V30 1840 H 189.523 3.90335 1.44146 0
M  V30 1841 H 188.399 4.97838 2.3119 0
M  V30 1842 H 188.66 3.34188 2.89432 0
M  V30 1843 N 187.719 -0.156864 1.56817 0
M  V30 1844 C 188.965 -0.867645 1.83966 0
M  V30 1845 C 189.32 -1.79233 0.699511 0
M  V30 1846 O 188.613 -1.89186 -0.303176 0
M  V30 1847 C 188.807 -1.68737 3.1506 0
M  V30 1848 C 188.636 -0.843548 4.41718 0
M  V30 1849 C 187.406 -0.512994 5.02689 0
M  V30 1850 C 189.604 -0.178416 5.1399 0
M  V30 1851 N 187.586 0.345456 6.12927 0
M  V30 1852 C 188.957 0.540586 6.17639 0
M  V30 1853 C 191.012 -0.0980696 4.97803 0
M  V30 1854 C 189.715 1.33233 7.06853 0
M  V30 1855 C 191.741 0.680387 5.87473 0
M  V30 1856 C 191.103 1.3877 6.90596 0
M  V30 1857 H 187.202 -0.295642 0.723961 0
M  V30 1858 H 189.786 -0.13365 1.94241 0
M  V30 1859 H 187.957 -2.39268 3.0595 0
M  V30 1860 H 189.689 -2.34056 3.30151 0
M  V30 1861 H 186.444 -0.846476 4.65974 0
M  V30 1862 H 186.868 0.765415 6.72659 0
M  V30 1863 H 191.51 -0.630562 4.18071 0
M  V30 1864 H 189.228 1.87612 7.8602 0
M  V30 1865 H 192.814 0.744415 5.77018 0
M  V30 1866 H 191.694 1.9804 7.58782 0
M  V30 1867 N 189.197 -1.51736 -0.425897 0
M  V30 1868 C 190.107 -1.76738 -1.54275 0
M  V30 1869 C 191.123 -0.65211 -1.61318 0
M  V30 1870 O 192.299 -0.935654 -1.78346 0
M  V30 1871 C 189.364 -1.89755 -2.90162 0
M  V30 1872 C 188.425 -3.13633 -2.93143 0
M  V30 1873 C 187.658 -3.2602 -4.22548 0
M  V30 1874 O 187.881 -2.44067 -5.15546 0
M  V30 1875 O 186.815 -4.19071 -4.32046 0
M  V30 1876 H 190.641 -2.71502 -1.36089 0
M  V30 1877 H 188.226 -1.36376 -0.610069 0
M  V30 1878 H 190.108 -2.00236 -3.70788 0
M  V30 1879 H 188.783 -0.981785 -3.08452 0
M  V30 1880 H 187.69 -3.08622 -2.11431 0
M  V30 1881 H 189.023 -4.04936 -2.798 0
M  V30 1882 N 190.675 0.682077 -1.42076 0
M  V30 1883 C 191.923 1.4393 -1.41876 0
M  V30 1884 C 192.244 1.94971 -0.0335599 0
M  V30 1885 O 191.514 1.72591 0.926773 0
M  V30 1886 H 190.094 0.534085 -0.522267 0
M  V30 1887 H 192.756 0.806427 -1.77434 0
M  V30 1888 H 191.852 2.29588 -2.11414 0
M  V30 1889 O 192.192 1.38868 0.824489 0
M  V30 1890 H 192.883 1.26408 1.46767 0
M  V30 END ATOM
M  V30 BEGIN BOND
M  V30 END BOND
M  V30 END CTAB
M  END
$$$$
