drugbank_target|P0C8P8 Thiostrepton (DB02566; DB02940)
 OpenBabel12092120513D

  0  0  0     0  0            999 V3000
M  V30 BEGIN CTAB
M  V30 COUNTS 1014 1017 0 0 0
M  V30 BEGIN ATOM
M  V30 1 H -0.908 1.98254 -0.117106 0
M  V30 2 N 0 1.576 0 0
M  V30 3 C 0.933 2.03868 1.02534 0
M  V30 4 C 1.911 0.928543 1.3348 0
M  V30 5 O 3.095 1.19667 1.45644 0
M  V30 6 C 0.222 2.43627 2.35294 0
M  V30 7 C -0.732 3.65373 2.2001 0
M  V30 8 S 0.101 5.13292 1.52614 0
M  V30 9 C 1.257 5.56322 2.86805 0
M  V30 10 H 1.49 2.90518 0.631377 0
M  V30 11 H -0.977 1.52953 0.210867 0
M  V30 12 H 0.981 2.67203 3.11629 0
M  V30 13 H -0.358 1.57376 2.7183 0
M  V30 14 H -1.165 3.90944 3.18086 0
M  V30 15 H -1.563 3.418 1.51819 0
M  V30 16 H 0.729 5.58782 3.83104 0
M  V30 17 H 1.672 6.56266 2.65933 0
M  V30 18 H 2.08 4.83886 2.90714 0
M  V30 19 N 1.4781 -0.272755 1.55222 0
M  V30 20 C 2.7551 -1.02562 1.66555 0
M  V30 21 C 3.1351 -2.04282 0.532189 0
M  V30 22 O 2.4831 -2.23662 -0.467717 0
M  V30 23 C 2.6931 -1.6822 3.05782 0
M  V30 24 C 4.0411 -2.19373 3.63539 0
M  V30 25 O 5.0651 -1.78206 3.08417 0
M  V30 26 O 3.9241 -2.94883 4.60115 0
M  V30 27 H 1.0181 -0.475755 0.676451 0
M  V30 28 H 3.5641 -0.268593 1.67561 0
M  V30 29 H 2.3361 -0.945112 3.79715 0
M  V30 30 H 1.9591 -2.50609 3.08676 0
M  V30 31 N 2.9562 -1.48159 -0.537278 0
M  V30 32 C 3.9192 -1.61665 -1.62472 0
M  V30 33 C 4.9192 -0.490395 -1.5314 0
M  V30 34 O 6.1092 -0.755998 -1.5694 0
M  V30 35 C 3.2412 -1.57997 -3.02076 0
M  V30 36 H 4.4342 -2.58621 -1.51839 0
M  V30 37 H 1.9872 -1.36647 -0.758771 0
M  V30 38 H 2.7222 -0.624913 -3.18222 0
M  V30 39 H 2.5072 -2.39755 -3.10258 0
M  V30 40 H 3.9972 -1.70627 -3.81151 0
M  V30 41 N 4.4343 0.785586 -1.36625 0
M  V30 42 C 5.6623 1.57448 -1.3423 0
M  V30 43 C 6.0773 1.88649 0.0755653 0
M  V30 44 O 5.4343 1.50414 1.03354 0
M  V30 45 C 5.4853 2.89316 -2.16745 0
M  V30 46 O 5.2063 2.59459 -3.53005 0
M  V30 47 C 6.7073 3.83606 -2.22174 0
M  V30 48 H 3.9273 0.488226 -0.4603 0
M  V30 49 H 6.4713 0.974733 -1.79775 0
M  V30 50 H 4.6263 3.4575 -1.74745 0
M  V30 51 H 5.0403 3.43804 -3.96105 0
M  V30 52 H 6.5143 4.73181 -2.8426 0
M  V30 53 H 6.9913 4.21734 -1.22627 0
M  V30 54 H 7.5973 3.33104 -2.64427 0
M  V30 55 N 5.9124 1.20967 1.01018 0
M  V30 56 C 6.8754 0.965918 2.07853 0
M  V30 57 C 7.8754 -0.0610545 1.60684 0
M  V30 58 O 9.0654 0.175681 1.73312 0
M  V30 59 C 6.1974 0.455513 3.37843 0
M  V30 60 H 7.3904 1.91365 2.3091 0
M  V30 61 H 4.9434 1.02594 1.17916 0
M  V30 62 H 5.6784 -0.497381 3.20463 0
M  V30 63 H 5.4634 1.19622 3.73407 0
M  V30 64 H 6.9534 0.304667 4.16487 0
M  V30 65 N 7.3905 -1.2043 1.01659 0
M  V30 66 C 8.6395 -1.89118 0.701237 0
M  V30 67 C 8.9525 -1.79705 -0.772358 0
M  V30 68 O 10.1585 -2.43528 -1.20026 0
M  V30 69 C 8.6145 -3.39168 1.20388 0
M  V30 70 C 8.2225 -3.57166 2.70438 0
M  V30 71 C 9.9665 -4.1341 0.963953 0
M  V30 72 C 7.8735 -5.01042 3.14183 0
M  V30 73 H 6.8035 -0.708267 0.2586 0
M  V30 74 H 9.4545 -1.36239 1.22927 0
M  V30 75 H 7.8365 -3.91369 0.603824 0
M  V30 76 H 9.0105 -3.15351 3.35992 0
M  V30 77 H 7.3255 -2.96294 2.92572 0
M  V30 78 H 9.9225 -5.19491 1.26621 0
M  V30 79 H 10.2655 -4.16181 -0.099578 0
M  V30 80 H 10.7985 -3.67309 1.52738 0
M  V30 81 H 7.5375 -5.03426 4.19812 0
M  V30 82 H 7.0575 -5.43668 2.53348 0
M  V30 83 H 8.7365 -5.69623 3.0682 0
M  V30 84 N 8.8686 -0.792821 -1.36206 0
M  V30 85 C 9.8186 -0.166598 -2.27391 0
M  V30 86 C 10.8026 0.651479 -1.47121 0
M  V30 87 O 11.9946 0.510994 -1.69463 0
M  V30 88 C 9.1236 0.695033 -3.36191 0
M  V30 89 C 8.2096 -0.132019 -4.23894 0
M  V30 90 N 8.6006 -1.18822 -4.91645 0
M  V30 91 C 6.8986 0.0885952 -4.45912 0
M  V30 92 C 7.5996 -1.69198 -5.56549 0
M  V30 93 N 6.5756 -1.00065 -5.34311 0
M  V30 94 H 10.3776 -0.974947 -2.77258 0
M  V30 95 H 7.8916 -0.632616 -1.49572 0
M  V30 96 H 9.8886 1.1596 -4.00448 0
M  V30 97 H 8.5486 1.50189 -2.87877 0
M  V30 98 H 9.5596 -1.57069 -4.93507 0
M  V30 99 H 6.2366 0.865688 -4.08426 0
M  V30 100 H 7.6266 -2.57395 -6.20643 0
M  V30 101 N 10.3467 1.47872 -0.545128 0
M  V30 102 C 11.2567 2.33633 0.212746 0
M  V30 103 C 12.2727 1.4744 0.923983 0
M  V30 104 O 13.4487 1.80393 0.895572 0
M  V30 105 C 10.5137 3.23884 1.23693 0
M  V30 106 C 9.5747 4.25961 0.534417 0
M  V30 107 C 8.8077 5.11899 1.5098 0
M  V30 108 O 9.0307 5.00077 2.7437 0
M  V30 109 O 7.9647 5.92831 1.0409 0
M  V30 110 H 11.7907 2.99714 -0.490416 0
M  V30 111 H 9.3757 1.46235 -0.305871 0
M  V30 112 H 11.2577 3.79666 1.82843 0
M  V30 113 H 9.9327 2.60446 1.92222 0
M  V30 114 H 8.8397 3.73972 -0.0979679 0
M  V30 115 H 10.1727 4.92079 -0.109213 0
M  V30 116 N 11.8248 0.280983 1.55075 0
M  V30 117 C 13.2408 -0.0729964 1.59433 0
M  V30 118 C 13.4408 -1.5411 1.29817 0
M  V30 119 O 12.4968 -2.29086 1.06187 0
M  V30 120 C 13.8098 0.306921 2.9913 0
M  V30 121 C 15.3578 0.254023 3.11968 0
M  V30 122 C 15.8328 0.608467 4.5394 0
M  V30 123 N 17.3238 0.560241 4.59799 0
M  V30 124 C 18.0588 0.80722 5.6769 0
M  V30 125 N 17.5548 1.11912 6.83701 0
M  V30 126 N 19.3478 0.735623 5.57266 0
M  V30 127 H 11.4988 1.238 1.7259 0
M  V30 128 H 13.7618 0.500547 0.805082 0
M  V30 129 H 13.4678 1.32816 3.25657 0
M  V30 130 H 13.3418 -0.349363 3.75579 0
M  V30 131 H 15.7288 -0.75794 2.852 0
M  V30 132 H 15.8098 0.944649 2.37718 0
M  V30 133 H 15.4538 1.61814 4.81434 0
M  V30 134 H 15.3838 -0.104013 5.26497 0
M  V30 135 H 17.8748 0.329288 3.76463 0
M  V30 136 H 18.1878 1.29409 7.61888 0
M  V30 137 H 16.5328 1.15695 6.85303 0
M  V30 138 H 19.7238 0.491752 4.6551 0
M  V30 139 H 19.8968 0.931482 6.4127 0
M  V30 140 N 13.3029 -1.57598 0.00835791 0
M  V30 141 C 14.5489 -1.92046 -0.670055 0
M  V30 142 C 14.9039 -0.88351 -1.70915 0
M  V30 143 O 14.1969 0.103223 -1.91322 0
M  V30 144 C 14.3909 -3.3101 -1.34787 0
M  V30 145 C 14.2199 -4.48126 -0.375945 0
M  V30 146 C 12.9899 -5.05297 0.0166914 0
M  V30 147 C 15.1879 -5.1303 0.361272 0
M  V30 148 N 13.1699 -6.05931 0.985952 0
M  V30 149 C 14.5409 -6.08571 1.18495 0
M  V30 150 C 16.5959 -4.9609 0.42421 0
M  V30 151 C 15.2989 -6.88996 2.06584 0
M  V30 152 C 17.3249 -5.77107 1.29236 0
M  V30 153 C 16.6869 -6.72248 2.10386 0
M  V30 154 H 12.7859 -0.75096 -0.218136 0
M  V30 155 H 15.3699 -1.94572 0.0706669 0
M  V30 156 H 13.5409 -3.29342 -2.05884 0
M  V30 157 H 15.2729 -3.52864 -1.98164 0
M  V30 158 H 12.0279 -4.72279 -0.353435 0
M  V30 159 H 12.4519 -6.60932 1.4662 0
M  V30 160 H 17.0939 -4.22378 -0.188915 0
M  V30 161 H 14.8119 -7.62028 2.6896 0
M  V30 162 H 18.3979 -5.66038 1.34508 0
M  V30 163 H 17.2779 -7.33846 2.76476 0
M  V30 164 N 14.781 0.264519 -1.55364 0
M  V30 165 C 16.006 1.01726 -1.80739 0
M  V30 166 C 16.431 1.78836 -0.583044 0
M  V30 167 O 15.789 1.75167 0.467566 0
M  V30 168 C 15.837 1.94482 -3.03659 0
M  V30 169 O 14.941 3.03386 -2.7934 0
M  V30 170 H 14.282 0.290395 -0.597132 0
M  V30 171 H 16.812 0.290854 -2.02522 0
M  V30 172 H 16.822 2.36278 -3.32621 0
M  V30 173 H 15.497 1.37772 -3.92418 0
M  V30 174 H 14.074 2.65844 -2.61498 0
M  V30 175 N 16.2591 1.48442 0.529413 0
M  V30 176 C 17.5051 1.5672 1.28711 0
M  V30 177 C 17.8381 0.2406 1.92704 0
M  V30 178 O 17.1131 -0.753454 1.79313 0
M  V30 179 C 17.3961 2.70587 2.37603 0
M  V30 180 C 17.2491 4.12953 1.78297 0
M  V30 181 C 18.5681 2.80212 3.39366 0
M  V30 182 H 15.6871 0.570474 0.466613 0
M  V30 183 H 18.3291 1.80617 0.589706 0
M  V30 184 H 16.4791 2.50342 2.97088 0
M  V30 185 H 18.1511 4.44639 1.22858 0
M  V30 186 H 16.3941 4.19927 1.0883 0
M  V30 187 H 17.0651 4.88448 2.57144 0
M  V30 188 H 19.5411 2.98553 2.89836 0
M  V30 189 H 18.4171 3.61611 4.12951 0
M  V30 190 H 18.6781 1.88393 3.99951 0
M  V30 191 N 17.7372 -0.778329 1.37039 0
M  V30 192 C 18.6702 -1.8984 1.26633 0
M  V30 193 C 19.6482 -1.61923 0.148197 0
M  V30 194 O 20.8322 -1.85742 0.321265 0
M  V30 195 C 17.9592 -3.24916 0.956403 0
M  V30 196 C 17.0052 -3.71752 2.09051 0
M  V30 197 S 17.8382 -3.86201 3.70957 0
M  V30 198 C 18.9942 -5.24135 3.42101 0
M  V30 199 H 19.2272 -1.98377 2.21436 0
M  V30 200 H 16.7602 -0.938738 1.22585 0
M  V30 201 H 18.7182 -4.02936 0.784409 0
M  V30 202 H 17.3792 -3.14089 0.0259713 0
M  V30 203 H 16.5722 -4.69661 1.8285 0
M  V30 204 H 16.1742 -3.00815 2.2223 0
M  V30 205 H 18.4662 -6.09086 2.96682 0
M  V30 206 H 19.4092 -5.55346 4.39314 0
M  V30 207 H 19.8172 -4.91761 2.77185 0
M  V30 208 N 19.2153 -1.21501 -1.00376 0
M  V30 209 C 20.4403 -1.05977 -1.78279 0
M  V30 210 C 20.8653 0.385994 -1.84097 0
M  V30 211 O 20.2233 1.27849 -1.28547 0
M  V30 212 C 20.2713 -1.66302 -3.19963 0
M  V30 213 O 19.3753 -0.909333 -4.0225 0
M  V30 214 H 18.7163 -0.372906 -0.549397 0
M  V30 215 H 21.2463 -1.6107 -1.26165 0
M  V30 216 H 21.2563 -1.70574 -3.70632 0
M  V30 217 H 19.9313 -2.71515 -3.15043 0
M  V30 218 H 18.5083 -0.941795 -3.60811 0
M  V30 219 N 20.6934 1.19889 -1.02296 0
M  V30 220 C 21.6414 2.24938 -0.592081 0
M  V30 221 C 22.6354 1.65257 0.372357 0
M  V30 222 O 23.8414 1.78371 0.241583 0
M  V30 223 H 20.2164 0.731787 -0.173182 0
M  V30 224 H 22.1874 2.58603 -1.48885 0
M  V30 225 C 20.9364 3.47668 0.047351 0
M  V30 226 H 20.2594 3.93875 -0.685772 0
M  V30 227 H 21.6994 4.22852 0.311862 0
M  V30 228 C 20.1584 3.11136 1.29212 0
M  V30 229 O 20.6884 3.2325 2.38479 0
M  V30 230 N 18.8944 2.65625 1.17863 0
M  V30 231 H 18.4414 2.55968 0.289493 0
M  V30 232 H 18.3994 2.41553 2.01245 0
M  V30 233 N 22.1715 0.800033 1.35784 0
M  V30 234 C 23.1345 0.211565 2.28221 0
M  V30 235 C 24.1345 -0.59728 1.49296 0
M  V30 236 O 25.3245 -0.416721 1.69142 0
M  V30 237 C 22.4565 -0.705846 3.33513 0
M  V30 238 H 23.6495 1.02677 2.81776 0
M  V30 239 H 21.2025 0.570211 1.45528 0
M  V30 240 H 21.9375 -1.54498 2.85133 0
M  V30 241 H 21.7225 -0.127655 3.91892 0
M  V30 242 H 23.2125 -1.11211 4.02519 0
M  V30 243 N 23.6496 -1.47581 0.552962 0
M  V30 244 C 24.8746 -2.07378 0.0300593 0
M  V30 245 C 25.2996 -1.40355 -1.25229 0
M  V30 246 O 24.6576 -0.477099 -1.7491 0
M  V30 247 C 24.7056 -3.60274 -0.153231 0
M  V30 248 O 23.8096 -3.94041 -1.21678 0
M  V30 249 H 23.1506 -0.662158 0.0494182 0
M  V30 250 H 25.6806 -1.89662 0.767434 0
M  V30 251 H 25.6906 -4.0633 -0.368761 0
M  V30 252 H 24.3656 -4.08455 0.783397 0
M  V30 253 H 22.9426 -3.59735 -0.982079 0
M  V30 254 N 25.1277 -0.289203 -1.54924 0
M  V30 255 C 26.3767 0.324231 -1.99077 0
M  V30 256 C 26.6897 1.5591 -1.18117 0
M  V30 257 O 27.8957 2.24637 -1.52481 0
M  V30 258 C 26.3517 0.628209 -3.54375 0
M  V30 259 C 25.9597 -0.587647 -4.44129 0
M  V30 260 C 27.7037 1.20349 -4.07083 0
M  V30 261 C 25.6107 -0.257475 -5.90839 0
M  V30 262 H 24.5407 0.124924 -0.743579 0
M  V30 263 H 27.1917 -0.396063 -1.79175 0
M  V30 264 H 25.5737 1.40778 -3.70132 0
M  V30 265 H 26.7477 -1.36418 -4.40144 0
M  V30 266 H 25.0627 -1.08074 -4.0213 0
M  V30 267 H 27.6597 1.46456 -5.14252 0
M  V30 268 H 28.0027 2.14195 -3.56968 0
M  V30 269 H 28.5357 0.485889 -3.94821 0
M  V30 270 H 25.2747 -1.16419 -6.45079 0
M  V30 271 H 24.7947 0.482018 -5.9786 0
M  V30 272 H 26.4737 0.145238 -6.46837 0
M  V30 273 N 26.6058 1.57591 -0.0167156 0
M  V30 274 C 27.8538 1.90906 0.663285 0
M  V30 275 C 28.1748 0.892509 1.73376 0
M  V30 276 O 27.4448 -0.0677623 1.95783 0
M  V30 277 H 26.0248 0.704637 0.247983 0
M  V30 278 H 28.6868 1.94803 -0.0615909 0
M  V30 279 H 27.7828 2.9116 1.12393 0
M  V30 280 N 28.0839 -0.256276 1.55502 0
M  V30 281 C 29.0159 -1.33981 1.85962 0
M  V30 282 C 30.0289 -1.44743 0.745212 0
M  V30 283 O 31.2179 -1.4626 1.02324 0
M  V30 284 C 28.3179 -2.7194 2.02242 0
M  V30 285 C 27.4909 -2.83562 3.33033 0
M  V30 286 C 26.5499 -4.02304 3.39172 0
M  V30 287 O 25.5759 -3.92273 4.12444 0
M  V30 288 N 26.7779 -5.15045 2.67784 0
M  V30 289 H 29.5429 -1.08191 2.7949 0
M  V30 290 H 27.1039 -0.446388 1.55624 0
M  V30 291 H 29.0959 -3.49697 2.03701 0
M  V30 292 H 27.6659 -2.90479 1.15502 0
M  V30 293 H 26.8859 -1.92555 3.43971 0
M  V30 294 H 28.1739 -2.88271 4.19258 0
M  V30 295 H 27.5719 -5.26085 2.07968 0
M  V30 296 H 26.1289 -5.90972 2.74947 0
M  V30 297 N 29.562 -1.4872 -0.521534 0
M  V30 298 C 30.472 -1.66569 -1.65203 0
M  V30 299 C 31.488 -0.548197 -1.65139 0
M  V30 300 O 32.664 -0.820339 -1.83936 0
M  V30 301 C 29.729 -1.70917 -3.01642 0
M  V30 302 C 28.79 -2.94356 -3.12495 0
M  V30 303 C 28.023 -2.98487 -4.42426 0
M  V30 304 O 28.246 -2.10786 -5.30024 0
M  V30 305 O 27.18 -3.90746 -4.57822 0
M  V30 306 H 31.006 -2.62298 -1.5308 0
M  V30 307 H 28.591 -1.3222 -0.695565 0
M  V30 308 H 30.473 -1.7625 -3.82771 0
M  V30 309 H 29.148 -0.783633 -3.14071 0
M  V30 310 H 28.055 -2.94552 -2.3063 0
M  V30 311 H 29.388 -3.86322 -3.04986 0
M  V30 312 N 31.0401 0.771051 -1.3745 0
M  V30 313 C 32.2891 1.52491 -1.3202 0
M  V30 314 C 32.6021 1.9538 0.0927347 0
M  V30 315 O 33.8081 2.70159 0.269503 0
M  V30 316 C 32.2641 2.75366 -2.31736 0
M  V30 317 C 31.8721 2.39573 -3.78562 0
M  V30 318 C 33.6161 3.53307 -2.35318 0
M  V30 319 C 31.5231 3.58954 -4.70007 0
M  V30 320 H 30.4531 0.572506 -0.490666 0
M  V30 321 H 33.1041 0.844474 -1.62914 0
M  V30 322 H 31.4861 3.45303 -1.93861 0
M  V30 323 H 32.6601 1.77415 -4.25277 0
M  V30 324 H 30.9751 1.74805 -3.77932 0
M  V30 325 H 33.5721 4.42039 -3.00842 0
M  V30 326 H 33.9151 3.93217 -1.36698 0
M  V30 327 H 34.4481 2.90367 -2.71904 0
M  V30 328 H 31.1871 3.24125 -5.69757 0
M  V30 329 H 30.7071 4.20214 -4.27996 0
M  V30 330 H 32.3861 4.25758 -4.87175 0
M  V30 331 N 32.5182 1.22032 0.997298 0
M  V30 332 C 33.7662 1.04016 1.73278 0
M  V30 333 C 34.0872 -0.426255 1.90284 0
M  V30 334 O 33.3572 -1.30694 1.45931 0
M  V30 335 H 31.9372 0.381897 0.642 0
M  V30 336 H 34.5992 1.5347 1.20137 0
M  V30 337 H 33.6952 1.51441 2.72896 0
M  V30 338 N 33.9963 -1.19345 1.0293 0
M  V30 339 C 35.2423 -1.89318 0.727083 0
M  V30 340 C 35.5753 -1.79446 -0.742483 0
M  V30 341 O 34.8503 -1.1871 -1.54072 0
M  V30 342 C 35.1333 -3.40238 1.17942 0
M  V30 343 C 34.9863 -3.58979 2.71024 0
M  V30 344 C 36.3053 -4.33479 0.760548 0
M  V30 345 H 33.4243 -0.687475 0.265606 0
M  V30 346 H 36.0663 -1.40477 1.2793 0
M  V30 347 H 34.2163 -3.81964 0.709608 0
M  V30 348 H 35.8883 -3.26421 3.25955 0
M  V30 349 H 34.1313 -3.02018 3.11396 0
M  V30 350 H 34.8023 -4.64823 2.9773 0
M  V30 351 H 37.2783 -3.99469 1.16464 0
M  V30 352 H 36.1543 -5.37664 1.10493 0
M  V30 353 H 36.4153 -4.40813 -0.337063 0
M  V30 354 N 35.4744 -0.807222 -1.35358 0
M  V30 355 C 36.3844 -0.219594 -2.3357 0
M  V30 356 C 37.4004 0.637734 -1.61892 0
M  V30 357 O 38.5764 0.549336 -1.93763 0
M  V30 358 C 35.6414 0.62158 -3.41083 0
M  V30 359 C 34.7024 -0.256315 -4.28534 0
M  V30 360 C 33.9354 0.544807 -5.30912 0
M  V30 361 O 34.1584 1.77944 -5.41934 0
M  V30 362 O 33.0924 -0.0646478 -6.01865 0
M  V30 363 H 36.9184 -1.03208 -2.85625 0
M  V30 364 H 34.5034 -0.569025 -1.38139 0
M  V30 365 H 36.3854 1.10067 -4.06772 0
M  V30 366 H 35.0604 1.41165 -2.91297 0
M  V30 367 H 33.9674 -0.782559 -3.65823 0
M  V30 368 H 35.3004 -1.01034 -4.81719 0
M  V30 369 N 36.9525 1.47285 -0.560781 0
M  V30 370 C 38.2005 2.02064 -0.0379868 0
M  V30 371 C 38.5215 1.43711 1.31803 0
M  V30 372 O 37.7915 0.61362 1.86042 0
M  V30 373 H 36.3715 0.746918 -0.0110531 0
M  V30 374 H 39.0335 1.80648 -0.731598 0
M  V30 375 H 38.1295 3.12064 0.0474463 0
M  V30 376 N 38.4306 0.297415 1.54768 0
M  V30 377 C 39.3606 -0.573494 2.26348 0
M  V30 378 C 40.3416 -1.14085 1.26169 0
M  V30 379 O 41.5266 -1.17086 1.54934 0
M  V30 380 C 38.6566 -1.74716 3.00153 0
M  V30 381 C 37.6106 -1.31032 4.07449 0
M  V30 382 C 36.9366 -2.56887 4.68949 0
M  V30 383 C 38.2366 -0.444183 5.20408 0
M  V30 384 H 39.9306 0.0235131 2.99391 0
M  V30 385 H 37.4766 0.0127488 1.43994 0
M  V30 386 H 39.4296 -2.3625 3.48947 0
M  V30 387 H 38.1536 -2.37035 2.24682 0
M  V30 388 H 36.8126 -0.718066 3.59499 0
M  V30 389 H 36.4606 -3.17512 3.90122 0
M  V30 390 H 36.1606 -2.2836 5.41411 0
M  V30 391 H 37.6846 -3.19229 5.20505 0
M  V30 392 H 39.0986 -0.9651 5.65118 0
M  V30 393 H 37.4956 -0.252846 5.99567 0
M  V30 394 H 38.5656 0.531609 4.81977 0
M  V30 395 N 39.9087 -1.5758 0.0250728 0
M  V30 396 C 41.1367 -1.9593 -0.664747 0
M  V30 397 C 41.5517 -0.901352 -1.65895 0
M  V30 398 O 40.9087 0.117255 -1.82123 0
M  V30 399 C 40.9597 -3.34342 -1.37468 0
M  V30 400 O 40.6807 -4.36079 -0.420324 0
M  V30 401 C 42.1817 -3.873 -2.1567 0
M  V30 402 H 39.4017 -0.645405 -0.183557 0
M  V30 403 H 41.9457 -2.04329 0.0836372 0
M  V30 404 H 40.1007 -3.27175 -2.0745 0
M  V30 405 H 40.5147 -5.16297 -0.923991 0
M  V30 406 H 41.9887 -4.86504 -2.60803 0
M  V30 407 H 42.4657 -3.21331 -2.99405 0
M  V30 408 H 43.0717 -3.97723 -1.50654 0
M  V30 409 N 41.3868 0.248026 -1.55636 0
M  V30 410 C 42.6348 0.974295 -1.77065 0
M  V30 411 C 42.9558 1.85897 -0.588849 0
M  V30 412 O 42.2258 1.91868 0.395407 0
M  V30 413 H 40.8058 0.362733 -0.653019 0
M  V30 414 H 43.4678 0.266244 -1.93073 0
M  V30 415 H 42.5638 1.59667 -2.68166 0
M  V30 416 N 42.8649 1.48995 0.513639 0
M  V30 417 C 43.7949 1.67636 1.62544 0
M  V30 418 C 44.7759 0.525087 1.61793 0
M  V30 419 O 45.9609 0.759502 1.78732 0
M  V30 420 C 43.0909 1.73114 3.01079 0
M  V30 421 C 42.0449 2.87905 3.16693 0
M  V30 422 C 41.3709 2.78486 4.56453 0
M  V30 423 C 42.6709 4.29005 2.97913 0
M  V30 424 H 44.3649 2.60716 1.47198 0
M  V30 425 H 41.9109 1.25465 0.706714 0
M  V30 426 H 43.8639 1.84742 3.78746 0
M  V30 427 H 42.5879 0.766241 3.17484 0
M  V30 428 H 41.2469 2.75859 2.41448 0
M  V30 429 H 40.8949 1.7993 4.69717 0
M  V30 430 H 40.5949 3.55523 4.67843 0
M  V30 431 H 42.1189 2.92104 5.36197 0
M  V30 432 H 43.5329 4.41798 3.65359 0
M  V30 433 H 41.9299 5.07166 3.20785 0
M  V30 434 H 42.9999 4.44329 1.94165 0
M  V30 435 N 44.343 -0.763751 1.37857 0
M  V30 436 C 45.62 -1.51244 1.24035 0
M  V30 437 C 46 -2.10472 -0.162649 0
M  V30 438 O 45.348 -1.96206 -1.17112 0
M  V30 439 C 45.558 -2.58694 2.34261 0
M  V30 440 C 46.906 -3.25878 2.72193 0
M  V30 441 O 47.93 -2.68993 2.33497 0
M  V30 442 O 46.789 -4.2874 3.38887 0
M  V30 443 H 43.883 -0.670243 0.484462 0
M  V30 444 H 46.429 -0.800031 1.49658 0
M  V30 445 H 45.201 -2.13105 3.2818 0
M  V30 446 H 44.824 -3.37527 2.10146 0
M  V30 447 N 45.8211 -1.22559 -0.990812 0
M  V30 448 C 47.0671 -1.05297 -1.73322 0
M  V30 449 C 47.4001 0.410655 -1.89808 0
M  V30 450 O 46.6751 1.30439 -1.44277 0
M  V30 451 C 46.9581 -1.76713 -3.13759 0
M  V30 452 C 46.8111 -3.30684 -3.04907 0
M  V30 453 C 48.1301 -1.52121 -4.12974 0
M  V30 454 H 45.2491 -0.38392 -0.629106 0
M  V30 455 H 47.8911 -1.50926 -1.15418 0
M  V30 456 H 46.0411 -1.37924 -3.63193 0
M  V30 457 H 47.7131 -3.7893 -2.63077 0
M  V30 458 H 45.9561 -3.60253 -2.41661 0
M  V30 459 H 46.6271 -3.75833 -4.04294 0
M  V30 460 H 49.1031 -1.85819 -3.72304 0
M  V30 461 H 47.9791 -2.04582 -5.0935 0
M  V30 462 H 48.2401 -0.454257 -4.3976 0
M  V30 463 N 47.2992 1.18797 -1.03562 0
M  V30 464 C 48.5762 1.84469 -0.650434 0
M  V30 465 C 48.9562 1.92319 0.870433 0
M  V30 466 O 48.3042 1.44528 1.76986 0
M  V30 467 C 48.5142 3.2306 -1.32036 0
M  V30 468 C 49.8622 3.9915 -1.44792 0
M  V30 469 O 50.8862 3.32481 -1.27806 0
M  V30 470 O 49.7452 5.18587 -1.72423 0
M  V30 471 H 46.8392 0.795251 -0.226946 0
M  V30 472 H 49.3852 1.26231 -1.13419 0
M  V30 473 H 48.1572 3.1222 -2.3587 0
M  V30 474 H 47.7802 3.88949 -0.8249 0
M  V30 475 N 48.7773 0.814389 1.34928 0
M  V30 476 C 49.7403 0.235759 2.27984 0
M  V30 477 C 50.7403 -0.581412 1.49921 0
M  V30 478 O 51.9303 -0.398758 1.69575 0
M  V30 479 C 49.0623 -0.670433 3.34242 0
M  V30 480 H 50.2553 1.05659 2.80671 0
M  V30 481 H 47.8083 0.585614 1.44915 0
M  V30 482 H 48.5433 -1.51466 2.86755 0
M  V30 483 H 48.3283 -0.0860822 3.92005 0
M  V30 484 H 49.8183 -1.06935 4.03676 0
M  V30 485 N 50.2554 -1.46986 0.568584 0
M  V30 486 C 51.1854 -2.32946 -0.160753 0
M  V30 487 C 52.1664 -1.44487 -0.897631 0
M  V30 488 O 53.3514 -1.73327 -0.875867 0
M  V30 489 C 50.4814 -3.26494 -1.18403 0
M  V30 490 C 49.4354 -4.24282 -0.562895 0
M  V30 491 C 48.7614 -5.07236 -1.69163 0
M  V30 492 C 50.0614 -5.19989 0.490761 0
M  V30 493 H 51.7554 -2.94175 0.556916 0
M  V30 494 H 49.3014 -1.4146 0.26927 0
M  V30 495 H 51.2544 -3.85477 -1.70251 0
M  V30 496 H 49.9784 -2.63343 -1.93179 0
M  V30 497 H 48.6374 -3.66541 -0.0656164 0
M  V30 498 H 48.2854 -4.4048 -2.42871 0
M  V30 499 H 47.9854 -5.7345 -1.28174 0
M  V30 500 H 49.5094 -5.6908 -2.21314 0
M  V30 501 H 50.9234 -5.73271 0.0579047 0
M  V30 502 H 49.3204 -5.94469 0.820165 0
M  V30 503 H 50.3904 -4.64777 1.3824 0
M  V30 504 N 51.7335 -0.305618 -1.54608 0
M  V30 505 C 52.6435 0.57778 -2.27374 0
M  V30 506 C 53.6595 1.14451 -1.31061 0
M  V30 507 O 54.8355 1.16831 -1.6405 0
M  V30 508 C 51.9005 1.73123 -3.00382 0
M  V30 509 C 50.9615 1.19812 -4.12242 0
M  V30 510 C 50.1945 2.2966 -4.81759 0
M  V30 511 O 50.4175 3.49651 -4.50666 0
M  V30 512 O 49.3515 1.96091 -5.69062 0
M  V30 513 H 53.1775 -0.012624 -3.03697 0
M  V30 514 H 50.7625 -0.0719184 -1.49227 0
M  V30 515 H 52.6445 2.40315 -3.4616 0
M  V30 516 H 51.3195 2.30815 -2.26949 0
M  V30 517 H 50.2265 0.491798 -3.70853 0
M  V30 518 H 51.5595 0.666566 -4.87666 0
M  V30 519 N 53.2116 1.57565 -0.0334293 0
M  V30 520 C 54.4606 1.91155 0.643639 0
M  V30 521 C 54.7736 0.91192 1.73042 0
M  V30 522 O 55.9796 1.13923 2.46442 0
M  V30 523 C 54.4356 3.39443 1.1961 0
M  V30 524 C 54.0436 4.47774 0.142381 0
M  V30 525 C 55.7876 3.82094 1.84944 0
M  V30 526 C 53.6946 5.87162 0.706727 0
M  V30 527 H 52.6246 0.713368 0.244176 0
M  V30 528 H 55.2756 1.8323 -0.0994323 0
M  V30 529 H 53.6576 3.42313 1.99092 0
M  V30 530 H 54.8316 4.56469 -0.630296 0
M  V30 531 H 53.1466 4.14352 -0.412446 0
M  V30 532 H 55.7436 4.83591 2.2813 0
M  V30 533 H 56.0866 3.17386 2.69392 0
M  V30 534 H 56.6196 3.81665 1.12145 0
M  V30 535 H 53.3586 6.55424 -0.0997178 0
M  V30 536 H 52.8786 5.82064 1.44779 0
M  V30 537 H 54.5576 6.35866 1.19514 0
M  V30 538 N 54.6897 -0.239769 1.55765 0
M  V30 539 C 55.9147 -0.988373 1.82335 0
M  V30 540 C 56.3397 -1.77886 0.611421 0
M  V30 541 O 55.6977 -1.75889 -0.439639 0
M  V30 542 C 55.7457 -1.89627 3.06715 0
M  V30 543 O 54.8497 -2.98904 2.84131 0
M  V30 544 H 54.1907 -0.280858 0.601677 0
M  V30 545 H 56.7207 -0.258597 2.02959 0
M  V30 546 H 56.7307 -2.30957 3.36338 0
M  V30 547 H 55.4057 -1.31511 3.9456 0
M  V30 548 H 53.9827 -2.61651 2.65694 0
M  V30 549 N 56.1678 -1.49265 -0.50573 0
M  V30 550 C 57.4448 -1.49012 -1.26707 0
M  V30 551 C 57.8248 -0.215205 -2.1 0
M  V30 552 O 57.1728 0.802547 -2.13943 0
M  V30 553 C 57.3828 -2.7663 -2.12783 0
M  V30 554 C 58.7308 -3.25932 -2.72127 0
M  V30 555 O 59.7548 -2.77715 -2.23054 0
M  V30 556 O 58.6138 -4.09897 -3.61451 0
M  V30 557 H 55.7078 -0.596197 -0.57313 0
M  V30 558 H 58.2538 -1.61524 -0.52039 0
M  V30 559 H 57.0258 -3.60916 -1.5118 0
M  V30 560 H 56.6488 -2.66956 -2.94653 0
M  V30 561 N 57.6459 0.756429 -1.3826 0
M  V30 562 C 58.8759 1.54341 -1.3734 0
M  V30 563 C 59.2839 1.89159 0.0393917 0
M  V30 564 O 58.6269 1.5307 1.01565 0
M  V30 565 C 58.6889 2.87238 -2.16182 0
M  V30 566 C 58.3529 2.74973 -3.65019 0
M  V30 567 C 59.3499 2.44962 -4.58574 0
M  V30 568 C 57.0349 2.92515 -4.08338 0
M  V30 569 C 59.0289 2.32642 -5.93428 0
M  V30 570 C 56.7159 2.79815 -5.43274 0
M  V30 571 C 57.7139 2.49921 -6.35632 0
M  V30 572 O 57.4019 2.37275 -7.68086 0
M  V30 573 H 57.1339 0.484281 -0.471643 0
M  V30 574 H 59.6879 0.944152 -1.82414 0
M  V30 575 H 57.9179 3.49342 -1.65822 0
M  V30 576 H 59.6069 3.48731 -2.07705 0
M  V30 577 H 60.3729 2.31081 -4.26412 0
M  V30 578 H 56.2519 3.14781 -3.368 0
M  V30 579 H 59.7959 2.0923 -6.65484 0
M  V30 580 H 55.6929 2.93269 -5.75034 0
M  V30 581 H 56.4609 2.52509 -7.78577 0
M  V30 582 N 59.124 1.23083 0.984299 0
M  V30 583 C 60.37 1.06214 1.72761 0
M  V30 584 C 60.703 -0.400584 1.90024 0
M  V30 585 O 59.978 -1.29672 1.44967 0
M  V30 586 C 60.261 1.78375 3.12817 0
M  V30 587 C 60.114 3.32296 3.03149 0
M  V30 588 C 61.433 1.54309 4.12161 0
M  V30 589 H 58.552 0.387251 0.627061 0
M  V30 590 H 61.194 1.51536 1.14616 0
M  V30 591 H 59.344 1.39848 3.62457 0
M  V30 592 H 61.016 3.8032 2.61064 0
M  V30 593 H 59.259 3.6153 2.39747 0
M  V30 594 H 59.93 3.77972 4.02295 0
M  V30 595 H 62.406 1.87791 3.71314 0
M  V30 596 H 61.282 2.07281 5.08258 0
M  V30 597 H 61.543 0.477572 4.39513 0
M  V30 598 N 60.6021 -1.18246 1.0419 0
M  V30 599 C 61.8791 -1.84121 0.660208 0
M  V30 600 C 62.2591 -1.92778 -0.860221 0
M  V30 601 O 61.6071 -1.45464 -1.76217 0
M  V30 602 C 61.8171 -3.22355 1.33747 0
M  V30 603 C 63.1651 -3.98376 1.46906 0
M  V30 604 O 64.1891 -3.31799 1.29568 0
M  V30 605 O 63.0481 -5.17665 1.75171 0
M  V30 606 H 60.1421 -0.794036 0.231161 0
M  V30 607 H 62.6881 -1.25628 1.14087 0
M  V30 608 H 61.4601 -3.10964 2.37522 0
M  V30 609 H 61.0831 -3.88506 0.845515 0
M  V30 610 N 62.0802 -0.821533 -1.34494 0
M  V30 611 C 62.9902 -0.244355 -2.33324 0
M  V30 612 C 64.0062 0.620527 -1.62559 0
M  V30 613 O 65.1822 0.528754 -1.94335 0
M  V30 614 C 62.2472 0.585368 -3.41723 0
M  V30 615 C 61.3082 -0.301752 -4.28238 0
M  V30 616 C 60.5412 0.488466 -5.3146 0
M  V30 617 O 60.7642 1.72186 -5.4379 0
M  V30 618 O 59.6982 -0.12848 -6.01763 0
M  V30 619 H 63.5242 -1.06231 -2.84515 0
M  V30 620 H 61.1092 -0.583645 -1.37528 0
M  V30 621 H 62.9912 1.05747 -4.07916 0
M  V30 622 H 61.6662 1.38068 -2.92778 0
M  V30 623 H 60.5732 -0.821315 -3.64973 0
M  V30 624 H 61.9062 -1.06138 -4.8062 0
M  V30 625 N 63.5583 1.46682 -0.576371 0
M  V30 626 C 64.7863 2.06798 -0.0649635 0
M  V30 627 C 65.2013 1.42612 1.23723 0
M  V30 628 O 64.5583 0.529203 1.74659 0
M  V30 629 C 64.6093 3.6132 0.114202 0
M  V30 630 O 64.3303 4.23104 -1.13644 0
M  V30 631 C 65.8313 4.38349 0.66069 0
M  V30 632 H 63.0513 0.668778 -0.0545616 0
M  V30 633 H 65.5953 1.88404 -0.795237 0
M  V30 634 H 63.7503 3.79162 0.794673 0
M  V30 635 H 64.1643 5.15894 -0.946253 0
M  V30 636 H 65.6383 5.47081 0.73526 0
M  V30 637 H 66.1153 4.05953 1.67627 0
M  V30 638 H 66.7213 4.25297 0.0152951 0
M  V30 639 N 65.0364 0.313813 1.54444 0
M  V30 640 C 65.9664 -0.549454 2.26943 0
M  V30 641 C 66.9474 -1.12741 1.27372 0
M  V30 642 O 68.1324 -1.15436 1.56167 0
M  V30 643 C 65.2624 -1.71523 3.01989 0
M  V30 644 C 64.2164 -1.26703 4.08816 0
M  V30 645 C 63.5424 -2.51898 4.71647 0
M  V30 646 C 64.8424 -0.388962 5.2085 0
M  V30 647 H 66.5364 0.0552661 2.99349 0
M  V30 648 H 64.0824 0.0280207 1.43973 0
M  V30 649 H 66.0354 -2.32535 3.51433 0
M  V30 650 H 64.7594 -2.34639 2.27183 0
M  V30 651 H 63.4184 -0.679896 3.6024 0
M  V30 652 H 63.0664 -3.13356 3.93468 0
M  V30 653 H 62.7664 -2.22605 5.43802 0
M  V30 654 H 64.2904 -3.1369 5.23861 0
M  V30 655 H 65.7044 -0.905107 5.6611 0
M  V30 656 H 64.1014 -0.18924 5.99802 0
M  V30 657 H 65.1714 0.582699 4.81386 0
M  V30 658 N 66.5145 -1.57545 0.0417849 0
M  V30 659 C 67.4445 -2.14009 -0.933929 0
M  V30 660 C 68.4255 -1.05938 -1.33083 0
M  V30 661 O 69.6105 -1.33833 -1.40721 0
M  V30 662 C 66.7405 -2.67747 -2.21199 0
M  V30 663 C 65.6945 -3.80718 -1.95544 0
M  V30 664 C 65.0205 -4.20935 -3.29724 0
M  V30 665 C 66.3205 -5.06258 -1.28452 0
M  V30 666 H 68.0145 -2.95788 -0.463645 0
M  V30 667 H 65.5605 -1.42285 -0.221573 0
M  V30 668 H 67.5135 -3.05886 -2.89848 0
M  V30 669 H 66.2375 -1.83147 -2.70416 0
M  V30 670 H 64.8965 -3.43037 -1.2931 0
M  V30 671 H 64.5445 -3.33298 -3.76724 0
M  V30 672 H 64.2445 -4.9707 -3.13361 0
M  V30 673 H 65.7685 -4.61666 -3.9962 0
M  V30 674 H 67.1825 -5.41903 -1.8712 0
M  V30 675 H 65.5795 -5.87475 -1.22445 0
M  V30 676 H 66.6495 -4.84207 -0.259219 0
M  V30 677 N 67.9926 0.231505 -1.5589 0
M  V30 678 C 69.2696 0.981096 -1.69215 0
M  V30 679 C 69.6496 2.02799 -0.586164 0
M  V30 680 O 68.9976 2.24823 0.408253 0
M  V30 681 C 69.2076 1.60054 -3.10135 0
M  V30 682 C 70.5556 2.09658 -3.69227 0
M  V30 683 O 71.5796 1.69967 -3.13033 0
M  V30 684 O 70.4386 2.8258 -4.67772 0
M  V30 685 H 67.5326 0.457653 -0.688827 0
M  V30 686 H 70.0786 0.224073 -1.68214 0
M  V30 687 H 68.8506 0.844105 -3.82087 0
M  V30 688 H 68.4736 2.42336 -3.15212 0
M  V30 689 N 69.4707 1.49531 0.497807 0
M  V30 690 C 70.7187 1.58865 1.24926 0
M  V30 691 C 71.0397 0.278721 1.92998 0
M  V30 692 O 70.3097 -0.702144 1.82885 0
M  V30 693 H 68.8897 0.585343 0.464094 0
M  V30 694 H 71.5517 1.86174 0.57666 0
M  V30 695 H 70.6477 2.38633 2.01149 0
M  V30 696 N 70.9488 -0.749086 1.3866 0
M  V30 697 C 71.8588 -1.89358 1.38494 0
M  V30 698 C 72.8748 -1.71708 0.281476 0
M  V30 699 O 74.0508 -1.94554 0.520643 0
M  V30 700 C 71.1158 -3.24782 1.21316 0
M  V30 701 C 70.1768 -3.54926 2.41508 0
M  V30 702 C 69.4098 -4.83888 2.2514 0
M  V30 703 O 69.6328 -5.56592 1.24746 0
M  V30 704 O 68.5668 -5.13612 3.13826 0
M  V30 705 H 72.3928 -1.92452 2.34938 0
M  V30 706 H 69.9778 -0.894981 1.19626 0
M  V30 707 H 71.8598 -4.05739 1.13814 0
M  V30 708 H 70.5348 -3.2249 0.279592 0
M  V30 709 H 69.4418 -2.74112 2.54585 0
M  V30 710 H 70.7748 -3.61983 3.3351 0
M  V30 711 N 72.4269 -1.23603 -0.977757 0
M  V30 712 C 73.7039 -0.977897 -1.69401 0
M  V30 713 C 74.0839 0.502738 -2.05026 0
M  V30 714 O 73.4319 1.47459 -1.74551 0
M  V30 715 C 73.6419 -1.89077 -2.93345 0
M  V30 716 C 74.9899 -2.15579 -3.65802 0
M  V30 717 O 76.0139 -1.86648 -3.03383 0
M  V30 718 O 74.8729 -2.64658 -4.78141 0
M  V30 719 H 71.9669 -0.369025 -0.740101 0
M  V30 720 H 74.5129 -1.34657 -1.03274 0
M  V30 721 H 73.2849 -2.89158 -2.63634 0
M  V30 722 H 72.9079 -1.52463 -3.67207 0
M  V30 723 N 73.905 1.17692 -1.04816 0
M  V30 724 C 74.835 2.23777 -0.666791 0
M  V30 725 C 75.816 1.66796 0.33361 0
M  V30 726 O 77.001 1.93039 0.212042 0
M  V30 727 C 74.131 3.47281 -0.0367933 0
M  V30 728 C 73.085 4.17059 -0.961546 0
M  V30 729 C 72.411 5.34342 -0.195626 0
M  V30 730 C 73.711 4.69713 -2.28402 0
M  V30 731 H 75.405 2.55933 -1.55367 0
M  V30 732 H 72.951 1.23019 -0.748484 0
M  V30 733 H 74.904 4.20706 0.241775 0
M  V30 734 H 73.628 3.14381 0.885004 0
M  V30 735 H 72.287 3.45541 -1.22462 0
M  V30 736 H 71.935 4.97692 0.728816 0
M  V30 737 H 71.635 5.81966 -0.811775 0
M  V30 738 H 73.159 6.10553 0.0757473 0
M  V30 739 H 74.573 5.34794 -2.06563 0
M  V30 740 H 72.97 5.279 -2.8538 0
M  V30 741 H 74.04 3.86726 -2.92525 0
M  V30 742 N 75.3831 0.828654 1.34056 0
M  V30 743 C 76.6111 0.43262 2.02326 0
M  V30 744 C 77.0261 -0.963147 1.62385 0
M  V30 745 O 76.3831 -1.62425 0.832121 0
M  V30 746 C 76.4341 0.53182 3.57567 0
M  V30 747 O 76.1551 1.87258 3.96063 0
M  V30 748 C 77.6561 0.131422 4.43105 0
M  V30 749 H 74.8761 0.172923 0.648335 0
M  V30 750 H 77.4201 1.1184 1.71208 0
M  V30 751 H 75.5751 -0.105938 3.87255 0
M  V30 752 H 75.9891 1.85087 4.90758 0
M  V30 753 H 77.4631 0.251904 5.51425 0
M  V30 754 H 77.9401 -0.925645 4.29335 0
M  V30 755 H 78.5461 0.743207 4.18756 0
M  V30 756 N 76.8612 -1.46375 0.584142 0
M  V30 757 C 78.1072 -2.02678 0.0703716 0
M  V30 758 C 78.4402 -1.4545 -1.28678 0
M  V30 759 O 77.7152 -0.62014 -1.84349 0
M  V30 760 C 77.9982 -3.60099 0.00614674 0
M  V30 761 C 77.8512 -4.27709 1.3923 0
M  V30 762 C 79.1702 -4.34598 -0.693742 0
M  V30 763 H 76.2892 -0.736504 0.027047 0
M  V30 764 H 78.9312 -1.74501 0.751615 0
M  V30 765 H 77.0812 -3.84236 -0.574009 0
M  V30 766 H 78.7532 -4.14832 2.01773 0
M  V30 767 H 76.9962 -3.87016 1.95962 0
M  V30 768 H 77.6672 -5.36478 1.29982 0
M  V30 769 H 80.1432 -4.15615 -0.200869 0
M  V30 770 H 79.0192 -5.44318 -0.707714 0
M  V30 771 H 79.2802 -4.05759 -1.75533 0
M  V30 772 N 78.3393 -0.321999 -1.54275 0
M  V30 773 C 79.5673 0.283052 -2.04955 0
M  V30 774 C 79.9823 1.45904 -1.19823 0
M  V30 775 O 79.3393 1.81063 -0.228545 0
M  V30 776 C 79.3903 0.719028 -3.54277 0
M  V30 777 O 79.1113 -0.410175 -4.36176 0
M  V30 778 C 80.6123 1.38705 -4.21041 0
M  V30 779 H 77.8323 0.0584616 -0.668448 0
M  V30 780 H 80.3763 -0.467734 -1.99079 0
M  V30 781 H 78.5313 1.41979 -3.60445 0
M  V30 782 H 78.9453 -0.0669416 -5.24457 0
M  V30 783 H 80.4193 1.64306 -5.2698 0
M  V30 784 H 80.8963 2.33385 -3.72059 0
M  V30 785 H 81.5023 0.728906 -4.19007 0
M  V30 786 N 79.8174 1.5752 -0.0501392 0
M  V30 787 C 80.7504 2.07026 0.959962 0
M  V30 788 C 81.7284 0.970539 1.30458 0
M  V30 789 O 82.9124 1.2424 1.41763 0
M  V30 790 C 80.0394 2.5099 2.27424 0
M  V30 791 C 79.0854 3.72188 2.08275 0
M  V30 792 S 79.9184 5.17888 1.36207 0
M  V30 793 C 81.0744 5.65165 2.6896 0
M  V30 794 H 81.3074 2.9238 0.538631 0
M  V30 795 H 78.8404 1.53547 0.162099 0
M  V30 796 H 80.7984 2.76982 3.02971 0
M  V30 797 H 79.4594 1.65944 2.66686 0
M  V30 798 H 78.6524 4.00866 3.05487 0
M  V30 799 H 78.2544 3.46457 1.40868 0
M  V30 800 H 80.5464 5.70687 3.65133 0
M  V30 801 H 81.4894 6.64394 2.4492 0
M  V30 802 H 81.8974 4.9289 2.75172 0
M  V30 803 N 81.2955 -0.223234 1.56011 0
M  V30 804 C 82.5445 -0.945912 1.78144 0
M  V30 805 C 82.8575 -1.85567 0.618396 0
M  V30 806 O 84.0635 -2.61688 0.723318 0
M  V30 807 C 82.5195 -1.73216 3.15475 0
M  V30 808 C 82.1275 -0.868619 4.39499 0
M  V30 809 C 83.8715 -2.44615 3.46935 0
M  V30 810 C 81.7785 -1.65212 5.67855 0
M  V30 811 H 80.7085 -0.356929 0.664167 0
M  V30 812 H 83.3595 -0.199845 1.82409 0
M  V30 813 H 81.7415 -2.52107 3.05382 0
M  V30 814 H 82.9155 -0.120366 4.60643 0
M  V30 815 H 81.2305 -0.26683 4.15544 0
M  V30 816 H 83.8275 -3.03732 4.40058 0
M  V30 817 H 84.1705 -3.17417 2.69355 0
M  V30 818 H 84.7035 -1.72715 3.58349 0
M  V30 819 H 81.4425 -0.967407 6.48322 0
M  V30 820 H 80.9625 -2.37503 5.50774 0
M  V30 821 H 82.6415 -2.21322 6.07968 0
M  V30 822 N 82.7736 -1.49793 -0.48987 0
M  V30 823 C 83.7366 -1.66752 -1.57246 0
M  V30 824 C 84.7366 -0.538867 -1.51502 0
M  V30 825 O 85.9266 -0.805545 -1.54456 0
M  V30 826 C 83.0586 -1.67528 -2.96896 0
M  V30 827 H 84.2516 -2.63321 -1.43534 0
M  V30 828 H 81.8046 -1.38992 -0.714914 0
M  V30 829 H 82.5396 -0.725837 -3.16073 0
M  V30 830 H 82.3246 -2.49504 -3.02473 0
M  V30 831 H 83.8146 -1.82667 -3.7553 0
M  V30 832 N 84.2517 0.741722 -1.39055 0
M  V30 833 C 85.4767 1.53607 -1.39354 0
M  V30 834 C 85.9017 1.88096 0.0116905 0
M  V30 835 O 85.2597 1.5143 0.996924 0
M  V30 836 C 85.3077 2.80441 -2.26682 0
M  V30 837 O 84.4117 3.76088 -1.69208 0
M  V30 838 H 83.7527 0.464142 -0.474835 0
M  V30 839 H 86.2827 0.915665 -1.82967 0
M  V30 840 H 86.2927 3.29246 -2.40959 0
M  V30 841 H 84.9677 2.5467 -3.2881 0
M  V30 842 H 83.5447 3.34833 -1.64138 0
M  V30 843 N 85.7298 1.2412 0.971189 0
M  V30 844 C 86.6928 1.03156 2.04674 0
M  V30 845 C 87.6928 -0.00990322 1.60797 0
M  V30 846 O 88.8828 0.230729 1.72665 0
M  V30 847 C 86.0148 0.562765 3.36223 0
M  V30 848 H 87.2078 1.98614 2.24705 0
M  V30 849 H 84.7608 1.06293 1.14593 0
M  V30 850 H 85.4958 -0.395176 3.21883 0
M  V30 851 H 85.2808 1.31441 3.69413 0
M  V30 852 H 86.7708 0.437015 4.15307 0
M  V30 853 N 87.2079 -1.17134 1.05439 0
M  V30 854 C 88.4329 -1.91913 0.786396 0
M  V30 855 C 88.8579 -1.7643 -0.652234 0
M  V30 856 O 88.2159 -1.08372 -1.45345 0
M  V30 857 C 88.2639 -3.40921 1.17497 0
M  V30 858 O 87.3679 -4.11244 0.308589 0
M  V30 859 H 86.7089 -0.598215 0.288158 0
M  V30 860 H 89.2389 -1.48457 1.4079 0
M  V30 861 H 89.2489 -3.91668 1.14281 0
M  V30 862 H 87.9239 -3.5151 2.22292 0
M  V30 863 H 86.5009 -3.70731 0.40157 0
M  V30 864 N 88.686 -0.835752 -1.33615 0
M  V30 865 C 89.926 -0.43599 -1.99696 0
M  V30 866 C 90.29 0.98557 -1.64774 0
M  V30 867 O 91.491 1.48889 -2.23798 0
M  V30 868 C 89.762 -0.646721 -3.515 0
M  V30 869 S 91.321 -0.341715 -4.37467 0
M  V30 870 H 88.139 -0.164136 -0.691795 0
M  V30 871 H 90.741 -1.08436 -1.62671 0
M  V30 872 H 89.445 -1.68077 -3.74404 0
M  V30 873 H 88.976 0.0159173 -3.93397 0
M  V30 874 H 90.991 0.839708 -4.89043 0
M  V30 875 N 90.1641 1.46063 -0.591896 0
M  V30 876 C 91.3921 2.06717 -0.0868936 0
M  V30 877 C 91.8071 1.43916 1.22203 0
M  V30 878 O 91.1641 0.547698 1.74088 0
M  V30 879 C 91.2151 3.6142 0.0758725 0
M  V30 880 O 90.9361 4.21874 -1.18126 0
M  V30 881 C 92.4371 4.39025 0.61416 0
M  V30 882 H 89.6571 0.668162 -0.0616518 0
M  V30 883 H 92.2011 1.8755 -0.815175 0
M  V30 884 H 90.3561 3.79983 0.754413 0
M  V30 885 H 90.7701 5.14861 -1.00092 0
M  V30 886 H 92.2441 5.4783 0.677193 0
M  V30 887 H 92.7211 4.07708 1.63312 0
M  V30 888 H 93.3271 4.2529 -0.0298142 0
M  V30 889 N 91.6422 0.330177 1.54103 0
M  V30 890 C 92.8702 -0.272179 2.05102 0
M  V30 891 C 93.2852 -1.45267 1.20595 0
M  V30 892 O 92.6422 -1.8094 0.238144 0
M  V30 893 C 92.6932 -0.70023 3.54653 0
M  V30 894 O 92.4142 0.433301 4.35952 0
M  V30 895 C 93.9152 -1.3647 4.21771 0
M  V30 896 H 91.1352 -0.0549159 0.668749 0
M  V30 897 H 93.6792 0.478285 1.98828 0
M  V30 898 H 91.8342 -1.40066 3.61193 0
M  V30 899 H 92.2482 0.0947539 5.24414 0
M  V30 900 H 93.7222 -1.61509 5.27843 0
M  V30 901 H 94.1992 -2.31409 3.73292 0
M  V30 902 H 94.8052 -0.706675 4.19388 0
M  V30 903 N 93.1203 -1.57491 0.0584922 0
M  V30 904 C 94.3603 -1.94851 -0.617458 0
M  V30 905 C 94.7243 -0.937165 -1.67575 0
M  V30 906 O 95.9253 -1.19795 -2.40629 0
M  V30 907 C 94.1963 -3.36955 -1.19147 0
M  V30 908 S 95.7553 -3.96277 -1.8844 0
M  V30 909 H 92.5733 -0.681539 -0.202547 0
M  V30 910 H 95.1753 -1.95073 0.129176 0
M  V30 911 H 93.8793 -4.08355 -0.409215 0
M  V30 912 H 93.4103 -3.40245 -1.97476 0
M  V30 913 H 95.4253 -3.82099 -3.16568 0
M  V30 914 N 94.5984 0.214957 -1.56127 0
M  V30 915 C 95.8474 0.936451 -1.78643 0
M  V30 916 C 96.1604 1.85237 -0.628229 0
M  V30 917 O 97.3664 2.613 -0.737186 0
M  V30 918 C 95.8224 1.7154 -3.16389 0
M  V30 919 C 95.4304 0.845299 -4.39953 0
M  V30 920 C 97.1744 2.42772 -3.48227 0
M  V30 921 C 95.0814 1.62198 -5.68723 0
M  V30 922 H 94.0114 0.353401 -0.666051 0
M  V30 923 H 96.6624 0.190169 -1.82512 0
M  V30 924 H 95.0444 2.50484 -3.06715 0
M  V30 925 H 96.2184 0.0959353 -4.607 0
M  V30 926 H 94.5334 0.244789 -4.1568 0
M  V30 927 H 97.1304 3.01394 -4.41663 0
M  V30 928 H 97.4734 3.15984 -2.71035 0
M  V30 929 H 98.0064 1.70813 -3.5926 0
M  V30 930 H 94.7454 0.933011 -6.48826 0
M  V30 931 H 94.2654 2.34579 -5.52026 0
M  V30 932 H 95.9444 2.18095 -6.09133 0
M  V30 933 N 96.0765 1.50051 0.48192 0
M  V30 934 C 97.3165 1.62128 1.24474 0
M  V30 935 C 97.6805 0.309742 1.89485 0
M  V30 936 O 98.8815 0.305854 2.67054 0
M  V30 937 C 97.1525 2.76151 2.26882 0
M  V30 938 S 98.7115 3.08297 3.12247 0
M  V30 939 H 95.5295 0.571661 0.422759 0
M  V30 940 H 98.1315 1.87791 0.54359 0
M  V30 941 H 96.8355 3.69942 1.77683 0
M  V30 942 H 96.3665 2.52541 3.0164 0
M  V30 943 H 98.3815 2.51287 4.27866 0
M  V30 944 N 97.5546 -0.734337 1.39446 0
M  V30 945 C 98.7826 -1.52358 1.39981 0
M  V30 946 C 99.1976 -1.88799 -0.0054975 0
M  V30 947 O 98.5546 -1.54146 -0.976998 0
M  V30 948 C 98.6056 -2.81072 2.27333 0
M  V30 949 O 98.3266 -2.46178 3.62392 0
M  V30 950 C 99.8276 -3.75096 2.36259 0
M  V30 951 H 97.0476 -0.470806 0.478103 0
M  V30 952 H 99.5916 -0.907339 1.83269 0
M  V30 953 H 97.7466 -3.39026 1.87457 0
M  V30 954 H 98.1606 -3.28866 4.08592 0
M  V30 955 H 99.6346 -4.62305 3.01626 0
M  V30 956 H 100.112 -4.16892 1.38194 0
M  V30 957 H 100.718 -3.23061 2.76608 0
M  V30 958 N 99.0327 -1.24633 -0.964593 0
M  V30 959 C 100.273 -1.09981 -1.72289 0
M  V30 960 C 100.637 0.354792 -1.88693 0
M  V30 961 O 101.838 0.62289 -2.61483 0
M  V30 962 C 100.109 -1.82262 -3.07434 0
M  V30 963 S 101.668 -1.83379 -3.98645 0
M  V30 964 H 98.4857 -0.393292 -0.59232 0
M  V30 965 H 101.088 -1.58009 -1.15123 0
M  V30 966 H 99.7917 -2.87206 -2.93157 0
M  V30 967 H 99.3227 -1.3458 -3.69664 0
M  V30 968 H 101.338 -0.903691 -4.87901 0
M  V30 969 N 100.511 1.16574 -1.06058 0
M  V30 970 C 101.736 1.91493 -0.796562 0
M  V30 971 C 102.161 1.76773 0.642868 0
M  V30 972 O 101.519 1.09142 1.44768 0
M  V30 973 C 101.567 3.40293 -1.19303 0
M  V30 974 O 100.671 4.11074 -0.330394 0
M  V30 975 H 100.012 0.596678 -0.291326 0
M  V30 976 H 102.542 1.47708 -1.41575 0
M  V30 977 H 102.552 3.91057 -1.16356 0
M  V30 978 H 101.227 3.50326 -2.24153 0
M  V30 979 H 99.8038 3.70513 -0.421225 0
M  V30 980 N 101.989 0.842826 1.3317 0
M  V30 981 C 103.229 0.446574 1.99462 0
M  V30 982 C 103.593 -0.976818 1.65295 0
M  V30 983 O 104.794 -1.477 2.24584 0
M  V30 984 C 103.065 0.665353 3.51152 0
M  V30 985 S 104.624 0.364911 4.3728 0
M  V30 986 H 101.442 0.167803 0.690915 0
M  V30 987 H 104.044 1.09297 1.62094 0
M  V30 988 H 102.748 1.7006 3.73507 0
M  V30 989 H 102.279 0.00494568 3.934 0
M  V30 990 H 104.294 -0.813761 4.89482 0
M  V30 991 N 103.467 -1.45747 0.599634 0
M  V30 992 C 104.692 -2.07178 0.0960198 0
M  V30 993 C 105.117 -1.44268 -1.207 0
M  V30 994 O 104.475 -0.532503 -1.73303 0
M  V30 995 C 104.523 -3.60579 -0.0385348 0
M  V30 996 O 103.627 -3.97713 -1.0908 0
M  V30 997 H 102.968 -0.660251 0.0704593 0
M  V30 998 H 105.498 -1.87124 0.827385 0
M  V30 999 H 105.508 -4.07298 -0.239304 0
M  V30 1000 H 104.183 -4.05756 0.912947 0
M  V30 1001 H 102.76 -3.62678 -0.867135 0
M  V30 1002 N 104.945 -0.338344 -1.53925 0
M  V30 1003 C 106.17 0.263987 -2.05713 0
M  V30 1004 C 106.595 1.43847 -1.21201 0
M  V30 1005 O 105.953 1.79904 -0.224535 0
M  V30 1006 C 106.001 0.662 -3.54471 0
M  V30 1007 O 105.105 1.76265 -3.72833 0
M  V30 1008 H 104.446 0.0448722 -0.662482 0
M  V30 1009 H 106.976 -0.491048 -1.9862 0
M  V30 1010 H 106.986 0.940594 -3.9701 0
M  V30 1011 H 105.661 -0.196937 -4.15433 0
M  V30 1012 H 104.238 1.48173 -3.42198 0
M  V30 1013 O 106.462 1.60175 -0.206422 0
M  V30 1014 H 107.153 1.89998 0.37691 0
M  V30 END ATOM
M  V30 BEGIN BOND
M  V30 END BOND
M  V30 END CTAB
M  END
$$$$
