drugbank_target|P0CG22 Putative dehydrogenase/reductase SDR family member 4-like 1 (DB02532; DB03461; DB03541; DB07689; DB07765)
 OpenBabel12092120443D

  0  0  0     0  0            999 V3000
M  V30 BEGIN CTAB
M  V30 COUNTS 4363 4396 0 0 0
M  V30 BEGIN ATOM
M  V30 1 H -0.908 1.98254 -0.117106 0
M  V30 2 N 0 1.576 0 0
M  V30 3 C 0.933 2.03868 1.02534 0
M  V30 4 C 1.911 0.928543 1.3348 0
M  V30 5 O 3.095 1.19667 1.45644 0
M  V30 6 C 0.222 2.43627 2.35294 0
M  V30 7 C -0.732 3.65373 2.2001 0
M  V30 8 S 0.101 5.13292 1.52614 0
M  V30 9 C 1.257 5.56322 2.86805 0
M  V30 10 H 1.49 2.90518 0.631377 0
M  V30 11 H -0.977 1.52953 0.210867 0
M  V30 12 H 0.981 2.67203 3.11629 0
M  V30 13 H -0.358 1.57376 2.7183 0
M  V30 14 H -1.165 3.90944 3.18086 0
M  V30 15 H -1.563 3.418 1.51819 0
M  V30 16 H 0.729 5.58782 3.83104 0
M  V30 17 H 1.672 6.56266 2.65933 0
M  V30 18 H 2.08 4.83886 2.90714 0
M  V30 19 N 1.4781 -0.272755 1.55222 0
M  V30 20 C 2.4281 -1.33946 1.84506 0
M  V30 21 C 3.4121 -1.44682 0.70399 0
M  V30 22 O 4.6041 -1.48358 0.965338 0
M  V30 23 C 1.7331 -2.69968 2.12067 0
M  V30 24 C 0.8191 -2.63341 3.32434 0
M  V30 25 N 1.2101 -2.26335 4.52334 0
M  V30 26 C -0.4919 -2.94402 3.35028 0
M  V30 27 C 0.2091 -2.29705 5.34425 0
M  V30 28 N -0.8149 -2.68188 4.72838 0
M  V30 29 H 2.9871 -1.04343 2.74754 0
M  V30 30 H 0.5011 -0.481389 1.55101 0
M  V30 31 H 2.4981 -3.46916 2.31202 0
M  V30 32 H 1.1581 -3.00459 1.23103 0
M  V30 33 H 2.1691 -1.98309 4.78429 0
M  V30 34 H -1.1539 -3.29603 2.56257 0
M  V30 35 H 0.2361 -2.03653 6.40293 0
M  V30 36 N 2.9562 -1.48159 -0.537278 0
M  V30 37 C 3.9032 -1.62138 -1.64256 0
M  V30 38 C 4.8732 -0.463668 -1.59497 0
M  V30 39 O 6.0582 -0.686241 -1.78032 0
M  V30 40 C 3.1982 -1.66028 -3.02537 0
M  V30 41 C 2.3112 -2.92855 -3.17585 0
M  V30 42 C 1.4462 -2.87952 -4.46382 0
M  V30 43 C 0.4852 -4.09516 -4.54932 0
M  V30 44 N -0.3778 -4.02733 -5.75109 0
M  V30 45 H 4.4622 -2.56529 -1.51647 0
M  V30 46 H 1.9992 -1.27224 -0.738414 0
M  V30 47 H 3.9572 -1.66265 -3.82638 0
M  V30 48 H 2.5872 -0.751331 -3.13934 0
M  V30 49 H 1.6392 -3.02395 -2.30784 0
M  V30 50 H 2.9512 -3.82822 -3.19764 0
M  V30 51 H 2.1052 -2.8655 -5.34765 0
M  V30 52 H 0.8442 -1.95702 -4.46712 0
M  V30 53 H -0.1508 -4.11201 -3.64957 0
M  V30 54 H 1.0742 -5.02917 -4.56346 0
M  V30 55 H -0.9798 -3.13299 -5.76351 0
M  V30 56 H -1.0628 -4.86397 -5.78752 0
M  V30 57 H 0.2052 -4.05379 -6.65799 0
M  V30 58 N 4.4343 0.785586 -1.36625 0
M  V30 59 C 5.3973 1.87999 -1.31107 0
M  V30 60 C 6.3973 1.59316 -0.217959 0
M  V30 61 O 7.5873 1.67656 -0.472977 0
M  V30 62 C 4.7193 3.24861 -1.03334 0
M  V30 63 H 5.9123 1.94307 -2.2844 0
M  V30 64 H 3.4653 0.983813 -1.21453 0
M  V30 65 H 4.2003 3.24235 -0.0647432 0
M  V30 66 H 3.9853 3.4707 -1.82441 0
M  V30 67 H 5.4753 4.04929 -1.02088 0
M  V30 68 N 5.9124 1.20967 1.01018 0
M  V30 69 C 7.3284 0.965905 1.27053 0
M  V30 70 C 7.5284 -0.350785 1.98423 0
M  V30 71 O 6.5844 -1.07773 2.28344 0
M  V30 72 C 7.8974 2.15294 2.09926 0
M  V30 73 C 9.4454 2.19463 2.23171 0
M  V30 74 C 9.9204 3.3767 3.09424 0
M  V30 75 N 11.4114 3.37724 3.17012 0
M  V30 76 C 12.1464 4.25837 3.83993 0
M  V30 77 N 11.6424 5.24138 4.53047 0
M  V30 78 N 13.4354 4.1366 3.80581 0
M  V30 79 H 5.5864 2.0565 0.531194 0
M  V30 80 H 7.8494 0.90024 0.297106 0
M  V30 81 H 7.5554 3.10684 1.64828 0
M  V30 82 H 7.4294 2.13923 3.10672 0
M  V30 83 H 9.8164 1.24632 2.6749 0
M  V30 84 H 9.8974 2.2488 1.21912 0
M  V30 85 H 9.5414 4.32791 2.65808 0
M  V30 86 H 9.4714 3.29491 4.10784 0
M  V30 87 H 11.9624 2.6658 2.6785 0
M  V30 88 H 12.2754 5.87684 5.01844 0
M  V30 89 H 10.6204 5.28068 4.5185 0
M  V30 90 H 13.8114 3.36127 3.25785 0
M  V30 91 H 13.9844 4.82538 4.32505 0
M  V30 92 N 7.3905 -1.2043 1.01659 0
M  V30 93 C 8.3205 -2.25466 0.607226 0
M  V30 94 C 9.3015 -1.65853 -0.377716 0
M  V30 95 O 10.4865 -1.92409 -0.263149 0
M  V30 96 C 7.6165 -3.47256 -0.0552949 0
M  V30 97 C 6.5705 -4.19462 0.850632 0
M  V30 98 C 5.8965 -5.34673 0.0538859 0
M  V30 99 C 7.1965 -4.75603 2.15868 0
M  V30 100 H 8.8905 -2.59962 1.48526 0
M  V30 101 H 6.4365 -1.2496 0.715605 0
M  V30 102 H 8.3895 -4.19917 -0.353233 0
M  V30 103 H 7.1135 -3.11924 -0.968045 0
M  V30 104 H 5.7725 -3.48667 1.13257 0
M  V30 105 H 5.4205 -4.95585 -0.860514 0
M  V30 106 H 5.1205 -5.83913 0.657192 0
M  V30 107 H 6.6445 -6.10138 -0.237598 0
M  V30 108 H 8.0585 -5.40083 1.92311 0
M  V30 109 H 6.4555 -5.3528 2.71284 0
M  V30 110 H 7.5255 -3.94346 2.82169 0
M  V30 111 N 8.8686 -0.792821 -1.36206 0
M  V30 112 C 10.2846 -0.474903 -1.52371 0
M  V30 113 C 10.4846 1.00622 -1.74578 0
M  V30 114 O 9.5406 1.79162 -1.77924 0
M  V30 115 C 10.8536 -1.3083 -2.70747 0
M  V30 116 C 12.4016 -1.30234 -2.84619 0
M  V30 117 C 12.8766 -2.11956 -4.06004 0
M  V30 118 N 14.3676 -2.09419 -4.13156 0
M  V30 119 C 15.1026 -2.69419 -5.06163 0
M  V30 120 N 14.5986 -3.3829 -6.04592 0
M  V30 121 N 16.3916 -2.59134 -4.98804 0
M  V30 122 H 8.5426 -1.75222 -1.20046 0
M  V30 123 H 10.8056 -0.745024 -0.586211 0
M  V30 124 H 10.5116 -2.35881 -2.6087 0
M  V30 125 H 10.3856 -0.95196 -3.6499 0
M  V30 126 H 12.7726 -0.259748 -2.93955 0
M  V30 127 H 12.8536 -1.69847 -1.91274 0
M  V30 128 H 12.4976 -3.16248 -3.97429 0
M  V30 129 H 12.4276 -1.69711 -4.98503 0
M  V30 130 H 14.9186 -1.59297 -3.42685 0
M  V30 131 H 15.2316 -3.81394 -6.7213 0
M  V30 132 H 13.5766 -3.42393 -6.04807 0
M  V30 133 H 16.7676 -2.04927 -4.20859 0
M  V30 134 H 16.9406 -3.06185 -5.711 0
M  V30 135 N 10.3467 1.47872 -0.545128 0
M  V30 136 C 11.5947 2.02093 -0.016553 0
M  V30 137 C 11.9157 1.42305 1.3332 0
M  V30 138 O 11.1857 0.593853 1.86682 0
M  V30 139 H 9.7657 0.746993 -0.00313038 0
M  V30 140 H 12.4277 1.81414 -0.712397 0
M  V30 141 H 11.5237 3.11996 0.0805422 0
M  V30 142 N 11.8248 0.280983 1.55075 0
M  V30 143 C 12.7748 -0.618585 2.19448 0
M  V30 144 C 13.7588 -1.11401 1.16098 0
M  V30 145 O 14.9508 -1.0581 1.41891 0
M  V30 146 C 12.0798 -1.79951 2.92357 0
M  V30 147 C 11.1658 -1.321 4.03002 0
M  V30 148 N 11.5568 -0.559044 5.02701 0
M  V30 149 C 9.8548 -1.60346 4.16179 0
M  V30 150 C 10.5558 -0.306722 5.80891 0
M  V30 151 N 9.5318 -0.880825 5.36416 0
M  V30 152 H 13.3338 -0.0286638 2.93886 0
M  V30 153 H 10.8478 0.0848104 1.62178 0
M  V30 154 H 12.8448 -2.45531 3.36927 0
M  V30 155 H 11.5048 -2.39333 2.19431 0
M  V30 156 H 12.5158 -0.205827 5.17491 0
M  V30 157 H 9.1928 -2.20621 3.54447 0
M  V30 158 H 10.5828 0.30391 6.71212 0
M  V30 159 N 13.3029 -1.57598 0.00835791 0
M  V30 160 C 14.5429 -1.92788 -0.679136 0
M  V30 161 C 14.9069 -0.883378 -1.70471 0
M  V30 162 O 16.1079 -1.12079 -2.44319 0
M  V30 163 C 14.3789 -3.32994 -1.29807 0
M  V30 164 S 15.9379 -3.90082 -2.00952 0
M  V30 165 H 12.7559 -0.67475 -0.224127 0
M  V30 166 H 15.3579 -1.95385 0.0670497 0
M  V30 167 H 14.0619 -4.06846 -0.538922 0
M  V30 168 H 13.5929 -3.33791 -2.082 0
M  V30 169 H 15.6079 -3.71834 -3.28563 0
M  V30 170 N 14.781 0.264519 -1.55364 0
M  V30 171 C 15.744 1.31046 -1.88042 0
M  V30 172 C 16.744 1.41943 -0.755569 0
M  V30 173 O 17.934 1.40947 -1.02369 0
M  V30 174 C 15.066 2.69067 -2.09323 0
M  V30 175 H 16.259 1.03297 -2.81549 0
M  V30 176 H 13.812 0.502989 -1.47986 0
M  V30 177 H 14.547 3.01982 -1.18226 0
M  V30 178 H 14.332 2.62542 -2.91229 0
M  V30 179 H 15.822 3.44623 -2.35848 0
M  V30 180 N 16.2591 1.48442 0.529413 0
M  V30 181 C 17.6751 1.34575 0.858004 0
M  V30 182 C 17.8751 0.3572 1.98309 0
M  V30 183 O 16.9311 -0.221379 2.51528 0
M  V30 184 C 18.2441 2.74617 1.22499 0
M  V30 185 C 19.7921 2.83109 1.33484 0
M  V30 186 C 20.2671 4.23854 1.73526 0
M  V30 187 N 21.7581 4.2653 1.80628 0
M  V30 188 C 22.4931 5.32372 2.12997 0
M  V30 189 N 21.9891 6.48491 2.43786 0
M  V30 190 N 23.7821 5.19766 2.14008 0
M  V30 191 H 15.9331 2.1133 -0.212925 0
M  V30 192 H 18.1961 0.947439 -0.0326199 0
M  V30 193 H 17.9021 3.4852 0.471905 0
M  V30 194 H 17.7761 3.08177 2.17501 0
M  V30 195 H 20.1631 2.09462 2.0787 0
M  V30 196 H 20.2441 2.53168 0.366027 0
M  V30 197 H 19.8881 4.98018 0.997013 0
M  V30 198 H 19.8181 4.5124 2.71459 0
M  V30 199 H 22.3091 3.42772 1.59108 0
M  V30 200 H 22.6221 7.24993 2.67592 0
M  V30 201 H 20.9671 6.51765 2.41304 0
M  V30 202 H 24.1581 4.28066 1.89412 0
M  V30 203 H 24.3311 6.02354 2.38902 0
M  V30 204 N 17.7372 -0.778329 1.37039 0
M  V30 205 C 18.7002 -1.87301 1.32102 0
M  V30 206 C 19.7002 -1.59198 0.226405 0
M  V30 207 O 20.8902 -1.67403 0.481861 0
M  V30 208 C 18.0222 -3.24309 1.05055 0
M  V30 209 H 19.2152 -1.93093 2.29467 0
M  V30 210 H 16.7682 -0.977358 1.21973 0
M  V30 211 H 17.5032 -3.24196 0.0819373 0
M  V30 212 H 17.2882 -3.46098 1.84279 0
M  V30 213 H 18.7782 -4.04382 1.04234 0
M  V30 214 N 19.2153 -1.21501 -1.00376 0
M  V30 215 C 20.4633 -1.03095 -1.73827 0
M  V30 216 C 20.7843 0.436341 -1.90055 0
M  V30 217 O 20.0543 1.31466 -1.45236 0
M  V30 218 H 18.6343 -0.378487 -0.644016 0
M  V30 219 H 21.2963 -1.52831 -1.20949 0
M  V30 220 H 20.3923 -1.49991 -2.73695 0
M  V30 221 N 20.6934 1.19889 -1.02296 0
M  V30 222 C 21.6404 2.22901 -0.598651 0
M  V30 223 C 22.6104 1.61588 0.384521 0
M  V30 224 O 23.7954 1.88697 0.282522 0
M  V30 225 C 20.9354 3.45063 0.0504476 0
M  V30 226 C 20.0484 4.20783 -0.978053 0
M  V30 227 C 19.1834 5.30356 -0.299338 0
M  V30 228 C 18.2224 5.97826 -1.31416 0
M  V30 229 N 17.3594 6.98975 -0.661667 0
M  V30 230 H 22.1994 2.58554 -1.48169 0
M  V30 231 H 19.7364 1.27039 -0.741584 0
M  V30 232 H 21.6944 4.14831 0.443971 0
M  V30 233 H 20.3244 3.10084 0.897097 0
M  V30 234 H 19.3764 3.50018 -1.48969 0
M  V30 235 H 20.6884 4.67109 -1.74958 0
M  V30 236 H 19.8424 6.06516 0.149347 0
M  V30 237 H 18.5814 4.85084 0.504445 0
M  V30 238 H 17.5864 5.20422 -1.77317 0
M  V30 239 H 18.8114 6.45183 -2.11933 0
M  V30 240 H 16.7574 6.55886 0.122132 0
M  V30 241 H 16.6744 7.43461 -1.37117 0
M  V30 242 H 17.9424 7.7914 -0.236785 0
M  V30 243 N 22.1715 0.800033 1.35784 0
M  V30 244 C 23.3965 0.388511 2.03729 0
M  V30 245 C 23.8215 -0.990481 1.5991 0
M  V30 246 O 23.1795 -1.64013 0.772612 0
M  V30 247 C 23.2275 0.4726 3.5749 0
M  V30 248 O 22.3315 -0.51646 4.09153 0
M  V30 249 H 21.6725 0.163271 0.643614 0
M  V30 250 H 24.2025 1.0841 1.73518 0
M  V30 251 H 24.2125 0.34003 4.06581 0
M  V30 252 H 22.8875 1.47848 3.88734 0
M  V30 253 H 21.4645 -0.344673 3.71304 0
M  V30 254 N 23.6496 -1.47581 0.552962 0
M  V30 255 C 24.8956 -2.02782 0.0273648 0
M  V30 256 C 25.2286 -1.42687 -1.31734 0
M  V30 257 O 24.5036 -0.580897 -1.85623 0
M  V30 258 C 24.7866 -3.60031 -0.0702371 0
M  V30 259 C 24.6396 -4.30566 1.30126 0
M  V30 260 C 25.9586 -4.33028 -0.785771 0
M  V30 261 H 23.0776 -0.736912 0.0114185 0
M  V30 262 H 25.7196 -1.76056 0.714432 0
M  V30 263 H 23.8696 -3.82932 -0.655382 0
M  V30 264 H 25.5416 -4.19018 1.92929 0
M  V30 265 H 23.7846 -3.91086 1.87709 0
M  V30 266 H 24.4556 -5.39114 1.18573 0
M  V30 267 H 26.9316 -4.15095 -0.288982 0
M  V30 268 H 25.8076 -5.42695 -0.823013 0
M  V30 269 H 26.0686 -4.01945 -1.841 0
M  V30 270 N 25.1277 -0.289203 -1.54924 0
M  V30 271 C 26.5437 0.0645403 -1.59469 0
M  V30 272 C 26.7437 1.53419 -1.30632 0
M  V30 273 O 25.7997 2.2852 -1.074 0
M  V30 274 C 27.1127 -0.32278 -2.98963 0
M  V30 275 C 28.6607 -0.270564 -3.11828 0
M  V30 276 C 29.1357 -0.632532 -4.53611 0
M  V30 277 N 30.6267 -0.584617 -4.59496 0
M  V30 278 C 31.3617 -0.837314 -5.67254 0
M  V30 279 N 30.8577 -1.15536 -6.83098 0
M  V30 280 N 32.6507 -0.765166 -5.56868 0
M  V30 281 H 24.8017 -1.24714 -1.71931 0
M  V30 282 H 27.0647 -0.504809 -0.802416 0
M  V30 283 H 26.7707 -1.34541 -3.24948 0
M  V30 284 H 26.6447 0.32944 -3.75759 0
M  V30 285 H 29.0317 0.742805 -2.85598 0
M  V30 286 H 29.1127 -0.957242 -2.37214 0
M  V30 287 H 28.7567 -1.64365 -4.80569 0
M  V30 288 H 28.6867 0.07609 -5.26545 0
M  V30 289 H 31.1777 -0.349248 -3.76283 0
M  V30 290 H 31.4907 -1.33447 -7.61191 0
M  V30 291 H 29.8357 -1.19328 -6.84679 0
M  V30 292 H 33.0267 -0.516432 -4.65243 0
M  V30 293 H 33.1997 -0.965477 -6.40767 0
M  V30 294 N 26.6058 1.57591 -0.0167156 0
M  V30 295 C 27.5358 2.12496 0.967858 0
M  V30 296 C 28.5168 1.03807 1.34752 0
M  V30 297 O 29.7018 1.31577 1.42833 0
M  V30 298 C 26.8318 2.64194 2.25431 0
M  V30 299 C 25.7858 3.77559 2.01576 0
M  V30 300 C 25.1118 4.15636 3.36379 0
M  V30 301 C 26.4118 5.04151 1.36489 0
M  V30 302 H 28.1058 2.95013 0.510643 0
M  V30 303 H 25.6518 1.41915 0.244181 0
M  V30 304 H 27.6048 3.01236 2.94678 0
M  V30 305 H 26.3288 1.78821 2.73296 0
M  V30 306 H 24.9878 3.40937 1.34751 0
M  V30 307 H 24.6358 3.27263 3.81979 0
M  V30 308 H 24.3358 4.92022 3.21229 0
M  V30 309 H 25.8598 4.5525 4.06915 0
M  V30 310 H 27.2738 5.38857 1.95718 0
M  V30 311 H 25.6708 5.85453 1.31776 0
M  V30 312 H 26.7408 4.83733 0.336219 0
M  V30 313 N 28.0839 -0.256276 1.55502 0
M  V30 314 C 29.0469 -1.30047 1.88734 0
M  V30 315 C 30.0469 -1.4154 0.763086 0
M  V30 316 O 31.2369 -1.40403 1.03115 0
M  V30 317 C 28.3689 -2.67953 2.10747 0
M  V30 318 H 29.5619 -1.01802 2.82093 0
M  V30 319 H 27.1149 -0.495134 1.4825 0
M  V30 320 H 27.8499 -3.01351 1.19825 0
M  V30 321 H 27.6349 -2.60993 2.92617 0
M  V30 322 H 29.1249 -3.43368 2.37673 0
M  V30 323 N 29.562 -1.4872 -0.521534 0
M  V30 324 C 30.787 -1.61101 -1.30618 0
M  V30 325 C 31.212 -0.274611 -1.86085 0
M  V30 326 O 30.57 0.754937 -1.64834 0
M  V30 327 C 30.618 -2.66709 -2.4269 0
M  V30 328 O 29.722 -2.24456 -3.45967 0
M  V30 329 H 29.063 -0.539921 -0.386499 0
M  V30 330 H 31.593 -1.94767 -0.626645 0
M  V30 331 H 31.603 -2.88245 -2.88754 0
M  V30 332 H 30.278 -3.63727 -2.01682 0
M  V30 333 H 28.855 -2.13168 -3.05964 0
M  V30 334 N 31.0401 0.771051 -1.3745 0
M  V30 335 C 32.2651 1.56529 -1.36065 0
M  V30 336 C 32.6901 1.88029 0.0515859 0
M  V30 337 O 32.0481 1.49282 1.02882 0
M  V30 338 C 32.0961 2.85187 -2.20683 0
M  V30 339 O 31.2001 3.79593 -1.61193 0
M  V30 340 H 30.5411 0.47411 -0.464883 0
M  V30 341 H 33.0711 0.954269 -1.80983 0
M  V30 342 H 33.0811 3.34283 -2.33921 0
M  V30 343 H 31.7561 2.61588 -3.23334 0
M  V30 344 H 30.3331 3.38239 -1.56999 0
M  V30 345 N 32.5182 1.22032 0.997298 0
M  V30 346 C 33.7662 1.04016 1.73278 0
M  V30 347 C 34.0872 -0.426255 1.90284 0
M  V30 348 O 33.3572 -1.30694 1.45931 0
M  V30 349 H 31.9372 0.381897 0.642 0
M  V30 350 H 34.5992 1.5347 1.20137 0
M  V30 351 H 33.6952 1.51441 2.72896 0
M  V30 352 N 33.9963 -1.19345 1.0293 0
M  V30 353 C 34.9293 -2.21347 0.555029 0
M  V30 354 C 35.9073 -1.57492 -0.404351 0
M  V30 355 O 37.0913 -1.85741 -0.321352 0
M  V30 356 C 34.2183 -3.38163 -0.19064 0
M  V30 357 C 33.2643 -4.20375 0.720236 0
M  V30 358 S 34.0973 -4.88371 2.19668 0
M  V30 359 C 35.2533 -6.08597 1.46153 0
M  V30 360 H 35.4863 -2.61235 1.41929 0
M  V30 361 H 33.0193 -1.29598 0.839272 0
M  V30 362 H 34.9773 -4.05871 -0.614724 0
M  V30 363 H 33.6383 -2.9671 -1.03063 0
M  V30 364 H 32.8313 -5.03793 0.14455 0
M  V30 365 H 32.4333 -3.57987 1.08266 0
M  V30 366 H 34.7253 -6.73354 0.748357 0
M  V30 367 H 35.6683 -6.7065 2.27233 0
M  V30 368 H 36.0763 -5.56297 0.958842 0
M  V30 369 N 35.4744 -0.807222 -1.35358 0
M  V30 370 C 36.7024 -0.400377 -2.02989 0
M  V30 371 C 37.1174 0.988859 -1.60832 0
M  V30 372 O 36.4744 1.63729 -0.806175 0
M  V30 373 C 36.5254 -0.474867 -3.58368 0
M  V30 374 O 36.2464 -1.80933 -3.98992 0
M  V30 375 C 37.7474 -0.0609112 -4.43258 0
M  V30 376 H 34.9674 -0.162587 -0.651004 0
M  V30 377 H 37.5114 -1.09102 -1.72965 0
M  V30 378 H 35.6664 0.167534 -3.87038 0
M  V30 379 H 36.0804 -1.77256 -4.9364 0
M  V30 380 H 37.5544 -0.164145 -5.51756 0
M  V30 381 H 38.0314 0.993831 -4.27808 0
M  V30 382 H 38.6374 -0.676492 -4.19885 0
M  V30 383 N 36.9525 1.47285 -0.560781 0
M  V30 384 C 38.3685 1.58065 -0.22081 0
M  V30 385 C 38.5685 1.55892 1.27671 0
M  V30 386 O 37.6245 1.46422 2.0571 0
M  V30 387 C 38.9375 2.88418 -0.850625 0
M  V30 388 C 40.4855 3.02009 -0.822184 0
M  V30 389 C 40.9605 4.35066 -1.43113 0
M  V30 390 N 42.4515 4.41711 -1.39448 0
M  V30 391 C 43.1865 5.43237 -1.83525 0
M  V30 392 N 42.6825 6.51555 -2.35474 0
M  V30 393 N 44.4755 5.34304 -1.74574 0
M  V30 394 H 36.6265 1.46941 -1.53369 0
M  V30 395 H 38.8895 0.699558 -0.639783 0
M  V30 396 H 38.5955 2.95755 -1.9032 0
M  V30 397 H 38.4695 3.75612 -0.345773 0
M  V30 398 H 40.8565 2.94266 0.221714 0
M  V30 399 H 40.9375 2.16347 -1.36483 0
M  V30 400 H 40.5815 4.43565 -2.47412 0
M  V30 401 H 40.5115 5.19465 -0.863899 0
M  V30 402 H 43.0025 3.64027 -1.01452 0
M  V30 403 H 43.3155 7.25203 -2.67021 0
M  V30 404 H 41.6605 6.52435 -2.39487 0
M  V30 405 H 44.8515 4.48581 -1.33763 0
M  V30 406 H 45.0245 6.13288 -2.09242 0
M  V30 407 N 38.4306 0.297415 1.54768 0
M  V30 408 C 39.8466 -0.0560823 1.59501 0
M  V30 409 C 40.0466 -1.52725 1.31444 0
M  V30 410 O 39.1026 -2.27947 1.08611 0
M  V30 411 C 40.4156 0.338631 2.98787 0
M  V30 412 C 41.9636 0.287097 3.11681 0
M  V30 413 C 42.4386 0.656579 4.53269 0
M  V30 414 N 43.9296 0.608977 4.59179 0
M  V30 415 C 44.6646 0.867385 5.66802 0
M  V30 416 N 44.1606 1.19157 6.82476 0
M  V30 417 N 45.9536 0.794687 5.56454 0
M  V30 418 H 38.1046 1.25624 1.71267 0
M  V30 419 H 40.3676 0.509057 0.799728 0
M  V30 420 H 40.0736 1.36263 3.2423 0
M  V30 421 H 39.9476 -0.309508 3.75928 0
M  V30 422 H 42.3346 -0.727649 2.85988 0
M  V30 423 H 42.4156 0.969809 2.36703 0
M  V30 424 H 42.0596 1.66912 4.7969 0
M  V30 425 H 41.9896 -0.0481649 5.26578 0
M  V30 426 H 44.4806 0.369198 3.76092 0
M  V30 427 H 44.7936 1.37482 7.60473 0
M  V30 428 H 43.1386 1.22958 6.84037 0
M  V30 429 H 46.3296 0.541098 4.64962 0
M  V30 430 H 46.5026 0.999445 6.40246 0
M  V30 431 N 39.9087 -1.5758 0.0250728 0
M  V30 432 C 41.1857 -1.82917 -0.692873 0
M  V30 433 C 41.5657 -0.908137 -1.90568 0
M  V30 434 O 40.9137 0.0372298 -2.2847 0
M  V30 435 C 41.1237 -3.32034 -1.07492 0
M  V30 436 C 42.4717 -3.98406 -1.46826 0
M  V30 437 O 43.4957 -3.36505 -1.16801 0
M  V30 438 O 42.3547 -5.07497 -2.02754 0
M  V30 439 H 39.4487 -0.754079 -0.33955 0
M  V30 440 H 41.9947 -1.69619 0.0524456 0
M  V30 441 H 40.7667 -3.90728 -0.211552 0
M  V30 442 H 40.3897 -3.50424 -1.87854 0
M  V30 443 N 41.3868 0.248026 -1.55636 0
M  V30 444 C 42.7978 0.817177 -1.67866 0
M  V30 445 C 43.1488 1.86069 -0.622322 0
M  V30 446 O 42.2738 2.15157 0.231618 0
M  V30 447 C 42.8688 1.489 -3.04326 0
M  V30 448 C 41.4278 2.00587 -3.185 0
M  V30 449 C 40.5748 0.856573 -2.63739 0
M  V30 450 H 43.5258 0.0238579 -1.58682 0
M  V30 451 H 43.5468 2.35698 -2.98708 0
M  V30 452 H 43.0588 0.729279 -3.81186 0
M  V30 453 H 41.1598 2.79443 -2.4646 0
M  V30 454 H 41.2728 2.20402 -4.25393 0
M  V30 455 H 39.6368 1.25678 -2.21534 0
M  V30 456 H 40.4198 0.109953 -3.43124 0
M  V30 457 N 42.8649 1.48995 0.513639 0
M  V30 458 C 43.7949 1.67636 1.62544 0
M  V30 459 C 44.7759 0.525087 1.61793 0
M  V30 460 O 45.9609 0.759502 1.78732 0
M  V30 461 C 43.0909 1.73114 3.01079 0
M  V30 462 C 42.0449 2.87905 3.16693 0
M  V30 463 C 41.3709 2.78486 4.56453 0
M  V30 464 C 42.6709 4.29005 2.97913 0
M  V30 465 H 44.3649 2.60716 1.47198 0
M  V30 466 H 41.9109 1.25465 0.706714 0
M  V30 467 H 43.8639 1.84742 3.78746 0
M  V30 468 H 42.5879 0.766241 3.17484 0
M  V30 469 H 41.2469 2.75859 2.41448 0
M  V30 470 H 40.8949 1.7993 4.69717 0
M  V30 471 H 40.5949 3.55523 4.67843 0
M  V30 472 H 42.1189 2.92104 5.36197 0
M  V30 473 H 43.5329 4.41798 3.65359 0
M  V30 474 H 41.9299 5.07166 3.20785 0
M  V30 475 H 42.9999 4.44329 1.94165 0
M  V30 476 N 44.343 -0.763751 1.37857 0
M  V30 477 C 45.571 -1.55293 1.36718 0
M  V30 478 C 45.986 -1.88745 -0.0455434 0
M  V30 479 O 45.343 -1.52039 -1.00947 0
M  V30 480 C 45.394 -2.85831 2.2132 0
M  V30 481 O 45.115 -2.5381 3.57089 0
M  V30 482 C 46.616 -3.80023 2.28249 0
M  V30 483 H 43.836 -0.480841 0.468009 0
M  V30 484 H 46.38 -0.946009 1.81303 0
M  V30 485 H 44.535 -3.42926 1.80223 0
M  V30 486 H 44.949 -3.37459 4.01524 0
M  V30 487 H 46.423 -4.68599 2.91752 0
M  V30 488 H 46.9 -4.1973 1.2932 0
M  V30 489 H 47.506 -3.28855 2.69693 0
M  V30 490 N 45.8211 -1.22559 -0.990812 0
M  V30 491 C 46.7691 -0.994798 -2.10253 0
M  V30 492 C 47.7631 0.0627798 -1.69284 0
M  V30 493 O 48.9691 -0.0898392 -1.79776 0
M  V30 494 H 45.3441 -0.304527 -0.687581 0
M  V30 495 H 47.3151 -1.93812 -2.26891 0
M  V30 496 C 46.0641 -0.591439 -3.42633 0
M  V30 497 H 45.3871 -1.3969 -3.74602 0
M  V30 498 H 46.8271 -0.469385 -4.21394 0
M  V30 499 C 45.2861 0.699232 -3.29564 0
M  V30 500 O 45.8161 1.75112 -3.61523 0
M  V30 501 N 44.0221 0.671182 -2.82743 0
M  V30 502 H 43.5691 -0.185136 -2.56934 0
M  V30 503 H 43.5271 1.53502 -2.7438 0
M  V30 504 N 47.2992 1.18797 -1.03562 0
M  V30 505 C 48.2462 2.22253 -0.622259 0
M  V30 506 C 49.2162 1.61987 0.36736 0
M  V30 507 O 50.4012 1.88986 0.262492 0
M  V30 508 C 47.5412 3.45097 0.0138462 0
M  V30 509 C 46.6542 4.19722 -1.02263 0
M  V30 510 C 45.7892 5.30009 -0.355573 0
M  V30 511 C 44.8282 5.96399 -1.37749 0
M  V30 512 N 43.9652 6.98234 -0.735766 0
M  V30 513 H 48.8052 2.56968 -1.50903 0
M  V30 514 H 46.3422 1.26245 -0.755017 0
M  V30 515 H 48.3002 4.15279 0.399948 0
M  V30 516 H 46.9302 3.11018 0.864158 0
M  V30 517 H 45.9822 3.48418 -1.52673 0
M  V30 518 H 47.2942 4.65227 -1.79903 0
M  V30 519 H 46.4482 6.0664 0.0850095 0
M  V30 520 H 45.1872 4.85592 0.452967 0
M  V30 521 H 44.1922 5.18512 -1.82826 0
M  V30 522 H 45.4172 6.42899 -2.18764 0
M  V30 523 H 43.3632 6.55979 0.0525597 0
M  V30 524 H 43.2802 7.41965 -1.44995 0
M  V30 525 H 44.5482 7.78845 -0.31941 0
M  V30 526 N 48.7773 0.814389 1.34928 0
M  V30 527 C 50.0233 0.399013 1.98836 0
M  V30 528 C 50.3563 -1.03314 1.64438 0
M  V30 529 O 49.6313 -1.71811 0.911659 0
M  V30 530 C 49.9143 0.591629 3.55207 0
M  V30 531 C 49.7673 2.06928 3.99376 0
M  V30 532 C 51.0863 0.022199 4.40094 0
M  V30 533 H 48.2053 0.146451 0.722303 0
M  V30 534 H 50.8473 1.02537 1.59957 0
M  V30 535 H 48.9973 0.0584441 3.88456 0
M  V30 536 H 50.6693 2.66544 3.76499 0
M  V30 537 H 48.9123 2.56287 3.49999 0
M  V30 538 H 49.5833 2.1549 5.08201 0
M  V30 539 H 52.0593 0.477643 4.13349 0
M  V30 540 H 50.9353 0.186832 5.48582 0
M  V30 541 H 51.1963 -1.07215 4.28902 0
M  V30 542 N 50.2554 -1.46986 0.568584 0
M  V30 543 C 51.2184 -2.28624 -0.162366 0
M  V30 544 C 52.2184 -1.37596 -0.832103 0
M  V30 545 O 53.4084 -1.60115 -0.68622 0
M  V30 546 C 50.5404 -3.17596 -1.23878 0
M  V30 547 H 51.7334 -2.94722 0.554899 0
M  V30 548 H 49.2864 -1.52863 0.325976 0
M  V30 549 H 50.0214 -2.56214 -1.98808 0
M  V30 550 H 49.8064 -3.846 -0.763219 0
M  V30 551 H 51.2964 -3.79078 -1.75185 0
M  V30 552 N 51.7335 -0.305618 -1.54608 0
M  V30 553 C 52.6635 0.561482 -2.26649 0
M  V30 554 C 53.6445 1.13415 -1.26772 0
M  V30 555 O 54.8295 1.16262 -1.55553 0
M  V30 556 C 51.9595 1.73122 -3.01075 0
M  V30 557 C 50.9135 1.2887 -4.08138 0
M  V30 558 C 50.2395 2.54396 -4.70305 0
M  V30 559 C 51.5395 0.416578 -5.20636 0
M  V30 560 H 53.2335 -0.0393902 -2.99374 0
M  V30 561 H 50.7795 -0.020385 -1.43986 0
M  V30 562 H 52.7325 2.34396 -3.50195 0
M  V30 563 H 51.4565 2.3584 -2.25936 0
M  V30 564 H 50.1155 0.698991 -3.59875 0
M  V30 565 H 49.7635 3.15439 -3.918 0
M  V30 566 H 49.4635 2.25486 -5.42614 0
M  V30 567 H 50.9875 3.16464 -5.2219 0
M  V30 568 H 52.4015 0.935116 -5.65622 0
M  V30 569 H 50.7985 0.221046 -5.99693 0
M  V30 570 H 51.8685 -0.557162 -4.81688 0
M  V30 571 N 53.2116 1.57565 -0.0334293 0
M  V30 572 C 54.4576 1.92262 0.645226 0
M  V30 573 C 54.7906 0.910543 1.71531 0
M  V30 574 O 54.0656 -0.066099 1.94388 0
M  V30 575 C 54.3486 3.37422 1.2577 0
M  V30 576 C 54.2016 4.49369 0.196891 0
M  V30 577 C 55.5206 3.82628 2.17449 0
M  V30 578 H 52.6396 0.699171 0.233085 0
M  V30 579 H 55.2816 1.89779 -0.0915694 0
M  V30 580 H 53.4316 3.39669 1.88566 0
M  V30 581 H 55.1036 4.59254 -0.433962 0
M  V30 582 H 53.3466 4.31168 -0.477137 0
M  V30 583 H 54.0176 5.47978 0.665124 0
M  V30 584 H 56.4936 3.82145 1.64634 0
M  V30 585 H 55.3696 4.84883 2.57254 0
M  V30 586 H 55.6306 3.18376 3.0674 0
M  V30 587 N 54.6897 -0.239769 1.55765 0
M  V30 588 C 55.9177 -0.98417 1.81994 0
M  V30 589 C 56.3327 -1.7867 0.610124 0
M  V30 590 O 55.6897 -1.77571 -0.421271 0
M  V30 591 C 55.7407 -1.91635 3.06526 0
M  V30 592 O 55.4617 -1.14629 4.22838 0
M  V30 593 C 56.9627 -2.77616 3.45607 0
M  V30 594 H 54.1827 -0.28928 0.605441 0
M  V30 595 H 56.7267 -0.260499 2.02834 0
M  V30 596 H 54.8817 -2.5942 2.87715 0
M  V30 597 H 55.2957 -1.77745 4.93464 0
M  V30 598 H 56.7697 -3.38759 4.35828 0
M  V30 599 H 57.2467 -3.4909 2.6652 0
M  V30 600 H 57.8527 -2.15271 3.66795 0
M  V30 601 N 56.1678 -1.49265 -0.50573 0
M  V30 602 C 57.1308 -1.65075 -1.59006 0
M  V30 603 C 58.1308 -0.522768 -1.52065 0
M  V30 604 O 59.3208 -0.789117 -1.55302 0
M  V30 605 C 56.4528 -1.64369 -2.98656 0
M  V30 606 H 57.6458 -2.61784 -1.46319 0
M  V30 607 H 55.1988 -1.38226 -0.729616 0
M  V30 608 H 55.9338 -0.692272 -3.16825 0
M  V30 609 H 55.7188 -2.46282 -3.05103 0
M  V30 610 H 57.2088 -1.78674 -3.77446 0
M  V30 611 N 57.6459 0.756429 -1.3826 0
M  V30 612 C 58.8709 1.55077 -1.37717 0
M  V30 613 C 59.2959 1.88073 0.03164 0
M  V30 614 O 58.6539 1.50364 1.01293 0
M  V30 615 C 58.7019 2.8283 -2.23695 0
M  V30 616 O 57.8059 3.77862 -1.6521 0
M  V30 617 H 57.1469 0.469152 -0.469885 0
M  V30 618 H 59.6769 0.935019 -1.81985 0
M  V30 619 H 59.6869 3.31783 -2.37453 0
M  V30 620 H 58.3619 2.58144 -3.2609 0
M  V30 621 H 56.9389 3.36555 -1.60578 0
M  V30 622 N 59.124 1.23083 0.984299 0
M  V30 623 C 60.352 1.08714 1.76037 0
M  V30 624 C 60.767 -0.361691 1.85303 0
M  V30 625 O 60.124 -1.25034 1.32939 0
M  V30 626 C 60.175 1.70206 3.18923 0
M  V30 627 O 59.896 3.09423 3.10144 0
M  V30 628 C 61.397 1.61227 4.12941 0
M  V30 629 H 58.617 0.380664 0.552572 0
M  V30 630 H 61.161 1.62853 1.23689 0
M  V30 631 H 59.316 1.20109 3.6831 0
M  V30 632 H 59.73 3.39188 4.00065 0
M  V30 633 H 61.204 2.08962 5.10919 0
M  V30 634 H 61.681 0.570375 4.35481 0
M  V30 635 H 62.287 2.10671 3.69456 0
M  V30 636 N 60.6021 -1.18246 1.0419 0
M  V30 637 C 61.8791 -1.84121 0.660208 0
M  V30 638 C 62.2591 -1.92778 -0.860221 0
M  V30 639 O 61.6071 -1.45464 -1.76217 0
M  V30 640 C 61.8171 -3.22355 1.33747 0
M  V30 641 C 63.1651 -3.98376 1.46906 0
M  V30 642 O 64.1891 -3.31799 1.29568 0
M  V30 643 O 63.0481 -5.17665 1.75171 0
M  V30 644 H 60.1421 -0.794036 0.231161 0
M  V30 645 H 62.6881 -1.25628 1.14087 0
M  V30 646 H 61.4601 -3.10964 2.37522 0
M  V30 647 H 61.0831 -3.88506 0.845515 0
M  V30 648 N 62.0802 -0.821533 -1.34494 0
M  V30 649 C 63.3262 -0.418729 -1.99043 0
M  V30 650 C 63.6812 1.00672 -1.6396 0
M  V30 651 O 62.9742 1.69132 -0.900271 0
M  V30 652 C 63.1682 -0.556512 -3.53041 0
M  V30 653 C 62.9972 -1.9938 -4.03085 0
M  V30 654 C 61.7672 -2.62539 -4.31742 0
M  V30 655 C 63.9652 -2.96035 -4.20556 0
M  V30 656 N 61.9472 -3.97523 -4.67813 0
M  V30 657 C 63.3182 -4.15924 -4.59791 0
M  V30 658 C 65.3732 -2.9267 -4.02801 0
M  V30 659 C 64.0762 -5.32899 -4.83126 0
M  V30 660 C 66.1022 -4.08861 -4.27302 0
M  V30 661 C 65.4642 -5.275 -4.66822 0
M  V30 662 H 61.5632 -0.201299 -0.755647 0
M  V30 663 H 64.1472 -1.06594 -1.62929 0
M  V30 664 H 62.3182 0.0607924 -3.88352 0
M  V30 665 H 64.0502 -0.126842 -4.04501 0
M  V30 666 H 60.8052 -2.13789 -4.22601 0
M  V30 667 H 61.2292 -4.67061 -4.90085 0
M  V30 668 H 65.8712 -2.02088 -3.71376 0
M  V30 669 H 63.5892 -6.24041 -5.13418 0
M  V30 670 H 67.1752 -4.07654 -4.15101 0
M  V30 671 H 66.0552 -6.15913 -4.85408 0
M  V30 672 N 63.5583 1.46682 -0.576371 0
M  V30 673 C 64.8073 2.01619 -0.0572825 0
M  V30 674 C 65.1203 1.45417 1.30818 0
M  V30 675 O 66.3263 1.92133 1.91825 0
M  V30 676 C 64.7823 3.59863 -0.0518371 0
M  V30 677 C 64.3903 4.25059 -1.41523 0
M  V30 678 C 66.1343 4.2248 0.413639 0
M  V30 679 C 64.0413 5.75364 -1.36785 0
M  V30 680 H 62.9713 0.753794 -0.0176448 0
M  V30 681 H 65.6223 1.68481 -0.727076 0
M  V30 682 H 64.0043 3.90048 0.683994 0
M  V30 683 H 65.1783 4.06491 -2.17029 0
M  V30 684 H 63.4933 3.7451 -1.8202 0
M  V30 685 H 66.0903 5.3265 0.467779 0
M  V30 686 H 66.4333 3.90976 1.42982 0
M  V30 687 H 66.9663 3.96897 -0.267929 0
M  V30 688 H 63.7053 6.11518 -2.36063 0
M  V30 689 H 63.2253 5.96214 -0.654895 0
M  V30 690 H 64.9043 6.37955 -1.07805 0
M  V30 691 N 65.0364 0.313813 1.54444 0
M  V30 692 C 66.2844 -0.291099 1.99993 0
M  V30 693 C 66.6054 -1.53418 1.20366 0
M  V30 694 O 65.8754 -1.93544 0.302927 0
M  V30 695 H 64.4554 -0.110552 0.738774 0
M  V30 696 H 67.1174 0.428106 1.9014 0
M  V30 697 H 66.2134 -0.554268 3.07139 0
M  V30 698 N 66.5145 -1.57545 0.0417849 0
M  V30 699 C 67.7615 -1.92317 -0.634082 0
M  V30 700 C 68.0895 -0.919334 -1.71402 0
M  V30 701 O 67.3445 0.0698253 -1.95575 0
M  V30 702 C 67.6435 -3.33794 -1.27735 0
M  V30 703 C 67.3095 -4.49716 -0.326543 0
M  V30 704 C 65.9715 -4.81156 -0.0648814 0
M  V30 705 C 68.3235 -5.20182 0.325623 0
M  V30 706 C 65.6515 -5.80414 0.856539 0
M  V30 707 C 68.0035 -6.20424 1.23518 0
M  V30 708 C 66.6675 -6.50298 1.5056 0
M  V30 709 H 65.9375 -0.703736 -0.232027 0
M  V30 710 H 68.5845 -1.91205 0.106259 0
M  V30 711 H 66.8895 -3.31228 -2.09274 0
M  V30 712 H 68.5865 -3.57975 -1.80707 0
M  V30 713 H 65.1765 -4.25176 -0.540665 0
M  V30 714 H 69.3605 -4.96112 0.136546 0
M  V30 715 H 64.6165 -6.019 1.07363 0
M  V30 716 H 68.7905 -6.74141 1.74664 0
M  V30 717 H 66.4175 -7.27025 2.22123 0
M  V30 718 N 67.9926 0.231505 -1.5589 0
M  V30 719 C 68.9556 1.27028 -1.90779 0
M  V30 720 C 69.9556 1.40308 -0.785507 0
M  V30 721 O 71.1456 1.38744 -1.05336 0
M  V30 722 C 68.2776 2.64566 -2.14983 0
M  V30 723 H 69.4706 0.973017 -2.83677 0
M  V30 724 H 67.0236 0.471486 -1.49019 0
M  V30 725 H 67.7586 2.99406 -1.24604 0
M  V30 726 H 67.5436 2.56305 -2.96732 0
M  V30 727 H 69.0336 3.39543 -2.43105 0
M  V30 728 N 69.4707 1.49531 0.497807 0
M  V30 729 C 70.7167 1.59415 1.25358 0
M  V30 730 C 71.0497 0.281422 1.9215 0
M  V30 731 O 70.3247 -0.715249 1.80871 0
M  V30 732 C 70.6077 2.75566 2.3181 0
M  V30 733 C 70.4607 4.16642 1.69498 0
M  V30 734 C 71.7797 2.87347 3.33346 0
M  V30 735 H 68.8987 0.580244 0.454408 0
M  V30 736 H 71.5407 1.81827 0.551262 0
M  V30 737 H 69.6907 2.56587 2.91711 0
M  V30 738 H 71.3627 4.47145 1.13399 0
M  V30 739 H 69.6057 4.22141 0.998978 0
M  V30 740 H 70.2767 4.93792 2.46725 0
M  V30 741 H 72.7527 3.04634 2.83438 0
M  V30 742 H 71.6287 3.70289 4.05188 0
M  V30 743 H 71.8897 1.96834 3.95865 0
M  V30 744 N 70.9488 -0.749086 1.3866 0
M  V30 745 C 71.9118 -1.84457 1.36045 0
M  V30 746 C 72.9118 -1.58682 0.260122 0
M  V30 747 O 74.1018 -1.66343 0.517261 0
M  V30 748 C 71.2338 -3.22008 1.11911 0
M  V30 749 H 72.4268 -1.88182 2.33512 0
M  V30 750 H 69.9798 -0.951266 1.24019 0
M  V30 751 H 70.7148 -3.2395 0.150686 0
M  V30 752 H 70.4998 -3.42111 1.91579 0
M  V30 753 H 71.9898 -4.0208 1.12788 0
M  V30 754 N 72.4269 -1.23603 -0.977757 0
M  V30 755 C 73.3589 -0.977369 -2.07317 0
M  V30 756 C 74.3719 0.0495845 -1.62724 0
M  V30 757 O 75.5609 -0.186261 -1.77526 0
M  V30 758 C 72.6609 -0.451216 -3.35883 0
M  V30 759 C 71.8339 -1.53896 -4.09432 0
M  V30 760 C 70.8929 -1.01721 -5.16274 0
M  V30 761 O 69.9189 -1.70676 -5.43009 0
M  V30 762 N 71.1209 0.153594 -5.80297 0
M  V30 763 H 73.8859 -1.92047 -2.30082 0
M  V30 764 H 71.4469 -1.14497 -1.14465 0
M  V30 765 H 73.4389 -0.0871574 -4.04606 0
M  V30 766 H 72.0089 0.397368 -3.10064 0
M  V30 767 H 71.2289 -2.07566 -3.35127 0
M  V30 768 H 72.5169 -2.27037 -4.55337 0
M  V30 769 H 71.9149 0.730323 -5.60966 0
M  V30 770 H 70.4719 0.458892 -6.50183 0
M  V30 771 N 73.905 1.17692 -1.04816 0
M  V30 772 C 75.321 1.39863 -0.768794 0
M  V30 773 C 75.521 1.91118 0.638451 0
M  V30 774 O 74.577 2.10036 1.40146 0
M  V30 775 C 75.89 2.39274 -1.82122 0
M  V30 776 C 77.438 2.52987 -1.843 0
M  V30 777 C 77.913 3.55669 -2.88555 0
M  V30 778 N 79.404 3.63183 -2.87493 0
M  V30 779 C 80.139 4.42381 -3.64811 0
M  V30 780 N 79.635 5.25125 -4.51903 0
M  V30 781 N 81.428 4.37217 -3.53267 0
M  V30 782 H 73.579 0.82752 -1.95617 0
M  V30 783 H 75.842 0.426123 -0.846831 0
M  V30 784 H 75.548 2.08678 -2.83102 0
M  V30 785 H 75.422 3.38725 -1.65967 0
M  V30 786 H 77.809 2.82896 -0.839869 0
M  V30 787 H 77.89 1.53623 -2.04532 0
M  V30 788 H 77.534 3.26499 -3.89051 0
M  V30 789 H 77.464 4.54728 -2.65575 0
M  V30 790 H 79.955 3.04103 -2.24343 0
M  V30 791 H 80.268 5.82728 -5.07591 0
M  V30 792 H 78.613 5.24519 -4.55966 0
M  V30 793 H 81.804 3.71626 -2.84625 0
M  V30 794 H 81.977 4.98696 -4.13771 0
M  V30 795 N 75.3831 0.828654 1.34056 0
M  V30 796 C 76.3131 0.269443 2.3194 0
M  V30 797 C 77.2941 -0.617247 1.58506 0
M  V30 798 O 78.4791 -0.542931 1.86456 0
M  V30 799 C 75.6091 -0.564793 3.42677 0
M  V30 800 C 74.5631 0.225241 4.27407 0
M  V30 801 C 73.8891 -0.7321 5.29664 0
M  V30 802 C 75.1891 1.43663 5.02154 0
M  V30 803 H 76.8831 1.08728 2.7896 0
M  V30 804 H 74.4291 0.524283 1.34117 0
M  V30 805 H 76.3821 -0.966233 4.10173 0
M  V30 806 H 75.1061 -1.41574 2.9432 0
M  V30 807 H 73.7651 0.608117 3.61521 0
M  V30 808 H 73.4131 -1.57916 4.77568 0
M  V30 809 H 73.1131 -0.20767 5.87233 0
M  V30 810 H 74.6371 -1.13128 6.00029 0
M  V30 811 H 76.0511 1.1089 5.62473 0
M  V30 812 H 74.4481 1.89711 5.69324 0
M  V30 813 H 75.5181 2.21181 4.31517 0
M  V30 814 N 76.8612 -1.46375 0.584142 0
M  V30 815 C 77.8242 -2.28784 -0.138108 0
M  V30 816 C 78.8242 -1.38471 -0.817462 0
M  V30 817 O 80.0142 -1.60833 -0.669199 0
M  V30 818 C 77.1462 -3.18892 -1.20503 0
M  V30 819 H 78.3392 -2.94117 0.586127 0
M  V30 820 H 75.8922 -1.52509 0.342171 0
M  V30 821 H 76.6272 -2.58309 -1.96079 0
M  V30 822 H 76.4122 -3.85388 -0.722384 0
M  V30 823 H 77.9022 -3.80914 -1.71155 0
M  V30 824 N 78.3393 -0.321999 -1.54275 0
M  V30 825 C 79.2713 0.578671 -2.21775 0
M  V30 826 C 80.2843 1.08109 -1.21722 0
M  V30 827 O 81.4733 0.994938 -1.482 0
M  V30 828 C 78.5733 1.80661 -2.86731 0
M  V30 829 C 77.7463 1.44314 -4.12907 0
M  V30 830 C 76.8053 2.52845 -4.61472 0
M  V30 831 O 75.8313 2.17054 -5.2619 0
M  V30 832 N 77.0333 3.83748 -4.35566 0
M  V30 833 H 79.7983 0.000709447 -2.997 0
M  V30 834 H 77.3593 -0.145132 -1.61248 0
M  V30 835 H 79.3513 2.52655 -3.16145 0
M  V30 836 H 77.9213 2.29245 -2.12521 0
M  V30 837 H 77.1413 0.554906 -3.90275 0
M  V30 838 H 78.4293 1.17598 -4.95023 0
M  V30 839 H 77.8273 4.15625 -3.83761 0
M  V30 840 H 76.3843 4.51977 -4.69638 0
M  V30 841 N 79.8174 1.5752 -0.0501392 0
M  V30 842 C 81.0944 1.83996 0.663685 0
M  V30 843 C 81.4744 0.938339 1.89099 0
M  V30 844 O 80.8224 -0.00087759 2.285 0
M  V30 845 C 81.0324 3.33702 1.02196 0
M  V30 846 C 82.3804 4.00691 1.40469 0
M  V30 847 O 83.4044 3.38321 1.11433 0
M  V30 848 O 82.2634 5.10658 1.94654 0
M  V30 849 H 79.3574 0.759385 0.32751 0
M  V30 850 H 81.9034 1.69514 -0.0794238 0
M  V30 851 H 80.6754 3.91015 0.149364 0
M  V30 852 H 80.2984 3.53368 1.82255 0
M  V30 853 N 81.2955 -0.223234 1.56011 0
M  V30 854 C 82.5435 -0.946003 1.78592 0
M  V30 855 C 82.8645 -1.84936 0.618349 0
M  V30 856 O 82.1345 -1.92473 -0.364833 0
M  V30 857 H 80.7145 -0.352298 0.658707 0
M  V30 858 H 83.3765 -0.235494 1.93472 0
M  V30 859 H 82.4725 -1.55381 2.70672 0
M  V30 860 N 82.7736 -1.49793 -0.48987 0
M  V30 861 C 83.7366 -1.66752 -1.57246 0
M  V30 862 C 84.7366 -0.538867 -1.51502 0
M  V30 863 O 85.9266 -0.805545 -1.54456 0
M  V30 864 C 83.0586 -1.67528 -2.96896 0
M  V30 865 H 84.2516 -2.63321 -1.43534 0
M  V30 866 H 81.8046 -1.38992 -0.714914 0
M  V30 867 H 82.5396 -0.725837 -3.16073 0
M  V30 868 H 82.3246 -2.49504 -3.02473 0
M  V30 869 H 83.8146 -1.82667 -3.7553 0
M  V30 870 N 84.2517 0.741722 -1.39055 0
M  V30 871 C 85.2017 1.84661 -1.33732 0
M  V30 872 C 86.1857 1.59397 -0.219401 0
M  V30 873 O 87.3777 1.71015 -0.456375 0
M  V30 874 C 84.5067 3.22512 -1.17647 0
M  V30 875 C 83.5927 3.53628 -2.34112 0
M  V30 876 N 83.9837 3.55723 -3.59576 0
M  V30 877 C 82.2817 3.83956 -2.26923 0
M  V30 878 C 82.9827 3.84443 -4.36553 0
M  V30 879 N 81.9587 4.01877 -3.66055 0
M  V30 880 H 85.7607 1.84576 -2.28711 0
M  V30 881 H 83.2747 0.939647 -1.32455 0
M  V30 882 H 85.2717 4.01597 -1.11917 0
M  V30 883 H 83.9317 3.2384 -0.236124 0
M  V30 884 H 84.9427 3.37196 -3.93089 0
M  V30 885 H 81.6197 3.92929 -1.41113 0
M  V30 886 H 83.0097 3.92588 -5.45274 0
M  V30 887 N 85.7298 1.2412 0.971189 0
M  V30 888 C 86.9758 1.08041 1.71625 0
M  V30 889 C 87.3088 -0.380407 1.90438 0
M  V30 890 O 86.5838 -1.28127 1.46334 0
M  V30 891 C 86.8668 1.81682 3.10908 0
M  V30 892 C 86.7198 3.35493 2.99608 0
M  V30 893 C 88.0388 1.58671 4.10501 0
M  V30 894 H 85.1578 0.39388 0.622919 0
M  V30 895 H 87.7998 1.52743 1.13003 0
M  V30 896 H 85.9498 1.43684 3.60953 0
M  V30 897 H 87.6218 3.83068 2.57015 0
M  V30 898 H 85.8648 3.64052 2.35899 0
M  V30 899 H 86.5358 3.82217 3.98264 0
M  V30 900 H 89.0118 1.91719 3.69301 0
M  V30 901 H 87.8878 2.1266 5.06031 0
M  V30 902 H 88.1488 0.524161 4.38982 0
M  V30 903 N 87.2079 -1.17134 1.05439 0
M  V30 904 C 88.4539 -1.87733 0.767077 0
M  V30 905 C 88.7869 -1.8098 -0.704253 0
M  V30 906 O 88.0619 -1.21951 -1.5152 0
M  V30 907 C 88.3449 -3.37659 1.25133 0
M  V30 908 C 88.1979 -3.53149 2.78578 0
M  V30 909 C 89.5169 -4.31768 0.852324 0
M  V30 910 H 86.6359 -0.681687 0.280129 0
M  V30 911 H 89.2779 -1.37732 1.30881 0
M  V30 912 H 87.4279 -3.80373 0.790469 0
M  V30 913 H 89.0999 -3.19434 3.32806 0
M  V30 914 H 87.3429 -2.95345 3.17732 0
M  V30 915 H 88.0139 -4.58403 3.07523 0
M  V30 916 H 90.4899 -3.96909 1.24911 0
M  V30 917 H 89.3659 -5.35199 1.21873 0
M  V30 918 H 89.6269 -4.41429 -0.243485 0
M  V30 919 N 88.686 -0.835752 -1.33615 0
M  V30 920 C 89.932 -0.430596 -1.98176 0
M  V30 921 C 90.265 1.00684 -1.66061 0
M  V30 922 O 89.54 1.70339 -0.938877 0
M  V30 923 C 89.823 -0.648065 -3.5422 0
M  V30 924 C 89.676 -2.13255 -3.96033 0
M  V30 925 C 90.995 -0.0922113 -4.40003 0
M  V30 926 H 88.114 -0.157924 -0.719881 0
M  V30 927 H 90.756 -1.05069 -1.58305 0
M  V30 928 H 88.906 -0.120237 -3.88314 0
M  V30 929 H 90.578 -2.725 -3.72211 0
M  V30 930 H 88.821 -2.61823 -3.45878 0
M  V30 931 H 89.492 -2.23547 -5.04708 0
M  V30 932 H 91.968 -0.543343 -4.12537 0
M  V30 933 H 90.844 -0.274083 -5.48215 0
M  V30 934 H 91.105 1.00378 -4.30554 0
M  V30 935 N 90.1641 1.46063 -0.591896 0
M  V30 936 C 91.3891 2.07226 -0.0850314 0
M  V30 937 C 91.8141 1.43625 1.21463 0
M  V30 938 O 91.1721 0.523305 1.73583 0
M  V30 939 C 91.2201 3.60554 0.0576567 0
M  V30 940 O 90.3241 3.97128 1.11188 0
M  V30 941 H 89.6651 0.660615 -0.0669568 0
M  V30 942 H 92.1951 1.8756 -0.81745 0
M  V30 943 H 92.2051 4.07165 0.2609 0
M  V30 944 H 90.8801 4.06235 -0.891416 0
M  V30 945 H 89.4571 3.62213 0.886356 0
M  V30 946 N 91.6422 0.330177 1.54103 0
M  V30 947 C 93.0582 -0.0222371 1.59585 0
M  V30 948 C 93.2582 -1.49902 1.34654 0
M  V30 949 O 92.3142 -2.25592 1.13421 0
M  V30 950 C 93.6272 0.401932 2.98002 0
M  V30 951 C 95.1752 0.353145 3.11001 0
M  V30 952 C 95.6502 0.752576 4.51775 0
M  V30 953 N 97.1412 0.706239 4.57784 0
M  V30 954 C 97.8762 0.987417 5.64834 0
M  V30 955 N 97.3722 1.33607 6.79795 0
M  V30 956 N 99.1652 0.91254 5.54643 0
M  V30 957 H 91.3162 1.29228 1.68564 0
M  V30 958 H 93.5792 0.525906 0.78875 0
M  V30 959 H 93.2852 1.4311 3.21267 0
M  V30 960 H 93.1592 -0.229699 3.765 0
M  V30 961 H 95.5462 -0.666822 2.87467 0
M  V30 962 H 95.6272 1.0198 2.34593 0
M  V30 963 H 95.2712 1.77049 4.76042 0
M  V30 964 H 95.2012 0.0635409 5.26562 0
M  V30 965 H 97.6922 0.44889 3.75224 0
M  V30 966 H 98.0052 1.53582 7.57385 0
M  V30 967 H 96.3502 1.37439 6.81275 0
M  V30 968 H 99.5412 0.639601 4.6371 0
M  V30 969 H 99.7142 1.13503 6.37982 0
M  V30 970 N 93.1203 -1.57491 0.0584922 0
M  V30 971 C 94.5363 -1.56792 -0.298091 0
M  V30 972 C 94.7363 -1.06679 -1.70944 0
M  V30 973 O 93.7923 -0.726672 -2.41818 0
M  V30 974 C 95.1053 -3.00461 -0.119879 0
M  V30 975 C 96.6533 -3.1242 -0.190428 0
M  V30 976 C 97.1283 -4.57982 -0.0406567 0
M  V30 977 N 98.6193 -4.63099 -0.0966958 0
M  V30 978 C 99.3543 -5.734 -0.00502943 0
M  V30 979 N 98.8503 -6.9266 0.139402 0
M  V30 980 N 100.643 -5.62067 -0.0611391 0
M  V30 981 H 92.7943 -1.88386 0.98105 0
M  V30 982 H 95.0573 -0.867865 0.381463 0
M  V30 983 H 94.7633 -3.41187 0.85349 0
M  V30 984 H 94.6373 -3.66843 -0.877833 0
M  V30 985 H 97.0243 -2.71589 -1.15427 0
M  V30 986 H 97.1053 -2.48702 0.598405 0
M  V30 987 H 96.7493 -4.995 0.919897 0
M  V30 988 H 96.6793 -5.19715 -0.848727 0
M  V30 989 H 99.1703 -3.77331 -0.207277 0
M  V30 990 H 99.4833 -7.72536 0.201855 0
M  V30 991 H 97.8283 -6.94781 0.174586 0
M  V30 992 H 101.019 -4.67782 -0.172583 0
M  V30 993 H 101.192 -6.47999 0.0137562 0
M  V30 994 N 94.5984 0.214957 -1.56127 0
M  V30 995 C 95.5454 1.26642 -1.92952 0
M  V30 996 C 96.5154 1.46244 -0.78753 0
M  V30 997 O 97.7004 1.59704 -1.04399 0
M  V30 998 C 94.8404 2.6104 -2.25726 0
M  V30 999 C 93.9534 2.49183 -3.52891 0
M  V30 1000 C 93.0884 3.76149 -3.7508 0
M  V30 1001 C 92.1274 3.59041 -4.95738 0
M  V30 1002 N 91.2644 4.77972 -5.14283 0
M  V30 1003 H 96.1044 0.945384 -2.82607 0
M  V30 1004 H 93.6414 0.455489 -1.3987 0
M  V30 1005 H 95.5994 3.39313 -2.42739 0
M  V30 1006 H 94.2294 2.91227 -1.39236 0
M  V30 1007 H 93.2814 1.6231 -3.44034 0
M  V30 1008 H 94.5934 2.32466 -4.41318 0
M  V30 1009 H 93.7474 4.62865 -3.92226 0
M  V30 1010 H 92.4864 3.95799 -2.84947 0
M  V30 1011 H 91.4914 2.7071 -4.78535 0
M  V30 1012 H 92.7164 3.40856 -5.87362 0
M  V30 1013 H 90.6624 4.97923 -4.27093 0
M  V30 1014 H 90.5794 4.64006 -5.96853 0
M  V30 1015 H 91.8474 5.66096 -5.35869 0
M  V30 1016 N 96.0765 1.50051 0.48192 0
M  V30 1017 C 97.0085 1.64263 1.59844 0
M  V30 1018 C 98.0215 0.52451 1.54119 0
M  V30 1019 O 99.2105 0.797293 1.59704 0
M  V30 1020 C 96.3105 1.60102 2.98698 0
M  V30 1021 C 95.4835 2.87767 3.29407 0
M  V30 1022 C 94.5425 2.76397 4.47762 0
M  V30 1023 O 93.5685 3.50348 4.48603 0
M  V30 1024 N 94.7705 1.89222 5.48794 0
M  V30 1025 H 97.5355 2.60566 1.48073 0
M  V30 1026 H 95.0965 1.47379 0.670149 0
M  V30 1027 H 97.0885 1.50123 3.75826 0
M  V30 1028 H 95.6585 0.715798 3.04294 0
M  V30 1029 H 94.8785 3.11954 2.40994 0
M  V30 1030 H 96.1665 3.72365 3.4673 0
M  V30 1031 H 95.5645 1.28434 5.50928 0
M  V30 1032 H 94.1215 1.85154 6.24949 0
M  V30 1033 N 97.5546 -0.734337 1.39446 0
M  V30 1034 C 98.4866 -1.85861 1.34121 0
M  V30 1035 C 99.4996 -1.60871 0.249864 0
M  V30 1036 O 100.689 -1.71093 0.508865 0
M  V30 1037 C 97.7886 -3.21899 1.05991 0
M  V30 1038 C 96.9616 -3.74239 2.26415 0
M  V30 1039 C 96.0206 -4.88841 1.94733 0
M  V30 1040 O 95.0466 -5.02468 2.67422 0
M  V30 1041 N 96.2486 -5.73261 0.913884 0
M  V30 1042 H 99.0136 -1.90934 2.31007 0
M  V30 1043 H 96.5746 -0.915102 1.33557 0
M  V30 1044 H 98.5666 -3.96136 0.828147 0
M  V30 1045 H 97.1366 -3.12091 0.178361 0
M  V30 1046 H 96.3566 -2.91347 2.65539 0
M  V30 1047 H 97.6446 -4.05942 3.06738 0
M  V30 1048 H 97.0426 -5.64842 0.311476 0
M  V30 1049 H 95.5996 -6.47563 0.742015 0
M  V30 1050 N 99.0327 -1.24633 -0.964593 0
M  V30 1051 C 99.9807 -1.03917 -2.08096 0
M  V30 1052 C 100.975 0.0268581 -1.69379 0
M  V30 1053 O 102.181 -0.127952 -1.79545 0
M  V30 1054 H 98.5557 -0.319044 -0.680966 0
M  V30 1055 H 100.527 -1.98581 -2.22729 0
M  V30 1056 C 99.2757 -0.663983 -3.41301 0
M  V30 1057 H 98.5987 -1.47605 -3.71555 0
M  V30 1058 H 100.039 -0.558663 -4.20303 0
M  V30 1059 C 98.4977 0.629169 -3.30973 0
M  V30 1060 O 99.0277 1.67404 -3.65156 0
M  V30 1061 N 97.2337 0.611057 -2.84103 0
M  V30 1062 H 96.7807 -0.239593 -2.56483 0
M  V30 1063 H 96.7387 1.47647 -2.77575 0
M  V30 1064 N 100.511 1.16574 -1.06058 0
M  V30 1065 C 101.757 1.87324 -0.777022 0
M  V30 1066 C 102.09 1.81351 0.694645 0
M  V30 1067 O 101.365 1.22753 1.50871 0
M  V30 1068 C 101.648 3.36991 -1.26922 0
M  V30 1069 C 101.501 3.51667 -2.80447 0
M  V30 1070 C 102.82 4.3131 -0.87521 0
M  V30 1071 H 99.9388 0.680191 -0.28374 0
M  V30 1072 H 102.581 1.37036 -1.3161 0
M  V30 1073 H 100.731 3.79949 -0.81063 0
M  V30 1074 H 102.403 3.17664 -3.34495 0
M  V30 1075 H 100.646 2.93656 -3.19294 0
M  V30 1076 H 101.317 4.56766 -3.0995 0
M  V30 1077 H 103.793 3.9624 -1.27014 0
M  V30 1078 H 102.669 5.34545 -1.2471 0
M  V30 1079 H 102.93 4.41552 0.220071 0
M  V30 1080 N 101.989 0.842826 1.3317 0
M  V30 1081 C 103.266 0.362216 1.92217 0
M  V30 1082 C 103.646 -1.15289 1.76838 0
M  V30 1083 O 102.994 -1.96914 1.15919 0
M  V30 1084 C 103.204 0.813495 3.39387 0
M  V30 1085 C 104.552 0.823804 4.16532 0
M  V30 1086 O 105.576 0.757358 3.48055 0
M  V30 1087 O 104.435 0.915193 5.38782 0
M  V30 1088 H 101.529 0.103317 0.820521 0
M  V30 1089 H 104.075 0.928942 1.42017 0
M  V30 1090 H 102.847 1.85624 3.4447 0
M  V30 1091 H 102.47 0.223561 3.96971 0
M  V30 1092 N 103.467 -1.45747 0.599634 0
M  V30 1093 C 104.399 -2.28628 -0.161879 0
M  V30 1094 C 105.412 -1.39494 -0.839367 0
M  V30 1095 O 106.601 -1.63941 -0.706089 0
M  V30 1096 C 103.701 -3.15014 -1.24976 0
M  V30 1097 C 102.874 -4.32378 -0.660935 0
M  V30 1098 C 101.933 -5.00033 -1.63869 0
M  V30 1099 O 100.959 -5.57085 -1.1681 0
M  V30 1100 N 102.161 -4.98589 -2.97303 0
M  V30 1101 H 104.926 -2.94624 0.549265 0
M  V30 1102 H 102.487 -1.55847 0.438565 0
M  V30 1103 H 104.479 -3.5714 -1.9035 0
M  V30 1104 H 103.049 -2.5098 -1.86354 0
M  V30 1105 H 102.269 -3.9383 0.170688 0
M  V30 1106 H 103.557 -5.08197 -0.247619 0
M  V30 1107 H 102.955 -4.53514 -3.38145 0
M  V30 1108 H 101.512 -5.44603 -3.58121 0
M  V30 1109 N 104.945 -0.338344 -1.53925 0
M  V30 1110 C 105.908 0.508299 -2.23493 0
M  V30 1111 C 106.908 1.03175 -1.23335 0
M  V30 1112 O 108.098 0.921826 -1.47811 0
M  V30 1113 C 105.23 1.70754 -2.95052 0
M  V30 1114 H 106.423 -0.100058 -2.99733 0
M  V30 1115 H 103.976 -0.0896198 -1.56043 0
M  V30 1116 H 104.711 2.35474 -2.22986 0
M  V30 1117 H 104.496 1.33946 -3.68512 0
M  V30 1118 H 105.986 2.30818 -3.48013 0
M  V30 1119 N 106.423 1.57458 -0.0668435 0
M  V30 1120 C 107.669 1.93587 0.6043 0
M  V30 1121 C 108.002 0.946722 1.69561 0
M  V30 1122 O 107.277 -0.0248516 1.94484 0
M  V30 1123 C 107.56 3.40014 1.18585 0
M  V30 1124 C 107.413 4.49685 0.101529 0
M  V30 1125 C 108.732 3.87154 2.09284 0
M  V30 1126 H 105.851 0.703958 0.218202 0
M  V30 1127 H 108.493 1.89542 -0.131804 0
M  V30 1128 H 106.643 3.43592 1.81319 0
M  V30 1129 H 108.315 4.5823 -0.531279 0
M  V30 1130 H 106.558 4.30059 -0.568487 0
M  V30 1131 H 107.229 5.49266 0.54874 0
M  V30 1132 H 109.705 3.85551 1.56491 0
M  V30 1133 H 108.581 4.90231 2.46911 0
M  V30 1134 H 108.842 3.2481 2.99918 0
M  V30 1135 N 107.901 -0.206675 1.56239 0
M  V30 1136 C 108.864 -1.23976 1.92776 0
M  V30 1137 C 109.864 -1.39041 0.807729 0
M  V30 1138 O 111.054 -1.37051 1.0753 0
M  V30 1139 C 108.186 -2.61112 2.19165 0
M  V30 1140 H 109.379 -0.927764 2.85189 0
M  V30 1141 H 106.932 -0.447718 1.4975 0
M  V30 1142 H 107.667 -2.97386 1.29352 0
M  V30 1143 H 107.452 -2.51552 3.00772 0
M  V30 1144 H 108.942 -3.35633 2.48476 0
M  V30 1145 N 109.379 -1.50304 -0.473955 0
M  V30 1146 C 110.607 -1.64902 -1.24959 0
M  V30 1147 C 111.022 -0.331198 -1.85872 0
M  V30 1148 O 110.379 0.68652 -1.69095 0
M  V30 1149 C 110.43 -2.73803 -2.36038 0
M  V30 1150 O 110.151 -4.00477 -1.77624 0
M  V30 1151 C 111.652 -2.99349 -3.26964 0
M  V30 1152 H 108.872 -0.554383 -0.378022 0
M  V30 1153 H 111.416 -1.9651 -0.566054 0
M  V30 1154 H 109.571 -2.44898 -3.00173 0
M  V30 1155 H 109.985 -4.60678 -2.5075 0
M  V30 1156 H 111.459 -3.79217 -4.01121 0
M  V30 1157 H 111.936 -2.10307 -3.85574 0
M  V30 1158 H 112.542 -3.29774 -2.68569 0
M  V30 1159 N 110.857 0.726932 -1.39834 0
M  V30 1160 C 111.787 1.85405 -1.41941 0
M  V30 1161 C 112.768 1.67751 -0.281728 0
M  V30 1162 O 113.953 1.8795 -0.488717 0
M  V30 1163 C 111.083 3.23243 -1.2701 0
M  V30 1164 C 110.037 3.55549 -2.38262 0
M  V30 1165 C 109.363 4.9241 -2.08415 0
M  V30 1166 C 110.663 3.577 -3.80589 0
M  V30 1167 H 112.357 1.83899 -2.36266 0
M  V30 1168 H 109.903 0.883349 -1.13723 0
M  V30 1169 H 111.856 4.01775 -1.27103 0
M  V30 1170 H 110.58 3.25296 -0.291564 0
M  V30 1171 H 109.239 2.79351 -2.37399 0
M  V30 1172 H 108.887 4.91052 -1.0898 0
M  V30 1173 H 108.587 5.14992 -2.82943 0
M  V30 1174 H 110.111 5.73289 -2.10171 0
M  V30 1175 H 111.525 4.26293 -3.83337 0
M  V30 1176 H 109.922 3.91804 -4.54543 0
M  V30 1177 H 110.992 2.57328 -4.10987 0
M  V30 1178 N 112.336 1.25143 0.95797 0
M  V30 1179 C 113.268 1.01023 2.05735 0
M  V30 1180 C 114.281 -0.0236902 1.62783 0
M  V30 1181 O 115.47 0.21448 1.77207 0
M  V30 1182 C 112.57 0.504595 3.35122 0
M  V30 1183 C 111.743 1.6039 4.06932 0
M  V30 1184 C 110.802 1.09922 5.14591 0
M  V30 1185 O 109.828 1.79293 5.40225 0
M  V30 1186 N 111.03 -0.0612545 5.80468 0
M  V30 1187 H 113.795 1.95683 2.26998 0
M  V30 1188 H 111.356 1.16303 1.12629 0
M  V30 1189 H 113.348 0.151516 4.04416 0
M  V30 1190 H 111.918 -0.347989 3.10657 0
M  V30 1191 H 111.138 2.12872 3.31782 0
M  V30 1192 H 112.426 2.34252 4.51667 0
M  V30 1193 H 111.824 -0.640985 5.62057 0
M  V30 1194 H 110.381 -0.355395 6.5083 0
M  V30 1195 N 113.814 -1.1601 1.06675 0
M  V30 1196 C 115.062 -1.86264 0.784229 0
M  V30 1197 C 115.383 -1.82328 -0.691488 0
M  V30 1198 O 114.653 -1.25947 -1.50047 0
M  V30 1199 H 113.233 -0.689621 0.28711 0
M  V30 1200 H 115.895 -1.40664 1.34906 0
M  V30 1201 H 114.991 -2.91595 1.11259 0
M  V30 1202 N 115.292 -0.849877 -1.32721 0
M  V30 1203 C 116.202 -0.293791 -2.32753 0
M  V30 1204 C 117.218 0.585906 -1.63839 0
M  V30 1205 O 118.394 0.487413 -1.95413 0
M  V30 1206 C 115.459 0.512752 -3.42887 0
M  V30 1207 C 114.52 -0.39252 -4.27502 0
M  V30 1208 C 113.753 0.375625 -5.32377 0
M  V30 1209 O 113.976 1.60613 -5.4732 0
M  V30 1210 O 112.91 -0.256094 -6.01355 0
M  V30 1211 H 116.736 -1.12242 -2.82197 0
M  V30 1212 H 114.321 -0.612685 -1.36259 0
M  V30 1213 H 116.203 0.970704 -4.10067 0
M  V30 1214 H 114.878 1.31826 -2.95641 0
M  V30 1215 H 113.785 -0.898547 -3.63149 0
M  V30 1216 H 115.118 -1.16309 -4.7826 0
M  V30 1217 N 116.77 1.45427 -0.607355 0
M  V30 1218 C 118.018 2.01841 -0.102253 0
M  V30 1219 C 118.339 1.47832 1.27164 0
M  V30 1220 O 117.609 0.672497 1.83995 0
M  V30 1221 H 116.189 0.746188 -0.0348101 0
M  V30 1222 H 118.851 1.78229 -0.7887 0
M  V30 1223 H 117.947 3.12057 -0.0518585 0
M  V30 1224 N 118.248 0.346503 1.53744 0
M  V30 1225 C 119.178 -0.501193 2.28058 0
M  V30 1226 C 120.159 -1.10014 1.29734 0
M  V30 1227 O 121.344 -1.12097 1.58581 0
M  V30 1228 C 118.474 -1.65078 3.05559 0
M  V30 1229 C 117.428 -1.18003 4.11411 0
M  V30 1230 C 116.754 -2.41837 4.76884 0
M  V30 1231 C 118.054 -0.278394 5.21558 0
M  V30 1232 H 119.748 0.11875 2.99164 0
M  V30 1233 H 117.294 0.0585531 1.43881 0
M  V30 1234 H 119.247 -2.25028 3.56287 0
M  V30 1235 H 117.971 -2.29767 2.32109 0
M  V30 1236 H 116.63 -0.603331 3.61601 0
M  V30 1237 H 116.278 -3.0494 4.00026 0
M  V30 1238 H 115.978 -2.1102 5.48402 0
M  V30 1239 H 117.502 -3.02508 5.30397 0
M  V30 1240 H 118.916 -0.784823 5.67903 0
M  V30 1241 H 117.313 -0.0619707 6.00068 0
M  V30 1242 H 118.383 0.684677 4.80042 0
M  V30 1243 N 119.726 -1.57421 0.075193 0
M  V30 1244 C 120.951 -1.98364 -0.605515 0
M  V30 1245 C 121.376 -0.953383 -1.62149 0
M  V30 1246 O 120.734 0.0806053 -1.81121 0
M  V30 1247 C 120.782 -3.38332 -1.24756 0
M  V30 1248 O 119.886 -3.37959 -2.36342 0
M  V30 1249 H 119.227 -0.645553 -0.155428 0
M  V30 1250 H 121.757 -2.04044 0.150714 0
M  V30 1251 H 121.767 -3.75591 -1.5936 0
M  V30 1252 H 120.442 -4.12846 -0.503129 0
M  V30 1253 H 119.019 -3.12474 -2.03506 0
M  V30 1254 N 121.204 0.198386 -1.56346 0
M  V30 1255 C 122.137 1.27381 -1.89339 0
M  V30 1256 C 123.115 1.44106 -0.753134 0
M  V30 1257 O 124.299 1.59549 -1.00381 0
M  V30 1258 C 121.426 2.6409 -2.12071 0
M  V30 1259 C 120.472 2.64253 -3.34772 0
M  V30 1260 S 121.305 2.16013 -4.89999 0
M  V30 1261 C 122.461 3.54553 -5.15794 0
M  V30 1262 H 122.694 0.992058 -2.8026 0
M  V30 1263 H 120.227 0.401726 -1.49082 0
M  V30 1264 H 122.185 3.42786 -2.2585 0
M  V30 1265 H 120.846 2.89478 -1.21906 0
M  V30 1266 H 120.039 3.64768 -3.47794 0
M  V30 1267 H 119.641 1.93637 -3.1997 0
M  V30 1268 H 121.933 4.50396 -5.06112 0
M  V30 1269 H 122.876 3.46428 -6.1757 0
M  V30 1270 H 123.284 3.49313 -4.43442 0
M  V30 1271 N 122.682 1.50554 0.465978 0
M  V30 1272 C 123.91 1.65563 1.24083 0
M  V30 1273 C 124.325 0.341051 1.85694 0
M  V30 1274 O 123.682 -0.677543 1.69457 0
M  V30 1275 C 123.733 2.75051 2.34583 0
M  V30 1276 O 123.454 4.01413 1.75497 0
M  V30 1277 C 124.955 3.01078 3.25372 0
M  V30 1278 H 122.175 0.55638 0.375077 0
M  V30 1279 H 124.719 1.96807 0.555624 0
M  V30 1280 H 122.874 2.46486 2.9887 0
M  V30 1281 H 123.288 4.62002 2.48303 0
M  V30 1282 H 124.762 3.81339 3.99105 0
M  V30 1283 H 125.239 2.12349 3.84453 0
M  V30 1284 H 125.845 3.31194 2.66816 0
M  V30 1285 N 124.16 -0.719506 1.40217 0
M  V30 1286 C 125.408 -1.47641 1.3801 0
M  V30 1287 C 125.729 -1.94992 -0.018145 0
M  V30 1288 O 124.999 -1.70073 -0.972207 0
M  V30 1289 H 123.579 -0.547744 0.507923 0
M  V30 1290 H 126.241 -0.853187 1.75233 0
M  V30 1291 H 125.337 -2.35112 2.05253 0
M  V30 1292 N 125.638 -1.25649 -0.95132 0
M  V30 1293 C 126.866 -1.13343 -1.73092 0
M  V30 1294 C 127.281 0.312434 -1.86197 0
M  V30 1295 O 126.638 1.21465 -1.36207 0
M  V30 1296 C 126.689 -1.78602 -3.14299 0
M  V30 1297 O 126.41 -3.17537 -3.01831 0
M  V30 1298 C 127.911 -1.72119 -4.08522 0
M  V30 1299 H 125.131 -0.395181 -0.542285 0
M  V30 1300 H 127.675 -1.66076 -1.19328 0
M  V30 1301 H 125.83 -1.29832 -3.64996 0
M  V30 1302 H 126.244 -3.49676 -3.90931 0
M  V30 1303 H 127.718 -2.22435 -5.052 0
M  V30 1304 H 128.195 -0.685635 -4.33815 0
M  V30 1305 H 128.801 -2.20393 -3.63741 0
M  V30 1306 N 127.117 1.15442 -1.07289 0
M  V30 1307 C 128.363 1.86489 -0.796846 0
M  V30 1308 C 128.696 1.82078 0.675371 0
M  V30 1309 O 127.971 1.24346 1.4956 0
M  V30 1310 C 128.254 3.35626 -1.30489 0
M  V30 1311 C 128.107 3.48673 -2.84161 0
M  V30 1312 C 129.426 4.30357 -0.920907 0
M  V30 1313 H 126.545 0.677144 -0.290939 0
M  V30 1314 H 129.187 1.35633 -1.33056 0
M  V30 1315 H 127.337 3.79068 -0.850883 0
M  V30 1316 H 129.009 3.14099 -3.37846 0
M  V30 1317 H 127.252 2.90253 -3.22391 0
M  V30 1318 H 127.923 4.53453 -3.14777 0
M  V30 1319 H 130.399 3.94871 -1.3121 0
M  V30 1320 H 129.275 5.33193 -1.30372 0
M  V30 1321 H 129.536 4.4176 0.173226 0
M  V30 1322 N 128.595 0.856903 1.32268 0
M  V30 1323 C 129.835 0.467705 1.98977 0
M  V30 1324 C 130.199 -0.959231 1.66321 0
M  V30 1325 O 131.4 -1.4531 2.26138 0
M  V30 1326 C 129.671 0.70256 3.50427 0
M  V30 1327 S 131.23 0.411269 4.36868 0
M  V30 1328 H 128.048 0.175121 0.689096 0
M  V30 1329 H 130.65 1.1101 1.60925 0
M  V30 1330 H 129.354 1.74012 3.71683 0
M  V30 1331 H 128.885 0.0466707 3.93372 0
M  V30 1332 H 130.9 -0.761799 4.90317 0
M  V30 1333 N 130.073 -1.45103 0.615059 0
M  V30 1334 C 131.023 -2.27679 -0.120966 0
M  V30 1335 C 132.007 -1.3775 -0.831491 0
M  V30 1336 O 133.199 -1.61683 -0.720249 0
M  V30 1337 C 130.328 -3.24767 -1.1127 0
M  V30 1338 C 129.414 -4.22184 -0.402627 0
M  V30 1339 N 129.805 -5.02692 0.559884 0
M  V30 1340 C 128.103 -4.4125 -0.649202 0
M  V30 1341 C 128.804 -5.73421 0.977942 0
M  V30 1342 N 127.78 -5.42657 0.320104 0
M  V30 1343 H 131.582 -2.87325 0.618181 0
M  V30 1344 H 129.096 -1.56345 0.439304 0
M  V30 1345 H 131.093 -3.82666 -1.65446 0
M  V30 1346 H 129.753 -2.66682 -1.85232 0
M  V30 1347 H 130.764 -5.09354 0.936976 0
M  V30 1348 H 127.441 -3.9428 -1.37293 0
M  V30 1349 H 128.831 -6.48107 1.77222 0
M  V30 1350 N 131.551 -0.354651 -1.53558 0
M  V30 1351 C 132.797 0.238797 -2.01389 0
M  V30 1352 C 133.13 1.49309 -1.2418 0
M  V30 1353 O 132.405 1.91638 -0.332457 0
M  V30 1354 C 132.688 0.541771 -3.56001 0
M  V30 1355 C 132.541 -0.725388 -4.43912 0
M  V30 1356 C 133.86 1.34685 -4.18984 0
M  V30 1357 H 130.979 0.0853177 -0.732045 0
M  V30 1358 H 133.621 -0.477384 -1.83905 0
M  V30 1359 H 131.771 1.15189 -3.71031 0
M  V30 1360 H 133.443 -1.36313 -4.407 0
M  V30 1361 H 131.686 -1.34801 -4.12324 0
M  V30 1362 H 132.357 -0.468505 -5.50008 0
M  V30 1363 H 134.833 0.830837 -4.07721 0
M  V30 1364 H 133.709 1.52759 -5.27215 0
M  V30 1365 H 133.97 2.35221 -3.74331 0
M  V30 1366 N 133.029 1.57378 -0.0835403 0
M  V30 1367 C 134.277 1.93547 0.581718 0
M  V30 1368 C 134.598 0.96524 1.69435 0
M  V30 1369 O 133.868 0.0153369 1.95894 0
M  V30 1370 H 132.448 0.714521 0.217874 0
M  V30 1371 H 135.11 1.94366 -0.144158 0
M  V30 1372 H 134.206 2.95665 0.999423 0
M  V30 1373 N 134.507 -0.190092 1.56449 0
M  V30 1374 C 135.454 -1.23557 1.94942 0
M  V30 1375 C 136.424 -1.44972 0.810696 0
M  V30 1376 O 137.609 -1.58023 1.06927 0
M  V30 1377 C 134.749 -2.57416 2.2985 0
M  V30 1378 C 133.862 -2.43537 3.5681 0
M  V30 1379 C 132.997 -3.70134 3.81017 0
M  V30 1380 C 132.036 -3.51109 5.01387 0
M  V30 1381 N 131.173 -4.6973 5.21822 0
M  V30 1382 H 136.013 -0.900304 2.84075 0
M  V30 1383 H 133.55 -0.43318 1.40577 0
M  V30 1384 H 135.508 -3.35409 2.48106 0
M  V30 1385 H 134.138 -2.88975 1.43852 0
M  V30 1386 H 133.19 -1.56816 3.46573 0
M  V30 1387 H 134.502 -2.25415 4.4496 0
M  V30 1388 H 133.656 -4.56566 3.9954 0
M  V30 1389 H 132.395 -3.91215 2.91207 0
M  V30 1390 H 131.4 -2.63063 4.82782 0
M  V30 1391 H 132.625 -3.31468 5.9271 0
M  V30 1392 H 130.571 -4.91065 4.34961 0
M  V30 1393 H 130.488 -4.54452 6.0416 0
M  V30 1394 H 131.756 -5.57499 5.44808 0
M  V30 1395 N 135.985 -1.50799 -0.457987 0
M  V30 1396 C 136.918 -1.65273 -1.57353 0
M  V30 1397 C 137.896 -0.500578 -1.54703 0
M  V30 1398 O 139.08 -0.721781 -1.74134 0
M  V30 1399 C 136.207 -1.64737 -2.95938 0
M  V30 1400 C 135.253 -2.8567 -3.16693 0
M  V30 1401 S 136.086 -4.46791 -2.95191 0
M  V30 1402 C 137.242 -4.48968 -4.36095 0
M  V30 1403 H 137.475 -2.59633 -1.44838 0
M  V30 1404 H 135.008 -1.40225 -0.64625 0
M  V30 1405 H 136.966 -1.65112 -3.7583 0
M  V30 1406 H 135.627 -0.715899 -3.05833 0
M  V30 1407 H 134.82 -2.81637 -4.17967 0
M  V30 1408 H 134.422 -2.8293 -2.44594 0
M  V30 1409 H 136.714 -4.23337 -5.28954 0
M  V30 1410 H 137.657 -5.50664 -4.45168 0
M  V30 1411 H 138.065 -3.78522 -4.18786 0
M  V30 1412 N 137.463 0.71206 -1.40597 0
M  V30 1413 C 138.41 1.82613 -1.41142 0
M  V30 1414 C 139.38 1.63925 -0.267903 0
M  V30 1415 O 140.565 1.85009 -0.466495 0
M  V30 1416 C 137.705 3.20354 -1.28324 0
M  V30 1417 C 136.818 3.50589 -2.52411 0
M  V30 1418 C 135.953 4.77855 -2.32009 0
M  V30 1419 C 134.992 5.01005 -3.51654 0
M  V30 1420 N 134.129 6.19487 -3.30425 0
M  V30 1421 H 138.969 1.81482 -2.36365 0
M  V30 1422 H 136.506 0.886475 -1.17388 0
M  V30 1423 H 138.464 3.99899 -1.18899 0
M  V30 1424 H 137.094 3.20705 -0.367189 0
M  V30 1425 H 136.146 2.65573 -2.72351 0
M  V30 1426 H 137.458 3.63604 -3.41458 0
M  V30 1427 H 136.612 5.65424 -2.19956 0
M  V30 1428 H 135.351 4.67056 -1.40392 0
M  V30 1429 H 134.356 4.1189 -3.64179 0
M  V30 1430 H 135.581 5.13674 -4.44202 0
M  V30 1431 H 133.527 6.09932 -2.41494 0
M  V30 1432 H 133.444 6.33194 -4.13039 0
M  V30 1433 H 134.712 7.09834 -3.22113 0
M  V30 1434 N 138.941 1.26152 0.944643 0
M  V30 1435 C 140.218 1.02247 1.66748 0
M  V30 1436 C 140.598 -0.448202 2.06287 0
M  V30 1437 O 139.946 -1.42779 1.78399 0
M  V30 1438 C 140.156 1.96788 2.88228 0
M  V30 1439 C 141.504 2.25201 3.59958 0
M  V30 1440 O 142.528 1.94626 2.98327 0
M  V30 1441 O 141.387 2.77242 4.70956 0
M  V30 1442 H 138.481 0.388517 0.730057 0
M  V30 1443 H 141.027 1.37348 0.99668 0
M  V30 1444 H 139.799 2.96047 2.55875 0
M  V30 1445 H 139.422 1.62145 3.63035 0
M  V30 1446 N 140.419 -1.14872 1.07899 0
M  V30 1447 C 141.665 -1.86289 0.81657 0
M  V30 1448 C 142.02 -1.8107 -0.65049 0
M  V30 1449 O 141.313 -1.22684 -1.47171 0
M  V30 1450 C 141.507 -3.34223 1.26609 0
M  V30 1451 C 141.336 -3.53846 2.77531 0
M  V30 1452 C 140.106 -3.68995 3.45212 0
M  V30 1453 C 142.304 -3.51201 3.75716 0
M  V30 1454 N 140.286 -3.76725 4.84718 0
M  V30 1455 C 141.657 -3.65112 5.01092 0
M  V30 1456 C 143.712 -3.34507 3.68794 0
M  V30 1457 C 142.415 -3.64056 6.20368 0
M  V30 1458 C 144.441 -3.34752 4.8754 0
M  V30 1459 C 143.803 -3.49199 6.11751 0
M  V30 1460 H 139.902 -0.698579 0.351443 0
M  V30 1461 H 142.486 -1.37713 1.37634 0
M  V30 1462 H 140.657 -3.81402 0.73395 0
M  V30 1463 H 142.389 -3.93377 0.95062 0
M  V30 1464 H 139.144 -3.70006 2.95622 0
M  V30 1465 H 139.568 -3.8432 5.5734 0
M  V30 1466 H 144.21 -3.22253 2.73702 0
M  V30 1467 H 141.928 -3.75087 7.15776 0
M  V30 1468 H 145.514 -3.23055 4.83866 0
M  V30 1469 H 144.394 -3.49328 7.02097 0
M  V30 1470 N 141.898 -0.863906 -1.31812 0
M  V30 1471 C 142.808 -0.318461 -2.32428 0
M  V30 1472 C 143.824 0.568496 -1.64451 0
M  V30 1473 O 145 0.46666 -1.95919 0
M  V30 1474 C 142.065 0.476355 -3.43412 0
M  V30 1475 C 141.126 -0.43784 -4.27061 0
M  V30 1476 C 140.359 0.319138 -5.32745 0
M  V30 1477 O 140.582 1.54799 -5.48993 0
M  V30 1478 O 139.516 -0.319861 -6.01049 0
M  V30 1479 H 143.342 -1.15229 -2.80991 0
M  V30 1480 H 140.927 -0.627103 -1.35602 0
M  V30 1481 H 142.809 0.927156 -4.11074 0
M  V30 1482 H 141.484 1.28683 -2.97022 0
M  V30 1483 H 140.391 -0.937013 -3.62175 0
M  V30 1484 H 141.724 -1.21375 -4.77 0
M  V30 1485 N 143.376 1.44774 -0.622745 0
M  V30 1486 C 144.792 1.56986 -0.287652 0
M  V30 1487 C 144.992 1.61167 1.20944 0
M  V30 1488 O 144.048 1.55015 1.99315 0
M  V30 1489 C 145.361 2.84551 -0.972188 0
M  V30 1490 C 146.909 2.9825 -0.949536 0
M  V30 1491 C 147.384 4.28605 -1.61437 0
M  V30 1492 N 148.875 4.35399 -1.58057 0
M  V30 1493 C 149.61 5.34964 -2.064 0
M  V30 1494 N 149.106 6.40981 -2.62897 0
M  V30 1495 N 150.899 5.26419 -1.97078 0
M  V30 1496 H 143.05 1.40304 -1.59463 0
M  V30 1497 H 145.313 0.671794 -0.668878 0
M  V30 1498 H 145.019 2.87417 -2.02693 0
M  V30 1499 H 144.893 3.73807 -0.504771 0
M  V30 1500 H 147.28 2.94941 0.0967067 0
M  V30 1501 H 147.361 2.10364 -1.45536 0
M  V30 1502 H 147.005 4.32672 -2.66002 0
M  V30 1503 H 146.935 5.15334 -1.08344 0
M  V30 1504 H 149.426 3.59397 -1.16801 0
M  V30 1505 H 149.739 7.13225 -2.97539 0
M  V30 1506 H 148.084 6.4169 -2.66943 0
M  V30 1507 H 151.275 4.42504 -1.52669 0
M  V30 1508 H 151.448 6.03861 -2.35066 0
M  V30 1509 N 144.854 0.36279 1.53368 0
M  V30 1510 C 145.784 -0.476976 2.28576 0
M  V30 1511 C 146.765 -1.08631 1.30894 0
M  V30 1512 O 147.95 -1.10409 1.59761 0
M  V30 1513 C 145.08 -1.61828 3.07293 0
M  V30 1514 C 144.034 -1.13633 4.1264 0
M  V30 1515 C 143.36 -2.36766 4.79423 0
M  V30 1516 C 144.66 -0.223061 5.21823 0
M  V30 1517 H 146.354 0.150474 2.99022 0
M  V30 1518 H 143.9 0.0738103 1.43811 0
M  V30 1519 H 145.853 -2.21237 3.58653 0
M  V30 1520 H 144.577 -2.27292 2.34533 0
M  V30 1521 H 143.236 -0.564945 3.62221 0
M  V30 1522 H 142.884 -3.0068 4.03238 0
M  V30 1523 H 142.584 -2.05192 5.50609 0
M  V30 1524 H 144.108 -2.96865 5.33576 0
M  V30 1525 H 145.522 -0.724545 5.68703 0
M  V30 1526 H 143.919 0.001678 6.001 0
M  V30 1527 H 144.989 0.735553 4.79289 0
M  V30 1528 N 146.332 -1.57332 0.0918853 0
M  V30 1529 C 147.578 -1.94524 -0.573425 0
M  V30 1530 C 147.911 -0.973578 -1.68033 0
M  V30 1531 O 147.186 -0.00609226 -1.94499 0
M  V30 1532 C 147.469 -3.41858 -1.13161 0
M  V30 1533 C 147.322 -4.4979 -0.0299747 0
M  V30 1534 C 148.641 -3.90435 -2.03098 0
M  V30 1535 H 145.76 -0.70734 -0.206975 0
M  V30 1536 H 148.402 -1.89309 0.161942 0
M  V30 1537 H 146.552 -3.46433 -1.7583 0
M  V30 1538 H 148.224 -4.57327 0.604112 0
M  V30 1539 H 146.467 -4.291 0.636833 0
M  V30 1540 H 147.138 -5.50069 -0.461287 0
M  V30 1541 H 149.614 -3.87992 -1.50338 0
M  V30 1542 H 148.49 -4.94097 -2.39081 0
M  V30 1543 H 148.751 -3.29541 -2.94712 0
M  V30 1544 N 147.81 0.181792 -1.56548 0
M  V30 1545 C 148.773 1.20894 -1.94724 0
M  V30 1546 C 149.773 1.37738 -0.829747 0
M  V30 1547 O 150.963 1.35323 -1.09697 0
M  V30 1548 C 148.095 2.57593 -2.23291 0
M  V30 1549 H 149.288 0.882275 -2.86629 0
M  V30 1550 H 146.841 0.423838 -1.50444 0
M  V30 1551 H 147.576 2.95291 -1.34067 0
M  V30 1552 H 147.361 2.46735 -3.04736 0
M  V30 1553 H 148.851 3.31637 -2.53785 0
M  V30 1554 N 149.288 1.51039 0.449983 0
M  V30 1555 C 150.516 1.66869 1.2232 0
M  V30 1556 C 150.931 0.360727 1.85322 0
M  V30 1557 O 150.288 -0.659531 1.70166 0
M  V30 1558 C 150.339 2.77524 2.31652 0
M  V30 1559 O 150.06 4.03252 1.7123 0
M  V30 1560 C 151.561 3.04512 3.2216 0
M  V30 1561 H 148.781 0.560326 0.369155 0
M  V30 1562 H 151.325 1.97385 0.534719 0
M  V30 1563 H 149.48 2.49642 2.96239 0
M  V30 1564 H 149.894 4.64609 2.43389 0
M  V30 1565 H 151.368 3.85551 3.95038 0
M  V30 1566 H 151.845 2.16415 3.8218 0
M  V30 1567 H 152.451 3.34005 2.63288 0
M  V30 1568 N 150.766 -0.704594 1.40972 0
M  V30 1569 C 151.729 -1.80035 1.41845 0
M  V30 1570 C 152.729 -1.57774 0.310474 0
M  V30 1571 O 153.919 -1.64613 0.56992 0
M  V30 1572 C 151.051 -3.18284 1.22098 0
M  V30 1573 H 152.244 -1.80658 2.3938 0
M  V30 1574 H 149.797 -0.911329 1.26982 0
M  V30 1575 H 150.532 -3.23306 0.253672 0
M  V30 1576 H 150.317 -3.35843 2.02366 0
M  V30 1577 H 151.807 -3.98289 1.25522 0
M  V30 1578 N 152.244 -1.26651 -0.937939 0
M  V30 1579 C 153.177 -1.02811 -2.03728 0
M  V30 1580 C 154.155 0.0481915 -1.62529 0
M  V30 1581 O 155.339 -0.0948839 -1.88261 0
M  V30 1582 C 152.466 -0.557517 -3.3408 0
M  V30 1583 C 151.512 -1.62686 -3.94253 0
M  V30 1584 S 152.345 -3.21667 -4.28125 0
M  V30 1585 C 153.501 -2.76384 -5.61572 0
M  V30 1586 H 153.734 -1.95891 -2.23638 0
M  V30 1587 H 151.267 -1.10367 -1.07974 0
M  V30 1588 H 153.225 -0.292674 -4.09455 0
M  V30 1589 H 151.886 0.353062 -3.12109 0
M  V30 1590 H 151.079 -1.24866 -4.88287 0
M  V30 1591 H 150.681 -1.84324 -3.25424 0
M  V30 1592 H 152.973 -2.2105 -6.40424 0
M  V30 1593 H 153.916 -3.69123 -6.0428 0
M  V30 1594 H 154.324 -2.15847 -5.21604 0
M  V30 1595 N 153.722 1.14298 -1.08507 0
M  V30 1596 C 154.669 2.19414 -0.715965 0
M  V30 1597 C 155.639 1.63399 0.298326 0
M  V30 1598 O 156.824 1.89929 0.182101 0
M  V30 1599 C 153.964 3.44845 -0.132534 0
M  V30 1600 C 153.077 4.15007 -1.19973 0
M  V30 1601 C 152.212 5.28024 -0.580048 0
M  V30 1602 C 151.251 5.9002 -1.62921 0
M  V30 1603 N 150.388 6.94485 -1.03125 0
M  V30 1604 H 155.228 2.50336 -1.61666 0
M  V30 1605 H 152.765 1.2293 -0.807882 0
M  V30 1606 H 154.723 4.16601 0.223454 0
M  V30 1607 H 153.353 3.14403 0.731467 0
M  V30 1608 H 152.405 3.41629 -1.67313 0
M  V30 1609 H 153.717 4.57178 -1.99473 0
M  V30 1610 H 152.871 6.06455 -0.172364 0
M  V30 1611 H 151.61 4.87076 0.246603 0
M  V30 1612 H 150.615 5.10291 -2.04654 0
M  V30 1613 H 151.84 6.33042 -2.45835 0
M  V30 1614 H 149.786 6.55612 -0.225711 0
M  V30 1615 H 149.703 7.35148 -1.76334 0
M  V30 1616 H 150.971 7.7679 -0.649458 0
M  V30 1617 N 155.201 0.870884 1.31352 0
M  V30 1618 C 156.131 0.343096 2.30966 0
M  V30 1619 C 157.112 -0.566507 1.60389 0
M  V30 1620 O 158.297 -0.483336 1.88089 0
M  V30 1621 C 155.427 -0.455487 3.443 0
M  V30 1622 C 154.381 0.361103 4.26474 0
M  V30 1623 C 153.707 -0.563221 5.31725 0
M  V30 1624 C 155.007 1.59566 4.97329 0
M  V30 1625 H 156.701 1.17548 2.75359 0
M  V30 1626 H 154.247 0.566686 1.32381 0
M  V30 1627 H 156.2 -0.83525 4.13039 0
M  V30 1628 H 154.924 -1.32139 2.98675 0
M  V30 1629 H 153.583 0.722825 3.59403 0
M  V30 1630 H 153.231 -1.42643 4.82351 0
M  V30 1631 H 152.931 -0.0207409 5.87596 0
M  V30 1632 H 154.455 -0.939808 6.03324 0
M  V30 1633 H 155.869 1.28728 5.58661 0
M  V30 1634 H 154.266 2.07728 5.63 0
M  V30 1635 H 155.336 2.34798 4.24262 0
M  V30 1636 N 156.679 -1.44442 0.630414 0
M  V30 1637 C 157.629 -2.27794 -0.0968103 0
M  V30 1638 C 158.613 -1.38624 -0.816834 0
M  V30 1639 O 159.805 -1.62438 -0.70306 0
M  V30 1640 C 156.934 -3.25929 -1.07819 0
M  V30 1641 C 156.02 -4.22588 -0.357826 0
M  V30 1642 N 156.411 -5.0207 0.613169 0
M  V30 1643 C 154.709 -4.41914 -0.602365 0
M  V30 1644 C 155.41 -5.72351 1.03871 0
M  V30 1645 N 154.386 -5.42287 0.377642 0
M  V30 1646 H 158.188 -2.86653 0.648621 0
M  V30 1647 H 155.702 -1.55871 0.455862 0
M  V30 1648 H 157.699 -3.84399 -1.61378 0
M  V30 1649 H 156.359 -2.68631 -1.82393 0
M  V30 1650 H 157.37 -5.08331 0.990947 0
M  V30 1651 H 154.047 -3.95714 -1.33103 0
M  V30 1652 H 155.437 -6.4619 1.84086 0
M  V30 1653 N 158.157 -0.370918 -1.53173 0
M  V30 1654 C 159.405 0.216673 -2.00935 0
M  V30 1655 C 159.726 1.48845 -1.25977 0
M  V30 1656 O 158.996 1.92286 -0.374551 0
M  V30 1657 H 157.576 0.0830565 -0.742368 0
M  V30 1658 H 160.238 -0.49838 -1.8842 0
M  V30 1659 H 159.334 0.439893 -3.08984 0
M  V30 1660 N 159.635 1.57281 -0.100228 0
M  V30 1661 C 160.881 1.94826 0.563101 0
M  V30 1662 C 161.214 0.982475 1.67514 0
M  V30 1663 O 160.489 0.0164069 1.94493 0
M  V30 1664 C 160.772 3.42453 1.11346 0
M  V30 1665 C 160.625 4.498 0.00612081 0
M  V30 1666 C 161.944 3.91506 2.01024 0
M  V30 1667 H 159.063 0.708428 0.203221 0
M  V30 1668 H 161.705 1.8922 -0.171979 0
M  V30 1669 H 159.855 3.47361 1.7399 0
M  V30 1670 H 161.527 4.57 -0.628357 0
M  V30 1671 H 159.77 4.28756 -0.659581 0
M  V30 1672 H 160.441 5.50306 0.432109 0
M  V30 1673 H 162.917 3.88784 1.48278 0
M  V30 1674 H 161.793 4.95358 2.36457 0
M  V30 1675 H 162.054 3.31099 2.92961 0
M  V30 1676 N 161.113 -0.173488 1.56642 0
M  V30 1677 C 162.362 -0.888758 1.81063 0
M  V30 1678 C 162.675 -1.83506 0.67712 0
M  V30 1679 O 163.881 -2.59254 0.806206 0
M  V30 1680 C 162.337 -1.63091 3.20826 0
M  V30 1681 C 161.945 -0.728357 4.4204 0
M  V30 1682 C 163.689 -2.33454 3.54541 0
M  V30 1683 C 161.596 -1.47062 5.72823 0
M  V30 1684 H 160.526 -0.335618 0.675186 0
M  V30 1685 H 163.177 -0.141712 1.82952 0
M  V30 1686 H 161.559 -2.42263 3.13248 0
M  V30 1687 H 162.733 0.0262449 4.60793 0
M  V30 1688 H 161.048 -0.134492 4.16183 0
M  V30 1689 H 163.645 -2.89578 4.49498 0
M  V30 1690 H 163.988 -3.08687 2.79317 0
M  V30 1691 H 164.521 -1.61227 3.63663 0
M  V30 1692 H 161.26 -0.760658 6.51072 0
M  V30 1693 H 160.78 -2.1986 5.58052 0
M  V30 1694 H 162.459 -2.01868 6.14702 0
M  V30 1695 N 162.591 -1.51276 -0.441967 0
M  V30 1696 C 163.868 -1.54252 -1.20273 0
M  V30 1697 C 164.248 -0.30408 -2.08898 0
M  V30 1698 O 163.596 0.711084 -2.17154 0
M  V30 1699 C 163.806 -2.85406 -2.00859 0
M  V30 1700 C 165.154 -3.37181 -2.58059 0
M  V30 1701 O 166.178 -2.86925 -2.11074 0
M  V30 1702 O 165.037 -4.24858 -3.43741 0
M  V30 1703 H 162.131 -0.619969 -0.547328 0
M  V30 1704 H 164.677 -1.63586 -0.451413 0
M  V30 1705 H 163.449 -3.67003 -1.35736 0
M  V30 1706 H 163.072 -2.79213 -2.83065 0
M  V30 1707 N 164.069 0.697108 -1.41344 0
M  V30 1708 C 165.318 1.45279 -1.39918 0
M  V30 1709 C 165.631 1.95597 -0.0109624 0
M  V30 1710 O 166.837 2.71208 0.125919 0
M  V30 1711 C 165.293 2.62695 -2.46007 0
M  V30 1712 C 164.901 2.19169 -3.90729 0
M  V30 1713 C 166.645 3.40336 -2.53715 0
M  V30 1714 C 164.552 3.33535 -4.88373 0
M  V30 1715 H 163.482 0.545692 -0.520323 0
M  V30 1716 H 166.133 0.756929 -1.67161 0
M  V30 1717 H 164.515 3.34541 -2.11892 0
M  V30 1718 H 165.689 1.54623 -4.34083 0
M  V30 1719 H 164.004 1.54525 -3.86666 0
M  V30 1720 H 166.601 4.2547 -3.2385 0
M  V30 1721 H 166.944 3.85418 -1.5735 0
M  V30 1722 H 167.477 2.75546 -2.86913 0
M  V30 1723 H 164.216 2.93468 -5.86137 0
M  V30 1724 H 163.736 3.96936 -4.49668 0
M  V30 1725 H 165.415 3.99335 -5.09059 0
M  V30 1726 N 165.547 1.27147 0.931209 0
M  V30 1727 C 166.477 1.12081 2.04842 0
M  V30 1728 C 167.458 0.0232364 1.70084 0
M  V30 1729 O 168.643 0.197085 1.93197 0
M  V30 1730 C 165.773 0.76354 3.38803 0
M  V30 1731 C 164.727 1.81396 3.87659 0
M  V30 1732 C 164.053 1.31075 5.18385 0
M  V30 1733 C 165.353 3.21739 4.11438 0
M  V30 1734 H 167.047 2.05537 2.17703 0
M  V30 1735 H 164.593 0.989603 1.04608 0
M  V30 1736 H 166.546 0.644982 4.16435 0
M  V30 1737 H 165.27 -0.206727 3.25945 0
M  V30 1738 H 163.929 1.92136 3.12217 0
M  V30 1739 H 163.577 0.330037 5.01916 0
M  V30 1740 H 163.277 2.013 5.52044 0
M  V30 1741 H 164.801 1.20506 5.98591 0
M  V30 1742 H 166.215 3.14019 4.79651 0
M  V30 1743 H 164.612 3.89644 4.56397 0
M  V30 1744 H 165.682 3.67054 3.16859 0
M  V30 1745 N 167.025 -1.13721 1.09112 0
M  V30 1746 C 168.25 -1.89314 0.847053 0
M  V30 1747 C 168.675 -1.78416 -0.595774 0
M  V30 1748 O 168.033 -1.12942 -1.41823 0
M  V30 1749 C 168.081 -3.3701 1.28284 0
M  V30 1750 O 167.185 -4.10054 0.439267 0
M  V30 1751 H 166.526 -0.588745 0.307044 0
M  V30 1752 H 169.056 -1.43902 1.45442 0
M  V30 1753 H 169.066 -3.87834 1.26683 0
M  V30 1754 H 167.741 -3.4426 2.33363 0
M  V30 1755 H 166.318 -3.69266 0.519312 0
M  V30 1756 N 168.503 -0.877838 -1.30888 0
M  V30 1757 C 169.433 -0.35534 -2.3078 0
M  V30 1758 C 170.414 0.557994 -1.60687 0
M  V30 1759 O 171.599 0.473355 -1.88343 0
M  V30 1760 C 168.729 0.437221 -3.44537 0
M  V30 1761 C 167.683 -0.383715 -4.26276 0
M  V30 1762 C 167.009 0.535014 -5.32017 0
M  V30 1763 C 168.309 -1.62201 -4.96476 0
M  V30 1764 H 170.003 -1.19007 -2.74732 0
M  V30 1765 H 167.549 -0.573698 -1.32078 0
M  V30 1766 H 169.502 0.813334 -4.13477 0
M  V30 1767 H 168.226 1.30553 -2.99372 0
M  V30 1768 H 166.885 -0.741874 -3.59015 0
M  V30 1769 H 166.533 1.40083 -4.831 0
M  V30 1770 H 166.233 -0.0104211 -5.87599 0
M  V30 1771 H 167.757 0.907799 -6.03814 0
M  V30 1772 H 169.171 -1.31689 -5.5797 0
M  V30 1773 H 167.568 -2.10711 -5.61891 0
M  V30 1774 H 168.638 -2.37044 -4.23011 0
M  V30 1775 N 169.982 1.44106 -0.638065 0
M  V30 1776 C 171.207 2.0685 -0.150916 0
M  V30 1777 C 171.632 1.47417 1.16833 0
M  V30 1778 O 170.99 0.578264 1.71831 0
M  V30 1779 C 171.038 3.60555 -0.05708 0
M  V30 1780 O 170.142 4.00465 0.984972 0
M  V30 1781 H 169.483 0.658151 -0.0879399 0
M  V30 1782 H 172.013 1.84865 -0.876707 0
M  V30 1783 H 172.023 4.07789 0.131232 0
M  V30 1784 H 170.698 4.03193 -1.02021 0
M  V30 1785 H 169.275 3.64849 0.770672 0
M  V30 1786 N 171.46 0.379036 1.52974 0
M  V30 1787 C 172.709 -0.207612 2.00629 0
M  V30 1788 C 173.022 -1.48758 1.27006 0
M  V30 1789 O 174.228 -2.15365 1.65318 0
M  V30 1790 C 172.684 -0.42053 3.57435 0
M  V30 1791 C 172.292 0.845587 4.39948 0
M  V30 1792 C 174.036 -0.964102 4.13407 0
M  V30 1793 C 171.943 0.601513 5.88333 0
M  V30 1794 H 170.873 -0.0813591 0.749598 0
M  V30 1795 H 173.524 0.499853 1.76561 0
M  V30 1796 H 171.906 -1.18959 3.7771 0
M  V30 1797 H 173.08 1.61848 4.31442 0
M  V30 1798 H 171.395 1.31336 3.95145 0
M  V30 1799 H 173.992 -1.16225 5.21916 0
M  V30 1800 H 174.335 -1.93019 3.68849 0
M  V30 1801 H 174.868 -0.25487 3.96983 0
M  V30 1802 H 171.607 1.53831 6.37194 0
M  V30 1803 H 171.127 -0.132628 5.99653 0
M  V30 1804 H 172.806 0.232134 6.46583 0
M  V30 1805 N 172.938 -1.57226 0.108567 0
M  V30 1806 C 174.166 -1.99179 -0.559954 0
M  V30 1807 C 174.581 -0.988022 -1.60884 0
M  V30 1808 O 173.938 0.0205512 -1.82488 0
M  V30 1809 C 173.989 -3.41159 -1.19552 0
M  V30 1810 O 173.71 -4.37694 -0.188577 0
M  V30 1811 C 175.211 -3.98188 -1.94837 0
M  V30 1812 H 172.431 -0.654228 -0.149088 0
M  V30 1813 H 174.975 -2.03598 0.19183 0
M  V30 1814 H 173.13 -3.37711 -1.89815 0
M  V30 1815 H 173.544 -5.20469 -0.649014 0
M  V30 1816 H 175.018 -4.99644 -2.34648 0
M  V30 1817 H 175.495 -3.3675 -2.81951 0
M  V30 1818 H 176.101 -4.0515 -1.2936 0
M  V30 1819 N 174.416 0.165178 -1.56732 0
M  V30 1820 C 175.364 1.22369 -1.97809 0
M  V30 1821 C 176.358 1.45488 -0.867741 0
M  V30 1822 O 177.564 1.45995 -1.05288 0
M  V30 1823 H 173.939 0.411486 -0.629431 0
M  V30 1824 H 175.91 0.850425 -2.86025 0
M  V30 1825 C 174.659 2.55403 -2.35934 0
M  V30 1826 H 173.982 2.38438 -3.20916 0
M  V30 1827 H 175.422 3.2814 -2.68514 0
M  V30 1828 C 173.881 3.14611 -1.20506 0
M  V30 1829 O 174.411 3.98626 -0.496016 0
M  V30 1830 N 172.617 2.7379 -0.97403 0
M  V30 1831 H 172.164 2.0557 -1.55238 0
M  V30 1832 H 172.122 3.1374 -0.203573 0
M  V30 1833 N 175.894 1.51508 0.433938 0
M  V30 1834 C 177.119 1.68443 1.21003 0
M  V30 1835 C 177.544 0.382636 1.84167 0
M  V30 1836 O 176.902 -0.65755 1.68956 0
M  V30 1837 C 176.95 2.80405 2.26727 0
M  V30 1838 O 176.054 2.44245 3.32292 0
M  V30 1839 H 175.395 0.561536 0.354363 0
M  V30 1840 H 177.925 1.9809 0.512024 0
M  V30 1841 H 177.935 3.0459 2.71457 0
M  V30 1842 H 176.61 3.74867 1.80132 0
M  V30 1843 H 175.187 2.30644 2.93015 0
M  V30 1844 N 177.372 -0.689602 1.41712 0
M  V30 1845 C 178.319 -1.80345 1.44029 0
M  V30 1846 C 179.289 -1.63478 0.293948 0
M  V30 1847 O 180.474 -1.84244 0.495869 0
M  V30 1848 C 177.614 -3.18272 1.33405 0
M  V30 1849 C 176.727 -3.46529 2.57956 0
M  V30 1850 C 175.862 -4.74103 2.39582 0
M  V30 1851 C 174.901 -4.95347 3.5958 0
M  V30 1852 N 174.038 -6.14151 3.40239 0
M  V30 1853 H 178.878 -1.77698 2.39222 0
M  V30 1854 H 176.415 -0.867688 1.18784 0
M  V30 1855 H 178.373 -3.97956 1.25246 0
M  V30 1856 H 177.003 -3.2008 0.418164 0
M  V30 1857 H 176.055 -2.61207 2.76542 0
M  V30 1858 H 177.367 -3.58126 3.47199 0
M  V30 1859 H 176.521 -5.61853 2.28924 0
M  V30 1860 H 175.26 -4.64763 1.47805 0
M  V30 1861 H 174.265 -4.06044 3.70686 0
M  V30 1862 H 175.49 -5.06542 4.52318 0
M  V30 1863 H 173.436 -6.06013 2.51167 0
M  V30 1864 H 173.353 -6.26543 4.23061 0
M  V30 1865 H 174.621 -7.04619 3.33365 0
M  V30 1866 N 178.85 -1.27639 -0.924453 0
M  V30 1867 C 180.266 -1.05113 -1.20097 0
M  V30 1868 C 180.466 0.213262 -2.00368 0
M  V30 1869 O 179.522 0.91787 -2.35226 0
M  V30 1870 C 180.835 -2.29244 -1.94596 0
M  V30 1871 C 182.383 -2.34315 -2.07522 0
M  V30 1872 C 182.858 -3.58183 -2.85427 0
M  V30 1873 N 184.349 -3.5876 -2.92994 0
M  V30 1874 C 185.084 -4.51277 -3.53746 0
M  V30 1875 N 184.58 -5.54102 -4.15863 0
M  V30 1876 N 186.373 -4.38894 -3.51181 0
M  V30 1877 H 178.524 -2.08821 -0.388264 0
M  V30 1878 H 180.787 -0.918568 -0.234385 0
M  V30 1879 H 180.493 -3.21301 -1.43034 0
M  V30 1880 H 180.367 -2.34816 -2.95197 0
M  V30 1881 H 182.754 -1.42762 -2.58269 0
M  V30 1882 H 182.835 -2.32744 -1.06131 0
M  V30 1883 H 182.479 -4.50074 -2.35363 0
M  V30 1884 H 182.409 -3.57006 -3.8711 0
M  V30 1885 H 184.9 -2.84398 -2.4885 0
M  V30 1886 H 185.213 -6.20859 -4.60168 0
M  V30 1887 H 183.558 -5.57941 -4.144 0
M  V30 1888 H 186.749 -3.57772 -3.01856 0
M  V30 1889 H 186.922 -5.11186 -3.98237 0
M  V30 1890 N 180.328 1.1314 -1.09713 0
M  V30 1891 C 181.576 1.84119 -0.833338 0
M  V30 1892 C 181.897 1.84097 0.642904 0
M  V30 1893 O 181.167 1.29881 1.46655 0
M  V30 1894 H 179.747 0.681766 -0.305293 0
M  V30 1895 H 182.409 1.37038 -1.38588 0
M  V30 1896 H 181.505 2.88543 -1.18951 0
M  V30 1897 N 181.806 0.884767 1.30421 0
M  V30 1898 C 182.736 0.367574 2.30589 0
M  V30 1899 C 183.717 -0.549464 1.60981 0
M  V30 1900 O 184.902 -0.46336 1.88591 0
M  V30 1901 C 182.032 -0.418944 3.44764 0
M  V30 1902 C 180.986 0.406316 4.26067 0
M  V30 1903 C 180.312 -0.506793 5.32293 0
M  V30 1904 C 181.612 1.64832 4.95608 0
M  V30 1905 H 183.306 1.20462 2.74097 0
M  V30 1906 H 180.852 0.580695 1.31772 0
M  V30 1907 H 182.805 -0.791395 4.13902 0
M  V30 1908 H 181.529 -1.28964 3.0006 0
M  V30 1909 H 180.188 0.760903 3.58617 0
M  V30 1910 H 179.836 -1.37519 4.83836 0
M  V30 1911 H 179.536 0.0415828 5.87585 0
M  V30 1912 H 181.06 -0.875764 6.04287 0
M  V30 1913 H 182.474 1.34646 5.57264 0
M  V30 1914 H 180.871 2.13688 5.60765 0
M  V30 1915 H 181.941 2.39284 4.21748 0
M  V30 1916 N 183.284 -1.43765 0.645699 0
M  V30 1917 C 184.531 -2.01898 0.15604 0
M  V30 1918 C 184.859 -1.50887 -1.22733 0
M  V30 1919 O 184.114 -0.689271 -1.8316 0
M  V30 1920 C 184.413 -3.57238 0.107679 0
M  V30 1921 C 184.079 -4.27564 1.43178 0
M  V30 1922 C 182.741 -4.46492 1.7944 0
M  V30 1923 C 185.093 -4.67454 2.30513 0
M  V30 1924 C 182.421 -5.02573 3.02716 0
M  V30 1925 C 184.773 -5.24901 3.53074 0
M  V30 1926 C 183.437 -5.42046 3.89541 0
M  V30 1927 H 182.707 -0.738797 0.057099 0
M  V30 1928 H 185.354 -1.72341 0.834912 0
M  V30 1929 H 183.659 -3.86293 -0.654618 0
M  V30 1930 H 185.356 -3.99965 -0.287938 0
M  V30 1931 H 181.946 -4.13171 1.13963 0
M  V30 1932 H 186.13 -4.5253 2.0379 0
M  V30 1933 H 181.386 -5.14033 3.31028 0
M  V30 1934 H 185.56 -5.54758 4.20971 0
M  V30 1935 H 183.187 -5.85268 4.85145 0
M  V30 1936 N 184.763 -0.387143 -1.52771 0
M  V30 1937 C 186.009 0.188506 -2.02525 0
M  V30 1938 C 186.364 1.44649 -1.26864 0
M  V30 1939 O 185.657 1.88189 -0.359945 0
M  V30 1940 C 185.851 0.512209 -3.53711 0
M  V30 1941 C 185.68 -0.712855 -4.44014 0
M  V30 1942 C 184.45 -1.23147 -4.90064 0
M  V30 1943 C 186.648 -1.58453 -4.89282 0
M  V30 1944 N 184.63 -2.41431 -5.64433 0
M  V30 1945 C 186.001 -2.61381 -5.6221 0
M  V30 1946 C 188.056 -1.60488 -4.71326 0
M  V30 1947 C 186.759 -3.66227 -6.19088 0
M  V30 1948 C 188.785 -2.6424 -5.29085 0
M  V30 1949 C 188.147 -3.6589 -6.01917 0
M  V30 1950 H 184.246 0.0311236 -0.78138 0
M  V30 1951 H 186.83 -0.536548 -1.87161 0
M  V30 1952 H 185.001 1.20632 -3.69192 0
M  V30 1953 H 186.733 1.07482 -3.90166 0
M  V30 1954 H 183.488 -0.792795 -4.66917 0
M  V30 1955 H 183.912 -3.01274 -6.0627 0
M  V30 1956 H 188.554 -0.83247 -4.14524 0
M  V30 1957 H 186.272 -4.44337 -6.74974 0
M  V30 1958 H 189.858 -2.66695 -5.17074 0
M  V30 1959 H 188.738 -4.44855 -6.45813 0
M  V30 1960 N 186.241 1.57166 -0.116904 0
M  V30 1961 C 187.488 1.95123 0.541603 0
M  V30 1962 C 187.816 1.00006 1.6682 0
M  V30 1963 O 187.071 0.0235658 1.95686 0
M  V30 1964 C 187.37 3.39508 1.11664 0
M  V30 1965 C 187.036 4.50762 0.111606 0
M  V30 1966 C 185.698 4.80918 -0.164758 0
M  V30 1967 C 188.05 5.18036 -0.573438 0
M  V30 1968 C 185.378 5.75666 -1.13249 0
M  V30 1969 C 187.73 6.13824 -1.52978 0
M  V30 1970 C 186.394 6.42374 -1.81415 0
M  V30 1971 H 185.664 0.714005 0.198187 0
M  V30 1972 H 188.311 1.9048 -0.197365 0
M  V30 1973 H 186.616 3.40835 1.93232 0
M  V30 1974 H 188.313 3.66189 1.63422 0
M  V30 1975 H 184.903 4.27272 0.337192 0
M  V30 1976 H 189.087 4.94896 -0.373092 0
M  V30 1977 H 184.343 5.96092 -1.35958 0
M  V30 1978 H 188.517 6.65039 -2.06629 0
M  V30 1979 H 186.144 7.15599 -2.56557 0
M  V30 1980 N 187.719 -0.156864 1.56817 0
M  V30 1981 C 188.947 -0.886316 1.86955 0
M  V30 1982 C 189.362 -1.75185 0.703975 0
M  V30 1983 O 188.719 -1.79555 -0.326552 0
M  V30 1984 C 188.77 -1.75117 3.16253 0
M  V30 1985 O 188.491 -0.920537 4.2832 0
M  V30 1986 C 189.992 -2.58905 3.59837 0
M  V30 1987 H 187.212 -0.25678 0.619923 0
M  V30 1988 H 189.756 -0.152615 2.0393 0
M  V30 1989 H 187.911 -2.43805 3.01062 0
M  V30 1990 H 188.325 -1.51337 5.02192 0
M  V30 1991 H 189.799 -3.1518 4.53172 0
M  V30 1992 H 190.276 -3.34472 2.84649 0
M  V30 1993 H 190.882 -1.95526 3.7769 0
M  V30 1994 N 189.197 -1.51736 -0.425897 0
M  V30 1995 C 190.127 -1.76827 -1.52494 0
M  V30 1996 C 191.108 -0.618524 -1.58456 0
M  V30 1997 O 192.293 -0.862416 -1.74 0
M  V30 1998 C 189.423 -1.90374 -2.90474 0
M  V30 1999 C 188.377 -3.0588 -2.99369 0
M  V30 2000 C 187.703 -3.04625 -4.3944 0
M  V30 2001 C 189.003 -4.45644 -2.72394 0
M  V30 2002 H 190.697 -2.68855 -1.31748 0
M  V30 2003 H 188.243 -1.29372 -0.632362 0
M  V30 2004 H 190.196 -2.0651 -3.6733 0
M  V30 2005 H 188.92 -0.95004 -3.12477 0
M  V30 2006 H 187.579 -2.89467 -2.24954 0
M  V30 2007 H 187.227 -2.0701 -4.58428 0
M  V30 2008 H 186.927 -3.82195 -4.46319 0
M  V30 2009 H 188.451 -3.22869 -5.18255 0
M  V30 2010 H 189.865 -4.62348 -3.38979 0
M  V30 2011 H 188.262 -5.25006 -2.9067 0
M  V30 2012 H 189.332 -4.54893 -1.67929 0
M  V30 2013 N 190.675 0.682077 -1.42076 0
M  V30 2014 C 191.605 1.80796 -1.47767 0
M  V30 2015 C 192.586 1.6677 -0.334954 0
M  V30 2016 O 193.771 1.863 -0.548264 0
M  V30 2017 C 190.901 3.19038 -1.37229 0
M  V30 2018 C 189.855 3.47789 -2.49453 0
M  V30 2019 C 189.181 4.8553 -2.23975 0
M  V30 2020 C 190.481 3.45411 -3.91776 0
M  V30 2021 H 192.175 1.7629 -2.41997 0
M  V30 2022 H 189.721 0.846721 -1.16476 0
M  V30 2023 H 191.674 3.97528 -1.39821 0
M  V30 2024 H 190.398 3.24204 -0.394907 0
M  V30 2025 H 189.057 2.71657 -2.46166 0
M  V30 2026 H 188.705 4.87337 -1.24547 0
M  V30 2027 H 188.405 5.0573 -2.99184 0
M  V30 2028 H 189.929 5.66312 -2.28304 0
M  V30 2029 H 191.343 4.13882 -3.96705 0
M  V30 2030 H 189.74 3.77145 -4.66778 0
M  V30 2031 H 190.81 2.44122 -4.18966 0
M  V30 2032 N 192.153 1.28127 0.917671 0
M  V30 2033 C 193.085 1.07517 2.02417 0
M  V30 2034 C 194.098 0.0281099 1.62776 0
M  V30 2035 O 195.287 0.270748 1.76435 0
M  V30 2036 C 192.387 0.610957 3.33347 0
M  V30 2037 C 191.56 1.73255 4.01624 0
M  V30 2038 C 190.619 1.26238 5.10833 0
M  V30 2039 O 189.645 1.96389 5.34247 0
M  V30 2040 N 190.847 0.123448 5.80369 0
M  V30 2041 H 193.612 2.02806 2.20658 0
M  V30 2042 H 191.173 1.19827 1.08871 0
M  V30 2043 H 193.165 0.280101 4.0373 0
M  V30 2044 H 191.735 -0.24898 3.11607 0
M  V30 2045 H 190.955 2.23319 3.24842 0
M  V30 2046 H 192.243 2.48503 4.43986 0
M  V30 2047 H 191.641 -0.461847 5.63812 0
M  V30 2048 H 190.198 -0.148158 6.51632 0
M  V30 2049 N 193.631 -1.12557 1.10312 0
M  V30 2050 C 194.859 -1.87864 0.866873 0
M  V30 2051 C 195.274 -1.79588 -0.582557 0
M  V30 2052 O 194.631 -1.16887 -1.40156 0
M  V30 2053 C 194.682 -3.37125 1.30496 0
M  V30 2054 O 194.403 -3.45201 2.69755 0
M  V30 2055 C 195.904 -4.29373 1.10243 0
M  V30 2056 H 193.124 -0.594452 0.311236 0
M  V30 2057 H 195.668 -1.42429 1.46745 0
M  V30 2058 H 193.823 -3.80109 0.748081 0
M  V30 2059 H 194.237 -4.38056 2.88457 0
M  V30 2060 H 195.711 -5.32394 1.45811 0
M  V30 2061 H 196.188 -4.39181 0.0409492 0
M  V30 2062 H 196.794 -3.92169 1.64571 0
M  V30 2063 N 195.109 -0.891671 -1.2995 0
M  V30 2064 C 196.072 -0.36828 -2.26222 0
M  V30 2065 C 197.072 0.493014 -1.53056 0
M  V30 2066 O 198.262 0.299213 -1.71611 0
M  V30 2067 C 195.394 0.47442 -3.37583 0
M  V30 2068 H 196.587 -1.21844 -2.74033 0
M  V30 2069 H 194.14 -0.669107 -1.41254 0
M  V30 2070 H 194.875 1.34489 -2.95099 0
M  V30 2071 H 194.66 -0.142615 -3.91841 0
M  V30 2072 H 196.15 0.83218 -4.09224 0
M  V30 2073 N 196.587 1.43421 -0.653314 0
M  V30 2074 C 197.497 2.34568 0.0388565 0
M  V30 2075 C 198.513 1.53888 0.81207 0
M  V30 2076 O 199.689 1.86539 0.759294 0
M  V30 2077 C 196.754 3.32167 0.993269 0
M  V30 2078 C 195.815 4.28751 0.216977 0
M  V30 2079 C 195.048 5.21688 1.12593 0
M  V30 2080 O 195.271 5.19052 2.36519 0
M  V30 2081 O 194.205 5.98919 0.598284 0
M  V30 2082 H 198.031 2.95251 -0.711386 0
M  V30 2083 H 195.616 1.43564 -0.413502 0
M  V30 2084 H 197.498 3.92183 1.54176 0
M  V30 2085 H 196.173 2.73987 1.72374 0
M  V30 2086 H 195.08 3.72215 -0.375101 0
M  V30 2087 H 196.413 4.89913 -0.473924 0
M  V30 2088 N 198.065 0.39524 1.52563 0
M  V30 2089 C 198.975 -0.444232 2.30356 0
M  V30 2090 C 199.991 -1.06615 1.37511 0
M  V30 2091 O 201.167 -1.07067 1.70583 0
M  V30 2092 C 198.232 -1.55315 3.09964 0
M  V30 2093 C 197.293 -0.955734 4.18526 0
M  V30 2094 C 196.526 -2.01181 4.9433 0
M  V30 2095 O 196.749 -3.22781 4.70285 0
M  V30 2096 O 195.683 -1.62579 5.79527 0
M  V30 2097 H 199.509 0.189667 3.03107 0
M  V30 2098 H 197.094 0.1588 1.48554 0
M  V30 2099 H 198.976 -2.19724 3.59582 0
M  V30 2100 H 197.651 -2.17191 2.4002 0
M  V30 2101 H 196.558 -0.274743 3.7309 0
M  V30 2102 H 197.891 -0.381109 4.90722 0
M  V30 2103 N 199.544 -1.57102 0.125237 0
M  V30 2104 C 200.507 -2.14471 -0.80838 0
M  V30 2105 C 201.507 -1.0811 -1.19033 0
M  V30 2106 O 202.697 -1.33856 -1.11482 0
M  V30 2107 C 199.829 -2.69005 -2.09402 0
M  V30 2108 H 201.022 -2.98297 -0.309696 0
M  V30 2109 H 198.575 -1.55807 -0.124051 0
M  V30 2110 H 199.31 -1.88785 -2.63687 0
M  V30 2111 H 199.095 -3.46799 -1.82957 0
M  V30 2112 H 200.585 -3.13278 -2.76128 0
M  V30 2113 N 201.022 0.148545 -1.56898 0
M  V30 2114 C 202.268 0.857877 -1.84424 0
M  V30 2115 C 202.623 1.7886 -0.709006 0
M  V30 2116 O 201.916 1.89344 0.293139 0
M  V30 2117 C 202.11 1.67064 -3.1595 0
M  V30 2118 C 201.939 0.82011 -4.42159 0
M  V30 2119 C 200.709 0.486328 -5.02954 0
M  V30 2120 C 202.907 0.151155 -5.14078 0
M  V30 2121 N 200.889 -0.377956 -6.12735 0
M  V30 2122 C 202.26 -0.573333 -6.17343 0
M  V30 2123 C 204.315 0.0716685 -4.97848 0
M  V30 2124 C 203.018 -1.3698 -7.06137 0
M  V30 2125 C 205.044 -0.711532 -5.87104 0
M  V30 2126 C 204.406 -1.42431 -6.8985 0
M  V30 2127 H 200.505 0.291798 -0.725519 0
M  V30 2128 H 203.089 0.123347 -1.94309 0
M  V30 2129 H 201.26 2.37642 -3.07215 0
M  V30 2130 H 202.992 2.32302 -3.31388 0
M  V30 2131 H 199.747 0.821753 -4.66416 0
M  V30 2132 H 200.171 -0.801077 -6.72244 0
M  V30 2133 H 204.813 0.608381 -4.184 0
M  V30 2134 H 202.531 -1.91778 -7.85014 0
M  V30 2135 H 206.117 -0.775005 -5.76615 0
M  V30 2136 H 204.997 -2.02061 -7.57721 0
M  V30 2137 N 202.5 1.5196 0.417844 0
M  V30 2138 C 203.777 1.56146 1.17803 0
M  V30 2139 C 204.157 0.337275 2.08388 0
M  V30 2140 O 203.505 -0.676447 2.18258 0
M  V30 2141 C 203.715 2.88566 1.96293 0
M  V30 2142 C 205.063 3.41244 2.52662 0
M  V30 2143 O 206.087 2.90247 2.06483 0
M  V30 2144 O 204.946 4.30273 3.36938 0
M  V30 2145 H 202.04 0.628598 0.537395 0
M  V30 2146 H 204.586 1.64283 0.425331 0
M  V30 2147 H 203.358 3.69116 1.2988 0
M  V30 2148 H 202.981 2.83681 2.78587 0
M  V30 2149 N 203.978 -0.674533 1.42435 0
M  V30 2150 C 205.394 -0.98769 1.25367 0
M  V30 2151 C 205.594 -2.00879 0.158044 0
M  V30 2152 O 204.65 -2.48075 -0.470633 0
M  V30 2153 C 205.963 -1.49224 2.6106 0
M  V30 2154 C 207.511 -1.61 2.68417 0
M  V30 2155 C 207.986 -2.14852 4.04478 0
M  V30 2156 N 209.477 -2.22185 4.06434 0
M  V30 2157 C 210.212 -2.64928 5.08528 0
M  V30 2158 N 209.708 -3.07121 6.21006 0
M  V30 2159 N 211.501 -2.64679 4.95885 0
M  V30 2160 H 203.652 0.00152503 2.124 0
M  V30 2161 H 205.915 -0.0618434 0.945981 0
M  V30 2162 H 205.621 -0.816453 3.42092 0
M  V30 2163 H 205.495 -2.47094 2.84999 0
M  V30 2164 H 207.882 -2.27686 1.87732 0
M  V30 2165 H 207.963 -0.616195 2.48267 0
M  V30 2166 H 207.607 -1.48775 4.85622 0
M  V30 2167 H 207.537 -3.15024 4.2198 0
M  V30 2168 H 210.028 -1.92435 3.25234 0
M  V30 2169 H 210.341 -3.38423 6.94759 0
M  V30 2170 H 208.686 -3.04978 6.24511 0
M  V30 2171 H 211.877 -2.31078 4.07088 0
M  V30 2172 H 212.05 -2.9767 5.75584 0
M  V30 2173 N 205.456 -1.28612 -0.910864 0
M  V30 2174 C 206.404 -1.1265 -2.03501 0
M  V30 2175 C 207.398 -0.0450054 -1.6934 0
M  V30 2176 O 208.604 -0.203988 -1.7884 0
M  V30 2177 H 204.979 -0.347639 -0.666822 0
M  V30 2178 H 206.95 -2.07849 -2.14106 0
M  V30 2179 C 205.699 -0.808143 -3.38178 0
M  V30 2180 H 205.022 -1.63231 -3.6496 0
M  V30 2181 H 206.462 -0.736426 -4.17556 0
M  V30 2182 C 204.921 0.488226 -3.33344 0
M  V30 2183 O 205.451 1.51766 -3.71927 0
M  V30 2184 N 203.657 0.490009 -2.86439 0
M  V30 2185 H 203.204 -0.348161 -2.55236 0
M  V30 2186 H 203.162 1.35741 -2.83587 0
M  V30 2187 N 206.934 1.1197 -1.10907 0
M  V30 2188 C 207.864 2.19928 -0.784473 0
M  V30 2189 C 208.845 1.6833 0.244726 0
M  V30 2190 O 210.03 1.93892 0.109418 0
M  V30 2191 C 207.16 3.46597 -0.220827 0
M  V30 2192 C 206.114 4.11376 -1.18127 0
M  V30 2193 C 205.44 5.32554 -0.478594 0
M  V30 2194 C 206.74 4.56945 -2.52979 0
M  V30 2195 H 208.434 2.47337 -1.68715 0
M  V30 2196 H 205.98 1.18879 -0.812642 0
M  V30 2197 H 207.933 4.21396 0.0184278 0
M  V30 2198 H 206.657 3.1863 0.717113 0
M  V30 2199 H 205.316 3.38564 -1.40606 0
M  V30 2200 H 204.964 5.00856 0.463976 0
M  V30 2201 H 204.664 5.76844 -1.11912 0
M  V30 2202 H 206.188 6.10096 -0.248 0
M  V30 2203 H 207.602 5.23093 -2.3462 0
M  V30 2204 H 205.999 5.1203 -3.12962 0
M  V30 2205 H 207.069 3.70676 -3.12614 0
M  V30 2206 N 208.412 0.89855 1.29475 0
M  V30 2207 C 209.689 0.443416 1.90508 0
M  V30 2208 C 210.069 -1.07685 1.81569 0
M  V30 2209 O 209.417 -1.9182 1.24166 0
M  V30 2210 C 209.627 0.956708 3.35631 0
M  V30 2211 C 210.975 0.999728 4.12663 0
M  V30 2212 O 211.999 0.904299 3.4453 0
M  V30 2213 O 210.858 1.14289 5.34416 0
M  V30 2214 H 207.952 0.138025 0.815401 0
M  V30 2215 H 210.498 0.98834 1.37949 0
M  V30 2216 H 209.27 2.00067 3.36287 0
M  V30 2217 H 208.893 0.391728 3.95666 0
M  V30 2218 N 209.89 -1.43072 0.660911 0
M  V30 2219 C 211.139 -2.00942 0.174735 0
M  V30 2220 C 211.452 -1.52797 -1.22117 0
M  V30 2221 O 212.658 -2.02991 -1.80297 0
M  V30 2222 C 211.114 -3.58948 0.261559 0
M  V30 2223 C 210.722 -4.16085 1.66064 0
M  V30 2224 C 212.466 -4.24173 -0.166617 0
M  V30 2225 C 210.373 -5.6641 1.70098 0
M  V30 2226 H 209.303 -0.751483 0.0615631 0
M  V30 2227 H 211.954 -1.63955 0.824069 0
M  V30 2228 H 210.336 -3.93372 -0.455421 0
M  V30 2229 H 211.51 -3.93147 2.40359 0
M  V30 2230 H 209.825 -3.6326 2.03546 0
M  V30 2231 H 212.422 -5.34471 -0.156433 0
M  V30 2232 H 212.765 -3.98647 -1.19943 0
M  V30 2233 H 213.298 -3.94659 0.498875 0
M  V30 2234 H 210.037 -5.96715 2.71315 0
M  V30 2235 H 209.557 -5.91382 1.00139 0
M  V30 2236 H 211.236 -6.30585 1.44816 0
M  V30 2237 N 211.368 -0.403325 -1.52352 0
M  V30 2238 C 212.316 0.439752 -2.28405 0
M  V30 2239 C 213.31 1.05089 -1.32863 0
M  V30 2240 O 214.516 0.989759 -1.50345 0
M  V30 2241 H 210.891 0.160587 -0.734653 0
M  V30 2242 H 212.862 -0.222983 -2.97566 0
M  V30 2243 C 211.611 1.54736 -3.11371 0
M  V30 2244 H 210.934 1.08643 -3.84755 0
M  V30 2245 H 212.374 2.1112 -3.67701 0
M  V30 2246 C 210.833 2.51141 -2.24566 0
M  V30 2247 O 211.363 3.54887 -1.88196 0
M  V30 2248 N 209.569 2.21213 -1.8845 0
M  V30 2249 H 209.116 1.36878 -2.18225 0
M  V30 2250 H 209.074 2.85963 -1.30662 0
M  V30 2251 N 212.846 1.57033 -0.133567 0
M  V30 2252 C 214.094 1.953 0.519848 0
M  V30 2253 C 214.415 1.01866 1.66278 0
M  V30 2254 O 213.685 0.0776513 1.95746 0
M  V30 2255 H 212.265 0.721091 0.195032 0
M  V30 2256 H 214.927 1.93809 -0.205921 0
M  V30 2257 H 214.023 2.98695 0.904854 0
M  V30 2258 N 214.325 -0.140222 1.56975 0
M  V30 2259 C 215.272 -1.17292 1.98774 0
M  V30 2260 C 216.242 -1.4232 0.856408 0
M  V30 2261 O 217.427 -1.54541 1.119 0
M  V30 2262 C 214.567 -2.49973 2.37923 0
M  V30 2263 C 213.68 -2.32062 3.64378 0
M  V30 2264 C 212.815 -3.57825 3.926 0
M  V30 2265 C 211.854 -3.3498 5.12303 0
M  V30 2266 N 210.991 -4.52891 5.36502 0
M  V30 2267 H 215.831 -0.809472 2.86795 0
M  V30 2268 H 213.368 -0.388237 1.41884 0
M  V30 2269 H 215.326 -3.27346 2.58652 0
M  V30 2270 H 213.956 -2.84252 1.52972 0
M  V30 2271 H 213.008 -1.45711 3.51387 0
M  V30 2272 H 214.32 -2.11145 4.51906 0
M  V30 2273 H 213.474 -4.43624 4.13863 0
M  V30 2274 H 212.213 -3.81753 3.03506 0
M  V30 2275 H 211.218 -2.4757 4.90906 0
M  V30 2276 H 212.443 -3.12444 6.02956 0
M  V30 2277 H 210.389 -4.76979 4.50363 0
M  V30 2278 H 210.306 -4.35001 6.18312 0
M  V30 2279 H 211.574 -5.39884 5.62268 0
M  V30 2280 N 215.803 -1.52179 -0.40978 0
M  V30 2281 C 216.766 -1.74853 -1.48186 0
M  V30 2282 C 217.766 -0.618417 -1.48433 0
M  V30 2283 O 218.956 -0.886286 -1.49969 0
M  V30 2284 C 216.088 -1.8303 -2.87598 0
M  V30 2285 H 217.281 -2.70559 -1.29374 0
M  V30 2286 H 214.834 -1.42586 -0.640233 0
M  V30 2287 H 215.569 -0.89236 -3.11781 0
M  V30 2288 H 215.354 -2.65187 -2.88822 0
M  V30 2289 H 216.844 -2.02316 -3.65319 0
M  V30 2290 N 217.281 0.66697 -1.42791 0
M  V30 2291 C 218.211 1.79218 -1.49677 0
M  V30 2292 C 219.192 1.66405 -0.352623 0
M  V30 2293 O 220.377 1.85708 -0.567993 0
M  V30 2294 C 217.507 3.17565 -1.40605 0
M  V30 2295 C 216.461 3.45124 -2.53127 0
M  V30 2296 C 215.787 4.83127 -2.29112 0
M  V30 2297 C 217.087 3.41236 -3.95418 0
M  V30 2298 H 218.781 1.73713 -2.43853 0
M  V30 2299 H 216.327 0.83432 -1.17367 0
M  V30 2300 H 218.28 3.96022 -1.44029 0
M  V30 2301 H 217.004 3.23767 -0.429271 0
M  V30 2302 H 215.663 2.69031 -2.49034 0
M  V30 2303 H 215.311 4.85988 -1.29709 0
M  V30 2304 H 215.011 5.02528 -3.04531 0
M  V30 2305 H 216.535 5.63859 -2.34297 0
M  V30 2306 H 217.949 4.09651 -4.01073 0
M  V30 2307 H 216.346 3.72173 -4.70752 0
M  V30 2308 H 217.416 2.39665 -4.21532 0
M  V30 2309 N 218.759 1.29093 0.90403 0
M  V30 2310 C 219.722 1.1386 1.98919 0
M  V30 2311 C 220.722 0.0753457 1.60623 0
M  V30 2312 O 221.912 0.321931 1.71199 0
M  V30 2313 C 219.044 0.740198 3.32767 0
M  V30 2314 H 220.237 2.10246 2.13861 0
M  V30 2315 H 217.79 1.12218 1.08797 0
M  V30 2316 H 218.525 -0.223997 3.23525 0
M  V30 2317 H 218.31 1.50838 3.61926 0
M  V30 2318 H 219.8 0.656546 4.12407 0
M  V30 2319 N 220.237 -1.11381 1.11499 0
M  V30 2320 C 221.167 -2.19509 0.796125 0
M  V30 2321 C 222.148 -1.68458 -0.235796 0
M  V30 2322 O 223.333 -1.93947 -0.0991344 0
M  V30 2323 C 220.463 -3.46475 0.239205 0
M  V30 2324 C 219.417 -4.10744 1.20307 0
M  V30 2325 C 218.743 -5.32293 0.50683 0
M  V30 2326 C 220.043 -4.55597 2.55399 0
M  V30 2327 H 221.737 -2.46439 1.70024 0
M  V30 2328 H 219.283 -1.18446 0.818935 0
M  V30 2329 H 221.236 -4.214 0.00392006 0
M  V30 2330 H 219.96 -3.19006 -0.700206 0
M  V30 2331 H 218.619 -3.37813 1.42399 0
M  V30 2332 H 218.267 -5.01095 -0.437408 0
M  V30 2333 H 217.967 -5.76243 1.1497 0
M  V30 2334 H 219.491 -6.09956 0.280351 0
M  V30 2335 H 220.905 -5.21841 2.37391 0
M  V30 2336 H 219.302 -5.10363 3.15673 0
M  V30 2337 H 220.372 -3.69013 3.14575 0
M  V30 2338 N 221.715 -0.905404 -1.28997 0
M  V30 2339 C 222.648 -0.331959 -2.25773 0
M  V30 2340 C 223.626 0.559099 -1.52685 0
M  V30 2341 O 224.81 0.50463 -1.8162 0
M  V30 2342 C 221.937 0.526276 -3.34586 0
M  V30 2343 C 220.983 -0.298249 -4.25456 0
M  V30 2344 S 221.816 -1.69968 -5.0781 0
M  V30 2345 C 222.972 -0.848519 -6.20122 0
M  V30 2346 H 223.205 -1.15222 -2.74064 0
M  V30 2347 H 220.738 -0.706112 -1.37308 0
M  V30 2348 H 222.696 1.01565 -3.97737 0
M  V30 2349 H 221.357 1.32084 -2.84978 0
M  V30 2350 H 220.55 0.357607 -5.0273 0
M  V30 2351 H 220.152 -0.720968 -3.66985 0
M  V30 2352 H 222.444 -0.0744325 -6.77459 0
M  V30 2353 H 223.387 -1.59353 -6.89937 0
M  V30 2354 H 223.795 -0.400383 -5.63078 0
M  V30 2355 N 223.193 1.4272 -0.668489 0
M  V30 2356 C 224.442 2.00846 -0.185389 0
M  V30 2357 C 224.755 1.53442 1.21305 0
M  V30 2358 O 225.961 2.03944 1.79218 0
M  V30 2359 C 224.417 3.58805 -0.280591 0
M  V30 2360 C 224.025 4.15198 -1.68268 0
M  V30 2361 C 225.769 4.24255 0.14412 0
M  V30 2362 C 223.676 5.655 -1.73099 0
M  V30 2363 H 222.606 0.751145 -0.0655475 0
M  V30 2364 H 225.257 1.63516 -0.832752 0
M  V30 2365 H 223.639 3.93608 0.434553 0
M  V30 2366 H 224.813 3.91866 -2.42441 0
M  V30 2367 H 223.128 3.62176 -2.05469 0
M  V30 2368 H 225.725 5.34547 0.128086 0
M  V30 2369 H 226.068 3.99277 1.17827 0
M  V30 2370 H 226.601 3.94389 -0.519798 0
M  V30 2371 H 223.34 5.95268 -2.74475 0
M  V30 2372 H 222.86 5.90842 -1.03274 0
M  V30 2373 H 224.539 6.29808 -1.48158 0
M  V30 2374 N 224.671 0.411399 1.52136 0
M  V30 2375 C 225.618 -0.412975 2.27075 0
M  V30 2376 C 226.588 -1.03912 1.29582 0
M  V30 2377 O 227.773 -1.06296 1.58448 0
M  V30 2378 C 224.913 -1.52247 3.09701 0
M  V30 2379 C 224.026 -0.917021 4.22155 0
M  V30 2380 C 223.161 -1.9994 4.92135 0
M  V30 2381 C 222.2 -1.37101 5.96548 0
M  V30 2382 N 221.337 -2.39364 6.60038 0
M  V30 2383 H 226.177 0.232499 2.97092 0
M  V30 2384 H 223.714 0.126496 1.46555 0
M  V30 2385 H 225.672 -2.17674 3.55913 0
M  V30 2386 H 224.302 -2.13794 2.41851 0
M  V30 2387 H 223.354 -0.151742 3.80097 0
M  V30 2388 H 224.666 -0.418006 4.97045 0
M  V30 2389 H 223.82 -2.73088 5.41763 0
M  V30 2390 H 222.559 -2.53208 4.16818 0
M  V30 2391 H 221.564 -0.624873 5.46237 0
M  V30 2392 H 222.789 -0.845998 6.7381 0
M  V30 2393 H 220.735 -2.91759 5.87548 0
M  V30 2394 H 220.652 -1.9428 7.3061 0
M  V30 2395 H 221.92 -3.12074 7.14304 0
M  V30 2396 N 226.149 -1.5696 0.141893 0
M  V30 2397 C 227.112 -2.15316 -0.785587 0
M  V30 2398 C 228.112 -1.09366 -1.1788 0
M  V30 2399 O 229.302 -1.35031 -1.10056 0
M  V30 2400 C 226.434 -2.71211 -2.06537 0
M  V30 2401 H 227.627 -2.98608 -0.278041 0
M  V30 2402 H 225.18 -1.5593 -0.107519 0
M  V30 2403 H 225.915 -1.91571 -2.6167 0
M  V30 2404 H 225.7 -3.4872 -1.79268 0
M  V30 2405 H 227.19 -3.16189 -2.72789 0
M  V30 2406 N 227.627 0.131896 -1.57047 0
M  V30 2407 C 228.873 0.843179 -1.84441 0
M  V30 2408 C 229.206 1.80129 -0.725749 0
M  V30 2409 O 228.481 1.92624 0.269469 0
M  V30 2410 C 228.764 1.60442 -3.22382 0
M  V30 2411 C 228.617 0.666782 -4.4483 0
M  V30 2412 C 229.936 2.56354 -3.5773 0
M  V30 2413 H 227.055 0.305081 -0.670891 0
M  V30 2414 H 229.697 0.107839 -1.89694 0
M  V30 2415 H 227.847 2.23128 -3.18035 0
M  V30 2416 H 229.519 0.0497646 -4.61273 0
M  V30 2417 H 227.762 -0.022609 -4.33794 0
M  V30 2418 H 228.433 1.23579 -5.37989 0
M  V30 2419 H 230.909 2.0378 -3.62785 0
M  V30 2420 H 229.785 3.06657 -4.5525 0
M  V30 2421 H 230.046 3.38419 -2.84473 0
M  V30 2422 N 229.106 1.52395 0.401703 0
M  V30 2423 C 230.352 1.67065 1.14966 0
M  V30 2424 C 230.685 0.403052 1.89971 0
M  V30 2425 O 229.96 -0.598774 1.85054 0
M  V30 2426 C 230.243 2.8975 2.13815 0
M  V30 2427 C 230.096 4.26578 1.42658 0
M  V30 2428 C 231.415 3.07965 3.14397 0
M  V30 2429 H 228.534 0.607968 0.416587 0
M  V30 2430 H 231.176 1.84965 0.434511 0
M  V30 2431 H 229.326 2.74619 2.74803 0
M  V30 2432 H 230.998 4.53451 0.847329 0
M  V30 2433 H 229.241 4.27639 0.72849 0
M  V30 2434 H 229.912 5.08483 2.14823 0
M  V30 2435 H 232.388 3.22043 2.63491 0
M  V30 2436 H 231.264 3.95308 3.80819 0
M  V30 2437 H 231.525 2.21611 3.82545 0
M  V30 2438 N 230.584 -0.659388 1.43143 0
M  V30 2439 C 231.995 -1.24041 1.39537 0
M  V30 2440 C 232.346 -1.95963 0.0963364 0
M  V30 2441 O 231.471 -2.00892 -0.804438 0
M  V30 2442 C 232.066 -2.25601 2.52764 0
M  V30 2443 C 230.625 -2.79195 2.52443 0
M  V30 2444 C 229.772 -1.53743 2.30778 0
M  V30 2445 H 232.723 -0.451792 1.52133 0
M  V30 2446 H 232.744 -3.07651 2.23899 0
M  V30 2447 H 232.256 -1.73226 3.47296 0
M  V30 2448 H 230.357 -3.35649 1.61773 0
M  V30 2449 H 230.47 -3.2716 3.50004 0
M  V30 2450 H 228.834 -1.80869 1.79328 0
M  V30 2451 H 229.617 -1.03312 3.27386 0
M  V30 2452 N 232.062 -1.29571 -0.897171 0
M  V30 2453 C 232.972 -1.16808 -2.03453 0
M  V30 2454 C 233.988 -0.0907471 -1.73763 0
M  V30 2455 O 235.164 -0.303312 -1.99103 0
M  V30 2456 C 232.229 -0.848264 -3.36163 0
M  V30 2457 C 231.29 -2.0097 -3.79354 0
M  V30 2458 C 230.523 -1.70505 -5.05731 0
M  V30 2459 O 230.746 -0.62718 -5.66941 0
M  V30 2460 O 229.68 -2.5538 -5.45036 0
M  V30 2461 H 233.506 -2.12325 -2.17144 0
M  V30 2462 H 231.091 -1.09047 -1.02123 0
M  V30 2463 H 232.973 -0.684581 -4.15802 0
M  V30 2464 H 231.648 0.0771071 -3.23608 0
M  V30 2465 H 230.555 -2.22863 -3.00471 0
M  V30 2466 H 231.888 -2.91636 -3.96496 0
M  V30 2467 N 233.54 1.10788 -1.12088 0
M  V30 2468 C 234.473 2.16237 -0.729168 0
M  V30 2469 C 235.451 1.60207 0.277921 0
M  V30 2470 O 236.635 1.87707 0.172737 0
M  V30 2471 C 233.762 3.38609 -0.0786848 0
M  V30 2472 C 232.808 4.13322 -1.05201 0
M  V30 2473 S 233.641 4.69371 -2.57781 0
M  V30 2474 C 234.797 5.95058 -1.94053 0
M  V30 2475 H 235.03 2.4913 -1.62239 0
M  V30 2476 H 232.563 1.22519 -0.939603 0
M  V30 2477 H 234.521 4.09473 0.290254 0
M  V30 2478 H 233.182 3.03962 0.791593 0
M  V30 2479 H 232.375 5.01051 -0.544433 0
M  V30 2480 H 231.977 3.48251 -1.36371 0
M  V30 2481 H 234.269 6.65278 -1.28107 0
M  V30 2482 H 235.212 6.50472 -2.79807 0
M  V30 2483 H 235.62 5.46918 -1.39787 0
M  V30 2484 N 235.018 0.912232 1.28515 0
M  V30 2485 C 235.928 0.404506 2.31086 0
M  V30 2486 C 236.944 -0.50707 1.66448 0
M  V30 2487 O 238.12 -0.393624 1.97516 0
M  V30 2488 C 235.185 -0.348572 3.44943 0
M  V30 2489 C 234.246 0.59604 4.25142 0
M  V30 2490 C 233.479 -0.121194 5.33562 0
M  V30 2491 O 233.702 -1.34317 5.5436 0
M  V30 2492 O 232.636 0.542716 5.99448 0
M  V30 2493 H 236.462 1.25579 2.76521 0
M  V30 2494 H 234.047 0.676998 1.33181 0
M  V30 2495 H 235.929 -0.77395 4.14232 0
M  V30 2496 H 234.604 -1.17571 3.01594 0
M  V30 2497 H 233.511 1.07079 3.58448 0
M  V30 2498 H 234.844 1.38995 4.72167 0
M  V30 2499 N 236.496 -1.42363 0.676048 0
M  V30 2500 C 237.443 -2.308 -0.00150904 0
M  V30 2501 C 238.413 -1.46032 -0.791444 0
M  V30 2502 O 239.598 -1.74861 -0.76344 0
M  V30 2503 C 236.738 -3.31883 -0.945919 0
M  V30 2504 C 235.851 -4.31741 -0.149675 0
M  V30 2505 C 234.986 -5.19898 -1.08995 0
M  V30 2506 C 234.025 -6.11434 -0.285465 0
M  V30 2507 N 233.162 -6.92138 -1.17851 0
M  V30 2508 H 238.002 -2.88187 0.758455 0
M  V30 2509 H 235.539 -1.41952 0.38576 0
M  V30 2510 H 237.497 -3.89019 -1.50731 0
M  V30 2511 H 236.127 -2.76093 -1.6725 0
M  V30 2512 H 235.179 -3.76713 0.528359 0
M  V30 2513 H 236.491 -4.96534 0.474866 0
M  V30 2514 H 235.645 -5.81772 -1.72123 0
M  V30 2515 H 234.384 -4.55284 -1.74837 0
M  V30 2516 H 233.389 -5.48627 0.359018 0
M  V30 2517 H 234.614 -6.78097 0.368883 0
M  V30 2518 H 232.56 -6.30152 -1.82332 0
M  V30 2519 H 232.477 -7.53542 -0.609082 0
M  V30 2520 H 233.745 -7.58499 -1.79722 0
M  V30 2521 N 237.974 -0.419461 -1.51915 0
M  V30 2522 C 239.39 -0.0708431 -1.59443 0
M  V30 2523 C 239.59 1.41796 -1.43164 0
M  V30 2524 O 238.646 2.18596 -1.26381 0
M  V30 2525 C 239.959 -0.574991 -2.95151 0
M  V30 2526 C 241.507 -0.533867 -3.08413 0
M  V30 2527 C 241.982 -1.01469 -4.46618 0
M  V30 2528 N 243.473 -0.971939 -4.52888 0
M  V30 2529 C 244.208 -1.31505 -5.58116 0
M  V30 2530 N 243.704 -1.73014 -6.70849 0
M  V30 2531 N 245.497 -1.23436 -5.48379 0
M  V30 2532 H 237.648 -1.38836 -1.60743 0
M  V30 2533 H 239.911 -0.570998 -0.756747 0
M  V30 2534 H 239.617 -1.61597 -3.12377 0
M  V30 2535 H 239.491 0.00979777 -3.77199 0
M  V30 2536 H 241.878 0.498086 -2.90866 0
M  V30 2537 H 241.959 -1.15484 -2.28248 0
M  V30 2538 H 241.603 -2.04502 -4.6491 0
M  V30 2539 H 241.533 -0.370433 -5.25295 0
M  V30 2540 H 244.024 -0.666893 -3.71969 0
M  V30 2541 H 244.337 -1.97479 -7.47143 0
M  V30 2542 H 242.682 -1.76926 -6.72103 0
M  V30 2543 H 245.873 -0.908869 -4.59192 0
M  V30 2544 H 246.046 -1.50506 -6.30279 0
M  V30 2545 N 239.452 1.56882 -0.150215 0
M  V30 2546 C 240.7 1.9584 0.499105 0
M  V30 2547 C 241.021 1.03623 1.65188 0
M  V30 2548 O 240.291 0.0984084 1.95653 0
M  V30 2549 H 238.871 0.723119 0.187373 0
M  V30 2550 H 241.533 1.9358 -0.226466 0
M  V30 2551 H 240.629 2.99638 0.873122 0
M  V30 2552 N 240.93 -0.123565 1.57115 0
M  V30 2553 C 242.178 -0.83051 1.84247 0
M  V30 2554 C 242.499 -1.80629 0.73471 0
M  V30 2555 O 241.769 -1.94403 -0.241688 0
M  V30 2556 H 240.349 -0.309694 0.679778 0
M  V30 2557 H 243.011 -0.111976 1.94578 0
M  V30 2558 H 242.107 -1.37852 2.80006 0
M  V30 2559 N 242.408 -1.52605 -0.393616 0
M  V30 2560 C 243.656 -1.67093 -1.13685 0
M  V30 2561 C 243.977 -0.411011 -1.90619 0
M  V30 2562 O 243.247 0.574491 -1.87287 0
M  V30 2563 H 241.827 -0.615923 -0.422668 0
M  V30 2564 H 244.489 -1.89704 -0.447039 0
M  V30 2565 H 243.585 -2.51922 -1.84232 0
M  V30 2566 N 243.887 0.651787 -1.4349 0
M  V30 2567 C 245.112 1.44434 -1.48841 0
M  V30 2568 C 245.537 1.8779 -0.107955 0
M  V30 2569 O 244.895 1.57464 0.898602 0
M  V30 2570 C 244.943 2.65458 -2.44059 0
M  V30 2571 O 244.047 3.64566 -1.92784 0
M  V30 2572 H 243.388 0.433005 -0.503391 0
M  V30 2573 H 245.918 0.797451 -1.88419 0
M  V30 2574 H 245.928 3.13255 -2.6141 0
M  V30 2575 H 244.603 2.33244 -3.4434 0
M  V30 2576 H 243.18 3.23716 -1.851 0
M  V30 2577 N 245.365 1.30045 0.890287 0
M  V30 2578 C 246.611 1.18737 1.64406 0
M  V30 2579 C 246.944 -0.258525 1.92472 0
M  V30 2580 O 246.219 -1.18562 1.54186 0
M  V30 2581 C 246.502 2.01087 2.98724 0
M  V30 2582 C 246.355 3.53867 2.77665 0
M  V30 2583 C 247.674 1.84457 3.9958 0
M  V30 2584 H 244.793 0.432698 0.596608 0
M  V30 2585 H 247.435 1.5962 1.0306 0
M  V30 2586 H 245.585 1.66349 3.51084 0
M  V30 2587 H 247.257 3.98637 2.32133 0
M  V30 2588 H 245.5 3.78318 2.12269 0
M  V30 2589 H 246.171 4.06772 3.7315 0
M  V30 2590 H 248.647 2.14817 3.56361 0
M  V30 2591 H 247.523 2.44411 4.91482 0
M  V30 2592 H 247.784 0.802276 4.3476 0
M  V30 2593 N 246.843 -1.10192 1.12674 0
M  V30 2594 C 248.091 -1.81845 0.881861 0
M  V30 2595 C 248.412 -1.85737 -0.593867 0
M  V30 2596 O 247.682 -1.33724 -1.4316 0
M  V30 2597 H 246.262 -0.673432 0.323261 0
M  V30 2598 H 248.924 -1.33316 1.42172 0
M  V30 2599 H 248.02 -2.85288 1.2656 0
M  V30 2600 N 248.321 -0.919034 -1.28029 0
M  V30 2601 C 249.568 -0.554934 -1.94748 0
M  V30 2602 C 249.896 0.90231 -1.72304 0
M  V30 2603 O 249.151 1.65767 -1.04018 0
M  V30 2604 C 249.45 -0.816855 -3.4794 0
M  V30 2605 C 249.116 -2.25448 -3.90492 0
M  V30 2606 C 247.778 -2.64752 -4.01821 0
M  V30 2607 C 250.13 -3.18977 -4.12193 0
M  V30 2608 C 247.458 -3.96727 -4.32232 0
M  V30 2609 C 249.81 -4.50523 -4.44086 0
M  V30 2610 C 248.474 -4.89673 -4.53626 0
M  V30 2611 H 247.744 -0.203065 -0.712633 0
M  V30 2612 H 250.391 -1.16136 -1.52265 0
M  V30 2613 H 248.696 -0.127677 -3.91592 0
M  V30 2614 H 250.393 -0.514238 -3.97689 0
M  V30 2615 H 246.983 -1.93952 -3.82205 0
M  V30 2616 H 251.167 -2.89817 -4.02889 0
M  V30 2617 H 246.423 -4.26754 -4.37825 0
M  V30 2618 H 250.597 -5.23005 -4.59825 0
M  V30 2619 H 248.224 -5.91969 -4.76946 0
M  V30 2620 N 249.799 1.42003 -0.683588 0
M  V30 2621 C 250.729 2.33487 -0.024866 0
M  V30 2622 C 251.71 1.51163 0.779975 0
M  V30 2623 O 252.895 1.79739 0.735362 0
M  V30 2624 C 250.025 3.3487 0.920836 0
M  V30 2625 C 248.979 4.27414 0.223958 0
M  V30 2626 C 248.305 5.19074 1.2832 0
M  V30 2627 C 249.605 5.14445 -0.90242 0
M  V30 2628 H 251.299 2.88819 -0.788921 0
M  V30 2629 H 248.845 1.38873 -0.38083 0
M  V30 2630 H 250.798 3.97787 1.39081 0
M  V30 2631 H 249.522 2.77861 1.71642 0
M  V30 2632 H 248.181 3.65904 -0.225864 0
M  V30 2633 H 247.829 4.58387 2.071 0
M  V30 2634 H 247.529 5.81822 0.821995 0
M  V30 2635 H 249.053 5.84867 1.75392 0
M  V30 2636 H 250.467 5.70998 -0.513272 0
M  V30 2637 H 248.864 5.86072 -1.28997 0
M  V30 2638 H 249.934 4.52322 -1.74737 0
M  V30 2639 N 251.277 0.427512 1.51691 0
M  V30 2640 C 252.24 -0.377132 2.26076 0
M  V30 2641 C 253.24 -0.958089 1.29141 0
M  V30 2642 O 254.43 -0.83408 1.52934 0
M  V30 2643 C 251.562 -1.53262 3.04506 0
M  V30 2644 H 252.755 0.27464 2.9864 0
M  V30 2645 H 250.308 0.180445 1.55255 0
M  V30 2646 H 251.043 -2.22072 2.36335 0
M  V30 2647 H 250.828 -1.12232 3.75694 0
M  V30 2648 H 252.318 -2.10135 3.60878 0
M  V30 2649 N 252.755 -1.56801 0.158532 0
M  V30 2650 C 253.98 -2.01295 -0.499516 0
M  V30 2651 C 254.405 -1.03799 -1.56867 0
M  V30 2652 O 253.763 -0.0155162 -1.81293 0
M  V30 2653 C 253.811 -3.44469 -1.06647 0
M  V30 2654 O 252.915 -3.50012 -2.18095 0
M  V30 2655 H 252.256 -0.652884 -0.12099 0
M  V30 2656 H 254.786 -2.02958 0.258661 0
M  V30 2657 H 254.796 -3.8351 -1.39227 0
M  V30 2658 H 253.471 -4.14932 -0.283581 0
M  V30 2659 H 252.048 -3.22822 -1.86656 0
M  V30 2660 N 254.233 0.115231 -1.57178 0
M  V30 2661 C 255.479 0.82357 -1.85325 0
M  V30 2662 C 255.812 1.79349 -0.744814 0
M  V30 2663 O 255.087 1.92899 0.249024 0
M  V30 2664 C 255.37 1.57014 -3.24066 0
M  V30 2665 C 255.223 0.619565 -4.45513 0
M  V30 2666 C 256.542 2.52545 -3.60429 0
M  V30 2667 H 253.661 0.297948 -0.674089 0
M  V30 2668 H 256.303 0.0877138 -1.89797 0
M  V30 2669 H 254.453 2.19742 -3.20383 0
M  V30 2670 H 256.125 0.000837639 -4.613 0
M  V30 2671 H 254.368 -0.0686174 -4.33746 0
M  V30 2672 H 255.039 1.17866 -5.3927 0
M  V30 2673 H 257.515 1.9992 -3.64926 0
M  V30 2674 H 256.391 3.01811 -4.58477 0
M  V30 2675 H 256.652 3.35383 -2.88047 0
M  V30 2676 N 255.711 1.52812 0.385517 0
M  V30 2677 C 256.674 1.77188 1.45386 0
M  V30 2678 C 257.674 0.641953 1.4743 0
M  V30 2679 O 258.864 0.910033 1.4854 0
M  V30 2680 C 255.996 1.87582 2.8465 0
M  V30 2681 H 257.189 2.72583 1.25054 0
M  V30 2682 H 254.742 1.43586 0.617467 0
M  V30 2683 H 255.477 0.941849 3.10322 0
M  V30 2684 H 255.262 2.69748 2.84567 0
M  V30 2685 H 256.752 2.08102 3.62054 0
M  V30 2686 N 257.189 -0.644168 1.43834 0
M  V30 2687 C 258.152 -1.73857 1.49353 0
M  V30 2688 C 259.152 -1.56315 0.377112 0
M  V30 2689 O 260.342 -1.62048 0.639226 0
M  V30 2690 C 257.474 -3.12819 1.35488 0
M  V30 2691 H 258.667 -1.70342 2.46827 0
M  V30 2692 H 256.22 -0.856652 1.30733 0
M  V30 2693 H 256.955 -3.2194 0.390569 0
M  V30 2694 H 256.74 -3.26958 2.16428 0
M  V30 2695 H 258.23 -3.92606 1.42302 0
M  V30 2696 N 258.668 -1.30515 -0.883378 0
M  V30 2697 C 259.915 -1.1943 -1.63532 0
M  V30 2698 C 260.243 0.250627 -1.92878 0
M  V30 2699 O 259.498 1.19556 -1.54935 0
M  V30 2700 C 259.797 -1.96994 -2.98209 0
M  V30 2701 C 259.463 -3.466 -2.88408 0
M  V30 2702 C 258.125 -3.87397 -2.85442 0
M  V30 2703 C 260.477 -4.41863 -2.76418 0
M  V30 2704 C 257.805 -5.21745 -2.68327 0
M  V30 2705 C 260.157 -5.7632 -2.60841 0
M  V30 2706 C 258.821 -6.16354 -2.56251 0
M  V30 2707 H 258.091 -0.437025 -0.598406 0
M  V30 2708 H 260.738 -1.61635 -1.02696 0
M  V30 2709 H 259.043 -1.47429 -3.63004 0
M  V30 2710 H 260.74 -1.85808 -3.55354 0
M  V30 2711 H 257.33 -3.14182 -2.91527 0
M  V30 2712 H 261.514 -4.11285 -2.77775 0
M  V30 2713 H 256.77 -5.51853 -2.63189 0
M  V30 2714 H 260.944 -6.49772 -2.50538 0
M  V30 2715 H 258.571 -7.20401 -2.42748 0
M  V30 2716 N 260.146 1.09593 -1.13257 0
M  V30 2717 C 261.562 1.33775 -0.870423 0
M  V30 2718 C 261.762 1.95327 0.494926 0
M  V30 2719 O 260.818 2.19853 1.2418 0
M  V30 2720 C 262.131 2.25106 -1.99369 0
M  V30 2721 C 263.679 2.3862 -2.02558 0
M  V30 2722 C 264.154 3.33285 -3.14142 0
M  V30 2723 N 265.645 3.40857 -3.13641 0
M  V30 2724 C 266.38 4.14101 -3.96621 0
M  V30 2725 N 265.876 4.90157 -4.8961 0
M  V30 2726 N 267.669 4.09808 -3.84726 0
M  V30 2727 H 259.82 0.680136 -2.01216 0
M  V30 2728 H 262.083 0.362133 -0.876107 0
M  V30 2729 H 261.789 1.87103 -2.97801 0
M  V30 2730 H 261.663 3.25481 -1.90635 0
M  V30 2731 H 264.05 2.75887 -1.0474 0
M  V30 2732 H 264.131 1.38028 -2.15364 0
M  V30 2733 H 263.775 2.96741 -4.12198 0
M  V30 2734 H 263.705 4.33776 -2.98574 0
M  V30 2735 H 266.196 2.86624 -2.46282 0
M  V30 2736 H 266.509 5.4347 -5.49418 0
M  V30 2737 H 264.854 4.89251 -4.93617 0
M  V30 2738 H 268.045 3.4949 -3.11408 0
M  V30 2739 H 268.218 4.66629 -4.49623 0
M  V30 2740 N 261.624 0.925811 1.2754 0
M  V30 2741 C 263.035 0.610102 1.7645 0
M  V30 2742 C 263.386 -0.874723 1.75622 0
M  V30 2743 O 262.511 -1.68444 1.35851 0
M  V30 2744 C 263.106 1.10073 3.20421 0
M  V30 2745 C 261.665 0.835723 3.67005 0
M  V30 2746 C 260.812 1.26054 2.46993 0
M  V30 2747 H 263.763 1.10579 1.13833 0
M  V30 2748 H 263.784 0.447557 3.77859 0
M  V30 2749 H 263.296 2.18143 3.20991 0
M  V30 2750 H 261.397 -0.231249 3.71882 0
M  V30 2751 H 261.51 1.45193 4.56569 0
M  V30 2752 H 259.874 0.679111 2.45479 0
M  V30 2753 H 260.657 2.34984 2.50275 0
M  V30 2754 N 263.102 -1.41638 0.69111 0
M  V30 2755 C 264.032 -2.3347 0.037248 0
M  V30 2756 C 265.013 -1.51575 -0.771947 0
M  V30 2757 O 266.198 -1.80126 -0.72582 0
M  V30 2758 C 263.328 -3.35354 -0.903064 0
M  V30 2759 C 262.282 -4.27526 -0.201288 0
M  V30 2760 C 261.608 -5.19747 -1.25565 0
M  V30 2761 C 262.908 -5.13959 0.929689 0
M  V30 2762 H 264.602 -2.88397 0.804227 0
M  V30 2763 H 262.148 -1.38669 0.388189 0
M  V30 2764 H 264.101 -3.98519 -1.36969 0
M  V30 2765 H 262.825 -2.78767 -1.70166 0
M  V30 2766 H 261.484 -3.65779 0.245265 0
M  V30 2767 H 261.132 -4.59479 -2.04666 0
M  V30 2768 H 260.832 -5.8225 -0.791128 0
M  V30 2769 H 262.356 -5.85789 -1.72288 0
M  V30 2770 H 263.77 -5.70718 0.543546 0
M  V30 2771 H 262.167 -5.85379 1.32103 0
M  V30 2772 H 263.237 -4.51389 1.77133 0
M  V30 2773 N 264.58 -0.43555 -1.51462 0
M  V30 2774 C 265.991 0.0279871 -1.86679 0
M  V30 2775 C 266.342 1.42104 -1.35281 0
M  V30 2776 O 265.467 2.04667 -0.702878 0
M  V30 2777 C 266.062 0.0575626 -3.38751 0
M  V30 2778 C 264.621 0.465507 -3.7351 0
M  V30 2779 C 263.768 -0.342996 -2.75171 0
M  V30 2780 H 266.719 -0.651473 -1.44712 0
M  V30 2781 H 266.74 0.867421 -3.70481 0
M  V30 2782 H 266.252 -0.956448 -3.7613 0
M  V30 2783 H 264.353 1.48519 -3.41721 0
M  V30 2784 H 264.466 0.191546 -4.78717 0
M  V30 2785 H 262.83 0.198442 -2.53926 0
M  V30 2786 H 263.613 -1.35585 -3.15391 0
M  V30 2787 N 266.058 1.56714 -0.166846 0
M  V30 2788 C 267.306 1.96358 0.478305 0
M  V30 2789 C 267.627 1.0537 1.6408 0
M  V30 2790 O 266.897 0.119154 1.95537 0
M  V30 2791 H 265.477 0.725065 0.179692 0
M  V30 2792 H 268.139 1.93329 -0.246985 0
M  V30 2793 H 267.235 3.00547 0.841292 0
M  V30 2794 N 267.536 -0.106894 1.57237 0
M  V30 2795 C 268.783 -0.812526 1.85484 0
M  V30 2796 C 269.111 -1.79304 0.753687 0
M  V30 2797 O 268.366 -1.94047 -0.253853 0
M  V30 2798 C 268.665 -1.58628 3.20268 0
M  V30 2799 C 268.331 -0.748967 4.44636 0
M  V30 2800 C 266.993 -0.518104 4.78403 0
M  V30 2801 C 269.345 -0.166122 5.20935 0
M  V30 2802 C 266.673 0.305659 5.85903 0
M  V30 2803 C 269.025 0.644899 6.29304 0
M  V30 2804 C 267.689 0.885965 6.61594 0
M  V30 2805 H 266.959 -0.297324 0.678734 0
M  V30 2806 H 269.606 -0.0744332 1.91355 0
M  V30 2807 H 267.911 -2.39562 3.10028 0
M  V30 2808 H 269.608 -2.13643 3.39349 0
M  V30 2809 H 266.198 -0.939006 4.18187 0
M  V30 2810 H 270.382 -0.33167 4.95191 0
M  V30 2811 H 265.638 0.501528 6.0934 0
M  V30 2812 H 269.812 1.10345 6.87602 0
M  V30 2813 H 267.439 1.52609 7.44725 0
M  V30 2814 N 269.014 -1.53014 -0.377408 0
M  V30 2815 C 270.239 -1.72818 -1.14668 0
M  V30 2816 C 270.664 -0.450725 -1.8262 0
M  V30 2817 O 270.022 0.59439 -1.7128 0
M  V30 2818 C 270.07 -2.88627 -2.16164 0
M  V30 2819 O 269.174 -2.56409 -3.22998 0
M  V30 2820 H 268.515 -0.574301 -0.333278 0
M  V30 2821 H 271.045 -1.99853 -0.438152 0
M  V30 2822 H 271.055 -3.14455 -2.59966 0
M  V30 2823 H 269.73 -3.81294 -1.66095 0
M  V30 2824 H 268.307 -2.4136 -2.84253 0
M  V30 2825 N 270.492 0.636531 -1.44174 0
M  V30 2826 C 271.903 1.21806 -1.41493 0
M  V30 2827 C 272.254 1.95785 -0.1275 0
M  V30 2828 O 271.379 2.02147 0.772376 0
M  V30 2829 C 271.974 2.21551 -2.56321 0
M  V30 2830 C 270.533 2.75143 -2.56853 0
M  V30 2831 C 269.68 1.50052 -2.33195 0
M  V30 2832 H 272.631 0.427531 -1.52833 0
M  V30 2833 H 272.652 3.0405 -2.28765 0
M  V30 2834 H 272.164 1.67679 -3.50008 0
M  V30 2835 H 270.265 3.33033 -1.67093 0
M  V30 2836 H 270.378 3.2155 -3.55165 0
M  V30 2837 H 268.742 1.77993 -1.82183 0
M  V30 2838 H 269.525 0.980903 -3.28988 0
M  V30 2839 N 271.97 1.30982 0.876444 0
M  V30 2840 C 273.2 1.23063 1.65949 0
M  V30 2841 C 273.608 -0.207537 1.88058 0
M  V30 2842 O 272.951 -1.14781 1.43426 0
M  V30 2843 C 273.013 1.89768 3.05333 0
M  V30 2844 C 272.677 3.39106 3.0636 0
M  V30 2845 C 273.674 4.3496 2.84791 0
M  V30 2846 C 271.359 3.80693 3.27686 0
M  V30 2847 C 273.353 5.70375 2.84519 0
M  V30 2848 C 271.04 5.16223 3.27043 0
M  V30 2849 C 272.038 6.10875 3.05485 0
M  V30 2850 O 271.726 7.43928 3.04674 0
M  V30 2851 H 271.458 0.426685 0.524324 0
M  V30 2852 H 274.012 1.7329 1.10271 0
M  V30 2853 H 272.242 1.34082 3.6271 0
M  V30 2854 H 273.931 1.75853 3.65829 0
M  V30 2855 H 274.697 4.0416 2.68103 0
M  V30 2856 H 270.576 3.07457 3.43499 0
M  V30 2857 H 274.12 6.44228 2.67611 0
M  V30 2858 H 270.017 5.4666 3.43269 0
M  V30 2859 H 270.785 7.53022 3.2078 0
M  V30 2860 N 273.449 -1.08991 1.13837 0
M  V30 2861 C 274.397 -2.17841 0.815347 0
M  V30 2862 C 275.391 -1.68164 -0.204233 0
M  V30 2863 O 276.597 -1.79897 -0.0609304 0
M  V30 2864 H 272.972 -0.710654 0.245915 0
M  V30 2865 H 274.943 -2.42315 1.74143 0
M  V30 2866 C 273.692 -3.46381 0.302614 0
M  V30 2867 H 273.015 -3.84979 1.0785 0
M  V30 2868 H 274.455 -4.23844 0.115074 0
M  V30 2869 C 272.914 -3.22556 -0.972591 0
M  V30 2870 O 273.444 -3.45599 -2.04754 0
M  V30 2871 N 271.65 -2.76134 -0.905455 0
M  V30 2872 H 271.197 -2.57582 -0.0305421 0
M  V30 2873 H 271.155 -2.60571 -1.75926 0
M  V30 2874 N 274.927 -0.932562 -1.27047 0
M  V30 2875 C 276.173 -0.576412 -1.94436 0
M  V30 2876 C 276.506 0.880891 -1.73072 0
M  V30 2877 O 275.781 1.62905 -1.06264 0
M  V30 2878 C 276.064 -0.909031 -3.48437 0
M  V30 2879 C 275.917 -2.42044 -3.79123 0
M  V30 2880 C 277.236 -0.418341 -4.38107 0
M  V30 2881 H 274.355 -0.210888 -0.706184 0
M  V30 2882 H 276.997 -1.16522 -1.50075 0
M  V30 2883 H 275.147 -0.407947 -3.86352 0
M  V30 2884 H 276.819 -2.99359 -3.50973 0
M  V30 2885 H 275.062 -2.86758 -3.25503 0
M  V30 2886 H 275.733 -2.6037 -4.86736 0
M  V30 2887 H 278.209 -0.847856 -4.0737 0
M  V30 2888 H 277.085 -0.679981 -5.44672 0
M  V30 2889 H 277.346 0.681642 -4.36814 0
M  V30 2890 N 276.405 1.4127 -0.698611 0
M  V30 2891 C 277.63 2.06024 -0.238512 0
M  V30 2892 C 278.055 1.5224 1.10475 0
M  V30 2893 O 277.413 0.650623 1.69223 0
M  V30 2894 C 277.461 3.59988 -0.209952 0
M  V30 2895 O 276.565 4.04282 0.814235 0
M  V30 2896 H 275.906 0.653829 -0.115775 0
M  V30 2897 H 278.436 1.8098 -0.954326 0
M  V30 2898 H 278.446 4.07979 -0.0418436 0
M  V30 2899 H 277.121 3.98503 -1.1903 0
M  V30 2900 H 275.698 3.6779 0.615234 0
M  V30 2901 N 277.883 0.443576 1.51229 0
M  V30 2902 C 278.83 -0.364716 2.279 0
M  V30 2903 C 279.8 -1.0114 1.31757 0
M  V30 2904 O 280.985 -1.02912 1.60667 0
M  V30 2905 C 278.125 -1.45644 3.12861 0
M  V30 2906 C 277.238 -0.827269 4.24005 0
M  V30 2907 C 276.373 -1.89456 4.96266 0
M  V30 2908 C 275.412 -1.24416 5.99322 0
M  V30 2909 N 274.549 -2.25309 6.64966 0
M  V30 2910 H 279.389 0.295464 2.96532 0
M  V30 2911 H 276.926 0.157554 1.46254 0
M  V30 2912 H 278.884 -2.10076 3.6045 0
M  V30 2913 H 277.514 -2.08616 2.46331 0
M  V30 2914 H 276.566 -0.0710839 3.80334 0
M  V30 2915 H 277.878 -0.312481 4.9782 0
M  V30 2916 H 277.032 -2.61535 5.47434 0
M  V30 2917 H 275.771 -2.4431 4.22095 0
M  V30 2918 H 274.776 -0.508868 5.4744 0
M  V30 2919 H 276.001 -0.702882 6.75453 0
M  V30 2920 H 273.947 -2.79231 5.93604 0
M  V30 2921 H 273.864 -1.78739 7.34567 0
M  V30 2922 H 275.132 -2.96853 7.20763 0
M  V30 2923 N 279.361 -1.56624 0.175154 0
M  V30 2924 C 280.589 -2.01374 -0.474971 0
M  V30 2925 C 281.004 -1.05537 -1.56548 0
M  V30 2926 O 280.361 -0.0568668 -1.82411 0
M  V30 2927 C 280.412 -3.45923 -1.04975 0
M  V30 2928 O 280.133 -4.381 -0.00276605 0
M  V30 2929 C 281.634 -4.06093 -1.77773 0
M  V30 2930 H 278.854 -0.659962 -0.121206 0
M  V30 2931 H 281.398 -2.02601 0.27801 0
M  V30 2932 H 279.553 -3.45458 -1.75321 0
M  V30 2933 H 279.967 -5.22753 -0.427681 0
M  V30 2934 H 281.441 -5.09147 -2.13245 0
M  V30 2935 H 281.918 -3.48405 -2.67414 0
M  V30 2936 H 282.524 -4.10272 -1.12059 0
M  V30 2937 N 280.839 0.0985539 -1.57292 0
M  V30 2938 C 281.802 1.10402 -2.00858 0
M  V30 2939 C 282.802 1.33146 -0.901593 0
M  V30 2940 O 283.992 1.29318 -1.16716 0
M  V30 2941 C 281.124 2.45394 -2.36632 0
M  V30 2942 H 282.317 0.729099 -2.90902 0
M  V30 2943 H 279.87 0.343495 -1.52479 0
M  V30 2944 H 280.605 2.87769 -1.49531 0
M  V30 2945 H 280.39 2.30235 -3.17387 0
M  V30 2946 H 281.88 3.17718 -2.71007 0
M  V30 2947 N 282.317 1.53212 0.369288 0
M  V30 2948 C 283.247 1.82365 1.45826 0
M  V30 2949 C 284.228 0.676907 1.56051 0
M  V30 2950 O 285.413 0.926401 1.70679 0
M  V30 2951 C 282.543 2.01023 2.83208 0
M  V30 2952 C 281.497 3.1678 2.8781 0
M  V30 2953 C 280.823 3.20724 4.27832 0
M  V30 2954 C 282.123 4.55447 2.55667 0
M  V30 2955 H 283.817 2.73559 1.21678 0
M  V30 2956 H 281.363 1.3163 0.583911 0
M  V30 2957 H 283.316 2.20001 3.59413 0
M  V30 2958 H 282.04 1.06536 3.08736 0
M  V30 2959 H 280.699 2.97616 2.14056 0
M  V30 2960 H 280.347 2.23882 4.50429 0
M  V30 2961 H 280.047 3.98496 4.31827 0
M  V30 2962 H 281.571 3.41881 5.05915 0
M  V30 2963 H 282.985 4.74611 3.21586 0
M  V30 2964 H 281.382 5.35432 2.70984 0
M  V30 2965 H 282.452 4.60812 1.5093 0
M  V30 2966 N 283.795 -0.628877 1.44509 0
M  V30 2967 C 284.725 -1.75187 1.54376 0
M  V30 2968 C 285.706 -1.65411 0.396618 0
M  V30 2969 O 286.891 -1.84137 0.617031 0
M  V30 2970 C 284.021 -3.13725 1.48976 0
M  V30 2971 C 282.975 -3.38291 2.62189 0
M  V30 2972 C 282.301 -4.76883 2.41841 0
M  V30 2973 C 283.601 -3.30632 4.04326 0
M  V30 2974 H 285.295 -1.67187 2.48373 0
M  V30 2975 H 282.841 -0.802909 1.19538 0
M  V30 2976 H 284.794 -3.92064 1.54478 0
M  V30 2977 H 283.518 -3.22515 0.514961 0
M  V30 2978 H 282.177 -2.62334 2.56079 0
M  V30 2979 H 281.825 -4.82378 1.42548 0
M  V30 2980 H 281.525 -4.94278 3.17747 0
M  V30 2981 H 283.049 -5.57449 2.49165 0
M  V30 2982 H 284.463 -3.98873 4.11793 0
M  V30 2983 H 282.86 -3.59561 4.80454 0
M  V30 2984 H 283.93 -2.28404 4.27738 0
M  V30 2985 N 285.273 -1.31445 -0.869486 0
M  V30 2986 C 286.521 -1.20918 -1.61936 0
M  V30 2987 C 286.842 0.232683 -1.93607 0
M  V30 2988 O 286.112 1.15352 -1.58338 0
M  V30 2989 H 284.692 -0.44454 -0.600328 0
M  V30 2990 H 287.354 -1.64776 -1.0409 0
M  V30 2991 H 286.45 -1.78124 -2.56278 0
M  V30 2992 N 286.751 1.08385 -1.14413 0
M  V30 2993 C 287.681 2.17321 -0.854044 0
M  V30 2994 C 288.662 1.69024 0.191049 0
M  V30 2995 O 289.847 1.94141 0.0476779 0
M  V30 2996 C 286.977 3.45719 -0.330983 0
M  V30 2997 C 285.931 4.07409 -1.31155 0
M  V30 2998 C 285.257 5.30762 -0.64778 0
M  V30 2999 C 286.557 4.48665 -2.67388 0
M  V30 3000 H 288.251 2.41845 -1.76498 0
M  V30 3001 H 285.797 1.16233 -0.850051 0
M  V30 3002 H 287.75 4.21241 -0.115645 0
M  V30 3003 H 286.474 3.2075 0.615381 0
M  V30 3004 H 285.133 3.33919 -1.51306 0
M  V30 3005 H 284.781 5.02078 0.304398 0
M  V30 3006 H 284.481 5.72992 -1.30207 0
M  V30 3007 H 286.005 6.08998 -0.441972 0
M  V30 3008 H 287.419 5.15364 -2.51143 0
M  V30 3009 H 285.816 5.01814 -3.29093 0
M  V30 3010 H 286.886 3.60543 -3.24248 0
M  V30 3011 N 288.23 0.939286 1.26551 0
M  V30 3012 C 289.178 0.43815 2.28436 0
M  V30 3013 C 290.172 -0.483587 1.62351 0
M  V30 3014 O 291.378 -0.362009 1.76322 0
M  V30 3015 H 287.753 0.123149 0.741848 0
M  V30 3016 H 289.724 1.31002 2.68106 0
M  V30 3017 C 288.473 -0.283052 3.46546 0
M  V30 3018 H 287.796 0.417043 3.97619 0
M  V30 3019 H 289.236 -0.597948 4.19763 0
M  V30 3020 C 287.695 -1.50018 3.01656 0
M  V30 3021 O 288.225 -2.59855 3.0633 0
M  V30 3022 N 286.431 -1.35608 2.57019 0
M  V30 3023 H 285.978 -0.46244 2.53415 0
M  V30 3024 H 285.936 -2.17165 2.27347 0
M  V30 3025 N 289.708 -1.40897 0.706093 0
M  V30 3026 C 290.655 -2.30751 0.0474474 0
M  V30 3027 C 291.625 -1.47678 -0.76029 0
M  V30 3028 O 292.81 -1.76441 -0.726177 0
M  V30 3029 C 289.95 -3.33815 -0.875309 0
M  V30 3030 C 289.063 -4.31961 -0.0580623 0
M  V30 3031 C 288.198 -5.22093 -0.979425 0
M  V30 3032 C 287.237 -6.11902 -0.155706 0
M  V30 3033 N 286.374 -6.94482 -1.03144 0
M  V30 3034 H 291.214 -2.86513 0.819413 0
M  V30 3035 H 288.751 -1.41102 0.415783 0
M  V30 3036 H 290.709 -3.92129 -1.42446 0
M  V30 3037 H 289.339 -2.79579 -1.61356 0
M  V30 3038 H 288.391 -3.75507 0.608147 0
M  V30 3039 H 289.703 -4.95415 0.580082 0
M  V30 3040 H 288.857 -5.85292 -1.59744 0
M  V30 3041 H 287.596 -4.5889 -1.65141 0
M  V30 3042 H 286.601 -5.47742 0.475309 0
M  V30 3043 H 287.826 -6.77162 0.512635 0
M  V30 3044 H 285.772 -6.33877 -1.68924 0
M  V30 3045 H 285.689 -7.54665 -0.449108 0
M  V30 3046 H 286.957 -7.6214 -1.63593 0
M  V30 3047 N 291.186 -0.45159 -1.50991 0
M  V30 3048 C 292.414 0.108334 -2.06616 0
M  V30 3049 C 292.829 1.35224 -1.31757 0
M  V30 3050 O 292.186 1.78475 -0.381174 0
M  V30 3051 C 292.237 0.41619 -3.59096 0
M  V30 3052 O 291.958 -0.778361 -4.3113 0
M  V30 3053 C 293.459 1.02523 -4.31282 0
M  V30 3054 H 290.679 0.00159995 -0.670998 0
M  V30 3055 H 293.223 -0.634771 -1.94399 0
M  V30 3056 H 291.378 1.10921 -3.71181 0
M  V30 3057 H 291.792 -0.511181 -5.22003 0
M  V30 3058 H 293.266 1.19053 -5.39009 0
M  V30 3059 H 293.743 2.01013 -3.905 0
M  V30 3060 H 294.349 0.371173 -4.23677 0
M  V30 3061 N 292.664 1.56529 -0.183458 0
M  V30 3062 C 293.594 2.21549 0.737456 0
M  V30 3063 C 294.575 1.17489 1.23005 0
M  V30 3064 O 295.76 1.45959 1.281 0
M  V30 3065 C 292.89 2.86575 1.96194 0
M  V30 3066 C 291.844 3.96778 1.60473 0
M  V30 3067 C 291.17 4.48911 2.90487 0
M  V30 3068 C 292.47 5.15767 0.823497 0
M  V30 3069 H 294.164 2.98761 0.195453 0
M  V30 3070 H 291.71 1.43702 0.0925686 0
M  V30 3071 H 293.663 3.30739 2.61131 0
M  V30 3072 H 292.387 2.06749 2.52828 0
M  V30 3073 H 291.046 3.53286 0.978997 0
M  V30 3074 H 290.694 3.65862 3.45186 0
M  V30 3075 H 290.394 5.23265 2.67335 0
M  V30 3076 H 291.918 4.95771 3.56432 0
M  V30 3077 H 293.332 5.56549 1.37571 0
M  V30 3078 H 291.729 5.96114 0.690551 0
M  V30 3079 H 292.799 4.84574 -0.177782 0
M  V30 3080 N 294.142 -0.090211 1.57342 0
M  V30 3081 C 295.105 -1.09335 2.01441 0
M  V30 3082 C 296.105 -1.32666 0.908641 0
M  V30 3083 O 297.295 -1.28697 1.174 0
M  V30 3084 C 294.427 -2.44136 2.3793 0
M  V30 3085 H 295.62 -0.713662 2.91285 0
M  V30 3086 H 293.173 -0.335404 1.52659 0
M  V30 3087 H 293.908 -2.86972 1.51055 0
M  V30 3088 H 293.693 -2.28548 3.18603 0
M  V30 3089 H 295.183 -3.16277 2.72688 0
M  V30 3090 N 295.62 -1.53406 -0.361157 0
M  V30 3091 C 296.869 -1.69022 -1.10066 0
M  V30 3092 C 297.182 -0.450838 -1.90333 0
M  V30 3093 O 298.388 -0.487617 -2.67085 0
M  V30 3094 C 296.844 -2.98812 -2.00598 0
M  V30 3095 C 296.452 -4.30027 -1.25621 0
M  V30 3096 C 298.196 -3.23795 -2.74513 0
M  V30 3097 C 296.103 -5.50903 -2.1508 0
M  V30 3098 H 295.033 -0.629776 -0.414606 0
M  V30 3099 H 297.684 -1.79907 -0.361348 0
M  V30 3100 H 296.066 -2.8174 -2.78278 0
M  V30 3101 H 297.24 -4.57745 -0.529739 0
M  V30 3102 H 295.555 -4.11522 -0.635496 0
M  V30 3103 H 298.152 -4.11289 -3.41681 0
M  V30 3104 H 298.495 -2.40045 -3.40123 0
M  V30 3105 H 299.028 -3.41561 -2.03914 0
M  V30 3106 H 295.767 -6.37143 -1.54041 0
M  V30 3107 H 295.287 -5.27459 -2.85565 0
M  V30 3108 H 296.966 -5.85865 -2.74538 0
M  V30 3109 N 297.098 0.621204 -1.44841 0
M  V30 3110 C 298.008 1.7612 -1.5498 0
M  V30 3111 C 299.024 1.68477 -0.434927 0
M  V30 3112 O 300.2 1.89076 -0.693693 0
M  V30 3113 C 297.265 3.1254 -1.50065 0
M  V30 3114 C 296.326 3.31741 -2.72482 0
M  V30 3115 C 295.559 4.61653 -2.67792 0
M  V30 3116 O 295.782 5.431 -1.74352 0
M  V30 3117 O 294.716 4.83271 -3.58794 0
M  V30 3118 H 298.542 1.70518 -2.51311 0
M  V30 3119 H 296.127 0.783643 -1.27198 0
M  V30 3120 H 298.009 3.93844 -1.49882 0
M  V30 3121 H 296.684 3.18663 -0.568806 0
M  V30 3122 H 295.591 2.50077 -2.7823 0
M  V30 3123 H 296.924 3.30486 -3.64746 0
M  V30 3124 N 298.576 1.31904 0.862503 0
M  V30 3125 C 299.506 1.22782 1.98612 0
M  V30 3126 C 300.487 0.113362 1.69722 0
M  V30 3127 O 301.672 0.299218 1.91881 0
M  V30 3128 C 298.802 0.942058 3.34279 0
M  V30 3129 C 297.756 2.0169 3.77499 0
M  V30 3130 C 297.082 1.58369 5.10709 0
M  V30 3131 C 298.382 3.43096 3.93805 0
M  V30 3132 H 300.076 2.16788 2.06502 0
M  V30 3133 H 297.622 1.04366 0.992154 0
M  V30 3134 H 299.575 0.864818 4.1243 0
M  V30 3135 H 298.299 -0.0336603 3.26583 0
M  V30 3136 H 296.958 2.08416 3.01593 0
M  V30 3137 H 296.606 0.595628 4.99461 0
M  V30 3138 H 296.306 2.30279 5.40597 0
M  V30 3139 H 297.83 1.52067 5.91361 0
M  V30 3140 H 299.244 3.39003 4.62331 0
M  V30 3141 H 297.641 4.13288 4.35101 0
M  V30 3142 H 298.711 3.83334 2.96957 0
M  V30 3143 N 300.054 -1.07777 1.14986 0
M  V30 3144 C 301.017 -2.13041 0.845358 0
M  V30 3145 C 302.017 -1.60071 -0.152931 0
M  V30 3146 O 303.207 -1.74033 0.0761879 0
M  V30 3147 C 300.339 -3.39896 0.261383 0
M  V30 3148 H 301.532 -2.41485 1.77834 0
M  V30 3149 H 299.085 -1.23595 0.956757 0
M  V30 3150 H 299.82 -3.17091 -0.68 0
M  V30 3151 H 299.605 -3.79642 0.980514 0
M  V30 3152 H 301.095 -4.17548 0.0657687 0
M  V30 3153 N 301.532 -0.945985 -1.26051 0
M  V30 3154 C 302.943 -0.638096 -1.75457 0
M  V30 3155 C 303.294 0.846672 -1.76991 0
M  V30 3156 O 302.419 1.66262 -1.38513 0
M  V30 3157 C 303.014 -1.15157 -3.18629 0
M  V30 3158 C 301.573 -0.894004 -3.65629 0
M  V30 3159 C 300.72 -1.29967 -2.44957 0
M  V30 3160 H 303.671 -1.12376 -1.1206 0
M  V30 3161 H 303.692 -0.507615 -3.77099 0
M  V30 3162 H 303.204 -2.23222 -3.1748 0
M  V30 3163 H 301.305 0.172057 -3.72203 0
M  V30 3164 H 301.418 -1.52439 -4.54202 0
M  V30 3165 H 299.782 -0.718078 -2.44368 0
M  V30 3166 H 300.565 -2.38935 -2.46505 0
M  V30 3167 N 303.011 1.40521 -0.713556 0
M  V30 3168 C 304.427 1.54839 -0.386907 0
M  V30 3169 C 304.627 1.68532 1.1045 0
M  V30 3170 O 303.683 1.67377 1.89053 0
M  V30 3171 C 304.996 2.77792 -1.15118 0
M  V30 3172 C 306.544 2.91607 -1.13729 0
M  V30 3173 C 307.019 4.1747 -1.88368 0
M  V30 3174 N 308.51 4.24466 -1.85427 0
M  V30 3175 C 309.245 5.20755 -2.40004 0
M  V30 3176 N 308.741 6.22965 -3.03129 0
M  V30 3177 N 310.534 5.1282 -2.30158 0
M  V30 3178 H 302.685 1.29879 -1.68063 0
M  V30 3179 H 304.948 0.627896 -0.710247 0
M  V30 3180 H 304.654 2.73944 -2.20561 0
M  V30 3181 H 304.528 3.6984 -0.741477 0
M  V30 3182 H 306.915 2.94959 -0.0910608 0
M  V30 3183 H 306.996 2.00682 -1.5862 0
M  V30 3184 H 306.64 4.1488 -2.9298 0
M  V30 3185 H 306.57 5.074 -1.40898 0
M  V30 3186 H 309.061 3.51241 -1.3942 0
M  V30 3187 H 309.374 6.92859 -3.42295 0
M  V30 3188 H 307.719 6.23415 -3.07212 0
M  V30 3189 H 310.91 4.31899 -1.80501 0
M  V30 3190 H 311.083 5.87689 -2.72993 0
M  V30 3191 N 304.489 0.459591 1.5075 0
M  V30 3192 C 305.437 -0.354678 2.2988 0
M  V30 3193 C 306.431 -1.00086 1.36672 0
M  V30 3194 O 307.637 -0.933277 1.53915 0
M  V30 3195 H 304.012 -0.13321 0.740107 0
M  V30 3196 H 305.983 0.333269 2.96533 0
M  V30 3197 C 304.732 -1.43073 3.169 0
M  V30 3198 H 304.055 -0.942882 3.88523 0
M  V30 3199 H 305.495 -1.97328 3.75284 0
M  V30 3200 C 303.954 -2.42633 2.33732 0
M  V30 3201 O 304.484 -3.47658 2.01238 0
M  V30 3202 N 302.69 -2.14066 1.9653 0
M  V30 3203 H 302.237 -1.28685 2.23155 0
M  V30 3204 H 302.195 -2.80917 1.41185 0
M  V30 3205 N 305.967 -1.56429 0.191757 0
M  V30 3206 C 307.216 -1.9666 -0.448088 0
M  V30 3207 C 307.529 -1.08136 -1.62991 0
M  V30 3208 O 308.735 -1.38135 -2.33733 0
M  V30 3209 C 307.191 -3.49753 -0.848585 0
M  V30 3210 C 306.799 -4.46935 0.308764 0
M  V30 3211 C 308.543 -3.9876 -1.4557 0
M  V30 3212 C 306.45 -5.91293 -0.112506 0
M  V30 3213 H 305.38 -0.734312 -0.171179 0
M  V30 3214 H 308.031 -1.81301 0.283242 0
M  V30 3215 H 306.413 -3.60604 -1.63649 0
M  V30 3216 H 307.587 -4.47813 1.08627 0
M  V30 3217 H 305.902 -4.08102 0.827158 0
M  V30 3218 H 308.499 -5.04086 -1.78328 0
M  V30 3219 H 308.842 -3.42875 -2.36099 0
M  V30 3220 H 309.375 -3.9101 -0.731836 0
M  V30 3221 H 306.114 -6.51097 0.758514 0
M  V30 3222 H 305.634 -5.93676 -0.854941 0
M  V30 3223 H 307.313 -6.44663 -0.549448 0
M  V30 3224 N 307.445 0.0818655 -1.57387 0
M  V30 3225 C 308.861 0.436412 -1.53517 0
M  V30 3226 C 309.061 1.79758 -0.910459 0
M  V30 3227 O 308.117 2.47324 -0.508636 0
M  V30 3228 C 309.43 0.386734 -2.98203 0
M  V30 3229 C 310.978 0.467644 -3.09487 0
M  V30 3230 C 311.453 0.447978 -4.55804 0
M  V30 3231 N 312.944 0.508348 -4.60402 0
M  V30 3232 C 313.679 0.515184 -5.71081 0
M  V30 3233 N 313.175 0.477435 -6.91153 0
M  V30 3234 N 314.968 0.560988 -5.59294 0
M  V30 3235 H 307.119 -0.809546 -1.96367 0
M  V30 3236 H 309.382 -0.302733 -0.898363 0
M  V30 3237 H 309.088 -0.546539 -3.47427 0
M  V30 3238 H 308.962 1.20075 -3.57578 0
M  V30 3239 H 311.349 1.39134 -2.60242 0
M  V30 3240 H 311.43 -0.374753 -2.5304 0
M  V30 3241 H 311.074 -0.471826 -5.05704 0
M  V30 3242 H 311.004 1.30777 -5.10103 0
M  V30 3243 H 313.495 0.54218 -3.7399 0
M  V30 3244 H 313.808 0.486299 -7.71268 0
M  V30 3245 H 312.153 0.444278 -6.93579 0
M  V30 3246 H 315.344 0.5881 -4.64391 0
M  V30 3247 H 315.517 0.562846 -6.45551 0
M  V30 3248 N 308.923 1.53595 0.353017 0
M  V30 3249 C 310.169 1.70638 1.09593 0
M  V30 3250 C 310.502 0.463286 1.88593 0
M  V30 3251 O 309.777 -0.539597 1.86865 0
M  V30 3252 C 310.06 2.96406 2.04489 0
M  V30 3253 C 309.913 4.30901 1.29014 0
M  V30 3254 C 311.232 3.17812 3.0444 0
M  V30 3255 H 308.351 0.620913 0.397034 0
M  V30 3256 H 310.993 1.86254 0.375446 0
M  V30 3257 H 309.143 2.83223 2.65927 0
M  V30 3258 H 310.815 4.55917 0.702638 0
M  V30 3259 H 309.058 4.29741 0.592071 0
M  V30 3260 H 309.729 5.1506 1.98537 0
M  V30 3261 H 312.205 3.30263 2.53112 0
M  V30 3262 H 311.081 4.07223 3.6805 0
M  V30 3263 H 311.342 2.33669 3.75301 0
M  V30 3264 N 310.401 -0.613514 1.45168 0
M  V30 3265 C 311.349 -1.74572 1.53712 0
M  V30 3266 C 312.343 -1.64426 0.407505 0
M  V30 3267 O 313.549 -1.70291 0.583176 0
M  V30 3268 H 309.924 -0.576641 0.48269 0
M  V30 3269 H 311.895 -1.64492 2.48968 0
M  V30 3270 C 310.644 -3.12943 1.51532 0
M  V30 3271 H 309.967 -3.21407 2.37776 0
M  V30 3272 H 311.407 -3.9201 1.61569 0
M  V30 3273 C 309.866 -3.36053 0.238798 0
M  V30 3274 O 310.396 -3.95837 -0.6838 0
M  V30 3275 N 308.602 -2.9028 0.136359 0
M  V30 3276 H 308.149 -2.41811 0.887999 0
M  V30 3277 H 308.107 -3.06116 -0.716944 0
M  V30 3278 N 311.879 -1.3236 -0.855495 0
M  V30 3279 C 313.119 -1.24187 -1.62348 0
M  V30 3280 C 313.483 0.193597 -1.91021 0
M  V30 3281 O 314.684 0.39904 -2.65822 0
M  V30 3282 C 312.955 -2.07661 -2.90881 0
M  V30 3283 S 314.514 -2.16505 -3.81669 0
M  V30 3284 H 311.332 -0.442076 -0.556857 0
M  V30 3285 H 313.934 -1.67198 -1.01317 0
M  V30 3286 H 312.638 -3.11018 -2.67761 0
M  V30 3287 H 312.169 -1.65425 -3.56929 0
M  V30 3288 H 314.184 -1.31394 -4.78487 0
M  V30 3289 N 313.357 1.07166 -1.15556 0
M  V30 3290 C 314.287 2.16403 -0.877046 0
M  V30 3291 C 315.268 1.69217 0.173111 0
M  V30 3292 O 316.453 1.94181 0.027084 0
M  V30 3293 C 313.583 3.45349 -0.367632 0
M  V30 3294 C 312.537 4.05995 -1.35468 0
M  V30 3295 C 311.863 5.30045 -0.704038 0
M  V30 3296 C 313.163 4.45804 -2.72132 0
M  V30 3297 H 314.857 2.39959 -1.79053 0
M  V30 3298 H 312.403 1.15325 -0.862331 0
M  V30 3299 H 314.356 4.21095 -0.160317 0
M  V30 3300 H 313.08 3.21385 0.581326 0
M  V30 3301 H 311.739 3.32296 -1.54839 0
M  V30 3302 H 311.387 5.02373 0.251128 0
M  V30 3303 H 311.087 5.71579 -1.36277 0
M  V30 3304 H 312.611 6.08495 -0.50654 0
M  V30 3305 H 314.025 5.12671 -2.56595 0
M  V30 3306 H 312.422 4.98296 -3.34397 0
M  V30 3307 H 313.492 3.57083 -3.28054 0
M  V30 3308 N 314.835 0.952656 1.25548 0
M  V30 3309 C 315.798 0.475794 2.24207 0
M  V30 3310 C 316.798 -0.419428 1.55234 0
M  V30 3311 O 317.988 -0.216994 1.72843 0
M  V30 3312 C 315.12 -0.312814 3.39462 0
M  V30 3313 H 316.313 1.34779 2.67908 0
M  V30 3314 H 313.866 0.735739 1.37901 0
M  V30 3315 H 314.601 -1.20257 3.01179 0
M  V30 3316 H 314.386 0.329404 3.90714 0
M  V30 3317 H 315.876 -0.635986 4.12729 0
M  V30 3318 N 316.313 -1.40141 0.720998 0
M  V30 3319 C 317.724 -1.83678 0.334553 0
M  V30 3320 C 318.075 -1.6027 -1.13173 0
M  V30 3321 O 317.2 -1.08643 -1.87152 0
M  V30 3322 C 317.795 -3.33437 0.600437 0
M  V30 3323 C 316.354 -3.75447 0.267642 0
M  V30 3324 C 315.501 -2.63296 0.870097 0
M  V30 3325 H 318.452 -1.29331 0.919732 0
M  V30 3326 H 318.473 -3.80269 -0.132517 0
M  V30 3327 H 317.985 -3.50442 1.66768 0
M  V30 3328 H 316.086 -3.64035 -0.794329 0
M  V30 3329 H 316.199 -4.73344 0.74042 0
M  V30 3330 H 314.563 -2.52954 0.297739 0
M  V30 3331 H 315.346 -2.83112 1.94172 0
M  V30 3332 N 317.792 -0.46758 -1.50504 0
M  V30 3333 C 319.04 0.0884469 -2.01906 0
M  V30 3334 C 319.361 1.40532 -1.35188 0
M  V30 3335 O 318.631 1.89515 -0.496079 0
M  V30 3336 H 317.211 0.0356765 -0.746148 0
M  V30 3337 H 319.873 -0.6172 -1.84869 0
M  V30 3338 H 318.969 0.2425 -3.11156 0
M  V30 3339 N 319.27 1.56325 -0.20005 0
M  V30 3340 C 320.2 2.22318 0.713916 0
M  V30 3341 C 321.181 1.18788 1.21752 0
M  V30 3342 O 322.366 1.47309 1.26545 0
M  V30 3343 C 319.496 2.88639 1.93144 0
M  V30 3344 C 318.45 3.98457 1.56255 0
M  V30 3345 C 317.776 4.51967 2.85709 0
M  V30 3346 C 319.076 5.16612 0.768747 0
M  V30 3347 H 320.77 2.98952 0.163755 0
M  V30 3348 H 318.316 1.43792 0.0773219 0
M  V30 3349 H 320.269 3.33491 2.57608 0
M  V30 3350 H 318.993 2.09419 2.50621 0
M  V30 3351 H 317.652 3.54305 0.941471 0
M  V30 3352 H 317.3 3.69503 3.41287 0
M  V30 3353 H 317 5.26071 2.6177 0
M  V30 3354 H 318.524 4.99523 3.51154 0
M  V30 3355 H 319.938 5.57977 1.3166 0
M  V30 3356 H 318.335 5.96812 0.627286 0
M  V30 3357 H 319.405 4.84358 -0.229168 0
M  V30 3358 N 320.748 -0.0735177 1.57428 0
M  V30 3359 C 321.997 -0.771809 1.86349 0
M  V30 3360 C 322.31 -1.78828 0.792452 0
M  V30 3361 O 323.516 -2.53602 0.96945 0
M  V30 3362 C 321.972 -1.42358 3.30548 0
M  V30 3363 C 321.58 -0.445761 4.45777 0
M  V30 3364 C 323.324 -2.10434 3.6867 0
M  V30 3365 C 321.231 -1.10335 5.81016 0
M  V30 3366 H 320.161 -0.291999 0.695164 0
M  V30 3367 H 322.812 -0.0250749 1.83483 0
M  V30 3368 H 321.194 -2.21852 3.28021 0
M  V30 3369 H 322.368 0.319239 4.59693 0
M  V30 3370 H 320.683 0.130457 4.16196 0
M  V30 3371 H 323.28 -2.60405 4.67004 0
M  V30 3372 H 323.623 -2.90298 2.98383 0
M  V30 3373 H 324.156 -1.37773 3.7318 0
M  V30 3374 H 320.895 -0.345061 6.54591 0
M  V30 3375 H 320.415 -1.83925 5.70904 0
M  V30 3376 H 322.094 -1.62367 6.26295 0
M  V30 3377 N 322.226 -1.5378 -0.344866 0
M  V30 3378 C 323.173 -1.81676 -1.42346 0
M  V30 3379 C 324.143 -0.662376 -1.52321 0
M  V30 3380 O 325.328 -0.906675 -1.67881 0
M  V30 3381 C 322.468 -2.03087 -2.79015 0
M  V30 3382 C 321.581 -3.30799 -2.77842 0
M  V30 3383 C 320.716 -3.42285 -4.0622 0
M  V30 3384 C 319.755 -4.6395 -3.9927 0
M  V30 3385 N 318.892 -4.72477 -5.19336 0
M  V30 3386 H 323.732 -2.73703 -1.17858 0
M  V30 3387 H 321.269 -1.35568 -0.570949 0
M  V30 3388 H 323.227 -2.1349 -3.58438 0
M  V30 3389 H 321.857 -1.14375 -3.01858 0
M  V30 3390 H 320.909 -3.29244 -1.90533 0
M  V30 3391 H 322.221 -4.20314 -2.68584 0
M  V30 3392 H 321.375 -3.52113 -4.94066 0
M  V30 3393 H 320.114 -2.50823 -4.18258 0
M  V30 3394 H 319.119 -4.54201 -3.09809 0
M  V30 3395 H 320.344 -5.56775 -3.88817 0
M  V30 3396 H 318.29 -3.83924 -5.3192 0
M  V30 3397 H 318.207 -5.55927 -5.12329 0
M  V30 3398 H 319.475 -4.86613 -6.08957 0
M  V30 3399 N 323.704 0.605807 -1.45491 0
M  V30 3400 C 324.932 1.39136 -1.5313 0
M  V30 3401 C 325.347 1.88082 -0.164507 0
M  V30 3402 O 324.704 1.62316 0.834247 0
M  V30 3403 C 324.755 2.59463 -2.51716 0
M  V30 3404 O 324.476 2.12551 -3.83084 0
M  V30 3405 C 325.977 3.52301 -2.6907 0
M  V30 3406 H 323.197 0.425849 -0.51855 0
M  V30 3407 H 325.741 0.73865 -1.90694 0
M  V30 3408 H 323.896 3.20772 -2.17219 0
M  V30 3409 H 324.31 2.90744 -4.36541 0
M  V30 3410 H 325.784 4.33271 -3.42024 0
M  V30 3411 H 326.261 4.02757 -1.75167 0
M  V30 3412 H 326.867 2.96845 -3.04571 0
M  V30 3413 N 325.182 1.32811 0.848464 0
M  V30 3414 C 326.407 1.26882 1.6406 0
M  V30 3415 C 326.832 -0.15913 1.87426 0
M  V30 3416 O 326.19 -1.11258 1.43148 0
M  V30 3417 C 326.238 2.03997 2.97351 0
M  V30 3418 O 325.342 1.39201 3.88197 0
M  V30 3419 H 324.683 0.436982 0.499943 0
M  V30 3420 H 327.213 1.75224 1.0563 0
M  V30 3421 H 327.223 2.14403 3.47124 0
M  V30 3422 H 325.898 3.0783 2.79666 0
M  V30 3423 H 324.475 1.37381 3.46671 0
M  V30 3424 N 326.66 -1.06551 1.16123 0
M  V30 3425 C 327.907 -1.79302 0.941126 0
M  V30 3426 C 328.235 -1.87105 -0.531235 0
M  V30 3427 O 327.49 -1.35692 -1.41018 0
M  V30 3428 C 327.789 -3.23911 1.51052 0
M  V30 3429 C 327.455 -3.36193 3.00475 0
M  V30 3430 C 326.117 -3.39252 3.41265 0
M  V30 3431 C 328.469 -3.38326 3.96465 0
M  V30 3432 C 325.797 -3.42057 4.76669 0
M  V30 3433 C 328.149 -3.4267 5.31752 0
M  V30 3434 C 326.813 -3.4401 5.72026 0
M  V30 3435 H 326.083 -0.656111 0.344382 0
M  V30 3436 H 328.73 -1.25325 1.44796 0
M  V30 3437 H 327.035 -3.80723 0.925063 0
M  V30 3438 H 328.732 -3.78793 1.31593 0
M  V30 3439 H 325.322 -3.34516 2.6795 0
M  V30 3440 H 329.506 -3.35176 3.6602 0
M  V30 3441 H 324.762 -3.41398 5.07206 0
M  V30 3442 H 328.936 -3.43268 6.05921 0
M  V30 3443 H 326.563 -3.45937 6.76928 0
M  V30 3444 N 328.138 -0.959301 -1.25041 0
M  V30 3445 C 329.363 -0.633507 -1.97488 0
M  V30 3446 C 329.788 0.788555 -1.70773 0
M  V30 3447 O 329.146 1.53394 -0.966431 0
M  V30 3448 C 329.194 -0.904057 -3.49083 0
M  V30 3449 O 328.298 0.0147939 -4.12397 0
M  V30 3450 H 327.639 -0.240368 -0.618966 0
M  V30 3451 H 330.169 -1.28717 -1.59038 0
M  V30 3452 H 330.179 -0.832203 -3.99423 0
M  V30 3453 H 328.854 -1.94048 -3.67856 0
M  V30 3454 H 327.431 -0.109664 -3.72739 0
M  V30 3455 N 329.616 1.39756 -0.72842 0
M  V30 3456 C 331.032 1.5442 -0.403308 0
M  V30 3457 C 331.232 1.69694 1.08656 0
M  V30 3458 O 330.288 1.69373 1.87267 0
M  V30 3459 C 331.601 2.76555 -1.18058 0
M  V30 3460 C 333.149 2.90384 -1.16815 0
M  V30 3461 C 333.624 4.15449 -1.92785 0
M  V30 3462 N 335.115 4.22475 -1.89918 0
M  V30 3463 C 335.85 5.1818 -2.45514 0
M  V30 3464 N 335.346 6.19714 -3.09719 0
M  V30 3465 N 337.139 5.1035 -2.35584 0
M  V30 3466 H 329.29 1.28089 -1.69431 0
M  V30 3467 H 331.553 0.620327 -0.716867 0
M  V30 3468 H 331.259 2.7159 -2.23455 0
M  V30 3469 H 331.133 3.69033 -0.780662 0
M  V30 3470 H 333.52 2.94846 -0.12234 0
M  V30 3471 H 333.601 1.98988 -1.6074 0
M  V30 3472 H 333.245 4.11749 -2.97364 0
M  V30 3473 H 333.175 5.05877 -1.46272 0
M  V30 3474 H 335.666 3.49743 -1.43138 0
M  V30 3475 H 335.979 6.8919 -3.49625 0
M  V30 3476 H 334.324 6.20121 -3.13807 0
M  V30 3477 H 337.515 4.2996 -1.85072 0
M  V30 3478 H 337.688 5.84761 -2.79211 0
M  V30 3479 N 331.094 0.475555 1.50254 0
M  V30 3480 C 332.027 -0.362381 2.25304 0
M  V30 3481 C 333.005 -0.992393 1.28803 0
M  V30 3482 O 334.189 -1.02746 1.58036 0
M  V30 3483 C 331.316 -1.50813 3.03271 0
M  V30 3484 C 330.362 -0.995044 4.1473 0
M  V30 3485 S 331.195 0.0938436 5.35418 0
M  V30 3486 C 332.351 -1.05567 6.16933 0
M  V30 3487 H 332.584 0.274686 2.96028 0
M  V30 3488 H 330.117 0.260495 1.52187 0
M  V30 3489 H 332.075 -2.16476 3.48781 0
M  V30 3490 H 330.736 -2.11672 2.32064 0
M  V30 3491 H 329.929 -1.85293 4.68703 0
M  V30 3492 H 329.531 -0.416052 3.71679 0
M  V30 3493 H 331.823 -1.96636 6.48337 0
M  V30 3494 H 332.766 -0.555109 7.05921 0
M  V30 3495 H 333.174 -1.31151 5.49053 0
M  V30 3496 N 332.573 -1.56217 0.208337 0
M  V30 3497 C 333.503 -2.22694 -0.702116 0
M  V30 3498 C 334.484 -1.19432 -1.2112 0
M  V30 3499 O 335.669 -1.47978 -1.25762 0
M  V30 3500 C 332.799 -2.8966 -1.9161 0
M  V30 3501 C 331.753 -3.9928 -1.5414 0
M  V30 3502 C 331.079 -4.53476 -2.83308 0
M  V30 3503 C 332.379 -5.17012 -0.741339 0
M  V30 3504 H 334.073 -2.99034 -0.147898 0
M  V30 3505 H 331.619 -1.43831 -0.0696951 0
M  V30 3506 H 333.572 -3.34852 -2.55836 0
M  V30 3507 H 332.296 -2.10746 -2.49507 0
M  V30 3508 H 330.955 -3.54799 -0.922668 0
M  V30 3509 H 330.603 -3.71308 -3.39322 0
M  V30 3510 H 330.303 -5.27451 -2.58976 0
M  V30 3511 H 331.827 -5.01378 -3.485 0
M  V30 3512 H 333.241 -5.58667 -1.28699 0
M  V30 3513 H 331.638 -5.97137 -0.595627 0
M  V30 3514 H 332.708 -4.8423 0.254851 0
M  V30 3515 N 334.051 0.0651679 -1.57465 0
M  V30 3516 C 335.297 0.758912 -1.88712 0
M  V30 3517 C 335.652 1.7485 -0.802819 0
M  V30 3518 O 334.945 1.90632 0.192359 0
M  V30 3519 C 335.139 1.50081 -3.24362 0
M  V30 3520 C 334.968 0.584579 -4.45884 0
M  V30 3521 C 333.738 0.219039 -5.04825 0
M  V30 3522 C 335.936 -0.121559 -5.14156 0
M  V30 3523 N 333.918 -0.702222 -6.09871 0
M  V30 3524 C 335.289 -0.899767 -6.13436 0
M  V30 3525 C 337.344 -0.192331 -4.97528 0
M  V30 3526 C 336.047 -1.74218 -6.97883 0
M  V30 3527 C 338.073 -1.02174 -5.82507 0
M  V30 3528 C 337.435 -1.78798 -6.8133 0
M  V30 3529 H 333.534 0.25293 -0.739967 0
M  V30 3530 H 336.118 0.0201744 -1.9469 0
M  V30 3531 H 334.289 2.21023 -3.1938 0
M  V30 3532 H 336.021 2.14409 -3.43236 0
M  V30 3533 H 332.776 0.57336 -4.70117 0
M  V30 3534 H 333.2 -1.15629 -6.67052 0
M  V30 3535 H 337.842 0.385741 -4.21037 0
M  V30 3536 H 335.56 -2.3312 -7.73745 0
M  V30 3537 H 339.146 -1.07957 -5.71696 0
M  V30 3538 H 338.026 -2.41942 -7.45945 0
M  V30 3539 N 335.529 1.53961 0.336706 0
M  V30 3540 C 336.462 1.77255 1.43722 0
M  V30 3541 C 337.44 0.62193 1.50236 0
M  V30 3542 O 338.624 0.857874 1.67847 0
M  V30 3543 C 335.751 1.87733 2.81912 0
M  V30 3544 C 334.797 3.09933 2.92991 0
M  V30 3545 S 335.63 4.68836 2.58753 0
M  V30 3546 C 336.786 4.82202 3.99039 0
M  V30 3547 H 337.019 2.70322 1.23748 0
M  V30 3548 H 334.552 1.44917 0.532777 0
M  V30 3549 H 336.51 1.94455 3.61521 0
M  V30 3550 H 335.171 0.956666 2.99177 0
M  V30 3551 H 334.364 3.1396 3.94265 0
M  V30 3552 H 333.966 3.01472 2.21338 0
M  V30 3553 H 336.258 4.64032 4.9364 0
M  V30 3554 H 337.201 5.84298 4.00002 0
M  V30 3555 H 337.609 4.10604 3.87382 0
M  V30 3556 N 337.007 -0.598083 1.45811 0
M  V30 3557 C 338.284 -1.35777 1.40797 0
M  V30 3558 C 338.664 -2.10935 0.083462 0
M  V30 3559 O 338.012 -2.08505 -0.934763 0
M  V30 3560 C 338.222 -2.29666 2.62783 0
M  V30 3561 C 339.57 -2.91977 3.08277 0
M  V30 3562 O 340.594 -2.39984 2.63223 0
M  V30 3563 O 339.453 -3.86376 3.86491 0
M  V30 3564 H 336.547 -0.609291 0.55919 0
M  V30 3565 H 339.093 -0.620379 1.57954 0
M  V30 3566 H 337.865 -1.73454 3.50756 0
M  V30 3567 H 337.488 -3.1077 2.48008 0
M  V30 3568 N 338.485 -1.33259 -0.841409 0
M  V30 3569 C 339.432 -1.23302 -1.95103 0
M  V30 3570 C 340.402 -0.112204 -1.65721 0
M  V30 3571 O 341.587 -0.290038 -1.88583 0
M  V30 3572 C 338.727 -0.975583 -3.31023 0
M  V30 3573 C 337.84 -2.18243 -3.72819 0
M  V30 3574 C 336.975 -1.85936 -4.97595 0
M  V30 3575 C 336.014 -3.02866 -5.3192 0
M  V30 3576 N 335.151 -2.70565 -6.47873 0
M  V30 3577 H 339.991 -2.18207 -2.02952 0
M  V30 3578 H 337.528 -1.0851 -0.993173 0
M  V30 3579 H 339.486 -0.80677 -4.09325 0
M  V30 3580 H 338.116 -0.0632755 -3.22738 0
M  V30 3581 H 337.168 -2.46107 -2.90061 0
M  V30 3582 H 338.48 -3.05666 -3.94169 0
M  V30 3583 H 337.634 -1.65684 -5.83638 0
M  V30 3584 H 336.373 -0.957452 -4.78209 0
M  V30 3585 H 335.378 -3.23736 -4.44382 0
M  V30 3586 H 336.603 -3.93809 -5.53255 0
M  V30 3587 H 334.549 -1.8293 -6.29978 0
M  V30 3588 H 334.466 -3.51519 -6.69306 0
M  V30 3589 H 335.734 -2.53774 -7.37034 0
M  V30 3590 N 339.963 1.05934 -1.16686 0
M  V30 3591 C 340.873 2.17014 -0.891183 0
M  V30 3592 C 341.889 1.73453 0.137907 0
M  V30 3593 O 343.065 2.01361 -0.039592 0
M  V30 3594 C 340.13 3.44384 -0.400099 0
M  V30 3595 C 339.191 4.02433 -1.49486 0
M  V30 3596 C 338.424 5.23723 -1.02711 0
M  V30 3597 O 338.647 5.7027 0.121716 0
M  V30 3598 O 337.581 5.7382 -1.81699 0
M  V30 3599 H 341.407 2.43113 -1.82015 0
M  V30 3600 H 338.992 1.15541 -0.947132 0
M  V30 3601 H 340.874 4.21189 -0.133392 0
M  V30 3602 H 339.549 3.19802 0.500817 0
M  V30 3603 H 338.456 3.27102 -1.81535 0
M  V30 3604 H 339.789 4.31317 -2.37121 0
M  V30 3605 N 341.441 0.965919 1.2453 0
M  V30 3606 C 342.388 0.49402 2.25451 0
M  V30 3607 C 343.358 -0.45948 1.59618 0
M  V30 3608 O 344.543 -0.370238 1.87173 0
M  V30 3609 C 341.683 -0.211359 3.44452 0
M  V30 3610 C 340.796 0.7807 4.24887 0
M  V30 3611 C 339.931 0.0516105 5.31175 0
M  V30 3612 C 338.97 1.03385 6.03306 0
M  V30 3613 N 338.107 0.334887 7.01301 0
M  V30 3614 H 342.947 1.35946 2.65184 0
M  V30 3615 H 340.484 0.681515 1.3036 0
M  V30 3616 H 342.442 -0.637 4.12308 0
M  V30 3617 H 341.072 -1.04077 3.05562 0
M  V30 3618 H 340.124 1.32479 3.56586 0
M  V30 3619 H 341.436 1.52978 4.74762 0
M  V30 3620 H 340.59 -0.432114 6.05159 0
M  V30 3621 H 339.329 -0.730179 4.82203 0
M  V30 3622 H 338.334 1.52847 5.28127 0
M  V30 3623 H 339.559 1.81606 6.54367 0
M  V30 3624 H 337.505 -0.427959 6.54603 0
M  V30 3625 H 337.422 1.02287 7.49048 0
M  V30 3626 H 338.69 -0.126928 7.79397 0
M  V30 3627 N 342.919 -1.39368 0.735821 0
M  V30 3628 C 343.829 -2.34395 0.0979693 0
M  V30 3629 C 344.845 -1.58361 -0.720968 0
M  V30 3630 O 346.021 -1.90648 -0.649245 0
M  V30 3631 C 343.086 -3.37393 -0.797916 0
M  V30 3632 C 342.147 -4.29287 0.0333662 0
M  V30 3633 C 341.38 -5.27365 -0.819854 0
M  V30 3634 O 341.603 -5.31959 -2.05855 0
M  V30 3635 O 340.537 -6.01389 -0.248079 0
M  V30 3636 H 344.363 -2.90601 0.882315 0
M  V30 3637 H 341.948 -1.40909 0.4965 0
M  V30 3638 H 343.83 -4.00505 -1.31048 0
M  V30 3639 H 342.505 -2.83571 -1.56106 0
M  V30 3640 H 341.412 -3.69395 0.591475 0
M  V30 3641 H 342.745 -4.86317 0.758752 0
M  V30 3642 N 344.397 -0.483516 -1.5 0
M  V30 3643 C 345.307 0.309172 -2.32554 0
M  V30 3644 C 346.323 0.984159 -1.43493 0
M  V30 3645 O 347.499 0.969399 -1.76535 0
M  V30 3646 C 344.564 1.36979 -3.18493 0
M  V30 3647 C 343.625 0.710095 -4.23387 0
M  V30 3648 C 342.858 1.72018 -5.05218 0
M  V30 3649 O 343.081 2.94813 -4.88305 0
M  V30 3650 O 342.015 1.28515 -5.8802 0
M  V30 3651 H 345.841 -0.366064 -3.01486 0
M  V30 3652 H 343.426 -0.24514 -1.47375 0
M  V30 3653 H 345.308 1.98385 -3.71781 0
M  V30 3654 H 343.983 2.02828 -2.52275 0
M  V30 3655 H 342.89 0.0567539 -3.74057 0
M  V30 3656 H 344.223 0.0943557 -4.9211 0
M  V30 3657 N 345.875 1.56104 -0.216619 0
M  V30 3658 C 347.1 2.0301 0.424462 0
M  V30 3659 C 347.525 1.0955 1.52907 0
M  V30 3660 O 346.883 0.0827914 1.81111 0
M  V30 3661 C 346.931 3.4819 0.937883 0
M  V30 3662 O 346.035 3.57865 2.04955 0
M  V30 3663 H 345.376 0.656925 0.0966755 0
M  V30 3664 H 347.906 2.01859 -0.33381 0
M  V30 3665 H 347.916 3.88413 1.24897 0
M  V30 3666 H 346.591 4.15699 0.129387 0
M  V30 3667 H 345.168 3.29527 1.74546 0
M  V30 3668 N 347.353 -0.0568162 1.57498 0
M  V30 3669 C 348.286 -1.09817 2.00039 0
M  V30 3670 C 349.264 -1.3674 0.879819 0
M  V30 3671 O 350.448 -1.49863 1.14338 0
M  V30 3672 C 347.575 -2.43924 2.34986 0
M  V30 3673 C 346.621 -2.33039 3.57204 0
M  V30 3674 S 347.454 -1.7102 5.07457 0
M  V30 3675 C 348.61 -3.06674 5.45621 0
M  V30 3676 H 348.843 -0.735701 2.88053 0
M  V30 3677 H 346.376 -0.265871 1.52094 0
M  V30 3678 H 348.334 -3.2106 2.55795 0
M  V30 3679 H 346.995 -2.77327 1.47474 0
M  V30 3680 H 346.188 -3.31973 3.79223 0
M  V30 3681 H 345.79 -1.64043 3.36104 0
M  V30 3682 H 348.082 -4.03 5.44608 0
M  V30 3683 H 349.025 -2.8942 6.46252 0
M  V30 3684 H 349.433 -3.07969 4.73091 0
M  V30 3685 N 348.832 -1.54138 -0.328536 0
M  V30 3686 C 349.779 -1.83176 -1.40411 0
M  V30 3687 C 350.749 -0.678494 -1.5161 0
M  V30 3688 O 351.934 -0.92443 -1.6691 0
M  V30 3689 C 349.074 -2.06035 -2.76846 0
M  V30 3690 C 348.187 -3.33727 -2.74318 0
M  V30 3691 C 347.322 -3.46574 -4.02567 0
M  V30 3692 C 346.361 -4.68159 -3.94327 0
M  V30 3693 N 345.498 -4.77959 -5.14296 0
M  V30 3694 H 350.338 -2.74938 -1.14948 0
M  V30 3695 H 347.875 -1.36166 -0.556538 0
M  V30 3696 H 349.833 -2.1728 -3.56153 0
M  V30 3697 H 348.463 -1.1757 -3.00628 0
M  V30 3698 H 347.515 -3.31246 -1.8703 0
M  V30 3699 H 348.827 -4.23139 -2.64111 0
M  V30 3700 H 347.981 -3.57333 -4.90304 0
M  V30 3701 H 346.72 -2.55245 -4.15574 0
M  V30 3702 H 345.725 -4.57461 -3.04974 0
M  V30 3703 H 346.95 -5.60868 -3.82889 0
M  V30 3704 H 344.896 -3.89544 -5.27818 0
M  V30 3705 H 344.813 -5.6133 -5.06404 0
M  V30 3706 H 346.081 -4.93044 -6.03761 0
M  V30 3707 N 350.31 0.590341 -1.46126 0
M  V30 3708 C 351.22 1.72793 -1.58681 0
M  V30 3709 C 352.236 1.67516 -0.470566 0
M  V30 3710 O 353.412 1.87562 -0.733642 0
M  V30 3711 C 350.477 3.09287 -1.5666 0
M  V30 3712 C 349.538 3.25886 -2.79458 0
M  V30 3713 C 348.771 4.55869 -2.77524 0
M  V30 3714 O 348.994 5.3928 -1.85832 0
M  V30 3715 O 347.928 4.75552 -3.68964 0
M  V30 3716 H 351.754 1.65149 -2.54872 0
M  V30 3717 H 349.339 0.756486 -1.28832 0
M  V30 3718 H 351.221 3.90577 -1.58202 0
M  V30 3719 H 349.896 3.17385 -0.636271 0
M  V30 3720 H 348.803 2.44119 -2.83472 0
M  V30 3721 H 350.136 3.22675 -3.71674 0
M  V30 3722 N 351.788 1.33704 0.83433 0
M  V30 3723 C 353.016 1.28467 1.62185 0
M  V30 3724 C 353.431 -0.143526 1.88254 0
M  V30 3725 O 352.788 -1.08709 1.4659 0
M  V30 3726 C 352.839 2.06174 2.96942 0
M  V30 3727 O 352.56 3.43422 2.72016 0
M  V30 3728 C 354.061 2.08201 3.91366 0
M  V30 3729 H 351.281 0.4424 0.504503 0
M  V30 3730 H 353.825 1.76145 1.03891 0
M  V30 3731 H 351.98 1.62167 3.51825 0
M  V30 3732 H 352.394 3.83453 3.57861 0
M  V30 3733 H 353.868 2.67017 4.83121 0
M  V30 3734 H 354.345 1.07343 4.2588 0
M  V30 3735 H 354.951 2.52246 3.42421 0
M  V30 3736 N 353.266 -1.05314 1.17247 0
M  V30 3737 C 354.196 -2.1498 0.911362 0
M  V30 3738 C 355.177 -1.69471 -0.146169 0
M  V30 3739 O 356.362 -1.942 0.003812 0
M  V30 3740 C 353.492 -3.4472 0.422528 0
M  V30 3741 C 352.446 -4.03789 1.4191 0
M  V30 3742 C 351.772 -5.28858 0.788274 0
M  V30 3743 C 353.072 -4.41418 2.7919 0
M  V30 3744 H 354.766 -2.3708 1.82848 0
M  V30 3745 H 352.312 -1.13938 0.880569 0
M  V30 3746 H 354.265 -4.20787 0.227289 0
M  V30 3747 H 352.989 -3.22269 -0.530123 0
M  V30 3748 H 351.648 -3.2979 1.60106 0
M  V30 3749 H 351.296 -5.02709 -0.171173 0
M  V30 3750 H 350.996 -5.69338 1.45353 0
M  V30 3751 H 352.52 -6.07612 0.603282 0
M  V30 3752 H 353.934 -5.08524 2.64719 0
M  V30 3753 H 352.331 -4.92913 3.42282 0
M  V30 3754 H 353.401 -3.51819 3.33693 0
M  V30 3755 N 354.744 -0.972509 -1.24016 0
M  V30 3756 C 356.16 -0.679827 -1.44397 0
M  V30 3757 C 356.36 0.756716 -1.86751 0
M  V30 3758 O 355.416 1.53007 -2.00861 0
M  V30 3759 C 356.729 -1.66803 -2.50195 0
M  V30 3760 C 358.277 -1.68119 -2.64017 0
M  V30 3761 C 358.752 -2.65748 -3.73017 0
M  V30 3762 N 360.243 -2.64219 -3.8045 0
M  V30 3763 C 360.978 -3.36433 -4.64328 0
M  V30 3764 N 360.474 -4.1818 -5.52356 0
M  V30 3765 N 362.267 -3.25235 -4.58453 0
M  V30 3766 H 354.418 -1.90059 -0.948228 0
M  V30 3767 H 356.681 -0.818527 -0.478245 0
M  V30 3768 H 356.387 -2.69498 -2.25973 0
M  V30 3769 H 356.261 -1.4446 -3.48441 0
M  V30 3770 H 358.648 -0.661319 -2.87594 0
M  V30 3771 H 358.729 -1.94525 -1.66113 0
M  V30 3772 H 358.373 -3.67872 -3.50189 0
M  V30 3773 H 358.303 -2.36619 -4.70446 0
M  V30 3774 H 360.794 -2.04887 -3.17537 0
M  V30 3775 H 361.107 -4.70157 -6.13329 0
M  V30 3776 H 359.452 -4.22273 -5.52006 0
M  V30 3777 H 362.643 -2.60829 -3.88698 0
M  V30 3778 H 362.816 -3.81776 -5.23594 0
M  V30 3779 N 356.222 1.38976 -0.743202 0
M  V30 3780 C 357.471 1.99581 -0.291592 0
M  V30 3781 C 357.784 1.59656 1.13001 0
M  V30 3782 O 358.99 2.13157 1.68156 0
M  V30 3783 C 357.446 3.56813 -0.470391 0
M  V30 3784 C 357.054 4.05695 -1.90041 0
M  V30 3785 C 358.798 4.24423 -0.0809709 0
M  V30 3786 C 356.705 5.5553 -2.02832 0
M  V30 3787 H 355.635 0.746615 -0.105272 0
M  V30 3788 H 358.286 1.58872 -0.918258 0
M  V30 3789 H 356.668 3.95359 0.225299 0
M  V30 3790 H 357.842 3.78464 -2.62872 0
M  V30 3791 H 356.157 3.50775 -2.24379 0
M  V30 3792 H 358.754 5.34474 -0.155445 0
M  V30 3793 H 359.097 4.04962 0.96497 0
M  V30 3794 H 359.63 3.9108 -0.728124 0
M  V30 3795 H 356.369 5.79881 -3.05643 0
M  V30 3796 H 355.889 5.84537 -1.34448 0
M  V30 3797 H 357.568 6.21069 -1.81335 0
M  V30 3798 N 357.7 0.491464 1.49741 0
M  V30 3799 C 359.116 0.146835 1.58923 0
M  V30 3800 C 359.316 -1.34804 1.49767 0
M  V30 3801 O 358.372 -2.12317 1.36667 0
M  V30 3802 C 359.685 0.715157 2.92072 0
M  V30 3803 C 361.233 0.680407 3.05515 0
M  V30 3804 C 361.708 1.22663 4.41269 0
M  V30 3805 N 363.199 1.18691 4.47735 0
M  V30 3806 C 363.934 1.57984 5.51207 0
M  V30 3807 N 363.43 2.04824 6.6183 0
M  V30 3808 N 365.223 1.49459 5.41866 0
M  V30 3809 H 357.374 1.46347 1.53936 0
M  V30 3810 H 359.637 0.606453 0.728642 0
M  V30 3811 H 359.343 1.76317 3.04311 0
M  V30 3812 H 359.217 0.17018 3.76816 0
M  V30 3813 H 361.604 -0.358743 2.92911 0
M  V30 3814 H 361.685 1.26242 2.22478 0
M  V30 3815 H 361.329 2.26451 4.54623 0
M  V30 3816 H 361.259 0.620637 5.2293 0
M  V30 3817 H 363.75 0.843605 3.68364 0
M  V30 3818 H 364.063 2.32901 7.3687 0
M  V30 3819 H 362.408 2.08791 6.62896 0
M  V30 3820 H 365.599 1.12692 4.54333 0
M  V30 3821 H 365.772 1.80406 6.22381 0
M  V30 3822 N 359.178 -1.55987 0.224894 0
M  V30 3823 C 360.594 -1.59066 -0.130426 0
M  V30 3824 C 360.794 -1.24176 -1.5869 0
M  V30 3825 O 359.85 -0.978592 -2.32766 0
M  V30 3826 C 361.163 -3.00042 0.198883 0
M  V30 3827 C 362.711 -3.1268 0.141391 0
M  V30 3828 C 363.186 -4.55839 0.444422 0
M  V30 3829 N 364.677 -4.6152 0.394115 0
M  V30 3830 C 365.412 -5.70231 0.602038 0
M  V30 3831 N 364.908 -6.87291 0.871914 0
M  V30 3832 N 366.701 -5.59555 0.534245 0
M  V30 3833 H 358.852 -1.76941 1.17497 0
M  V30 3834 H 361.115 -0.822604 0.471197 0
M  V30 3835 H 360.821 -3.30234 1.2099 0
M  V30 3836 H 360.695 -3.74075 -0.484535 0
M  V30 3837 H 363.082 -2.82283 -0.860265 0
M  V30 3838 H 363.163 -2.40969 0.858335 0
M  V30 3839 H 362.807 -4.86954 1.44353 0
M  V30 3840 H 362.737 -5.2578 -0.293752 0
M  V30 3841 H 365.228 -3.77405 0.193356 0
M  V30 3842 H 365.541 -7.66058 1.01858 0
M  V30 3843 H 363.886 -6.89028 0.909145 0
M  V30 3844 H 367.077 -4.6698 0.323612 0
M  V30 3845 H 367.25 -6.44211 0.699693 0
M  V30 3846 N 360.656 0.0484629 -1.57525 0
M  V30 3847 C 361.586 1.0549 -2.08313 0
M  V30 3848 C 362.567 1.38929 -0.981463 0
M  V30 3849 O 363.752 1.48151 -1.25558 0
M  V30 3850 C 360.882 2.36162 -2.54646 0
M  V30 3851 C 359.836 2.17016 -3.68901 0
M  V30 3852 C 359.162 3.53278 -4.01371 0
M  V30 3853 C 360.462 1.57219 -4.98076 0
M  V30 3854 H 362.156 0.632195 -2.92649 0
M  V30 3855 H 359.702 0.302654 -1.40784 0
M  V30 3856 H 361.655 3.06882 -2.88793 0
M  V30 3857 H 360.379 2.80456 -1.67368 0
M  V30 3858 H 359.038 1.48733 -3.35073 0
M  V30 3859 H 358.686 3.95185 -3.11188 0
M  V30 3860 H 358.386 3.41299 -4.78318 0
M  V30 3861 H 359.91 4.25391 -4.38035 0
M  V30 3862 H 361.324 2.17832 -5.30304 0
M  V30 3863 H 359.721 1.55871 -5.79503 0
M  V30 3864 H 360.791 0.535956 -4.81929 0
M  V30 3865 N 362.134 1.5431 0.320358 0
M  V30 3866 C 363.382 1.72327 1.05583 0
M  V30 3867 C 363.703 0.50149 1.88441 0
M  V30 3868 O 362.973 -0.48448 1.89815 0
M  V30 3869 H 361.553 0.635387 0.3928 0
M  V30 3870 H 364.215 1.91621 0.356019 0
M  V30 3871 H 363.311 2.60426 1.72003 0
M  V30 3872 N 363.613 -0.582584 1.46437 0
M  V30 3873 C 364.523 -1.71949 1.59595 0
M  V30 3874 C 365.539 -1.67264 0.479443 0
M  V30 3875 O 366.715 -1.87171 0.743579 0
M  V30 3876 C 363.78 -3.08452 1.58298 0
M  V30 3877 C 362.841 -3.244 2.81182 0
M  V30 3878 C 362.074 -4.54391 2.79937 0
M  V30 3879 O 362.297 -5.38287 1.8869 0
M  V30 3880 O 361.231 -4.73588 3.71481 0
M  V30 3881 H 365.057 -1.63795 2.55744 0
M  V30 3882 H 362.642 -0.749643 1.29231 0
M  V30 3883 H 364.524 -3.89732 1.60271 0
M  V30 3884 H 363.199 -3.17043 0.653094 0
M  V30 3885 H 362.106 -2.42613 2.84763 0
M  V30 3886 H 363.439 -3.20699 3.7338 0
M  V30 3887 N 365.091 -1.34144 -0.827227 0
M  V30 3888 C 366.502 -1.23557 -1.39966 0
M  V30 3889 C 366.853 0.140731 -1.95695 0
M  V30 3890 O 365.978 1.04087 -1.89723 0
M  V30 3891 C 366.573 -2.23708 -2.54441 0
M  V30 3892 C 365.132 -2.16924 -3.07605 0
M  V30 3893 C 364.279 -2.10549 -1.80456 0
M  V30 3894 H 367.23 -1.45573 -0.631991 0
M  V30 3895 H 367.251 -1.85157 -3.32411 0
M  V30 3896 H 366.763 -3.23866 -2.13851 0
M  V30 3897 H 364.864 -1.20107 -3.52711 0
M  V30 3898 H 364.977 -3.07988 -3.66988 0
M  V30 3899 H 363.341 -1.56203 -2.01178 0
M  V30 3900 H 364.124 -3.12535 -1.42046 0
M  V30 3901 N 366.569 1.04691 -1.17803 0
M  V30 3902 C 367.479 2.16057 -0.914151 0
M  V30 3903 C 368.495 1.73589 0.119503 0
M  V30 3904 O 369.671 2.01308 -0.0609468 0
M  V30 3905 C 366.736 3.4394 -0.436603 0
M  V30 3906 C 365.797 4.00825 -1.53746 0
M  V30 3907 C 365.03 5.22604 -1.0826 0
M  V30 3908 O 365.253 5.70367 0.0612244 0
M  V30 3909 O 364.187 5.7186 -1.87775 0
M  V30 3910 H 368.013 2.41169 -1.84584 0
M  V30 3911 H 365.598 1.1453 -0.959334 0
M  V30 3912 H 367.48 4.21024 -0.178057 0
M  V30 3913 H 366.155 3.20316 0.466869 0
M  V30 3914 H 365.062 3.25158 -1.84995 0
M  V30 3915 H 366.395 4.28778 -2.41683 0
M  V30 3916 N 368.047 0.979072 1.23499 0
M  V30 3917 C 369.324 0.563674 1.87302 0
M  V30 3918 C 369.704 -0.959199 1.88049 0
M  V30 3919 O 369.052 -1.83535 1.36114 0
M  V30 3920 C 369.262 1.16822 3.28867 0
M  V30 3921 C 370.61 1.26014 4.0547 0
M  V30 3922 O 371.634 1.12158 3.38082 0
M  V30 3923 O 370.493 1.48044 5.26066 0
M  V30 3924 H 367.587 0.189602 0.804972 0
M  V30 3925 H 370.133 1.07407 1.31384 0
M  V30 3926 H 368.905 2.21049 3.22883 0
M  V30 3927 H 368.528 0.642564 3.92373 0
M  V30 3928 N 369.525 -1.3858 0.750561 0
M  V30 3929 C 370.75 -2.04997 0.314812 0
M  V30 3930 C 371.175 -1.56235 -1.04749 0
M  V30 3931 O 370.533 -0.712981 -1.66692 0
M  V30 3932 C 370.581 -3.58961 0.343415 0
M  V30 3933 O 369.685 -4.07025 -0.663628 0
M  V30 3934 H 369.026 -0.649081 0.139962 0
M  V30 3935 H 371.556 -1.77313 1.02084 0
M  V30 3936 H 371.566 -4.07542 0.193233 0
M  V30 3937 H 370.241 -3.93811 1.33738 0
M  V30 3938 H 368.818 -3.6982 -0.478307 0
M  V30 3939 N 371.003 -0.499398 -1.49478 0
M  V30 3940 C 371.933 0.269244 -2.31943 0
M  V30 3941 C 372.914 0.964054 -1.40143 0
M  V30 3942 O 374.099 0.955767 -1.69052 0
M  V30 3943 C 371.229 1.33504 -3.20615 0
M  V30 3944 C 370.183 0.760202 -4.21195 0
M  V30 3945 C 369.509 1.9264 -4.98792 0
M  V30 3946 C 370.809 -0.247661 -5.21712 0
M  V30 3947 H 372.503 -0.419082 -2.96452 0
M  V30 3948 H 370.049 -0.202988 -1.42562 0
M  V30 3949 H 372.002 1.88048 -3.77115 0
M  V30 3950 H 370.726 2.05253 -2.54045 0
M  V30 3951 H 369.385 0.23653 -3.65836 0
M  V30 3952 H 369.033 2.63154 -4.28671 0
M  V30 3953 H 368.733 1.54785 -5.66847 0
M  V30 3954 H 370.257 2.4762 -5.58137 0
M  V30 3955 H 371.671 0.209579 -5.72917 0
M  V30 3956 H 370.068 -0.541962 -5.97648 0
M  V30 3957 H 371.138 -1.16409 -4.7072 0
M  V30 3958 N 372.481 1.55866 -0.233164 0
M  V30 3959 C 373.729 1.9821 0.394593 0
M  V30 3960 C 374.05 1.12234 1.59463 0
M  V30 3961 O 373.32 0.201981 1.94856 0
M  V30 3962 H 371.9 0.732034 0.148778 0
M  V30 3963 H 374.562 1.92107 -0.32876 0
M  V30 3964 H 373.658 3.03845 0.713063 0
M  V30 3965 N 373.959 -0.0401083 1.57549 0
M  V30 3966 C 375.208 -0.732108 1.87944 0
M  V30 3967 C 375.521 -1.77107 0.830206 0
M  V30 3968 O 376.727 -2.51488 1.02302 0
M  V30 3969 C 375.183 -1.35315 3.33494 0
M  V30 3970 C 374.791 -0.351105 4.46622 0
M  V30 3971 C 376.535 -2.02566 3.73051 0
M  V30 3972 C 374.442 -0.979859 5.83226 0
M  V30 3973 H 373.372 -0.277188 0.701201 0
M  V30 3974 H 376.023 0.0138501 1.83495 0
M  V30 3975 H 374.405 -2.14844 3.32653 0
M  V30 3976 H 375.579 0.416674 4.58912 0
M  V30 3977 H 373.894 0.218708 4.15825 0
M  V30 3978 H 376.491 -2.50441 4.72423 0
M  V30 3979 H 376.834 -2.83904 3.04474 0
M  V30 3980 H 377.367 -1.29827 3.76018 0
M  V30 3981 H 374.106 -0.206135 6.55176 0
M  V30 3982 H 373.626 -1.71774 5.74677 0
M  V30 3983 H 375.305 -1.49046 6.29599 0
M  V30 3984 N 375.437 -1.54477 -0.31217 0
M  V30 3985 C 376.683 -1.73483 -1.0503 0
M  V30 3986 C 377.016 -0.513125 -1.87298 0
M  V30 3987 O 376.291 0.489864 -1.8823 0
M  V30 3988 C 376.574 -3.01723 -1.96558 0
M  V30 3989 C 376.427 -4.3417 -1.17545 0
M  V30 3990 C 377.746 -3.25772 -2.95907 0
M  V30 3991 H 374.865 -0.631222 -0.380432 0
M  V30 3992 H 377.507 -1.87184 -0.325932 0
M  V30 3993 H 375.657 -2.90174 -2.58324 0
M  V30 3994 H 377.329 -4.5762 -0.581513 0
M  V30 3995 H 375.572 -4.31159 -0.477925 0
M  V30 3996 H 376.243 -5.20143 -1.84811 0
M  V30 3997 H 378.719 -3.36857 -2.44267 0
M  V30 3998 H 377.595 -4.16838 -3.57123 0
M  V30 3999 H 377.856 -2.43537 -3.68974 0
M  V30 4000 N 376.915 0.57481 -1.46744 0
M  V30 4001 C 378.14 1.36341 -1.56288 0
M  V30 4002 C 378.565 1.86954 -0.207347 0
M  V30 4003 O 377.923 1.62006 0.813871 0
M  V30 4004 C 377.971 2.52147 -2.57787 0
M  V30 4005 O 377.075 3.53834 -2.11838 0
M  V30 4006 H 376.416 0.405713 -0.525636 0
M  V30 4007 H 378.946 0.696453 -1.92382 0
M  V30 4008 H 378.956 2.98958 -2.77648 0
M  V30 4009 H 377.631 2.14663 -3.5622 0
M  V30 4010 H 376.208 3.1345 -2.01999 0
M  V30 4011 N 378.394 1.34581 0.820102 0
M  V30 4012 C 379.641 1.27096 1.57648 0
M  V30 4013 C 379.969 -0.158317 1.93855 0
M  V30 4014 O 379.224 -1.12028 1.60463 0
M  V30 4015 C 379.523 2.10997 2.8847 0
M  V30 4016 C 379.189 3.59966 2.71543 0
M  V30 4017 C 377.851 4.00575 2.66634 0
M  V30 4018 C 380.203 4.54548 2.55021 0
M  V30 4019 C 377.531 5.33953 2.43128 0
M  V30 4020 C 379.883 5.88109 2.33047 0
M  V30 4021 C 378.547 6.27878 2.26552 0
M  V30 4022 H 377.817 0.465078 0.576874 0
M  V30 4023 H 380.464 1.6635 0.948671 0
M  V30 4024 H 378.769 1.6458 3.55557 0
M  V30 4025 H 380.466 2.0255 3.46084 0
M  V30 4026 H 377.056 3.27733 2.76205 0
M  V30 4027 H 381.24 4.24069 2.57835 0
M  V30 4028 H 376.496 5.63781 2.3656 0
M  V30 4029 H 380.67 6.60985 2.19251 0
M  V30 4030 H 378.297 7.31162 2.081 0
M  V30 4031 N 379.872 -1.04064 1.18357 0
M  V30 4032 C 380.802 -2.14001 0.934113 0
M  V30 4033 C 381.783 -1.69616 -0.128186 0
M  V30 4034 O 382.968 -1.94185 0.0244093 0
M  V30 4035 C 380.098 -3.44253 0.459066 0
M  V30 4036 C 379.052 -4.02261 1.46185 0
M  V30 4037 C 378.378 -5.27992 0.844322 0
M  V30 4038 C 379.678 -4.38432 2.83856 0
M  V30 4039 H 381.372 -2.35127 1.85352 0
M  V30 4040 H 378.918 -1.12998 0.892604 0
M  V30 4041 H 380.871 -4.20522 0.271907 0
M  V30 4042 H 379.595 -3.22813 -0.495912 0
M  V30 4043 H 378.254 -3.28074 1.63595 0
M  V30 4044 H 377.902 -5.02862 -0.117845 0
M  V30 4045 H 377.602 -5.67765 1.51384 0
M  V30 4046 H 379.126 -6.06938 0.667693 0
M  V30 4047 H 380.54 -5.05688 2.70098 0
M  V30 4048 H 378.937 -4.89254 3.47491 0
M  V30 4049 H 380.007 -3.4826 3.37406 0
M  V30 4050 N 381.35 -0.985608 -1.22978 0
M  V30 4051 C 382.59 -0.665487 -1.93263 0
M  V30 4052 C 382.954 0.78706 -1.75127 0
M  V30 4053 O 384.155 1.21826 -2.39608 0
M  V30 4054 C 382.426 -1.0515 -3.41582 0
M  V30 4055 S 383.985 -0.848637 -4.30516 0
M  V30 4056 H 380.803 -0.24355 -0.667985 0
M  V30 4057 H 383.405 -1.26635 -1.48942 0
M  V30 4058 H 382.109 -2.10517 -3.52293 0
M  V30 4059 H 381.64 -0.442134 -3.90908 0
M  V30 4060 H 383.655 0.264717 -4.95493 0
M  V30 4061 N 382.828 1.3818 -0.7579 0
M  V30 4062 C 384.053 2.04827 -0.325679 0
M  V30 4063 C 384.478 1.56788 1.03919 0
M  V30 4064 O 383.836 0.721811 1.66312 0
M  V30 4065 C 383.884 3.58774 -0.362447 0
M  V30 4066 O 382.988 4.07372 0.642033 0
M  V30 4067 H 382.329 0.64833 -0.143402 0
M  V30 4068 H 384.859 1.7677 -1.03023 0
M  V30 4069 H 384.869 4.07434 -0.214844 0
M  V30 4070 H 383.544 3.93096 -1.35824 0
M  V30 4071 H 382.121 3.70068 0.458688 0
M  V30 4072 N 384.306 0.507319 1.49211 0
M  V30 4073 C 385.216 -0.272136 2.33016 0
M  V30 4074 C 386.232 -0.961206 1.45041 0
M  V30 4075 O 387.408 -0.941191 1.78055 0
M  V30 4076 C 384.473 -1.31895 3.20631 0
M  V30 4077 C 383.534 -0.642648 4.24463 0
M  V30 4078 C 382.767 -1.63959 5.07891 0
M  V30 4079 O 382.99 -2.87007 4.92933 0
M  V30 4080 O 381.924 -1.19143 5.8999 0
M  V30 4081 H 385.75 0.413982 3.00865 0
M  V30 4082 H 383.335 0.268556 1.46966 0
M  V30 4083 H 385.217 -1.92446 3.7489 0
M  V30 4084 H 383.892 -1.98788 2.5547 0
M  V30 4085 H 382.799 0.00276252 3.741 0
M  V30 4086 H 384.132 -0.0160534 4.92197 0
M  V30 4087 N 385.784 -1.5574 0.241426 0
M  V30 4088 C 387.061 -1.90704 -0.434881 0
M  V30 4089 C 387.441 -1.16145 -1.76277 0
M  V30 4090 O 386.789 -0.277152 -2.26813 0
M  V30 4091 C 386.999 -3.43657 -0.608343 0
M  V30 4092 C 388.347 -4.14806 -0.906725 0
M  V30 4093 O 389.371 -3.49366 -0.694408 0
M  V30 4094 O 388.23 -5.30548 -1.31075 0
M  V30 4095 H 385.324 -0.793592 -0.23268 0
M  V30 4096 H 387.87 -1.67288 0.285086 0
M  V30 4097 H 386.642 -3.89927 0.327505 0
M  V30 4098 H 386.265 -3.72918 -1.37906 0
M  V30 4099 N 387.262 0.0317525 -1.57568 0
M  V30 4100 C 388.225 1.01783 -2.0536 0
M  V30 4101 C 389.225 1.29203 -0.957253 0
M  V30 4102 O 390.415 1.24251 -1.22095 0
M  V30 4103 C 387.547 2.35137 -2.46827 0
M  V30 4104 H 388.74 0.605062 -2.93733 0
M  V30 4105 H 386.293 0.278514 -1.53799 0
M  V30 4106 H 387.028 2.81168 -1.61602 0
M  V30 4107 H 386.813 2.16566 -3.26866 0
M  V30 4108 H 388.303 3.05938 -2.84239 0
M  V30 4109 N 388.74 1.54641 0.303973 0
M  V30 4110 C 389.965 1.78092 1.06292 0
M  V30 4111 C 390.39 0.537342 1.80262 0
M  V30 4112 O 389.748 -0.511993 1.7392 0
M  V30 4113 C 389.796 2.98612 2.02147 0
M  V30 4114 O 388.9 2.71528 3.10397 0
M  V30 4115 H 388.241 0.589548 0.305497 0
M  V30 4116 H 390.771 2.01716 0.3423 0
M  V30 4117 H 390.781 3.265 2.44667 0
M  V30 4118 H 389.456 3.88785 1.47714 0
M  V30 4119 H 388.033 2.54648 2.72413 0
M  V30 4120 N 390.218 -0.567019 1.47046 0
M  V30 4121 C 391.448 -1.34831 1.56538 0
M  V30 4122 C 391.856 -1.8802 0.21101 0
M  V30 4123 O 391.199 -1.65152 -0.804387 0
M  V30 4124 C 391.261 -2.56139 2.52256 0
M  V30 4125 C 390.925 -2.24307 3.98165 0
M  V30 4126 C 391.922 -1.82192 4.86931 0
M  V30 4127 C 389.607 -2.35968 4.43423 0
M  V30 4128 C 391.601 -1.52153 6.18973 0
M  V30 4129 C 389.288 -2.05542 5.75496 0
M  V30 4130 C 390.286 -1.63701 6.63092 0
M  V30 4131 O 389.974 -1.33657 7.92711 0
M  V30 4132 H 389.706 -0.417683 0.531523 0
M  V30 4133 H 392.26 -0.694726 1.93294 0
M  V30 4134 H 390.49 -3.24356 2.10548 0
M  V30 4135 H 392.179 -3.18214 2.51982 0
M  V30 4136 H 392.945 -1.72684 4.53217 0
M  V30 4137 H 388.824 -2.67495 3.75456 0
M  V30 4138 H 392.368 -1.19421 6.87302 0
M  V30 4139 H 388.265 -2.14679 6.08755 0
M  V30 4140 H 389.033 -1.4737 8.05124 0
M  V30 4141 N 391.696 -1.35014 -0.812953 0
M  V30 4142 C 392.626 -1.30069 -1.93919 0
M  V30 4143 C 393.607 -0.176275 -1.69184 0
M  V30 4144 O 394.792 -0.370227 -1.90638 0
M  V30 4145 C 391.922 -1.06547 -3.30552 0
M  V30 4146 C 390.876 -2.15561 -3.69753 0
M  V30 4147 C 390.202 -1.77214 -5.04479 0
M  V30 4148 C 391.502 -3.57476 -3.808 0
M  V30 4149 H 393.196 -2.24303 -1.98314 0
M  V30 4150 H 390.742 -1.07977 -0.952736 0
M  V30 4151 H 392.695 -1.01729 -4.08937 0
M  V30 4152 H 391.419 -0.0875719 -3.26483 0
M  V30 4153 H 390.078 -2.19466 -2.9365 0
M  V30 4154 H 389.726 -0.780589 -4.96906 0
M  V30 4155 H 389.426 -2.50184 -5.31678 0
M  V30 4156 H 390.95 -1.7391 -5.8531 0
M  V30 4157 H 392.364 -3.55929 -4.4943 0
M  V30 4158 H 390.761 -4.29152 -4.19462 0
M  V30 4159 H 391.831 -3.94091 -2.82525 0
M  V30 4160 N 393.175 1.03435 -1.18907 0
M  V30 4161 C 394.403 1.80381 -1.01342 0
M  V30 4162 C 394.818 1.83649 0.438005 0
M  V30 4163 O 394.175 1.27655 1.30424 0
M  V30 4164 C 394.226 3.25689 -1.56873 0
M  V30 4165 O 393.947 3.22673 -2.96334 0
M  V30 4166 C 395.448 4.19255 -1.44014 0
M  V30 4167 H 392.668 0.56784 -0.35749 0
M  V30 4168 H 395.212 1.30317 -1.576 0
M  V30 4169 H 393.367 3.72962 -1.04777 0
M  V30 4170 H 393.781 4.13748 -3.22355 0
M  V30 4171 H 395.255 5.19123 -1.87657 0
M  V30 4172 H 395.732 4.37467 -0.389815 0
M  V30 4173 H 396.338 3.77851 -1.95214 0
M  V30 4174 N 394.653 0.992116 1.22453 0
M  V30 4175 C 395.901 0.666215 1.90804 0
M  V30 4176 C 396.222 -0.804152 1.77647 0
M  V30 4177 O 395.492 -1.57629 1.16318 0
M  V30 4178 H 394.072 0.243423 0.706225 0
M  V30 4179 H 396.734 1.25845 1.48825 0
M  V30 4180 H 395.83 0.928069 2.97982 0
M  V30 4181 N 396.131 -1.37776 0.765217 0
M  V30 4182 C 397.041 -2.34135 0.147666 0
M  V30 4183 C 398.057 -1.59854 -0.687215 0
M  V30 4184 O 399.233 -1.91983 -0.608659 0
M  V30 4185 C 396.298 -3.3901 -0.72617 0
M  V30 4186 C 395.359 -4.2912 0.124417 0
M  V30 4187 C 394.592 -5.28986 -0.707807 0
M  V30 4188 O 394.815 -5.36205 -1.94525 0
M  V30 4189 O 393.749 -6.01779 -0.12046 0
M  V30 4190 H 397.575 -2.88664 0.943758 0
M  V30 4191 H 395.16 -1.39824 0.526277 0
M  V30 4192 H 397.042 -4.03195 -1.22524 0
M  V30 4193 H 395.717 -2.86819 -1.50056 0
M  V30 4194 H 394.624 -3.68057 0.669696 0
M  V30 4195 H 395.957 -4.84598 0.861736 0
M  V30 4196 N 397.609 -0.515225 -1.4894 0
M  V30 4197 C 398.837 0.0206034 -2.0689 0
M  V30 4198 C 399.252 1.29514 -1.37374 0
M  V30 4199 O 398.609 1.76698 -0.456529 0
M  V30 4200 C 398.66 0.26351 -3.60538 0
M  V30 4201 O 398.381 -0.960517 -4.27441 0
M  V30 4202 C 399.882 0.841383 -4.35242 0
M  V30 4203 H 397.102 -0.0268608 -0.670462 0
M  V30 4204 H 399.646 -0.716651 -1.91532 0
M  V30 4205 H 397.801 0.950777 -3.75552 0
M  V30 4206 H 398.215 -0.73212 -5.19365 0
M  V30 4207 H 399.689 0.96085 -5.43573 0
M  V30 4208 H 400.166 1.8427 -3.98674 0
M  V30 4209 H 400.772 0.191143 -4.2487 0
M  V30 4210 N 399.087 1.5561 -0.249682 0
M  V30 4211 C 400.333 1.99306 0.374841 0
M  V30 4212 C 400.666 1.13767 1.57387 0
M  V30 4213 O 399.941 0.201711 1.93451 0
M  V30 4214 C 400.224 3.51507 0.781986 0
M  V30 4215 C 400.077 4.4781 -0.422629 0
M  V30 4216 C 401.396 4.08884 1.62793 0
M  V30 4217 H 398.515 0.724572 0.134773 0
M  V30 4218 H 401.157 1.86719 -0.351549 0
M  V30 4219 H 399.307 3.62363 1.4009 0
M  V30 4220 H 400.979 4.48931 -1.06108 0
M  V30 4221 H 399.222 4.20518 -1.06524 0
M  V30 4222 H 399.893 5.51919 -0.0943766 0
M  V30 4223 H 402.369 4.01147 1.10547 0
M  V30 4224 H 401.245 5.1564 1.88166 0
M  V30 4225 H 401.506 3.57515 2.60068 0
M  V30 4226 N 400.565 -0.0233959 1.57583 0
M  V30 4227 C 401.498 -1.05549 2.02323 0
M  V30 4228 C 402.476 -1.34843 0.908626 0
M  V30 4229 O 403.66 -1.47404 1.17491 0
M  V30 4230 C 400.787 -2.38885 2.40108 0
M  V30 4231 C 399.833 -2.2541 3.62067 0
M  V30 4232 S 400.666 -1.60217 5.1097 0
M  V30 4233 C 401.822 -2.95032 5.52003 0
M  V30 4234 H 402.055 -0.674435 2.89549 0
M  V30 4235 H 399.588 -0.23355 1.52623 0
M  V30 4236 H 401.546 -3.15562 2.62547 0
M  V30 4237 H 400.207 -2.74137 1.53323 0
M  V30 4238 H 399.4 -3.23854 3.86179 0
M  V30 4239 H 399.002 -1.56876 3.39508 0
M  V30 4240 H 401.294 -3.91357 5.53033 0
M  V30 4241 H 402.237 -2.75646 6.52246 0
M  V30 4242 H 402.645 -2.97865 4.79517 0
M  V30 4243 N 402.043 -1.548 -0.295768 0
M  V30 4244 C 403.289 -1.74588 -1.03184 0
M  V30 4245 C 403.622 -0.532962 -1.86744 0
M  V30 4246 O 402.897 0.469872 -1.88739 0
M  V30 4247 C 403.18 -3.03791 -1.93347 0
M  V30 4248 C 403.033 -4.35392 -1.12933 0
M  V30 4249 C 404.352 -3.28892 -2.92435 0
M  V30 4250 H 401.471 -0.635221 -0.373715 0
M  V30 4251 H 404.113 -1.87519 -0.30606 0
M  V30 4252 H 402.263 -2.92898 -2.55232 0
M  V30 4253 H 403.935 -4.58211 -0.532943 0
M  V30 4254 H 402.178 -4.31642 -0.432168 0
M  V30 4255 H 402.849 -5.22074 -1.79284 0
M  V30 4256 H 405.325 -3.39429 -2.4068 0
M  V30 4257 H 404.201 -4.20603 -3.52682 0
M  V30 4258 H 404.462 -2.47437 -3.6637 0
M  V30 4259 N 403.521 0.559213 -1.47345 0
M  V30 4260 C 404.769 1.31388 -1.53563 0
M  V30 4261 C 405.09 1.93985 -0.198678 0
M  V30 4262 O 404.36 1.79825 0.777167 0
M  V30 4263 H 402.94 0.487901 -0.565652 0
M  V30 4264 H 405.602 0.65315 -1.8363 0
M  V30 4265 H 404.698 2.10844 -2.30111 0
M  V30 4266 N 404.999 1.35443 0.805782 0
M  V30 4267 C 406.247 1.28507 1.55982 0
M  V30 4268 C 406.568 -0.140046 1.94496 0
M  V30 4269 O 405.838 -1.07666 1.63661 0
M  V30 4270 H 404.418 0.472676 0.578434 0
M  V30 4271 H 407.08 1.69555 0.961098 0
M  V30 4272 H 406.176 1.90148 2.47488 0
M  V30 4273 N 406.477 -1.02803 1.19454 0
M  V30 4274 C 407.725 -1.75869 0.995722 0
M  V30 4275 C 408.046 -1.89138 -0.474543 0
M  V30 4276 O 407.316 -1.42558 -1.34366 0
M  V30 4277 H 405.896 -0.651511 0.365435 0
M  V30 4278 H 408.558 -1.24004 1.50363 0
M  V30 4279 H 407.654 -2.76661 1.44447 0
M  V30 4280 N 407.956 -0.998596 -1.21925 0
M  V30 4281 C 409.184 -0.696286 -1.94832 0
M  V30 4282 C 409.599 0.740032 -1.73692 0
M  V30 4283 O 408.956 1.5 -1.03953 0
M  V30 4284 C 409.007 -0.999833 -3.47398 0
M  V30 4285 O 408.728 -2.37972 -3.67833 0
M  V30 4286 C 410.229 -0.716025 -4.37479 0
M  V30 4287 H 407.449 -0.257111 -0.619786 0
M  V30 4288 H 409.993 -1.33491 -1.54921 0
M  V30 4289 H 408.148 -0.406918 -3.85257 0
M  V30 4290 H 408.562 -2.48338 -4.61983 0
M  V30 4291 H 410.036 -0.978642 -5.43256 0
M  V30 4292 H 410.513 0.349968 -4.37803 0
M  V30 4293 H 411.119 -1.29025 -4.05256 0
M  V30 4294 N 409.434 1.37368 -0.772513 0
M  V30 4295 C 410.845 1.8231 -0.402493 0
M  V30 4296 C 411.196 1.6436 1.07146 0
M  V30 4297 O 410.321 1.15514 1.82991 0
M  V30 4298 C 410.916 3.30979 -0.723776 0
M  V30 4299 C 409.475 3.74195 -0.406802 0
M  V30 4300 C 408.622 2.59885 -0.967218 0
M  V30 4301 H 411.573 1.25829 -0.967099 0
M  V30 4302 H 411.594 3.80499 -0.00870832 0
M  V30 4303 H 411.106 3.44011 -1.7966 0
M  V30 4304 H 409.207 3.66732 0.658673 0
M  V30 4305 H 409.32 4.7027 -0.915588 0
M  V30 4306 H 407.684 2.51674 -0.391416 0
M  V30 4307 H 408.467 2.7571 -2.04546 0
M  V30 4308 N 410.912 0.523116 1.48665 0
M  V30 4309 C 412.137 -0.0117284 2.07397 0
M  V30 4310 C 412.562 -1.28031 1.37803 0
M  V30 4311 O 411.92 -1.75836 0.441762 0
M  V30 4312 C 411.968 -0.225786 3.59892 0
M  V30 4313 O 411.072 -1.29592 3.91509 0
M  V30 4314 H 410.413 0.0360673 0.66302 0
M  V30 4315 H 412.943 0.729066 1.9117 0
M  V30 4316 H 412.953 -0.450552 4.05505 0
M  V30 4317 H 411.628 0.700944 4.09951 0
M  V30 4318 H 410.205 -1.05436 3.57684 0
M  V30 4319 N 412.39 -1.55475 0.257931 0
M  V30 4320 C 413.806 -1.59307 -0.0966563 0
M  V30 4321 C 414.006 -1.27514 -1.5602 0
M  V30 4322 O 413.062 -1.02774 -2.30637 0
M  V30 4323 C 414.375 -2.99552 0.262481 0
M  V30 4324 C 415.923 -3.1231 0.207683 0
M  V30 4325 C 416.398 -4.54793 0.541012 0
M  V30 4326 N 417.889 -4.6058 0.491921 0
M  V30 4327 C 418.624 -5.68825 0.722857 0
M  V30 4328 N 418.12 -6.85287 1.0175 0
M  V30 4329 N 419.913 -5.58296 0.652815 0
M  V30 4330 H 412.064 -1.74409 1.21224 0
M  V30 4331 H 414.327 -0.812424 0.48854 0
M  V30 4332 H 414.033 -3.27593 1.27967 0
M  V30 4333 H 413.907 -3.75019 -0.40508 0
M  V30 4334 H 416.294 -2.84044 -0.800195 0
M  V30 4335 H 416.375 -2.39095 0.909255 0
M  V30 4336 H 416.019 -4.83783 1.5465 0
M  V30 4337 H 415.949 -5.26285 -0.18216 0
M  V30 4338 H 418.44 -3.7691 0.273366 0
M  V30 4339 H 418.753 -7.63725 1.18084 0
M  V30 4340 H 417.098 -6.86945 1.05509 0
M  V30 4341 H 420.289 -4.66189 0.422592 0
M  V30 4342 H 420.462 -6.42582 0.836182 0
M  V30 4343 N 413.868 0.0150385 -1.57593 0
M  V30 4344 C 414.798 1.01047 -2.10503 0
M  V30 4345 C 415.779 1.36816 -1.01071 0
M  V30 4346 O 416.964 1.45455 -1.28672 0
M  V30 4347 C 414.094 2.30708 -2.59598 0
M  V30 4348 C 413.048 2.09142 -3.73421 0
M  V30 4349 C 412.374 3.44685 -4.08774 0
M  V30 4350 C 413.674 1.46619 -5.01298 0
M  V30 4351 H 415.368 0.569978 -2.93925 0
M  V30 4352 H 412.914 0.272724 -1.41394 0
M  V30 4353 H 414.867 3.00687 -2.95238 0
M  V30 4354 H 413.591 2.76843 -1.73279 0
M  V30 4355 H 412.25 1.41592 -3.38153 0
M  V30 4356 H 411.898 3.88495 -3.195 0
M  V30 4357 H 411.598 3.31077 -4.8545 0
M  V30 4358 H 413.122 4.16004 -4.4696 0
M  V30 4359 H 414.536 2.06535 -5.34805 0
M  V30 4360 H 412.933 1.43544 -5.82679 0
M  V30 4361 H 414.003 0.433611 -4.82957 0
M  V30 4362 O 415.385 1.60729 0.157609 0
M  V30 4363 H 416.076 1.76727 0.792919 0
M  V30 END ATOM
M  V30 BEGIN BOND
M  V30 END BOND
M  V30 END CTAB
M  END
$$$$
