drugbank_target|P0CG47 Polyubiquitin-B (DB02542)
 OpenBabel12092120553D

  0  0  0     0  0            999 V3000
M  V30 BEGIN CTAB
M  V30 COUNTS 3698 3718 0 0 0
M  V30 BEGIN ATOM
M  V30 1 H -0.908 1.98254 -0.117106 0
M  V30 2 N 0 1.576 0 0
M  V30 3 C 0.933 2.03868 1.02534 0
M  V30 4 C 1.911 0.928543 1.3348 0
M  V30 5 O 3.095 1.19667 1.45644 0
M  V30 6 C 0.222 2.43627 2.35294 0
M  V30 7 C -0.732 3.65373 2.2001 0
M  V30 8 S 0.101 5.13292 1.52614 0
M  V30 9 C 1.257 5.56322 2.86805 0
M  V30 10 H 1.49 2.90518 0.631377 0
M  V30 11 H -0.977 1.52953 0.210867 0
M  V30 12 H 0.981 2.67203 3.11629 0
M  V30 13 H -0.358 1.57376 2.7183 0
M  V30 14 H -1.165 3.90944 3.18086 0
M  V30 15 H -1.563 3.418 1.51819 0
M  V30 16 H 0.729 5.58782 3.83104 0
M  V30 17 H 1.672 6.56266 2.65933 0
M  V30 18 H 2.08 4.83886 2.90714 0
M  V30 19 N 1.4781 -0.272755 1.55222 0
M  V30 20 C 2.4101 -1.35946 1.8453 0
M  V30 21 C 3.4231 -1.45525 0.729818 0
M  V30 22 O 4.6121 -1.47337 1.00767 0
M  V30 23 C 1.7121 -2.74069 1.99347 0
M  V30 24 C 0.8851 -2.87079 3.30007 0
M  V30 25 C -0.0559 -4.05879 3.34886 0
M  V30 26 O -1.0299 -3.96626 4.08261 0
M  V30 27 N 0.1721 -5.17857 2.62307 0
M  V30 28 H 2.9371 -1.11149 2.78327 0
M  V30 29 H 0.4981 -0.462869 1.55142 0
M  V30 30 H 2.4901 -3.51838 1.99981 0
M  V30 31 H 1.0601 -2.91688 1.12415 0
M  V30 32 H 0.2801 -1.96193 3.41909 0
M  V30 33 H 1.5681 -2.92701 4.16177 0
M  V30 34 H 0.9661 -5.28261 2.02377 0
M  V30 35 H -0.4769 -5.93855 2.68663 0
M  V30 36 N 2.9562 -1.48159 -0.537278 0
M  V30 37 C 4.2052 -1.5506 -1.28993 0
M  V30 38 C 4.5182 -0.226211 -1.94288 0
M  V30 39 O 5.7242 -0.173395 -2.70946 0
M  V30 40 C 4.1802 -2.73429 -2.34018 0
M  V30 41 C 3.7882 -4.1248 -1.74825 0
M  V30 42 C 5.5322 -2.89638 -3.10339 0
M  V30 43 C 3.4392 -5.22121 -2.77747 0
M  V30 44 H 2.3692 -0.577231 -0.485098 0
M  V30 45 H 5.0202 -1.74478 -0.568317 0
M  V30 46 H 3.4022 -2.47431 -3.09182 0
M  V30 47 H 4.5762 -4.48466 -1.05899 0
M  V30 48 H 2.8912 -4.01327 -1.11022 0
M  V30 49 H 5.4882 -3.68718 -3.87235 0
M  V30 50 H 5.8312 -1.9882 -3.65754 0
M  V30 51 H 6.3642 -3.15502 -2.42288 0
M  V30 52 H 3.1032 -6.1488 -2.27161 0
M  V30 53 H 2.6232 -4.90631 -3.45024 0
M  V30 54 H 4.3022 -5.49924 -3.4087 0
M  V30 55 N 4.4343 0.785586 -1.36625 0
M  V30 56 C 5.6813 1.54362 -1.31067 0
M  V30 57 C 6.0093 1.94195 0.10893 0
M  V30 58 O 5.2643 1.63262 1.07908 0
M  V30 59 C 5.5633 2.83007 -2.1827 0
M  V30 60 C 5.2293 2.62294 -3.6676 0
M  V30 61 C 3.8913 2.56353 -4.0723 0
M  V30 62 C 6.2433 2.43371 -4.6089 0
M  V30 63 C 3.5713 2.29461 -5.39967 0
M  V30 64 C 5.9233 2.18005 -5.93849 0
M  V30 65 C 4.5873 2.105 -6.3344 0
M  V30 66 H 3.8573 0.564851 -0.479609 0
M  V30 67 H 6.5043 0.906028 -1.68711 0
M  V30 68 H 4.8093 3.51253 -1.73576 0
M  V30 69 H 6.5063 3.40817 -2.11292 0
M  V30 70 H 3.0963 2.67774 -3.34656 0
M  V30 71 H 7.2803 2.46959 -4.30494 0
M  V30 72 H 2.5363 2.22135 -5.69619 0
M  V30 73 H 6.7103 2.02359 -6.66351 0
M  V30 74 H 4.3373 1.89425 -7.36222 0
M  V30 75 N 5.9124 1.20967 1.01018 0
M  V30 76 C 7.1584 1.02526 1.74975 0
M  V30 77 C 7.4914 -0.4408 1.89131 0
M  V30 78 O 6.7664 -1.32718 1.42184 0
M  V30 79 C 7.0494 1.71699 3.1653 0
M  V30 80 C 6.9024 3.25791 3.10129 0
M  V30 81 C 8.2214 1.45531 4.15342 0
M  V30 82 H 5.3404 0.373863 0.635134 0
M  V30 83 H 7.9824 1.49071 1.17805 0
M  V30 84 H 6.1324 1.32128 3.65341 0
M  V30 85 H 7.8044 3.74697 2.69072 0
M  V30 86 H 6.0474 3.56363 2.47362 0
M  V30 87 H 6.7184 3.69353 4.10222 0
M  V30 88 H 9.1944 1.79872 3.75213 0
M  V30 89 H 8.0704 1.96453 5.1254 0
M  V30 90 H 8.3314 0.384237 4.40427 0
M  V30 91 N 7.3905 -1.2043 1.01659 0
M  V30 92 C 8.3375 -2.23215 0.586822 0
M  V30 93 C 9.3075 -1.61382 -0.393085 0
M  V30 94 O 10.4925 -1.88544 -0.292525 0
M  V30 95 C 7.6325 -3.45032 -0.0687464 0
M  V30 96 C 6.7455 -4.21296 0.955724 0
M  V30 97 C 5.8805 -5.30507 0.271208 0
M  V30 98 C 4.9195 -5.98515 1.28244 0
M  V30 99 N 4.0565 -6.99316 0.62459 0
M  V30 100 H 8.8965 -2.59336 1.46796 0
M  V30 101 H 6.4335 -1.27431 0.734836 0
M  V30 102 H 8.3915 -4.1459 -0.465965 0
M  V30 103 H 7.0215 -3.09604 -0.913529 0
M  V30 104 H 6.0735 -3.50803 1.4711 0
M  V30 105 H 7.3855 -4.6803 1.72479 0
M  V30 106 H 6.5395 -6.06428 -0.18151 0
M  V30 107 H 5.2785 -4.8481 -0.530163 0
M  V30 108 H 4.2835 -5.21355 1.74554 0
M  V30 109 H 5.5085 -6.46298 2.08509 0
M  V30 110 H 3.4545 -6.55812 -0.156914 0
M  V30 111 H 3.3715 -7.44178 1.33172 0
M  V30 112 H 4.6395 -7.79255 0.195462 0
M  V30 113 N 8.8686 -0.792821 -1.36206 0
M  V30 114 C 10.0966 -0.378825 -2.03402 0
M  V30 115 C 10.5116 1.00586 -1.59774 0
M  V30 116 O 9.8686 1.64574 -0.788764 0
M  V30 117 C 9.9196 -0.43683 -3.58851 0
M  V30 118 O 9.6406 -1.76691 -4.00889 0
M  V30 119 C 11.1416 -0.0138943 -4.43298 0
M  V30 120 H 8.3616 -0.155673 -0.652692 0
M  V30 121 H 10.9056 -1.07261 -1.74113 0
M  V30 122 H 9.0606 0.208575 -3.86838 0
M  V30 123 H 9.4746 -1.72011 -4.95492 0
M  V30 124 H 10.9486 -0.105615 -5.51899 0
M  V30 125 H 11.4256 1.03915 -4.2673 0
M  V30 126 H 12.0316 -0.63192 -4.20579 0
M  V30 127 N 10.3467 1.47872 -0.545128 0
M  V30 128 C 11.2767 2.32661 0.197793 0
M  V30 129 C 12.2577 1.43041 0.920504 0
M  V30 130 O 13.4427 1.71912 0.90333 0
M  V30 131 C 10.5727 3.24569 1.23582 0
M  V30 132 C 9.5267 4.23333 0.630323 0
M  V30 133 C 8.8527 5.0448 1.77211 0
M  V30 134 C 10.1527 5.20704 -0.407974 0
M  V30 135 H 11.8467 2.95024 -0.510045 0
M  V30 136 H 9.3927 1.4187 -0.246731 0
M  V30 137 H 11.3457 3.8272 1.76362 0
M  V30 138 H 10.0697 2.60236 1.97344 0
M  V30 139 H 8.7287 3.6639 0.123922 0
M  V30 140 H 8.3767 4.36561 2.49847 0
M  V30 141 H 8.0767 5.71339 1.37281 0
M  V30 142 H 9.6007 5.65487 2.3034 0
M  V30 143 H 11.0147 5.7329 0.033305 0
M  V30 144 H 9.4117 5.95699 -0.725486 0
M  V30 145 H 10.4817 4.66917 -1.30828 0
M  V30 146 N 11.8248 0.280983 1.55075 0
M  V30 147 C 13.0528 -0.337293 2.04132 0
M  V30 148 C 13.4678 -1.4903 1.15912 0
M  V30 149 O 12.8248 -1.81606 0.180459 0
M  V30 150 C 12.8758 -0.812706 3.52246 0
M  V30 151 O 12.5968 0.294387 4.3711 0
M  V30 152 C 14.0978 -1.4982 4.17216 0
M  V30 153 H 11.3178 -0.0761638 0.666663 0
M  V30 154 H 13.8618 0.414787 2.00249 0
M  V30 155 H 12.0168 -1.51486 3.56554 0
M  V30 156 H 12.4308 -0.0721325 5.2445 0
M  V30 157 H 13.9048 -1.7822 5.22438 0
M  V30 158 H 14.3818 -2.43168 3.65741 0
M  V30 159 H 14.9878 -0.839742 4.16927 0
M  V30 160 N 13.3029 -1.57598 0.00835791 0
M  V30 161 C 14.5509 -1.90551 -0.6734 0
M  V30 162 C 14.8719 -0.883301 -1.73847 0
M  V30 163 O 14.1419 0.0781442 -1.95744 0
M  V30 164 H 12.7219 -0.703312 -0.251717 0
M  V30 165 H 15.3839 -1.94833 0.0512592 0
M  V30 166 H 14.4799 -2.9056 -1.13935 0
M  V30 167 N 14.781 0.264519 -1.55364 0
M  V30 168 C 15.728 1.32717 -1.88825 0
M  V30 169 C 16.698 1.48675 -0.740605 0
M  V30 170 O 17.883 1.62945 -0.992657 0
M  V30 171 C 15.023 2.68089 -2.17307 0
M  V30 172 C 14.136 2.60284 -3.44785 0
M  V30 173 C 13.271 3.87892 -3.62924 0
M  V30 174 C 12.31 3.74631 -4.84064 0
M  V30 175 N 11.447 4.94092 -4.98816 0
M  V30 176 H 16.287 1.03481 -2.79456 0
M  V30 177 H 13.824 0.499757 -1.3835 0
M  V30 178 H 15.782 3.46864 -2.31821 0
M  V30 179 H 14.412 2.95509 -1.299 0
M  V30 180 H 13.464 1.73173 -3.38697 0
M  V30 181 H 14.776 2.46388 -4.33698 0
M  V30 182 H 13.93 4.75109 -3.77302 0
M  V30 183 H 12.669 4.04664 -2.7221 0
M  V30 184 H 11.674 2.85797 -4.69681 0
M  V30 185 H 12.899 3.5937 -5.76221 0
M  V30 186 H 10.845 5.11259 -4.11036 0
M  V30 187 H 10.762 4.8276 -5.81789 0
M  V30 188 H 12.03 5.82857 -5.17588 0
M  V30 189 N 16.2591 1.48442 0.529413 0
M  V30 190 C 17.4871 1.60151 1.30994 0
M  V30 191 C 17.9021 0.261985 1.86973 0
M  V30 192 O 17.2591 -0.748805 1.66431 0
M  V30 193 C 17.3101 2.64854 2.46038 0
M  V30 194 O 17.0311 3.93608 1.92365 0
M  V30 195 C 18.5321 2.87007 3.37849 0
M  V30 196 H 15.7521 0.539971 0.398338 0
M  V30 197 H 18.2961 1.94273 0.638597 0
M  V30 198 H 16.4511 2.33589 3.09055 0
M  V30 199 H 16.8651 4.51055 2.67675 0
M  V30 200 H 18.3391 3.64068 4.14919 0
M  V30 201 H 18.8161 1.95852 3.93114 0
M  V30 202 H 19.4221 3.19579 2.80623 0
M  V30 203 N 17.7372 -0.778329 1.37039 0
M  V30 204 C 18.9862 -1.53189 1.3121 0
M  V30 205 C 19.2992 -1.95328 -0.103095 0
M  V30 206 O 20.5052 -2.70012 -0.283826 0
M  V30 207 C 18.9612 -2.76591 2.30272 0
M  V30 208 C 18.5692 -2.41577 3.77286 0
M  V30 209 C 20.3132 -3.5455 2.33441 0
M  V30 210 C 18.2202 -3.61441 4.68096 0
M  V30 211 H 17.1502 -0.5751 0.487622 0
M  V30 212 H 19.8012 -0.853101 1.62464 0
M  V30 213 H 18.1832 -3.46326 1.92027 0
M  V30 214 H 19.3572 -1.79668 4.2433 0
M  V30 215 H 17.6722 -1.76806 3.76999 0
M  V30 216 H 20.2692 -4.43628 2.98493 0
M  V30 217 H 20.6122 -3.93936 1.34611 0
M  V30 218 H 21.1452 -2.91805 2.7036 0
M  V30 219 H 17.8842 -3.27142 5.6803 0
M  V30 220 H 17.4042 -4.22478 4.25761 0
M  V30 221 H 19.0832 -4.28335 4.8491 0
M  V30 222 N 19.2153 -1.21501 -1.00376 0
M  V30 223 C 20.4433 -1.059 -1.77744 0
M  V30 224 C 20.8583 0.391125 -1.84704 0
M  V30 225 O 20.2153 1.27133 -1.30933 0
M  V30 226 C 20.2663 -1.65111 -3.21591 0
M  V30 227 O 19.9873 -3.0445 -3.15027 0
M  V30 228 C 21.4883 -1.54637 -4.15454 0
M  V30 229 H 18.7083 -0.371825 -0.558558 0
M  V30 230 H 21.2523 -1.60865 -1.26264 0
M  V30 231 H 19.4073 -1.14235 -3.70175 0
M  V30 232 H 19.8213 -3.3278 -4.0541 0
M  V30 233 H 21.2953 -2.00808 -5.14179 0
M  V30 234 H 21.7723 -0.501022 -4.36333 0
M  V30 235 H 22.3783 -2.04767 -3.72761 0
M  V30 236 N 20.6934 1.19889 -1.02296 0
M  V30 237 C 21.6234 2.25141 -0.619174 0
M  V30 238 C 22.6044 1.66051 0.368915 0
M  V30 239 O 23.7894 1.92546 0.252941 0
M  V30 240 C 20.9194 3.4728 0.0368783 0
M  V30 241 C 19.8734 4.19005 -0.872865 0
M  V30 242 C 19.1994 5.34637 -0.0822402 0
M  V30 243 C 20.4994 4.74452 -2.18387 0
M  V30 244 H 22.1934 2.59171 -1.49903 0
M  V30 245 H 19.7394 1.24579 -0.722222 0
M  V30 246 H 21.6924 4.20098 0.330958 0
M  V30 247 H 20.4164 3.12433 0.95149 0
M  V30 248 H 19.0754 3.48061 -1.15105 0
M  V30 249 H 18.7234 4.96034 0.83422 0
M  V30 250 H 18.4234 5.83557 -0.688149 0
M  V30 251 H 19.9474 6.10255 0.205238 0
M  V30 252 H 21.3614 5.39055 -1.95172 0
M  V30 253 H 19.7584 5.33834 -2.74119 0
M  V30 254 H 20.8284 3.92844 -2.84257 0
M  V30 255 N 22.1715 0.800033 1.35784 0
M  V30 256 C 23.0815 0.207204 2.33683 0
M  V30 257 C 24.0975 -0.64631 1.61551 0
M  V30 258 O 25.2735 -0.559604 1.93469 0
M  V30 259 C 22.3385 -0.639659 3.40748 0
M  V30 260 C 21.3995 0.233585 4.28664 0
M  V30 261 C 20.6325 -0.572954 5.30616 0
M  V30 262 O 20.8555 -1.80816 5.40982 0
M  V30 263 O 19.7895 0.0327285 6.01891 0
M  V30 264 H 23.6155 1.01692 2.86169 0
M  V30 265 H 21.2005 0.561691 1.38439 0
M  V30 266 H 23.0825 -1.12223 4.06182 0
M  V30 267 H 21.7575 -1.42708 2.90544 0
M  V30 268 H 20.6645 0.763147 3.66233 0
M  V30 269 H 21.9975 0.984784 4.82248 0
M  V30 270 N 23.6496 -1.47581 0.552962 0
M  V30 271 C 24.8956 -2.02782 0.0273648 0
M  V30 272 C 25.2286 -1.42687 -1.31734 0
M  V30 273 O 24.5036 -0.580897 -1.85623 0
M  V30 274 C 24.7866 -3.60031 -0.0702371 0
M  V30 275 C 24.6396 -4.30566 1.30126 0
M  V30 276 C 25.9586 -4.33028 -0.785771 0
M  V30 277 H 23.0776 -0.736912 0.0114185 0
M  V30 278 H 25.7196 -1.76056 0.714432 0
M  V30 279 H 23.8696 -3.82932 -0.655382 0
M  V30 280 H 25.5416 -4.19018 1.92929 0
M  V30 281 H 23.7846 -3.91086 1.87709 0
M  V30 282 H 24.4556 -5.39114 1.18573 0
M  V30 283 H 26.9316 -4.15095 -0.288982 0
M  V30 284 H 25.8076 -5.42695 -0.823013 0
M  V30 285 H 26.0686 -4.01945 -1.841 0
M  V30 286 N 25.1277 -0.289203 -1.54924 0
M  V30 287 C 26.0377 0.601863 -2.26748 0
M  V30 288 C 27.0537 1.15834 -1.2984 0
M  V30 289 O 28.2297 1.18564 -1.62802 0
M  V30 290 C 25.2947 1.76299 -2.98529 0
M  V30 291 C 24.3557 1.24178 -4.10948 0
M  V30 292 C 23.5887 2.34757 -4.79296 0
M  V30 293 O 23.8117 3.54411 -4.46933 0
M  V30 294 O 22.7457 2.02115 -5.66951 0
M  V30 295 H 26.5717 0.0195879 -3.03694 0
M  V30 296 H 24.1567 -0.0560868 -1.49295 0
M  V30 297 H 26.0387 2.43973 -3.43592 0
M  V30 298 H 24.7137 2.33209 -2.24488 0
M  V30 299 H 23.6207 0.531104 -3.70311 0
M  V30 300 H 24.9537 0.718252 -4.86931 0
M  V30 301 N 26.6058 1.57591 -0.0167156 0
M  V30 302 C 28.0168 1.79201 0.523834 0
M  V30 303 C 28.3678 0.925796 1.72984 0
M  V30 304 O 27.4928 0.132792 2.15992 0
M  V30 305 C 28.0878 3.25 0.957091 0
M  V30 306 C 26.6468 3.47648 1.44283 0
M  V30 307 C 25.7938 2.74374 0.401757 0
M  V30 308 H 28.7448 1.56831 -0.242816 0
M  V30 309 H 28.7658 3.34031 1.82219 0
M  V30 310 H 28.2778 3.88019 0.0791415 0
M  V30 311 H 26.3788 2.89866 2.34113 0
M  V30 312 H 26.4918 4.56352 1.45877 0
M  V30 313 H 24.8558 2.39485 0.867121 0
M  V30 314 H 25.6388 3.40102 -0.467513 0
M  V30 315 N 28.0839 -0.256276 1.55502 0
M  V30 316 C 29.3089 -1.00766 1.81276 0
M  V30 317 C 29.7339 -1.78524 0.59252 0
M  V30 318 O 29.0919 -1.75413 -0.45827 0
M  V30 319 C 29.1399 -1.92869 3.04687 0
M  V30 320 O 28.2439 -3.019 2.80945 0
M  V30 321 H 27.5849 -0.287224 0.598664 0
M  V30 322 H 30.1149 -0.280109 2.02674 0
M  V30 323 H 30.1249 -2.34511 3.33869 0
M  V30 324 H 28.7999 -1.35689 3.93143 0
M  V30 325 H 27.3769 -2.64454 2.62904 0
M  V30 326 N 29.562 -1.4872 -0.521534 0
M  V30 327 C 30.839 -1.4766 -1.2828 0
M  V30 328 C 31.219 -0.19292 -2.10217 0
M  V30 329 O 30.567 0.825193 -2.13079 0
M  V30 330 C 30.777 -2.74358 -2.15705 0
M  V30 331 C 32.125 -3.23028 -2.75569 0
M  V30 332 O 33.149 -2.75333 -2.25987 0
M  V30 333 O 32.008 -4.0604 -3.65778 0
M  V30 334 H 29.102 -0.590085 -0.579421 0
M  V30 335 H 31.648 -1.60963 -0.537492 0
M  V30 336 H 30.42 -3.59292 -1.54999 0
M  V30 337 H 30.043 -2.63816 -2.97467 0
M  V30 338 N 31.0401 0.771051 -1.3745 0
M  V30 339 C 32.2681 1.56015 -1.35893 0
M  V30 340 C 32.6831 1.88718 0.0555523 0
M  V30 341 O 32.0401 1.51502 1.01752 0
M  V30 342 C 32.0911 2.87001 -2.19801 0
M  V30 343 O 31.8121 2.557 -3.55738 0
M  V30 344 C 33.3131 3.81228 -2.26231 0
M  V30 345 H 30.5331 0.483317 -0.465453 0
M  V30 346 H 33.0771 0.955611 -1.80799 0
M  V30 347 H 31.2321 3.43877 -1.78402 0
M  V30 348 H 31.6461 3.39584 -3.99729 0
M  V30 349 H 33.1201 4.70139 -2.89263 0
M  V30 350 H 33.5971 4.20409 -1.27093 0
M  V30 351 H 34.2031 3.30281 -2.67945 0
M  V30 352 N 32.5182 1.22032 0.997298 0
M  V30 353 C 33.7672 1.03637 1.73038 0
M  V30 354 C 34.0802 -0.429475 1.90827 0
M  V30 355 O 35.2862 -0.732995 2.61418 0
M  V30 356 C 33.7422 1.80582 3.11317 0
M  V30 357 C 33.3502 3.31387 3.01474 0
M  V30 358 C 35.0942 1.70621 3.88701 0
M  V30 359 C 33.0012 4.00791 4.3488 0
M  V30 360 H 31.9312 0.384179 0.648785 0
M  V30 361 H 34.5822 1.4584 1.11368 0
M  V30 362 H 32.9642 1.31175 3.73643 0
M  V30 363 H 34.1382 3.88155 2.4834 0
M  V30 364 H 32.4532 3.41976 2.37575 0
M  V30 365 H 35.0502 2.19799 4.87434 0
M  V30 366 H 35.3932 0.665823 4.10941 0
M  V30 367 H 35.9262 2.17547 3.33044 0
M  V30 368 H 32.6652 5.05064 4.1784 0
M  V30 369 H 32.1852 3.48811 4.87945 0
M  V30 370 H 33.8642 4.06139 5.03647 0
M  V30 371 N 33.9963 -1.19345 1.0293 0
M  V30 372 C 34.9063 -2.26245 0.620515 0
M  V30 373 C 35.9223 -1.70486 -0.347928 0
M  V30 374 O 37.0983 -2.00347 -0.205704 0
M  V30 375 C 34.1633 -3.46693 -0.0218957 0
M  V30 376 C 33.2243 -4.17632 0.994102 0
M  V30 377 C 32.4573 -5.32329 0.382253 0
M  V30 378 O 32.6803 -5.64552 -0.814676 0
M  V30 379 O 31.6143 -5.91664 1.10531 0
M  V30 380 H 35.4403 -2.63453 1.51083 0
M  V30 381 H 33.0253 -1.26207 0.799513 0
M  V30 382 H 34.9073 -4.19683 -0.380072 0
M  V30 383 H 33.5823 -3.11333 -0.886209 0
M  V30 384 H 32.4893 -3.4676 1.40387 0
M  V30 385 H 33.8223 -4.56964 1.8288 0
M  V30 386 N 35.4744 -0.807222 -1.35358 0
M  V30 387 C 36.4224 -0.20614 -2.31685 0
M  V30 388 C 37.4164 0.644445 -1.56663 0
M  V30 389 O 38.6224 0.537538 -1.71786 0
M  V30 390 H 34.9974 -0.0479006 -0.750473 0
M  V30 391 H 36.9684 -1.03369 -2.79924 0
M  V30 392 C 35.7174 0.630212 -3.41941 0
M  V30 393 H 35.0404 -0.0149558 -3.99797 0
M  V30 394 H 36.4804 1.01716 -4.11619 0
M  V30 395 C 34.9394 1.79601 -2.85035 0
M  V30 396 O 35.4694 2.89351 -2.78637 0
M  V30 397 N 33.6754 1.60774 -2.42074 0
M  V30 398 H 33.2224 0.715009 -2.47478 0
M  V30 399 H 33.1804 2.38933 -2.04349 0
M  V30 400 N 36.9525 1.47285 -0.560781 0
M  V30 401 C 38.1985 2.02764 -0.0381184 0
M  V30 402 C 38.5315 1.43384 1.30976 0
M  V30 403 O 37.8065 0.590733 1.85312 0
M  V30 404 C 38.0895 3.60064 0.0511427 0
M  V30 405 C 37.9425 4.2987 -1.32408 0
M  V30 406 C 39.2615 4.33439 0.762795 0
M  V30 407 H 36.3805 0.736841 -0.0153264 0
M  V30 408 H 39.0225 1.75675 -0.723759 0
M  V30 409 H 37.1725 3.83274 0.635065 0
M  V30 410 H 38.8445 4.17989 -1.95148 0
M  V30 411 H 37.0875 3.90085 -1.8978 0
M  V30 412 H 37.7585 5.38478 -1.21431 0
M  V30 413 H 40.2345 4.15243 0.266965 0
M  V30 414 H 39.1105 5.43124 0.794221 0
M  V30 415 H 39.3715 4.02915 1.81966 0
M  V30 416 N 38.4306 0.297415 1.54768 0
M  V30 417 C 39.3776 -0.580276 2.23386 0
M  V30 418 C 40.3476 -1.13238 1.21517 0
M  V30 419 O 41.5326 -1.17757 1.50126 0
M  V30 420 C 38.6726 -1.74801 2.97555 0
M  V30 421 C 37.7856 -1.22764 4.1419 0
M  V30 422 C 36.9206 -2.35895 4.75949 0
M  V30 423 C 35.9596 -1.80974 5.84735 0
M  V30 424 N 35.0966 -2.87664 6.40464 0
M  V30 425 H 39.9366 0.0114833 2.97998 0
M  V30 426 H 37.4736 0.0174361 1.4709 0
M  V30 427 H 39.4316 -2.43475 3.38786 0
M  V30 428 H 38.0616 -2.31145 2.25326 0
M  V30 429 H 37.1136 -0.433271 3.77924 0
M  V30 430 H 38.4256 -0.785551 4.92575 0
M  V30 431 H 37.5796 -3.12523 5.20014 0
M  V30 432 H 36.3186 -2.83429 3.96887 0
M  V30 433 H 35.3236 -1.02834 5.40097 0
M  V30 434 H 36.5486 -1.34348 6.65678 0
M  V30 435 H 34.4946 -3.34538 5.64287 0
M  V30 436 H 34.4116 -2.4794 7.14186 0
M  V30 437 H 35.6796 -3.642 6.89187 0
M  V30 438 N 39.9087 -1.5758 0.0250728 0
M  V30 439 C 40.8717 -2.08896 -0.943139 0
M  V30 440 C 41.8717 -1.00321 -1.25668 0
M  V30 441 O 43.0617 -1.26495 -1.19769 0
M  V30 442 C 40.1937 -2.55143 -2.26086 0
M  V30 443 H 41.3867 -2.95723 -0.498775 0
M  V30 444 H 38.9397 -1.54703 -0.222888 0
M  V30 445 H 39.6747 -1.71633 -2.75159 0
M  V30 446 H 39.4597 -3.34461 -2.04641 0
M  V30 447 H 40.9497 -2.95083 -2.95492 0
M  V30 448 N 41.3868 0.248026 -1.55636 0
M  V30 449 C 42.3338 1.30707 -1.90222 0
M  V30 450 C 43.3038 1.47881 -0.756332 0
M  V30 451 O 44.4888 1.61883 -1.00988 0
M  V30 452 C 41.6288 2.65769 -2.20138 0
M  V30 453 C 40.7418 2.56612 -3.47526 0
M  V30 454 C 39.8768 3.8402 -3.67017 0
M  V30 455 C 38.9158 3.69476 -4.8801 0
M  V30 456 N 38.0528 4.88774 -5.04029 0
M  V30 457 H 42.8928 1.00512 -2.80538 0
M  V30 458 H 40.4298 0.485055 -1.38873 0
M  V30 459 H 42.3878 3.44386 -2.35487 0
M  V30 460 H 41.0178 2.94115 -1.33027 0
M  V30 461 H 40.0698 1.69571 -3.40514 0
M  V30 462 H 41.3818 2.41774 -4.36287 0
M  V30 463 H 40.5358 4.7108 -3.8232 0
M  V30 464 H 39.2748 4.01754 -2.76487 0
M  V30 465 H 38.2798 2.80799 -4.72686 0
M  V30 466 H 39.5048 3.53238 -5.8 0
M  V30 467 H 37.4508 5.0687 -4.16435 0
M  V30 468 H 37.3678 4.76562 -5.86877 0
M  V30 469 H 38.6358 5.77335 -5.23741 0
M  V30 470 N 42.8649 1.48995 0.513639 0
M  V30 471 C 44.1139 1.57093 1.2651 0
M  V30 472 C 44.4269 0.257091 1.93903 0
M  V30 473 O 45.6329 0.216478 2.70636 0
M  V30 474 C 44.0889 2.77118 2.29638 0
M  V30 475 C 43.6969 4.15209 1.68241 0
M  V30 476 C 45.4409 2.94538 3.05692 0
M  V30 477 C 43.3479 5.26474 2.69406 0
M  V30 478 H 42.2779 0.584876 0.475854 0
M  V30 479 H 44.9289 1.7536 0.540487 0
M  V30 480 H 43.3109 2.52319 3.05207 0
M  V30 481 H 44.4849 4.50094 0.987505 0
M  V30 482 H 42.7999 4.03042 1.04623 0
M  V30 483 H 45.3969 3.74832 3.8132 0
M  V30 484 H 45.7399 2.04614 3.62545 0
M  V30 485 H 46.2729 3.19316 2.37238 0
M  V30 486 H 43.0119 6.18417 2.17351 0
M  V30 487 H 42.5319 4.96058 3.37175 0
M  V30 488 H 44.2109 5.55277 3.32078 0
M  V30 489 N 44.343 -0.763751 1.37857 0
M  V30 490 C 45.275 -1.88664 1.30148 0
M  V30 491 C 46.288 -1.61365 0.215685 0
M  V30 492 O 47.477 -1.72134 0.472459 0
M  V30 493 C 44.577 -3.24075 0.991396 0
M  V30 494 C 43.75 -3.78958 2.18426 0
M  V30 495 C 42.809 -4.92862 1.8432 0
M  V30 496 O 41.835 -5.08027 2.56704 0
M  V30 497 N 43.037 -5.75071 0.792081 0
M  V30 498 H 45.802 -1.95791 2.26905 0
M  V30 499 H 43.363 -0.943226 1.31586 0
M  V30 500 H 45.355 -3.97804 0.743935 0
M  V30 501 H 43.925 -3.12399 0.112122 0
M  V30 502 H 43.145 -2.96913 2.59299 0
M  V30 503 H 44.433 -4.12357 2.98058 0
M  V30 504 H 43.831 -5.65375 0.191595 0
M  V30 505 H 42.388 -6.48991 0.60449 0
M  V30 506 N 45.8211 -1.22559 -0.990812 0
M  V30 507 C 47.0981 -0.959875 -1.70428 0
M  V30 508 C 47.4781 0.524455 -2.04481 0
M  V30 509 O 46.8261 1.49302 -1.72977 0
M  V30 510 C 47.0361 -1.85955 -2.95333 0
M  V30 511 C 48.3841 -2.11687 -3.68068 0
M  V30 512 O 49.4081 -1.8342 -3.05345 0
M  V30 513 O 48.2671 -2.59572 -4.80921 0
M  V30 514 H 45.3611 -0.361154 -0.743974 0
M  V30 515 H 47.9071 -1.33554 -1.04697 0
M  V30 516 H 46.6791 -2.86346 -2.66687 0
M  V30 517 H 46.3021 -1.4856 -3.68803 0
M  V30 518 N 47.2992 1.18797 -1.03562 0
M  V30 519 C 48.2462 2.22253 -0.622259 0
M  V30 520 C 49.2162 1.61987 0.36736 0
M  V30 521 O 50.4012 1.88986 0.262492 0
M  V30 522 C 47.5412 3.45097 0.0138462 0
M  V30 523 C 46.6542 4.19722 -1.02263 0
M  V30 524 C 45.7892 5.30009 -0.355573 0
M  V30 525 C 44.8282 5.96399 -1.37749 0
M  V30 526 N 43.9652 6.98234 -0.735766 0
M  V30 527 H 48.8052 2.56968 -1.50903 0
M  V30 528 H 46.3422 1.26245 -0.755017 0
M  V30 529 H 48.3002 4.15279 0.399948 0
M  V30 530 H 46.9302 3.11018 0.864158 0
M  V30 531 H 45.9822 3.48418 -1.52673 0
M  V30 532 H 47.2942 4.65227 -1.79903 0
M  V30 533 H 46.4482 6.0664 0.0850095 0
M  V30 534 H 45.1872 4.85592 0.452967 0
M  V30 535 H 44.1922 5.18512 -1.82826 0
M  V30 536 H 45.4172 6.42899 -2.18764 0
M  V30 537 H 43.3632 6.55979 0.0525597 0
M  V30 538 H 43.2802 7.41965 -1.44995 0
M  V30 539 H 44.5482 7.78845 -0.31941 0
M  V30 540 N 48.7773 0.814389 1.34928 0
M  V30 541 C 49.6873 0.231978 2.3345 0
M  V30 542 C 50.7033 -0.629139 1.62228 0
M  V30 543 O 51.8793 -0.539052 1.94052 0
M  V30 544 C 48.9443 -0.603482 3.41407 0
M  V30 545 C 48.0053 0.279037 4.28392 0
M  V30 546 C 47.2383 -0.516643 5.31193 0
M  V30 547 O 47.4613 -1.75068 5.4287 0
M  V30 548 O 46.3953 0.0965652 6.01823 0
M  V30 549 H 50.2213 1.04721 2.85074 0
M  V30 550 H 47.8063 0.576343 1.37836 0
M  V30 551 H 49.6883 -1.07908 4.0735 0
M  V30 552 H 48.3633 -1.39618 2.92042 0
M  V30 553 H 47.2703 0.801948 3.65403 0
M  V30 554 H 48.6033 1.03588 4.81176 0
M  V30 555 N 50.2554 -1.46986 0.568584 0
M  V30 556 C 51.5034 -2.02041 0.0487022 0
M  V30 557 C 51.8244 -1.44408 -1.31039 0
M  V30 558 O 51.0944 -0.623477 -1.85714 0
M  V30 559 H 49.6744 -0.746849 0.015014 0
M  V30 560 H 52.3364 -1.80257 0.741168 0
M  V30 561 H 51.4324 -3.12085 -0.0308961 0
M  V30 562 N 51.7335 -0.305618 -1.54608 0
M  V30 563 C 52.9825 0.303098 -1.9941 0
M  V30 564 C 53.2955 1.54648 -1.19764 0
M  V30 565 O 54.5015 2.23007 -1.54855 0
M  V30 566 C 52.9575 0.590588 -3.55021 0
M  V30 567 C 52.5655 -0.634719 -4.43481 0
M  V30 568 C 54.3095 1.16025 -4.08336 0
M  V30 569 C 52.2165 -0.320126 -5.90533 0
M  V30 570 H 51.1465 0.117031 -0.744862 0
M  V30 571 H 53.7975 -0.415045 -1.78745 0
M  V30 572 H 52.1795 1.36845 -3.71604 0
M  V30 573 H 53.3535 -1.41079 -4.38672 0
M  V30 574 H 51.6685 -1.12333 -4.00962 0
M  V30 575 H 54.2655 1.40994 -5.15776 0
M  V30 576 H 54.6085 2.10397 -3.5922 0
M  V30 577 H 55.1415 0.443985 -3.95315 0
M  V30 578 H 51.8805 -1.23254 -6.43808 0
M  V30 579 H 51.4005 0.418579 -5.98338 0
M  V30 580 H 53.0795 0.0766241 -6.46955 0
M  V30 581 N 53.2116 1.57565 -0.0334293 0
M  V30 582 C 54.6226 1.79746 0.504798 0
M  V30 583 C 54.9736 0.944091 1.71992 0
M  V30 584 O 54.0986 0.155694 2.15839 0
M  V30 585 C 54.6936 3.25997 0.922567 0
M  V30 586 C 53.2526 3.49159 1.40588 0
M  V30 587 C 52.3996 2.74785 0.372633 0
M  V30 588 H 55.3506 1.56565 -0.259436 0
M  V30 589 H 55.3716 3.35945 1.78666 0
M  V30 590 H 54.8836 3.88081 0.0379825 0
M  V30 591 H 52.9846 2.92332 2.31025 0
M  V30 592 H 53.0976 4.57873 1.41028 0
M  V30 593 H 51.4616 2.40391 0.841672 0
M  V30 594 H 52.2446 3.39587 -0.503559 0
M  V30 595 N 54.6897 -0.239769 1.55765 0
M  V30 596 C 56.1007 -0.808263 1.68297 0
M  V30 597 C 56.4517 -1.85736 0.632181 0
M  V30 598 O 55.5767 -2.15277 -0.220204 0
M  V30 599 C 56.1717 -1.47284 3.05111 0
M  V30 600 C 54.7307 -1.98895 3.19559 0
M  V30 601 C 53.8777 -0.842575 2.64189 0
M  V30 602 H 56.8287 -0.0154422 1.58692 0
M  V30 603 H 56.8497 -2.34111 2.99954 0
M  V30 604 H 56.3617 -0.709053 3.81568 0
M  V30 605 H 54.4627 -2.78132 2.47938 0
M  V30 606 H 54.5757 -2.18143 4.26556 0
M  V30 607 H 52.9397 -1.24501 2.22197 0
M  V30 608 H 53.7227 -0.0917552 3.43177 0
M  V30 609 N 56.1678 -1.49265 -0.50573 0
M  V30 610 C 57.4448 -1.49012 -1.26707 0
M  V30 611 C 57.8248 -0.215205 -2.1 0
M  V30 612 O 57.1728 0.802547 -2.13943 0
M  V30 613 C 57.3828 -2.7663 -2.12783 0
M  V30 614 C 58.7308 -3.25932 -2.72127 0
M  V30 615 O 59.7548 -2.77715 -2.23054 0
M  V30 616 O 58.6138 -4.09897 -3.61451 0
M  V30 617 H 55.7078 -0.596197 -0.57313 0
M  V30 618 H 58.2538 -1.61524 -0.52039 0
M  V30 619 H 57.0258 -3.60916 -1.5118 0
M  V30 620 H 56.6488 -2.66956 -2.94653 0
M  V30 621 N 57.6459 0.756429 -1.3826 0
M  V30 622 C 58.5779 1.87971 -1.31147 0
M  V30 623 C 59.5909 1.61248 -0.224239 0
M  V30 624 O 60.7799 1.71881 -0.481581 0
M  V30 625 C 57.8799 3.23545 -1.00857 0
M  V30 626 C 57.0529 3.77794 -2.20432 0
M  V30 627 C 56.1119 4.91877 -1.86931 0
M  V30 628 O 55.1379 5.06659 -2.59395 0
M  V30 629 N 56.3399 5.74643 -0.822568 0
M  V30 630 H 59.1049 1.94585 -2.2794 0
M  V30 631 H 56.6659 0.936234 -1.32084 0
M  V30 632 H 58.6579 3.97403 -0.765021 0
M  V30 633 H 57.2279 3.12335 -0.128687 0
M  V30 634 H 56.4479 2.95534 -2.6087 0
M  V30 635 H 57.7359 4.10771 -3.00241 0
M  V30 636 H 57.1339 5.65266 -0.221575 0
M  V30 637 H 55.6909 6.48661 -0.638899 0
M  V30 638 N 59.124 1.23083 0.984299 0
M  V30 639 C 60.056 0.96636 2.07832 0
M  V30 640 C 61.069 -0.0582135 1.62696 0
M  V30 641 O 62.258 0.176843 1.77622 0
M  V30 642 C 59.358 0.433397 3.36117 0
M  V30 643 C 58.531 1.51722 4.10243 0
M  V30 644 C 57.59 0.989821 5.16807 0
M  V30 645 O 56.616 1.67794 5.43906 0
M  V30 646 N 57.818 -0.184367 5.80207 0
M  V30 647 H 60.583 1.90824 2.31098 0
M  V30 648 H 58.144 1.13888 1.1507 0
M  V30 649 H 60.136 0.065699 4.04647 0
M  V30 650 H 58.706 -0.413806 3.09849 0
M  V30 651 H 57.926 2.05786 3.36223 0
M  V30 652 H 59.214 2.24619 4.56534 0
M  V30 653 H 58.612 -0.760062 5.60571 0
M  V30 654 H 57.169 -0.493366 6.4993 0
M  V30 655 N 60.6021 -1.18246 1.0419 0
M  V30 656 C 62.0181 -1.40269 0.761366 0
M  V30 657 C 62.2181 -1.90777 -0.648578 0
M  V30 658 O 61.2741 -2.0929 -1.41258 0
M  V30 659 C 62.5871 -2.40237 1.8085 0
M  V30 660 C 64.1351 -2.53961 1.82955 0
M  V30 661 C 64.6101 -3.57194 2.86664 0
M  V30 662 N 66.1011 -3.64702 2.85563 0
M  V30 663 C 66.8361 -4.44309 3.6246 0
M  V30 664 N 66.3321 -5.27514 4.49111 0
M  V30 665 N 68.1251 -4.39084 3.50944 0
M  V30 666 H 60.2761 -0.837882 1.95175 0
M  V30 667 H 62.5391 -0.430608 0.84456 0
M  V30 668 H 62.2451 -2.10176 2.81991 0
M  V30 669 H 62.1191 -3.39601 1.64168 0
M  V30 670 H 64.5061 -2.83338 0.824855 0
M  V30 671 H 64.5871 -1.54706 2.03715 0
M  V30 672 H 64.2311 -3.28558 3.87314 0
M  V30 673 H 64.1611 -4.5613 2.6316 0
M  V30 674 H 66.6521 -3.05289 2.22727 0
M  V30 675 H 66.9651 -5.85411 5.04493 0
M  V30 676 H 65.3101 -5.2693 4.53178 0
M  V30 677 H 68.5011 -3.7313 2.82651 0
M  V30 678 H 68.6741 -5.00883 4.11121 0
M  V30 679 N 62.0802 -0.821533 -1.34494 0
M  V30 680 C 63.0102 -0.257138 -2.3208 0
M  V30 681 C 63.9912 0.625645 -1.58176 0
M  V30 682 O 65.1762 0.552811 -1.86166 0
M  V30 683 C 62.3062 0.582958 -3.42372 0
M  V30 684 C 61.2602 -0.202571 -4.2752 0
M  V30 685 C 60.5862 0.760179 -5.29269 0
M  V30 686 C 61.8862 -1.40998 -5.02908 0
M  V30 687 H 63.5802 -1.07247 -2.79532 0
M  V30 688 H 61.1262 -0.517163 -1.34393 0
M  V30 689 H 63.0792 0.987972 -4.09655 0
M  V30 690 H 61.8032 1.43133 -2.93565 0
M  V30 691 H 60.4622 -0.588936 -3.61838 0
M  V30 692 H 60.1102 1.60447 -4.76724 0
M  V30 693 H 59.8102 0.238809 -5.87115 0
M  V30 694 H 61.3342 1.16308 -5.9942 0
M  V30 695 H 62.7482 -1.07905 -5.63054 0
M  V30 696 H 61.1452 -1.86689 -5.70322 0
M  V30 697 H 62.2152 -2.1889 -4.32684 0
M  V30 698 N 63.5583 1.46682 -0.576371 0
M  V30 699 C 64.8073 2.01619 -0.0572825 0
M  V30 700 C 65.1203 1.45417 1.30818 0
M  V30 701 O 66.3263 1.92133 1.91825 0
M  V30 702 C 64.7823 3.59863 -0.0518371 0
M  V30 703 C 64.3903 4.25059 -1.41523 0
M  V30 704 C 66.1343 4.2248 0.413639 0
M  V30 705 C 64.0413 5.75364 -1.36785 0
M  V30 706 H 62.9713 0.753794 -0.0176448 0
M  V30 707 H 65.6223 1.68481 -0.727076 0
M  V30 708 H 64.0043 3.90048 0.683994 0
M  V30 709 H 65.1783 4.06491 -2.17029 0
M  V30 710 H 63.4933 3.7451 -1.8202 0
M  V30 711 H 66.0903 5.3265 0.467779 0
M  V30 712 H 66.4333 3.90976 1.42982 0
M  V30 713 H 66.9663 3.96897 -0.267929 0
M  V30 714 H 63.7053 6.11518 -2.36063 0
M  V30 715 H 63.2253 5.96214 -0.654895 0
M  V30 716 H 64.9043 6.37955 -1.07805 0
M  V30 717 N 65.0364 0.313813 1.54444 0
M  V30 718 C 66.2834 -0.291675 2.00388 0
M  V30 719 C 66.6114 -1.52904 1.2021 0
M  V30 720 O 65.8664 -1.93833 0.269707 0
M  V30 721 C 66.1654 -0.680386 3.50864 0
M  V30 722 C 65.8314 0.456699 4.48581 0
M  V30 723 C 64.4934 0.768824 4.75018 0
M  V30 724 C 66.8454 1.22098 5.06697 0
M  V30 725 C 64.1734 1.84812 5.56831 0
M  V30 726 C 66.5254 2.29029 5.89685 0
M  V30 727 C 65.1894 2.60834 6.14428 0
M  V30 728 H 64.4594 -0.106732 0.733273 0
M  V30 729 H 67.1064 0.43557 1.86481 0
M  V30 730 H 65.4114 -1.48791 3.62448 0
M  V30 731 H 67.1084 -1.16026 3.83847 0
M  V30 732 H 63.6984 0.203337 4.28117 0
M  V30 733 H 67.8824 0.993096 4.86263 0
M  V30 734 H 63.1384 2.09912 5.74236 0
M  V30 735 H 67.3124 2.887 6.33739 0
M  V30 736 H 64.9394 3.44596 6.77612 0
M  V30 737 N 66.5145 -1.57545 0.0417849 0
M  V30 738 C 67.4775 -2.09885 -0.92093 0
M  V30 739 C 68.4775 -1.01648 -1.24596 0
M  V30 740 O 69.6675 -1.27759 -1.1842 0
M  V30 741 C 66.7995 -2.57527 -2.23367 0
M  V30 742 H 67.9925 -2.96236 -0.467382 0
M  V30 743 H 65.5455 -1.5493 -0.206467 0
M  V30 744 H 66.2805 -1.74542 -2.73323 0
M  V30 745 H 66.0655 -3.36613 -2.01083 0
M  V30 746 H 67.5555 -2.98201 -2.92346 0
M  V30 747 N 67.9926 0.231505 -1.5589 0
M  V30 748 C 69.2406 0.955461 -1.78088 0
M  V30 749 C 69.5616 1.85262 -0.608533 0
M  V30 750 O 68.8316 1.92277 0.375035 0
M  V30 751 H 67.4116 0.355787 -0.656829 0
M  V30 752 H 70.0736 0.245751 -1.93344 0
M  V30 753 H 69.1696 1.56814 -2.69844 0
M  V30 754 N 69.4707 1.49531 0.497807 0
M  V30 755 C 70.4177 1.66436 1.59899 0
M  V30 756 C 71.3877 0.505793 1.58212 0
M  V30 757 O 72.5727 0.733202 1.7615 0
M  V30 758 C 69.7127 1.7399 2.98029 0
M  V30 759 C 68.8257 3.01172 3.09708 0
M  V30 760 C 67.9607 2.99686 4.38591 0
M  V30 761 C 66.9997 4.21434 4.43914 0
M  V30 762 N 66.1367 4.1784 5.64229 0
M  V30 763 H 70.9767 2.60459 1.44793 0
M  V30 764 H 68.5137 1.29137 0.704423 0
M  V30 765 H 70.4717 1.76352 3.78095 0
M  V30 766 H 69.1017 0.834301 3.11832 0
M  V30 767 H 68.1537 3.08408 2.22685 0
M  V30 768 H 69.4657 3.91165 3.09502 0
M  V30 769 H 68.6197 3.00628 5.2698 0
M  V30 770 H 67.3587 2.07477 4.41367 0
M  V30 771 H 66.3637 4.20733 3.53926 0
M  V30 772 H 67.5887 5.14839 4.42851 0
M  V30 773 H 65.5347 3.28469 5.67841 0
M  V30 774 H 65.4517 5.01571 5.65652 0
M  V30 775 H 66.7197 4.22889 6.54817 0
M  V30 776 N 70.9488 -0.749086 1.3866 0
M  V30 777 C 71.8808 -1.87273 1.32142 0
M  V30 778 C 72.8938 -1.61127 0.232787 0
M  V30 779 O 74.0828 -1.71623 0.49069 0
M  V30 780 C 71.1828 -3.23005 1.02571 0
M  V30 781 C 70.3558 -3.7662 2.22433 0
M  V30 782 C 69.4148 -4.90879 1.89537 0
M  V30 783 O 68.4408 -5.05276 2.62078 0
M  V30 784 N 69.6428 -5.74198 0.853031 0
M  V30 785 H 72.4078 -1.93373 2.28969 0
M  V30 786 H 69.9688 -0.929216 1.32579 0
M  V30 787 H 71.9608 -3.96992 0.786085 0
M  V30 788 H 70.5308 -3.12262 0.145249 0
M  V30 789 H 69.7508 -2.94147 2.62434 0
M  V30 790 H 71.0388 -4.09173 3.02415 0
M  V30 791 H 70.4368 -5.6514 0.25155 0
M  V30 792 H 68.9938 -6.48313 0.67329 0
M  V30 793 N 72.4269 -1.23603 -0.977757 0
M  V30 794 C 73.3569 -1.04401 -2.0886 0
M  V30 795 C 74.3379 0.0399052 -1.70053 0
M  V30 796 O 75.5229 -0.125246 -1.93796 0
M  V30 797 C 72.6529 -0.637269 -3.41403 0
M  V30 798 C 71.6069 -1.66883 -3.94124 0
M  V30 799 C 70.9329 -1.11745 -5.22893 0
M  V30 800 C 72.2329 -3.06247 -4.23096 0
M  V30 801 H 73.9269 -1.97316 -2.25182 0
M  V30 802 H 71.4729 -0.950096 -1.08209 0
M  V30 803 H 73.4259 -0.48998 -4.18542 0
M  V30 804 H 72.1499 0.327557 -3.24953 0
M  V30 805 H 70.8089 -1.80416 -3.19133 0
M  V30 806 H 70.4569 -0.143527 -5.02795 0
M  V30 807 H 70.1569 -1.80672 -5.59134 0
M  V30 808 H 71.6809 -0.982067 -6.02651 0
M  V30 809 H 73.0949 -2.96001 -4.90975 0
M  V30 810 H 71.4919 -3.72436 -4.70544 0
M  V30 811 H 72.5619 -3.55041 -3.30263 0
M  V30 812 N 73.905 1.17692 -1.04816 0
M  V30 813 C 74.815 2.25229 -0.65643 0
M  V30 814 C 75.831 1.71018 0.320761 0
M  V30 815 O 77.007 2.00649 0.173805 0
M  V30 816 C 74.072 3.46684 -0.0332629 0
M  V30 817 C 73.133 4.15997 -1.06042 0
M  V30 818 C 72.366 5.31654 -0.466893 0
M  V30 819 O 72.589 5.65777 0.724758 0
M  V30 820 O 71.523 5.89831 -1.1993 0
M  V30 821 H 75.349 2.61016 -1.55255 0
M  V30 822 H 72.934 1.24919 -0.81949 0
M  V30 823 H 74.816 4.20234 0.313256 0
M  V30 824 H 73.491 3.12703 0.836566 0
M  V30 825 H 72.398 3.44482 -1.45886 0
M  V30 826 H 73.731 4.53996 -1.90127 0
M  V30 827 N 75.3831 0.828654 1.34056 0
M  V30 828 C 76.6601 0.341809 1.9259 0
M  V30 829 C 77.0401 -1.17158 1.75605 0
M  V30 830 O 76.3881 -1.98132 1.13824 0
M  V30 831 C 76.5981 0.777453 3.4023 0
M  V30 832 C 77.9461 0.779579 4.17382 0
M  V30 833 O 78.9701 0.7204 3.48839 0
M  V30 834 O 77.8291 0.857996 5.39723 0
M  V30 835 H 74.9231 0.0946085 0.821571 0
M  V30 836 H 77.4691 0.913827 1.42994 0
M  V30 837 H 76.2411 1.8196 3.46419 0
M  V30 838 H 75.8641 0.181444 3.97186 0
M  V30 839 N 76.8612 -1.46375 0.584142 0
M  V30 840 C 78.1092 -2.01978 0.0701287 0
M  V30 841 C 78.4302 -1.4579 -1.295 0
M  V30 842 O 77.7002 -0.64314 -1.85042 0
M  V30 843 H 76.2802 -0.746648 0.0229345 0
M  V30 844 H 78.9422 -1.79461 0.760245 0
M  V30 845 H 78.0382 -3.121 0.0022064 0
M  V30 846 N 78.3393 -0.321999 -1.54275 0
M  V30 847 C 79.7553 0.0306999 -1.5957 0
M  V30 848 C 79.9553 1.50614 -1.33857 0
M  V30 849 O 79.0113 2.2619 -1.12223 0
M  V30 850 C 80.3243 -0.386122 -2.98211 0
M  V30 851 C 81.8723 -0.336647 -3.11184 0
M  V30 852 C 82.3473 -0.728607 -4.52167 0
M  V30 853 N 83.8383 -0.681952 -4.58152 0
M  V30 854 C 84.5733 -0.957449 -5.6535 0
M  V30 855 N 84.0693 -1.3 -6.80494 0
M  V30 856 N 85.8623 -0.883113 -5.55119 0
M  V30 857 H 78.0133 -1.28332 -1.69247 0
M  V30 858 H 80.2763 -0.521716 -0.791528 0
M  V30 859 H 79.9823 -1.41404 -3.22022 0
M  V30 860 H 79.8563 0.249662 -3.76373 0
M  V30 861 H 82.2433 0.682058 -2.8711 0
M  V30 862 H 82.3243 -1.00734 -2.3513 0
M  V30 863 H 81.9683 -1.74522 -4.76974 0
M  V30 864 H 81.8983 -0.0356152 -5.26588 0
M  V30 865 H 84.3893 -0.428985 -3.75457 0
M  V30 866 H 84.7023 -1.49563 -7.58189 0
M  V30 867 H 83.0473 -1.33824 -6.81994 0
M  V30 868 H 86.2383 -0.615001 -4.64042 0
M  V30 869 H 86.4113 -1.10118 -6.38575 0
M  V30 870 N 79.8174 1.5752 -0.0501392 0
M  V30 871 C 81.0454 1.96963 0.633492 0
M  V30 872 C 81.4604 0.927631 1.6444 0
M  V30 873 O 80.8174 -0.0882665 1.82286 0
M  V30 874 C 80.8684 3.36487 1.32132 0
M  V30 875 O 80.5894 4.36693 0.350894 0
M  V30 876 C 82.0904 3.90682 2.09481 0
M  V30 877 H 79.3104 0.648244 0.173266 0
M  V30 878 H 81.8544 2.0417 -0.116134 0
M  V30 879 H 80.0094 3.30434 2.02218 0
M  V30 880 H 80.4234 5.17702 0.841735 0
M  V30 881 H 81.8974 4.90591 2.5303 0
M  V30 882 H 82.3744 3.26053 2.94255 0
M  V30 883 H 82.9804 4.00069 1.44307 0
M  V30 884 N 81.2955 -0.223234 1.56011 0
M  V30 885 C 82.2255 -1.27988 1.95298 0
M  V30 886 C 83.2065 -1.48976 0.820979 0
M  V30 887 O 84.3915 -1.61188 1.08315 0
M  V30 888 C 81.5215 -2.63 2.26822 0
M  V30 889 C 80.4755 -2.56671 3.42497 0
M  V30 890 C 79.8015 -3.95697 3.59622 0
M  V30 891 C 81.1015 -2.11601 4.77517 0
M  V30 892 H 82.7955 -0.953525 2.8381 0
M  V30 893 H 80.3415 -0.457244 1.36548 0
M  V30 894 H 82.2945 -3.37077 2.52898 0
M  V30 895 H 81.0185 -2.9732 1.35161 0
M  V30 896 H 79.6775 -1.85051 3.16467 0
M  V30 897 H 79.3255 -4.27322 2.6534 0
M  V30 898 H 79.0255 -3.92345 4.37424 0
M  V30 899 H 80.5495 -4.71438 3.88044 0
M  V30 900 H 81.9635 -2.7542 5.02809 0
M  V30 901 H 80.3605 -2.19311 5.5859 0
M  V30 902 H 81.4305 -1.06824 4.72987 0
M  V30 903 N 82.7736 -1.49793 -0.48987 0
M  V30 904 C 83.9986 -1.63836 -1.27172 0
M  V30 905 C 84.4236 -0.31402 -1.8546 0
M  V30 906 O 83.7816 0.719803 -1.66399 0
M  V30 907 C 83.8296 -2.71797 -2.36978 0
M  V30 908 O 82.9336 -2.31744 -3.41128 0
M  V30 909 H 82.2746 -0.547997 -0.37496 0
M  V30 910 H 84.8046 -1.96053 -0.585191 0
M  V30 911 H 84.8146 -2.94305 -2.82575 0
M  V30 912 H 83.4896 -3.67923 -1.93921 0
M  V30 913 H 82.0666 -2.1961 -3.01373 0
M  V30 914 N 84.2517 0.741722 -1.39055 0
M  V30 915 C 85.5287 1.49252 -1.26425 0
M  V30 916 C 85.9087 2.10705 0.129144 0
M  V30 917 O 85.2567 1.98045 1.13976 0
M  V30 918 C 85.4667 2.54934 -2.38347 0
M  V30 919 C 86.8147 3.21506 -2.77343 0
M  V30 920 O 87.8387 2.65245 -2.37747 0
M  V30 921 O 86.6977 4.23294 -3.45665 0
M  V30 922 H 83.7917 0.662451 -0.495064 0
M  V30 923 H 86.3377 0.776121 -1.50912 0
M  V30 924 H 85.1097 2.07857 -3.31529 0
M  V30 925 H 84.7327 3.34141 -2.15489 0
M  V30 926 N 85.7298 1.2412 0.971189 0
M  V30 927 C 86.9598 1.10415 1.7462 0
M  V30 928 C 87.3678 -0.346462 1.86001 0
M  V30 929 O 86.7108 -1.25104 1.34517 0
M  V30 930 C 86.7728 1.66596 3.18568 0
M  V30 931 C 86.4368 3.15446 3.3067 0
M  V30 932 C 87.4338 4.12636 3.16271 0
M  V30 933 C 85.1188 3.55337 3.55022 0
M  V30 934 C 87.1128 5.47699 3.26044 0
M  V30 935 C 84.7998 4.90542 3.64434 0
M  V30 936 C 85.7978 5.86532 3.49956 0
M  V30 937 O 85.4858 7.19279 3.59017 0
M  V30 938 H 85.2178 0.386616 0.55453 0
M  V30 939 H 87.7718 1.64633 1.22821 0
M  V30 940 H 86.0018 1.06808 3.71657 0
M  V30 941 H 87.6908 1.48232 3.77865 0
M  V30 942 H 88.4568 3.8316 2.97344 0
M  V30 943 H 84.3358 2.8113 3.65359 0
M  V30 944 H 87.8798 6.22603 3.14661 0
M  V30 945 H 83.7768 5.19691 3.82873 0
M  V30 946 H 84.5448 7.27153 3.75754 0
M  V30 947 N 87.2079 -1.17134 1.05439 0
M  V30 948 C 88.1559 -2.23289 0.651511 0
M  V30 949 C 89.1499 -1.66186 -0.328411 0
M  V30 950 O 90.3559 -1.78949 -0.194206 0
M  V30 951 H 86.7309 -0.726938 0.192523 0
M  V30 952 H 88.7019 -2.54565 1.55689 0
M  V30 953 C 87.4509 -3.47671 0.0448436 0
M  V30 954 H 86.7739 -3.91918 0.78996 0
M  V30 955 H 88.2139 -4.2353 -0.19964 0
M  V30 956 C 86.6729 -3.14453 -1.20918 0
M  V30 957 O 87.2029 -3.29459 -2.29825 0
M  V30 958 N 85.4089 -2.68657 -1.10779 0
M  V30 959 H 84.9559 -2.56646 -0.221526 0
M  V30 960 H 84.9139 -2.46804 -1.9477 0
M  V30 961 N 88.686 -0.835752 -1.33615 0
M  V30 962 C 89.935 -0.426289 -1.97144 0
M  V30 963 C 90.248 1.01912 -1.66953 0
M  V30 964 O 91.454 1.53311 -2.24072 0
M  V30 965 C 89.91 -0.711321 -3.52801 0
M  V30 966 C 89.518 -2.1712 -3.91871 0
M  V30 967 C 91.262 -0.368654 -4.22896 0
M  V30 968 C 89.169 -2.40044 -5.40493 0
M  V30 969 H 88.099 -0.15567 -0.737755 0
M  V30 970 H 90.75 -1.0239 -1.52278 0
M  V30 971 H 89.132 -0.0433766 -3.95976 0
M  V30 972 H 90.306 -2.87936 -3.59763 0
M  V30 973 H 88.621 -2.47654 -3.34749 0
M  V30 974 H 91.218 -0.517601 -5.32189 0
M  V30 975 H 91.561 0.688078 -4.10574 0
M  V30 976 H 92.094 -0.991702 -3.8524 0
M  V30 977 H 88.833 -3.44271 -5.57815 0
M  V30 978 H 88.353 -1.73785 -5.74072 0
M  V30 979 H 90.032 -2.23042 -6.0734 0
M  V30 980 N 90.1641 1.46063 -0.591896 0
M  V30 981 C 91.0961 2.28539 0.174001 0
M  V30 982 C 92.1091 1.39047 0.846753 0
M  V30 983 O 93.2981 1.63564 0.714774 0
M  V30 984 C 90.3981 3.14347 1.26645 0
M  V30 985 C 89.5711 4.32021 0.683856 0
M  V30 986 C 88.6301 4.99157 1.66518 0
M  V30 987 O 87.6561 5.56458 1.19763 0
M  V30 988 N 88.8581 4.97005 2.99943 0
M  V30 989 H 91.6231 2.94911 -0.533633 0
M  V30 990 H 89.1841 1.56077 -0.430294 0
M  V30 991 H 91.1761 3.56125 1.92242 0
M  V30 992 H 89.7461 2.49988 1.87682 0
M  V30 993 H 88.9661 3.93915 -0.1498 0
M  V30 994 H 90.2541 5.08059 0.274567 0
M  V30 995 H 89.6521 4.51714 3.40545 0
M  V30 996 H 88.2091 5.42696 3.61004 0
M  V30 997 N 91.6422 0.330177 1.54103 0
M  V30 998 C 92.5892 -0.532762 2.24567 0
M  V30 999 C 93.5592 -1.10635 1.23892 0
M  V30 1000 O 94.7442 -1.14546 1.5259 0
M  V30 1001 C 91.8842 -1.6845 3.01195 0
M  V30 1002 C 90.9972 -1.13951 4.167 0
M  V30 1003 C 90.1322 -2.25746 4.80845 0
M  V30 1004 C 89.1712 -1.6853 5.88442 0
M  V30 1005 N 88.3082 -2.74014 6.46421 0
M  V30 1006 H 93.1482 0.0746905 2.97906 0
M  V30 1007 H 90.6852 0.048632 1.4702 0
M  V30 1008 H 92.6432 -2.36234 3.43874 0
M  V30 1009 H 91.2732 -2.26314 2.30178 0
M  V30 1010 H 90.3252 -0.35301 3.78758 0
M  V30 1011 H 91.6372 -0.680892 4.94131 0
M  V30 1012 H 90.7912 -3.01422 5.26526 0
M  V30 1013 H 89.5302 -2.74947 4.0281 0
M  V30 1014 H 88.5352 -0.913543 5.42157 0
M  V30 1015 H 89.7602 -1.20198 6.68378 0
M  V30 1016 H 87.7062 -3.22494 5.71256 0
M  V30 1017 H 87.6232 -2.32735 7.19285 0
M  V30 1018 H 88.8912 -3.49499 6.96757 0
M  V30 1019 N 93.1203 -1.57491 0.0584922 0
M  V30 1020 C 94.0303 -2.15448 -0.928414 0
M  V30 1021 C 95.0463 -1.11416 -1.3365 0
M  V30 1022 O 96.2223 -1.4362 -1.41193 0
M  V30 1023 C 93.2873 -2.69393 -2.18239 0
M  V30 1024 C 92.3483 -3.88249 -1.83196 0
M  V30 1025 C 91.5813 -4.39613 -3.02616 0
M  V30 1026 O 91.8043 -3.90023 -4.16219 0
M  V30 1027 O 90.7383 -5.31111 -2.83204 0
M  V30 1028 H 94.5643 -3.00112 -0.465483 0
M  V30 1029 H 92.1493 -1.48499 -0.163826 0
M  V30 1030 H 94.0313 -3.04026 -2.91798 0
M  V30 1031 H 92.7063 -1.87796 -2.63656 0
M  V30 1032 H 91.6133 -3.58492 -1.06931 0
M  V30 1033 H 92.9463 -4.71098 -1.42573 0
M  V30 1034 N 94.5984 0.214957 -1.56127 0
M  V30 1035 C 95.8234 0.95924 -1.83884 0
M  V30 1036 C 96.2484 1.7689 -0.639644 0
M  V30 1037 O 95.6064 1.76566 0.411601 0
M  V30 1038 C 95.6544 1.84723 -3.09693 0
M  V30 1039 O 94.7584 2.94346 -2.8885 0
M  V30 1040 H 94.0994 0.27125 -0.606069 0
M  V30 1041 H 96.6294 0.226276 -2.03345 0
M  V30 1042 H 96.6394 2.25576 -3.39969 0
M  V30 1043 H 95.3144 1.25218 -3.96602 0
M  V30 1044 H 93.8914 2.57391 -2.69823 0
M  V30 1045 N 96.0765 1.50051 0.48192 0
M  V30 1046 C 97.3045 1.64237 1.25832 0
M  V30 1047 C 97.7195 0.321336 1.86045 0
M  V30 1048 O 97.0765 -0.695478 1.68729 0
M  V30 1049 C 97.1275 2.72548 2.37487 0
M  V30 1050 O 96.8485 3.99529 1.79745 0
M  V30 1051 C 98.3495 2.9761 3.28547 0
M  V30 1052 H 95.5695 0.55237 0.380957 0
M  V30 1053 H 98.1135 1.96207 0.576467 0
M  V30 1054 H 96.2685 2.43303 3.01467 0
M  V30 1055 H 96.6825 4.59342 2.5319 0
M  V30 1056 H 98.1565 3.77084 4.03127 0
M  V30 1057 H 98.6335 2.0826 3.86684 0
M  V30 1058 H 99.2395 3.28345 2.70314 0
M  V30 1059 N 97.5546 -0.734337 1.39446 0
M  V30 1060 C 98.4846 -1.86155 1.40955 0
M  V30 1061 C 99.4656 -1.67898 0.272827 0
M  V30 1062 O 100.651 -1.88207 0.478743 0
M  V30 1063 C 97.7806 -3.23912 1.25294 0
M  V30 1064 C 96.7346 -3.56808 2.36373 0
M  V30 1065 C 96.0606 -4.93508 2.058 0
M  V30 1066 C 97.3606 -3.59713 3.78687 0
M  V30 1067 H 99.0546 -1.8515 2.35287 0
M  V30 1068 H 96.6006 -0.889367 1.13253 0
M  V30 1069 H 98.5536 -4.02443 1.2497 0
M  V30 1070 H 97.2776 -3.25446 0.274308 0
M  V30 1071 H 95.9366 -2.80606 2.35914 0
M  V30 1072 H 95.5846 -4.91623 1.06374 0
M  V30 1073 H 95.2846 -5.16486 2.80208 0
M  V30 1074 H 96.8086 -5.74396 2.07128 0
M  V30 1075 H 98.2226 -4.2832 3.81071 0
M  V30 1076 H 96.6196 -3.94209 4.52459 0
M  V30 1077 H 97.6896 -2.59504 4.09617 0
M  V30 1078 N 99.0327 -1.24633 -0.964593 0
M  V30 1079 C 99.9827 -1.00841 -2.04487 0
M  V30 1080 C 100.967 0.0512468 -1.60818 0
M  V30 1081 O 102.159 -0.162865 -1.76249 0
M  V30 1082 C 99.2877 -0.618474 -3.37683 0
M  V30 1083 C 98.3737 -1.71437 -3.87905 0
M  V30 1084 N 98.7647 -2.9477 -4.11029 0
M  V30 1085 C 97.0627 -1.5926 -4.16596 0
M  V30 1086 C 97.7637 -3.65834 -4.52261 0
M  V30 1087 N 96.7397 -2.9341 -4.57615 0
M  V30 1088 H 100.542 -1.94487 -2.20345 0
M  V30 1089 H 98.0557 -1.14805 -1.14863 0
M  V30 1090 H 100.053 -0.429247 -4.14684 0
M  V30 1091 H 98.7127 0.310766 -3.23209 0
M  V30 1092 H 99.7237 -3.30917 -3.9839 0
M  V30 1093 H 96.4007 -0.731606 -4.1104 0
M  V30 1094 H 97.7907 -4.71646 -4.78539 0
M  V30 1095 N 100.511 1.16574 -1.06058 0
M  V30 1096 C 101.441 2.23057 -0.690488 0
M  V30 1097 C 102.422 1.67141 0.315901 0
M  V30 1098 O 103.607 1.93253 0.191556 0
M  V30 1099 C 100.737 3.47222 -0.073625 0
M  V30 1100 C 99.6908 4.16016 -1.00573 0
M  V30 1101 C 99.0168 5.34104 -0.252289 0
M  V30 1102 C 100.317 4.67264 -2.33371 0
M  V30 1103 H 102.011 2.54271 -1.58072 0
M  V30 1104 H 99.5568 1.22218 -0.76149 0
M  V30 1105 H 101.51 4.20939 0.19714 0
M  V30 1106 H 100.234 3.15302 0.85161 0
M  V30 1107 H 98.8928 3.44223 -1.2612 0
M  V30 1108 H 98.5408 4.98437 0.675988 0
M  V30 1109 H 98.2408 5.81072 -0.873455 0
M  V30 1110 H 99.7648 6.10599 0.0109857 0
M  V30 1111 H 101.179 5.32573 -2.12223 0
M  V30 1112 H 99.5758 5.24843 -2.90963 0
M  V30 1113 H 100.646 3.83602 -2.96611 0
M  V30 1114 N 101.989 0.842826 1.3317 0
M  V30 1115 C 103.235 0.441099 1.97945 0
M  V30 1116 C 103.568 -0.998024 1.66593 0
M  V30 1117 O 102.843 -1.69839 0.947898 0
M  V30 1118 C 103.126 0.666841 3.53872 0
M  V30 1119 C 102.979 2.15352 3.94897 0
M  V30 1120 C 104.298 0.115544 4.39948 0
M  V30 1121 H 101.417 0.161739 0.719034 0
M  V30 1122 H 104.059 1.05907 1.57746 0
M  V30 1123 H 102.209 0.140828 3.88245 0
M  V30 1124 H 103.881 2.7447 3.70761 0
M  V30 1125 H 102.124 2.63653 3.44484 0
M  V30 1126 H 102.795 2.26221 5.03516 0
M  V30 1127 H 105.271 0.565213 4.12243 0
M  V30 1128 H 104.147 0.303152 5.48062 0
M  V30 1129 H 104.408 -0.980935 4.3108 0
M  V30 1130 N 103.467 -1.45747 0.599634 0
M  V30 1131 C 104.397 -2.33235 -0.111306 0
M  V30 1132 C 105.378 -1.46359 -0.866781 0
M  V30 1133 O 106.563 -1.75146 -0.838904 0
M  V30 1134 C 103.693 -3.28932 -1.11451 0
M  V30 1135 C 102.647 -4.25381 -0.472772 0
M  V30 1136 C 101.973 -5.1071 -1.58365 0
M  V30 1137 C 103.273 -5.18831 0.600948 0
M  V30 1138 H 104.967 -2.92927 0.61919 0
M  V30 1139 H 102.513 -1.40857 0.299215 0
M  V30 1140 H 104.466 -3.89002 -1.62036 0
M  V30 1141 H 103.19 -2.67381 -1.8755 0
M  V30 1142 H 101.849 -3.66598 0.0121472 0
M  V30 1143 H 101.497 -4.45533 -2.33473 0
M  V30 1144 H 101.197 -5.7604 -1.15982 0
M  V30 1145 H 102.721 -5.73647 -2.09194 0
M  V30 1146 H 104.135 -5.73019 0.179491 0
M  V30 1147 H 102.532 -5.92595 0.946076 0
M  V30 1148 H 103.602 -4.6174 1.48068 0
M  V30 1149 N 104.945 -0.338344 -1.53925 0
M  V30 1150 C 106.361 0.0137736 -1.59594 0
M  V30 1151 C 106.561 1.49186 -1.35447 0
M  V30 1152 O 105.617 2.24987 -1.14616 0
M  V30 1153 C 106.93 -0.41773 -2.97784 0
M  V30 1154 C 108.478 -0.369633 -3.1081 0
M  V30 1155 C 108.953 -0.776524 -4.51369 0
M  V30 1156 N 110.444 -0.730506 -4.57403 0
M  V30 1157 C 111.179 -1.01736 -5.64303 0
M  V30 1158 N 110.675 -1.3721 -6.79077 0
M  V30 1159 N 112.468 -0.941942 -5.54151 0
M  V30 1160 H 104.619 -1.3012 -1.67876 0
M  V30 1161 H 106.882 -0.530082 -0.78595 0
M  V30 1162 H 106.588 -1.44811 -3.20504 0
M  V30 1163 H 106.462 0.209729 -3.76616 0
M  V30 1164 H 108.849 0.651568 -2.87817 0
M  V30 1165 H 108.93 -1.03223 -2.34049 0
M  V30 1166 H 108.574 -1.79571 -4.75096 0
M  V30 1167 H 108.504 -0.0914649 -5.26521 0
M  V30 1168 H 110.995 -0.468783 -3.74981 0
M  V30 1169 H 111.308 -1.57597 -7.5656 0
M  V30 1170 H 109.653 -1.4105 -6.80536 0
M  V30 1171 H 112.844 -0.664184 -4.63364 0
M  V30 1172 H 113.017 -1.16884 -6.37371 0
M  V30 1173 N 106.423 1.57458 -0.0668435 0
M  V30 1174 C 107.353 2.15468 0.899764 0
M  V30 1175 C 108.334 1.08042 1.31381 0
M  V30 1176 O 109.519 1.36054 1.38574 0
M  V30 1177 C 106.649 2.71232 2.16911 0
M  V30 1178 C 105.603 3.83781 1.89463 0
M  V30 1179 C 104.929 4.26127 3.22986 0
M  V30 1180 C 106.229 5.08238 1.20381 0
M  V30 1181 H 107.923 2.96488 0.416529 0
M  V30 1182 H 105.469 1.4262 0.198908 0
M  V30 1183 H 107.422 3.10458 2.84945 0
M  V30 1184 H 106.146 1.87426 2.67468 0
M  V30 1185 H 104.805 3.45051 1.23836 0
M  V30 1186 H 104.453 3.39249 3.71374 0
M  V30 1187 H 104.153 5.01993 3.05413 0
M  V30 1188 H 105.677 4.67966 3.92225 0
M  V30 1189 H 107.091 5.44811 1.78475 0
M  V30 1190 H 105.488 5.89349 1.13083 0
M  V30 1191 H 106.558 4.84558 0.182153 0
M  V30 1192 N 107.901 -0.206675 1.56239 0
M  V30 1193 C 109.317 -0.557025 1.49564 0
M  V30 1194 C 109.517 -1.86424 0.764735 0
M  V30 1195 O 108.573 -2.50584 0.310491 0
M  V30 1196 C 109.886 -0.622478 2.94186 0
M  V30 1197 C 111.434 -0.712099 3.04792 0
M  V30 1198 C 111.909 -0.808767 4.50803 0
M  V30 1199 N 113.4 -0.8726 4.54907 0
M  V30 1200 C 114.135 -0.967365 5.65181 0
M  V30 1201 N 113.631 -1.02515 6.85173 0
M  V30 1202 N 115.424 -1.00366 5.53067 0
M  V30 1203 H 107.575 0.650943 2.02179 0
M  V30 1204 H 109.838 0.230387 0.919579 0
M  V30 1205 H 109.544 0.268727 3.50672 0
M  V30 1206 H 109.418 -1.4811 3.46905 0
M  V30 1207 H 111.805 -1.59374 2.48363 0
M  V30 1208 H 111.886 0.172489 2.55218 0
M  V30 1209 H 111.53 0.0684754 5.07854 0
M  V30 1210 H 111.46 -1.70899 4.98098 0
M  V30 1211 H 113.951 -0.837657 3.68499 0
M  V30 1212 H 114.264 -1.09765 7.64965 0
M  V30 1213 H 112.609 -0.994026 6.87855 0
M  V30 1214 H 115.8 -0.95527 4.58249 0
M  V30 1215 H 115.973 -1.07405 6.39037 0
M  V30 1216 N 109.379 -1.50304 -0.473955 0
M  V30 1217 C 110.627 -1.60832 -1.22382 0
M  V30 1218 C 110.948 -0.30939 -1.9253 0
M  V30 1219 O 110.218 0.67296 -1.83978 0
M  V30 1220 H 108.798 -0.592652 -0.454723 0
M  V30 1221 H 111.46 -1.87068 -0.546968 0
M  V30 1222 H 110.556 -2.41803 -1.97327 0
M  V30 1223 N 110.857 0.726932 -1.39834 0
M  V30 1224 C 112.105 1.4837 -1.37225 0
M  V30 1225 C 112.426 1.94979 0.0284857 0
M  V30 1226 O 111.696 1.69555 0.981213 0
M  V30 1227 H 110.276 0.55043 -0.505011 0
M  V30 1228 H 112.938 0.862468 -1.74778 0
M  V30 1229 H 112.034 2.36198 -2.04003 0
M  V30 1230 N 112.336 1.25143 0.95797 0
M  V30 1231 C 113.269 0.995565 2.05338 0
M  V30 1232 C 114.247 -0.0740423 1.62431 0
M  V30 1233 O 115.431 0.0649212 1.88388 0
M  V30 1234 C 112.558 0.504298 3.34925 0
M  V30 1235 C 111.604 1.56393 3.96792 0
M  V30 1236 S 112.437 3.14815 4.33188 0
M  V30 1237 C 113.593 2.67415 5.65898 0
M  V30 1238 H 113.826 1.92309 2.26726 0
M  V30 1239 H 111.359 1.08635 1.09716 0
M  V30 1240 H 113.317 0.227497 4.09869 0
M  V30 1241 H 111.978 -0.402671 3.11508 0
M  V30 1242 H 111.171 1.17082 4.90212 0
M  V30 1243 H 110.773 1.79124 3.28315 0
M  V30 1244 H 113.065 2.10833 6.4386 0
M  V30 1245 H 114.008 3.59463 6.10076 0
M  V30 1246 H 114.416 2.07521 5.24972 0
M  V30 1247 N 113.814 -1.1601 1.06675 0
M  V30 1248 C 114.746 -2.20115 0.638921 0
M  V30 1249 C 115.759 -1.59916 -0.305057 0
M  V30 1250 O 116.948 -1.78245 -0.0954446 0
M  V30 1251 C 114.048 -3.38798 -0.0830083 0
M  V30 1252 C 113.221 -4.2855 0.875426 0
M  V30 1253 C 112.28 -5.25849 0.192042 0
M  V30 1254 O 111.306 -5.63102 0.830921 0
M  V30 1255 N 112.508 -5.70648 -1.06493 0
M  V30 1256 H 115.273 -2.57439 1.53444 0
M  V30 1257 H 112.834 -1.31057 0.950557 0
M  V30 1258 H 114.826 -4.00936 -0.550685 0
M  V30 1259 H 113.396 -2.99947 -0.880386 0
M  V30 1260 H 112.616 -3.63617 1.52238 0
M  V30 1261 H 113.904 -4.85393 1.52548 0
M  V30 1262 H 113.302 -5.42482 -1.60405 0
M  V30 1263 H 111.859 -6.34859 -1.47641 0
M  V30 1264 N 115.292 -0.849877 -1.32721 0
M  V30 1265 C 116.541 -0.447175 -1.96681 0
M  V30 1266 C 116.854 1.00135 -1.68025 0
M  V30 1267 O 118.06 1.50926 -2.25685 0
M  V30 1268 C 116.516 -0.7487 -3.52026 0
M  V30 1269 C 116.124 -2.21264 -3.89546 0
M  V30 1270 C 117.868 -0.413487 -4.22481 0
M  V30 1271 C 115.775 -2.45763 -5.37917 0
M  V30 1272 H 114.705 -0.163486 -0.736063 0
M  V30 1273 H 117.356 -1.03999 -1.51183 0
M  V30 1274 H 115.738 -0.0853727 -3.95908 0
M  V30 1275 H 116.912 -2.91736 -3.56689 0
M  V30 1276 H 115.227 -2.5119 -3.32103 0
M  V30 1277 H 117.824 -0.574017 -5.3161 0
M  V30 1278 H 118.167 0.644492 -4.11281 0
M  V30 1279 H 118.7 -1.03251 -3.84167 0
M  V30 1280 H 115.439 -3.50168 -5.54132 0
M  V30 1281 H 114.959 -1.79864 -5.72197 0
M  V30 1282 H 116.638 -2.29471 -6.0494 0
M  V30 1283 N 116.77 1.45427 -0.607355 0
M  V30 1284 C 118.017 2.02241 -0.102455 0
M  V30 1285 C 118.345 1.4758 1.26691 0
M  V30 1286 O 117.6 0.640468 1.84923 0
M  V30 1287 C 117.899 3.57398 -0.0129263 0
M  V30 1288 C 117.565 4.3121 -1.31792 0
M  V30 1289 C 116.227 4.51092 -1.67539 0
M  V30 1290 C 118.579 4.73401 -2.18039 0
M  V30 1291 C 115.907 5.10422 -2.89285 0
M  V30 1292 C 118.259 5.34078 -3.39034 0
M  V30 1293 C 116.923 5.52184 -3.75033 0
M  V30 1294 H 116.193 0.740051 -0.037491 0
M  V30 1295 H 118.84 1.74494 -0.788926 0
M  V30 1296 H 117.145 3.84421 0.756806 0
M  V30 1297 H 118.842 3.99061 0.393881 0
M  V30 1298 H 115.432 4.16047 -1.02968 0
M  V30 1299 H 119.616 4.57774 -1.91721 0
M  V30 1300 H 114.872 5.22629 -3.17283 0
M  V30 1301 H 119.046 5.65724 -4.06115 0
M  V30 1302 H 116.673 5.97925 -4.69457 0
M  V30 1303 N 118.248 0.346503 1.53744 0
M  V30 1304 C 119.494 -0.249473 2.0126 0
M  V30 1305 C 119.827 -1.49965 1.23386 0
M  V30 1306 O 119.102 -1.91811 0.32229 0
M  V30 1307 C 119.385 -0.560643 3.55709 0
M  V30 1308 C 119.238 0.701836 4.44291 0
M  V30 1309 C 120.557 -1.36905 4.18264 0
M  V30 1310 H 117.676 -0.0891987 0.731582 0
M  V30 1311 H 120.318 0.467624 1.84156 0
M  V30 1312 H 118.468 -1.17156 3.70414 0
M  V30 1313 H 120.14 1.33974 4.41417 0
M  V30 1314 H 118.383 1.32612 4.13033 0
M  V30 1315 H 119.054 0.43933 5.50249 0
M  V30 1316 H 121.53 -0.852448 4.07275 0
M  V30 1317 H 120.406 -1.55553 5.26398 0
M  V30 1318 H 120.667 -2.37203 3.73078 0
M  V30 1319 N 119.726 -1.57421 0.075193 0
M  V30 1320 C 120.673 -2.12915 -0.890843 0
M  V30 1321 C 121.643 -1.04252 -1.29309 0
M  V30 1322 O 122.828 -1.31933 -1.37834 0
M  V30 1323 C 119.968 -2.69795 -2.15186 0
M  V30 1324 C 119.081 -3.92624 -1.80194 0
M  V30 1325 C 118.216 -4.37736 -3.00933 0
M  V30 1326 C 117.255 -5.53205 -2.61974 0
M  V30 1327 N 116.392 -5.9326 -3.75483 0
M  V30 1328 H 121.232 -2.95156 -0.410735 0
M  V30 1329 H 118.769 -1.45854 -0.191086 0
M  V30 1330 H 120.727 -3.00883 -2.89008 0
M  V30 1331 H 119.357 -1.90313 -2.60731 0
M  V30 1332 H 118.409 -3.67977 -0.964218 0
M  V30 1333 H 119.721 -4.76482 -1.47534 0
M  V30 1334 H 118.875 -4.70503 -3.8303 0
M  V30 1335 H 117.614 -3.52739 -3.36789 0
M  V30 1336 H 116.619 -5.20086 -1.783 0
M  V30 1337 H 117.844 -6.39936 -2.27284 0
M  V30 1338 H 115.79 -5.11212 -4.11094 0
M  V30 1339 H 115.707 -6.71865 -3.46602 0
M  V30 1340 H 116.975 -6.30651 -4.58148 0
M  V30 1341 N 121.204 0.198386 -1.56346 0
M  V30 1342 C 122.432 0.935572 -1.84539 0
M  V30 1343 C 122.847 1.76989 -0.657281 0
M  V30 1344 O 122.204 1.78626 0.374043 0
M  V30 1345 C 122.255 1.8344 -3.11499 0
M  V30 1346 O 121.976 1.03377 -4.25728 0
M  V30 1347 C 123.477 2.68355 -3.52846 0
M  V30 1348 H 120.697 0.273126 -0.612897 0
M  V30 1349 H 123.241 0.20663 -2.03453 0
M  V30 1350 H 121.396 2.51701 -2.94492 0
M  V30 1351 H 121.81 1.64599 -4.98003 0
M  V30 1352 H 123.284 3.27085 -4.44657 0
M  V30 1353 H 123.761 3.41901 -2.75681 0
M  V30 1354 H 124.367 2.05471 -3.72373 0
M  V30 1355 N 122.682 1.50554 0.465978 0
M  V30 1356 C 123.612 1.72722 1.57128 0
M  V30 1357 C 124.593 0.576294 1.6004 0
M  V30 1358 O 125.778 0.81598 1.76225 0
M  V30 1359 C 122.908 1.82605 2.95419 0
M  V30 1360 C 121.862 2.97835 3.07373 0
M  V30 1361 C 121.188 2.92867 4.47363 0
M  V30 1362 C 122.488 4.38265 2.84114 0
M  V30 1363 H 124.182 2.65267 1.38829 0
M  V30 1364 H 121.728 1.2765 0.666441 0
M  V30 1365 H 123.681 1.96698 3.72677 0
M  V30 1366 H 122.405 0.866858 3.14886 0
M  V30 1367 H 121.064 2.83401 2.3255 0
M  V30 1368 H 120.712 1.94783 4.63755 0
M  V30 1369 H 120.412 3.70227 4.56296 0
M  V30 1370 H 121.936 3.09015 5.26633 0
M  V30 1371 H 123.35 4.53198 3.51118 0
M  V30 1372 H 121.747 5.17115 3.04487 0
M  V30 1373 H 122.817 4.50281 1.7993 0
M  V30 1374 N 124.16 -0.719506 1.40217 0
M  V30 1375 C 125.388 -1.50864 1.41589 0
M  V30 1376 C 125.803 -1.88794 0.0145275 0
M  V30 1377 O 125.16 -1.55174 -0.960594 0
M  V30 1378 C 125.211 -2.78646 2.30302 0
M  V30 1379 O 124.932 -2.42321 3.64983 0
M  V30 1380 C 126.433 -3.72569 2.40224 0
M  V30 1381 H 123.653 -0.465709 0.48307 0
M  V30 1382 H 126.197 -0.88785 1.84221 0
M  V30 1383 H 124.352 -3.37019 1.91042 0
M  V30 1384 H 124.766 -3.24514 4.12057 0
M  V30 1385 H 126.24 -4.5908 3.06512 0
M  V30 1386 H 126.717 -4.15403 1.42608 0
M  V30 1387 H 127.323 -3.20109 2.80019 0
M  V30 1388 N 125.638 -1.25649 -0.95132 0
M  V30 1389 C 126.886 -1.10375 -1.69298 0
M  V30 1390 C 127.207 0.355339 -1.91735 0
M  V30 1391 O 126.477 1.25188 -1.50681 0
M  V30 1392 H 125.057 -0.405461 -0.627384 0
M  V30 1393 H 127.719 -1.57823 -1.14358 0
M  V30 1394 H 126.815 -1.61465 -2.67087 0
M  V30 1395 N 127.117 1.15442 -1.07289 0
M  V30 1396 C 128.064 2.20161 -0.692653 0
M  V30 1397 C 129.034 1.63073 0.31564 0
M  V30 1398 O 130.219 1.89725 0.202235 0
M  V30 1399 C 127.359 3.44967 -0.0959509 0
M  V30 1400 C 126.472 4.16256 -1.15564 0
M  V30 1401 C 125.607 5.28609 -0.524011 0
M  V30 1402 C 124.646 5.91715 -1.56653 0
M  V30 1403 N 123.783 6.9554 -0.957531 0
M  V30 1404 H 128.623 2.52037 -1.59002 0
M  V30 1405 H 126.16 1.2378 -0.794798 0
M  V30 1406 H 128.118 4.16341 0.267628 0
M  V30 1407 H 126.748 3.1361 0.764772 0
M  V30 1408 H 125.8 3.43385 -1.6368 0
M  V30 1409 H 127.112 4.59268 -1.94613 0
M  V30 1410 H 126.266 6.06604 -0.108032 0
M  V30 1411 H 125.005 4.86787 0.29825 0
M  V30 1412 H 124.01 5.12433 -1.9923 0
M  V30 1413 H 125.235 6.35614 -2.39107 0
M  V30 1414 H 123.181 6.55814 -0.156162 0
M  V30 1415 H 123.098 7.36977 -1.68526 0
M  V30 1416 H 124.366 7.77435 -0.567032 0
M  V30 1417 N 128.595 0.856903 1.32268 0
M  V30 1418 C 129.823 0.475439 2.01363 0
M  V30 1419 C 130.238 -0.928486 1.64392 0
M  V30 1420 O 129.595 -1.60624 0.866387 0
M  V30 1421 C 129.646 0.607545 3.56358 0
M  V30 1422 O 129.367 1.95617 3.92002 0
M  V30 1423 C 130.868 0.225382 4.42727 0
M  V30 1424 H 128.088 0.186636 0.644521 0
M  V30 1425 H 130.632 1.15446 1.68797 0
M  V30 1426 H 128.787 -0.0237719 3.87393 0
M  V30 1427 H 129.201 1.95455 4.86721 0
M  V30 1428 H 130.675 0.368813 5.50767 0
M  V30 1429 H 131.152 -0.834369 4.31202 0
M  V30 1430 H 131.758 0.831864 4.17085 0
M  V30 1431 N 130.073 -1.45103 0.615059 0
M  V30 1432 C 131.322 -2.01396 0.110718 0
M  V30 1433 C 131.635 -1.48834 -1.26916 0
M  V30 1434 O 132.841 -1.97152 -1.86664 0
M  V30 1435 C 131.297 -3.59599 0.14723 0
M  V30 1436 C 130.905 -4.21158 1.52743 0
M  V30 1437 C 132.649 -4.23428 -0.30148 0
M  V30 1438 C 130.556 -5.71535 1.51992 0
M  V30 1439 H 129.486 -0.753061 0.0376241 0
M  V30 1440 H 132.137 -1.66494 0.77149 0
M  V30 1441 H 130.519 -3.91724 -0.580339 0
M  V30 1442 H 131.693 -4.00594 2.2773 0
M  V30 1443 H 130.008 -3.69552 1.91886 0
M  V30 1444 H 132.605 -5.33703 -0.326392 0
M  V30 1445 H 132.948 -3.94629 -1.32565 0
M  V30 1446 H 133.481 -3.96047 0.373065 0
M  V30 1447 H 130.22 -6.05044 2.52193 0
M  V30 1448 H 129.74 -5.94268 0.81274 0
M  V30 1449 H 131.419 -6.34873 1.24681 0
M  V30 1450 N 131.551 -0.354651 -1.53558 0
M  V30 1451 C 132.779 0.239515 -2.05509 0
M  V30 1452 C 133.194 1.4333 -1.2289 0
M  V30 1453 O 132.551 1.80538 -0.266899 0
M  V30 1454 C 132.602 0.643719 -3.55723 0
M  V30 1455 O 132.323 -0.502602 -4.35207 0
M  V30 1456 C 133.824 1.29743 -4.23889 0
M  V30 1457 H 131.044 0.0442697 -0.669538 0
M  V30 1458 H 133.588 -0.509856 -1.98042 0
M  V30 1459 H 131.743 1.34302 -3.63376 0
M  V30 1460 H 132.157 -0.178172 -5.24197 0
M  V30 1461 H 133.631 1.53091 -5.30346 0
M  V30 1462 H 134.108 2.25441 -3.76926 0
M  V30 1463 H 134.714 0.639865 -4.20459 0
M  V30 1464 N 133.029 1.57378 -0.0835403 0
M  V30 1465 C 133.959 2.1641 0.87686 0
M  V30 1466 C 134.94 1.09429 1.30228 0
M  V30 1467 O 136.125 1.37516 1.37124 0
M  V30 1468 C 133.255 2.73517 2.14022 0
M  V30 1469 C 132.209 3.85769 1.85381 0
M  V30 1470 C 131.535 4.29529 3.18448 0
M  V30 1471 C 132.835 5.09486 1.14984 0
M  V30 1472 H 134.529 2.96914 0.385059 0
M  V30 1473 H 132.075 1.42823 0.18377 0
M  V30 1474 H 134.028 3.13463 2.81636 0
M  V30 1475 H 132.752 1.90252 2.65465 0
M  V30 1476 H 131.411 3.46345 1.20169 0
M  V30 1477 H 131.059 3.43169 3.67755 0
M  V30 1478 H 130.759 5.05204 3.00071 0
M  V30 1479 H 132.283 4.72099 3.8724 0
M  V30 1480 H 133.697 5.46674 1.72687 0
M  V30 1481 H 132.094 5.90515 1.06826 0
M  V30 1482 H 133.164 4.84724 0.130749 0
M  V30 1483 N 134.507 -0.190092 1.56449 0
M  V30 1484 C 135.417 -1.25591 1.98152 0
M  V30 1485 C 136.433 -1.49519 0.889944 0
M  V30 1486 O 137.609 -1.62036 1.19609 0
M  V30 1487 C 134.674 -2.57916 2.3169 0
M  V30 1488 C 133.735 -2.42015 3.5458 0
M  V30 1489 C 132.968 -3.6803 3.8651 0
M  V30 1490 O 133.191 -4.72413 3.1966 0
M  V30 1491 O 132.125 -3.6326 4.79923 0
M  V30 1492 H 135.951 -0.931988 2.89046 0
M  V30 1493 H 133.536 -0.395488 1.4407 0
M  V30 1494 H 135.418 -3.36008 2.54316 0
M  V30 1495 H 134.093 -2.89925 1.43963 0
M  V30 1496 H 133 -1.62017 3.37196 0
M  V30 1497 H 134.333 -2.14937 4.4279 0
M  V30 1498 N 135.985 -1.50799 -0.457987 0
M  V30 1499 C 137.231 -1.62683 -1.21088 0
M  V30 1500 C 137.564 -0.332268 -1.91336 0
M  V30 1501 O 136.839 0.667043 -1.82704 0
M  V30 1502 C 137.122 -2.81615 -2.24422 0
M  V30 1503 C 136.975 -4.20989 -1.58392 0
M  V30 1504 C 138.294 -2.96085 -3.2561 0
M  V30 1505 H 135.413 -0.592087 -0.438864 0
M  V30 1506 H 138.055 -1.83225 -0.50286 0
M  V30 1507 H 136.205 -2.64231 -2.84806 0
M  V30 1508 H 137.877 -4.49994 -1.01504 0
M  V30 1509 H 136.12 -4.24641 -0.886704 0
M  V30 1510 H 136.791 -5.0016 -2.33547 0
M  V30 1511 H 139.267 -3.12042 -2.75262 0
M  V30 1512 H 138.143 -3.80902 -3.95228 0
M  V30 1513 H 138.404 -2.0726 -3.90507 0
M  V30 1514 N 137.463 0.71206 -1.40597 0
M  V30 1515 C 138.373 1.8562 -1.43466 0
M  V30 1516 C 139.389 1.70902 -0.326902 0
M  V30 1517 O 140.565 1.93105 -0.572043 0
M  V30 1518 C 137.63 3.21451 -1.29884 0
M  V30 1519 C 136.691 3.48398 -2.50833 0
M  V30 1520 C 135.924 4.77749 -2.3789 0
M  V30 1521 O 136.147 5.53089 -1.39459 0
M  V30 1522 O 135.081 5.05111 -3.27333 0
M  V30 1523 H 138.907 1.86155 -2.39958 0
M  V30 1524 H 136.492 0.86295 -1.21957 0
M  V30 1525 H 138.374 4.02579 -1.24531 0
M  V30 1526 H 137.049 3.21636 -0.364997 0
M  V30 1527 H 135.956 2.67265 -2.61763 0
M  V30 1528 H 137.289 3.53014 -3.4299 0
M  V30 1529 N 138.941 1.26152 0.944643 0
M  V30 1530 C 140.352 1.10454 1.50522 0
M  V30 1531 C 140.703 -0.31635 1.93633 0
M  V30 1532 O 139.828 -1.20746 1.79581 0
M  V30 1533 C 140.423 1.99891 2.73549 0
M  V30 1534 C 138.982 1.88348 3.25886 0
M  V30 1535 C 138.129 1.93447 1.9868 0
M  V30 1536 H 141.08 1.39292 0.760489 0
M  V30 1537 H 141.101 1.54477 3.47732 0
M  V30 1538 H 140.613 3.03297 2.42141 0
M  V30 1539 H 138.714 0.878636 3.62092 0
M  V30 1540 H 138.827 2.73696 3.93227 0
M  V30 1541 H 137.191 1.37456 2.14425 0
M  V30 1542 H 137.974 2.98476 1.69607 0
M  V30 1543 N 140.419 -1.14872 1.07899 0
M  V30 1544 C 141.644 -1.90202 0.826926 0
M  V30 1545 C 142.069 -1.77774 -0.614664 0
M  V30 1546 O 141.427 -1.11431 -1.43013 0
M  V30 1547 C 141.475 -3.38352 1.24702 0
M  V30 1548 O 140.579 -4.10497 0.39575 0
M  V30 1549 H 139.92 -0.591968 0.300782 0
M  V30 1550 H 142.45 -1.45437 1.43907 0
M  V30 1551 H 142.46 -3.89156 1.22563 0
M  V30 1552 H 141.135 -3.46715 2.29698 0
M  V30 1553 H 139.712 -3.69796 0.480117 0
M  V30 1554 N 141.898 -0.863906 -1.31812 0
M  V30 1555 C 143.175 -0.39275 -1.91616 0
M  V30 1556 C 143.555 1.12461 -1.7865 0
M  V30 1557 O 142.903 1.95045 -1.19037 0
M  V30 1558 C 143.113 -0.867385 -3.38049 0
M  V30 1559 C 144.461 -0.889966 -4.15168 0
M  V30 1560 O 145.485 -0.812635 -3.46806 0
M  V30 1561 O 144.344 -1.00079 -5.37258 0
M  V30 1562 H 141.438 -0.116358 -0.818773 0
M  V30 1563 H 143.984 -0.951418 -1.40521 0
M  V30 1564 H 142.756 -1.91081 -3.41473 0
M  V30 1565 H 142.379 -0.286687 -3.96565 0
M  V30 1566 N 143.376 1.44774 -0.622745 0
M  V30 1567 C 144.604 2.06487 -0.130722 0
M  V30 1568 C 145.019 1.46476 1.19123 0
M  V30 1569 O 144.376 0.584502 1.72887 0
M  V30 1570 C 144.427 3.615 -0.000807207 0
M  V30 1571 O 144.148 4.19274 -1.27048 0
M  V30 1572 C 145.649 4.40229 0.520898 0
M  V30 1573 H 142.869 0.666704 -0.0758106 0
M  V30 1574 H 145.413 1.85779 -0.854774 0
M  V30 1575 H 143.568 3.81498 0.673643 0
M  V30 1576 H 143.982 5.12622 -1.1099 0
M  V30 1577 H 145.456 5.49144 0.560838 0
M  V30 1578 H 145.933 4.1108 1.54627 0
M  V30 1579 H 146.539 4.25131 -0.120018 0
M  V30 1580 N 144.854 0.36279 1.53368 0
M  V30 1581 C 146.103 -0.22888 2.00397 0
M  V30 1582 C 146.416 -1.50096 1.25421 0
M  V30 1583 O 147.622 -2.17106 1.63025 0
M  V30 1584 C 146.078 -0.458417 3.56969 0
M  V30 1585 C 145.686 0.798877 4.4082 0
M  V30 1586 C 147.43 -1.00789 4.12361 0
M  V30 1587 C 145.337 0.539078 5.88938 0
M  V30 1588 H 144.267 -0.089305 0.748693 0
M  V30 1589 H 146.918 0.481099 1.77081 0
M  V30 1590 H 145.3 -1.22959 3.76427 0
M  V30 1591 H 146.474 1.57262 4.33134 0
M  V30 1592 H 144.789 1.27137 3.96516 0
M  V30 1593 H 147.386 -1.21754 5.20653 0
M  V30 1594 H 147.729 -1.9692 3.66781 0
M  V30 1595 H 148.262 -0.296961 3.9669 0
M  V30 1596 H 145.001 1.47064 6.3879 0
M  V30 1597 H 144.521 -0.196222 5.99479 0
M  V30 1598 H 146.2 0.163542 6.46793 0
M  V30 1599 N 146.332 -1.57332 0.0918853 0
M  V30 1600 C 147.242 -2.17368 -0.882505 0
M  V30 1601 C 148.258 -1.14226 -1.31257 0
M  V30 1602 O 149.434 -1.46582 -1.38115 0
M  V30 1603 C 146.499 -2.73962 -2.12476 0
M  V30 1604 C 145.56 -3.92048 -1.7492 0
M  V30 1605 C 144.793 -4.45933 -2.93223 0
M  V30 1606 O 145.016 -3.98764 -4.07852 0
M  V30 1607 O 143.95 -5.36999 -2.71875 0
M  V30 1608 H 147.776 -3.01031 -0.40172 0
M  V30 1609 H 145.361 -1.48813 -0.132291 0
M  V30 1610 H 147.243 -3.10147 -2.85283 0
M  V30 1611 H 145.918 -1.93347 -2.59613 0
M  V30 1612 H 144.825 -3.6068 -0.993025 0
M  V30 1613 H 146.158 -4.74017 -1.32548 0
M  V30 1614 N 147.81 0.181792 -1.56548 0
M  V30 1615 C 148.758 1.24461 -1.965 0
M  V30 1616 C 149.752 1.464 -0.852261 0
M  V30 1617 O 150.958 1.47103 -1.03733 0
M  V30 1618 H 147.333 0.418138 -0.625031 0
M  V30 1619 H 149.304 0.880714 -2.85107 0
M  V30 1620 C 148.053 2.57891 -2.33212 0
M  V30 1621 H 147.376 2.41829 -3.18369 0
M  V30 1622 H 148.816 3.3097 -2.65019 0
M  V30 1623 C 147.275 3.15871 -1.17163 0
M  V30 1624 O 147.805 3.9913 -0.453708 0
M  V30 1625 N 146.011 2.74808 -0.944936 0
M  V30 1626 H 145.558 2.07205 -1.53049 0
M  V30 1627 H 145.516 3.13939 -0.170286 0
M  V30 1628 N 149.288 1.51039 0.449983 0
M  V30 1629 C 150.534 1.63322 1.20223 0
M  V30 1630 C 150.867 0.34241 1.91158 0
M  V30 1631 O 150.142 -0.657344 1.83055 0
M  V30 1632 C 150.425 2.82801 2.22925 0
M  V30 1633 C 150.278 4.21823 1.56157 0
M  V30 1634 C 151.597 2.97807 3.24035 0
M  V30 1635 H 148.716 0.594407 0.435718 0
M  V30 1636 H 151.358 1.83489 0.493136 0
M  V30 1637 H 149.508 2.65738 2.834 0
M  V30 1638 H 151.18 4.50526 0.991162 0
M  V30 1639 H 149.423 4.25105 0.864172 0
M  V30 1640 H 150.094 5.01391 2.30891 0
M  V30 1641 H 152.57 3.13497 2.73603 0
M  V30 1642 H 151.446 3.82992 3.93202 0
M  V30 1643 H 151.707 2.09328 3.89402 0
M  V30 1644 N 150.766 -0.704594 1.40972 0
M  V30 1645 C 151.713 -1.81862 1.42109 0
M  V30 1646 C 152.683 -1.63781 0.276593 0
M  V30 1647 O 153.868 -1.84759 0.4763 0
M  V30 1648 C 151.008 -3.19669 1.30022 0
M  V30 1649 C 150.121 -3.49246 2.54267 0
M  V30 1650 C 149.256 -4.76618 2.3454 0
M  V30 1651 C 148.295 -4.99133 3.54306 0
M  V30 1652 N 147.432 -6.17726 3.33706 0
M  V30 1653 H 152.272 -1.80226 2.37324 0
M  V30 1654 H 149.809 -0.880238 1.17857 0
M  V30 1655 H 151.767 -3.99263 1.21018 0
M  V30 1656 H 150.397 -3.20506 0.384192 0
M  V30 1657 H 149.449 -2.64125 2.73756 0
M  V30 1658 H 150.761 -3.61788 3.43381 0
M  V30 1659 H 149.915 -5.64249 2.22952 0
M  V30 1660 H 148.654 -4.66305 1.42867 0
M  V30 1661 H 147.659 -4.09953 3.66359 0
M  V30 1662 H 148.884 -5.11311 4.4692 0
M  V30 1663 H 146.83 -6.08642 2.44725 0
M  V30 1664 H 146.747 -6.30995 4.16391 0
M  V30 1665 H 148.015 -7.08115 3.25873 0
M  V30 1666 N 152.244 -1.26651 -0.937939 0
M  V30 1667 C 153.207 -1.08546 -2.01867 0
M  V30 1668 C 154.207 -0.0327327 -1.60767 0
M  V30 1669 O 155.397 -0.276427 -1.71993 0
M  V30 1670 C 152.529 -0.651711 -3.34613 0
M  V30 1671 H 153.722 -2.04502 -2.1936 0
M  V30 1672 H 151.275 -1.09294 -1.11734 0
M  V30 1673 H 152.01 0.309696 -3.22818 0
M  V30 1674 H 151.795 -1.41189 -3.65798 0
M  V30 1675 H 153.285 -0.546973 -4.14002 0
M  V30 1676 N 153.722 1.14298 -1.08507 0
M  V30 1677 C 154.669 2.19414 -0.715965 0
M  V30 1678 C 155.639 1.63399 0.298326 0
M  V30 1679 O 156.824 1.89929 0.182101 0
M  V30 1680 C 153.964 3.44845 -0.132534 0
M  V30 1681 C 153.077 4.15007 -1.19973 0
M  V30 1682 C 152.212 5.28024 -0.580048 0
M  V30 1683 C 151.251 5.9002 -1.62921 0
M  V30 1684 N 150.388 6.94485 -1.03125 0
M  V30 1685 H 155.228 2.50336 -1.61666 0
M  V30 1686 H 152.765 1.2293 -0.807882 0
M  V30 1687 H 154.723 4.16601 0.223454 0
M  V30 1688 H 153.353 3.14403 0.731467 0
M  V30 1689 H 152.405 3.41629 -1.67313 0
M  V30 1690 H 153.717 4.57178 -1.99473 0
M  V30 1691 H 152.871 6.06455 -0.172364 0
M  V30 1692 H 151.61 4.87076 0.246603 0
M  V30 1693 H 150.615 5.10291 -2.04654 0
M  V30 1694 H 151.84 6.33042 -2.45835 0
M  V30 1695 H 149.786 6.55612 -0.225711 0
M  V30 1696 H 149.703 7.35148 -1.76334 0
M  V30 1697 H 150.971 7.7679 -0.649458 0
M  V30 1698 N 155.201 0.870884 1.31352 0
M  V30 1699 C 156.45 0.478408 1.95944 0
M  V30 1700 C 156.763 -0.974493 1.69597 0
M  V30 1701 O 157.969 -1.47316 2.28058 0
M  V30 1702 C 156.425 0.804609 3.50791 0
M  V30 1703 C 156.033 2.27433 3.85977 0
M  V30 1704 C 157.777 0.480648 4.2177 0
M  V30 1705 C 155.684 2.5429 5.33939 0
M  V30 1706 H 154.614 0.175175 0.733369 0
M  V30 1707 H 157.265 1.06391 1.4951 0
M  V30 1708 H 155.647 0.148347 3.95722 0
M  V30 1709 H 156.821 2.97373 3.52002 0
M  V30 1710 H 155.136 2.56442 3.28065 0
M  V30 1711 H 157.733 0.658519 5.30629 0
M  V30 1712 H 158.076 -0.578979 4.12254 0
M  V30 1713 H 158.609 1.09349 3.82476 0
M  V30 1714 H 155.348 3.58939 5.48491 0
M  V30 1715 H 154.868 1.88945 5.69263 0
M  V30 1716 H 156.547 2.39066 6.01212 0
M  V30 1717 N 156.679 -1.44442 0.630414 0
M  V30 1718 C 157.611 -2.2892 -0.113347 0
M  V30 1719 C 158.624 -1.41243 -0.80959 0
M  V30 1720 O 159.813 -1.65402 -0.671156 0
M  V30 1721 C 156.913 -3.17594 -1.18266 0
M  V30 1722 C 156.086 -4.33682 -0.569073 0
M  V30 1723 C 155.145 -5.03397 -1.53226 0
M  V30 1724 O 154.171 -5.59438 -1.04967 0
M  V30 1725 N 155.373 -5.04783 -2.86661 0
M  V30 1726 H 158.138 -2.93392 0.611636 0
M  V30 1727 H 155.699 -1.54881 0.471523 0
M  V30 1728 H 157.691 -3.61097 -1.82732 0
M  V30 1729 H 156.261 -2.54876 -1.80988 0
M  V30 1730 H 155.481 -3.9338 0.254187 0
M  V30 1731 H 156.769 -5.08608 -0.139767 0
M  V30 1732 H 156.167 -4.60584 -3.28449 0
M  V30 1733 H 154.724 -5.52077 -3.46489 0
M  V30 1734 N 158.157 -0.370918 -1.53173 0
M  V30 1735 C 159.434 0.273754 -1.93675 0
M  V30 1736 C 159.814 1.65938 -1.3049 0
M  V30 1737 O 159.162 2.23698 -0.465999 0
M  V30 1738 C 159.372 0.318602 -3.47543 0
M  V30 1739 C 160.72 0.556392 -4.20939 0
M  V30 1740 O 161.744 0.399587 -3.53952 0
M  V30 1741 O 160.603 0.862133 -5.39657 0
M  V30 1742 H 157.697 0.165448 -0.810281 0
M  V30 1743 H 160.243 -0.42409 -1.64315 0
M  V30 1744 H 159.015 -0.652687 -3.85818 0
M  V30 1745 H 158.638 1.06212 -3.83151 0
M  V30 1746 N 159.635 1.57281 -0.100228 0
M  V30 1747 C 160.582 2.14305 0.856858 0
M  V30 1748 C 161.552 1.06296 1.27634 0
M  V30 1749 O 162.737 1.34109 1.35718 0
M  V30 1750 C 159.877 2.73184 2.10866 0
M  V30 1751 C 158.99 3.95442 1.73925 0
M  V30 1752 C 158.125 4.42468 2.93931 0
M  V30 1753 C 157.164 5.57303 2.5314 0
M  V30 1754 N 156.301 5.99158 3.65997 0
M  V30 1755 H 161.141 2.95772 0.363726 0
M  V30 1756 H 158.678 1.46139 0.167858 0
M  V30 1757 H 160.636 3.05442 2.84185 0
M  V30 1758 H 159.266 1.94437 2.57671 0
M  V30 1759 H 158.318 3.69464 0.905554 0
M  V30 1760 H 159.63 4.78769 1.39935 0
M  V30 1761 H 158.784 4.76537 3.75496 0
M  V30 1762 H 157.523 3.58052 3.31134 0
M  V30 1763 H 156.528 5.22857 1.70003 0
M  V30 1764 H 157.753 6.43471 2.17075 0
M  V30 1765 H 155.699 5.17687 4.02909 0
M  V30 1766 H 155.616 6.77295 3.35869 0
M  V30 1767 H 156.884 6.3786 4.48057 0
M  V30 1768 N 161.113 -0.173488 1.56642 0
M  V30 1769 C 162.023 -1.23482 1.99473 0
M  V30 1770 C 163.039 -1.48567 0.905752 0
M  V30 1771 O 164.215 -1.60758 1.21321 0
M  V30 1772 C 161.28 -2.55444 2.34413 0
M  V30 1773 C 160.341 -2.38241 3.57127 0
M  V30 1774 C 159.574 -3.63909 3.90392 0
M  V30 1775 O 159.797 -4.68996 3.24653 0
M  V30 1776 O 158.731 -3.58149 4.83749 0
M  V30 1777 H 162.557 -0.901279 2.90018 0
M  V30 1778 H 160.142 -0.380185 1.44482 0
M  V30 1779 H 162.024 -3.33292 2.57865 0
M  V30 1780 H 160.699 -2.88382 1.4703 0
M  V30 1781 H 159.606 -1.58431 3.38896 0
M  V30 1782 H 160.939 -2.10228 4.45045 0
M  V30 1783 N 162.591 -1.51276 -0.441967 0
M  V30 1784 C 163.839 -1.63392 -1.18943 0
M  V30 1785 C 164.16 -0.350159 -1.9183 0
M  V30 1786 O 163.43 0.633784 -1.85364 0
M  V30 1787 H 162.01 -0.602164 -0.442049 0
M  V30 1788 H 164.672 -1.88186 -0.507165 0
M  V30 1789 H 163.768 -2.45934 -1.92154 0
M  V30 1790 N 164.069 0.697108 -1.41344 0
M  V30 1791 C 165.318 1.45279 -1.39918 0
M  V30 1792 C 165.631 1.95597 -0.0109624 0
M  V30 1793 O 166.837 2.71208 0.125919 0
M  V30 1794 C 165.293 2.62695 -2.46007 0
M  V30 1795 C 164.901 2.19169 -3.90729 0
M  V30 1796 C 166.645 3.40336 -2.53715 0
M  V30 1797 C 164.552 3.33535 -4.88373 0
M  V30 1798 H 163.482 0.545692 -0.520323 0
M  V30 1799 H 166.133 0.756929 -1.67161 0
M  V30 1800 H 164.515 3.34541 -2.11892 0
M  V30 1801 H 165.689 1.54623 -4.34083 0
M  V30 1802 H 164.004 1.54525 -3.86666 0
M  V30 1803 H 166.601 4.2547 -3.2385 0
M  V30 1804 H 166.944 3.85418 -1.5735 0
M  V30 1805 H 167.477 2.75546 -2.86913 0
M  V30 1806 H 164.216 2.93468 -5.86137 0
M  V30 1807 H 163.736 3.96936 -4.49668 0
M  V30 1808 H 165.415 3.99335 -5.09059 0
M  V30 1809 N 165.547 1.27147 0.931209 0
M  V30 1810 C 166.958 1.12044 1.49342 0
M  V30 1811 C 167.309 -0.295795 1.93957 0
M  V30 1812 O 166.434 -1.18835 1.80852 0
M  V30 1813 C 167.029 2.02781 2.71414 0
M  V30 1814 C 165.588 1.91794 3.2387 0
M  V30 1815 C 164.735 1.95543 1.96617 0
M  V30 1816 H 167.686 1.40091 0.745672 0
M  V30 1817 H 167.707 1.58156 3.46074 0
M  V30 1818 H 167.219 3.05848 2.38911 0
M  V30 1819 H 165.32 0.916992 3.6114 0
M  V30 1820 H 165.433 2.77852 3.90302 0
M  V30 1821 H 163.797 1.39722 2.12955 0
M  V30 1822 H 164.58 3.00259 1.66432 0
M  V30 1823 N 167.025 -1.13721 1.09112 0
M  V30 1824 C 168.436 -1.6648 0.845068 0
M  V30 1825 C 168.787 -1.85911 -0.62701 0
M  V30 1826 O 167.912 -1.57556 -1.48341 0
M  V30 1827 C 168.507 -3.02413 1.52748 0
M  V30 1828 C 167.066 -3.52176 1.32849 0
M  V30 1829 C 166.213 -2.27492 1.58564 0
M  V30 1830 H 169.164 -0.976872 1.25072 0
M  V30 1831 H 169.185 -3.68223 0.958752 0
M  V30 1832 H 168.697 -2.88238 2.59885 0
M  V30 1833 H 166.798 -3.7156 0.278137 0
M  V30 1834 H 166.911 -4.32499 2.0611 0
M  V30 1835 H 165.275 -2.33923 1.00758 0
M  V30 1836 H 166.058 -2.15886 2.66924 0
M  V30 1837 N 168.503 -0.877838 -1.30888 0
M  V30 1838 C 169.78 -0.413052 -1.91189 0
M  V30 1839 C 170.16 1.1056 -1.79832 0
M  V30 1840 O 169.508 1.93771 -1.21099 0
M  V30 1841 C 169.718 -0.903191 -3.3711 0
M  V30 1842 C 171.066 -0.93395 -4.14201 0
M  V30 1843 O 172.09 -0.849373 -3.45925 0
M  V30 1844 O 170.949 -1.05772 -5.36167 0
M  V30 1845 H 168.043 -0.125035 -0.817493 0
M  V30 1846 H 170.589 -0.966269 -1.39504 0
M  V30 1847 H 169.361 -1.94692 -3.39427 0
M  V30 1848 H 168.984 -0.328732 -3.96239 0
M  V30 1849 N 169.982 1.44106 -0.638065 0
M  V30 1850 C 170.914 2.28976 0.101205 0
M  V30 1851 C 171.927 1.4167 0.802088 0
M  V30 1852 O 173.116 1.65755 0.662375 0
M  V30 1853 C 170.216 3.18217 1.16581 0
M  V30 1854 C 169.389 4.33978 0.546066 0
M  V30 1855 C 168.448 5.04202 1.50554 0
M  V30 1856 O 167.474 5.59986 1.01999 0
M  V30 1857 N 168.676 5.06296 2.8398 0
M  V30 1858 H 171.441 2.93064 -0.627186 0
M  V30 1859 H 169.002 1.54629 -0.479731 0
M  V30 1860 H 170.994 3.62061 1.80815 0
M  V30 1861 H 169.564 2.55833 1.79634 0
M  V30 1862 H 168.784 3.93239 -0.275046 0
M  V30 1863 H 170.072 5.08675 0.112793 0
M  V30 1864 H 169.47 4.62319 3.26002 0
M  V30 1865 H 168.027 5.53907 3.43556 0
M  V30 1866 N 171.46 0.379036 1.52974 0
M  V30 1867 C 172.392 -0.495963 2.2377 0
M  V30 1868 C 173.405 -1.03517 1.25651 0
M  V30 1869 O 174.594 -0.939249 1.51791 0
M  V30 1870 C 171.694 -1.69894 2.93239 0
M  V30 1871 C 170.867 -1.2889 4.17979 0
M  V30 1872 C 169.926 -2.35543 4.70538 0
M  V30 1873 O 168.952 -1.97375 5.33883 0
M  V30 1874 N 170.154 -3.67318 4.49508 0
M  V30 1875 H 172.919 0.110523 2.99496 0
M  V30 1876 H 170.48 0.204878 1.60598 0
M  V30 1877 H 172.472 -2.40747 3.25304 0
M  V30 1878 H 171.042 -2.212 2.20883 0
M  V30 1879 H 170.262 -0.409676 3.92065 0
M  V30 1880 H 171.55 -0.991443 4.99047 0
M  V30 1881 H 170.948 -4.01095 3.98923 0
M  V30 1882 H 169.505 -4.34235 4.8609 0
M  V30 1883 N 172.938 -1.57226 0.108567 0
M  V30 1884 C 174.354 -1.5766 -0.248058 0
M  V30 1885 C 174.554 -1.12063 -1.67464 0
M  V30 1886 O 173.61 -0.803236 -2.39383 0
M  V30 1887 C 174.923 -3.0069 -0.0242287 0
M  V30 1888 C 176.471 -3.12868 -0.0909372 0
M  V30 1889 C 176.946 -4.57879 0.105067 0
M  V30 1890 N 178.437 -4.63172 0.0506846 0
M  V30 1891 C 179.172 -5.73126 0.177396 0
M  V30 1892 N 178.668 -6.91866 0.359696 0
M  V30 1893 N 180.461 -5.61977 0.117709 0
M  V30 1894 H 172.612 -1.85169 1.04049 0
M  V30 1895 H 174.875 -0.85529 0.40888 0
M  V30 1896 H 174.581 -3.38299 0.961604 0
M  V30 1897 H 174.455 -3.6945 -0.76068 0
M  V30 1898 H 176.842 -2.75124 -1.06729 0
M  V30 1899 H 176.923 -2.46672 0.677225 0
M  V30 1900 H 176.567 -4.96321 1.07834 0
M  V30 1901 H 176.497 -5.22153 -0.682954 0
M  V30 1902 H 178.988 -3.778 -0.0871266 0
M  V30 1903 H 179.301 -7.71503 0.447529 0
M  V30 1904 H 177.646 -6.93874 0.395536 0
M  V30 1905 H 180.837 -4.68094 -0.0236741 0
M  V30 1906 H 181.01 -6.47627 0.219905 0
M  V30 1907 N 174.416 0.165178 -1.56732 0
M  V30 1908 C 175.346 1.20651 -1.99914 0
M  V30 1909 C 176.327 1.45827 -0.875705 0
M  V30 1910 O 177.512 1.57057 -1.14223 0
M  V30 1911 C 174.642 2.54401 -2.36427 0
M  V30 1912 C 173.596 2.43782 -3.51787 0
M  V30 1913 C 172.922 3.82078 -3.7406 0
M  V30 1914 C 174.222 1.93732 -4.85041 0
M  V30 1915 H 175.916 0.847534 -2.87154 0
M  V30 1916 H 173.462 0.40625 -1.38151 0
M  V30 1917 H 175.415 3.27458 -2.65234 0
M  V30 1918 H 174.139 2.92098 -1.46103 0
M  V30 1919 H 172.798 1.73178 -3.23117 0
M  V30 1920 H 172.446 4.17179 -2.81017 0
M  V30 1921 H 172.146 3.7584 -4.51684 0
M  V30 1922 H 173.67 4.56712 -4.05274 0
M  V30 1923 H 175.084 2.56569 -5.12684 0
M  V30 1924 H 173.481 1.98428 -5.66345 0
M  V30 1925 H 174.551 0.891962 -4.76626 0
M  V30 1926 N 175.894 1.51508 0.433938 0
M  V30 1927 C 177.143 1.63578 1.18005 0
M  V30 1928 C 177.456 0.359514 1.92268 0
M  V30 1929 O 178.662 0.359632 2.69108 0
M  V30 1930 C 177.118 2.88901 2.14626 0
M  V30 1931 C 176.726 4.23544 1.45995 0
M  V30 1932 C 178.47 3.10328 2.89649 0
M  V30 1933 C 176.377 5.40014 2.4112 0
M  V30 1934 H 175.307 0.609277 0.444182 0
M  V30 1935 H 177.958 1.77978 0.446773 0
M  V30 1936 H 176.34 2.68142 2.91403 0
M  V30 1937 H 177.514 4.54696 0.747532 0
M  V30 1938 H 175.829 4.08021 0.831115 0
M  V30 1939 H 178.426 3.94518 3.60915 0
M  V30 1940 H 178.769 2.23544 3.51189 0
M  V30 1941 H 179.302 3.31443 2.19978 0
M  V30 1942 H 176.041 6.29068 1.84264 0
M  V30 1943 H 175.561 5.13233 3.10406 0
M  V30 1944 H 177.24 5.72099 3.02177 0
M  V30 1945 N 177.372 -0.689602 1.41712 0
M  V30 1946 C 178.619 -1.44966 1.4139 0
M  V30 1947 C 178.947 -1.94484 0.025105 0
M  V30 1948 O 178.202 -1.70307 -0.964048 0
M  V30 1949 C 178.501 -2.67298 2.37247 0
M  V30 1950 C 178.167 -2.36405 3.83958 0
M  V30 1951 C 176.829 -2.27691 4.23923 0
M  V30 1952 C 179.181 -2.11043 4.76561 0
M  V30 1953 C 176.509 -1.91719 5.54492 0
M  V30 1954 C 178.861 -1.76578 6.07456 0
M  V30 1955 C 177.525 -1.66363 6.46436 0
M  V30 1956 H 176.795 -0.53047 0.517381 0
M  V30 1957 H 179.442 -0.787655 1.74552 0
M  V30 1958 H 177.747 -3.38461 1.9736 0
M  V30 1959 H 179.444 -3.25452 2.34269 0
M  V30 1960 H 176.034 -2.44085 3.52308 0
M  V30 1961 H 180.218 -2.16717 4.46483 0
M  V30 1962 H 175.474 -1.82367 5.83568 0
M  V30 1963 H 179.648 -1.55974 6.78708 0
M  V30 1964 H 177.275 -1.38258 7.47522 0
M  V30 1965 N 178.85 -1.27639 -0.924453 0
M  V30 1966 C 179.813 -1.10681 -2.00705 0
M  V30 1967 C 180.813 -0.0497823 -1.60723 0
M  V30 1968 O 182.003 -0.294654 -1.7169 0
M  V30 1969 C 179.135 -0.687164 -3.33902 0
M  V30 1970 H 180.328 -2.06817 -2.17179 0
M  V30 1971 H 177.881 -1.10473 -1.10569 0
M  V30 1972 H 178.616 0.275439 -3.23128 0
M  V30 1973 H 178.401 -1.45061 -3.6428 0
M  V30 1974 H 179.891 -0.590853 -4.13399 0
M  V30 1975 N 180.328 1.1314 -1.09713 0
M  V30 1976 C 181.576 1.84119 -0.833338 0
M  V30 1977 C 181.897 1.84097 0.642904 0
M  V30 1978 O 181.167 1.29881 1.46655 0
M  V30 1979 H 179.747 0.681766 -0.305293 0
M  V30 1980 H 182.409 1.37038 -1.38588 0
M  V30 1981 H 181.505 2.88543 -1.18951 0
M  V30 1982 N 181.806 0.884767 1.30421 0
M  V30 1983 C 182.753 0.349642 2.28136 0
M  V30 1984 C 183.723 -0.560061 1.56373 0
M  V30 1985 O 184.908 -0.488524 1.8444 0
M  V30 1986 C 182.048 -0.42999 3.42411 0
M  V30 1987 C 181.161 0.508907 4.28992 0
M  V30 1988 C 180.296 -0.286301 5.30428 0
M  V30 1989 C 179.335 0.648079 6.08659 0
M  V30 1990 N 178.472 -0.111792 7.02011 0
M  V30 1991 H 183.312 1.18807 2.73293 0
M  V30 1992 H 180.849 0.597231 1.3443 0
M  V30 1993 H 182.807 -0.897923 4.07423 0
M  V30 1994 H 181.437 -1.23299 2.98324 0
M  V30 1995 H 180.489 1.09533 3.64289 0
M  V30 1996 H 181.801 1.22475 4.8353 0
M  V30 1997 H 180.955 -0.816098 6.01186 0
M  V30 1998 H 179.694 -1.03536 4.76583 0
M  V30 1999 H 178.699 1.18951 5.36778 0
M  V30 2000 H 179.924 1.39623 6.64592 0
M  V30 2001 H 177.87 -0.843395 6.50556 0
M  V30 2002 H 177.787 0.544429 7.54037 0
M  V30 2003 H 179.055 -0.622339 7.77012 0
M  V30 2004 N 183.284 -1.43765 0.645699 0
M  V30 2005 C 184.216 -2.29027 -0.0890605 0
M  V30 2006 C 185.229 -1.42093 -0.794563 0
M  V30 2007 O 186.418 -1.66104 -0.653575 0
M  V30 2008 C 183.518 -3.18831 -1.14891 0
M  V30 2009 C 182.691 -4.34261 -0.523043 0
M  V30 2010 C 181.75 -5.04994 -1.47878 0
M  V30 2011 O 180.776 -5.6052 -0.990277 0
M  V30 2012 N 181.978 -5.07795 -2.81291 0
M  V30 2013 H 184.743 -2.92727 0.64272 0
M  V30 2014 H 182.304 -1.54373 0.487924 0
M  V30 2015 H 184.296 -3.63015 -1.78892 0
M  V30 2016 H 182.866 -2.56782 -1.78275 0
M  V30 2017 H 182.086 -3.93088 0.295896 0
M  V30 2018 H 183.374 -5.08728 -0.0858147 0
M  V30 2019 H 182.772 -4.64042 -3.23546 0
M  V30 2020 H 181.329 -5.55721 -3.40614 0
M  V30 2021 N 184.763 -0.387143 -1.52771 0
M  V30 2022 C 185.693 0.440551 -2.29306 0
M  V30 2023 C 186.674 1.06535 -1.32606 0
M  V30 2024 O 187.859 1.07853 -1.61497 0
M  V30 2025 C 184.989 1.56919 -3.09829 0
M  V30 2026 C 183.943 1.07054 -4.14395 0
M  V30 2027 C 183.269 2.29109 -4.83129 0
M  V30 2028 C 184.569 0.140015 -5.22112 0
M  V30 2029 H 186.263 -0.198026 -2.98744 0
M  V30 2030 H 183.809 -0.09668 -1.43675 0
M  V30 2031 H 185.762 2.15503 -3.62128 0
M  V30 2032 H 184.486 2.23532 -2.3812 0
M  V30 2033 H 183.145 0.507247 -3.63074 0
M  V30 2034 H 182.793 2.94227 -4.0797 0
M  V30 2035 H 182.493 1.96406 -5.53804 0
M  V30 2036 H 184.017 2.88339 -5.38231 0
M  V30 2037 H 185.431 0.633978 -5.69784 0
M  V30 2038 H 183.828 -0.0971485 -6.00021 0
M  V30 2039 H 184.898 -0.811711 -4.78058 0
M  V30 2040 N 186.241 1.57166 -0.116904 0
M  V30 2041 C 187.151 2.18745 0.847812 0
M  V30 2042 C 188.167 1.163 1.29423 0
M  V30 2043 O 189.343 1.48761 1.35765 0
M  V30 2044 C 186.408 2.77307 2.0809 0
M  V30 2045 C 185.469 3.94781 1.68661 0
M  V30 2046 C 184.702 4.50541 2.86091 0
M  V30 2047 O 184.925 4.05202 4.01456 0
M  V30 2048 O 183.859 5.41256 2.63298 0
M  V30 2049 H 187.685 3.01632 0.353778 0
M  V30 2050 H 185.27 1.49005 0.108599 0
M  V30 2051 H 187.152 3.14647 2.80313 0
M  V30 2052 H 185.827 1.97452 2.56504 0
M  V30 2053 H 184.734 3.62214 0.935518 0
M  V30 2054 H 186.067 4.76065 1.24991 0
M  V30 2055 N 187.719 -0.156864 1.56817 0
M  V30 2056 C 188.996 -0.899244 1.73704 0
M  V30 2057 C 189.376 -1.99771 0.682254 0
M  V30 2058 O 188.724 -2.26515 -0.300522 0
M  V30 2059 C 188.934 -1.45075 3.17418 0
M  V30 2060 C 190.282 -1.91802 3.7881 0
M  V30 2061 O 191.306 -1.54838 3.20786 0
M  V30 2062 O 190.165 -2.5994 4.80722 0
M  V30 2063 H 187.259 -0.424267 0.709878 0
M  V30 2064 H 189.805 -0.143561 1.69092 0
M  V30 2065 H 188.577 -0.660846 3.85679 0
M  V30 2066 H 188.2 -2.27021 3.26416 0
M  V30 2067 N 189.197 -1.51736 -0.425897 0
M  V30 2068 C 190.445 -1.64644 -1.17204 0
M  V30 2069 C 190.766 -0.370486 -1.91448 0
M  V30 2070 O 190.036 0.614088 -1.86026 0
M  V30 2071 H 188.616 -0.606819 -0.435638 0
M  V30 2072 H 191.278 -1.88713 -0.487177 0
M  V30 2073 H 190.374 -2.47958 -1.89534 0
M  V30 2074 N 190.675 0.682077 -1.42076 0
M  V30 2075 C 192.091 0.994324 -1.24841 0
M  V30 2076 C 192.291 2.0096 -0.147389 0
M  V30 2077 O 191.347 2.47822 0.483782 0
M  V30 2078 C 192.66 1.50607 -2.60265 0
M  V30 2079 C 194.208 1.62421 -2.6756 0
M  V30 2080 C 194.683 2.16994 -4.03333 0
M  V30 2081 N 196.174 2.24337 -4.0525 0
M  V30 2082 C 196.909 2.67621 -5.07116 0
M  V30 2083 N 196.405 3.1041 -6.19368 0
M  V30 2084 N 198.198 2.67305 -4.94474 0
M  V30 2085 H 190.349 0.00973908 -2.12398 0
M  V30 2086 H 192.612 0.0668593 -0.945639 0
M  V30 2087 H 192.318 0.834583 -3.41654 0
M  V30 2088 H 192.192 2.48602 -2.83684 0
M  V30 2089 H 194.579 2.28678 -1.86521 0
M  V30 2090 H 194.66 0.629352 -2.47937 0
M  V30 2091 H 194.304 1.51349 -4.84826 0
M  V30 2092 H 194.234 3.17258 -4.20304 0
M  V30 2093 H 196.725 1.94158 -3.24209 0
M  V30 2094 H 197.038 3.42103 -6.92954 0
M  V30 2095 H 195.383 3.08286 -6.22884 0
M  V30 2096 H 198.574 2.33233 -4.05857 0
M  V30 2097 H 198.747 3.00718 -5.73997 0
M  V30 2098 N 192.153 1.28127 0.917671 0
M  V30 2099 C 193.381 1.17892 1.70026 0
M  V30 2100 C 193.796 -0.262958 1.8696 0
M  V30 2101 O 193.153 -1.17811 1.3938 0
M  V30 2102 C 193.204 1.86872 3.09453 0
M  V30 2103 O 192.925 3.25428 2.93306 0
M  V30 2104 C 194.426 1.8289 4.03815 0
M  V30 2105 H 191.646 0.40942 0.531617 0
M  V30 2106 H 194.19 1.69181 1.14883 0
M  V30 2107 H 192.345 1.39464 3.61426 0
M  V30 2108 H 192.759 3.59918 3.81523 0
M  V30 2109 H 194.233 2.35751 4.99125 0
M  V30 2110 H 194.71 0.800412 4.31845 0
M  V30 2111 H 195.316 2.29959 3.57769 0
M  V30 2112 N 193.631 -1.12557 1.10312 0
M  V30 2113 C 194.561 -2.20341 0.772798 0
M  V30 2114 C 195.542 -1.68198 -0.25365 0
M  V30 2115 O 196.727 -1.93831 -0.119699 0
M  V30 2116 C 193.857 -3.46709 0.202443 0
M  V30 2117 C 192.811 -4.11996 1.15943 0
M  V30 2118 C 192.137 -5.328 0.450345 0
M  V30 2119 C 193.437 -4.5828 2.50552 0
M  V30 2120 H 195.131 -2.48229 1.674 0
M  V30 2121 H 192.677 -1.19308 0.806326 0
M  V30 2122 H 194.63 -4.2138 -0.0407752 0
M  V30 2123 H 193.354 -3.18245 -0.734001 0
M  V30 2124 H 192.013 -3.39305 1.38808 0
M  V30 2125 H 191.661 -5.00602 -0.490531 0
M  V30 2126 H 191.361 -5.7743 1.08851 0
M  V30 2127 H 192.885 -6.10219 0.215642 0
M  V30 2128 H 194.299 -5.2433 2.31843 0
M  V30 2129 H 192.696 -5.13683 3.10242 0
M  V30 2130 H 193.766 -3.72329 3.10643 0
M  V30 2131 N 195.109 -0.891671 -1.2995 0
M  V30 2132 C 196.334 -0.527932 -2.00568 0
M  V30 2133 C 196.759 0.877969 -1.66353 0
M  V30 2134 O 196.117 1.58301 -0.883762 0
M  V30 2135 C 196.165 -0.717745 -3.53385 0
M  V30 2136 O 195.269 0.233376 -4.11739 0
M  V30 2137 H 194.61 -0.20722 -0.630837 0
M  V30 2138 H 197.14 -1.20105 -1.65638 0
M  V30 2139 H 197.15 -0.619307 -4.03272 0
M  V30 2140 H 195.825 -1.74276 -3.77625 0
M  V30 2141 H 194.402 0.0880706 -3.72796 0
M  V30 2142 N 196.587 1.43421 -0.653314 0
M  V30 2143 C 197.864 1.95361 -0.0966581 0
M  V30 2144 C 198.244 1.59461 1.38331 0
M  V30 2145 O 197.592 0.879777 2.10884 0
M  V30 2146 C 197.802 3.47311 -0.342988 0
M  V30 2147 C 199.15 4.23875 -0.24798 0
M  V30 2148 O 200.174 3.55133 -0.275553 0
M  V30 2149 O 199.033 5.4623 -0.171771 0
M  V30 2150 H 196.127 0.826945 0.00956291 0
M  V30 2151 H 198.673 1.5336 -0.726558 0
M  V30 2152 H 197.445 3.66569 -1.36906 0
M  V30 2153 H 197.068 3.9631 0.319975 0
M  V30 2154 N 198.065 0.39524 1.52563 0
M  V30 2155 C 199.295 -0.184675 2.05773 0
M  V30 2156 C 199.703 -1.40571 1.26635 0
M  V30 2157 O 199.046 -1.81105 0.30769 0
M  V30 2158 C 199.108 -0.613551 3.54226 0
M  V30 2159 C 198.772 0.49484 4.54313 0
M  V30 2160 C 199.769 1.3541 5.01956 0
M  V30 2161 C 197.454 0.663565 4.97898 0
M  V30 2162 C 199.448 2.36716 5.91814 0
M  V30 2163 C 197.135 1.67996 5.87555 0
M  V30 2164 C 198.133 2.53017 6.34406 0
M  V30 2165 O 197.821 3.52917 7.22291 0
M  V30 2166 H 197.553 -0.030077 0.675331 0
M  V30 2167 H 200.107 0.560708 1.97599 0
M  V30 2168 H 198.337 -1.411 3.60038 0
M  V30 2169 H 200.026 -1.11981 3.90148 0
M  V30 2170 H 200.792 1.23509 4.6901 0
M  V30 2171 H 196.671 0.0114913 4.60999 0
M  V30 2172 H 200.215 3.03113 6.28306 0
M  V30 2173 H 196.112 1.79933 6.19915 0
M  V30 2174 H 196.88 3.48996 7.40367 0
M  V30 2175 N 199.544 -1.57102 0.125237 0
M  V30 2176 C 200.492 -2.16905 -0.839927 0
M  V30 2177 C 201.486 -1.11998 -1.27094 0
M  V30 2178 O 202.692 -1.3029 -1.24195 0
M  V30 2179 H 199.067 -0.694252 -0.288995 0
M  V30 2180 H 201.038 -2.96774 -0.311115 0
M  V30 2181 C 199.787 -2.78795 -2.07771 0
M  V30 2182 H 199.11 -3.59221 -1.755 0
M  V30 2183 H 200.55 -3.2417 -2.73295 0
M  V30 2184 C 199.009 -1.76193 -2.87155 0
M  V30 2185 O 199.539 -1.21909 -3.82755 0
M  V30 2186 N 197.745 -1.45991 -2.51267 0
M  V30 2187 H 197.292 -1.90325 -1.73592 0
M  V30 2188 H 197.25 -0.775844 -3.04677 0
M  V30 2189 N 201.022 0.148545 -1.56898 0
M  V30 2190 C 202.271 0.85984 -1.82454 0
M  V30 2191 C 202.584 1.82406 -0.706229 0
M  V30 2192 O 203.79 2.57938 -0.847349 0
M  V30 2193 C 202.246 1.57967 -3.2338 0
M  V30 2194 C 201.854 0.65794 -4.43142 0
M  V30 2195 C 203.598 2.27784 -3.58211 0
M  V30 2196 C 201.505 1.3793 -5.75091 0
M  V30 2197 H 200.435 0.324834 -0.68044 0
M  V30 2198 H 203.086 0.112588 -1.83154 0
M  V30 2199 H 201.468 2.37249 -3.17063 0
M  V30 2200 H 202.642 -0.0995497 -4.60692 0
M  V30 2201 H 200.957 0.0682643 -4.16344 0
M  V30 2202 H 203.554 2.8239 -4.54048 0
M  V30 2203 H 203.897 3.04204 -2.84193 0
M  V30 2204 H 204.43 1.55421 -3.66182 0
M  V30 2205 H 201.169 0.656982 -6.52199 0
M  V30 2206 H 200.689 2.10954 -5.61479 0
M  V30 2207 H 202.368 1.92063 -6.17835 0
M  V30 2208 N 202.5 1.5196 0.417844 0
M  V30 2209 C 203.432 1.70895 1.52733 0
M  V30 2210 C 204.445 0.589405 1.51756 0
M  V30 2211 O 205.634 0.864312 1.56179 0
M  V30 2212 C 202.734 1.72627 2.91639 0
M  V30 2213 C 201.907 3.01479 3.16905 0
M  V30 2214 C 200.966 2.95139 4.35637 0
M  V30 2215 O 199.992 3.69059 4.3334 0
M  V30 2216 N 201.194 2.12328 5.40275 0
M  V30 2217 H 203.959 2.66612 1.36888 0
M  V30 2218 H 201.52 1.50089 0.607037 0
M  V30 2219 H 203.512 1.65928 3.6912 0
M  V30 2220 H 202.082 0.844216 3.00985 0
M  V30 2221 H 201.302 3.21895 2.27546 0
M  V30 2222 H 202.59 3.86736 3.30625 0
M  V30 2223 H 201.988 1.51685 5.44985 0
M  V30 2224 H 200.545 2.11494 6.16534 0
M  V30 2225 N 203.978 -0.674533 1.42435 0
M  V30 2226 C 204.925 -1.78807 1.45934 0
M  V30 2227 C 205.895 -1.63157 0.311271 0
M  V30 2228 O 207.08 -1.83707 0.515383 0
M  V30 2229 C 204.22 -3.16839 1.36773 0
M  V30 2230 C 203.333 -3.43774 2.61617 0
M  V30 2231 C 202.468 -4.71536 2.44597 0
M  V30 2232 C 201.507 -4.91505 3.64814 0
M  V30 2233 N 200.644 -6.10508 3.46734 0
M  V30 2234 H 205.484 -1.75151 2.41093 0
M  V30 2235 H 203.021 -0.85504 1.19697 0
M  V30 2236 H 204.979 -3.96606 1.29459 0
M  V30 2237 H 203.609 -3.19619 0.452089 0
M  V30 2238 H 202.661 -2.58259 2.79297 0
M  V30 2239 H 203.973 -3.54423 3.50978 0
M  V30 2240 H 203.127 -5.59393 2.3487 0
M  V30 2241 H 201.866 -4.6317 1.52726 0
M  V30 2242 H 200.871 -4.0209 3.74972 0
M  V30 2243 H 202.096 -5.01716 4.57665 0
M  V30 2244 H 200.042 -6.03315 2.5758 0
M  V30 2245 H 199.959 -6.2202 4.29682 0
M  V30 2246 H 201.227 -7.01044 3.40819 0
M  V30 2247 N 205.456 -1.28612 -0.910864 0
M  V30 2248 C 206.366 -1.14643 -2.0468 0
M  V30 2249 C 207.382 -0.0723121 -1.7385 0
M  V30 2250 O 208.558 -0.282178 -1.99413 0
M  V30 2251 C 205.623 -0.812561 -3.37044 0
M  V30 2252 C 204.684 -1.96935 -3.81465 0
M  V30 2253 C 203.917 -1.65131 -5.07511 0
M  V30 2254 O 204.14 -0.567013 -5.67575 0
M  V30 2255 O 203.074 -2.49585 -5.47714 0
M  V30 2256 H 206.9 -2.1001 -2.19384 0
M  V30 2257 H 204.485 -1.07958 -1.03274 0
M  V30 2258 H 206.367 -0.640441 -4.16505 0
M  V30 2259 H 205.042 0.111426 -3.23508 0
M  V30 2260 H 203.949 -2.19664 -3.02818 0
M  V30 2261 H 205.282 -2.87414 -3.99567 0
M  V30 2262 N 206.934 1.1197 -1.10907 0
M  V30 2263 C 208.159 1.87942 -0.877064 0
M  V30 2264 C 208.584 1.79341 0.567314 0
M  V30 2265 O 207.942 1.15184 1.40009 0
M  V30 2266 C 207.99 3.34926 -1.33629 0
M  V30 2267 O 207.094 4.09303 -0.504447 0
M  V30 2268 H 206.435 0.583785 -0.316371 0
M  V30 2269 H 208.965 1.4157 -1.47712 0
M  V30 2270 H 208.975 3.8577 -1.32837 0
M  V30 2271 H 207.65 3.40504 -2.3881 0
M  V30 2272 H 206.227 3.68393 -0.577993 0
M  V30 2273 N 208.412 0.89855 1.29475 0
M  V30 2274 C 209.64 0.539261 1.99749 0
M  V30 2275 C 210.055 -0.875716 1.67262 0
M  V30 2276 O 209.412 -1.57786 0.917049 0
M  V30 2277 C 209.463 0.72061 3.54245 0
M  V30 2278 O 209.184 2.07989 3.8558 0
M  V30 2279 C 210.685 0.366118 4.41786 0
M  V30 2280 H 207.905 0.207047 0.638258 0
M  V30 2281 H 210.449 1.20758 1.65039 0
M  V30 2282 H 208.604 0.0994862 3.87272 0
M  V30 2283 H 209.018 2.10841 4.80257 0
M  V30 2284 H 210.492 0.543848 5.49314 0
M  V30 2285 H 210.969 -0.696763 4.33638 0
M  V30 2286 H 211.575 0.964135 4.14228 0
M  V30 2287 N 209.89 -1.43072 0.660911 0
M  V30 2288 C 210.82 -2.33497 -0.0122829 0
M  V30 2289 C 211.801 -1.49903 -0.803925 0
M  V30 2290 O 212.986 -1.78546 -0.763864 0
M  V30 2291 C 210.116 -3.33363 -0.973994 0
M  V30 2292 C 209.07 -4.27003 -0.291928 0
M  V30 2293 C 208.396 -5.16967 -1.36562 0
M  V30 2294 C 209.696 -5.15816 0.820462 0
M  V30 2295 H 211.39 -2.90038 0.742873 0
M  V30 2296 H 208.936 -1.39461 0.358688 0
M  V30 2297 H 210.889 -3.95524 -1.45392 0
M  V30 2298 H 209.613 -2.75095 -1.7604 0
M  V30 2299 H 208.272 -3.66217 0.167623 0
M  V30 2300 H 207.92 -4.55034 -2.14366 0
M  V30 2301 H 207.62 -5.80441 -0.914454 0
M  V30 2302 H 209.144 -5.82003 -1.84675 0
M  V30 2303 H 210.558 -5.71742 0.422366 0
M  V30 2304 H 208.955 -5.8805 1.19656 0
M  V30 2305 H 210.025 -4.55045 1.67518 0
M  V30 2306 N 211.368 -0.403325 -1.52352 0
M  V30 2307 C 212.318 0.442244 -2.2367 0
M  V30 2308 C 213.302 1.01823 -1.24583 0
M  V30 2309 O 214.494 0.942005 -1.49851 0
M  V30 2310 C 211.623 1.5615 -3.05732 0
M  V30 2311 C 210.709 0.996575 -4.12225 0
M  V30 2312 N 211.1 0.157804 -5.05554 0
M  V30 2313 C 209.398 1.26767 -4.27605 0
M  V30 2314 C 210.099 -0.155853 -5.81491 0
M  V30 2315 N 209.075 0.451775 -5.41719 0
M  V30 2316 H 212.877 -0.204964 -2.93184 0
M  V30 2317 H 210.391 -0.213418 -1.60992 0
M  V30 2318 H 212.388 2.17981 -3.55373 0
M  V30 2319 H 211.048 2.21139 -2.37755 0
M  V30 2320 H 212.059 -0.206049 -5.1749 0
M  V30 2321 H 208.736 1.91757 -3.70858 0
M  V30 2322 H 210.126 -0.836329 -6.66675 0
M  V30 2323 N 212.846 1.57033 -0.133567 0
M  V30 2324 C 213.776 2.1909 0.807567 0
M  V30 2325 C 214.757 1.13517 1.26681 0
M  V30 2326 O 215.942 1.41809 1.32679 0
M  V30 2327 C 213.072 2.80188 2.05212 0
M  V30 2328 C 212.026 3.91471 1.73015 0
M  V30 2329 C 211.352 4.39443 3.04622 0
M  V30 2330 C 212.652 5.12886 0.987168 0
M  V30 2331 H 214.346 2.97988 0.290403 0
M  V30 2332 H 211.892 1.43335 0.138239 0
M  V30 2333 H 213.845 3.22264 2.71521 0
M  V30 2334 H 212.569 1.98601 2.59278 0
M  V30 2335 H 211.228 3.49993 1.0909 0
M  V30 2336 H 210.876 3.54695 3.56651 0
M  V30 2337 H 210.576 5.14495 2.83847 0
M  V30 2338 H 212.1 4.8418 3.72024 0
M  V30 2339 H 213.514 5.51891 1.55208 0
M  V30 2340 H 211.911 5.93615 0.87985 0
M  V30 2341 H 212.981 4.84894 -0.0235286 0
M  V30 2342 N 214.325 -0.140222 1.56975 0
M  V30 2343 C 215.571 -0.852949 1.83991 0
M  V30 2344 C 215.904 -1.80512 0.716187 0
M  V30 2345 O 215.179 -1.92479 -0.279681 0
M  V30 2346 C 215.462 -1.6215 3.21527 0
M  V30 2347 C 215.315 -0.690363 4.4447 0
M  V30 2348 C 216.634 -2.58247 3.56366 0
M  V30 2349 H 213.753 -0.308634 0.669264 0
M  V30 2350 H 216.395 -0.117898 1.89634 0
M  V30 2351 H 214.545 -2.24812 3.16847 0
M  V30 2352 H 216.217 -0.0742264 4.6124 0
M  V30 2353 H 214.46 -0.000396433 4.338 0
M  V30 2354 H 215.131 -1.2643 5.37326 0
M  V30 2355 H 217.607 -2.05701 3.61699 0
M  V30 2356 H 216.483 -3.09067 4.53617 0
M  V30 2357 H 216.744 -3.39923 2.82674 0
M  V30 2358 N 215.803 -1.52179 -0.40978 0
M  V30 2359 C 216.733 -1.78435 -1.5061 0
M  V30 2360 C 217.714 -0.635295 -1.57791 0
M  V30 2361 O 218.899 -0.880823 -1.73076 0
M  V30 2362 C 216.029 -1.93444 -2.88439 0
M  V30 2363 C 214.983 -3.09038 -2.96108 0
M  V30 2364 C 214.309 -3.09268 -4.36185 0
M  V30 2365 C 215.609 -4.48508 -2.67652 0
M  V30 2366 H 217.303 -2.70237 -1.28889 0
M  V30 2367 H 214.849 -1.30036 -0.618605 0
M  V30 2368 H 216.802 -2.10394 -3.65119 0
M  V30 2369 H 215.526 -0.983129 -3.11452 0
M  V30 2370 H 214.185 -2.91837 -2.21872 0
M  V30 2371 H 213.833 -2.11861 -4.56206 0
M  V30 2372 H 213.533 -3.86907 -4.42241 0
M  V30 2373 H 215.057 -3.28348 -5.14801 0
M  V30 2374 H 216.471 -4.65918 -3.34056 0
M  V30 2375 H 214.868 -5.28059 -2.85085 0
M  V30 2376 H 215.938 -4.56649 -1.63095 0
M  V30 2377 N 217.281 0.66697 -1.42791 0
M  V30 2378 C 218.697 0.981027 -1.25889 0
M  V30 2379 C 218.897 2.00793 -0.168695 0
M  V30 2380 O 217.953 2.48321 0.45747 0
M  V30 2381 C 219.266 1.47838 -2.61848 0
M  V30 2382 C 220.814 1.59575 -2.69267 0
M  V30 2383 C 221.289 2.12704 -4.05612 0
M  V30 2384 N 222.78 2.20026 -4.07606 0
M  V30 2385 C 223.515 2.62227 -5.09926 0
M  V30 2386 N 223.011 3.03824 -6.22626 0
M  V30 2387 N 224.804 2.62045 -4.97281 0
M  V30 2388 H 216.955 -0.0127891 -2.12396 0
M  V30 2389 H 219.218 0.0568258 -0.946295 0
M  V30 2390 H 218.924 0.798299 -3.4252 0
M  V30 2391 H 218.798 2.45579 -2.86305 0
M  V30 2392 H 221.185 2.26687 -1.88936 0
M  V30 2393 H 221.266 0.60302 -2.48591 0
M  V30 2394 H 220.91 1.46198 -4.86404 0
M  V30 2395 H 220.84 3.12782 -4.23645 0
M  V30 2396 H 223.331 1.90708 -3.2625 0
M  V30 2397 H 223.644 3.34734 -6.96544 0
M  V30 2398 H 221.989 3.01662 -6.26119 0
M  V30 2399 H 225.18 2.28916 -4.08308 0
M  V30 2400 H 225.353 2.94613 -5.77154 0
M  V30 2401 N 218.759 1.29093 0.90403 0
M  V30 2402 C 219.689 1.16401 2.02418 0
M  V30 2403 C 220.67 0.0593085 1.69997 0
M  V30 2404 O 221.855 0.238021 1.92736 0
M  V30 2405 C 218.985 0.835233 3.37107 0
M  V30 2406 C 217.939 1.89578 3.83724 0
M  V30 2407 C 217.265 1.42041 5.15489 0
M  V30 2408 C 218.565 3.30394 4.04521 0
M  V30 2409 H 220.259 2.10109 2.13295 0
M  V30 2410 H 217.805 1.01157 1.02486 0
M  V30 2411 H 219.758 0.733169 4.14973 0
M  V30 2412 H 218.482 -0.137543 3.2631 0
M  V30 2413 H 217.141 1.98715 3.08071 0
M  V30 2414 H 216.789 0.436426 5.01103 0
M  V30 2415 H 216.489 2.12964 5.4765 0
M  V30 2416 H 218.013 1.33176 5.959 0
M  V30 2417 H 219.427 3.24123 4.72882 0
M  V30 2418 H 217.824 3.99237 4.48029 0
M  V30 2419 H 218.894 3.73692 3.09002 0
M  V30 2420 N 220.237 -1.11381 1.11499 0
M  V30 2421 C 221.653 -1.35143 0.849031 0
M  V30 2422 C 221.853 -1.94515 -0.525938 0
M  V30 2423 O 220.909 -2.1785 -1.27662 0
M  V30 2424 C 222.222 -2.28249 1.95762 0
M  V30 2425 C 223.77 -2.41812 1.98736 0
M  V30 2426 C 224.245 -3.3824 3.088 0
M  V30 2427 N 225.736 -3.45803 3.08179 0
M  V30 2428 C 226.471 -4.20358 3.89982 0
M  V30 2429 N 225.967 -4.97884 4.8175 0
M  V30 2430 N 227.76 -4.15877 3.78157 0
M  V30 2431 H 219.911 -0.712062 2.00109 0
M  V30 2432 H 222.174 -0.376025 0.870235 0
M  V30 2433 H 221.88 -1.91817 2.94787 0
M  V30 2434 H 221.754 -3.28473 1.85433 0
M  V30 2435 H 224.141 -2.77518 1.00338 0
M  V30 2436 H 224.222 -1.41437 2.13141 0
M  V30 2437 H 223.866 -3.03261 4.07425 0
M  V30 2438 H 223.796 -4.38471 2.91635 0
M  V30 2439 H 226.287 -2.90506 2.41691 0
M  V30 2440 H 226.6 -5.52142 5.40702 0
M  V30 2441 H 224.945 -4.97043 4.85771 0
M  V30 2442 H 228.136 -3.544 3.05808 0
M  V30 2443 H 228.309 -4.73723 4.42143 0
M  V30 2444 N 221.715 -0.905404 -1.28997 0
M  V30 2445 C 222.963 -0.533192 -1.9494 0
M  V30 2446 C 223.284 0.924618 -1.71685 0
M  V30 2447 O 222.554 1.65268 -1.05183 0
M  V30 2448 H 221.134 -0.194194 -0.721317 0
M  V30 2449 H 223.796 -1.15294 -1.57141 0
M  V30 2450 H 222.892 -0.72059 -3.03667 0
M  V30 2451 N 223.193 1.4272 -0.668489 0
M  V30 2452 C 224.441 2.01226 -0.187769 0
M  V30 2453 C 224.762 1.53092 1.2078 0
M  V30 2454 O 224.032 0.74993 1.80977 0
M  V30 2455 H 222.612 0.744041 -0.0664272 0
M  V30 2456 H 225.274 1.74723 -0.863583 0
M  V30 2457 H 224.37 3.11556 -0.184166 0
M  V30 2458 N 224.671 0.411399 1.52136 0
M  V30 2459 C 225.604 -0.457614 2.23565 0
M  V30 2460 C 226.582 -1.04613 1.24478 0
M  V30 2461 O 227.766 -1.09356 1.53536 0
M  V30 2462 C 224.893 -1.6354 2.96602 0
M  V30 2463 C 223.939 -1.17005 4.10137 0
M  V30 2464 S 224.772 -0.13333 5.35334 0
M  V30 2465 C 225.928 -1.31638 6.119 0
M  V30 2466 H 226.161 0.148883 2.96927 0
M  V30 2467 H 223.694 0.195713 1.53155 0
M  V30 2468 H 225.652 -2.31074 3.39286 0
M  V30 2469 H 224.313 -2.21324 2.22878 0
M  V30 2470 H 223.506 -2.05005 4.60422 0
M  V30 2471 H 223.108 -0.573319 3.6958 0
M  V30 2472 H 225.4 -2.23957 6.39413 0
M  V30 2473 H 226.343 -0.854014 7.02931 0
M  V30 2474 H 226.751 -1.54321 5.42997 0
M  V30 2475 N 226.149 -1.5696 0.141893 0
M  V30 2476 C 227.081 -2.13619 -0.830627 0
M  V30 2477 C 228.094 -1.08439 -1.21428 0
M  V30 2478 O 229.283 -1.35734 -1.15925 0
M  V30 2479 C 226.383 -2.63978 -2.12529 0
M  V30 2480 C 225.556 -3.93504 -1.9098 0
M  V30 2481 C 224.615 -4.29225 -3.04388 0
M  V30 2482 O 223.641 -4.97641 -2.76302 0
M  V30 2483 N 224.843 -3.88393 -4.31429 0
M  V30 2484 H 227.608 -2.97691 -0.34641 0
M  V30 2485 H 225.169 -1.61846 -0.0418375 0
M  V30 2486 H 227.161 -2.84891 -2.87436 0
M  V30 2487 H 225.731 -1.84659 -2.52229 0
M  V30 2488 H 224.951 -3.81269 -1.00139 0
M  V30 2489 H 226.239 -4.78154 -1.73914 0
M  V30 2490 H 225.637 -3.33257 -4.57117 0
M  V30 2491 H 224.194 -4.14368 -5.03133 0
M  V30 2492 N 227.627 0.131896 -1.57047 0
M  V30 2493 C 228.876 0.84044 -1.83356 0
M  V30 2494 C 229.189 1.81646 -0.725535 0
M  V30 2495 O 230.395 2.57025 -0.874659 0
M  V30 2496 C 228.851 1.54528 -3.25037 0
M  V30 2497 C 228.459 0.610902 -4.43815 0
M  V30 2498 C 230.203 2.23972 -3.60606 0
M  V30 2499 C 228.11 1.31823 -5.76521 0
M  V30 2500 H 227.04 0.317599 -0.683847 0
M  V30 2501 H 229.691 0.0931561 -1.83263 0
M  V30 2502 H 228.073 2.33873 -3.19561 0
M  V30 2503 H 229.247 -0.148407 -4.60561 0
M  V30 2504 H 227.562 0.0241016 -4.16393 0
M  V30 2505 H 230.159 2.77558 -4.57018 0
M  V30 2506 H 230.502 3.01173 -2.87403 0
M  V30 2507 H 231.035 1.51529 -3.6781 0
M  V30 2508 H 227.774 0.587771 -6.52859 0
M  V30 2509 H 227.294 2.04987 -5.63685 0
M  V30 2510 H 228.973 1.855 -6.19838 0
M  V30 2511 N 229.106 1.52395 0.401703 0
M  V30 2512 C 230.353 1.66817 1.14796 0
M  V30 2513 C 230.681 0.401772 1.90305 0
M  V30 2514 O 229.936 -0.615487 1.85769 0
M  V30 2515 C 230.235 2.84578 2.16217 0
M  V30 2516 C 229.901 4.22513 1.5746 0
M  V30 2517 C 228.563 4.60029 1.41161 0
M  V30 2518 C 230.915 5.0844 1.14622 0
M  V30 2519 C 228.243 5.81144 0.80552 0
M  V30 2520 C 230.595 6.30167 0.55428 0
M  V30 2521 C 229.259 6.66426 0.378482 0
M  V30 2522 H 228.529 0.610428 0.420069 0
M  V30 2523 H 231.176 1.86512 0.434212 0
M  V30 2524 H 229.481 2.59248 2.93764 0
M  V30 2525 H 231.178 2.92933 2.73845 0
M  V30 2526 H 227.768 3.92953 1.71132 0
M  V30 2527 H 231.952 4.80034 1.26021 0
M  V30 2528 H 227.208 6.07855 0.657399 0
M  V30 2529 H 231.382 6.96071 0.213983 0
M  V30 2530 H 229.009 7.60143 -0.0932606 0
M  V30 2531 N 230.584 -0.659388 1.43143 0
M  V30 2532 C 231.83 -1.42145 1.44647 0
M  V30 2533 C 232.163 -1.9408 0.0681907 0
M  V30 2534 O 231.438 -1.71899 -0.910007 0
M  V30 2535 C 231.721 -2.60735 2.48373 0
M  V30 2536 C 231.574 -2.14332 3.95451 0
M  V30 2537 C 232.893 -3.62951 2.48906 0
M  V30 2538 H 230.012 -0.51552 0.526696 0
M  V30 2539 H 232.654 -0.748069 1.74654 0
M  V30 2540 H 230.804 -3.18184 2.22916 0
M  V30 2541 H 232.476 -1.61932 4.31944 0
M  V30 2542 H 230.719 -1.4576 4.08578 0
M  V30 2543 H 231.39 -2.99583 4.63631 0
M  V30 2544 H 233.866 -3.1525 2.71582 0
M  V30 2545 H 232.742 -4.43487 3.23435 0
M  V30 2546 H 233.003 -4.15126 1.52061 0
M  V30 2547 N 232.062 -1.29571 -0.897171 0
M  V30 2548 C 233.009 -1.14916 -2.00158 0
M  V30 2549 C 233.979 -0.0418149 -1.66047 0
M  V30 2550 O 235.164 -0.209793 -1.89643 0
M  V30 2551 C 232.304 -0.834307 -3.34863 0
M  V30 2552 C 231.417 -2.02234 -3.8174 0
M  V30 2553 C 230.552 -1.64664 -5.05034 0
M  V30 2554 C 229.591 -2.80033 -5.44286 0
M  V30 2555 N 228.728 -2.42843 -6.58765 0
M  V30 2556 H 233.568 -2.09403 -2.12025 0
M  V30 2557 H 231.105 -1.042 -1.0383 0
M  V30 2558 H 233.063 -0.632436 -4.12379 0
M  V30 2559 H 231.693 0.0736656 -3.22716 0
M  V30 2560 H 230.745 -2.33583 -3.00238 0
M  V30 2561 H 232.057 -2.88673 -4.06779 0
M  V30 2562 H 231.211 -1.4078 -5.9014 0
M  V30 2563 H 229.95 -0.753766 -4.8184 0
M  V30 2564 H 228.955 -3.04596 -4.57713 0
M  V30 2565 H 230.18 -3.69989 -5.6946 0
M  V30 2566 H 228.126 -1.56046 -6.3717 0
M  V30 2567 H 228.043 -3.22815 -6.83613 0
M  V30 2568 H 229.311 -2.22285 -7.47134 0
M  V30 2569 N 233.54 1.10788 -1.12088 0
M  V30 2570 C 234.768 1.86461 -0.896651 0
M  V30 2571 C 235.183 1.80492 0.553912 0
M  V30 2572 O 234.54 1.19102 1.38278 0
M  V30 2573 C 234.591 3.35006 -1.35843 0
M  V30 2574 O 234.312 3.40866 -2.75213 0
M  V30 2575 C 235.813 4.27565 -1.1706 0
M  V30 2576 H 233.033 0.589425 -0.320654 0
M  V30 2577 H 235.577 1.40076 -1.48993 0
M  V30 2578 H 233.732 3.7887 -0.808458 0
M  V30 2579 H 234.146 4.33411 -2.9539 0
M  V30 2580 H 235.62 5.30007 -1.54263 0
M  V30 2581 H 236.097 4.3906 -0.110814 0
M  V30 2582 H 236.703 3.89501 -1.70789 0
M  V30 2583 N 235.018 0.912232 1.28515 0
M  V30 2584 C 235.948 0.416403 2.29757 0
M  V30 2585 C 236.929 -0.515194 1.6211 0
M  V30 2586 O 238.114 -0.423253 1.89532 0
M  V30 2587 C 235.244 -0.34572 3.45575 0
M  V30 2588 C 234.198 0.496599 4.25109 0
M  V30 2589 C 233.524 -0.393771 5.33248 0
M  V30 2590 C 234.824 1.75307 4.92001 0
M  V30 2591 H 236.518 1.26249 2.7148 0
M  V30 2592 H 234.064 0.608515 1.30511 0
M  V30 2593 H 236.017 -0.703422 4.15488 0
M  V30 2594 H 234.741 -1.2257 3.02728 0
M  V30 2595 H 233.4 0.8368 3.56922 0
M  V30 2596 H 233.048 -1.27225 4.86644 0
M  V30 2597 H 232.748 0.166209 5.87365 0
M  V30 2598 H 234.272 -0.747389 6.06009 0
M  V30 2599 H 235.686 1.46437 5.54283 0
M  V30 2600 H 234.083 2.25534 5.56106 0
M  V30 2601 H 235.153 2.48176 4.16577 0
M  V30 2602 N 236.496 -1.42363 0.676048 0
M  V30 2603 C 237.724 -2.05859 0.207268 0
M  V30 2604 C 238.139 -1.50796 -1.13605 0
M  V30 2605 O 237.496 -0.648265 -1.70598 0
M  V30 2606 C 237.547 -3.61248 0.134975 0
M  V30 2607 O 237.268 -4.1427 1.42521 0
M  V30 2608 C 238.769 -4.41859 -0.357151 0
M  V30 2609 H 235.989 -0.663431 0.100503 0
M  V30 2610 H 238.533 -1.82479 0.923136 0
M  V30 2611 H 236.688 -3.83735 -0.531588 0
M  V30 2612 H 237.102 -5.0815 1.29939 0
M  V30 2613 H 238.576 -5.50847 -0.356641 0
M  V30 2614 H 239.053 -4.16536 -1.39264 0
M  V30 2615 H 239.659 -4.24392 0.27772 0
M  V30 2616 N 237.974 -0.419461 -1.51915 0
M  V30 2617 C 239.222 0.152637 -2.01523 0
M  V30 2618 C 239.543 1.44762 -1.30649 0
M  V30 2619 O 238.813 1.90997 -0.435535 0
M  V30 2620 H 237.393 0.0593966 -0.744635 0
M  V30 2621 H 240.055 -0.558073 -1.86739 0
M  V30 2622 H 239.151 0.341369 -3.10227 0
M  V30 2623 N 239.452 1.56882 -0.150215 0
M  V30 2624 C 240.399 2.16922 0.788244 0
M  V30 2625 C 241.369 1.10303 1.24187 0
M  V30 2626 O 242.554 1.38359 1.31383 0
M  V30 2627 C 239.694 2.79754 2.02068 0
M  V30 2628 C 238.807 4.00775 1.61257 0
M  V30 2629 C 237.942 4.51595 2.79705 0
M  V30 2630 C 236.981 5.65074 2.35282 0
M  V30 2631 N 236.118 6.10499 3.4675 0
M  V30 2632 H 240.958 2.96779 0.269444 0
M  V30 2633 H 238.495 1.46599 0.12128 0
M  V30 2634 H 240.453 3.14329 2.74323 0
M  V30 2635 H 239.083 2.02536 2.51354 0
M  V30 2636 H 238.135 3.72158 0.787553 0
M  V30 2637 H 239.447 4.82978 1.24633 0
M  V30 2638 H 238.601 4.88242 3.60145 0
M  V30 2639 H 237.34 3.68406 3.19576 0
M  V30 2640 H 236.345 5.28 1.53283 0
M  V30 2641 H 237.57 6.50052 1.96493 0
M  V30 2642 H 235.516 5.30243 3.86236 0
M  V30 2643 H 235.433 6.87637 3.14152 0
M  V30 2644 H 236.701 6.51791 4.27537 0
M  V30 2645 N 240.93 -0.123565 1.57115 0
M  V30 2646 C 242.158 -0.846461 1.88793 0
M  V30 2647 C 242.573 -1.73652 0.740976 0
M  V30 2648 O 241.93 -1.80207 -0.288393 0
M  V30 2649 C 241.981 -1.6837 3.19897 0
M  V30 2650 O 241.702 -0.829477 4.30176 0
M  V30 2651 C 243.203 -2.51214 3.65248 0
M  V30 2652 H 240.423 -0.243573 0.625231 0
M  V30 2653 H 242.967 -0.109324 2.04208 0
M  V30 2654 H 241.122 -2.37364 3.06165 0
M  V30 2655 H 241.536 -1.40651 5.0529 0
M  V30 2656 H 243.01 -3.05497 4.59756 0
M  V30 2657 H 243.487 -3.28359 2.9168 0
M  V30 2658 H 244.093 -1.8747 3.81752 0
M  V30 2659 N 242.408 -1.52605 -0.393616 0
M  V30 2660 C 243.657 -1.66649 -1.13627 0
M  V30 2661 C 243.97 -0.410364 -1.91247 0
M  V30 2662 O 245.176 -0.430854 -2.68059 0
M  V30 2663 C 243.632 -2.9449 -2.06891 0
M  V30 2664 C 243.24 -4.27266 -1.34714 0
M  V30 2665 C 244.984 -3.17899 -2.81319 0
M  V30 2666 C 242.891 -5.46217 -2.26717 0
M  V30 2667 H 241.821 -0.62084 -0.427871 0
M  V30 2668 H 244.472 -1.791 -0.399428 0
M  V30 2669 H 242.854 -2.75774 -2.84191 0
M  V30 2670 H 244.028 -4.56518 -0.626714 0
M  V30 2671 H 242.343 -4.10081 -0.722643 0
M  V30 2672 H 244.94 -4.03949 -3.50328 0
M  V30 2673 H 245.283 -2.32777 -3.45139 0
M  V30 2674 H 245.816 -3.37159 -2.11113 0
M  V30 2675 H 242.555 -6.33733 -1.67521 0
M  V30 2676 H 242.075 -5.21283 -2.96689 0
M  V30 2677 H 243.754 -5.7991 -2.86903 0
M  V30 2678 N 243.887 0.651787 -1.4349 0
M  V30 2679 C 245.115 1.43937 -1.48626 0
M  V30 2680 C 245.53 1.8851 -0.104587 0
M  V30 2681 O 244.887 1.5958 0.885464 0
M  V30 2682 C 244.938 2.6734 -2.43334 0
M  V30 2683 O 244.659 2.24631 -3.76128 0
M  V30 2684 C 246.16 3.60683 -2.57726 0
M  V30 2685 H 243.38 0.44213 -0.504739 0
M  V30 2686 H 245.924 0.798944 -1.88248 0
M  V30 2687 H 244.079 3.2752 -2.06904 0
M  V30 2688 H 244.493 3.04485 -4.2707 0
M  V30 2689 H 245.967 4.43933 -3.28067 0
M  V30 2690 H 246.444 4.08126 -1.62265 0
M  V30 2691 H 247.05 3.06384 -2.94973 0
M  V30 2692 N 245.365 1.30045 0.890287 0
M  V30 2693 C 246.295 1.18541 2.01172 0
M  V30 2694 C 247.276 0.0773356 1.69924 0
M  V30 2695 O 248.461 0.25845 1.92473 0
M  V30 2696 C 245.591 0.870941 3.36202 0
M  V30 2697 C 244.545 1.93637 3.81692 0
M  V30 2698 C 243.871 1.475 5.13953 0
M  V30 2699 C 245.171 3.34666 4.00994 0
M  V30 2700 H 246.865 2.12359 2.11054 0
M  V30 2701 H 244.411 1.02238 1.01407 0
M  V30 2702 H 246.364 0.777141 4.14172 0
M  V30 2703 H 245.088 -0.102926 3.26438 0
M  V30 2704 H 243.747 2.01972 3.05946 0
M  V30 2705 H 243.395 0.489551 5.00612 0
M  V30 2706 H 243.095 2.1876 5.4536 0
M  V30 2707 H 244.619 1.39489 5.94454 0
M  V30 2708 H 246.033 3.2912 4.69417 0
M  V30 2709 H 244.43 4.03966 4.43769 0
M  V30 2710 H 245.5 3.76949 3.05021 0
M  V30 2711 N 246.843 -1.10192 1.12674 0
M  V30 2712 C 247.753 -2.20172 0.810026 0
M  V30 2713 C 248.769 -1.72821 -0.202188 0
M  V30 2714 O 249.945 -2.01369 -0.0351691 0
M  V30 2715 C 247.01 -3.45631 0.272007 0
M  V30 2716 C 246.071 -4.07704 1.34447 0
M  V30 2717 C 245.304 -5.27175 0.832029 0
M  V30 2718 O 245.527 -5.69425 -0.333284 0
M  V30 2719 O 244.461 -5.80168 1.60277 0
M  V30 2720 H 248.287 -2.49701 1.72867 0
M  V30 2721 H 245.872 -1.18977 0.903597 0
M  V30 2722 H 247.754 -4.21394 -0.0230219 0
M  V30 2723 H 246.429 -3.17723 -0.619164 0
M  V30 2724 H 245.336 -3.33614 1.6927 0
M  V30 2725 H 246.669 -4.3982 2.2095 0
M  V30 2726 N 248.321 -0.919034 -1.28029 0
M  V30 2727 C 249.567 -0.555757 -1.95036 0
M  V30 2728 C 249.9 0.899198 -1.72128 0
M  V30 2729 O 249.175 1.64023 -1.04531 0
M  V30 2730 C 249.458 -0.872024 -3.49382 0
M  V30 2731 C 249.311 -2.3801 -3.81669 0
M  V30 2732 C 250.63 -0.37185 -4.38526 0
M  V30 2733 H 247.749 -0.203386 -0.708381 0
M  V30 2734 H 250.391 -1.14924 -1.51303 0
M  V30 2735 H 248.541 -0.366946 -3.86763 0
M  V30 2736 H 250.213 -2.9562 -3.54128 0
M  V30 2737 H 248.456 -2.83289 -3.28526 0
M  V30 2738 H 249.127 -2.55192 -4.8947 0
M  V30 2739 H 251.603 -0.804602 -4.08247 0
M  V30 2740 H 250.479 -0.622173 -5.45362 0
M  V30 2741 H 250.74 0.727934 -4.36066 0
M  V30 2742 N 249.799 1.42003 -0.683588 0
M  V30 2743 C 250.709 2.34597 -0.0109075 0
M  V30 2744 C 251.725 1.55576 0.779245 0
M  V30 2745 O 252.901 1.88107 0.719555 0
M  V30 2746 C 249.966 3.34199 0.922588 0
M  V30 2747 C 249.027 4.29115 0.125984 0
M  V30 2748 C 248.26 5.23959 1.01502 0
M  V30 2749 O 248.483 5.23952 2.25456 0
M  V30 2750 O 247.417 6.00053 0.47111 0
M  V30 2751 H 251.243 2.93675 -0.773853 0
M  V30 2752 H 248.828 1.42654 -0.443861 0
M  V30 2753 H 250.71 3.95365 1.45823 0
M  V30 2754 H 249.385 2.77582 1.66523 0
M  V30 2755 H 248.292 3.71335 -0.453969 0
M  V30 2756 H 249.625 4.88798 -0.577736 0
M  V30 2757 N 251.277 0.427512 1.51691 0
M  V30 2758 C 252.688 -0.0378867 1.86662 0
M  V30 2759 C 253.039 -1.42819 1.34525 0
M  V30 2760 O 252.164 -2.05037 0.692014 0
M  V30 2761 C 252.759 -0.0755266 3.38716 0
M  V30 2762 C 251.318 -0.485309 3.73258 0
M  V30 2763 C 250.465 0.328399 2.75349 0
M  V30 2764 H 253.416 0.64379 1.45055 0
M  V30 2765 H 253.437 -0.887056 3.70016 0
M  V30 2766 H 252.949 0.936487 3.76632 0
M  V30 2767 H 251.05 -1.50329 3.40928 0
M  V30 2768 H 251.163 -0.21693 4.78609 0
M  V30 2769 H 249.527 -0.211905 2.53817 0
M  V30 2770 H 250.31 1.3391 3.16106 0
M  V30 2771 N 252.755 -1.56801 0.158532 0
M  V30 2772 C 253.98 -2.01295 -0.499516 0
M  V30 2773 C 254.405 -1.03799 -1.56867 0
M  V30 2774 O 253.763 -0.0155162 -1.81293 0
M  V30 2775 C 253.811 -3.44469 -1.06647 0
M  V30 2776 O 252.915 -3.50012 -2.18095 0
M  V30 2777 H 252.256 -0.652884 -0.12099 0
M  V30 2778 H 254.786 -2.02958 0.258661 0
M  V30 2779 H 254.796 -3.8351 -1.39227 0
M  V30 2780 H 253.471 -4.14932 -0.283581 0
M  V30 2781 H 252.048 -3.22822 -1.86656 0
M  V30 2782 N 254.233 0.115231 -1.57178 0
M  V30 2783 C 255.51 0.852873 -1.76027 0
M  V30 2784 C 255.89 1.97892 -0.73498 0
M  V30 2785 O 255.238 2.27232 0.24036 0
M  V30 2786 C 255.448 1.36608 -3.21153 0
M  V30 2787 C 256.796 1.81692 -3.83762 0
M  V30 2788 O 257.82 1.46278 -3.24779 0
M  V30 2789 O 256.679 2.47104 -4.87444 0
M  V30 2790 H 253.773 0.405296 -0.720877 0
M  V30 2791 H 256.319 0.0986785 -1.69413 0
M  V30 2792 H 255.091 0.558357 -3.87296 0
M  V30 2793 H 254.714 2.18287 -3.3232 0
M  V30 2794 N 255.711 1.52812 0.385517 0
M  V30 2795 C 256.939 1.71907 1.15133 0
M  V30 2796 C 257.354 0.439004 1.83625 0
M  V30 2797 O 256.711 -0.586765 1.7281 0
M  V30 2798 C 256.762 2.87099 2.19673 0
M  V30 2799 O 256.483 4.10151 1.53973 0
M  V30 2800 C 257.984 3.17902 3.08955 0
M  V30 2801 H 255.204 0.575479 0.345057 0
M  V30 2802 H 257.748 1.99476 0.45052 0
M  V30 2803 H 255.903 2.61982 2.85384 0
M  V30 2804 H 256.317 4.74514 2.23465 0
M  V30 2805 H 257.791 4.01959 3.7833 0
M  V30 2806 H 258.268 2.3243 3.72657 0
M  V30 2807 H 258.874 3.44871 2.48885 0
M  V30 2808 N 257.189 -0.644168 1.43834 0
M  V30 2809 C 258.438 -1.39985 1.45214 0
M  V30 2810 C 258.751 -1.95421 0.0835494 0
M  V30 2811 O 259.957 -2.71488 -0.0251748 0
M  V30 2812 C 258.413 -2.53384 2.55587 0
M  V30 2813 C 258.021 -2.04517 3.98594 0
M  V30 2814 C 259.765 -3.30685 2.66172 0
M  V30 2815 C 257.672 -3.1518 5.00416 0
M  V30 2816 H 256.602 -0.526005 0.540218 0
M  V30 2817 H 259.253 -0.694367 1.69855 0
M  V30 2818 H 257.635 -3.26446 2.24163 0
M  V30 2819 H 258.809 -1.38405 4.39523 0
M  V30 2820 H 257.124 -1.40068 3.92135 0
M  V30 2821 H 259.721 -4.13158 3.39418 0
M  V30 2822 H 260.064 -3.79312 1.71546 0
M  V30 2823 H 260.597 -2.64708 2.96942 0
M  V30 2824 H 257.336 -2.71511 5.96625 0
M  V30 2825 H 256.856 -3.79974 4.64091 0
M  V30 2826 H 258.535 -3.80166 5.23529 0
M  V30 2827 N 258.668 -1.30515 -0.883378 0
M  V30 2828 C 259.578 -1.18959 -2.02203 0
M  V30 2829 C 260.594 -0.109172 -1.73657 0
M  V30 2830 O 261.77 -0.324413 -1.9877 0
M  V30 2831 C 258.835 -0.883871 -3.35244 0
M  V30 2832 C 257.896 -2.04982 -3.77201 0
M  V30 2833 C 257.129 -1.75859 -5.03894 0
M  V30 2834 O 257.352 -0.687276 -5.66244 0
M  V30 2835 O 256.286 -2.61146 -5.42297 0
M  V30 2836 H 260.112 -2.14616 -2.1488 0
M  V30 2837 H 257.697 -1.10124 -1.0096 0
M  V30 2838 H 259.579 -0.728644 -4.15053 0
M  V30 2839 H 258.254 0.0427798 -3.23672 0
M  V30 2840 H 257.161 -2.26038 -2.9809 0
M  V30 2841 H 258.494 -2.95825 -3.93381 0
M  V30 2842 N 260.146 1.09593 -1.13257 0
M  V30 2843 C 261.094 2.18271 -0.803783 0
M  V30 2844 C 262.088 1.68054 0.213148 0
M  V30 2845 O 263.294 1.79862 0.0704699 0
M  V30 2846 H 259.669 0.711949 -0.242143 0
M  V30 2847 H 261.64 2.43235 -1.72856 0
M  V30 2848 C 260.389 3.46536 -0.28424 0
M  V30 2849 H 259.712 3.85545 -1.05807 0
M  V30 2850 H 261.152 4.23899 -0.0925945 0
M  V30 2851 C 259.611 3.22036 0.989684 0
M  V30 2852 O 260.141 3.44509 2.06584 0
M  V30 2853 N 258.347 2.7565 0.920086 0
M  V30 2854 H 257.894 2.57562 0.0442019 0
M  V30 2855 H 257.852 2.59635 1.77306 0
M  V30 2856 N 261.624 0.925811 1.2754 0
M  V30 2857 C 262.87 0.566092 1.94739 0
M  V30 2858 C 263.203 -0.890057 1.72603 0
M  V30 2859 O 262.478 -1.63467 1.05399 0
M  V30 2860 C 262.761 0.89054 3.48915 0
M  V30 2861 C 262.614 2.4003 3.80402 0
M  V30 2862 C 263.933 0.395101 4.38323 0
M  V30 2863 H 261.052 0.20714 0.707292 0
M  V30 2864 H 263.694 1.15725 1.50691 0
M  V30 2865 H 261.844 0.387452 3.86563 0
M  V30 2866 H 263.516 2.97494 3.52555 0
M  V30 2867 H 261.759 2.85028 3.2702 0
M  V30 2868 H 262.43 2.57785 4.8811 0
M  V30 2869 H 264.906 0.826241 4.07814 0
M  V30 2870 H 263.782 0.651086 5.45025 0
M  V30 2871 H 264.043 -0.704798 4.36446 0
M  V30 2872 N 263.102 -1.41638 0.69111 0
M  V30 2873 C 264.049 -2.30789 0.0229705 0
M  V30 2874 C 265.019 -1.46863 -0.775911 0
M  V30 2875 O 266.204 -1.75661 -0.74485 0
M  V30 2876 C 263.344 -3.32868 -0.910666 0
M  V30 2877 C 262.457 -4.31875 -0.103874 0
M  V30 2878 C 261.592 -5.21024 -1.03475 0
M  V30 2879 C 260.631 -6.11702 -0.220598 0
M  V30 2880 N 259.768 -6.93349 -1.10504 0
M  V30 2881 H 264.608 -2.87366 0.788978 0
M  V30 2882 H 262.145 -1.41535 0.400794 0
M  V30 2883 H 264.103 -3.90596 -1.46597 0
M  V30 2884 H 262.733 -2.77851 -1.64312 0
M  V30 2885 H 261.785 -3.76131 0.568285 0
M  V30 2886 H 263.097 -4.96003 0.527504 0
M  V30 2887 H 262.251 -5.83565 -1.65943 0
M  V30 2888 H 260.99 -4.57112 -1.69999 0
M  V30 2889 H 259.995 -5.48215 0.417187 0
M  V30 2890 H 261.22 -6.77668 0.440784 0
M  V30 2891 H 259.166 -6.3205 -1.75638 0
M  V30 2892 H 259.083 -7.54146 -0.529125 0
M  V30 2893 H 260.351 -7.60362 -1.71667 0
M  V30 2894 N 264.58 -0.43555 -1.51462 0
M  V30 2895 C 265.543 0.365137 -2.26273 0
M  V30 2896 C 266.543 0.951227 -1.29647 0
M  V30 2897 O 267.733 0.825958 -1.53374 0
M  V30 2898 C 264.865 1.51645 -3.05314 0
M  V30 2899 H 266.058 -0.290474 -2.9849 0
M  V30 2900 H 263.611 -0.188676 -1.55157 0
M  V30 2901 H 264.346 2.20816 -2.3751 0
M  V30 2902 H 264.131 1.10238 -3.76284 0
M  V30 2903 H 265.621 2.08218 -3.61987 0
M  V30 2904 N 266.058 1.56714 -0.166846 0
M  V30 2905 C 267.005 2.17746 0.765193 0
M  V30 2906 C 267.975 1.11614 1.23011 0
M  V30 2907 O 269.16 1.39745 1.29908 0
M  V30 2908 C 266.3 2.81882 1.9909 0
M  V30 2909 C 265.413 4.02462 1.56997 0
M  V30 2910 C 264.548 4.54537 2.749 0
M  V30 2911 C 263.587 5.67538 2.29275 0
M  V30 2912 N 262.724 6.14142 3.40255 0
M  V30 2913 H 267.564 2.97048 0.237952 0
M  V30 2914 H 265.101 1.4672 0.105725 0
M  V30 2915 H 267.059 3.17221 2.70974 0
M  V30 2916 H 265.689 2.05191 2.49192 0
M  V30 2917 H 264.741 3.72973 0.748037 0
M  V30 2918 H 266.053 4.84273 1.19503 0
M  V30 2919 H 265.207 4.92035 3.54946 0
M  V30 2920 H 263.946 3.71774 3.1565 0
M  V30 2921 H 262.951 5.29597 1.47674 0
M  V30 2922 H 264.176 6.52099 1.89588 0
M  V30 2923 H 262.122 5.3431 3.8059 0
M  V30 2924 H 262.039 6.9093 3.06841 0
M  V30 2925 H 263.307 6.56289 4.206 0
M  V30 2926 N 267.536 -0.106894 1.57237 0
M  V30 2927 C 268.785 -0.811163 1.8467 0
M  V30 2928 C 269.098 -1.80469 0.754342 0
M  V30 2929 O 270.304 -2.55601 0.915439 0
M  V30 2930 C 268.76 -1.49337 3.27454 0
M  V30 2931 C 268.368 -0.540217 4.44731 0
M  V30 2932 C 270.112 -2.18206 3.64124 0
M  V30 2933 C 268.019 -1.22634 5.78545 0
M  V30 2934 H 266.949 -0.306679 0.688813 0
M  V30 2935 H 269.6 -0.0639887 1.83388 0
M  V30 2936 H 267.982 -2.2876 3.23241 0
M  V30 2937 H 269.156 0.221659 4.60267 0
M  V30 2938 H 267.471 0.042146 4.16379 0
M  V30 2939 H 270.068 -2.70253 4.61376 0
M  V30 2940 H 270.411 -2.96562 2.92158 0
M  V30 2941 H 270.944 -1.45658 3.70174 0
M  V30 2942 H 267.683 -0.483832 6.53712 0
M  V30 2943 H 267.203 -1.95993 5.66874 0
M  V30 2944 H 268.882 -1.75615 6.2271 0
M  V30 2945 N 269.014 -1.53014 -0.377408 0
M  V30 2946 C 269.946 -1.74884 -1.48149 0
M  V30 2947 C 270.959 -0.629433 -1.5014 0
M  V30 2948 O 272.148 -0.905416 -1.53833 0
M  V30 2949 C 269.248 -1.80299 -2.86959 0
M  V30 2950 C 268.421 -3.09776 -3.08801 0
M  V30 2951 C 267.48 -3.06586 -4.27658 0
M  V30 2952 O 266.506 -3.80419 -4.23403 0
M  V30 2953 N 267.708 -2.26578 -5.34455 0
M  V30 2954 H 270.473 -2.70147 -1.29771 0
M  V30 2955 H 268.034 -1.51646 -0.56703 0
M  V30 2956 H 270.026 -1.75657 -3.64591 0
M  V30 2957 H 268.596 -0.92372 -2.98641 0
M  V30 2958 H 267.816 -3.27815 -2.18931 0
M  V30 2959 H 269.104 -3.95366 -3.20255 0
M  V30 2960 H 268.502 -1.66081 -5.40771 0
M  V30 2961 H 267.059 -2.27766 -6.10709 0
M  V30 2962 N 270.492 0.636531 -1.44174 0
M  V30 2963 C 271.769 1.39463 -1.37148 0
M  V30 2964 C 272.149 2.11082 -0.027507 0
M  V30 2965 O 271.497 2.05954 0.989716 0
M  V30 2966 C 271.707 2.36552 -2.56601 0
M  V30 2967 C 273.055 3.00048 -3.00427 0
M  V30 2968 O 274.079 2.46878 -2.56767 0
M  V30 2969 O 272.938 3.96488 -3.76111 0
M  V30 2970 H 270.032 0.623903 -0.542839 0
M  V30 2971 H 272.578 0.662039 -1.56253 0
M  V30 2972 H 271.35 1.82692 -3.46034 0
M  V30 2973 H 270.973 3.17236 -2.39681 0
M  V30 2974 N 271.97 1.30982 0.876444 0
M  V30 2975 C 272.917 1.18085 1.98304 0
M  V30 2976 C 273.887 0.0682263 1.6596 0
M  V30 2977 O 275.072 0.239937 1.89285 0
M  V30 2978 C 272.212 0.887475 3.33493 0
M  V30 2979 C 271.325 2.08281 3.78475 0
M  V30 2980 C 270.46 1.72678 5.0235 0
M  V30 2981 C 269.499 2.88657 5.39762 0
M  V30 2982 N 268.636 2.53292 6.54819 0
M  V30 2983 H 273.476 2.1275 2.08666 0
M  V30 2984 H 271.013 1.05839 1.02159 0
M  V30 2985 H 272.971 0.697961 4.1132 0
M  V30 2986 H 271.601 -0.022315 3.22792 0
M  V30 2987 H 270.653 2.3833 2.96484 0
M  V30 2988 H 271.965 2.95108 4.02135 0
M  V30 2989 H 271.119 1.50151 5.87826 0
M  V30 2990 H 269.858 0.830327 4.8058 0
M  V30 2991 H 268.863 3.1184 4.52809 0
M  V30 2992 H 270.088 3.79002 5.63502 0
M  V30 2993 H 268.034 1.66163 6.34607 0
M  V30 2994 H 267.951 3.3365 6.7839 0
M  V30 2995 H 269.219 2.34143 7.43503 0
M  V30 2996 N 273.449 -1.08991 1.13837 0
M  V30 2997 C 274.359 -2.19301 0.833333 0
M  V30 2998 C 275.375 -1.73026 -0.183847 0
M  V30 2999 O 276.551 -2.01395 -0.0138092 0
M  V30 3000 C 273.616 -3.45323 0.308651 0
M  V30 3001 C 272.677 -4.06255 1.38764 0
M  V30 3002 C 271.91 -5.26262 0.887896 0
M  V30 3003 O 272.133 -5.69747 -0.27287 0
M  V30 3004 O 271.067 -5.78435 1.66421 0
M  V30 3005 H 274.893 -2.47854 1.75506 0
M  V30 3006 H 272.478 -1.18012 0.916166 0
M  V30 3007 H 274.36 -4.21394 0.0216739 0
M  V30 3008 H 273.035 -3.18362 -0.585431 0
M  V30 3009 H 271.942 -3.318 1.72799 0
M  V30 3010 H 273.275 -4.37452 2.25602 0
M  V30 3011 N 274.927 -0.932562 -1.27047 0
M  V30 3012 C 276.175 -0.574422 -1.93765 0
M  V30 3013 C 276.496 0.887993 -1.73608 0
M  V30 3014 O 275.766 1.62999 -1.08665 0
M  V30 3015 H 274.346 -0.209451 -0.717035 0
M  V30 3016 H 277.008 -1.18601 -1.5466 0
M  V30 3017 H 276.104 -0.784841 -3.02071 0
M  V30 3018 N 276.405 1.4127 -0.698611 0
M  V30 3019 C 277.654 2.00408 -0.227949 0
M  V30 3020 C 277.967 1.55981 1.18023 0
M  V30 3021 O 279.173 2.07699 1.74852 0
M  V30 3022 C 277.629 3.58129 -0.356636 0
M  V30 3023 C 277.237 4.11536 -1.77037 0
M  V30 3024 C 278.981 4.24466 0.0540969 0
M  V30 3025 C 276.888 5.61701 -1.85055 0
M  V30 3026 H 275.818 0.749586 -0.0814657 0
M  V30 3027 H 278.469 1.61713 -0.867249 0
M  V30 3028 H 276.851 3.94442 0.350965 0
M  V30 3029 H 278.025 3.86636 -2.50698 0
M  V30 3030 H 276.34 3.57736 -2.13105 0
M  V30 3031 H 278.937 5.34698 0.0146723 0
M  V30 3032 H 279.28 4.01687 1.09332 0
M  V30 3033 H 279.813 3.93198 -0.603337 0
M  V30 3034 H 276.552 5.89312 -2.8704 0
M  V30 3035 H 276.072 5.88519 -1.15783 0
M  V30 3036 H 277.751 6.26524 -1.61484 0
M  V30 3037 N 277.883 0.443576 1.51229 0
M  V30 3038 C 279.294 -0.0180867 1.86691 0
M  V30 3039 C 279.645 -1.41384 1.36033 0
M  V30 3040 O 278.77 -2.04291 0.713722 0
M  V30 3041 C 279.365 -0.039597 3.38777 0
M  V30 3042 C 277.924 -0.445692 3.73752 0
M  V30 3043 C 277.071 0.357584 2.74985 0
M  V30 3044 H 280.022 0.659138 1.44364 0
M  V30 3045 H 280.043 -0.847761 3.70936 0
M  V30 3046 H 279.555 0.976382 3.75617 0
M  V30 3047 H 277.656 -1.46704 3.42503 0
M  V30 3048 H 277.769 -0.166155 4.78812 0
M  V30 3049 H 276.133 -0.184973 2.54027 0
M  V30 3050 H 276.916 1.37256 3.14668 0
M  V30 3051 N 279.361 -1.56624 0.175154 0
M  V30 3052 C 280.772 -1.83561 -0.340916 0
M  V30 3053 C 281.123 -1.09511 -1.62794 0
M  V30 3054 O 280.248 -0.349389 -2.13561 0
M  V30 3055 C 280.843 -3.32979 -0.625313 0
M  V30 3056 C 279.402 -3.60399 -1.08581 0
M  V30 3057 C 278.549 -2.77024 -0.123722 0
M  V30 3058 H 281.5 -1.53593 0.399344 0
M  V30 3059 H 281.521 -3.50666 -1.47694 0
M  V30 3060 H 281.033 -3.86847 0.311575 0
M  V30 3061 H 279.134 -3.11945 -2.03767 0
M  V30 3062 H 279.247 -4.68711 -0.992317 0
M  V30 3063 H 277.611 -2.46993 -0.621821 0
M  V30 3064 H 278.394 -3.33674 0.807256 0
M  V30 3065 N 280.839 0.0985539 -1.57292 0
M  V30 3066 C 282.116 0.834155 -1.76921 0
M  V30 3067 C 282.496 1.97101 -0.755928 0
M  V30 3068 O 281.844 2.27474 0.216245 0
M  V30 3069 C 282.054 1.33194 -3.22584 0
M  V30 3070 C 283.402 1.77611 -3.85668 0
M  V30 3071 O 284.426 1.42825 -3.26312 0
M  V30 3072 O 283.285 2.4192 -4.90038 0
M  V30 3073 H 280.379 0.397628 -0.725135 0
M  V30 3074 H 282.925 0.0807044 -1.69508 0
M  V30 3075 H 281.697 0.517248 -3.87866 0
M  V30 3076 H 281.32 2.1475 -3.34616 0
M  V30 3077 N 282.317 1.53212 0.369288 0
M  V30 3078 C 283.249 1.75668 1.47219 0
M  V30 3079 C 284.262 0.637387 1.49804 0
M  V30 3080 O 285.451 0.913561 1.5335 0
M  V30 3081 C 282.551 1.81818 2.85999 0
M  V30 3082 C 281.724 3.11409 3.07153 0
M  V30 3083 C 280.783 3.08849 4.26026 0
M  V30 3084 O 279.809 3.82659 4.2138 0
M  V30 3085 N 281.011 2.29409 5.33246 0
M  V30 3086 H 283.776 2.70832 1.28337 0
M  V30 3087 H 281.337 1.51944 0.55898 0
M  V30 3088 H 283.329 1.77588 3.63655 0
M  V30 3089 H 281.899 0.939544 2.98146 0
M  V30 3090 H 281.119 3.28971 2.1719 0
M  V30 3091 H 282.407 3.97059 3.18154 0
M  V30 3092 H 281.805 1.68946 5.39883 0
M  V30 3093 H 280.362 2.31001 6.09493 0
M  V30 3094 N 283.795 -0.628877 1.44509 0
M  V30 3095 C 284.727 -1.754 1.47538 0
M  V30 3096 C 285.74 -1.58575 0.368506 0
M  V30 3097 O 286.929 -1.66847 0.634376 0
M  V30 3098 C 284.029 -3.1315 1.29577 0
M  V30 3099 C 283.202 -3.56413 2.53551 0
M  V30 3100 C 282.261 -4.7305 2.30457 0
M  V30 3101 O 281.287 -4.81247 3.03957 0
M  V30 3102 N 282.489 -5.64903 1.3366 0
M  V30 3103 H 285.254 -1.73272 2.44534 0
M  V30 3104 H 282.815 -0.813512 1.39977 0
M  V30 3105 H 284.807 -3.88902 1.11971 0
M  V30 3106 H 283.377 -3.09908 0.409371 0
M  V30 3107 H 282.597 -2.70847 2.86419 0
M  V30 3108 H 283.885 -3.82071 3.36005 0
M  V30 3109 H 283.283 -5.60975 0.729604 0
M  V30 3110 H 281.84 -6.40275 1.22032 0
M  V30 3111 N 285.273 -1.31445 -0.869486 0
M  V30 3112 C 286.689 -1.10113 -1.15531 0
M  V30 3113 C 286.889 0.128087 -2.01092 0
M  V30 3114 O 285.945 0.817276 -2.38908 0
M  V30 3115 C 287.258 -2.37291 -1.84698 0
M  V30 3116 C 288.806 -2.42906 -1.97397 0
M  V30 3117 C 289.281 -3.69967 -2.69979 0
M  V30 3118 N 290.772 -3.70864 -2.77514 0
M  V30 3119 C 291.507 -4.65875 -3.34287 0
M  V30 3120 N 291.003 -5.71242 -3.91988 0
M  V30 3121 N 292.796 -4.53394 -3.3225 0
M  V30 3122 H 284.947 -2.1028 -0.299347 0
M  V30 3123 H 287.21 -0.927683 -0.195214 0
M  V30 3124 H 286.916 -3.27078 -1.29278 0
M  V30 3125 H 286.79 -2.47125 -2.84972 0
M  V30 3126 H 289.177 -1.53588 -2.51982 0
M  V30 3127 H 289.258 -2.37036 -0.961643 0
M  V30 3128 H 288.902 -4.59652 -2.16062 0
M  V30 3129 H 288.832 -3.73103 -3.7162 0
M  V30 3130 H 291.323 -2.94697 -2.36563 0
M  V30 3131 H 291.636 -6.39817 -4.33421 0
M  V30 3132 H 289.981 -5.75015 -3.90362 0
M  V30 3133 H 293.172 -3.70252 -2.8641 0
M  V30 3134 H 293.345 -5.27617 -3.76197 0
M  V30 3135 N 286.751 1.08385 -1.14413 0
M  V30 3136 C 287.681 2.17321 -0.854044 0
M  V30 3137 C 288.662 1.69024 0.191049 0
M  V30 3138 O 289.847 1.94141 0.0476779 0
M  V30 3139 C 286.977 3.45719 -0.330983 0
M  V30 3140 C 285.931 4.07409 -1.31155 0
M  V30 3141 C 285.257 5.30762 -0.64778 0
M  V30 3142 C 286.557 4.48665 -2.67388 0
M  V30 3143 H 288.251 2.41845 -1.76498 0
M  V30 3144 H 285.797 1.16233 -0.850051 0
M  V30 3145 H 287.75 4.21241 -0.115645 0
M  V30 3146 H 286.474 3.2075 0.615381 0
M  V30 3147 H 285.133 3.33919 -1.51306 0
M  V30 3148 H 284.781 5.02078 0.304398 0
M  V30 3149 H 284.481 5.72992 -1.30207 0
M  V30 3150 H 286.005 6.08998 -0.441972 0
M  V30 3151 H 287.419 5.15364 -2.51143 0
M  V30 3152 H 285.816 5.01814 -3.29093 0
M  V30 3153 H 286.886 3.60543 -3.24248 0
M  V30 3154 N 288.23 0.939286 1.26551 0
M  V30 3155 C 289.479 0.581601 1.93133 0
M  V30 3156 C 289.792 -0.883224 1.74524 0
M  V30 3157 O 290.998 -1.3502 2.35546 0
M  V30 3158 C 289.454 0.989425 3.46032 0
M  V30 3159 C 289.062 2.47573 3.73379 0
M  V30 3160 C 290.806 0.703544 4.18629 0
M  V30 3161 C 288.713 2.82235 5.19709 0
M  V30 3162 H 287.643 0.213803 0.723052 0
M  V30 3163 H 290.294 1.14167 1.4366 0
M  V30 3164 H 288.676 0.357902 3.94379 0
M  V30 3165 H 289.85 3.15614 3.35744 0
M  V30 3166 H 288.165 2.73471 3.1401 0
M  V30 3167 H 290.762 0.938869 5.26393 0
M  V30 3168 H 291.105 -0.359639 4.14744 0
M  V30 3169 H 291.638 1.2947 3.76141 0
M  V30 3170 H 288.377 3.87509 5.28694 0
M  V30 3171 H 287.897 2.18854 5.58447 0
M  V30 3172 H 289.576 2.70599 5.87695 0
M  V30 3173 N 289.708 -1.40897 0.706093 0
M  V30 3174 C 290.955 -2.01054 0.241531 0
M  V30 3175 C 291.283 -1.55956 -1.16223 0
M  V30 3176 O 290.538 -0.766336 -1.80072 0
M  V30 3177 C 290.837 -3.5646 0.259099 0
M  V30 3178 C 290.503 -4.21106 1.61184 0
M  V30 3179 C 289.165 -4.38479 1.98216 0
M  V30 3180 C 291.517 -4.57256 2.50132 0
M  V30 3181 C 288.845 -4.89282 3.2376 0
M  V30 3182 C 291.197 -5.09454 3.7502 0
M  V30 3183 C 289.861 -5.25037 4.12181 0
M  V30 3184 H 289.131 -0.73571 0.0883825 0
M  V30 3185 H 291.778 -1.68645 0.907257 0
M  V30 3186 H 290.083 -3.88721 -0.490189 0
M  V30 3187 H 291.78 -4.00826 -0.11804 0
M  V30 3188 H 288.37 -4.07966 1.31384 0
M  V30 3189 H 292.554 -4.43479 2.228 0
M  V30 3190 H 287.81 -4.99531 3.52532 0
M  V30 3191 H 291.984 -5.36404 4.44121 0
M  V30 3192 H 289.611 -5.64164 5.09532 0
M  V30 3193 N 291.186 -0.45159 -1.50991 0
M  V30 3194 C 292.149 0.341117 -2.26647 0
M  V30 3195 C 293.149 0.937422 -1.30649 0
M  V30 3196 O 294.339 0.809644 -1.54241 0
M  V30 3197 C 291.471 1.48398 -3.06905 0
M  V30 3198 H 292.664 -0.322117 -2.98165 0
M  V30 3199 H 290.217 -0.205122 -1.54948 0
M  V30 3200 H 290.952 2.18284 -2.39838 0
M  V30 3201 H 290.737 1.06241 -3.77432 0
M  V30 3202 H 292.227 2.04367 -3.64176 0
M  V30 3203 N 292.664 1.56529 -0.183458 0
M  V30 3204 C 293.912 1.96855 0.457452 0
M  V30 3205 C 294.233 1.07104 1.62953 0
M  V30 3206 O 293.503 0.139887 1.954 0
M  V30 3207 H 292.083 0.72693 0.171992 0
M  V30 3208 H 294.745 1.93056 -0.267476 0
M  V30 3209 H 293.841 3.01423 0.809368 0
M  V30 3210 N 294.142 -0.090211 1.57342 0
M  V30 3211 C 295.089 -1.10909 2.02405 0
M  V30 3212 C 296.059 -1.39523 0.901252 0
M  V30 3213 O 297.244 -1.50903 1.1676 0
M  V30 3214 C 294.384 -2.42277 2.45755 0
M  V30 3215 C 293.497 -2.20352 3.71576 0
M  V30 3216 C 292.632 -3.45154 4.03785 0
M  V30 3217 C 291.671 -3.18512 5.22701 0
M  V30 3218 N 290.808 -4.35593 5.50639 0
M  V30 3219 H 295.648 -0.71782 2.89225 0
M  V30 3220 H 293.185 -0.342901 1.43048 0
M  V30 3221 H 295.143 -3.18951 2.68935 0
M  V30 3222 H 293.773 -2.79242 1.61938 0
M  V30 3223 H 292.825 -1.34458 3.55844 0
M  V30 3224 H 294.137 -1.96661 4.58395 0
M  V30 3225 H 293.291 -4.30233 4.27767 0
M  V30 3226 H 292.03 -3.71904 3.15498 0
M  V30 3227 H 291.035 -2.31827 4.98534 0
M  V30 3228 H 292.26 -2.93103 6.12591 0
M  V30 3229 H 290.206 -4.6241 4.6531 0
M  V30 3230 H 290.123 -4.1511 6.31838 0
M  V30 3231 H 291.391 -5.21723 5.7916 0
M  V30 3232 N 295.62 -1.53406 -0.361157 0
M  V30 3233 C 296.552 -1.76446 -1.46286 0
M  V30 3234 C 297.565 -0.645322 -1.49464 0
M  V30 3235 O 298.754 -0.921681 -1.52864 0
M  V30 3236 C 295.854 -1.83332 -2.85031 0
M  V30 3237 C 295.027 -3.13033 -3.05498 0
M  V30 3238 C 294.086 -3.11104 -4.24383 0
M  V30 3239 O 293.112 -3.84888 -4.19344 0
M  V30 3240 N 294.314 -2.32234 -5.32022 0
M  V30 3241 H 297.079 -2.71508 -1.26899 0
M  V30 3242 H 294.64 -1.52238 -0.550915 0
M  V30 3243 H 296.632 -1.79514 -3.62708 0
M  V30 3244 H 295.202 -0.955342 -2.97644 0
M  V30 3245 H 294.422 -3.30119 -2.15442 0
M  V30 3246 H 295.71 -3.9874 -3.16044 0
M  V30 3247 H 295.108 -1.71807 -5.38979 0
M  V30 3248 H 293.665 -2.3423 -6.08259 0
M  V30 3249 N 297.098 0.621204 -1.44841 0
M  V30 3250 C 298.028 1.74366 -1.55303 0
M  V30 3251 C 299.009 1.65199 -0.405385 0
M  V30 3252 O 300.194 1.83807 -0.626787 0
M  V30 3253 C 297.324 3.12931 -1.50637 0
M  V30 3254 C 296.278 3.36896 -2.63979 0
M  V30 3255 C 295.604 4.75594 -2.44366 0
M  V30 3256 C 296.904 3.28483 -4.06074 0
M  V30 3257 H 298.598 1.65867 -2.49256 0
M  V30 3258 H 296.144 0.796558 -1.19962 0
M  V30 3259 H 298.097 3.9124 -1.56555 0
M  V30 3260 H 296.821 3.22237 -0.532057 0
M  V30 3261 H 295.48 2.60972 -2.57467 0
M  V30 3262 H 295.128 4.81616 -1.45105 0
M  V30 3263 H 294.828 4.92586 -3.20364 0
M  V30 3264 H 296.352 5.5612 -2.52117 0
M  V30 3265 H 297.766 3.96684 -4.13902 0
M  V30 3266 H 296.163 3.57008 -4.82354 0
M  V30 3267 H 297.233 2.26133 -4.28943 0
M  V30 3268 N 298.576 1.31904 0.862503 0
M  V30 3269 C 299.486 1.22161 2.00285 0
M  V30 3270 C 300.502 0.136785 1.73462 0
M  V30 3271 O 301.678 0.355994 1.98229 0
M  V30 3272 C 298.743 0.937093 3.33796 0
M  V30 3273 C 297.804 2.10957 3.73893 0
M  V30 3274 C 297.037 1.83853 5.01033 0
M  V30 3275 O 297.26 0.777274 5.65079 0
M  V30 3276 O 296.194 2.69741 5.38074 0
M  V30 3277 H 300.02 2.18008 2.11439 0
M  V30 3278 H 297.605 1.11716 0.991957 0
M  V30 3279 H 299.487 0.794583 4.13841 0
M  V30 3280 H 298.162 0.00871894 3.23699 0
M  V30 3281 H 297.069 2.30752 2.94456 0
M  V30 3282 H 298.402 3.02046 3.88625 0
M  V30 3283 N 300.054 -1.07777 1.14986 0
M  V30 3284 C 301.331 -1.7699 0.832695 0
M  V30 3285 C 301.711 -2.001 -0.672561 0
M  V30 3286 O 301.059 -1.61598 -1.6155 0
M  V30 3287 C 301.269 -3.08139 1.63863 0
M  V30 3288 C 302.617 -3.8256 1.84208 0
M  V30 3289 O 303.641 -3.17939 1.60603 0
M  V30 3290 O 302.5 -4.98612 2.23714 0
M  V30 3291 H 299.594 -0.768389 0.305791 0
M  V30 3292 H 302.14 -1.14182 1.25541 0
M  V30 3293 H 300.912 -2.86909 2.6608 0
M  V30 3294 H 300.535 -3.78678 1.21197 0
M  V30 3295 N 301.532 -0.945985 -1.26051 0
M  V30 3296 C 302.78 -0.594941 -1.93145 0
M  V30 3297 C 303.101 0.86953 -1.7454 0
M  V30 3298 O 302.371 1.61838 -1.10387 0
M  V30 3299 H 300.951 -0.217044 -0.714773 0
M  V30 3300 H 303.613 -1.20235 -1.53393 0
M  V30 3301 H 302.709 -0.816835 -3.01221 0
M  V30 3302 N 303.011 1.40521 -0.713556 0
M  V30 3303 C 304.427 1.54839 -0.386907 0
M  V30 3304 C 304.627 1.68532 1.1045 0
M  V30 3305 O 303.683 1.67377 1.89053 0
M  V30 3306 C 304.996 2.77792 -1.15118 0
M  V30 3307 C 306.544 2.91607 -1.13729 0
M  V30 3308 C 307.019 4.1747 -1.88368 0
M  V30 3309 N 308.51 4.24466 -1.85427 0
M  V30 3310 C 309.245 5.20755 -2.40004 0
M  V30 3311 N 308.741 6.22965 -3.03129 0
M  V30 3312 N 310.534 5.1282 -2.30158 0
M  V30 3313 H 302.685 1.29879 -1.68063 0
M  V30 3314 H 304.948 0.627896 -0.710247 0
M  V30 3315 H 304.654 2.73944 -2.20561 0
M  V30 3316 H 304.528 3.6984 -0.741477 0
M  V30 3317 H 306.915 2.94959 -0.0910608 0
M  V30 3318 H 306.996 2.00682 -1.5862 0
M  V30 3319 H 306.64 4.1488 -2.9298 0
M  V30 3320 H 306.57 5.074 -1.40898 0
M  V30 3321 H 309.061 3.51241 -1.3942 0
M  V30 3322 H 309.374 6.92859 -3.42295 0
M  V30 3323 H 307.719 6.23415 -3.07212 0
M  V30 3324 H 310.91 4.31899 -1.80501 0
M  V30 3325 H 311.083 5.87689 -2.72993 0
M  V30 3326 N 304.489 0.459591 1.5075 0
M  V30 3327 C 305.717 -0.0973749 2.06671 0
M  V30 3328 C 306.132 -1.34524 1.32472 0
M  V30 3329 O 305.489 -1.7827 0.390634 0
M  V30 3330 C 305.54 -0.39714 3.59312 0
M  V30 3331 O 305.261 0.801214 4.30711 0
M  V30 3332 C 306.762 -1.00234 4.31819 0
M  V30 3333 H 303.982 0.00195854 0.670997 0
M  V30 3334 H 306.526 0.645072 1.94059 0
M  V30 3335 H 304.681 -1.08951 3.71764 0
M  V30 3336 H 305.095 0.538857 5.21725 0
M  V30 3337 H 306.569 -1.16193 5.39632 0
M  V30 3338 H 307.046 -1.98939 3.91561 0
M  V30 3339 H 307.652 -0.348699 4.23868 0
M  V30 3340 N 305.967 -1.56429 0.191757 0
M  V30 3341 C 306.897 -2.21937 -0.725696 0
M  V30 3342 C 307.878 -1.1814 -1.2238 0
M  V30 3343 O 309.063 -1.46636 -1.27325 0
M  V30 3344 C 306.193 -2.87611 -1.94672 0
M  V30 3345 C 305.147 -3.97623 -1.58366 0
M  V30 3346 C 304.473 -4.50446 -2.88102 0
M  V30 3347 C 305.773 -5.16197 -0.796133 0
M  V30 3348 H 307.467 -2.98861 -0.179606 0
M  V30 3349 H 305.013 -1.43749 -0.0849464 0
M  V30 3350 H 306.966 -3.3212 -2.59373 0
M  V30 3351 H 305.69 -2.08087 -2.51728 0
M  V30 3352 H 304.349 -3.53801 -0.960247 0
M  V30 3353 H 303.997 -3.67688 -3.43241 0
M  V30 3354 H 303.697 -5.24675 -2.64556 0
M  V30 3355 H 305.221 -4.97654 -3.53798 0
M  V30 3356 H 306.635 -5.57271 -1.34618 0
M  V30 3357 H 305.032 -5.96471 -0.658928 0
M  V30 3358 H 306.102 -4.84473 0.203478 0
M  V30 3359 N 307.445 0.0818655 -1.57387 0
M  V30 3360 C 308.67 0.799946 -1.91352 0
M  V30 3361 C 309.095 1.70833 -0.787258 0
M  V30 3362 O 308.453 1.79419 0.26048 0
M  V30 3363 C 308.501 1.57812 -3.24234 0
M  V30 3364 O 307.605 2.68806 -3.12757 0
M  V30 3365 H 306.946 0.21891 -0.626877 0
M  V30 3366 H 309.476 0.0531256 -2.04531 0
M  V30 3367 H 309.486 1.95952 -3.57864 0
M  V30 3368 H 308.161 0.911548 -4.05788 0
M  V30 3369 H 306.738 2.33597 -2.90666 0
M  V30 3370 N 308.923 1.53595 0.353017 0
M  V30 3371 C 310.2 1.61002 1.11075 0
M  V30 3372 C 310.58 0.425356 2.0677 0
M  V30 3373 O 309.928 -0.583267 2.2093 0
M  V30 3374 C 310.138 2.96631 1.83877 0
M  V30 3375 C 311.486 3.51653 2.37961 0
M  V30 3376 O 312.51 2.98743 1.93987 0
M  V30 3377 O 311.369 4.44177 3.18386 0
M  V30 3378 H 308.463 0.650825 0.510251 0
M  V30 3379 H 311.009 1.6594 0.35527 0
M  V30 3380 H 309.781 3.74293 1.14108 0
M  V30 3381 H 309.404 2.95242 2.66304 0
M  V30 3382 N 310.401 -0.613514 1.45168 0
M  V30 3383 C 311.631 -1.39743 1.52169 0
M  V30 3384 C 312.039 -1.88596 0.151086 0
M  V30 3385 O 311.382 -1.6251 -0.856521 0
M  V30 3386 C 311.444 -2.64035 2.43979 0
M  V30 3387 C 311.108 -2.36861 3.90827 0
M  V30 3388 C 312.105 -1.97591 4.80889 0
M  V30 3389 C 309.79 -2.49956 4.35692 0
M  V30 3390 C 311.784 -1.71768 6.1382 0
M  V30 3391 C 309.471 -2.23747 5.68665 0
M  V30 3392 C 310.469 -1.84714 6.57548 0
M  V30 3393 O 310.157 -1.58809 7.88058 0
M  V30 3394 H 309.889 -0.434382 0.517966 0
M  V30 3395 H 312.443 -0.75587 1.90986 0
M  V30 3396 H 310.673 -3.3089 2.00122 0
M  V30 3397 H 312.362 -3.26069 2.41731 0
M  V30 3398 H 313.128 -1.87015 4.47493 0
M  V30 3399 H 309.007 -2.79305 3.66756 0
M  V30 3400 H 312.551 -1.41227 6.83155 0
M  V30 3401 H 308.448 -2.33938 6.01617 0
M  V30 3402 H 309.216 -1.7291 8.00028 0
M  V30 3403 N 311.879 -1.3236 -0.855495 0
M  V30 3404 C 312.827 -1.2118 -1.9854 0
M  V30 3405 C 313.821 -0.116788 -1.68997 0
M  V30 3406 O 315.027 -0.279657 -1.77814 0
M  V30 3407 H 311.402 -0.375608 -0.651477 0
M  V30 3408 H 313.373 -2.16743 -2.05098 0
M  V30 3409 C 312.122 -0.950849 -3.34446 0
M  V30 3410 H 311.445 -1.78563 -3.57708 0
M  V30 3411 H 312.885 -0.912863 -4.14057 0
M  V30 3412 C 311.344 0.346404 -3.35114 0
M  V30 3413 O 311.874 1.35855 -3.7803 0
M  V30 3414 N 310.08 0.36808 -2.88259 0
M  V30 3415 H 309.627 -0.456102 -2.5353 0
M  V30 3416 H 309.585 1.23591 -2.89089 0
M  V30 3417 N 313.357 1.07166 -1.15556 0
M  V30 3418 C 314.606 1.79181 -0.926132 0
M  V30 3419 C 314.919 1.87768 0.547967 0
M  V30 3420 O 316.125 2.56323 0.895036 0
M  V30 3421 C 314.581 3.22 -1.60761 0
M  V30 3422 C 314.189 3.21607 -3.11886 0
M  V30 3423 C 315.933 3.9861 -1.4598 0
M  V30 3424 C 313.84 4.59092 -3.72812 0
M  V30 3425 H 312.77 0.67154 -0.342856 0
M  V30 3426 H 315.421 1.2027 -1.3859 0
M  V30 3427 H 313.803 3.81115 -1.07553 0
M  V30 3428 H 314.977 2.72127 -3.71865 0
M  V30 3429 H 313.292 2.58495 -3.2645 0
M  V30 3430 H 315.889 5.00225 -1.88888 0
M  V30 3431 H 316.232 4.143 -0.407541 0
M  V30 3432 H 316.765 3.45996 -1.96295 0
M  V30 3433 H 313.504 4.48606 -4.77946 0
M  V30 3434 H 313.024 5.08803 -3.17616 0
M  V30 3435 H 314.703 5.28059 -3.73848 0
M  V30 3436 N 314.835 0.952656 1.25548 0
M  V30 3437 C 315.767 0.428609 2.25157 0
M  V30 3438 C 316.78 -0.454428 1.56329 0
M  V30 3439 O 317.969 -0.263023 1.76552 0
M  V30 3440 C 315.069 -0.401972 3.36508 0
M  V30 3441 C 314.242 0.467601 4.34893 0
M  V30 3442 C 313.301 -0.30445 5.25319 0
M  V30 3443 O 312.327 0.296473 5.68427 0
M  V30 3444 N 313.529 -1.59805 5.5807 0
M  V30 3445 H 316.294 1.28497 2.70756 0
M  V30 3446 H 313.855 0.822798 1.39433 0
M  V30 3447 H 315.847 -0.926134 3.9396 0
M  V30 3448 H 314.417 -1.15918 2.90313 0
M  V30 3449 H 313.637 1.17288 3.76347 0
M  V30 3450 H 314.925 1.06119 4.97611 0
M  V30 3451 H 314.323 -2.10823 5.24948 0
M  V30 3452 H 312.88 -2.06822 6.18116 0
M  V30 3453 N 316.313 -1.40141 0.720998 0
M  V30 3454 C 317.26 -2.30688 0.071919 0
M  V30 3455 C 318.23 -1.48476 -0.744584 0
M  V30 3456 O 319.415 -1.77201 -0.707423 0
M  V30 3457 C 316.555 -3.34724 -0.839855 0
M  V30 3458 C 315.668 -4.31998 -0.0122438 0
M  V30 3459 C 314.803 -5.23102 -0.923995 0
M  V30 3460 C 313.842 -6.12033 -0.0907969 0
M  V30 3461 N 312.979 -6.95537 -0.957718 0
M  V30 3462 H 317.819 -2.85628 0.849755 0
M  V30 3463 H 315.356 -1.40653 0.430726 0
M  V30 3464 H 317.314 -3.93618 -1.38279 0
M  V30 3465 H 315.944 -2.81274 -1.58381 0
M  V30 3466 H 314.996 -3.74841 0.64794 0
M  V30 3467 H 316.308 -4.94772 0.632595 0
M  V30 3468 H 315.462 -5.86953 -1.53527 0
M  V30 3469 H 314.201 -4.60615 -1.60264 0
M  V30 3470 H 313.206 -5.47207 0.533377 0
M  V30 3471 H 314.431 -6.76581 0.584428 0
M  V30 3472 H 312.377 -6.35633 -1.62192 0
M  V30 3473 H 312.294 -7.55099 -0.36904 0
M  V30 3474 H 313.562 -7.63832 -1.555 0
M  V30 3475 N 317.792 -0.46758 -1.50504 0
M  V30 3476 C 318.702 0.33382 -2.32213 0
M  V30 3477 C 319.718 0.999323 -1.42441 0
M  V30 3478 O 320.894 0.988068 -1.75497 0
M  V30 3479 C 317.959 1.4035 -3.17022 0
M  V30 3480 C 317.02 0.754961 -4.2261 0
M  V30 3481 C 316.253 1.77367 -5.03365 0
M  V30 3482 O 316.476 2.99976 -4.8515 0
M  V30 3483 O 315.41 1.34744 -5.86624 0
M  V30 3484 H 319.236 -0.334067 -3.01857 0
M  V30 3485 H 316.821 -0.229496 -1.47627 0
M  V30 3486 H 318.703 2.02318 -3.69656 0
M  V30 3487 H 317.378 2.05492 -2.5011 0
M  V30 3488 H 316.285 0.0964244 -3.73976 0
M  V30 3489 H 317.618 0.146545 -4.91982 0
M  V30 3490 N 319.27 1.56325 -0.20005 0
M  V30 3491 C 320.495 2.02548 0.44597 0
M  V30 3492 C 320.92 1.07922 1.5406 0
M  V30 3493 O 320.278 0.0635775 1.81188 0
M  V30 3494 C 320.326 3.47175 0.974761 0
M  V30 3495 O 319.43 3.55671 2.08739 0
M  V30 3496 H 318.771 0.655862 0.103638 0
M  V30 3497 H 321.301 2.02201 -0.312381 0
M  V30 3498 H 321.311 3.87067 1.2901 0
M  V30 3499 H 319.986 4.15538 0.17347 0
M  V30 3500 H 318.563 3.27657 1.78032 0
M  V30 3501 N 320.748 -0.0735177 1.57428 0
M  V30 3502 C 321.976 -0.785969 1.9139 0
M  V30 3503 C 322.391 -1.71207 0.795847 0
M  V30 3504 O 321.748 -1.81033 -0.230915 0
M  V30 3505 C 321.799 -1.58107 3.25091 0
M  V30 3506 O 321.52 -0.6922 4.32597 0
M  V30 3507 C 323.021 -2.39467 3.73055 0
M  V30 3508 H 320.241 -0.223558 0.632663 0
M  V30 3509 H 322.785 -0.044302 2.04452 0
M  V30 3510 H 320.94 -2.27503 3.13562 0
M  V30 3511 H 321.354 -1.24504 5.09508 0
M  V30 3512 H 322.828 -2.90716 4.69242 0
M  V30 3513 H 323.305 -3.18913 3.01979 0
M  V30 3514 H 323.911 -1.7523 3.87523 0
M  V30 3515 N 322.226 -1.5378 -0.344866 0
M  V30 3516 C 323.156 -1.84662 -1.42906 0
M  V30 3517 C 324.137 -0.701648 -1.54955 0
M  V30 3518 O 325.322 -0.953438 -1.69184 0
M  V30 3519 C 322.452 -2.05503 -2.79974 0
M  V30 3520 C 321.406 -3.21318 -2.82734 0
M  V30 3521 C 320.732 -3.2749 -4.22675 0
M  V30 3522 C 322.032 -4.59456 -2.48389 0
M  V30 3523 H 323.726 -2.75461 -1.17311 0
M  V30 3524 H 321.272 -1.32542 -0.562896 0
M  V30 3525 H 323.225 -2.25691 -3.55867 0
M  V30 3526 H 321.949 -1.11434 -3.07002 0
M  V30 3527 H 320.608 -3.00984 -2.09294 0
M  V30 3528 H 320.256 -2.31019 -4.4681 0
M  V30 3529 H 319.956 -4.05316 -4.25433 0
M  V30 3530 H 321.48 -3.49887 -5.00412 0
M  V30 3531 H 322.894 -4.79667 -3.13995 0
M  V30 3532 H 321.291 -5.39675 -2.62432 0
M  V30 3533 H 322.361 -4.63155 -1.4358 0
M  V30 3534 N 323.704 0.605807 -1.45491 0
M  V30 3535 C 324.654 1.71074 -1.50724 0
M  V30 3536 C 325.638 1.5658 -0.37033 0
M  V30 3537 O 326.83 1.65887 -0.617299 0
M  V30 3538 C 323.959 3.0983 -1.47852 0
M  V30 3539 C 323.045 3.29704 -2.66751 0
M  V30 3540 N 323.436 3.19831 -3.91844 0
M  V30 3541 C 321.734 3.60579 -2.62486 0
M  V30 3542 C 322.435 3.41083 -4.71208 0
M  V30 3543 N 321.411 3.65157 -4.02693 0
M  V30 3544 H 325.213 1.61937 -2.45263 0
M  V30 3545 H 322.727 0.80912 -1.40808 0
M  V30 3546 H 324.724 3.89101 -1.49686 0
M  V30 3547 H 323.384 3.20115 -0.543714 0
M  V30 3548 H 324.395 2.98194 -4.23439 0
M  V30 3549 H 321.072 3.7769 -1.77922 0
M  V30 3550 H 322.462 3.38828 -5.80211 0
M  V30 3551 N 325.182 1.32811 0.848464 0
M  V30 3552 C 326.112 1.24882 1.97299 0
M  V30 3553 C 327.093 0.131357 1.69592 0
M  V30 3554 O 328.278 0.319553 1.91553 0
M  V30 3555 C 325.408 0.97746 3.33261 0
M  V30 3556 C 324.362 2.05682 3.75338 0
M  V30 3557 C 323.688 1.63777 5.09 0
M  V30 3558 C 324.988 3.47254 3.90144 0
M  V30 3559 H 326.682 2.18966 2.04191 0
M  V30 3560 H 324.228 1.05413 0.981029 0
M  V30 3561 H 326.181 0.908513 4.1149 0
M  V30 3562 H 324.905 0.000980011 3.266 0
M  V30 3563 H 323.564 2.11603 2.99366 0
M  V30 3564 H 323.212 0.648569 4.98801 0
M  V30 3565 H 322.912 2.36 5.38124 0
M  V30 3566 H 324.436 1.5833 5.89715 0
M  V30 3567 H 325.85 3.43888 4.58709 0
M  V30 3568 H 324.247 4.1788 4.30693 0
M  V30 3569 H 325.317 3.86462 2.92874 0
M  V30 3570 N 326.66 -1.06551 1.16123 0
M  V30 3571 C 327.906 -1.79567 0.94252 0
M  V30 3572 C 328.239 -1.86869 -0.528547 0
M  V30 3573 O 327.514 -1.35838 -1.39206 0
M  V30 3574 C 327.797 -3.24195 1.56747 0
M  V30 3575 C 327.65 -3.24989 3.10969 0
M  V30 3576 C 328.969 -4.21678 1.25998 0
M  V30 3577 H 326.088 -0.651883 0.343828 0
M  V30 3578 H 328.73 -1.2463 1.43413 0
M  V30 3579 H 326.88 -3.71107 1.14942 0
M  V30 3580 H 328.552 -2.86258 3.61737 0
M  V30 3581 H 326.795 -2.63716 3.44436 0
M  V30 3582 H 327.466 -4.27005 3.49815 0
M  V30 3583 H 329.942 -3.83196 1.62174 0
M  V30 3584 H 328.818 -5.21146 1.7233 0
M  V30 3585 H 329.079 -4.4174 0.178367 0
M  V30 3586 N 328.138 -0.959301 -1.25041 0
M  V30 3587 C 329.068 -0.501388 -2.28053 0
M  V30 3588 C 330.049 0.454673 -1.63911 0
M  V30 3589 O 331.234 0.352618 -1.90972 0
M  V30 3590 C 328.364 0.217224 -3.4662 0
M  V30 3591 C 327.318 -0.654034 -4.22973 0
M  V30 3592 C 326.644 0.195589 -5.34342 0
M  V30 3593 C 327.944 -1.93447 -4.85155 0
M  V30 3594 H 329.638 -1.36238 -2.66608 0
M  V30 3595 H 327.184 -0.656534 -1.28163 0
M  V30 3596 H 329.137 0.548732 -4.17812 0
M  V30 3597 H 327.861 1.1125 -3.07068 0
M  V30 3598 H 326.52 -0.968693 -3.5357 0
M  V30 3599 H 326.168 1.09076 -4.91031 0
M  V30 3600 H 325.868 -0.384091 -5.86343 0
M  V30 3601 H 327.392 0.521958 -6.08365 0
M  V30 3602 H 328.806 -1.66908 -5.48466 0
M  V30 3603 H 327.203 -2.46018 -5.47353 0
M  V30 3604 H 328.273 -2.63466 -4.07079 0
M  V30 3605 N 329.616 1.39756 -0.72842 0
M  V30 3606 C 331.032 1.5442 -0.403308 0
M  V30 3607 C 331.232 1.69694 1.08656 0
M  V30 3608 O 330.288 1.69373 1.87267 0
M  V30 3609 C 331.601 2.76555 -1.18058 0
M  V30 3610 C 333.149 2.90384 -1.16815 0
M  V30 3611 C 333.624 4.15449 -1.92785 0
M  V30 3612 N 335.115 4.22475 -1.89918 0
M  V30 3613 C 335.85 5.1818 -2.45514 0
M  V30 3614 N 335.346 6.19714 -3.09719 0
M  V30 3615 N 337.139 5.1035 -2.35584 0
M  V30 3616 H 329.29 1.28089 -1.69431 0
M  V30 3617 H 331.553 0.620327 -0.716867 0
M  V30 3618 H 331.259 2.7159 -2.23455 0
M  V30 3619 H 331.133 3.69033 -0.780662 0
M  V30 3620 H 333.52 2.94846 -0.12234 0
M  V30 3621 H 333.601 1.98988 -1.6074 0
M  V30 3622 H 333.245 4.11749 -2.97364 0
M  V30 3623 H 333.175 5.05877 -1.46272 0
M  V30 3624 H 335.666 3.49743 -1.43138 0
M  V30 3625 H 335.979 6.8919 -3.49625 0
M  V30 3626 H 334.324 6.20121 -3.13807 0
M  V30 3627 H 337.515 4.2996 -1.85072 0
M  V30 3628 H 337.688 5.84761 -2.79211 0
M  V30 3629 N 331.094 0.475555 1.50254 0
M  V30 3630 C 332.024 -0.30611 2.31485 0
M  V30 3631 C 333.005 -0.986228 1.38591 0
M  V30 3632 O 334.19 -0.982541 1.67511 0
M  V30 3633 C 331.32 -1.38588 3.1845 0
M  V30 3634 C 330.274 -0.827115 4.19932 0
M  V30 3635 C 329.6 -2.00551 4.95665 0
M  V30 3636 C 330.9 0.16463 5.2204 0
M  V30 3637 H 332.594 0.371866 2.97082 0
M  V30 3638 H 330.14 0.180282 1.42867 0
M  V30 3639 H 332.093 -1.94023 3.74076 0
M  V30 3640 H 330.817 -2.09269 2.50747 0
M  V30 3641 H 329.476 -0.294702 3.65414 0
M  V30 3642 H 329.124 -2.6994 4.2443 0
M  V30 3643 H 328.824 -1.63784 5.64313 0
M  V30 3644 H 330.348 -2.56468 5.54127 0
M  V30 3645 H 331.762 -0.300699 5.72511 0
M  V30 3646 H 330.159 0.446813 5.98434 0
M  V30 3647 H 331.229 1.08905 4.72512 0
M  V30 3648 N 332.573 -1.56217 0.208337 0
M  V30 3649 C 333.989 -1.58919 -0.14729 0
M  V30 3650 C 334.189 -1.22486 -1.59998 0
M  V30 3651 O 333.245 -0.953849 -2.3379 0
M  V30 3652 C 334.558 -3.00236 0.167048 0
M  V30 3653 C 336.106 -3.12813 0.108219 0
M  V30 3654 C 336.581 -4.56284 0.396049 0
M  V30 3655 N 338.072 -4.61912 0.345142 0
M  V30 3656 C 338.807 -5.70837 0.541523 0
M  V30 3657 N 338.303 -6.88178 0.798968 0
M  V30 3658 N 340.096 -5.60091 0.474867 0
M  V30 3659 H 332.247 -1.78177 1.15614 0
M  V30 3660 H 334.51 -0.827555 0.462446 0
M  V30 3661 H 334.216 -3.31499 1.1748 0
M  V30 3662 H 334.09 -3.7354 -0.524184 0
M  V30 3663 H 336.477 -2.81354 -0.890157 0
M  V30 3664 H 336.558 -2.41866 0.832729 0
M  V30 3665 H 336.202 -4.88458 1.3918 0
M  V30 3666 H 336.132 -5.25439 -0.349502 0
M  V30 3667 H 338.623 -3.77589 0.153316 0
M  V30 3668 H 338.936 -7.67095 0.93727 0
M  V30 3669 H 337.281 -6.89953 0.836013 0
M  V30 3670 H 340.472 -4.67297 0.274064 0
M  V30 3671 H 340.645 -6.44917 0.631326 0
M  V30 3672 N 334.051 0.0651679 -1.57465 0
M  V30 3673 C 335.299 0.761555 -1.87202 0
M  V30 3674 C 335.62 1.77778 -0.801243 0
M  V30 3675 O 334.89 1.95166 0.16937 0
M  V30 3676 H 333.47 0.284251 -0.690804 0
M  V30 3677 H 336.132 0.0396827 -1.9486 0
M  V30 3678 H 335.228 1.27365 -2.84929 0
M  V30 3679 N 335.529 1.53961 0.336706 0
M  V30 3680 C 336.777 1.71197 1.07405 0
M  V30 3681 C 337.098 0.481475 1.88962 0
M  V30 3682 O 336.368 -0.504585 1.8929 0
M  V30 3683 H 334.948 0.631185 0.399517 0
M  V30 3684 H 337.61 1.91232 0.376323 0
M  V30 3685 H 336.706 2.58587 1.74755 0
M  V30 3686 N 337.007 -0.598083 1.45811 0
M  V30 3687 C 338.247 -1.36802 1.5187 0
M  V30 3688 C 338.611 -1.9133 0.160224 0
M  V30 3689 O 339.812 -2.6863 0.0955302 0
M  V30 3690 C 338.083 -2.47835 2.57513 0
M  V30 3691 S 339.642 -3.35458 2.82866 0
M  V30 3692 H 336.46 -0.466278 0.536755 0
M  V30 3693 H 339.062 -0.689152 1.82951 0
M  V30 3694 H 337.766 -2.06141 3.54872 0
M  V30 3695 H 337.297 -3.20512 2.28114 0
M  V30 3696 H 339.312 -4.46251 2.16967 0
M  V30 3697 O 338.524 -1.43439 -0.742122 0
M  V30 3698 H 339.215 -1.3475 -1.39148 0
M  V30 END ATOM
M  V30 BEGIN BOND
M  V30 END BOND
M  V30 END CTAB
M  END
$$$$
