drugbank_target|P0CG29 Glutathione S-transferase theta-2 (DB04132)
 OpenBabel12092120553D

  0  0  0     0  0            999 V3000
M  V30 BEGIN CTAB
M  V30 COUNTS 3925 3970 0 0 0
M  V30 BEGIN ATOM
M  V30 1 H -0.908 1.98254 -0.117106 0
M  V30 2 N 0 1.576 0 0
M  V30 3 C 0.933 2.03868 1.02534 0
M  V30 4 C 1.911 0.928543 1.3348 0
M  V30 5 O 3.095 1.19667 1.45644 0
M  V30 6 C 0.222 2.43627 2.35294 0
M  V30 7 C -0.732 3.65373 2.2001 0
M  V30 8 S 0.101 5.13292 1.52614 0
M  V30 9 C 1.257 5.56322 2.86805 0
M  V30 10 H 1.49 2.90518 0.631377 0
M  V30 11 H -0.977 1.52953 0.210867 0
M  V30 12 H 0.981 2.67203 3.11629 0
M  V30 13 H -0.358 1.57376 2.7183 0
M  V30 14 H -1.165 3.90944 3.18086 0
M  V30 15 H -1.563 3.418 1.51819 0
M  V30 16 H 0.729 5.58782 3.83104 0
M  V30 17 H 1.672 6.56266 2.65933 0
M  V30 18 H 2.08 4.83886 2.90714 0
M  V30 19 N 1.4781 -0.272755 1.55222 0
M  V30 20 C 2.7261 -1.00234 1.75492 0
M  V30 21 C 3.0471 -1.8681 0.5592 0
M  V30 22 O 2.3171 -1.91215 -0.425882 0
M  V30 23 H 0.8971 -0.373076 0.647166 0
M  V30 24 H 3.5591 -0.296926 1.92625 0
M  V30 25 H 2.6551 -1.63913 2.65592 0
M  V30 26 N 2.9562 -1.48159 -0.537278 0
M  V30 27 C 3.8862 -1.65029 -1.6519 0
M  V30 28 C 4.8672 -0.499281 -1.62607 0
M  V30 29 O 6.0522 -0.730972 -1.79918 0
M  V30 30 C 3.1822 -1.68303 -3.03795 0
M  V30 31 C 2.1362 -2.8283 -3.21234 0
M  V30 32 C 1.4622 -2.71189 -4.60826 0
M  V30 33 C 2.7622 -4.24211 -3.04701 0
M  V30 34 H 4.4562 -2.58341 -1.51328 0
M  V30 35 H 2.0022 -1.24325 -0.726585 0
M  V30 36 H 3.9552 -1.78693 -3.81637 0
M  V30 37 H 2.6792 -0.715635 -3.18663 0
M  V30 38 H 1.3382 -2.71983 -2.45807 0
M  V30 39 H 0.9862 -1.72435 -4.7252 0
M  V30 40 H 0.6862 -3.48035 -4.7344 0
M  V30 41 H 2.2102 -2.83537 -5.40777 0
M  V30 42 H 3.6242 -4.3593 -3.72341 0
M  V30 43 H 2.0212 -5.01998 -3.28813 0
M  V30 44 H 3.0912 -4.41184 -2.01209 0
M  V30 45 N 4.4343 0.785586 -1.36625 0
M  V30 46 C 5.3443 1.92964 -1.33425 0
M  V30 47 C 6.3603 1.72394 -0.235851 0
M  V30 48 O 7.5363 1.95866 -0.468878 0
M  V30 49 C 4.6013 3.27884 -1.12662 0
M  V30 50 C 3.6623 3.61204 -2.32013 0
M  V30 51 C 2.8953 4.89687 -2.12231 0
M  V30 52 O 3.1183 5.59704 -1.09945 0
M  V30 53 O 2.0523 5.21752 -3.00098 0
M  V30 54 H 5.8783 1.98613 -2.29753 0
M  V30 55 H 3.4633 0.926384 -1.17211 0
M  V30 56 H 5.3453 4.08614 -1.03016 0
M  V30 57 H 4.0203 3.23118 -0.193991 0
M  V30 58 H 2.9273 2.80765 -2.47228 0
M  V30 59 H 4.2603 3.70698 -3.23796 0
M  V30 60 N 5.9124 1.20967 1.01018 0
M  V30 61 C 6.8424 0.988272 2.11555 0
M  V30 62 C 7.8234 -0.0849778 1.69888 0
M  V30 63 O 9.0084 0.0738202 1.9406 0
M  V30 64 C 6.1384 0.546528 3.42973 0
M  V30 65 C 5.0924 1.56375 3.9841 0
M  V30 66 C 4.4184 0.97842 5.25672 0
M  V30 67 C 5.7184 2.94922 4.31066 0
M  V30 68 H 7.4124 1.91276 2.30334 0
M  V30 69 H 4.9584 0.921073 1.1069 0
M  V30 70 H 6.9114 0.378839 4.19694 0
M  V30 71 H 5.6354 -0.413598 3.23971 0
M  V30 72 H 4.2944 1.71891 3.23804 0
M  V30 73 H 3.9424 0.0101688 5.02999 0
M  V30 74 H 3.6424 1.65784 5.63728 0
M  V30 75 H 5.1664 0.821939 6.05043 0
M  V30 76 H 6.5804 2.8288 4.9865 0
M  V30 77 H 4.9774 3.5983 4.80253 0
M  V30 78 H 6.0474 3.4616 3.39561 0
M  V30 79 N 7.3905 -1.2043 1.01659 0
M  V30 80 C 8.6375 -1.89797 0.705917 0
M  V30 81 C 8.9655 -1.78848 -0.764439 0
M  V30 82 O 8.2205 -1.16694 -1.57102 0
M  V30 83 C 8.5195 -3.40464 1.08714 0
M  V30 84 C 8.1855 -3.71614 2.5537 0
M  V30 85 C 6.8475 -3.79826 2.95441 0
M  V30 86 C 9.1995 -3.85915 3.50313 0
M  V30 87 C 6.5275 -3.99797 4.29394 0
M  V30 88 C 8.8795 -4.07396 4.83954 0
M  V30 89 C 7.5435 -4.13837 5.23732 0
M  V30 90 H 6.8135 -0.694518 0.258313 0
M  V30 91 H 9.4605 -1.42691 1.27717 0
M  V30 92 H 7.7655 -3.89385 0.434309 0
M  V30 93 H 9.4625 -3.92433 0.824461 0
M  V30 94 H 6.0525 -3.65822 2.23321 0
M  V30 95 H 10.2365 -3.78926 3.20513 0
M  V30 96 H 5.4925 -4.03018 4.59768 0
M  V30 97 H 9.6665 -4.17404 5.57447 0
M  V30 98 H 7.2935 -4.29064 6.27541 0
M  V30 99 N 8.8686 -0.792821 -1.36206 0
M  V30 100 C 9.7986 -0.207853 -2.32573 0
M  V30 101 C 10.7796 0.659055 -1.56813 0
M  V30 102 O 11.9646 0.592176 -1.84951 0
M  V30 103 C 9.0946 0.655449 -3.41059 0
M  V30 104 C 8.0486 -0.111842 -4.27854 0
M  V30 105 C 7.3746 0.872274 -5.27537 0
M  V30 106 C 8.6746 -1.30299 -5.05786 0
M  V30 107 H 10.3686 -1.01294 -2.81744 0
M  V30 108 H 7.9146 -0.48854 -1.3546 0
M  V30 109 H 9.8676 1.07464 -4.07467 0
M  V30 110 H 8.5916 1.49328 -2.90463 0
M  V30 111 H 7.2506 -0.512053 -3.63006 0
M  V30 112 H 6.8986 1.70523 -4.73214 0
M  V30 113 H 6.5986 0.363291 -5.86476 0
M  V30 114 H 8.1226 1.28996 -5.96818 0
M  V30 115 H 9.5366 -0.959379 -5.65216 0
M  V30 116 H 7.9336 -1.7455 -5.74154 0
M  V30 117 H 9.0036 -2.09663 -4.37229 0
M  V30 118 N 10.3467 1.47872 -0.545128 0
M  V30 119 C 11.6237 1.9554 0.0485222 0
M  V30 120 C 12.0037 1.4876 1.49779 0
M  V30 121 O 11.3517 0.720925 2.16829 0
M  V30 122 C 11.5617 3.48898 -0.084417 0
M  V30 123 C 12.9097 4.24547 0.0671239 0
M  V30 124 O 13.9337 3.56198 -0.0113649 0
M  V30 125 O 12.7927 5.45999 0.233882 0
M  V30 126 H 9.8867 0.823957 0.0708773 0
M  V30 127 H 12.4327 1.58327 -0.610798 0
M  V30 128 H 11.2047 3.75714 -1.09337 0
M  V30 129 H 10.8277 3.92845 0.613066 0
M  V30 130 N 11.8248 0.280983 1.55075 0
M  V30 131 C 12.7548 -0.597469 2.25727 0
M  V30 132 C 13.7358 -1.15417 1.24952 0
M  V30 133 O 14.9208 -1.18722 1.53684 0
M  V30 134 C 12.0508 -1.7789 2.98283 0
M  V30 135 C 11.0048 -1.35347 4.06036 0
M  V30 136 C 10.3308 -2.61846 4.66198 0
M  V30 137 C 11.6308 -0.499354 5.19907 0
M  V30 138 H 13.3248 -0.00824265 2.99399 0
M  V30 139 H 10.8708 -0.0025244 1.44 0
M  V30 140 H 12.8238 -2.39937 3.46422 0
M  V30 141 H 11.5478 -2.39405 2.22155 0
M  V30 142 H 10.2068 -0.756156 3.58717 0
M  V30 143 H 9.8548 -3.21632 3.86732 0
M  V30 144 H 9.5548 -2.3409 5.38958 0
M  V30 145 H 11.0788 -3.24732 5.1709 0
M  V30 146 H 12.4928 -1.02498 5.64063 0
M  V30 147 H 10.8898 -0.316424 5.99265 0
M  V30 148 H 11.9598 0.480459 4.82514 0
M  V30 149 N 13.3029 -1.57598 0.00835791 0
M  V30 150 C 14.5489 -1.91211 -0.675732 0
M  V30 151 C 14.8819 -0.883139 -1.72958 0
M  V30 152 O 14.1569 0.097016 -1.94258 0
M  V30 153 C 14.4399 -3.35379 -1.31123 0
M  V30 154 C 14.2929 -4.48999 -0.268356 0
M  V30 155 C 15.6119 -3.7912 -2.23508 0
M  V30 156 H 12.7309 -0.695374 -0.244179 0
M  V30 157 H 15.3729 -1.89901 0.0613655 0
M  V30 158 H 13.5229 -3.36626 -1.93946 0
M  V30 159 H 15.1949 -4.59887 0.360844 0
M  V30 160 H 13.4379 -4.31873 0.408482 0
M  V30 161 H 14.1089 -5.46851 -0.752218 0
M  V30 162 H 16.5849 -3.79477 -1.70693 0
M  V30 163 H 15.4609 -4.80729 -2.64936 0
M  V30 164 H 15.7219 -3.13455 -3.11766 0
M  V30 165 N 14.781 0.264519 -1.55364 0
M  V30 166 C 16.006 1.01726 -1.80739 0
M  V30 167 C 16.431 1.78836 -0.583044 0
M  V30 168 O 15.789 1.75167 0.467566 0
M  V30 169 C 15.837 1.94482 -3.03659 0
M  V30 170 O 14.941 3.03386 -2.7934 0
M  V30 171 H 14.282 0.290395 -0.597132 0
M  V30 172 H 16.812 0.290854 -2.02522 0
M  V30 173 H 16.822 2.36278 -3.32621 0
M  V30 174 H 15.497 1.37772 -3.92418 0
M  V30 175 H 14.074 2.65844 -2.61498 0
M  V30 176 N 16.2591 1.48442 0.529413 0
M  V30 177 C 17.1911 1.59095 1.64989 0
M  V30 178 C 18.2041 0.475212 1.5571 0
M  V30 179 O 19.3931 0.746081 1.6216 0
M  V30 180 C 16.4931 1.50518 3.0364 0
M  V30 181 C 15.6661 2.77142 3.38395 0
M  V30 182 C 14.7251 2.62012 4.56329 0
M  V30 183 O 13.7511 3.35898 4.59522 0
M  V30 184 N 14.9531 1.71667 5.54536 0
M  V30 185 H 17.7181 2.55723 1.56287 0
M  V30 186 H 15.2791 1.45173 0.716697 0
M  V30 187 H 17.2711 1.38091 3.80412 0
M  V30 188 H 15.8411 0.618627 3.06418 0
M  V30 189 H 15.0611 3.0413 2.50796 0
M  V30 190 H 16.3491 3.61146 3.58401 0
M  V30 191 H 15.7471 1.10841 5.54735 0
M  V30 192 H 14.3041 1.65178 6.30523 0
M  V30 193 N 17.7372 -0.778329 1.37039 0
M  V30 194 C 19.1482 -1.35421 1.28523 0
M  V30 195 C 19.4992 -1.96075 -0.0700901 0
M  V30 196 O 18.6242 -1.93352 -0.971801 0
M  V30 197 C 19.2192 -2.46211 2.32735 0
M  V30 198 C 17.7782 -2.99585 2.27873 0
M  V30 199 C 16.9252 -1.72748 2.16918 0
M  V30 200 H 19.8762 -0.5791 1.47757 0
M  V30 201 H 19.8972 -3.2552 1.9702 0
M  V30 202 H 19.4092 -2.02036 3.31365 0
M  V30 203 H 17.5102 -3.48152 1.32745 0
M  V30 204 H 17.6232 -3.55646 3.21018 0
M  V30 205 H 15.9872 -1.95416 1.63354 0
M  V30 206 H 16.7702 -1.30686 3.17452 0
M  V30 207 N 19.2153 -1.21501 -1.00376 0
M  V30 208 C 20.4403 -1.05977 -1.78279 0
M  V30 209 C 20.8653 0.385994 -1.84097 0
M  V30 210 O 20.2233 1.27849 -1.28547 0
M  V30 211 C 20.2713 -1.66302 -3.19963 0
M  V30 212 O 19.3753 -0.909333 -4.0225 0
M  V30 213 H 18.7163 -0.372906 -0.549397 0
M  V30 214 H 21.2463 -1.6107 -1.26165 0
M  V30 215 H 21.2563 -1.70574 -3.70632 0
M  V30 216 H 19.9313 -2.71515 -3.15043 0
M  V30 217 H 18.5083 -0.941795 -3.60811 0
M  V30 218 N 20.6934 1.19889 -1.02296 0
M  V30 219 C 22.1094 1.41462 -0.738954 0
M  V30 220 C 22.3094 1.89721 0.678846 0
M  V30 221 O 21.3654 2.07016 1.4457 0
M  V30 222 C 22.6784 2.43083 -1.77005 0
M  V30 223 C 24.2264 2.5684 -1.78892 0
M  V30 224 C 24.7014 3.61709 -2.80945 0
M  V30 225 N 26.1924 3.69199 -2.79725 0
M  V30 226 C 26.9274 4.50019 -3.55345 0
M  V30 227 N 26.4234 5.34592 -4.40662 0
M  V30 228 N 28.2164 4.44612 -3.43914 0
M  V30 229 H 20.3674 0.868827 -1.93817 0
M  V30 230 H 22.6304 0.44399 -0.837602 0
M  V30 231 H 22.3364 2.14636 -2.78612 0
M  V30 232 H 22.2104 3.4217 -1.58744 0
M  V30 233 H 24.5974 2.84614 -0.779674 0
M  V30 234 H 24.6784 1.57927 -2.01228 0
M  V30 235 H 24.3224 3.34678 -3.82038 0
M  V30 236 H 24.2524 4.60259 -2.5587 0
M  V30 237 H 26.7434 3.08794 -2.17842 0
M  V30 238 H 27.0564 5.93363 -4.95116 0
M  V30 239 H 25.4014 5.34073 -4.44737 0
M  V30 240 H 28.5924 3.7758 -2.76679 0
M  V30 241 H 28.7654 5.0736 -4.031 0
M  V30 242 N 22.1715 0.800033 1.35784 0
M  V30 243 C 23.1345 0.211565 2.28221 0
M  V30 244 C 24.1345 -0.59728 1.49296 0
M  V30 245 O 25.3245 -0.416721 1.69142 0
M  V30 246 C 22.4565 -0.705846 3.33513 0
M  V30 247 H 23.6495 1.02677 2.81776 0
M  V30 248 H 21.2025 0.570211 1.45528 0
M  V30 249 H 21.9375 -1.54498 2.85133 0
M  V30 250 H 21.7225 -0.127655 3.91892 0
M  V30 251 H 23.2125 -1.11211 4.02519 0
M  V30 252 N 23.6496 -1.47581 0.552962 0
M  V30 253 C 24.8956 -2.02782 0.0273648 0
M  V30 254 C 25.2286 -1.42687 -1.31734 0
M  V30 255 O 24.5036 -0.580897 -1.85623 0
M  V30 256 C 24.7866 -3.60031 -0.0702371 0
M  V30 257 C 24.6396 -4.30566 1.30126 0
M  V30 258 C 25.9586 -4.33028 -0.785771 0
M  V30 259 H 23.0776 -0.736912 0.0114185 0
M  V30 260 H 25.7196 -1.76056 0.714432 0
M  V30 261 H 23.8696 -3.82932 -0.655382 0
M  V30 262 H 25.5416 -4.19018 1.92929 0
M  V30 263 H 23.7846 -3.91086 1.87709 0
M  V30 264 H 24.4556 -5.39114 1.18573 0
M  V30 265 H 26.9316 -4.15095 -0.288982 0
M  V30 266 H 25.8076 -5.42695 -0.823013 0
M  V30 267 H 26.0686 -4.01945 -1.841 0
M  V30 268 N 25.1277 -0.289203 -1.54924 0
M  V30 269 C 26.3577 0.325989 -2.04012 0
M  V30 270 C 26.7657 1.48961 -1.1665 0
M  V30 271 O 26.1087 1.82794 -0.1822 0
M  V30 272 C 26.1707 0.856112 -3.49158 0
M  V30 273 C 25.8347 -0.180697 -4.56643 0
M  V30 274 C 26.8317 -1.0051 -5.10092 0
M  V30 275 C 24.5167 -0.318998 -5.01286 0
M  V30 276 C 26.5107 -1.95385 -6.06715 0
M  V30 277 C 24.1977 -1.27121 -5.97732 0
M  V30 278 C 25.1957 -2.08713 -6.50329 0
M  V30 279 O 24.8837 -3.02322 -7.44887 0
M  V30 280 H 24.6157 0.0765276 -0.671654 0
M  V30 281 H 27.1697 -0.423254 -2.00992 0
M  V30 282 H 25.3997 1.65567 -3.49463 0
M  V30 283 H 27.0887 1.38591 -3.81507 0
M  V30 284 H 27.8547 -0.90906 -4.76404 0
M  V30 285 H 23.7337 0.306108 -4.59983 0
M  V30 286 H 27.2777 -2.59111 -6.47694 0
M  V30 287 H 23.1747 -1.36801 -6.30837 0
M  V30 288 H 23.9427 -2.97165 -7.6265 0
M  V30 289 N 26.6058 1.57591 -0.0167156 0
M  V30 290 C 27.8548 1.90461 0.663877 0
M  V30 291 C 28.1678 0.893515 1.73999 0
M  V30 292 O 29.3738 1.11302 2.47637 0
M  V30 293 C 27.8298 3.38155 1.23204 0
M  V30 294 C 27.4378 4.47597 0.189866 0
M  V30 295 C 29.1818 3.80111 1.88986 0
M  V30 296 C 27.0888 5.86379 0.768964 0
M  V30 297 H 26.0188 0.710738 0.251729 0
M  V30 298 H 28.6698 1.83326 -0.0799926 0
M  V30 299 H 27.0518 3.40182 2.02712 0
M  V30 300 H 28.2258 4.57112 -0.581846 0
M  V30 301 H 26.5408 4.14766 -0.368475 0
M  V30 302 H 29.1378 4.81145 2.33247 0
M  V30 303 H 29.4808 3.14511 2.72743 0
M  V30 304 H 30.0138 3.80454 1.16187 0
M  V30 305 H 26.7528 6.55493 -0.0301957 0
M  V30 306 H 26.2728 5.80496 1.50945 0
M  V30 307 H 27.9518 6.34563 1.26251 0
M  V30 308 N 28.0839 -0.256276 1.55502 0
M  V30 309 C 29.3309 -0.985619 1.76895 0
M  V30 310 C 29.6589 -1.85671 0.579355 0
M  V30 311 O 28.9139 -1.90744 -0.437651 0
M  V30 312 C 29.2129 -1.88432 3.03691 0
M  V30 313 C 28.8789 -1.16936 4.35473 0
M  V30 314 C 27.5409 -0.97173 4.71286 0
M  V30 315 C 29.8929 -0.661889 5.1698 0
M  V30 316 C 27.2209 -0.254179 5.86149 0
M  V30 317 C 29.5729 0.042149 6.32586 0
M  V30 318 C 28.2369 0.25134 6.67027 0
M  V30 319 H 27.5069 -0.360663 0.647304 0
M  V30 320 H 30.1539 -0.256483 1.89775 0
M  V30 321 H 28.4589 -2.68021 2.85783 0
M  V30 322 H 30.1559 -2.45015 3.1744 0
M  V30 323 H 26.7459 -1.33332 4.07333 0
M  V30 324 H 30.9299 -0.802145 4.89775 0
M  V30 325 H 26.1859 -0.0815408 6.11346 0
M  V30 326 H 30.3599 0.443049 6.94989 0
M  V30 327 H 27.9869 0.809314 7.5588 0
M  V30 328 N 29.562 -1.4872 -0.521534 0
M  V30 329 C 30.525 -1.63379 -1.60748 0
M  V30 330 C 31.525 -0.50661 -1.52611 0
M  V30 331 O 32.715 -0.772601 -1.5613 0
M  V30 332 C 29.847 -1.61192 -3.00383 0
M  V30 333 H 31.04 -2.60217 -1.49087 0
M  V30 334 H 28.593 -1.37444 -0.744235 0
M  V30 335 H 29.328 -0.65863 -3.17541 0
M  V30 336 H 29.113 -2.43032 -3.07698 0
M  V30 337 H 30.603 -1.7466 -3.7932 0
M  V30 338 N 31.0401 0.771051 -1.3745 0
M  V30 339 C 31.9871 1.88435 -1.3327 0
M  V30 340 C 32.9571 1.64914 -0.198136 0
M  V30 341 O 34.1421 1.86821 -0.387606 0
M  V30 342 C 31.2821 3.25509 -1.14622 0
M  V30 343 C 30.3951 3.60979 -2.37314 0
M  V30 344 C 29.5301 4.87265 -2.11533 0
M  V30 345 C 28.5691 5.15469 -3.30088 0
M  V30 346 N 27.7061 6.32944 -3.03853 0
M  V30 347 H 32.5461 1.91344 -2.28455 0
M  V30 348 H 30.0831 0.935466 -1.13523 0
M  V30 349 H 32.0411 4.04582 -1.01831 0
M  V30 350 H 30.6711 3.21974 -0.230837 0
M  V30 351 H 29.7231 2.76885 -2.60842 0
M  V30 352 H 31.0351 3.77759 -3.25729 0
M  V30 353 H 30.1891 5.74244 -1.95777 0
M  V30 354 H 28.9281 4.7259 -1.20457 0
M  V30 355 H 27.9331 4.26966 -3.46382 0
M  V30 356 H 29.1581 5.32052 -4.22016 0
M  V30 357 H 27.1041 6.19625 -2.15407 0
M  V30 358 H 27.0211 6.50143 -3.85812 0
M  V30 359 H 28.2891 7.22857 -2.91716 0
M  V30 360 N 32.5182 1.22032 0.997298 0
M  V30 361 C 33.4652 0.986467 2.08656 0
M  V30 362 C 34.4352 -0.0902671 1.65855 0
M  V30 363 O 35.6202 0.0584294 1.90711 0
M  V30 364 C 32.7602 0.565569 3.40434 0
M  V30 365 C 31.8732 1.71259 3.96604 0
M  V30 366 C 31.0082 1.24011 5.16522 0
M  V30 367 C 30.0472 2.35896 5.64818 0
M  V30 368 N 29.1842 1.89726 6.7598 0
M  V30 369 H 34.0242 1.91892 2.27994 0
M  V30 370 H 31.5612 0.956199 1.11782 0
M  V30 371 H 33.5192 0.302738 4.161 0
M  V30 372 H 32.1492 -0.329879 3.2111 0
M  V30 373 H 31.2012 2.08986 3.17851 0
M  V30 374 H 32.5132 2.55436 4.28432 0
M  V30 375 H 31.6672 0.934395 5.99461 0
M  V30 376 H 30.4062 0.368487 4.86306 0
M  V30 377 H 29.4112 2.67261 4.8047 0
M  V30 378 H 30.6362 3.23567 5.97061 0
M  V30 379 H 28.5822 1.0492 6.47555 0
M  V30 380 H 28.4992 2.67471 7.07103 0
M  V30 381 H 29.7672 1.62211 7.62435 0
M  V30 382 N 33.9963 -1.19345 1.0293 0
M  V30 383 C 34.9443 -2.24621 0.604001 0
M  V30 384 C 35.9383 -1.65452 -0.363587 0
M  V30 385 O 37.1443 -1.78497 -0.23212 0
M  V30 386 H 33.5193 -0.730858 0.177061 0
M  V30 387 H 35.4903 -2.5781 1.50255 0
M  V30 388 C 34.2393 -3.47688 -0.0289127 0
M  V30 389 H 33.5623 -3.93505 0.706651 0
M  V30 390 H 35.0023 -4.23011 -0.289432 0
M  V30 391 C 33.4613 -3.11817 -1.2756 0
M  V30 392 O 33.9913 -3.2451 -2.36762 0
M  V30 393 N 32.1973 -2.66246 -1.16453 0
M  V30 394 H 31.7443 -2.56118 -0.275914 0
M  V30 395 H 31.7023 -2.42617 -1.99961 0
M  V30 396 N 35.4744 -0.807222 -1.35358 0
M  V30 397 C 36.7224 -0.387122 -1.98358 0
M  V30 398 C 37.0434 1.04942 -1.64354 0
M  V30 399 O 36.3134 1.72615 -0.926339 0
M  V30 400 H 34.8934 -0.140154 -0.733734 0
M  V30 401 H 37.5554 -1.0332 -1.6526 0
M  V30 402 H 36.6514 -0.493352 -3.08176 0
M  V30 403 N 36.9525 1.47285 -0.560781 0
M  V30 404 C 38.2015 2.01668 -0.035895 0
M  V30 405 C 38.5145 1.44021 1.32353 0
M  V30 406 O 39.7205 1.90088 1.93853 0
M  V30 407 C 38.1765 3.59897 -0.0136659 0
M  V30 408 C 37.7845 4.26536 -1.37006 0
M  V30 409 C 39.5285 4.22017 0.458425 0
M  V30 410 C 37.4355 5.76782 -1.30675 0
M  V30 411 H 36.3655 0.753938 -0.00964879 0
M  V30 412 H 39.0165 1.69243 -0.709166 0
M  V30 413 H 37.3985 3.89301 0.725325 0
M  V30 414 H 38.5725 4.0877 -2.12705 0
M  V30 415 H 36.8875 3.76419 -1.78038 0
M  V30 416 H 39.4845 5.32124 0.524247 0
M  V30 417 H 39.8275 3.89437 1.4712 0
M  V30 418 H 40.3605 3.97159 -0.225818 0
M  V30 419 H 37.0995 6.13988 -2.29564 0
M  V30 420 H 36.6195 5.96875 -0.591622 0
M  V30 421 H 38.2985 6.39063 -1.01033 0
M  V30 422 N 38.4306 0.297415 1.54768 0
M  V30 423 C 39.8416 -0.195947 1.85669 0
M  V30 424 C 40.1926 -1.53707 1.21937 0
M  V30 425 O 39.3176 -2.10164 0.515754 0
M  V30 426 C 39.9126 -0.362318 3.36857 0
M  V30 427 C 38.4716 -0.799901 3.67802 0
M  V30 428 C 37.6186 0.0938578 2.77141 0
M  V30 429 H 40.5696 0.518538 1.4999 0
M  V30 430 H 40.5906 -1.19745 3.61167 0
M  V30 431 H 40.1026 0.613921 3.83214 0
M  V30 432 H 38.2036 -1.78682 3.26961 0
M  V30 433 H 38.3166 -0.621773 4.75048 0
M  V30 434 H 36.6806 -0.426254 2.51108 0
M  V30 435 H 37.4636 1.06639 3.26318 0
M  V30 436 N 39.9087 -1.5758 0.0250728 0
M  V30 437 C 40.8387 -2.13007 -0.956575 0
M  V30 438 C 41.8197 -1.0452 -1.342 0
M  V30 439 O 43.0047 -1.32332 -1.42133 0
M  V30 440 C 40.1347 -2.65386 -2.24026 0
M  V30 441 C 39.0887 -3.78623 -1.99571 0
M  V30 442 C 38.4147 -4.17414 -3.3417 0
M  V30 443 C 39.7147 -5.04867 -1.33814 0
M  V30 444 H 41.4087 -2.9528 -0.494991 0
M  V30 445 H 38.9547 -1.42042 -0.236651 0
M  V30 446 H 40.9077 -3.02794 -2.93076 0
M  V30 447 H 39.6317 -1.80268 -2.72343 0
M  V30 448 H 38.2907 -3.41646 -1.32941 0
M  V30 449 H 37.9387 -3.29284 -3.80238 0
M  V30 450 H 37.6387 -4.93719 -3.18615 0
M  V30 451 H 39.1627 -4.57402 -4.04495 0
M  V30 452 H 40.5767 -5.39888 -1.92857 0
M  V30 453 H 38.9737 -5.86144 -1.28669 0
M  V30 454 H 40.0437 -4.83904 -0.310561 0
M  V30 455 N 41.3868 0.248026 -1.55636 0
M  V30 456 C 42.2968 1.32859 -1.93354 0
M  V30 457 C 43.3128 1.52719 -0.833838 0
M  V30 458 O 44.4888 1.66363 -1.13513 0
M  V30 459 C 41.5538 2.66337 -2.21958 0
M  V30 460 C 40.6148 2.55008 -3.45354 0
M  V30 461 C 39.8478 3.82121 -3.72584 0
M  V30 462 O 40.0708 4.83951 -3.01907 0
M  V30 463 O 39.0048 3.80822 -4.6611 0
M  V30 464 H 42.8308 1.03862 -2.85388 0
M  V30 465 H 40.4158 0.448686 -1.42503 0
M  V30 466 H 42.2978 3.45216 -2.4167 0
M  V30 467 H 40.9728 2.95068 -1.33103 0
M  V30 468 H 39.8798 1.7442 -3.30951 0
M  V30 469 H 41.2128 2.31222 -4.34508 0
M  V30 470 N 42.8649 1.48995 0.513639 0
M  V30 471 C 43.7949 1.67636 1.62544 0
M  V30 472 C 44.7759 0.525087 1.61793 0
M  V30 473 O 45.9609 0.759502 1.78732 0
M  V30 474 C 43.0909 1.73114 3.01079 0
M  V30 475 C 42.0449 2.87905 3.16693 0
M  V30 476 C 41.3709 2.78486 4.56453 0
M  V30 477 C 42.6709 4.29005 2.97913 0
M  V30 478 H 44.3649 2.60716 1.47198 0
M  V30 479 H 41.9109 1.25465 0.706714 0
M  V30 480 H 43.8639 1.84742 3.78746 0
M  V30 481 H 42.5879 0.766241 3.17484 0
M  V30 482 H 41.2469 2.75859 2.41448 0
M  V30 483 H 40.8949 1.7993 4.69717 0
M  V30 484 H 40.5949 3.55523 4.67843 0
M  V30 485 H 42.1189 2.92104 5.36197 0
M  V30 486 H 43.5329 4.41798 3.65359 0
M  V30 487 H 41.9299 5.07166 3.20785 0
M  V30 488 H 42.9999 4.44329 1.94165 0
M  V30 489 N 44.343 -0.763751 1.37857 0
M  V30 490 C 45.759 -1.06542 1.18832 0
M  V30 491 C 45.959 -2.01478 0.0299722 0
M  V30 492 O 45.015 -2.4458 -0.627447 0
M  V30 493 C 46.328 -1.65525 2.51042 0
M  V30 494 C 47.876 -1.77745 2.57635 0
M  V30 495 C 48.351 -2.4014 3.89996 0
M  V30 496 N 49.842 -2.47582 3.91481 0
M  V30 497 C 50.577 -2.96732 4.9065 0
M  V30 498 N 50.073 -3.45993 6.00217 0
M  V30 499 N 51.866 -2.95679 4.78048 0
M  V30 500 H 44.017 -0.133556 2.1198 0
M  V30 501 H 46.28 -0.121879 0.940133 0
M  V30 502 H 45.986 -1.03236 3.36207 0
M  V30 503 H 45.86 -2.64719 2.68707 0
M  V30 504 H 48.247 -2.39164 1.72872 0
M  V30 505 H 48.328 -0.772836 2.43846 0
M  V30 506 H 47.972 -1.79358 4.75177 0
M  V30 507 H 47.902 -3.41223 4.01092 0
M  V30 508 H 50.393 -2.1273 3.12337 0
M  V30 509 H 50.706 -3.81922 6.7183 0
M  V30 510 H 49.051 -3.44077 6.03851 0
M  V30 511 H 52.242 -2.56499 3.91568 0
M  V30 512 H 52.415 -3.33672 5.55488 0
M  V30 513 N 45.8211 -1.22559 -0.990812 0
M  V30 514 C 47.0491 -1.07779 -1.76611 0
M  V30 515 C 47.4641 0.371513 -1.85109 0
M  V30 516 O 46.8211 1.25737 -1.32274 0
M  V30 517 C 46.8721 -1.68512 -3.19822 0
M  V30 518 O 46.5931 -3.07774 -3.1178 0
M  V30 519 C 48.0941 -1.59035 -4.13791 0
M  V30 520 H 45.3141 -0.377729 -0.554583 0
M  V30 521 H 47.8581 -1.62195 -1.24551 0
M  V30 522 H 46.0131 -1.18154 -3.68942 0
M  V30 523 H 46.4271 -3.37062 -4.01858 0
M  V30 524 H 47.9011 -2.0625 -5.1202 0
M  V30 525 H 48.3781 -0.547273 -4.35777 0
M  V30 526 H 48.9841 -2.08709 -3.70568 0
M  V30 527 N 47.2992 1.18797 -1.03562 0
M  V30 528 C 48.5452 1.8893 -0.737113 0
M  V30 529 C 48.8782 1.79837 0.732956 0
M  V30 530 O 48.1532 1.19525 1.5344 0
M  V30 531 C 48.4362 3.39607 -1.19745 0
M  V30 532 C 48.2892 3.57537 -2.72924 0
M  V30 533 C 49.6082 4.33069 -0.783526 0
M  V30 534 H 46.7272 0.686057 -0.269249 0
M  V30 535 H 49.3692 1.39797 -1.28673 0
M  V30 536 H 47.5192 3.81583 -0.729855 0
M  V30 537 H 49.1912 3.24688 -3.27682 0
M  V30 538 H 47.4342 3.00363 -3.12993 0
M  V30 539 H 48.1052 4.63238 -3.00191 0
M  V30 540 H 50.5812 3.98846 -1.18581 0
M  V30 541 H 49.4572 5.3707 -1.13343 0
M  V30 542 H 49.7182 4.40986 0.313681 0
M  V30 543 N 48.7773 0.814389 1.34928 0
M  V30 544 C 50.0543 0.321363 1.92942 0
M  V30 545 C 50.4343 -1.19014 1.74353 0
M  V30 546 O 49.7823 -1.99328 1.11716 0
M  V30 547 C 49.9923 0.741323 3.41036 0
M  V30 548 C 51.3403 0.735266 4.18185 0
M  V30 549 O 52.3643 0.68336 3.49584 0
M  V30 550 O 51.2233 0.800703 5.40602 0
M  V30 551 H 48.3173 0.0858893 0.822528 0
M  V30 552 H 50.8633 0.898609 1.43955 0
M  V30 553 H 49.6353 1.78276 3.4833 0
M  V30 554 H 49.2583 0.139307 3.97356 0
M  V30 555 N 50.2554 -1.46986 0.568584 0
M  V30 556 C 51.1854 -2.32946 -0.160753 0
M  V30 557 C 52.1664 -1.44487 -0.897631 0
M  V30 558 O 53.3514 -1.73327 -0.875867 0
M  V30 559 C 50.4814 -3.26494 -1.18403 0
M  V30 560 C 49.4354 -4.24282 -0.562895 0
M  V30 561 C 48.7614 -5.07236 -1.69163 0
M  V30 562 C 50.0614 -5.19989 0.490761 0
M  V30 563 H 51.7554 -2.94175 0.556916 0
M  V30 564 H 49.3014 -1.4146 0.26927 0
M  V30 565 H 51.2544 -3.85477 -1.70251 0
M  V30 566 H 49.9784 -2.63343 -1.93179 0
M  V30 567 H 48.6374 -3.66541 -0.0656164 0
M  V30 568 H 48.2854 -4.4048 -2.42871 0
M  V30 569 H 47.9854 -5.7345 -1.28174 0
M  V30 570 H 49.5094 -5.6908 -2.21314 0
M  V30 571 H 50.9234 -5.73271 0.0579047 0
M  V30 572 H 49.3204 -5.94469 0.820165 0
M  V30 573 H 50.3904 -4.64777 1.3824 0
M  V30 574 N 51.7335 -0.305618 -1.54608 0
M  V30 575 C 52.9795 0.302746 -2.00528 0
M  V30 576 C 53.3125 1.53184 -1.19367 0
M  V30 577 O 52.5875 1.92598 -0.271321 0
M  V30 578 C 52.8705 0.654756 -3.54097 0
M  V30 579 C 52.7235 -0.583793 -4.45995 0
M  V30 580 C 54.0425 1.47947 -4.14487 0
M  V30 581 H 51.1615 0.108564 -0.72896 0
M  V30 582 H 53.8035 -0.418634 -1.85331 0
M  V30 583 H 51.9535 1.26935 -3.67178 0
M  V30 584 H 53.6255 -1.22224 -4.44814 0
M  V30 585 H 51.8685 -1.21615 -4.16404 0
M  V30 586 H 52.5395 -0.293287 -5.5122 0
M  V30 587 H 55.0155 0.96013 -4.04871 0
M  V30 588 H 53.8915 1.69454 -5.22088 0
M  V30 589 H 54.1525 2.47011 -3.66658 0
M  V30 590 N 53.2116 1.57565 -0.0334293 0
M  V30 591 C 54.1586 2.10478 0.946981 0
M  V30 592 C 55.1286 1.00787 1.32027 0
M  V30 593 O 56.3136 1.28232 1.41284 0
M  V30 594 C 53.4536 2.63994 2.22263 0
M  V30 595 C 52.5666 3.87709 1.90541 0
M  V30 596 C 51.7016 4.29604 3.12433 0
M  V30 597 C 50.7406 5.46065 2.76549 0
M  V30 598 N 49.8776 5.83096 3.9108 0
M  V30 599 H 54.7176 2.93963 0.488846 0
M  V30 600 H 52.2546 1.45296 0.22969 0
M  V30 601 H 54.2126 2.93114 2.96884 0
M  V30 602 H 52.8426 1.83333 2.65685 0
M  V30 603 H 51.8946 3.65291 1.06144 0
M  V30 604 H 53.2066 4.72403 1.60116 0
M  V30 605 H 52.3606 4.60182 3.9537 0
M  V30 606 H 51.0996 3.43685 3.46023 0
M  V30 607 H 50.1046 5.15176 1.92026 0
M  V30 608 H 51.3296 6.33685 2.44171 0
M  V30 609 H 49.2756 5.00132 4.24504 0
M  V30 610 H 49.1926 6.6244 3.64293 0
M  V30 611 H 50.4606 6.18282 4.74708 0
M  V30 612 N 54.6897 -0.239769 1.55765 0
M  V30 613 C 55.9377 -0.964892 1.77579 0
M  V30 614 C 56.2587 -1.85582 0.598699 0
M  V30 615 O 55.5287 -1.92075 -0.385226 0
M  V30 616 H 54.1087 -0.359265 0.654933 0
M  V30 617 H 56.7707 -0.256001 1.93211 0
M  V30 618 H 55.8667 -1.58243 2.69009 0
M  V30 619 N 56.1678 -1.49265 -0.50573 0
M  V30 620 C 57.0998 -1.617 -1.62437 0
M  V30 621 C 58.1128 -0.499924 -1.54934 0
M  V30 622 O 59.3018 -0.771785 -1.60953 0
M  V30 623 C 56.4018 -1.5533 -3.01207 0
M  V30 624 C 55.5748 -2.8249 -3.33943 0
M  V30 625 C 54.6338 -2.69238 -4.52103 0
M  V30 626 O 53.6598 -3.43167 -4.5412 0
M  V30 627 N 54.8618 -1.80468 -5.51735 0
M  V30 628 H 57.6268 -2.58177 -1.52199 0
M  V30 629 H 55.1878 -1.46294 -0.693511 0
M  V30 630 H 57.1798 -1.44125 -3.78167 0
M  V30 631 H 55.7498 -0.667297 -3.05395 0
M  V30 632 H 54.9698 -3.08081 -2.45926 0
M  V30 633 H 56.2578 -3.66802 -3.5261 0
M  V30 634 H 55.6558 -1.19653 -5.52901 0
M  V30 635 H 54.2128 -1.75188 -6.27816 0
M  V30 636 N 57.6459 0.756429 -1.3826 0
M  V30 637 C 58.5959 1.86069 -1.31766 0
M  V30 638 C 59.5799 1.59621 -0.202483 0
M  V30 639 O 60.7719 1.7149 -0.438211 0
M  V30 640 C 57.9009 3.23742 -1.1422 0
M  V30 641 C 56.9869 3.56091 -2.30348 0
M  V30 642 N 57.3779 3.59517 -3.55783 0
M  V30 643 C 55.6759 3.86341 -2.22838 0
M  V30 644 C 56.3769 3.89052 -4.32451 0
M  V30 645 N 55.3529 4.05736 -3.61772 0
M  V30 646 H 59.1549 1.86992 -2.26741 0
M  V30 647 H 56.6689 0.953643 -1.31451 0
M  V30 648 H 58.6659 4.02761 -1.07652 0
M  V30 649 H 57.3259 3.24073 -0.201763 0
M  V30 650 H 58.3369 3.41347 -3.89491 0
M  V30 651 H 55.0139 3.94404 -1.36937 0
M  V30 652 H 56.4039 3.98349 -5.4108 0
M  V30 653 N 59.124 1.23083 0.984299 0
M  V30 654 C 60.071 1.00854 2.07598 0
M  V30 655 C 61.041 -0.0726709 1.65941 0
M  V30 656 O 62.226 0.0786535 1.90638 0
M  V30 657 C 59.366 0.601645 3.39815 0
M  V30 658 C 58.479 1.75456 3.94765 0
M  V30 659 C 57.614 1.29482 5.15177 0
M  V30 660 C 56.653 2.41873 5.62284 0
M  V30 661 N 55.79 1.96885 6.73929 0
M  V30 662 H 60.63 1.943 2.25946 0
M  V30 663 H 58.167 0.968001 1.10762 0
M  V30 664 H 60.125 0.346854 4.15756 0
M  V30 665 H 58.755 -0.295803 3.21442 0
M  V30 666 H 57.807 2.12346 3.15616 0
M  V30 667 H 59.119 2.59965 4.25699 0
M  V30 668 H 58.273 0.997923 5.98437 0
M  V30 669 H 57.012 0.420046 4.85888 0
M  V30 670 H 56.017 2.72342 4.77608 0
M  V30 671 H 57.242 3.29881 5.93595 0
M  V30 672 H 55.188 1.11782 6.46406 0
M  V30 673 H 55.105 2.74956 7.04227 0
M  V30 674 H 56.373 1.70289 7.60672 0
M  V30 675 N 60.6021 -1.18246 1.0419 0
M  V30 676 C 61.8271 -1.92736 0.765996 0
M  V30 677 C 62.2521 -1.75728 -0.67091 0
M  V30 678 O 61.6101 -1.06825 -1.46486 0
M  V30 679 C 61.6581 -3.42148 1.13875 0
M  V30 680 O 60.7621 -4.11548 0.264954 0
M  V30 681 H 60.1031 -0.601238 0.281797 0
M  V30 682 H 62.6331 -1.49942 1.39207 0
M  V30 683 H 62.6431 -3.92858 1.1012 0
M  V30 684 H 61.3181 -3.53848 2.18551 0
M  V30 685 H 59.8951 -3.71137 0.362226 0
M  V30 686 N 62.0802 -0.821533 -1.34494 0
M  V30 687 C 63.0272 -0.240397 -2.29545 0
M  V30 688 C 63.9972 0.634031 -1.53523 0
M  V30 689 O 65.1822 0.575966 -1.81899 0
M  V30 690 C 62.3222 0.592869 -3.39969 0
M  V30 691 C 61.4352 -0.30365 -4.30932 0
M  V30 692 C 60.5702 0.539049 -5.28458 0
M  V30 693 C 59.6092 -0.356942 -6.11058 0
M  V30 694 N 58.7462 0.446603 -7.00678 0
M  V30 695 H 63.5862 -1.05632 -2.7865 0
M  V30 696 H 61.1232 -0.532413 -1.37127 0
M  V30 697 H 63.0812 1.09129 -4.02675 0
M  V30 698 H 61.7112 1.37392 -2.92102 0
M  V30 699 H 60.7632 -0.920276 -3.691 0
M  V30 700 H 62.0752 -0.992661 -4.88823 0
M  V30 701 H 61.2292 1.102 -5.96608 0
M  V30 702 H 59.9682 1.26157 -4.71101 0
M  V30 703 H 58.9732 -0.932047 -5.41842 0
M  V30 704 H 60.1982 -1.07755 -6.70497 0
M  V30 705 H 58.1442 1.15282 -6.45791 0
M  V30 706 H 58.0612 -0.184048 -7.55776 0
M  V30 707 H 59.3292 0.992352 -7.73158 0
M  V30 708 N 63.5583 1.46682 -0.576371 0
M  V30 709 C 64.4683 2.34032 0.163141 0
M  V30 710 C 65.4843 1.49367 0.892501 0
M  V30 711 O 66.6603 1.82252 0.857106 0
M  V30 712 C 63.7253 3.26435 1.16795 0
M  V30 713 C 62.7863 4.26998 0.443944 0
M  V30 714 C 62.0193 5.14986 1.40088 0
M  V30 715 O 62.2423 5.05785 2.637 0
M  V30 716 O 61.1763 5.94906 0.914917 0
M  V30 717 H 65.0023 2.98607 -0.55388 0
M  V30 718 H 62.5873 1.45554 -0.336821 0
M  V30 719 H 64.4693 3.83459 1.74748 0
M  V30 720 H 63.1443 2.64465 1.86655 0
M  V30 721 H 62.0513 3.7368 -0.177271 0
M  V30 722 H 63.3843 4.91736 -0.213566 0
M  V30 723 N 65.0364 0.313813 1.54444 0
M  V30 724 C 66.2834 -0.291675 2.00388 0
M  V30 725 C 66.6114 -1.52904 1.2021 0
M  V30 726 O 65.8664 -1.93833 0.269707 0
M  V30 727 C 66.1654 -0.680386 3.50864 0
M  V30 728 C 65.8314 0.456699 4.48581 0
M  V30 729 C 64.4934 0.768824 4.75018 0
M  V30 730 C 66.8454 1.22098 5.06697 0
M  V30 731 C 64.1734 1.84812 5.56831 0
M  V30 732 C 66.5254 2.29029 5.89685 0
M  V30 733 C 65.1894 2.60834 6.14428 0
M  V30 734 H 64.4594 -0.106732 0.733273 0
M  V30 735 H 67.1064 0.43557 1.86481 0
M  V30 736 H 65.4114 -1.48791 3.62448 0
M  V30 737 H 67.1084 -1.16026 3.83847 0
M  V30 738 H 63.6984 0.203337 4.28117 0
M  V30 739 H 67.8824 0.993096 4.86263 0
M  V30 740 H 63.1384 2.09912 5.74236 0
M  V30 741 H 67.3124 2.887 6.33739 0
M  V30 742 H 64.9394 3.44596 6.77612 0
M  V30 743 N 66.5145 -1.57545 0.0417849 0
M  V30 744 C 67.4445 -2.14009 -0.933929 0
M  V30 745 C 68.4255 -1.05938 -1.33083 0
M  V30 746 O 69.6105 -1.33833 -1.40721 0
M  V30 747 C 66.7405 -2.67747 -2.21199 0
M  V30 748 C 65.6945 -3.80718 -1.95544 0
M  V30 749 C 65.0205 -4.20935 -3.29724 0
M  V30 750 C 66.3205 -5.06258 -1.28452 0
M  V30 751 H 68.0145 -2.95788 -0.463645 0
M  V30 752 H 65.5605 -1.42285 -0.221573 0
M  V30 753 H 67.5135 -3.05886 -2.89848 0
M  V30 754 H 66.2375 -1.83147 -2.70416 0
M  V30 755 H 64.8965 -3.43037 -1.2931 0
M  V30 756 H 64.5445 -3.33298 -3.76724 0
M  V30 757 H 64.2445 -4.9707 -3.13361 0
M  V30 758 H 65.7685 -4.61666 -3.9962 0
M  V30 759 H 67.1825 -5.41903 -1.8712 0
M  V30 760 H 65.5795 -5.87475 -1.22445 0
M  V30 761 H 66.6495 -4.84207 -0.259219 0
M  V30 762 N 67.9926 0.231505 -1.5589 0
M  V30 763 C 68.9246 1.31006 -1.8807 0
M  V30 764 C 69.9376 1.43539 -0.768145 0
M  V30 765 O 71.1266 1.44614 -1.04638 0
M  V30 766 C 68.2266 2.68688 -2.06543 0
M  V30 767 C 67.3996 2.78228 -3.37502 0
M  V30 768 C 66.4586 3.96857 -3.4553 0
M  V30 769 O 65.4846 3.85662 -4.18633 0
M  V30 770 N 66.6866 5.1072 -2.75944 0
M  V30 771 H 69.4516 1.03731 -2.81176 0
M  V30 772 H 67.0126 0.421573 -1.56315 0
M  V30 773 H 69.0046 3.46412 -2.09239 0
M  V30 774 H 67.5746 2.88605 -1.20109 0
M  V30 775 H 66.7946 1.87059 -3.46991 0
M  V30 776 H 68.0826 2.81564 -4.23791 0
M  V30 777 H 67.4806 5.2271 -2.16311 0
M  V30 778 H 66.0376 5.86523 -2.84314 0
M  V30 779 N 69.4707 1.49531 0.497807 0
M  V30 780 C 70.7197 1.58426 1.24837 0
M  V30 781 C 71.0327 0.277643 1.93619 0
M  V30 782 O 72.2387 0.24517 2.70391 0
M  V30 783 C 70.6947 2.79538 2.26686 0
M  V30 784 C 70.3027 4.16971 1.63828 0
M  V30 785 C 72.0467 2.97764 3.0255 0
M  V30 786 C 69.9537 5.29301 2.63807 0
M  V30 787 H 68.8837 0.58989 0.469623 0
M  V30 788 H 71.5347 1.75923 0.521857 0
M  V30 789 H 69.9167 2.55542 3.02514 0
M  V30 790 H 71.0907 4.51116 0.939711 0
M  V30 791 H 69.4057 4.04129 1.00342 0
M  V30 792 H 72.0027 3.78856 3.77323 0
M  V30 793 H 72.3457 2.08448 3.60354 0
M  V30 794 H 72.8787 3.21815 2.33838 0
M  V30 795 H 69.6177 6.20687 2.10779 0
M  V30 796 H 69.1377 4.99606 3.31894 0
M  V30 797 H 70.8167 5.58768 3.2617 0
M  V30 798 N 70.9488 -0.749086 1.3866 0
M  V30 799 C 71.8968 -1.88428 1.36373 0
M  V30 800 C 72.8908 -1.67561 0.248929 0
M  V30 801 O 74.0968 -1.75074 0.41821 0
M  V30 802 H 70.4718 -0.620023 0.42553 0
M  V30 803 H 72.4428 -1.87473 2.32156 0
M  V30 804 C 71.1918 -3.25961 1.21014 0
M  V30 805 H 70.5148 -3.42607 2.06059 0
M  V30 806 H 71.9548 -4.05625 1.23469 0
M  V30 807 C 70.4138 -3.36799 -0.0825941 0
M  V30 808 O 70.9438 -3.87517 -1.05797 0
M  V30 809 N 69.1498 -2.90258 -0.140939 0
M  V30 810 H 68.6968 -2.49174 0.653477 0
M  V30 811 H 68.6548 -2.97889 -1.00545 0
M  V30 812 N 72.4269 -1.23603 -0.977757 0
M  V30 813 C 73.6519 -1.09735 -1.75991 0
M  V30 814 C 74.0769 0.346858 -1.84874 0
M  V30 815 O 73.4349 1.25093 -1.3123 0
M  V30 816 C 73.4829 -1.73051 -3.16363 0
M  V30 817 O 72.5869 -0.994452 -4.0023 0
M  V30 818 H 71.9279 -0.384476 -0.541364 0
M  V30 819 H 74.4579 -1.6371 -1.2272 0
M  V30 820 H 74.4679 -1.78398 -3.66931 0
M  V30 821 H 73.1429 -2.78137 -3.09213 0
M  V30 822 H 71.7199 -1.01812 -3.58732 0
M  V30 823 N 73.905 1.17692 -1.04816 0
M  V30 824 C 74.835 2.23777 -0.666791 0
M  V30 825 C 75.816 1.66796 0.33361 0
M  V30 826 O 77.001 1.93039 0.212042 0
M  V30 827 C 74.131 3.47281 -0.0367933 0
M  V30 828 C 73.085 4.17059 -0.961546 0
M  V30 829 C 72.411 5.34342 -0.195626 0
M  V30 830 C 73.711 4.69713 -2.28402 0
M  V30 831 H 75.405 2.55933 -1.55367 0
M  V30 832 H 72.951 1.23019 -0.748484 0
M  V30 833 H 74.904 4.20706 0.241775 0
M  V30 834 H 73.628 3.14381 0.885004 0
M  V30 835 H 72.287 3.45541 -1.22462 0
M  V30 836 H 71.935 4.97692 0.728816 0
M  V30 837 H 71.635 5.81966 -0.811775 0
M  V30 838 H 73.159 6.10553 0.0757473 0
M  V30 839 H 74.573 5.34794 -2.06563 0
M  V30 840 H 72.97 5.279 -2.8538 0
M  V30 841 H 74.04 3.86726 -2.92525 0
M  V30 842 N 75.3831 0.828654 1.34056 0
M  V30 843 C 76.6311 0.41863 1.97717 0
M  V30 844 C 76.9521 -1.02314 1.66002 0
M  V30 845 O 76.2221 -1.71119 0.953683 0
M  V30 846 H 74.8021 0.151809 0.731412 0
M  V30 847 H 77.4641 1.05936 1.63596 0
M  V30 848 H 76.5601 0.542318 3.07352 0
M  V30 849 N 76.8612 -1.46375 0.584142 0
M  V30 850 C 77.8082 -2.30323 -0.148286 0
M  V30 851 C 78.7782 -1.40703 -0.882713 0
M  V30 852 O 79.9632 -1.69651 -0.873099 0
M  V30 853 C 77.1032 -3.25196 -1.15507 0
M  V30 854 C 76.2162 -4.29915 -0.423943 0
M  V30 855 C 75.3512 -5.11914 -1.41838 0
M  V30 856 C 74.3902 -6.08381 -0.673736 0
M  V30 857 N 73.5272 -6.83242 -1.6163 0
M  V30 858 H 78.3672 -2.92427 0.573644 0
M  V30 859 H 75.9042 -1.44118 0.294703 0
M  V30 860 H 77.8622 -3.78646 -1.75166 0
M  V30 861 H 76.4922 -2.64898 -1.8447 0
M  V30 862 H 75.5442 -3.7931 0.287714 0
M  V30 863 H 76.8562 -4.98549 0.158128 0
M  V30 864 H 76.0102 -5.69648 -2.08773 0
M  V30 865 H 74.7492 -4.43243 -2.03438 0
M  V30 866 H 73.7542 -5.49799 0.00938483 0
M  V30 867 H 74.9792 -6.79071 -0.0631082 0
M  V30 868 H 72.9252 -6.1728 -2.22038 0
M  V30 869 H 72.8422 -7.48144 -1.08707 0
M  V30 870 H 74.1102 -7.45534 -2.27596 0
M  V30 871 N 78.3393 -0.321999 -1.54275 0
M  V30 872 C 79.2693 0.537411 -2.27231 0
M  V30 873 C 80.2503 1.12064 -1.27968 0
M  V30 874 O 81.4353 1.14606 -1.56777 0
M  V30 875 C 78.5653 1.69919 -3.02894 0
M  V30 876 C 77.5193 1.24534 -4.09482 0
M  V30 877 C 76.8453 2.49394 -4.72977 0
M  V30 878 C 78.1453 0.361335 -5.21049 0
M  V30 879 H 79.8393 -0.0711406 -2.99315 0
M  V30 880 H 77.3853 -0.0356555 -1.43956 0
M  V30 881 H 79.3383 2.30668 -3.52662 0
M  V30 882 H 78.0623 2.33431 -2.28424 0
M  V30 883 H 76.7213 0.660782 -3.60596 0
M  V30 884 H 76.3693 3.11265 -3.95124 0
M  V30 885 H 76.0693 2.19718 -5.44975 0
M  V30 886 H 77.5933 3.10908 -5.25517 0
M  V30 887 H 79.0073 0.875072 -5.66582 0
M  V30 888 H 77.4043 0.157428 -5.99893 0
M  V30 889 H 78.4743 -0.60822 -4.8107 0
M  V30 890 N 79.8174 1.5752 -0.0501392 0
M  V30 891 C 81.2284 1.80271 0.485705 0
M  V30 892 C 81.5794 0.96228 1.70981 0
M  V30 893 O 80.7044 0.178578 2.15662 0
M  V30 894 C 81.2994 3.26957 0.887938 0
M  V30 895 C 79.8584 3.5063 1.36877 0
M  V30 896 C 79.0054 2.75165 0.343468 0
M  V30 897 H 81.9564 1.56281 -0.276028 0
M  V30 898 H 81.9774 3.37821 1.75093 0
M  V30 899 H 81.4894 3.881 -0.0031809 0
M  V30 900 H 79.5904 2.94766 2.27911 0
M  V30 901 H 79.7034 4.59343 1.36164 0
M  V30 902 H 78.0674 2.4127 0.816128 0
M  V30 903 H 78.8504 3.39034 -0.539548 0
M  V30 904 N 81.2955 -0.223234 1.56011 0
M  V30 905 C 82.5235 -0.964812 1.83027 0
M  V30 906 C 82.9385 -1.78013 0.62904 0
M  V30 907 O 82.2955 -1.78008 -0.402414 0
M  V30 908 C 82.3465 -1.88373 3.08542 0
M  V30 909 O 82.0675 -1.10137 4.2403 0
M  V30 910 C 83.5685 -2.73934 3.48533 0
M  V30 911 H 80.7885 -0.282842 0.608475 0
M  V30 912 H 83.3325 -0.238971 2.03099 0
M  V30 913 H 81.4875 -2.56354 2.9045 0
M  V30 914 H 81.9015 -1.72501 4.95322 0
M  V30 915 H 83.3755 -3.34117 4.39397 0
M  V30 916 H 83.8525 -3.46244 2.70207 0
M  V30 917 H 84.4585 -2.11369 3.69057 0
M  V30 918 N 82.7736 -1.49793 -0.48987 0
M  V30 919 C 83.7036 -1.70201 -1.59856 0
M  V30 920 C 84.6846 -0.55076 -1.60937 0
M  V30 921 O 85.8696 -0.787841 -1.77501 0
M  V30 922 C 82.9996 -1.77882 -2.98287 0
M  V30 923 C 81.9536 -2.92907 -3.12073 0
M  V30 924 C 81.2796 -2.85712 -4.51965 0
M  V30 925 C 82.5796 -4.3369 -2.91051 0
M  V30 926 H 84.2736 -2.63025 -1.43032 0
M  V30 927 H 81.8196 -1.26574 -0.686664 0
M  V30 928 H 83.7726 -1.90744 -3.75759 0
M  V30 929 H 82.4966 -0.816653 -3.16225 0
M  V30 930 H 81.1556 -2.79665 -2.37029 0
M  V30 931 H 80.8036 -1.8738 -4.66795 0
M  V30 932 H 80.5036 -3.62921 -4.62128 0
M  V30 933 H 82.0276 -3.00598 -5.31482 0
M  V30 934 H 83.4416 -4.47555 -3.58284 0
M  V30 935 H 81.8386 -5.12205 -3.12675 0
M  V30 936 H 82.9086 -4.47362 -1.87071 0
M  V30 937 N 84.2517 0.741722 -1.39055 0
M  V30 938 C 85.1987 1.85566 -1.37237 0
M  V30 939 C 86.1687 1.64457 -0.233072 0
M  V30 940 O 87.3537 1.85957 -0.427147 0
M  V30 941 C 84.4937 3.23004 -1.215 0
M  V30 942 C 83.6067 3.55864 -2.44918 0
M  V30 943 C 82.7417 4.82669 -2.21821 0
M  V30 944 C 81.7807 5.08351 -3.40948 0
M  V30 945 N 80.9177 6.26356 -3.17211 0
M  V30 946 H 85.7577 1.86455 -2.32462 0
M  V30 947 H 83.2947 0.911176 -1.15482 0
M  V30 948 H 85.2527 4.02331 -1.10389 0
M  V30 949 H 83.8827 3.21411 -0.29908 0
M  V30 950 H 82.9347 2.7129 -2.66657 0
M  V30 951 H 84.2467 3.70765 -3.33668 0
M  V30 952 H 83.4007 5.69962 -2.07914 0
M  V30 953 H 82.1397 4.69929 -1.30454 0
M  V30 954 H 81.1447 4.19522 -3.55361 0
M  V30 955 H 82.3697 5.22981 -4.33207 0
M  V30 956 H 80.3157 6.14917 -2.28502 0
M  V30 957 H 80.2327 6.41813 -3.99515 0
M  V30 958 H 81.5007 7.16506 -3.06984 0
M  V30 959 N 85.7298 1.2412 0.971189 0
M  V30 960 C 87.0068 0.986867 1.6888 0
M  V30 961 C 87.3868 -0.491857 2.0529 0
M  V30 962 O 86.7348 -1.46531 1.75331 0
M  V30 963 C 86.9448 1.9063 2.92338 0
M  V30 964 C 88.2928 2.17515 3.64654 0
M  V30 965 O 89.3168 1.88254 3.02388 0
M  V30 966 O 88.1758 2.6719 4.7673 0
M  V30 967 H 85.2698 0.372944 0.738134 0
M  V30 968 H 87.8158 1.35203 1.02559 0
M  V30 969 H 86.5878 2.90552 2.62097 0
M  V30 970 H 86.2108 1.54408 3.66393 0
M  V30 971 N 87.2079 -1.17134 1.05439 0
M  V30 972 C 88.4559 -1.87085 0.764429 0
M  V30 973 C 88.7769 -1.81584 -0.710787 0
M  V30 974 O 88.0469 -1.24349 -1.51374 0
M  V30 975 H 86.6269 -0.692627 0.279779 0
M  V30 976 H 89.2889 -1.42087 1.33406 0
M  V30 977 H 88.3849 -2.92759 1.0816 0
M  V30 978 N 88.686 -0.835752 -1.33615 0
M  V30 979 C 89.963 -0.352017 -1.92406 0
M  V30 980 C 90.343 1.16225 -1.76224 0
M  V30 981 O 89.691 1.97526 -1.14873 0
M  V30 982 C 89.901 -0.795485 -3.39813 0
M  V30 983 C 91.249 -0.801703 -4.16963 0
M  V30 984 O 92.273 -0.738889 -3.48452 0
M  V30 985 O 91.132 -0.886607 -5.3926 0
M  V30 986 H 88.226 -0.0989641 -0.821057 0
M  V30 987 H 90.772 -0.921397 -1.42507 0
M  V30 988 H 89.544 -1.83795 -3.45449 0
M  V30 989 H 89.167 -0.202505 -3.97084 0
M  V30 990 N 90.1641 1.46063 -0.591896 0
M  V30 991 C 91.4111 2.02338 -0.0809991 0
M  V30 992 C 91.7391 1.46228 1.28249 0
M  V30 993 O 90.9941 0.620818 1.85592 0
M  V30 994 C 91.2931 3.57391 0.0249813 0
M  V30 995 C 90.9591 4.32583 -1.27211 0
M  V30 996 C 89.6211 4.52844 -1.62745 0
M  V30 997 C 91.9731 4.75687 -2.13005 0
M  V30 998 C 89.3011 5.13462 -2.83855 0
M  V30 999 C 91.6531 5.37644 -3.3335 0
M  V30 1000 C 90.3171 5.5613 -3.69155 0
M  V30 1001 H 89.5871 0.740407 -0.0296397 0
M  V30 1002 H 92.2341 1.75321 -0.770374 0
M  V30 1003 H 90.5391 3.83597 0.797537 0
M  V30 1004 H 92.2361 3.98621 0.436184 0
M  V30 1005 H 88.8261 4.17116 -0.985499 0
M  V30 1006 H 93.0101 4.59782 -1.86855 0
M  V30 1007 H 88.2661 5.25965 -3.11722 0
M  V30 1008 H 92.4401 5.7 -4.00092 0
M  V30 1009 H 90.0671 6.0287 -4.63089 0
M  V30 1010 N 91.6422 0.330177 1.54103 0
M  V30 1011 C 92.8912 -0.271336 1.99867 0
M  V30 1012 C 93.2042 -1.52723 1.22209 0
M  V30 1013 O 94.4102 -2.20515 1.58383 0
M  V30 1014 C 92.8662 -0.534032 3.55916 0
M  V30 1015 C 92.4742 0.705193 4.42415 0
M  V30 1016 C 94.2182 -1.09514 4.1013 0
M  V30 1017 C 92.1252 0.414035 5.89949 0
M  V30 1018 H 91.0552 -0.105166 0.74663 0
M  V30 1019 H 93.7062 0.443429 1.78062 0
M  V30 1020 H 92.0882 -1.30915 3.73734 0
M  V30 1021 H 93.2622 1.4804 4.36372 0
M  V30 1022 H 91.5772 1.18698 3.99124 0
M  V30 1023 H 94.1742 -1.3277 5.17954 0
M  V30 1024 H 94.5172 -2.04656 3.62521 0
M  V30 1025 H 95.0502 -0.381038 3.95971 0
M  V30 1026 H 91.7892 1.33481 6.41766 0
M  V30 1027 H 91.3092 -0.323336 5.98928 0
M  V30 1028 H 92.9882 0.0263105 6.46995 0
M  V30 1029 N 93.1203 -1.57491 0.0584922 0
M  V30 1030 C 94.0503 -2.14988 -0.911178 0
M  V30 1031 C 95.0313 -1.07343 -1.31952 0
M  V30 1032 O 96.2163 -1.35318 -1.39294 0
M  V30 1033 C 93.3463 -2.70078 -2.18347 0
M  V30 1034 C 92.3003 -3.82771 -1.91495 0
M  V30 1035 C 91.6263 -4.24408 -3.25241 0
M  V30 1036 C 92.9263 -5.07592 -1.23075 0
M  V30 1037 H 94.6203 -2.96263 -0.432246 0
M  V30 1038 H 92.1663 -1.42512 -0.206469 0
M  V30 1039 H 94.1193 -3.08943 -2.86587 0
M  V30 1040 H 92.8433 -1.86005 -2.68458 0
M  V30 1041 H 91.5023 -3.44389 -1.25664 0
M  V30 1042 H 91.1503 -3.37275 -3.73168 0
M  V30 1043 H 90.8503 -5.00366 -3.08071 0
M  V30 1044 H 92.3743 -4.65879 -3.94701 0
M  V30 1045 H 93.7883 -5.43857 -1.81362 0
M  V30 1046 H 92.1853 -5.88741 -1.16207 0
M  V30 1047 H 93.2553 -4.84454 -0.207847 0
M  V30 1048 N 94.5984 0.214957 -1.56127 0
M  V30 1049 C 95.8264 0.955092 -1.83536 0
M  V30 1050 C 96.2414 1.77677 -0.638472 0
M  V30 1051 O 95.5984 1.78219 0.392968 0
M  V30 1052 C 95.6494 1.86734 -3.09536 0
M  V30 1053 O 95.3704 1.07887 -4.24608 0
M  V30 1054 C 96.8714 2.72082 -3.4998 0
M  V30 1055 H 94.0914 0.279611 -0.609966 0
M  V30 1056 H 96.6354 0.228197 -2.03223 0
M  V30 1057 H 94.7904 2.5481 -2.91806 0
M  V30 1058 H 95.2044 1.69872 -4.9623 0
M  V30 1059 H 96.6784 3.31782 -4.41163 0
M  V30 1060 H 97.1554 3.44806 -2.7204 0
M  V30 1061 H 97.7614 2.09409 -3.70173 0
M  V30 1062 N 96.0765 1.50051 0.48192 0
M  V30 1063 C 96.9865 1.7089 1.60728 0
M  V30 1064 C 98.0025 0.591788 1.63627 0
M  V30 1065 O 99.1785 0.868817 1.81696 0
M  V30 1066 C 96.2435 1.78855 2.97005 0
M  V30 1067 C 95.3045 3.02537 3.04581 0
M  V30 1068 C 94.5375 3.10112 4.34357 0
M  V30 1069 O 94.7605 2.24765 5.24249 0
M  V30 1070 O 93.6945 4.02747 4.47301 0
M  V30 1071 H 97.5205 2.66264 1.46072 0
M  V30 1072 H 95.1055 1.34018 0.660264 0
M  V30 1073 H 96.9875 1.86336 3.77964 0
M  V30 1074 H 95.6625 0.866628 3.11883 0
M  V30 1075 H 94.5695 3.00563 2.22739 0
M  V30 1076 H 95.9025 3.94272 2.94636 0
M  V30 1077 N 97.5546 -0.734337 1.39446 0
M  V30 1078 C 98.7796 -1.52866 1.40167 0
M  V30 1079 C 99.2046 -1.881 -0.00171513 0
M  V30 1080 O 98.5626 -1.51957 -0.988879 0
M  V30 1081 C 98.6106 -2.79235 2.28167 0
M  V30 1082 O 97.7146 -3.75185 1.71201 0
M  V30 1083 H 97.0556 -0.461618 0.477289 0
M  V30 1084 H 99.5856 -0.905949 1.8345 0
M  V30 1085 H 99.5956 -3.27963 2.42702 0
M  V30 1086 H 98.2706 -2.52923 3.30156 0
M  V30 1087 H 96.8476 -3.33958 1.65912 0
M  V30 1088 N 99.0327 -1.24633 -0.964593 0
M  V30 1089 C 100.258 -1.11596 -1.74818 0
M  V30 1090 C 100.683 0.32723 -1.85232 0
M  V30 1091 O 100.041 1.23695 -1.32549 0
M  V30 1092 C 100.089 -1.76397 -3.1451 0
M  V30 1093 O 99.1927 -1.03685 -3.99153 0
M  V30 1094 H 98.5337 -0.390196 -0.537255 0
M  V30 1095 H 101.064 -1.65002 -1.20977 0
M  V30 1096 H 101.074 -1.8228 -3.65018 0
M  V30 1097 H 99.7487 -2.81401 -3.06246 0
M  V30 1098 H 98.3257 -1.05611 -3.57632 0
M  V30 1099 N 100.511 1.16574 -1.06058 0
M  V30 1100 C 101.474 2.19085 -0.673392 0
M  V30 1101 C 102.474 1.5835 0.279648 0
M  V30 1102 O 103.664 1.74088 0.0623488 0
M  V30 1103 C 100.796 3.40899 0.00954234 0
M  V30 1104 H 101.989 2.54853 -1.58081 0
M  V30 1105 H 99.5418 1.30808 -0.855516 0
M  V30 1106 H 100.277 3.10684 0.929826 0
M  V30 1107 H 100.062 3.86233 -0.67573 0
M  V30 1108 H 101.552 4.1675 0.266245 0
M  V30 1109 N 101.989 0.842826 1.3317 0
M  V30 1110 C 103.238 0.436738 1.96915 0
M  V30 1111 C 103.551 -1.01025 1.67491 0
M  V30 1112 O 104.757 -1.5212 2.24881 0
M  V30 1113 C 103.213 0.730021 3.52418 0
M  V30 1114 C 102.821 2.19195 3.90714 0
M  V30 1115 C 104.565 0.391076 4.22695 0
M  V30 1116 C 102.472 2.42907 5.39212 0
M  V30 1117 H 101.402 0.15958 0.736919 0
M  V30 1118 H 104.053 1.03196 1.51733 0
M  V30 1119 H 102.435 0.0643755 3.95948 0
M  V30 1120 H 103.609 2.8984 3.58231 0
M  V30 1121 H 101.924 2.49425 3.33431 0
M  V30 1122 H 104.521 0.545817 5.31907 0
M  V30 1123 H 104.864 -0.666294 4.10933 0
M  V30 1124 H 105.397 1.01212 3.84709 0
M  V30 1125 H 102.136 3.47224 5.55982 0
M  V30 1126 H 101.656 1.76827 5.73142 0
M  V30 1127 H 103.335 2.2626 6.06148 0
M  V30 1128 N 103.467 -1.45747 0.599634 0
M  V30 1129 C 104.397 -2.33235 -0.111306 0
M  V30 1130 C 105.378 -1.46359 -0.866781 0
M  V30 1131 O 106.563 -1.75146 -0.838904 0
M  V30 1132 C 103.693 -3.28932 -1.11451 0
M  V30 1133 C 102.647 -4.25381 -0.472772 0
M  V30 1134 C 101.973 -5.1071 -1.58365 0
M  V30 1135 C 103.273 -5.18831 0.600948 0
M  V30 1136 H 104.967 -2.92927 0.61919 0
M  V30 1137 H 102.513 -1.40857 0.299215 0
M  V30 1138 H 104.466 -3.89002 -1.62036 0
M  V30 1139 H 103.19 -2.67381 -1.8755 0
M  V30 1140 H 101.849 -3.66598 0.0121472 0
M  V30 1141 H 101.497 -4.45533 -2.33473 0
M  V30 1142 H 101.197 -5.7604 -1.15982 0
M  V30 1143 H 102.721 -5.73647 -2.09194 0
M  V30 1144 H 104.135 -5.73019 0.179491 0
M  V30 1145 H 102.532 -5.92595 0.946076 0
M  V30 1146 H 103.602 -4.6174 1.48068 0
M  V30 1147 N 104.945 -0.338344 -1.53925 0
M  V30 1148 C 106.194 0.260732 -2.00008 0
M  V30 1149 C 106.507 1.52073 -1.23017 0
M  V30 1150 O 107.713 2.19672 -1.5955 0
M  V30 1151 C 106.169 0.51515 -3.56194 0
M  V30 1152 C 105.777 -0.728645 -4.42035 0
M  V30 1153 C 107.521 1.07337 -4.10706 0
M  V30 1154 C 105.428 -0.445315 -5.89721 0
M  V30 1155 H 104.358 0.101205 -0.747177 0
M  V30 1156 H 107.009 -0.452866 -1.77824 0
M  V30 1157 H 105.391 1.28932 -3.74423 0
M  V30 1158 H 106.565 -1.50352 -4.35581 0
M  V30 1159 H 104.88 -1.20813 -3.98489 0
M  V30 1160 H 107.477 1.30022 -5.18651 0
M  V30 1161 H 107.82 2.0273 -3.63602 0
M  V30 1162 H 108.353 0.360034 -3.96167 0
M  V30 1163 H 105.092 -1.36883 -6.41049 0
M  V30 1164 H 104.612 0.291569 -5.99091 0
M  V30 1165 H 106.291 -0.0606218 -6.46972 0
M  V30 1166 N 106.423 1.57458 -0.0668435 0
M  V30 1167 C 107.653 1.97337 0.611677 0
M  V30 1168 C 108.061 0.943744 1.63982 0
M  V30 1169 O 107.404 -0.0785584 1.83532 0
M  V30 1170 C 107.466 3.33511 1.34205 0
M  V30 1171 C 107.13 4.54598 0.467941 0
M  V30 1172 C 108.127 5.19186 -0.272439 0
M  V30 1173 C 105.812 5.0075 0.39427 0
M  V30 1174 C 107.806 6.28274 -1.07476 0
M  V30 1175 C 105.493 6.09711 -0.411729 0
M  V30 1176 C 106.491 6.73335 -1.14492 0
M  V30 1177 O 106.179 7.80199 -1.93763 0
M  V30 1178 H 105.911 0.654042 0.170893 0
M  V30 1179 H 108.465 2.04961 -0.134289 0
M  V30 1180 H 106.695 3.22487 2.13398 0
M  V30 1181 H 108.384 3.58029 1.91233 0
M  V30 1182 H 109.15 4.84477 -0.225086 0
M  V30 1183 H 105.029 4.51009 0.954569 0
M  V30 1184 H 108.573 6.77866 -1.64755 0
M  V30 1185 H 104.47 6.43854 -0.460664 0
M  V30 1186 H 105.238 7.97053 -1.86142 0
M  V30 1187 N 107.901 -0.206675 1.56239 0
M  V30 1188 C 108.831 -1.25909 1.96645 0
M  V30 1189 C 109.812 -1.48097 0.836734 0
M  V30 1190 O 110.997 -1.6003 1.10019 0
M  V30 1191 C 108.127 -2.6058 2.29599 0
M  V30 1192 C 107.081 -2.53024 3.452 0
M  V30 1193 C 106.407 -3.91861 3.63798 0
M  V30 1194 C 107.707 -2.06524 4.79734 0
M  V30 1195 H 109.401 -0.923369 2.84806 0
M  V30 1196 H 106.947 -0.442735 1.37025 0
M  V30 1197 H 108.9 -3.34375 2.56459 0
M  V30 1198 H 107.624 -2.95869 1.38307 0
M  V30 1199 H 106.283 -1.81684 3.18412 0
M  V30 1200 H 105.931 -4.24483 2.69857 0
M  V30 1201 H 105.631 -3.87683 4.4156 0
M  V30 1202 H 107.155 -4.67296 3.93022 0
M  V30 1203 H 108.569 -2.70072 5.05702 0
M  V30 1204 H 106.966 -2.13374 5.60885 0
M  V30 1205 H 108.036 -1.01802 4.74093 0
M  V30 1206 N 109.379 -1.50304 -0.473955 0
M  V30 1207 C 110.604 -1.65175 -1.25427 0
M  V30 1208 C 111.029 -0.333673 -1.85117 0
M  V30 1209 O 110.387 0.702114 -1.67153 0
M  V30 1210 C 110.435 -2.74295 -2.34082 0
M  V30 1211 O 109.539 -2.35349 -3.38651 0
M  V30 1212 H 108.88 -0.551944 -0.369126 0
M  V30 1213 H 111.41 -1.96662 -0.564364 0
M  V30 1214 H 111.42 -2.97285 -2.79438 0
M  V30 1215 H 110.095 -3.69959 -1.90008 0
M  V30 1216 H 108.672 -2.22794 -2.99027 0
M  V30 1217 N 110.857 0.726932 -1.39834 0
M  V30 1218 C 112.097 1.4992 -1.38936 0
M  V30 1219 C 112.461 1.91996 0.0126883 0
M  V30 1220 O 113.662 2.68399 0.146715 0
M  V30 1221 C 111.933 2.70013 -2.34153 0
M  V30 1222 S 113.492 3.59563 -2.51515 0
M  V30 1223 H 110.31 0.51271 -0.492595 0
M  V30 1224 H 112.912 0.85107 -1.76003 0
M  V30 1225 H 111.616 2.37254 -3.34871 0
M  V30 1226 H 111.147 3.39748 -1.98331 0
M  V30 1227 H 113.162 4.63973 -1.75909 0
M  V30 1228 N 112.336 1.25143 0.95797 0
M  V30 1229 C 113.283 1.05235 2.05412 0
M  V30 1230 C 114.253 -0.0374561 1.66058 0
M  V30 1231 O 115.438 0.119073 1.90428 0
M  V30 1232 C 112.578 0.673589 3.38462 0
M  V30 1233 C 111.691 1.8379 3.90954 0
M  V30 1234 C 110.826 1.40381 5.12315 0
M  V30 1235 C 109.865 2.53746 5.57027 0
M  V30 1236 N 109.002 2.11136 6.69601 0
M  V30 1237 H 113.842 1.99048 2.21774 0
M  V30 1238 H 111.379 0.991277 1.08683 0
M  V30 1239 H 113.337 0.434964 4.14926 0
M  V30 1240 H 111.967 -0.227554 3.21997 0
M  V30 1241 H 111.019 2.18992 3.11041 0
M  V30 1242 H 112.331 2.68937 4.20089 0
M  V30 1243 H 111.485 1.12464 5.96185 0
M  V30 1244 H 110.224 0.523015 4.84887 0
M  V30 1245 H 109.229 2.82412 4.71724 0
M  V30 1246 H 110.454 3.42398 5.86464 0
M  V30 1247 H 108.4 1.25468 6.4389 0
M  V30 1248 H 108.317 2.89832 6.98236 0
M  V30 1249 H 109.585 1.86385 7.56889 0
M  V30 1250 N 113.814 -1.1601 1.06675 0
M  V30 1251 C 115.044 -1.90251 0.805497 0
M  V30 1252 C 115.452 -1.77891 -0.64431 0
M  V30 1253 O 114.795 -1.12383 -1.45313 0
M  V30 1254 C 114.857 -3.41419 1.12576 0
M  V30 1255 C 114.521 -3.77564 2.57477 0
M  V30 1256 C 115.518 -3.79161 3.55715 0
M  V30 1257 C 113.203 -4.08079 2.92877 0
M  V30 1258 C 115.197 -4.10767 4.8739 0
M  V30 1259 C 112.884 -4.39351 4.24751 0
M  V30 1260 C 113.882 -4.40675 5.21818 0
M  V30 1261 O 113.57 -4.71202 6.51325 0
M  V30 1262 H 113.302 -0.610018 0.291297 0
M  V30 1263 H 115.856 -1.47958 1.4247 0
M  V30 1264 H 114.086 -3.84079 0.449503 0
M  V30 1265 H 115.775 -3.9694 0.84814 0
M  V30 1266 H 116.541 -3.55693 3.29708 0
M  V30 1267 H 112.42 -4.06211 2.17976 0
M  V30 1268 H 115.964 -4.11715 5.63148 0
M  V30 1269 H 111.861 -4.62285 4.50514 0
M  V30 1270 H 112.629 -4.88996 6.56373 0
M  V30 1271 N 115.292 -0.849877 -1.32721 0
M  V30 1272 C 116.224 -0.248332 -2.27851 0
M  V30 1273 C 117.237 0.577218 -1.52224 0
M  V30 1274 O 118.426 0.402489 -1.73903 0
M  V30 1275 C 115.526 0.668107 -3.32249 0
M  V30 1276 C 114.699 -0.120534 -4.37234 0
M  V30 1277 C 113.758 0.720932 -5.21238 0
M  V30 1278 O 112.784 0.156166 -5.68986 0
M  V30 1279 N 113.986 2.03647 -5.43607 0
M  V30 1280 H 116.751 -1.06575 -2.80111 0
M  V30 1281 H 114.312 -0.709395 -1.45531 0
M  V30 1282 H 116.304 1.23627 -3.85355 0
M  V30 1283 H 114.874 1.38621 -2.80184 0
M  V30 1284 H 114.094 -0.870108 -3.84477 0
M  V30 1285 H 115.382 -0.662406 -5.0447 0
M  V30 1286 H 114.78 2.51871 -5.06535 0
M  V30 1287 H 113.337 2.55287 -5.99727 0
M  V30 1288 N 116.77 1.45427 -0.607355 0
M  V30 1289 C 117.998 2.06614 -0.108814 0
M  V30 1290 C 118.413 1.45204 1.2067 0
M  V30 1291 O 117.77 0.566132 1.73497 0
M  V30 1292 C 117.821 3.61481 0.0375347 0
M  V30 1293 O 117.542 4.20598 -1.22593 0
M  V30 1294 C 119.043 4.39652 0.567561 0
M  V30 1295 H 116.263 0.66747 -0.0687351 0
M  V30 1296 H 118.807 1.86675 -0.835022 0
M  V30 1297 H 116.962 3.80762 0.714068 0
M  V30 1298 H 117.376 5.1377 -1.05547 0
M  V30 1299 H 118.85 5.48518 0.61905 0
M  V30 1300 H 119.327 4.09417 1.58978 0
M  V30 1301 H 119.933 4.25234 -0.0749202 0
M  V30 1302 N 118.248 0.346503 1.53744 0
M  V30 1303 C 119.659 -0.136779 1.86198 0
M  V30 1304 C 120.01 -1.49749 1.26766 0
M  V30 1305 O 119.135 -2.08417 0.582355 0
M  V30 1306 C 119.73 -0.254966 3.37839 0
M  V30 1307 C 118.289 -0.682482 3.70161 0
M  V30 1308 C 117.436 0.181981 2.76702 0
M  V30 1309 H 120.387 0.565994 1.48264 0
M  V30 1310 H 120.408 -1.08195 3.64793 0
M  V30 1311 H 119.92 0.735526 3.81066 0
M  V30 1312 H 118.021 -1.68189 3.3248 0
M  V30 1313 H 118.134 -0.470326 4.76786 0
M  V30 1314 H 116.498 -0.34615 2.52337 0
M  V30 1315 H 117.281 1.16966 3.2276 0
M  V30 1316 N 119.726 -1.57421 0.075193 0
M  V30 1317 C 121.003 -1.85029 -0.634329 0
M  V30 1318 C 121.383 -0.968305 -1.87582 0
M  V30 1319 O 120.731 -0.0354749 -2.28472 0
M  V30 1320 C 120.941 -3.35286 -0.968742 0
M  V30 1321 C 122.289 -4.02875 -1.34077 0
M  V30 1322 O 123.313 -3.40051 -1.06037 0
M  V30 1323 O 122.172 -5.13691 -1.86506 0
M  V30 1324 H 119.266 -0.7645 -0.315387 0
M  V30 1325 H 121.812 -1.69366 0.106382 0
M  V30 1326 H 120.584 -3.91203 -0.0871376 0
M  V30 1327 H 120.207 -3.56223 -1.7661 0
M  V30 1328 N 121.204 0.198386 -1.56346 0
M  V30 1329 C 122.154 1.2499 -1.90687 0
M  V30 1330 C 123.138 1.41158 -0.772217 0
M  V30 1331 O 124.33 1.43584 -1.03502 0
M  V30 1332 C 121.459 2.59542 -2.24706 0
M  V30 1333 C 120.545 2.47181 -3.44619 0
M  V30 1334 N 120.936 2.04495 -4.62618 0
M  V30 1335 C 119.234 2.78082 -3.48692 0
M  V30 1336 C 119.935 2.03945 -5.44776 0
M  V30 1337 N 118.911 2.45323 -4.85095 0
M  V30 1338 H 122.713 0.911149 -2.7942 0
M  V30 1339 H 120.227 0.40684 -1.57221 0
M  V30 1340 H 122.224 3.3549 -2.47491 0
M  V30 1341 H 120.884 2.94244 -1.37298 0
M  V30 1342 H 121.895 1.75256 -4.87345 0
M  V30 1343 H 118.572 3.17002 -2.71691 0
M  V30 1344 H 119.962 1.72872 -6.4928 0
M  V30 1345 N 122.682 1.50554 0.465978 0
M  V30 1346 C 123.928 1.63006 1.21658 0
M  V30 1347 C 124.283 0.328613 1.89573 0
M  V30 1348 O 123.576 -0.673813 1.79361 0
M  V30 1349 C 123.77 2.75152 2.28093 0
M  V30 1350 C 123.599 4.16075 1.7062 0
M  V30 1351 C 122.369 4.82408 1.50368 0
M  V30 1352 C 124.567 5.00145 1.1983 0
M  V30 1353 N 122.549 6.07532 0.881924 0
M  V30 1354 C 123.92 6.16035 0.700083 0
M  V30 1355 C 125.975 4.85882 1.08733 0
M  V30 1356 C 124.678 7.19228 0.101835 0
M  V30 1357 C 126.704 5.89257 0.503016 0
M  V30 1358 C 126.066 7.04398 0.0152005 0
M  V30 1359 H 122.165 0.650596 0.433877 0
M  V30 1360 H 124.749 1.8769 0.517746 0
M  V30 1361 H 122.92 2.52181 2.95397 0
M  V30 1362 H 124.652 2.76935 2.95109 0
M  V30 1363 H 121.407 4.39788 1.75737 0
M  V30 1364 H 121.831 6.7443 0.589312 0
M  V30 1365 H 126.473 3.97144 1.4504 0
M  V30 1366 H 124.191 8.07637 -0.273426 0
M  V30 1367 H 127.777 5.80286 0.419451 0
M  V30 1368 H 126.657 7.83021 -0.429856 0
M  V30 1369 N 124.16 -0.719506 1.40217 0
M  V30 1370 C 125.39 -1.50646 1.41384 0
M  V30 1371 C 125.798 -1.89197 0.0107743 0
M  V30 1372 O 125.141 -1.55709 -0.974708 0
M  V30 1373 C 125.203 -2.81405 2.23722 0
M  V30 1374 C 124.867 -2.65199 3.72181 0
M  V30 1375 C 125.864 -2.32717 4.64907 0
M  V30 1376 C 123.549 -2.81586 4.1595 0
M  V30 1377 C 125.543 -2.16827 5.99387 0
M  V30 1378 C 123.23 -2.65313 5.50502 0
M  V30 1379 C 124.228 -2.32981 6.42035 0
M  V30 1380 O 123.916 -2.16827 7.74107 0
M  V30 1381 H 123.648 -0.471606 0.484318 0
M  V30 1382 H 126.202 -0.895456 1.84853 0
M  V30 1383 H 124.432 -3.44823 1.75026 0
M  V30 1384 H 126.121 -3.43102 2.16878 0
M  V30 1385 H 126.887 -2.19694 4.32388 0
M  V30 1386 H 122.766 -3.0574 3.45027 0
M  V30 1387 H 126.31 -1.91513 6.70797 0
M  V30 1388 H 122.207 -2.7792 5.82607 0
M  V30 1389 H 122.975 -2.31778 7.84998 0
M  V30 1390 N 125.638 -1.25649 -0.95132 0
M  V30 1391 C 127.049 -1.09654 -1.51106 0
M  V30 1392 C 127.4 0.326615 -1.93462 0
M  V30 1393 O 126.525 1.21697 -1.78938 0
M  V30 1394 C 127.12 -1.98437 -2.74605 0
M  V30 1395 C 125.679 -1.86618 -3.2688 0
M  V30 1396 C 124.826 -1.9239 -1.99703 0
M  V30 1397 H 127.777 -1.38887 -0.767865 0
M  V30 1398 H 127.798 -1.5263 -3.48546 0
M  V30 1399 H 127.31 -3.02009 -2.43746 0
M  V30 1400 H 125.411 -0.859421 -3.62553 0
M  V30 1401 H 125.524 -2.71607 -3.94673 0
M  V30 1402 H 123.888 -1.36317 -2.15151 0
M  V30 1403 H 124.671 -2.97573 -1.71188 0
M  V30 1404 N 127.117 1.15442 -1.07289 0
M  V30 1405 C 128.342 1.90638 -0.816828 0
M  V30 1406 C 128.767 1.77445 0.624083 0
M  V30 1407 O 128.125 1.10671 1.43602 0
M  V30 1408 C 128.173 3.39008 -1.22906 0
M  V30 1409 O 127.277 4.10701 -0.373975 0
M  V30 1410 H 126.618 0.593555 -0.297638 0
M  V30 1411 H 129.148 1.46198 -1.43134 0
M  V30 1412 H 129.158 3.89801 -1.20497 0
M  V30 1413 H 127.833 3.47929 -2.27856 0
M  V30 1414 H 126.41 3.70046 -0.460499 0
M  V30 1415 N 128.595 0.856903 1.32268 0
M  V30 1416 C 129.872 0.382583 1.91822 0
M  V30 1417 C 130.252 -1.13407 1.78051 0
M  V30 1418 O 129.6 -1.95673 1.18001 0
M  V30 1419 C 129.81 0.849446 3.38505 0
M  V30 1420 C 131.158 0.867936 4.15634 0
M  V30 1421 O 132.182 0.794232 3.47232 0
M  V30 1422 O 131.041 0.972286 5.37781 0
M  V30 1423 H 128.135 0.112014 0.819379 0
M  V30 1424 H 130.681 0.943952 1.41024 0
M  V30 1425 H 129.453 1.89267 3.42482 0
M  V30 1426 H 129.076 0.265652 3.96712 0
M  V30 1427 N 130.073 -1.45103 0.615059 0
M  V30 1428 C 131.003 -2.33339 -0.0865619 0
M  V30 1429 C 131.984 -1.4727 -0.851209 0
M  V30 1430 O 133.169 -1.76026 -0.820281 0
M  V30 1431 C 130.299 -3.30095 -1.07956 0
M  V30 1432 C 129.253 -4.25858 -0.427628 0
M  V30 1433 C 128.579 -5.12361 -1.5294 0
M  V30 1434 C 129.879 -5.18165 0.655944 0
M  V30 1435 H 131.573 -2.92254 0.650224 0
M  V30 1436 H 129.119 -1.40532 0.314138 0
M  V30 1437 H 131.072 -3.90698 -1.57901 0
M  V30 1438 H 129.796 -2.69355 -1.84703 0
M  V30 1439 H 128.455 -3.66564 0.0510292 0
M  V30 1440 H 128.103 -4.47984 -2.28734 0
M  V30 1441 H 127.803 -5.77238 -1.09865 0
M  V30 1442 H 129.327 -5.75833 -2.03098 0
M  V30 1443 H 130.741 -5.72796 0.240257 0
M  V30 1444 H 129.138 -5.91559 1.00888 0
M  V30 1445 H 130.208 -4.60144 1.52957 0
M  V30 1446 N 131.551 -0.354651 -1.53558 0
M  V30 1447 C 132.483 0.5315 -2.22952 0
M  V30 1448 C 133.496 1.05503 -1.23988 0
M  V30 1449 O 134.685 0.963279 -1.50277 0
M  V30 1450 C 131.785 1.74538 -2.90499 0
M  V30 1451 C 130.958 1.35524 -4.15875 0
M  V30 1452 C 130.017 2.42999 -4.66731 0
M  V30 1453 O 129.043 2.05844 -5.30676 0
M  V30 1454 N 130.245 3.74423 -4.43608 0
M  V30 1455 H 133.01 -0.0628615 -2.99634 0
M  V30 1456 H 130.571 -0.179302 -1.60904 0
M  V30 1457 H 132.563 2.45892 -3.21433 0
M  V30 1458 H 131.133 2.24686 -2.17336 0
M  V30 1459 H 130.353 0.471998 -3.91364 0
M  V30 1460 H 131.641 1.07071 -4.97406 0
M  V30 1461 H 131.039 4.07391 -3.92491 0
M  V30 1462 H 129.596 4.41913 -4.7912 0
M  V30 1463 N 133.029 1.57378 -0.0835403 0
M  V30 1464 C 133.992 2.12252 0.864959 0
M  V30 1465 C 134.992 1.04916 1.21858 0
M  V30 1466 O 136.182 1.30853 1.14991 0
M  V30 1467 C 133.314 2.63358 2.16461 0
M  V30 1468 H 134.507 2.97371 0.388676 0
M  V30 1469 H 132.06 1.55423 0.165317 0
M  V30 1470 H 132.795 1.81727 2.686 0
M  V30 1471 H 132.58 3.41826 1.92087 0
M  V30 1472 H 134.07 3.05847 2.84337 0
M  V30 1473 N 134.507 -0.190092 1.56449 0
M  V30 1474 C 135.923 -0.54113 1.50146 0
M  V30 1475 C 136.123 -1.85603 0.784465 0
M  V30 1476 O 135.179 -2.5024 0.337051 0
M  V30 1477 C 136.492 -0.591241 2.9483 0
M  V30 1478 C 138.04 -0.679732 3.0553 0
M  V30 1479 C 138.515 -0.760908 4.51635 0
M  V30 1480 N 140.006 -0.824302 4.55806 0
M  V30 1481 C 140.741 -0.907365 5.66175 0
M  V30 1482 N 140.237 -0.952422 6.86222 0
M  V30 1483 N 142.03 -0.94494 5.541 0
M  V30 1484 H 134.181 0.67235 2.01478 0
M  V30 1485 H 136.444 0.240127 0.917084 0
M  V30 1486 H 136.15 0.305905 3.50367 0
M  V30 1487 H 136.024 -1.44422 3.48457 0
M  V30 1488 H 138.411 -1.56731 2.50039 0
M  V30 1489 H 138.492 0.199549 2.5502 0
M  V30 1490 H 138.136 0.122336 5.07753 0
M  V30 1491 H 138.066 -1.65606 4.99882 0
M  V30 1492 H 140.557 -0.798526 3.69367 0
M  V30 1493 H 140.87 -1.01645 7.66086 0
M  V30 1494 H 139.215 -0.921014 6.8887 0
M  V30 1495 H 142.406 -0.906612 4.59236 0
M  V30 1496 H 142.579 -1.00622 6.4014 0
M  V30 1497 N 135.985 -1.50799 -0.457987 0
M  V30 1498 C 136.948 -1.7005 -1.53674 0
M  V30 1499 C 137.948 -0.570881 -1.50325 0
M  V30 1500 O 139.138 -0.838126 -1.52712 0
M  V30 1501 C 136.27 -1.73788 -2.93276 0
M  V30 1502 H 137.463 -2.66306 -1.37917 0
M  V30 1503 H 135.016 -1.40477 -0.685271 0
M  V30 1504 H 135.751 -0.792717 -3.14462 0
M  V30 1505 H 135.536 -2.55864 -2.97113 0
M  V30 1506 H 137.026 -1.90591 -3.71571 0
M  V30 1507 N 137.463 0.71206 -1.40597 0
M  V30 1508 C 138.879 1.02058 -1.22704 0
M  V30 1509 C 139.079 2.01228 -0.104729 0
M  V30 1510 O 138.135 2.4674 0.53624 0
M  V30 1511 C 139.448 1.56094 -2.57012 0
M  V30 1512 C 140.996 1.6806 -2.64054 0
M  V30 1513 C 141.471 2.25501 -3.9864 0
M  V30 1514 N 142.962 2.32882 -4.004 0
M  V30 1515 C 143.697 2.78317 -5.01325 0
M  V30 1516 N 143.193 3.23478 -6.12645 0
M  V30 1517 N 144.986 2.77733 -4.88693 0
M  V30 1518 H 137.137 0.0547896 -2.12329 0
M  V30 1519 H 139.4 0.0869027 -0.944008 0
M  V30 1520 H 139.106 0.906865 -3.39807 0
M  V30 1521 H 138.98 2.54564 -2.78347 0
M  V30 1522 H 141.367 2.32583 -1.81629 0
M  V30 1523 H 141.448 0.681802 -2.46546 0
M  V30 1524 H 141.092 1.61598 -4.81506 0
M  V30 1525 H 141.022 3.26102 -4.13479 0
M  V30 1526 H 143.513 2.00991 -3.20017 0
M  V30 1527 H 143.826 3.56725 -6.85542 0
M  V30 1528 H 142.171 3.21429 -6.16205 0
M  V30 1529 H 145.362 2.4179 -4.00818 0
M  V30 1530 H 145.535 3.12826 -5.67489 0
M  V30 1531 N 138.941 1.26152 0.944643 0
M  V30 1532 C 140.187 1.11657 1.69294 0
M  V30 1533 C 140.52 -0.339926 1.91202 0
M  V30 1534 O 139.795 -1.24994 1.49019 0
M  V30 1535 C 140.078 1.88236 3.06984 0
M  V30 1536 C 139.931 3.41772 2.92424 0
M  V30 1537 C 141.25 1.67343 4.07043 0
M  V30 1538 H 138.369 0.407004 0.614424 0
M  V30 1539 H 141.011 1.55106 1.09737 0
M  V30 1540 H 139.161 1.51308 3.57824 0
M  V30 1541 H 140.833 3.88433 2.48832 0
M  V30 1542 H 139.076 3.68974 2.28124 0
M  V30 1543 H 139.747 3.90579 3.90067 0
M  V30 1544 H 142.223 1.99509 3.65151 0
M  V30 1545 H 141.099 2.23346 5.01406 0
M  V30 1546 H 141.36 0.617158 4.37771 0
M  V30 1547 N 140.419 -1.14872 1.07899 0
M  V30 1548 C 141.369 -2.17809 0.674027 0
M  V30 1549 C 142.353 -1.58008 -0.303699 0
M  V30 1550 O 143.545 -1.76616 -0.11654 0
M  V30 1551 C 140.674 -3.43208 0.0793318 0
M  V30 1552 C 139.76 -4.10051 1.08253 0
M  V30 1553 N 140.151 -4.52296 2.2641 0
M  V30 1554 C 138.449 -4.36469 0.917124 0
M  V30 1555 C 139.15 -5.04199 2.901 0
M  V30 1556 N 138.126 -4.98088 2.17736 0
M  V30 1557 H 141.928 -2.48207 1.57386 0
M  V30 1558 H 139.442 -1.315 0.952976 0
M  V30 1559 H 141.439 -4.16272 -0.228719 0
M  V30 1560 H 140.099 -3.14291 -0.815551 0
M  V30 1561 H 141.11 -4.45504 2.64096 0
M  V30 1562 H 137.787 -4.17432 0.0756078 0
M  V30 1563 H 139.177 -5.46802 3.90458 0
M  V30 1564 N 141.898 -0.863906 -1.31812 0
M  V30 1565 C 142.808 -0.318461 -2.32428 0
M  V30 1566 C 143.824 0.568496 -1.64451 0
M  V30 1567 O 145 0.46666 -1.95919 0
M  V30 1568 C 142.065 0.476355 -3.43412 0
M  V30 1569 C 141.126 -0.43784 -4.27061 0
M  V30 1570 C 140.359 0.319138 -5.32745 0
M  V30 1571 O 140.582 1.54799 -5.48993 0
M  V30 1572 O 139.516 -0.319861 -6.01049 0
M  V30 1573 H 143.342 -1.15229 -2.80991 0
M  V30 1574 H 140.927 -0.627103 -1.35602 0
M  V30 1575 H 142.809 0.927156 -4.11074 0
M  V30 1576 H 141.484 1.28683 -2.97022 0
M  V30 1577 H 140.391 -0.937013 -3.62175 0
M  V30 1578 H 141.724 -1.21375 -4.77 0
M  V30 1579 N 143.376 1.44774 -0.622745 0
M  V30 1580 C 144.606 2.06187 -0.130532 0
M  V30 1581 C 145.014 1.46547 1.19669 0
M  V30 1582 O 144.357 0.579636 1.74316 0
M  V30 1583 C 144.419 3.59437 0.0674983 0
M  V30 1584 C 144.083 4.41496 -1.18026 0
M  V30 1585 C 145.08 4.75512 -2.102 0
M  V30 1586 C 142.765 4.82007 -1.41333 0
M  V30 1587 C 144.759 5.48912 -3.23998 0
M  V30 1588 C 142.446 5.55157 -2.55429 0
M  V30 1589 C 143.444 5.88528 -3.46589 0
M  V30 1590 O 143.132 6.60191 -4.58697 0
M  V30 1591 H 142.864 0.672045 -0.0730162 0
M  V30 1592 H 145.418 1.86768 -0.854802 0
M  V30 1593 H 143.648 3.77314 0.846825 0
M  V30 1594 H 145.337 4.02642 0.513209 0
M  V30 1595 H 146.103 4.4476 -1.93425 0
M  V30 1596 H 141.982 4.55457 -0.712709 0
M  V30 1597 H 145.526 5.74877 -3.95174 0
M  V30 1598 H 141.423 5.85324 -2.72151 0
M  V30 1599 H 142.191 6.78654 -4.57571 0
M  V30 1600 N 144.854 0.36279 1.53368 0
M  V30 1601 C 145.784 -0.476976 2.28576 0
M  V30 1602 C 146.765 -1.08631 1.30894 0
M  V30 1603 O 147.95 -1.10409 1.59761 0
M  V30 1604 C 145.08 -1.61828 3.07293 0
M  V30 1605 C 144.034 -1.13633 4.1264 0
M  V30 1606 C 143.36 -2.36766 4.79423 0
M  V30 1607 C 144.66 -0.223061 5.21823 0
M  V30 1608 H 146.354 0.150474 2.99022 0
M  V30 1609 H 143.9 0.0738103 1.43811 0
M  V30 1610 H 145.853 -2.21237 3.58653 0
M  V30 1611 H 144.577 -2.27292 2.34533 0
M  V30 1612 H 143.236 -0.564945 3.62221 0
M  V30 1613 H 142.884 -3.0068 4.03238 0
M  V30 1614 H 142.584 -2.05192 5.50609 0
M  V30 1615 H 144.108 -2.96865 5.33576 0
M  V30 1616 H 145.522 -0.724545 5.68703 0
M  V30 1617 H 143.919 0.001678 6.001 0
M  V30 1618 H 144.989 0.735553 4.79289 0
M  V30 1619 N 146.332 -1.57332 0.0918853 0
M  V30 1620 C 147.58 -1.93853 -0.571446 0
M  V30 1621 C 147.901 -0.974212 -1.6892 0
M  V30 1622 O 147.171 -0.0257254 -1.95883 0
M  V30 1623 H 145.751 -0.715666 -0.214082 0
M  V30 1624 H 148.413 -1.94287 0.154464 0
M  V30 1625 H 147.509 -2.96191 -0.983729 0
M  V30 1626 N 147.81 0.181792 -1.56548 0
M  V30 1627 C 149.056 0.896803 -1.82562 0
M  V30 1628 C 149.411 1.80324 -0.670908 0
M  V30 1629 O 148.704 1.8868 0.333235 0
M  V30 1630 C 148.898 1.73728 -3.12335 0
M  V30 1631 C 148.727 0.913714 -4.4032 0
M  V30 1632 C 147.497 0.592903 -5.01809 0
M  V30 1633 C 149.695 0.260164 -5.13642 0
M  V30 1634 N 147.677 -0.247901 -6.13399 0
M  V30 1635 C 149.048 -0.442256 -6.18421 0
M  V30 1636 C 151.103 0.177253 -4.97584 0
M  V30 1637 C 149.806 -1.21971 -7.08883 0
M  V30 1638 C 151.832 -0.586839 -5.88481 0
M  V30 1639 C 151.194 -1.27766 -6.92716 0
M  V30 1640 H 147.293 0.307122 -0.719166 0
M  V30 1641 H 149.877 0.164535 -1.94004 0
M  V30 1642 H 148.048 2.44105 -3.02105 0
M  V30 1643 H 149.78 2.39279 -3.26386 0
M  V30 1644 H 146.535 0.920502 -4.64568 0
M  V30 1645 H 146.959 -0.658304 -6.73792 0
M  V30 1646 H 151.601 0.696993 -4.17015 0
M  V30 1647 H 149.319 -1.75083 -7.88905 0
M  V30 1648 H 152.905 -0.652522 -5.78129 0
M  V30 1649 H 151.785 -1.85943 -7.61836 0
M  V30 1650 N 149.288 1.51039 0.449983 0
M  V30 1651 C 150.238 1.67824 1.54335 0
M  V30 1652 C 151.222 0.5324 1.51836 0
M  V30 1653 O 152.414 0.787762 1.58503 0
M  V30 1654 C 149.543 1.7951 2.92628 0
M  V30 1655 C 148.629 2.99838 2.9993 0
M  V30 1656 N 149.02 4.23207 2.77001 0
M  V30 1657 C 147.318 2.98832 3.31082 0
M  V30 1658 C 148.019 5.04361 2.89818 0
M  V30 1659 N 146.995 4.38746 3.2094 0
M  V30 1660 H 150.797 2.60884 1.35339 0
M  V30 1661 H 148.311 1.48513 0.657085 0
M  V30 1662 H 150.308 1.89642 3.7127 0
M  V30 1663 H 148.968 0.876227 3.12654 0
M  V30 1664 H 149.979 4.5236 2.52172 0
M  V30 1665 H 146.656 2.16527 3.56963 0
M  V30 1666 H 148.046 6.12528 2.76151 0
M  V30 1667 N 150.766 -0.704594 1.40972 0
M  V30 1668 C 151.729 -1.80035 1.41845 0
M  V30 1669 C 152.729 -1.57774 0.310474 0
M  V30 1670 O 153.919 -1.64613 0.56992 0
M  V30 1671 C 151.051 -3.18284 1.22098 0
M  V30 1672 H 152.244 -1.80658 2.3938 0
M  V30 1673 H 149.797 -0.911329 1.26982 0
M  V30 1674 H 150.532 -3.23306 0.253672 0
M  V30 1675 H 150.317 -3.35843 2.02366 0
M  V30 1676 H 151.807 -3.98289 1.25522 0
M  V30 1677 N 152.244 -1.26651 -0.937939 0
M  V30 1678 C 153.521 -1.0313 -1.66204 0
M  V30 1679 C 153.901 0.437256 -2.06522 0
M  V30 1680 O 153.249 1.41831 -1.79154 0
M  V30 1681 C 153.459 -1.98314 -2.87181 0
M  V30 1682 C 154.807 -2.27107 -3.58758 0
M  V30 1683 O 155.831 -1.96205 -2.97291 0
M  V30 1684 O 154.69 -2.79736 -4.69479 0
M  V30 1685 H 151.784 -0.392384 -0.727986 0
M  V30 1686 H 154.33 -1.37874 -0.989382 0
M  V30 1687 H 153.102 -2.97399 -2.54302 0
M  V30 1688 H 152.725 -1.64068 -3.6217 0
M  V30 1689 N 153.722 1.14298 -1.08507 0
M  V30 1690 C 154.962 1.87016 -0.824894 0
M  V30 1691 C 155.326 1.81099 0.637735 0
M  V30 1692 O 156.527 2.48963 1.01345 0
M  V30 1693 C 154.798 3.31584 -1.33368 0
M  V30 1694 S 156.357 4.21903 -1.20596 0
M  V30 1695 H 153.175 0.645259 -0.2986 0
M  V30 1696 H 155.777 1.37822 -1.38656 0
M  V30 1697 H 154.481 3.33439 -2.39262 0
M  V30 1698 H 154.012 3.85836 -0.767734 0
M  V30 1699 H 156.027 4.95971 -0.150891 0
M  V30 1700 N 155.201 0.870884 1.31352 0
M  V30 1701 C 156.45 0.478408 1.95944 0
M  V30 1702 C 156.763 -0.974493 1.69597 0
M  V30 1703 O 157.969 -1.47316 2.28058 0
M  V30 1704 C 156.425 0.804609 3.50791 0
M  V30 1705 C 156.033 2.27433 3.85977 0
M  V30 1706 C 157.777 0.480648 4.2177 0
M  V30 1707 C 155.684 2.5429 5.33939 0
M  V30 1708 H 154.614 0.175175 0.733369 0
M  V30 1709 H 157.265 1.06391 1.4951 0
M  V30 1710 H 155.647 0.148347 3.95722 0
M  V30 1711 H 156.821 2.97373 3.52002 0
M  V30 1712 H 155.136 2.56442 3.28065 0
M  V30 1713 H 157.733 0.658519 5.30629 0
M  V30 1714 H 158.076 -0.578979 4.12254 0
M  V30 1715 H 158.609 1.09349 3.82476 0
M  V30 1716 H 155.348 3.58939 5.48491 0
M  V30 1717 H 154.868 1.88945 5.69263 0
M  V30 1718 H 156.547 2.39066 6.01212 0
M  V30 1719 N 156.679 -1.44442 0.630414 0
M  V30 1720 C 158.095 -1.56832 0.295973 0
M  V30 1721 C 158.295 -1.61806 -1.20088 0
M  V30 1722 O 157.351 -1.5607 -1.9849 0
M  V30 1723 C 158.664 -2.84031 0.987264 0
M  V30 1724 C 160.212 -2.97742 0.96534 0
M  V30 1725 C 160.687 -4.27743 1.63708 0
M  V30 1726 N 162.178 -4.34555 1.60364 0
M  V30 1727 C 162.913 -5.33862 2.09234 0
M  V30 1728 N 162.409 -6.39578 2.66292 0
M  V30 1729 N 164.202 -5.25366 1.99867 0
M  V30 1730 H 156.353 -1.39457 1.60205 0
M  V30 1731 H 158.616 -0.668237 0.672431 0
M  V30 1732 H 158.322 -2.86338 2.04215 0
M  V30 1733 H 158.196 -3.73534 0.524588 0
M  V30 1734 H 160.583 -2.94989 -0.0810639 0
M  V30 1735 H 160.664 -2.09589 1.4665 0
M  V30 1736 H 160.308 -4.31255 2.68293 0
M  V30 1737 H 160.238 -5.14752 1.11076 0
M  V30 1738 H 162.729 -3.58772 1.18705 0
M  V30 1739 H 163.042 -7.11637 3.01317 0
M  V30 1740 H 161.387 -6.40265 2.70343 0
M  V30 1741 H 164.578 -4.41688 1.55013 0
M  V30 1742 H 164.751 -6.02606 2.38265 0
M  V30 1743 N 158.157 -0.370918 -1.53173 0
M  V30 1744 C 159.405 0.216673 -2.00935 0
M  V30 1745 C 159.726 1.48845 -1.25977 0
M  V30 1746 O 158.996 1.92286 -0.374551 0
M  V30 1747 H 157.576 0.0830565 -0.742368 0
M  V30 1748 H 160.238 -0.49838 -1.8842 0
M  V30 1749 H 159.334 0.439893 -3.08984 0
M  V30 1750 N 159.635 1.57281 -0.100228 0
M  V30 1751 C 160.863 1.98879 0.570509 0
M  V30 1752 C 161.278 0.979476 1.61405 0
M  V30 1753 O 160.635 -0.0302288 1.82475 0
M  V30 1754 C 160.686 3.4052 1.2136 0
M  V30 1755 O 160.407 4.37588 0.211786 0
M  V30 1756 C 161.908 3.97149 1.96945 0
M  V30 1757 H 159.128 0.653428 0.152555 0
M  V30 1758 H 161.672 2.03697 -0.18103 0
M  V30 1759 H 159.827 3.367 1.91603 0
M  V30 1760 H 160.241 5.20118 0.676607 0
M  V30 1761 H 161.715 4.98393 2.37294 0
M  V30 1762 H 162.192 3.3525 2.83733 0
M  V30 1763 H 162.798 4.04458 1.31506 0
M  V30 1764 N 161.113 -0.173488 1.56642 0
M  V30 1765 C 162.36 -0.890465 1.81871 0
M  V30 1766 C 162.688 -1.82339 0.67696 0
M  V30 1767 O 161.943 -1.92795 -0.335926 0
M  V30 1768 C 162.242 -1.72069 3.13252 0
M  V30 1769 C 161.908 -0.936878 4.41059 0
M  V30 1770 C 160.57 -0.720545 4.75775 0
M  V30 1771 C 162.922 -0.386919 5.19762 0
M  V30 1772 C 160.25 0.0568829 5.86672 0
M  V30 1773 C 162.602 0.37741 6.31473 0
M  V30 1774 C 161.266 0.604563 6.64757 0
M  V30 1775 H 160.536 -0.325844 0.665512 0
M  V30 1776 H 163.183 -0.155527 1.90867 0
M  V30 1777 H 161.488 -2.52496 2.99588 0
M  V30 1778 H 163.185 -2.27844 3.29982 0
M  V30 1779 H 159.775 -1.11553 4.13828 0
M  V30 1780 H 163.959 -0.541398 4.93338 0
M  V30 1781 H 159.215 0.242635 6.10918 0
M  V30 1782 H 163.389 0.810825 6.91664 0
M  V30 1783 H 161.016 1.20885 7.50527 0
M  V30 1784 N 162.591 -1.51276 -0.441967 0
M  V30 1785 C 163.839 -1.63392 -1.18943 0
M  V30 1786 C 164.16 -0.350159 -1.9183 0
M  V30 1787 O 163.43 0.633784 -1.85364 0
M  V30 1788 H 162.01 -0.602164 -0.442049 0
M  V30 1789 H 164.672 -1.88186 -0.507165 0
M  V30 1790 H 163.768 -2.45934 -1.92154 0
M  V30 1791 N 164.069 0.697108 -1.41344 0
M  V30 1792 C 165.318 1.45279 -1.39918 0
M  V30 1793 C 165.631 1.95597 -0.0109624 0
M  V30 1794 O 166.837 2.71208 0.125919 0
M  V30 1795 C 165.293 2.62695 -2.46007 0
M  V30 1796 C 164.901 2.19169 -3.90729 0
M  V30 1797 C 166.645 3.40336 -2.53715 0
M  V30 1798 C 164.552 3.33535 -4.88373 0
M  V30 1799 H 163.482 0.545692 -0.520323 0
M  V30 1800 H 166.133 0.756929 -1.67161 0
M  V30 1801 H 164.515 3.34541 -2.11892 0
M  V30 1802 H 165.689 1.54623 -4.34083 0
M  V30 1803 H 164.004 1.54525 -3.86666 0
M  V30 1804 H 166.601 4.2547 -3.2385 0
M  V30 1805 H 166.944 3.85418 -1.5735 0
M  V30 1806 H 167.477 2.75546 -2.86913 0
M  V30 1807 H 164.216 2.93468 -5.86137 0
M  V30 1808 H 163.736 3.96936 -4.49668 0
M  V30 1809 H 165.415 3.99335 -5.09059 0
M  V30 1810 N 165.547 1.27147 0.931209 0
M  V30 1811 C 166.958 1.12044 1.49342 0
M  V30 1812 C 167.309 -0.295795 1.93957 0
M  V30 1813 O 166.434 -1.18835 1.80852 0
M  V30 1814 C 167.029 2.02781 2.71414 0
M  V30 1815 C 165.588 1.91794 3.2387 0
M  V30 1816 C 164.735 1.95543 1.96617 0
M  V30 1817 H 167.686 1.40091 0.745672 0
M  V30 1818 H 167.707 1.58156 3.46074 0
M  V30 1819 H 167.219 3.05848 2.38911 0
M  V30 1820 H 165.32 0.916992 3.6114 0
M  V30 1821 H 165.433 2.77852 3.90302 0
M  V30 1822 H 163.797 1.39722 2.12955 0
M  V30 1823 H 164.58 3.00259 1.66432 0
M  V30 1824 N 167.025 -1.13721 1.09112 0
M  V30 1825 C 167.955 -2.21148 0.749385 0
M  V30 1826 C 168.936 -1.6792 -0.271475 0
M  V30 1827 O 170.121 -1.93693 -0.140251 0
M  V30 1828 C 167.251 -3.46905 0.165659 0
M  V30 1829 C 166.205 -4.13203 1.11567 0
M  V30 1830 C 165.531 -5.33248 0.393809 0
M  V30 1831 C 166.831 -4.60912 2.45678 0
M  V30 1832 H 168.525 -2.4999 1.64758 0
M  V30 1833 H 166.071 -1.20156 0.793626 0
M  V30 1834 H 168.024 -4.21313 -0.085466 0
M  V30 1835 H 166.748 -3.17449 -0.767714 0
M  V30 1836 H 165.407 -3.40758 1.35202 0
M  V30 1837 H 165.055 -5.00054 -0.543599 0
M  V30 1838 H 164.755 -5.78552 1.02721 0
M  V30 1839 H 166.279 -6.10413 0.150908 0
M  V30 1840 H 167.693 -5.26759 2.26269 0
M  V30 1841 H 166.09 -5.16944 3.04776 0
M  V30 1842 H 167.16 -3.75603 3.06677 0
M  V30 1843 N 168.503 -0.877838 -1.30888 0
M  V30 1844 C 169.749 -0.502773 -1.97088 0
M  V30 1845 C 170.104 0.936274 -1.68082 0
M  V30 1846 O 169.397 1.65162 -0.971196 0
M  V30 1847 C 169.591 -0.705748 -3.50363 0
M  V30 1848 C 169.42 -2.16297 -3.94266 0
M  V30 1849 C 168.19 -2.80614 -4.20219 0
M  V30 1850 C 170.388 -3.13606 -4.07622 0
M  V30 1851 N 168.37 -4.17007 -4.50532 0
M  V30 1852 C 169.741 -4.35051 -4.41736 0
M  V30 1853 C 171.796 -3.09491 -3.90026 0
M  V30 1854 C 170.499 -5.52911 -4.60089 0
M  V30 1855 C 172.525 -4.26616 -4.09576 0
M  V30 1856 C 171.887 -5.46825 -4.44029 0
M  V30 1857 H 167.986 -0.233168 -0.746429 0
M  V30 1858 H 170.57 -1.13408 -1.58261 0
M  V30 1859 H 168.741 -0.103976 -3.88261 0
M  V30 1860 H 170.473 -0.298291 -4.03599 0
M  V30 1861 H 167.228 -2.3152 -4.13153 0
M  V30 1862 H 167.652 -4.87426 -4.69834 0
M  V30 1863 H 172.294 -2.17657 -3.62471 0
M  V30 1864 H 170.012 -6.45255 -4.86489 0
M  V30 1865 H 173.598 -4.24894 -3.97438 0
M  V30 1866 H 172.478 -6.35947 -4.58848 0
M  V30 1867 N 169.982 1.44106 -0.638065 0
M  V30 1868 C 171.228 2.02277 -0.145546 0
M  V30 1869 C 171.561 1.50125 1.23191 0
M  V30 1870 O 170.836 0.688133 1.8192 0
M  V30 1871 C 171.119 3.59829 -0.139791 0
M  V30 1872 C 170.972 4.22247 -1.55008 0
M  V30 1873 C 172.291 4.36873 0.531966 0
M  V30 1874 H 169.41 0.734992 -0.0543632 0
M  V30 1875 H 172.052 1.71592 -0.815863 0
M  V30 1876 H 170.202 3.86102 0.431007 0
M  V30 1877 H 171.874 4.07057 -2.1703 0
M  V30 1878 H 170.117 3.79476 -2.10191 0
M  V30 1879 H 170.788 5.31284 -1.49804 0
M  V30 1880 H 173.264 4.16074 0.0464781 0
M  V30 1881 H 172.14 5.4657 0.505206 0
M  V30 1882 H 172.401 4.11995 1.60352 0
M  V30 1883 N 171.46 0.379036 1.52974 0
M  V30 1884 C 172.392 -0.495963 2.2377 0
M  V30 1885 C 173.405 -1.03517 1.25651 0
M  V30 1886 O 174.594 -0.939249 1.51791 0
M  V30 1887 C 171.694 -1.69894 2.93239 0
M  V30 1888 C 170.867 -1.2889 4.17979 0
M  V30 1889 C 169.926 -2.35543 4.70538 0
M  V30 1890 O 168.952 -1.97375 5.33883 0
M  V30 1891 N 170.154 -3.67318 4.49508 0
M  V30 1892 H 172.919 0.110523 2.99496 0
M  V30 1893 H 170.48 0.204878 1.60598 0
M  V30 1894 H 172.472 -2.40747 3.25304 0
M  V30 1895 H 171.042 -2.212 2.20883 0
M  V30 1896 H 170.262 -0.409676 3.92065 0
M  V30 1897 H 171.55 -0.991443 4.99047 0
M  V30 1898 H 170.948 -4.01095 3.98923 0
M  V30 1899 H 169.505 -4.34235 4.8609 0
M  V30 1900 N 172.938 -1.57226 0.108567 0
M  V30 1901 C 174.184 -1.95121 -0.552761 0
M  V30 1902 C 174.517 -0.991345 -1.66991 0
M  V30 1903 O 173.792 -0.0267211 -1.94482 0
M  V30 1904 C 174.075 -3.43039 -1.09528 0
M  V30 1905 C 173.928 -4.49797 0.0177332 0
M  V30 1906 C 175.247 -3.92567 -1.98945 0
M  V30 1907 H 172.366 -0.709496 -0.199461 0
M  V30 1908 H 175.008 -1.89126 0.182011 0
M  V30 1909 H 173.158 -3.48279 -1.72146 0
M  V30 1910 H 174.83 -4.56661 0.652584 0
M  V30 1911 H 173.073 -4.284 0.682309 0
M  V30 1912 H 173.744 -5.50528 -0.402919 0
M  V30 1913 H 176.22 -3.89565 -1.46214 0
M  V30 1914 H 175.096 -4.96605 -2.33827 0
M  V30 1915 H 175.357 -3.32648 -2.91201 0
M  V30 1916 N 174.416 0.165178 -1.56732 0
M  V30 1917 C 175.346 1.20651 -1.99914 0
M  V30 1918 C 176.327 1.45827 -0.875705 0
M  V30 1919 O 177.512 1.57057 -1.14223 0
M  V30 1920 C 174.642 2.54401 -2.36427 0
M  V30 1921 C 173.596 2.43782 -3.51787 0
M  V30 1922 C 172.922 3.82078 -3.7406 0
M  V30 1923 C 174.222 1.93732 -4.85041 0
M  V30 1924 H 175.916 0.847534 -2.87154 0
M  V30 1925 H 173.462 0.40625 -1.38151 0
M  V30 1926 H 175.415 3.27458 -2.65234 0
M  V30 1927 H 174.139 2.92098 -1.46103 0
M  V30 1928 H 172.798 1.73178 -3.23117 0
M  V30 1929 H 172.446 4.17179 -2.81017 0
M  V30 1930 H 172.146 3.7584 -4.51684 0
M  V30 1931 H 173.67 4.56712 -4.05274 0
M  V30 1932 H 175.084 2.56569 -5.12684 0
M  V30 1933 H 173.481 1.98428 -5.66345 0
M  V30 1934 H 174.551 0.891962 -4.76626 0
M  V30 1935 N 175.894 1.51508 0.433938 0
M  V30 1936 C 177.142 1.6402 1.18075 0
M  V30 1937 C 177.463 0.360328 1.91642 0
M  V30 1938 O 176.733 -0.623945 1.85698 0
M  V30 1939 H 175.313 0.6045 0.43885 0
M  V30 1940 H 177.975 1.88452 0.497178 0
M  V30 1941 H 177.071 2.46949 1.90847 0
M  V30 1942 N 177.372 -0.689602 1.41712 0
M  V30 1943 C 178.783 -1.26973 1.36875 0
M  V30 1944 C 179.134 -1.96124 0.054748 0
M  V30 1945 O 178.259 -1.99141 -0.84687 0
M  V30 1946 C 178.854 -2.30912 2.47922 0
M  V30 1947 C 177.413 -2.84486 2.46464 0
M  V30 1948 C 176.56 -1.58603 2.27465 0
M  V30 1949 H 179.511 -0.48396 1.51141 0
M  V30 1950 H 179.532 -3.12331 2.17323 0
M  V30 1951 H 179.044 -1.80554 3.43543 0
M  V30 1952 H 177.145 -3.39005 1.54617 0
M  V30 1953 H 177.258 -3.34511 3.42986 0
M  V30 1954 H 175.622 -1.84632 1.75451 0
M  V30 1955 H 176.405 -1.10233 3.25121 0
M  V30 1956 N 178.85 -1.27639 -0.924453 0
M  V30 1957 C 179.78 -1.13166 -2.04244 0
M  V30 1958 C 180.761 -0.032256 -1.70069 0
M  V30 1959 O 181.946 -0.207328 -1.9309 0
M  V30 1960 C 179.076 -0.781496 -3.38393 0
M  V30 1961 C 178.03 -1.83449 -3.86692 0
M  V30 1962 C 177.356 -1.33822 -5.17683 0
M  V30 1963 C 178.656 -3.23917 -4.09726 0
M  V30 1964 H 180.35 -2.06689 -2.1661 0
M  V30 1965 H 177.896 -0.995136 -1.04082 0
M  V30 1966 H 179.849 -0.667057 -4.16087 0
M  V30 1967 H 178.573 0.189439 -3.2605 0
M  V30 1968 H 177.232 -1.93789 -3.11193 0
M  V30 1969 H 176.88 -0.35665 -5.01734 0
M  V30 1970 H 176.58 -2.04224 -5.50968 0
M  V30 1971 H 178.104 -1.23679 -5.97943 0
M  V30 1972 H 179.518 -3.16559 -4.77978 0
M  V30 1973 H 177.915 -3.92059 -4.54324 0
M  V30 1974 H 178.985 -3.68729 -3.14908 0
M  V30 1975 N 180.328 1.1314 -1.09713 0
M  V30 1976 C 181.577 1.83838 -0.829851 0
M  V30 1977 C 181.89 1.84599 0.646728 0
M  V30 1978 O 183.096 2.51218 1.02965 0
M  V30 1979 C 181.552 3.30069 -1.43466 0
M  V30 1980 C 181.16 3.37688 -2.94399 0
M  V30 1981 C 182.904 4.05788 -1.24645 0
M  V30 1982 C 180.811 4.78209 -3.47952 0
M  V30 1983 H 179.741 0.68877 -0.306777 0
M  V30 1984 H 182.392 1.27448 -1.3202 0
M  V30 1985 H 180.774 3.8628 -0.871996 0
M  V30 1986 H 181.948 2.91456 -3.56918 0
M  V30 1987 H 180.263 2.75436 -3.12289 0
M  V30 1988 H 182.86 5.09535 -1.62107 0
M  V30 1989 H 183.203 4.15878 -0.187357 0
M  V30 1990 H 183.736 3.55915 -1.77678 0
M  V30 1991 H 180.475 4.73311 -4.53495 0
M  V30 1992 H 179.995 5.24924 -2.90198 0
M  V30 1993 H 181.674 5.47133 -3.45332 0
M  V30 1994 N 181.806 0.884767 1.30421 0
M  V30 1995 C 183.054 0.502112 1.95763 0
M  V30 1996 C 183.375 -0.951815 1.70192 0
M  V30 1997 O 182.645 -1.6692 1.0254 0
M  V30 1998 H 181.225 0.182694 0.724315 0
M  V30 1999 H 183.887 1.1278 1.58955 0
M  V30 2000 H 182.983 0.672188 3.04775 0
M  V30 2001 N 183.284 -1.43765 0.645699 0
M  V30 2002 C 184.53 -2.02197 0.156271 0
M  V30 2003 C 184.863 -1.50776 -1.22393 0
M  V30 2004 O 184.138 -0.697771 -1.81553 0
M  V30 2005 C 184.421 -3.59749 0.158872 0
M  V30 2006 C 184.274 -4.21419 1.57245 0
M  V30 2007 C 185.593 -4.37149 -0.50879 0
M  V30 2008 H 182.712 -0.734694 0.0582602 0
M  V30 2009 H 185.354 -1.71157 0.824951 0
M  V30 2010 H 183.504 -3.86325 -0.410525 0
M  V30 2011 H 185.176 -4.059 2.19186 0
M  V30 2012 H 183.419 -3.78356 2.122 0
M  V30 2013 H 184.09 -5.30482 1.52619 0
M  V30 2014 H 186.566 -4.16093 -0.024412 0
M  V30 2015 H 185.442 -5.4683 -0.476213 0
M  V30 2016 H 185.703 -4.12839 -1.58165 0
M  V30 2017 N 184.763 -0.387143 -1.52771 0
M  V30 2018 C 185.695 0.484089 -2.2403 0
M  V30 2019 C 186.708 1.02849 -1.26198 0
M  V30 2020 O 187.897 0.931186 -1.52286 0
M  V30 2021 C 184.997 1.68337 -2.94136 0
M  V30 2022 C 184.17 1.26672 -4.18656 0
M  V30 2023 C 183.229 2.33045 -4.7178 0
M  V30 2024 O 182.255 1.94541 -5.34923 0
M  V30 2025 N 183.457 3.64929 -4.5145 0
M  V30 2026 H 186.222 -0.126404 -2.99433 0
M  V30 2027 H 183.783 -0.213392 -1.60488 0
M  V30 2028 H 185.775 2.39019 -3.26577 0
M  V30 2029 H 184.345 2.20025 -2.22053 0
M  V30 2030 H 183.565 0.388878 -3.92277 0
M  V30 2031 H 184.853 0.964964 -4.99566 0
M  V30 2032 H 184.251 3.98974 -4.01044 0
M  V30 2033 H 182.808 4.31651 -4.88386 0
M  V30 2034 N 186.241 1.57166 -0.116904 0
M  V30 2035 C 187.487 1.95412 0.542405 0
M  V30 2036 C 187.82 1.00019 1.66463 0
M  V30 2037 O 187.095 0.0370346 1.94465 0
M  V30 2038 C 187.378 3.43615 1.07708 0
M  V30 2039 C 187.231 4.49781 -0.0415868 0
M  V30 2040 C 188.55 3.93616 1.96861 0
M  V30 2041 H 185.669 0.710543 0.195696 0
M  V30 2042 H 188.311 1.89027 -0.192038 0
M  V30 2043 H 186.461 3.49187 1.70296 0
M  V30 2044 H 188.133 4.56308 -0.676793 0
M  V30 2045 H 186.376 4.28033 -0.705019 0
M  V30 2046 H 187.047 5.50733 0.373717 0
M  V30 2047 H 189.523 3.90335 1.44146 0
M  V30 2048 H 188.399 4.97838 2.3119 0
M  V30 2049 H 188.66 3.34188 2.89432 0
M  V30 2050 N 187.719 -0.156864 1.56817 0
M  V30 2051 C 189.13 -0.717916 1.72345 0
M  V30 2052 C 189.481 -1.82124 0.729747 0
M  V30 2053 O 188.606 -2.16141 -0.105781 0
M  V30 2054 C 189.201 -1.30904 3.12489 0
M  V30 2055 C 187.76 -1.81676 3.29653 0
M  V30 2056 C 186.907 -0.701349 2.68284 0
M  V30 2057 H 189.858 0.0686989 1.58551 0
M  V30 2058 H 189.879 -2.17882 3.11942 0
M  V30 2059 H 189.391 -0.505796 3.8479 0
M  V30 2060 H 187.492 -2.64598 2.62333 0
M  V30 2061 H 187.605 -1.95226 4.3752 0
M  V30 2062 H 185.969 -1.12548 2.28484 0
M  V30 2063 H 186.752 0.0902846 3.43181 0
M  V30 2064 N 189.197 -1.51736 -0.425897 0
M  V30 2065 C 190.144 -1.73875 -1.51776 0
M  V30 2066 C 191.114 -0.580702 -1.55618 0
M  V30 2067 O 192.299 -0.81641 -1.72451 0
M  V30 2068 C 189.439 -1.88012 -2.89388 0
M  V30 2069 C 188.552 -3.15606 -2.94986 0
M  V30 2070 C 187.687 -3.20271 -4.23793 0
M  V30 2071 C 186.726 -4.42134 -4.23302 0
M  V30 2072 N 185.863 -4.44284 -5.43651 0
M  V30 2073 H 190.703 -2.67071 -1.32201 0
M  V30 2074 H 188.24 -1.32351 -0.642008 0
M  V30 2075 H 190.198 -1.9419 -3.69251 0
M  V30 2076 H 188.828 -0.98213 -3.07496 0
M  V30 2077 H 187.88 -3.18681 -2.07717 0
M  V30 2078 H 189.192 -4.05486 -2.90486 0
M  V30 2079 H 188.346 -3.25428 -5.12036 0
M  V30 2080 H 187.085 -2.28299 -4.30965 0
M  V30 2081 H 186.09 -4.3714 -3.3345 0
M  V30 2082 H 187.315 -5.35382 -4.17783 0
M  V30 2083 H 185.261 -3.55188 -5.51523 0
M  V30 2084 H 185.178 -5.27988 -5.41078 0
M  V30 2085 H 186.446 -4.53649 -6.33895 0
M  V30 2086 N 190.675 0.682077 -1.42076 0
M  V30 2087 C 191.585 1.82535 -1.47371 0
M  V30 2088 C 192.601 1.7017 -0.363079 0
M  V30 2089 O 193.777 1.91848 -0.612875 0
M  V30 2090 C 190.842 3.18624 -1.36674 0
M  V30 2091 C 189.903 3.42999 -2.58167 0
M  V30 2092 C 189.136 4.72595 -2.4797 0
M  V30 2093 O 189.359 5.50006 -1.5116 0
M  V30 2094 O 188.293 4.98054 -3.37974 0
M  V30 2095 H 192.119 1.81023 -2.43853 0
M  V30 2096 H 189.704 0.836887 -1.2376 0
M  V30 2097 H 191.586 3.99847 -1.33043 0
M  V30 2098 H 190.261 3.20789 -0.433138 0
M  V30 2099 H 189.168 2.61653 -2.67373 0
M  V30 2100 H 190.501 3.45659 -3.50401 0
M  V30 2101 N 192.153 1.28127 0.917671 0
M  V30 2102 C 193.1 1.11717 2.0196 0
M  V30 2103 C 194.07 0.0153929 1.66093 0
M  V30 2104 O 195.255 0.179596 1.89953 0
M  V30 2105 C 192.395 0.780927 3.36148 0
M  V30 2106 C 191.508 1.96135 3.84909 0
M  V30 2107 C 190.643 1.56609 5.0759 0
M  V30 2108 C 189.682 2.71339 5.48673 0
M  V30 2109 N 188.819 2.32332 6.62545 0
M  V30 2110 H 193.659 2.06003 2.15329 0
M  V30 2111 H 191.196 1.02535 1.05475 0
M  V30 2112 H 193.154 0.56675 4.13333 0
M  V30 2113 H 191.784 -0.124998 3.22558 0
M  V30 2114 H 190.836 2.28777 3.03916 0
M  V30 2115 H 192.148 2.82165 4.1132 0
M  V30 2116 H 191.302 1.31374 5.92305 0
M  V30 2117 H 190.041 0.677014 4.82978 0
M  V30 2118 H 189.046 2.97276 4.62501 0
M  V30 2119 H 190.271 3.60882 5.75274 0
M  V30 2120 H 188.217 1.45889 6.39572 0
M  V30 2121 H 188.134 3.11899 6.88662 0
M  V30 2122 H 189.402 2.10371 7.50576 0
M  V30 2123 N 193.631 -1.12557 1.10312 0
M  V30 2124 C 194.877 -1.84311 0.846011 0
M  V30 2125 C 195.21 -1.83805 -0.626859 0
M  V30 2126 O 194.485 -1.28268 -1.46211 0
M  V30 2127 C 194.768 -3.32048 1.39341 0
M  V30 2128 C 194.621 -3.41016 2.93305 0
M  V30 2129 C 195.94 -4.27764 1.03468 0
M  V30 2130 H 193.059 -0.669192 0.30879 0
M  V30 2131 H 195.701 -1.32057 1.36605 0
M  V30 2132 H 193.851 -3.76678 0.951087 0
M  V30 2133 H 195.523 -3.05031 3.46055 0
M  V30 2134 H 193.766 -2.81603 3.29973 0
M  V30 2135 H 194.437 -4.44948 3.26689 0
M  V30 2136 H 196.913 -3.91253 1.41633 0
M  V30 2137 H 195.789 -5.29549 1.44463 0
M  V30 2138 H 196.05 -4.42064 -0.0560404 0
M  V30 2139 N 195.109 -0.891671 -1.2995 0
M  V30 2140 C 196.019 -0.367691 -2.31701 0
M  V30 2141 C 197.035 0.533486 -1.6562 0
M  V30 2142 O 198.211 0.424997 -1.96865 0
M  V30 2143 C 195.276 0.403406 -3.44345 0
M  V30 2144 C 194.337 -0.528328 -4.26037 0
M  V30 2145 C 193.57 0.206063 -5.33302 0
M  V30 2146 O 193.793 1.43119 -5.52153 0
M  V30 2147 O 192.727 -0.447281 -6.00236 0
M  V30 2148 H 196.553 -1.21163 -2.78484 0
M  V30 2149 H 194.138 -0.655725 -1.34241 0
M  V30 2150 H 196.02 0.839753 -4.12948 0
M  V30 2151 H 194.695 1.22354 -2.99685 0
M  V30 2152 H 193.602 -1.01362 -3.60106 0
M  V30 2153 H 194.935 -1.31465 -4.74318 0
M  V30 2154 N 196.587 1.43421 -0.653314 0
M  V30 2155 C 198.003 1.56341 -0.320886 0
M  V30 2156 C 198.203 1.63696 1.17499 0
M  V30 2157 O 197.259 1.59208 1.95982 0
M  V30 2158 C 198.572 2.82424 -1.03233 0
M  V30 2159 C 200.12 2.96168 -1.01259 0
M  V30 2160 C 200.595 4.25084 -1.70492 0
M  V30 2161 N 202.086 4.31948 -1.67257 0
M  V30 2162 C 202.821 5.30466 -2.17701 0
M  V30 2163 N 202.317 6.35261 -2.76434 0
M  V30 2164 N 204.11 5.2212 -2.082 0
M  V30 2165 H 196.261 1.3689 -1.62403 0
M  V30 2166 H 198.524 0.657455 -0.682977 0
M  V30 2167 H 198.23 2.83053 -2.08744 0
M  V30 2168 H 198.104 3.72653 -0.583948 0
M  V30 2169 H 200.491 2.9508 0.0341235 0
M  V30 2170 H 200.572 2.07229 -1.49966 0
M  V30 2171 H 200.216 4.26932 -2.7512 0
M  V30 2172 H 200.146 5.1292 -1.19251 0
M  V30 2173 H 202.637 3.56838 -1.24398 0
M  V30 2174 H 202.95 7.06754 -3.12601 0
M  V30 2175 H 201.295 6.35884 -2.80495 0
M  V30 2176 H 204.486 4.39166 -1.62021 0
M  V30 2177 H 204.659 5.98739 -2.47822 0
M  V30 2178 N 198.065 0.39524 1.52563 0
M  V30 2179 C 199.013 -0.451859 2.28169 0
M  V30 2180 C 200.007 -1.05792 1.32304 0
M  V30 2181 O 201.213 -0.997718 1.49818 0
M  V30 2182 H 197.588 -0.164481 0.733792 0
M  V30 2183 H 199.559 0.207199 2.9768 0
M  V30 2184 C 198.308 -1.56385 3.10546 0
M  V30 2185 H 197.631 -1.10682 3.84174 0
M  V30 2186 H 199.071 -2.13067 3.66577 0
M  V30 2187 C 197.53 -2.52328 2.23231 0
M  V30 2188 O 198.06 -3.5588 1.86312 0
M  V30 2189 N 196.266 -2.22209 1.87274 0
M  V30 2190 H 195.813 -1.38033 2.17496 0
M  V30 2191 H 195.771 -2.86652 1.29143 0
M  V30 2192 N 199.544 -1.57102 0.125237 0
M  V30 2193 C 200.96 -1.57915 -0.231322 0
M  V30 2194 C 201.16 -1.13833 -1.66266 0
M  V30 2195 O 200.216 -0.828581 -2.38518 0
M  V30 2196 C 201.529 -3.00699 0.00766489 0
M  V30 2197 C 203.077 -3.12947 -0.0577483 0
M  V30 2198 C 203.552 -4.57742 0.153626 0
M  V30 2199 N 205.043 -4.63092 0.0998073 0
M  V30 2200 C 205.778 -5.72905 0.238174 0
M  V30 2201 N 205.274 -6.91445 0.433057 0
M  V30 2202 N 207.067 -5.6182 0.177308 0
M  V30 2203 H 199.218 -1.84055 1.06007 0
M  V30 2204 H 201.481 -0.850905 0.417929 0
M  V30 2205 H 201.187 -3.3726 0.997431 0
M  V30 2206 H 201.061 -3.70236 -0.721452 0
M  V30 2207 H 203.448 -2.7624 -1.03804 0
M  V30 2208 H 203.529 -2.4594 0.70335 0
M  V30 2209 H 203.173 -4.95149 1.13092 0
M  V30 2210 H 203.103 -5.22848 -0.627534 0
M  V30 2211 H 205.594 -3.77871 -0.047051 0
M  V30 2212 H 205.907 -7.70985 0.529332 0
M  V30 2213 H 204.252 -6.93415 0.469109 0
M  V30 2214 H 207.443 -4.68093 0.0259748 0
M  V30 2215 H 207.616 -6.47357 0.288582 0
M  V30 2216 N 201.022 0.148545 -1.56898 0
M  V30 2217 C 202.25 0.876389 -1.87422 0
M  V30 2218 C 202.665 1.74809 -0.713256 0
M  V30 2219 O 202.022 1.79725 0.317025 0
M  V30 2220 C 202.073 1.73438 -3.17178 0
M  V30 2221 O 201.794 0.897809 -4.28802 0
M  V30 2222 C 203.295 2.56993 -3.61205 0
M  V30 2223 H 200.515 0.253489 -0.621277 0
M  V30 2224 H 203.059 0.141798 -2.04008 0
M  V30 2225 H 201.214 2.42205 -3.0235 0
M  V30 2226 H 201.628 1.48672 -5.02988 0
M  V30 2227 H 203.102 3.12773 -4.54838 0
M  V30 2228 H 203.579 3.32958 -2.86419 0
M  V30 2229 H 204.185 1.9352 -3.78722 0
M  V30 2230 N 202.5 1.5196 0.417844 0
M  V30 2231 C 203.463 1.74065 1.49111 0
M  V30 2232 C 204.463 0.610537 1.48758 0
M  V30 2233 O 205.653 0.87832 1.50437 0
M  V30 2234 C 202.785 1.81502 2.88565 0
M  V30 2235 H 203.978 2.69869 1.30807 0
M  V30 2236 H 201.531 1.42244 0.647785 0
M  V30 2237 H 202.266 0.875813 3.1225 0
M  V30 2238 H 202.051 2.63651 2.90225 0
M  V30 2239 H 203.541 2.00376 3.66387 0
M  V30 2240 N 203.978 -0.674533 1.42435 0
M  V30 2241 C 204.911 -1.79924 1.40366 0
M  V30 2242 C 205.889 -1.60378 0.267899 0
M  V30 2243 O 207.073 -1.82847 0.458159 0
M  V30 2244 C 204.2 -3.16927 1.19478 0
M  V30 2245 C 203.246 -3.55221 2.36051 0
M  V30 2246 S 204.079 -3.5762 3.98583 0
M  V30 2247 C 205.235 -4.97315 3.80038 0
M  V30 2248 H 205.468 -1.81405 2.35541 0
M  V30 2249 H 203.001 -0.845221 1.29211 0
M  V30 2250 H 204.959 -3.96007 1.08114 0
M  V30 2251 H 203.62 -3.13031 0.258883 0
M  V30 2252 H 202.813 -4.54804 2.17185 0
M  V30 2253 H 202.415 -2.83502 2.43932 0
M  V30 2254 H 204.707 -5.85401 3.41045 0
M  V30 2255 H 205.65 -5.21228 4.79298 0
M  V30 2256 H 206.058 -4.69845 3.12899 0
M  V30 2257 N 205.456 -1.28612 -0.910864 0
M  V30 2258 C 206.733 -1.06632 -1.63979 0
M  V30 2259 C 207.113 0.393351 -2.07403 0
M  V30 2260 O 206.461 1.37999 -1.82122 0
M  V30 2261 C 206.671 -2.0436 -2.8291 0
M  V30 2262 C 208.019 -2.34666 -3.5386 0
M  V30 2263 O 209.043 -2.02467 -2.93062 0
M  V30 2264 O 207.902 -2.89631 -4.63439 0
M  V30 2265 H 204.996 -0.407737 -0.7195 0
M  V30 2266 H 207.542 -1.39942 -0.959914 0
M  V30 2267 H 206.314 -3.02727 -2.47936 0
M  V30 2268 H 205.937 -1.71714 -3.58609 0
M  V30 2269 N 206.934 1.1197 -1.10907 0
M  V30 2270 C 207.866 2.17592 -0.720175 0
M  V30 2271 C 208.879 1.60938 0.245495 0
M  V30 2272 O 210.068 1.78476 0.0292245 0
M  V30 2273 C 207.168 3.38873 -0.0427917 0
M  V30 2274 C 206.341 4.25006 -1.03388 0
M  V30 2275 C 205.4 5.24774 -0.387075 0
M  V30 2276 O 204.426 5.59631 -1.03934 0
M  V30 2277 N 205.628 5.74208 0.852407 0
M  V30 2278 H 208.393 2.51567 -1.62893 0
M  V30 2279 H 205.954 1.27439 -0.998543 0
M  V30 2280 H 207.946 4.02703 0.401501 0
M  V30 2281 H 206.516 3.03007 0.768456 0
M  V30 2282 H 205.736 3.57716 -1.65629 0
M  V30 2283 H 207.024 4.79397 -1.70458 0
M  V30 2284 H 206.422 5.48062 1.40161 0
M  V30 2285 H 204.979 6.39901 1.23977 0
M  V30 2286 N 208.412 0.89855 1.29475 0
M  V30 2287 C 209.375 0.380272 2.26023 0
M  V30 2288 C 210.375 -0.484891 1.53315 0
M  V30 2289 O 211.565 -0.290108 1.71767 0
M  V30 2290 C 208.697 -0.45651 3.3783 0
M  V30 2291 H 209.89 1.23295 2.73383 0
M  V30 2292 H 207.443 0.676589 1.40897 0
M  V30 2293 H 208.178 -1.32922 2.95808 0
M  V30 2294 H 207.963 0.163393 3.91759 0
M  V30 2295 H 209.453 -0.810466 4.0966 0
M  V30 2296 N 209.89 -1.43072 0.660911 0
M  V30 2297 C 210.82 -2.33497 -0.0122829 0
M  V30 2298 C 211.801 -1.49903 -0.803925 0
M  V30 2299 O 212.986 -1.78546 -0.763864 0
M  V30 2300 C 210.116 -3.33363 -0.973994 0
M  V30 2301 C 209.07 -4.27003 -0.291928 0
M  V30 2302 C 208.396 -5.16967 -1.36562 0
M  V30 2303 C 209.696 -5.15816 0.820462 0
M  V30 2304 H 211.39 -2.90038 0.742873 0
M  V30 2305 H 208.936 -1.39461 0.358688 0
M  V30 2306 H 210.889 -3.95524 -1.45392 0
M  V30 2307 H 209.613 -2.75095 -1.7604 0
M  V30 2308 H 208.272 -3.66217 0.167623 0
M  V30 2309 H 207.92 -4.55034 -2.14366 0
M  V30 2310 H 207.62 -5.80441 -0.914454 0
M  V30 2311 H 209.144 -5.82003 -1.84675 0
M  V30 2312 H 210.558 -5.71742 0.422366 0
M  V30 2313 H 208.955 -5.8805 1.19656 0
M  V30 2314 H 210.025 -4.55045 1.67518 0
M  V30 2315 N 211.368 -0.403325 -1.52352 0
M  V30 2316 C 212.3 0.4603 -2.2453 0
M  V30 2317 C 213.313 1.01505 -1.27282 0
M  V30 2318 O 214.502 0.914982 -1.53266 0
M  V30 2319 C 211.602 1.65208 -2.95905 0
M  V30 2320 C 210.775 1.22224 -4.19976 0
M  V30 2321 C 209.834 2.28028 -4.74226 0
M  V30 2322 O 208.86 1.88857 -5.36956 0
M  V30 2323 N 210.062 3.6012 -4.55295 0
M  V30 2324 H 212.827 -0.158156 -2.99282 0
M  V30 2325 H 210.388 -0.230402 -1.60252 0
M  V30 2326 H 212.38 2.35541 -3.29093 0
M  V30 2327 H 210.95 2.17658 -2.24374 0
M  V30 2328 H 210.17 0.34725 -3.92668 0
M  V30 2329 H 211.458 0.911924 -5.00561 0
M  V30 2330 H 210.856 3.94698 -4.05253 0
M  V30 2331 H 209.413 4.26447 -4.92936 0
M  V30 2332 N 212.846 1.57033 -0.133567 0
M  V30 2333 C 214.092 1.96764 0.515326 0
M  V30 2334 C 214.447 1.01653 1.63353 0
M  V30 2335 O 213.74 0.0491374 1.91537 0
M  V30 2336 C 213.934 3.40674 1.08057 0
M  V30 2337 C 213.763 4.49696 0.0186522 0
M  V30 2338 C 212.533 5.03567 -0.418174 0
M  V30 2339 C 214.731 5.08536 -0.767809 0
M  V30 2340 N 212.713 5.9618 -1.46434 0
M  V30 2341 C 214.084 5.97231 -1.6648 0
M  V30 2342 C 216.139 4.9115 -0.817087 0
M  V30 2343 C 214.842 6.70401 -2.60681 0
M  V30 2344 C 216.868 5.65012 -1.74687 0
M  V30 2345 C 216.23 6.53403 -2.63141 0
M  V30 2346 H 212.329 0.765919 0.157771 0
M  V30 2347 H 214.913 1.93395 -0.22506 0
M  V30 2348 H 213.084 3.44662 1.79061 0
M  V30 2349 H 214.816 3.67495 1.69497 0
M  V30 2350 H 211.571 4.73594 -0.0229803 0
M  V30 2351 H 211.995 6.47191 -1.98678 0
M  V30 2352 H 216.637 4.22543 -0.147326 0
M  V30 2353 H 214.355 7.38245 -3.28664 0
M  V30 2354 H 217.941 5.53559 -1.79063 0
M  V30 2355 H 216.821 7.09556 -3.33917 0
M  V30 2356 N 214.325 -0.140222 1.56975 0
M  V30 2357 C 215.255 -1.17456 2.01808 0
M  V30 2358 C 216.236 -1.44415 0.898794 0
M  V30 2359 O 217.421 -1.5522 1.16707 0
M  V30 2360 C 214.551 -2.50607 2.40444 0
M  V30 2361 C 213.505 -2.38155 3.55621 0
M  V30 2362 C 212.831 -3.76078 3.80091 0
M  V30 2363 C 214.131 -1.85991 4.88062 0
M  V30 2364 H 215.825 -0.801743 2.88466 0
M  V30 2365 H 213.371 -0.38422 1.38779 0
M  V30 2366 H 215.324 -3.23197 2.7041 0
M  V30 2367 H 214.048 -2.89737 1.50732 0
M  V30 2368 H 212.707 -1.68016 3.25832 0
M  V30 2369 H 212.355 -4.12656 2.87618 0
M  V30 2370 H 212.055 -3.68606 4.57606 0
M  V30 2371 H 213.579 -4.50206 4.12488 0
M  V30 2372 H 214.993 -2.4838 5.16701 0
M  V30 2373 H 213.39 -1.89393 5.6943 0
M  V30 2374 H 214.46 -0.816023 4.77984 0
M  V30 2375 N 215.803 -1.52179 -0.40978 0
M  V30 2376 C 216.713 -1.78364 -1.52392 0
M  V30 2377 C 217.729 -0.669183 -1.60617 0
M  V30 2378 O 218.905 -0.954518 -1.77344 0
M  V30 2379 C 215.97 -1.92822 -2.88133 0
M  V30 2380 C 215.031 -3.16725 -2.898 0
M  V30 2381 C 214.264 -3.30483 -4.19067 0
M  V30 2382 O 214.487 -2.49522 -5.12928 0
M  V30 2383 O 213.421 -4.2363 -4.27576 0
M  V30 2384 H 217.247 -2.72931 -1.33201 0
M  V30 2385 H 214.832 -1.37016 -0.59557 0
M  V30 2386 H 216.714 -2.04157 -3.68643 0
M  V30 2387 H 215.389 -1.01444 -3.07393 0
M  V30 2388 H 214.296 -3.10848 -2.08146 0
M  V30 2389 H 215.629 -4.07881 -2.75489 0
M  V30 2390 N 217.281 0.66697 -1.42791 0
M  V30 2391 C 218.558 1.4234 -1.34159 0
M  V30 2392 C 218.938 2.11093 0.0172729 0
M  V30 2393 O 218.286 2.03808 1.03318 0
M  V30 2394 C 218.496 2.41942 -2.51526 0
M  V30 2395 C 219.844 3.06353 -2.93995 0
M  V30 2396 O 220.868 2.52269 -2.51473 0
M  V30 2397 O 219.727 4.04376 -3.67617 0
M  V30 2398 H 216.821 0.635277 -0.529483 0
M  V30 2399 H 219.367 0.695034 -1.54814 0
M  V30 2400 H 218.139 1.89991 -3.42081 0
M  V30 2401 H 217.762 3.22249 -2.32898 0
M  V30 2402 N 218.759 1.29093 0.90403 0
M  V30 2403 C 219.706 1.13853 2.00764 0
M  V30 2404 C 220.676 0.0330084 1.66067 0
M  V30 2405 O 221.861 0.199733 1.89752 0
M  V30 2406 C 219.001 0.816537 3.35301 0
M  V30 2407 C 218.114 2.00206 3.82807 0
M  V30 2408 C 217.249 1.61983 5.059 0
M  V30 2409 C 216.288 2.77143 5.45764 0
M  V30 2410 N 215.425 2.39346 6.60044 0
M  V30 2411 H 220.265 2.08276 2.13132 0
M  V30 2412 H 217.802 1.03648 1.04381 0
M  V30 2413 H 219.76 0.610557 4.12708 0
M  V30 2414 H 218.39 -0.090779 3.22672 0
M  V30 2415 H 217.442 2.31988 3.01473 0
M  V30 2416 H 218.754 2.86512 4.08304 0
M  V30 2417 H 217.908 1.37649 5.90879 0
M  V30 2418 H 216.647 0.728202 4.82233 0
M  V30 2419 H 215.652 3.02165 4.59322 0
M  V30 2420 H 216.877 3.66964 5.71414 0
M  V30 2421 H 214.823 1.52665 6.37989 0
M  V30 2422 H 214.74 3.19185 6.85315 0
M  V30 2423 H 216.008 2.1832 7.48303 0
M  V30 2424 N 220.237 -1.11381 1.11499 0
M  V30 2425 C 221.484 -1.83132 0.864231 0
M  V30 2426 C 221.812 -1.84683 -0.610114 0
M  V30 2427 O 221.067 -1.29589 -1.46646 0
M  V30 2428 C 221.366 -3.30026 1.37177 0
M  V30 2429 C 221.032 -3.48634 2.85946 0
M  V30 2430 C 219.694 -3.53421 3.26569 0
M  V30 2431 C 222.046 -3.54837 3.81759 0
M  V30 2432 C 219.374 -3.61967 4.61733 0
M  V30 2433 C 221.726 -3.64915 5.1674 0
M  V30 2434 C 220.39 -3.67962 5.5692 0
M  V30 2435 H 219.66 -0.670127 0.316245 0
M  V30 2436 H 222.307 -1.31354 1.3935 0
M  V30 2437 H 220.612 -3.84304 0.762753 0
M  V30 2438 H 222.309 -3.84034 1.15408 0
M  V30 2439 H 218.899 -3.45579 2.53521 0
M  V30 2440 H 223.083 -3.50399 3.51474 0
M  V30 2441 H 218.339 -3.62603 4.92269 0
M  V30 2442 H 222.513 -3.68658 5.90816 0
M  V30 2443 H 220.14 -3.74336 6.61647 0
M  V30 2444 N 221.715 -0.905404 -1.28997 0
M  V30 2445 C 222.645 -0.404212 -2.29975 0
M  V30 2446 C 223.626 0.523784 -1.61835 0
M  V30 2447 O 224.811 0.433298 -1.89304 0
M  V30 2448 C 221.941 0.364042 -3.45387 0
M  V30 2449 C 220.895 -0.474048 -4.25367 0
M  V30 2450 C 220.221 0.422045 -5.33032 0
M  V30 2451 C 221.521 -1.72696 -4.92923 0
M  V30 2452 H 223.215 -1.24807 -2.72146 0
M  V30 2453 H 220.761 -0.601585 -1.30832 0
M  V30 2454 H 222.714 0.725447 -4.15109 0
M  V30 2455 H 221.438 1.24174 -3.02074 0
M  V30 2456 H 220.097 -0.81786 -3.57361 0
M  V30 2457 H 219.745 1.29804 -4.85963 0
M  V30 2458 H 219.445 -0.135057 -5.87445 0
M  V30 2459 H 220.969 0.779517 -6.05604 0
M  V30 2460 H 222.383 -1.43495 -5.55051 0
M  V30 2461 H 220.78 -2.22582 -5.57295 0
M  V30 2462 H 221.85 -2.45964 -4.17887 0
M  V30 2463 N 223.193 1.4272 -0.668489 0
M  V30 2464 C 224.441 2.01226 -0.187769 0
M  V30 2465 C 224.762 1.53092 1.2078 0
M  V30 2466 O 224.032 0.74993 1.80977 0
M  V30 2467 H 222.612 0.744041 -0.0664272 0
M  V30 2468 H 225.274 1.74723 -0.863583 0
M  V30 2469 H 224.37 3.11556 -0.184166 0
M  V30 2470 N 224.671 0.411399 1.52136 0
M  V30 2471 C 225.948 -0.222308 1.94333 0
M  V30 2472 C 226.328 -1.6242 1.34844 0
M  V30 2473 O 225.676 -2.22384 0.525145 0
M  V30 2474 C 225.886 -0.226345 3.48265 0
M  V30 2475 C 227.234 -0.444592 4.22266 0
M  V30 2476 O 228.258 -0.305602 3.54887 0
M  V30 2477 O 227.117 -0.718749 5.41753 0
M  V30 2478 H 224.211 -0.143907 0.814383 0
M  V30 2479 H 226.757 0.467506 1.63133 0
M  V30 2480 H 225.529 0.75475 3.83952 0
M  V30 2481 H 225.152 -0.960163 3.85832 0
M  V30 2482 N 226.149 -1.5696 0.141893 0
M  V30 2483 C 227.565 -1.58151 -0.21456 0
M  V30 2484 C 227.765 -1.1559 -1.65049 0
M  V30 2485 O 226.821 -0.853832 -2.37626 0
M  V30 2486 C 228.134 -3.00674 0.0395576 0
M  V30 2487 C 229.682 -3.1299 -0.0245529 0
M  V30 2488 C 230.157 -4.57554 0.202167 0
M  V30 2489 N 231.648 -4.62961 0.148919 0
M  V30 2490 C 232.383 -5.7262 0.298924 0
M  V30 2491 N 231.879 -6.90947 0.50637 0
M  V30 2492 N 233.672 -5.61601 0.236886 0
M  V30 2493 H 225.823 -1.8292 1.07953 0
M  V30 2494 H 228.086 -0.846425 0.42693 0
M  V30 2495 H 227.792 -3.36183 1.03315 0
M  V30 2496 H 227.666 -3.70981 -0.682143 0
M  V30 2497 H 230.053 -2.77326 -1.00869 0
M  V30 2498 H 230.134 -2.4518 0.729396 0
M  V30 2499 H 229.778 -4.93922 1.18338 0
M  V30 2500 H 229.708 -5.23484 -0.572044 0
M  V30 2501 H 232.199 -3.77899 -0.00697015 0
M  V30 2502 H 232.512 -7.7038 0.611076 0
M  V30 2503 H 230.857 -6.92878 0.542628 0
M  V30 2504 H 234.048 -4.68039 0.0756209 0
M  V30 2505 H 234.221 -6.47015 0.357227 0
M  V30 2506 N 227.627 0.131896 -1.57047 0
M  V30 2507 C 229.038 0.690407 -1.73465 0
M  V30 2508 C 229.389 1.8094 -0.758629 0
M  V30 2509 O 228.514 2.16282 0.0713813 0
M  V30 2510 C 229.109 1.25916 -3.14532 0
M  V30 2511 C 227.668 1.76409 -3.32501 0
M  V30 2512 C 226.815 0.658579 -2.69366 0
M  V30 2513 H 229.766 -0.0939144 -1.58422 0
M  V30 2514 H 229.787 2.12892 -3.15369 0
M  V30 2515 H 229.299 0.444515 -3.85546 0
M  V30 2516 H 227.4 2.60391 -2.66509 0
M  V30 2517 H 227.513 1.88241 -4.4057 0
M  V30 2518 H 225.877 1.08899 -2.30246 0
M  V30 2519 H 226.66 -0.14487 -3.42994 0
M  V30 2520 N 229.106 1.52395 0.401703 0
M  V30 2521 C 230.353 1.66817 1.14796 0
M  V30 2522 C 230.681 0.401772 1.90305 0
M  V30 2523 O 229.936 -0.615487 1.85769 0
M  V30 2524 C 230.235 2.84578 2.16217 0
M  V30 2525 C 229.901 4.22513 1.5746 0
M  V30 2526 C 228.563 4.60029 1.41161 0
M  V30 2527 C 230.915 5.0844 1.14622 0
M  V30 2528 C 228.243 5.81144 0.80552 0
M  V30 2529 C 230.595 6.30167 0.55428 0
M  V30 2530 C 229.259 6.66426 0.378482 0
M  V30 2531 H 228.529 0.610428 0.420069 0
M  V30 2532 H 231.176 1.86512 0.434212 0
M  V30 2533 H 229.481 2.59248 2.93764 0
M  V30 2534 H 231.178 2.92933 2.73845 0
M  V30 2535 H 227.768 3.92953 1.71132 0
M  V30 2536 H 231.952 4.80034 1.26021 0
M  V30 2537 H 227.208 6.07855 0.657399 0
M  V30 2538 H 231.382 6.96071 0.213983 0
M  V30 2539 H 229.009 7.60143 -0.0932606 0
M  V30 2540 N 230.584 -0.659388 1.43143 0
M  V30 2541 C 231.514 -1.78422 1.50625 0
M  V30 2542 C 232.495 -1.66216 0.361443 0
M  V30 2543 O 233.68 -1.85404 0.577834 0
M  V30 2544 C 230.81 -3.16815 1.42287 0
M  V30 2545 C 229.764 -3.43777 2.54954 0
M  V30 2546 C 229.09 -4.81905 2.31671 0
M  V30 2547 C 230.39 -3.39134 3.97222 0
M  V30 2548 H 232.084 -1.72417 2.44771 0
M  V30 2549 H 229.63 -0.828084 1.17808 0
M  V30 2550 H 231.583 -3.95253 1.46127 0
M  V30 2551 H 230.307 -3.23534 0.446435 0
M  V30 2552 H 228.966 -2.67707 2.50457 0
M  V30 2553 H 228.614 -4.85294 1.32284 0
M  V30 2554 H 228.314 -5.00906 3.07192 0
M  V30 2555 H 229.838 -5.62609 2.37284 0
M  V30 2556 H 231.252 -4.07518 4.03239 0
M  V30 2557 H 229.649 -3.69671 4.72719 0
M  V30 2558 H 230.719 -2.37426 4.22797 0
M  V30 2559 N 232.062 -1.29571 -0.897171 0
M  V30 2560 C 233.025 -1.14913 -1.98312 0
M  V30 2561 C 234.025 -0.0838629 -1.60581 0
M  V30 2562 O 235.215 -0.331006 -1.71026 0
M  V30 2563 C 232.347 -0.757835 -3.3237 0
M  V30 2564 H 233.54 -2.11377 -2.12743 0
M  V30 2565 H 231.093 -1.12793 -1.08201 0
M  V30 2566 H 231.828 0.206837 -3.2364 0
M  V30 2567 H 231.613 -1.52755 -3.61121 0
M  V30 2568 H 233.103 -0.678408 -4.12053 0
M  V30 2569 N 233.54 1.10788 -1.12088 0
M  V30 2570 C 234.788 1.8231 -0.872205 0
M  V30 2571 C 235.109 1.85419 0.603709 0
M  V30 2572 O 234.379 1.32963 1.43867 0
M  V30 2573 H 232.959 0.675137 -0.319686 0
M  V30 2574 H 235.621 1.34068 -1.41463 0
M  V30 2575 H 234.717 2.85955 -1.25045 0
M  V30 2576 N 235.018 0.912232 1.28515 0
M  V30 2577 C 235.95 0.35676 2.26406 0
M  V30 2578 C 236.963 -0.503933 1.54804 0
M  V30 2579 O 238.152 -0.319059 1.75625 0
M  V30 2580 C 235.252 -0.508825 3.35058 0
M  V30 2581 C 234.425 0.329007 4.36161 0
M  V30 2582 C 233.484 -0.471422 5.24084 0
M  V30 2583 O 232.51 0.115482 5.69083 0
M  V30 2584 N 233.712 -1.77479 5.52704 0
M  V30 2585 H 236.477 1.19818 2.74707 0
M  V30 2586 H 234.038 0.778022 1.4198 0
M  V30 2587 H 236.03 -1.051 3.90815 0
M  V30 2588 H 234.6 -1.25095 2.86478 0
M  V30 2589 H 233.82 1.05256 3.79888 0
M  V30 2590 H 235.108 0.90234 5.00735 0
M  V30 2591 H 234.506 -2.27417 5.17975 0
M  V30 2592 H 233.063 -2.26382 6.11224 0
M  V30 2593 N 236.496 -1.42363 0.676048 0
M  V30 2594 C 237.428 -2.29164 -0.0404605 0
M  V30 2595 C 238.441 -1.43747 -0.764245 0
M  V30 2596 O 239.63 -1.67453 -0.618195 0
M  V30 2597 C 236.73 -3.21196 -1.08103 0
M  V30 2598 C 235.903 -4.35273 -0.430812 0
M  V30 2599 C 234.962 -5.08017 -1.37133 0
M  V30 2600 O 233.988 -5.62494 -0.87116 0
M  V30 2601 N 235.19 -5.13647 -2.70456 0
M  V30 2602 H 237.955 -2.91298 0.704667 0
M  V30 2603 H 235.516 -1.53303 0.520559 0
M  V30 2604 H 237.508 -3.66728 -1.71152 0
M  V30 2605 H 236.078 -2.60505 -1.72788 0
M  V30 2606 H 235.298 -3.92372 0.379209 0
M  V30 2607 H 236.586 -5.08795 0.0221132 0
M  V30 2608 H 235.984 -4.708 -3.1363 0
M  V30 2609 H 234.541 -5.62821 -3.28749 0
M  V30 2610 N 237.974 -0.419461 -1.51915 0
M  V30 2611 C 239.22 0.153166 -2.02221 0
M  V30 2612 C 239.553 1.43907 -1.30401 0
M  V30 2613 O 238.828 1.90055 -0.413438 0
M  V30 2614 C 239.111 0.390291 -3.57979 0
M  V30 2615 C 238.964 -0.913014 -4.40436 0
M  V30 2616 C 240.283 1.16794 -4.2432 0
M  V30 2617 H 237.402 0.0541924 -0.735005 0
M  V30 2618 H 240.044 -0.554955 -1.81715 0
M  V30 2619 H 238.194 0.993491 -3.75582 0
M  V30 2620 H 239.866 -1.54882 -4.34522 0
M  V30 2621 H 238.109 -1.52168 -4.06236 0
M  V30 2622 H 238.78 -0.701361 -5.47526 0
M  V30 2623 H 241.256 0.657161 -4.10878 0
M  V30 2624 H 240.132 1.3026 -5.3322 0
M  V30 2625 H 240.393 2.19132 -3.83971 0
M  V30 2626 N 239.452 1.56882 -0.150215 0
M  V30 2627 C 240.68 2.00593 0.506948 0
M  V30 2628 C 241.095 1.03033 1.58208 0
M  V30 2629 O 240.452 0.0278396 1.82479 0
M  V30 2630 C 240.503 3.44209 1.10465 0
M  V30 2631 O 240.224 4.3804 0.0724636 0
M  V30 2632 C 241.725 4.03214 1.84211 0
M  V30 2633 H 238.945 0.65795 0.13169 0
M  V30 2634 H 241.489 2.03018 -0.245743 0
M  V30 2635 H 239.644 3.42625 1.80795 0
M  V30 2636 H 240.058 5.22007 0.510793 0
M  V30 2637 H 241.532 5.0569 2.21318 0
M  V30 2638 H 242.009 3.44107 2.72923 0
M  V30 2639 H 242.615 4.08437 1.18572 0
M  V30 2640 N 240.93 -0.123565 1.57115 0
M  V30 2641 C 241.86 -1.15309 2.03042 0
M  V30 2642 C 242.841 -1.43454 0.914061 0
M  V30 2643 O 244.026 -1.53973 1.18347 0
M  V30 2644 C 241.156 -2.48043 2.43089 0
M  V30 2645 C 240.11 -2.3437 3.58127 0
M  V30 2646 C 239.436 -3.72026 3.84059 0
M  V30 2647 C 240.736 -1.80804 4.90007 0
M  V30 2648 H 242.43 -0.771102 2.893 0
M  V30 2649 H 239.976 -0.369479 1.39179 0
M  V30 2650 H 241.929 -3.20311 2.73823 0
M  V30 2651 H 240.653 -2.88122 1.53796 0
M  V30 2652 H 239.312 -1.64551 3.27595 0
M  V30 2653 H 238.96 -4.09582 2.91979 0
M  V30 2654 H 238.66 -3.63732 4.6149 0
M  V30 2655 H 240.184 -4.45806 4.1724 0
M  V30 2656 H 241.598 -2.42886 5.19307 0
M  V30 2657 H 239.995 -1.83343 5.71407 0
M  V30 2658 H 241.065 -0.76528 4.78823 0
M  V30 2659 N 242.408 -1.52605 -0.393616 0
M  V30 2660 C 243.371 -1.76415 -1.46323 0
M  V30 2661 C 244.371 -0.634126 -1.47768 0
M  V30 2662 O 245.561 -0.902142 -1.4902 0
M  V30 2663 C 242.693 -1.8607 -2.85641 0
M  V30 2664 H 243.886 -2.71916 -1.26498 0
M  V30 2665 H 241.439 -1.43257 -0.625073 0
M  V30 2666 H 242.174 -0.925378 -3.10817 0
M  V30 2667 H 241.959 -2.68235 -2.85993 0
M  V30 2668 H 243.449 -2.06179 -3.63153 0
M  V30 2669 N 243.887 0.651787 -1.4349 0
M  V30 2670 C 245.164 1.40909 -1.35661 0
M  V30 2671 C 245.544 2.11099 -0.00511733 0
M  V30 2672 O 244.892 2.04892 1.0115 0
M  V30 2673 C 245.102 2.3926 -2.54078 0
M  V30 2674 C 246.45 3.03217 -2.97228 0
M  V30 2675 O 247.474 2.49588 -2.54135 0
M  V30 2676 O 246.333 4.00455 -3.71885 0
M  V30 2677 H 243.427 0.629625 -0.536191 0
M  V30 2678 H 245.973 0.678575 -1.55542 0
M  V30 2679 H 244.745 1.86352 -3.44076 0
M  V30 2680 H 244.368 3.1976 -2.36303 0
M  V30 2681 N 245.365 1.30045 0.890287 0
M  V30 2682 C 246.295 1.18541 2.01172 0
M  V30 2683 C 247.276 0.0773356 1.69924 0
M  V30 2684 O 248.461 0.25845 1.92473 0
M  V30 2685 C 245.591 0.870941 3.36202 0
M  V30 2686 C 244.545 1.93637 3.81692 0
M  V30 2687 C 243.871 1.475 5.13953 0
M  V30 2688 C 245.171 3.34666 4.00994 0
M  V30 2689 H 246.865 2.12359 2.11054 0
M  V30 2690 H 244.411 1.02238 1.01407 0
M  V30 2691 H 246.364 0.777141 4.14172 0
M  V30 2692 H 245.088 -0.102926 3.26438 0
M  V30 2693 H 243.747 2.01972 3.05946 0
M  V30 2694 H 243.395 0.489551 5.00612 0
M  V30 2695 H 243.095 2.1876 5.4536 0
M  V30 2696 H 244.619 1.39489 5.94454 0
M  V30 2697 H 246.033 3.2912 4.69417 0
M  V30 2698 H 244.43 4.03966 4.43769 0
M  V30 2699 H 245.5 3.76949 3.05021 0
M  V30 2700 N 246.843 -1.10192 1.12674 0
M  V30 2701 C 247.776 -2.15847 0.740625 0
M  V30 2702 C 248.754 -1.60352 -0.269421 0
M  V30 2703 O 249.938 -1.87796 -0.16278 0
M  V30 2704 C 247.065 -3.38562 0.096641 0
M  V30 2705 C 246.111 -4.12758 1.07391 0
M  V30 2706 S 246.944 -4.67997 2.60267 0
M  V30 2707 C 248.1 -5.94021 1.97206 0
M  V30 2708 H 248.333 -2.48266 1.63558 0
M  V30 2709 H 245.866 -1.22019 0.946087 0
M  V30 2710 H 247.824 -4.09621 -0.268535 0
M  V30 2711 H 246.485 -3.04377 -0.775462 0
M  V30 2712 H 245.678 -5.00755 0.570997 0
M  V30 2713 H 245.28 -3.47523 1.38216 0
M  V30 2714 H 247.572 -6.64589 1.31634 0
M  V30 2715 H 248.515 -6.48979 2.83253 0
M  V30 2716 H 248.923 -5.46169 1.42686 0
M  V30 2717 N 248.321 -0.919034 -1.28029 0
M  V30 2718 C 249.284 -0.416182 -2.2539 0
M  V30 2719 C 250.284 0.460438 -1.54067 0
M  V30 2720 O 251.474 0.262744 -1.72207 0
M  V30 2721 C 248.606 0.402707 -3.38513 0
M  V30 2722 H 249.799 -1.27629 -2.71387 0
M  V30 2723 H 247.352 -0.698919 -1.39803 0
M  V30 2724 H 248.087 1.282 -2.97885 0
M  V30 2725 H 247.872 -0.225698 -3.9145 0
M  V30 2726 H 249.362 0.745191 -4.10897 0
M  V30 2727 N 249.799 1.42003 -0.683588 0
M  V30 2728 C 250.729 2.33487 -0.024866 0
M  V30 2729 C 251.71 1.51163 0.779975 0
M  V30 2730 O 252.895 1.79739 0.735362 0
M  V30 2731 C 250.025 3.3487 0.920836 0
M  V30 2732 C 248.979 4.27414 0.223958 0
M  V30 2733 C 248.305 5.19074 1.2832 0
M  V30 2734 C 249.605 5.14445 -0.90242 0
M  V30 2735 H 251.299 2.88819 -0.788921 0
M  V30 2736 H 248.845 1.38873 -0.38083 0
M  V30 2737 H 250.798 3.97787 1.39081 0
M  V30 2738 H 249.522 2.77861 1.71642 0
M  V30 2739 H 248.181 3.65904 -0.225864 0
M  V30 2740 H 247.829 4.58387 2.071 0
M  V30 2741 H 247.529 5.81822 0.821995 0
M  V30 2742 H 249.053 5.84867 1.75392 0
M  V30 2743 H 250.467 5.70998 -0.513272 0
M  V30 2744 H 248.864 5.86072 -1.28997 0
M  V30 2745 H 249.934 4.52322 -1.74737 0
M  V30 2746 N 251.277 0.427512 1.51691 0
M  V30 2747 C 252.187 -0.39527 2.31246 0
M  V30 2748 C 253.203 -1.03674 1.39742 0
M  V30 2749 O 254.379 -1.03425 1.72816 0
M  V30 2750 C 251.444 -1.48706 3.13189 0
M  V30 2751 C 250.505 -0.866743 4.20459 0
M  V30 2752 C 249.738 -1.90651 4.98486 0
M  V30 2753 O 249.961 -3.12733 4.77026 0
M  V30 2754 O 248.895 -1.5025 5.82845 0
M  V30 2755 H 252.721 0.253918 3.02637 0
M  V30 2756 H 250.306 0.190274 1.48183 0
M  V30 2757 H 252.188 -2.12047 3.64162 0
M  V30 2758 H 250.863 -2.12051 2.44573 0
M  V30 2759 H 249.77 -0.195544 3.73589 0
M  V30 2760 H 251.103 -0.276934 4.9142 0
M  V30 2761 N 252.755 -1.56801 0.158532 0
M  V30 2762 C 253.665 -2.20916 -0.789518 0
M  V30 2763 C 254.681 -1.1969 -1.26294 0
M  V30 2764 O 255.857 -1.52308 -1.31773 0
M  V30 2765 C 252.922 -2.82727 -2.00665 0
M  V30 2766 C 251.983 -3.99114 -1.58134 0
M  V30 2767 C 251.216 -4.57968 -2.74045 0
M  V30 2768 O 251.439 -4.15704 -3.90572 0
M  V30 2769 O 250.373 -5.48047 -2.48855 0
M  V30 2770 H 254.199 -3.02464 -0.273681 0
M  V30 2771 H 251.784 -1.4924 -0.0690548 0
M  V30 2772 H 253.666 -3.21968 -2.71872 0
M  V30 2773 H 252.341 -2.04184 -2.51179 0
M  V30 2774 H 251.248 -3.64567 -0.839155 0
M  V30 2775 H 252.581 -4.79212 -1.12325 0
M  V30 2776 N 254.233 0.115231 -1.57178 0
M  V30 2777 C 255.163 1.1423 -2.03651 0
M  V30 2778 C 256.144 1.42967 -0.921655 0
M  V30 2779 O 257.329 1.53343 -1.19162 0
M  V30 2780 C 254.459 2.4675 -2.44401 0
M  V30 2781 C 253.413 2.32467 -3.59365 0
M  V30 2782 C 252.739 3.69984 -3.86026 0
M  V30 2783 C 254.039 1.78203 -4.90959 0
M  V30 2784 H 255.733 0.755749 -2.89705 0
M  V30 2785 H 253.279 0.362093 -1.39373 0
M  V30 2786 H 255.232 3.18854 -2.75517 0
M  V30 2787 H 253.956 2.87302 -1.55322 0
M  V30 2788 H 252.615 1.62811 -3.28463 0
M  V30 2789 H 252.263 4.08028 -2.94147 0
M  V30 2790 H 251.963 3.61279 -4.63412 0
M  V30 2791 H 253.487 4.43587 -4.19599 0
M  V30 2792 H 254.901 2.40128 -5.20587 0
M  V30 2793 H 253.298 1.8031 -5.72371 0
M  V30 2794 H 254.368 0.739876 -4.79222 0
M  V30 2795 N 255.711 1.52812 0.385517 0
M  V30 2796 C 256.644 1.72592 1.49289 0
M  V30 2797 C 257.622 0.573819 1.52138 0
M  V30 2798 O 258.806 0.80404 1.70492 0
M  V30 2799 C 255.933 1.78669 2.87741 0
M  V30 2800 C 254.979 3.00455 3.02703 0
M  V30 2801 S 255.812 4.60366 2.73538 0
M  V30 2802 C 256.968 4.69263 4.14177 0
M  V30 2803 H 257.201 2.66248 1.32285 0
M  V30 2804 H 254.734 1.43148 0.578611 0
M  V30 2805 H 256.692 1.82855 3.67524 0
M  V30 2806 H 255.353 0.861 3.02069 0
M  V30 2807 H 254.546 3.01258 4.04054 0
M  V30 2808 H 254.148 2.94278 2.30817 0
M  V30 2809 H 256.44 4.48092 5.08153 0
M  V30 2810 H 257.383 5.71276 4.18388 0
M  V30 2811 H 257.791 3.98072 4.00249 0
M  V30 2812 N 257.189 -0.644168 1.43834 0
M  V30 2813 C 258.121 -1.76955 1.45669 0
M  V30 2814 C 259.134 -1.58956 0.351666 0
M  V30 2815 O 260.323 -1.6751 0.616644 0
M  V30 2816 C 257.423 -3.14507 1.26248 0
M  V30 2817 C 256.596 -3.59083 2.49757 0
M  V30 2818 C 255.655 -4.75467 2.25427 0
M  V30 2819 O 254.681 -4.84444 2.98836 0
M  V30 2820 N 255.883 -5.66289 1.27661 0
M  V30 2821 H 258.648 -1.75856 2.42682 0
M  V30 2822 H 256.209 -0.828312 1.39106 0
M  V30 2823 H 258.201 -3.90067 1.0784 0
M  V30 2824 H 256.771 -3.10325 0.376478 0
M  V30 2825 H 255.991 -2.7387 2.8353 0
M  V30 2826 H 257.279 -3.85613 3.31934 0
M  V30 2827 H 256.677 -5.61718 0.670064 0
M  V30 2828 H 255.234 -6.41533 1.15234 0
M  V30 2829 N 258.668 -1.30515 -0.883378 0
M  V30 2830 C 260.079 -1.17509 -1.45081 0
M  V30 2831 C 260.43 0.223605 -1.94922 0
M  V30 2832 O 259.555 1.12041 -1.85137 0
M  V30 2833 C 260.15 -2.12715 -2.63701 0
M  V30 2834 C 258.709 -2.03682 -3.16529 0
M  V30 2835 C 257.856 -2.02706 -1.89224 0
M  V30 2836 H 260.807 -1.42762 -0.693165 0
M  V30 2837 H 260.828 -1.70891 -3.39965 0
M  V30 2838 H 260.34 -3.14505 -2.27395 0
M  V30 2839 H 258.441 -1.05039 -3.57488 0
M  V30 2840 H 258.554 -2.92146 -3.7972 0
M  V30 2841 H 256.918 -1.4753 -2.07622 0
M  V30 2842 H 257.701 -3.06229 -1.55174 0
M  V30 2843 N 260.146 1.09593 -1.13257 0
M  V30 2844 C 261.392 1.82003 -0.89458 0
M  V30 2845 C 261.725 1.85402 0.577906 0
M  V30 2846 O 261 1.32099 1.42759 0
M  V30 2847 C 261.283 3.28237 -1.48096 0
M  V30 2848 C 261.136 3.3312 -3.02244 0
M  V30 2849 C 262.455 4.24871 -1.14774 0
M  V30 2850 H 259.574 0.66077 -0.326424 0
M  V30 2851 H 262.216 1.28389 -1.40058 0
M  V30 2852 H 260.366 3.74024 -1.05062 0
M  V30 2853 H 262.038 2.95748 -3.54021 0
M  V30 2854 H 260.281 2.72756 -3.37323 0
M  V30 2855 H 260.952 4.3613 -3.38371 0
M  V30 2856 H 263.428 3.87361 -1.51957 0
M  V30 2857 H 262.304 5.25532 -1.58452 0
M  V30 2858 H 262.565 4.42058 -0.0611849 0
M  V30 2859 N 261.624 0.925811 1.2754 0
M  V30 2860 C 262.587 0.428129 2.25166 0
M  V30 2861 C 263.587 -0.452261 1.54309 0
M  V30 2862 O 264.777 -0.253608 1.72344 0
M  V30 2863 C 261.909 -0.384749 3.38722 0
M  V30 2864 H 263.102 1.29066 2.70706 0
M  V30 2865 H 260.655 0.706323 1.3943 0
M  V30 2866 H 261.39 -1.26618 2.98561 0
M  V30 2867 H 261.175 0.246454 3.91325 0
M  V30 2868 H 262.665 -0.723389 4.11287 0
M  V30 2869 N 263.102 -1.41638 0.69111 0
M  V30 2870 C 264.032 -2.3347 0.037248 0
M  V30 2871 C 265.013 -1.51575 -0.771947 0
M  V30 2872 O 266.198 -1.80126 -0.72582 0
M  V30 2873 C 263.328 -3.35354 -0.903064 0
M  V30 2874 C 262.282 -4.27526 -0.201288 0
M  V30 2875 C 261.608 -5.19747 -1.25565 0
M  V30 2876 C 262.908 -5.13959 0.929689 0
M  V30 2877 H 264.602 -2.88397 0.804227 0
M  V30 2878 H 262.148 -1.38669 0.388189 0
M  V30 2879 H 264.101 -3.98519 -1.36969 0
M  V30 2880 H 262.825 -2.78767 -1.70166 0
M  V30 2881 H 261.484 -3.65779 0.245265 0
M  V30 2882 H 261.132 -4.59479 -2.04666 0
M  V30 2883 H 260.832 -5.8225 -0.791128 0
M  V30 2884 H 262.356 -5.85789 -1.72288 0
M  V30 2885 H 263.77 -5.70718 0.543546 0
M  V30 2886 H 262.167 -5.85379 1.32103 0
M  V30 2887 H 263.237 -4.51389 1.77133 0
M  V30 2888 N 264.58 -0.43555 -1.51462 0
M  V30 2889 C 265.828 0.131254 -2.01673 0
M  V30 2890 C 266.149 1.43368 -1.32177 0
M  V30 2891 O 265.419 1.90524 -0.455769 0
M  V30 2892 H 263.999 0.0514954 -0.745223 0
M  V30 2893 H 266.661 -0.577847 -1.86137 0
M  V30 2894 H 265.757 0.308446 -3.10572 0
M  V30 2895 N 266.058 1.56714 -0.166846 0
M  V30 2896 C 267.288 2.00828 0.48494 0
M  V30 2897 C 267.696 1.04612 1.57648 0
M  V30 2898 O 267.039 0.0383201 1.8366 0
M  V30 2899 C 267.101 3.4137 1.12723 0
M  V30 2900 C 266.765 4.56654 0.177886 0
M  V30 2901 C 267.762 5.16402 -0.60207 0
M  V30 2902 C 265.447 5.02244 0.0750139 0
M  V30 2903 C 267.441 6.20167 -1.47215 0
M  V30 2904 C 265.128 6.05859 -0.798649 0
M  V30 2905 C 266.126 6.64691 -1.57082 0
M  V30 2906 O 265.814 7.66297 -2.42989 0
M  V30 2907 H 265.546 0.663587 0.128953 0
M  V30 2908 H 268.1 2.03692 -0.264365 0
M  V30 2909 H 266.33 3.35406 1.92457 0
M  V30 2910 H 268.019 3.69466 1.68076 0
M  V30 2911 H 268.785 4.82065 -0.53274 0
M  V30 2912 H 264.664 4.56167 0.665812 0
M  V30 2913 H 268.208 6.66016 -2.07531 0
M  V30 2914 H 264.105 6.39621 -0.869199 0
M  V30 2915 H 264.873 7.83601 -2.36455 0
M  V30 2916 N 267.536 -0.106894 1.57237 0
M  V30 2917 C 268.446 -1.14911 2.0453 0
M  V30 2918 C 269.462 -1.44592 0.96795 0
M  V30 2919 O 270.638 -1.55468 1.2803 0
M  V30 2920 C 267.703 -2.45272 2.45036 0
M  V30 2921 C 266.764 -2.22879 3.66911 0
M  V30 2922 C 265.997 -3.47024 4.05475 0
M  V30 2923 O 266.22 -4.54804 3.44252 0
M  V30 2924 O 265.154 -3.3731 4.98504 0
M  V30 2925 H 268.98 -0.777461 2.9358 0
M  V30 2926 H 266.565 -0.318563 1.45964 0
M  V30 2927 H 268.447 -3.22055 2.71769 0
M  V30 2928 H 267.122 -2.81886 1.59129 0
M  V30 2929 H 266.029 -1.43915 3.45311 0
M  V30 2930 H 267.362 -1.91163 4.53561 0
M  V30 2931 N 269.014 -1.53014 -0.377408 0
M  V30 2932 C 269.944 -1.81589 -1.46791 0
M  V30 2933 C 270.925 -0.668622 -1.56408 0
M  V30 2934 O 272.11 -0.917337 -1.71168 0
M  V30 2935 C 269.24 -1.99519 -2.8427 0
M  V30 2936 C 268.194 -3.15249 -2.89486 0
M  V30 2937 C 267.52 -3.18451 -4.29527 0
M  V30 2938 C 268.82 -4.54084 -2.58079 0
M  V30 2939 H 270.514 -2.7291 -1.23127 0
M  V30 2940 H 268.06 -1.31319 -0.590883 0
M  V30 2941 H 270.013 -2.18092 -3.60575 0
M  V30 2942 H 268.737 -1.04897 -3.09296 0
M  V30 2943 H 267.396 -2.96477 -2.15631 0
M  V30 2944 H 267.044 -2.2149 -4.5161 0
M  V30 2945 H 266.744 -3.962 -4.33934 0
M  V30 2946 H 268.268 -3.39193 -5.07721 0
M  V30 2947 H 269.682 -4.72899 -3.24098 0
M  V30 2948 H 268.079 -5.33987 -2.7382 0
M  V30 2949 H 269.149 -4.60006 -1.53372 0
M  V30 2950 N 270.492 0.636531 -1.44174 0
M  V30 2951 C 271.739 1.39619 -1.46672 0
M  V30 2952 C 272.067 1.94257 -0.0972691 0
M  V30 2953 O 271.322 1.73768 0.900175 0
M  V30 2954 C 271.621 2.58309 -2.47005 0
M  V30 2955 C 271.287 2.21992 -3.92467 0
M  V30 2956 C 269.949 2.118 -4.32081 0
M  V30 2957 C 272.301 1.9321 -4.84065 0
M  V30 2958 C 269.629 1.71007 -5.61225 0
M  V30 2959 C 271.981 1.53911 -6.13591 0
M  V30 2960 C 270.645 1.42257 -6.52165 0
M  V30 2961 H 269.915 0.510902 -0.536712 0
M  V30 2962 H 272.562 0.722328 -1.77355 0
M  V30 2963 H 270.867 3.30903 -2.09786 0
M  V30 2964 H 272.564 3.16533 -2.46186 0
M  V30 2965 H 269.154 2.30841 -3.61124 0
M  V30 2966 H 273.338 1.99997 -4.54219 0
M  V30 2967 H 268.594 1.60583 -5.89935 0
M  V30 2968 H 272.768 1.30677 -6.8403 0
M  V30 2969 H 270.395 1.10419 -7.52138 0
M  V30 2970 N 271.97 1.30982 0.876444 0
M  V30 2971 C 272.88 1.2003 2.01569 0
M  V30 2972 C 273.896 0.11838 1.73597 0
M  V30 2973 O 275.072 0.33495 1.98595 0
M  V30 2974 C 272.137 0.901637 3.34771 0
M  V30 2975 C 271.198 2.06979 3.76109 0
M  V30 2976 C 270.431 1.78529 5.02954 0
M  V30 2977 O 270.654 0.717296 5.65872 0
M  V30 2978 O 269.588 2.64019 5.40905 0
M  V30 2979 H 273.414 2.15753 2.13739 0
M  V30 2980 H 270.999 1.10658 1.00375 0
M  V30 2981 H 272.881 0.750645 4.1466 0
M  V30 2982 H 271.556 -0.0256141 3.2369 0
M  V30 2983 H 270.463 2.27616 2.96887 0
M  V30 2984 H 271.796 2.97907 3.91807 0
M  V30 2985 N 273.449 -1.08991 1.13837 0
M  V30 2986 C 274.697 -1.80899 0.901098 0
M  V30 2987 C 275.018 -1.86356 -0.574134 0
M  V30 2988 O 274.288 -1.35235 -1.41733 0
M  V30 2989 H 272.868 -0.669966 0.330386 0
M  V30 2990 H 275.53 -1.318 1.43578 0
M  V30 2991 H 274.626 -2.83929 1.29578 0
M  V30 2992 N 274.927 -0.932562 -1.27047 0
M  V30 2993 C 276.343 -0.633544 -1.46487 0
M  V30 2994 C 276.543 0.815746 -1.84249 0
M  V30 2995 O 275.599 1.59319 -1.95892 0
M  V30 2996 C 276.912 -1.58758 -2.55375 0
M  V30 2997 C 278.46 -1.59634 -2.69232 0
M  V30 2998 C 278.935 -2.53747 -3.81283 0
M  V30 2999 N 280.426 -2.51982 -3.88664 0
M  V30 3000 C 281.161 -3.21491 -4.74796 0
M  V30 3001 N 280.657 -4.00395 -5.65381 0
M  V30 3002 N 282.45 -3.10485 -4.68568 0
M  V30 3003 H 274.601 -1.86946 -1.00821 0
M  V30 3004 H 276.864 -0.802897 -0.504044 0
M  V30 3005 H 276.57 -2.62172 -2.34432 0
M  V30 3006 H 276.444 -1.33301 -3.52861 0
M  V30 3007 H 278.831 -0.569488 -2.89553 0
M  V30 3008 H 278.912 -1.89142 -1.72218 0
M  V30 3009 H 278.556 -3.56545 -3.61715 0
M  V30 3010 H 278.486 -2.21532 -4.77735 0
M  V30 3011 H 280.977 -1.94681 -3.23895 0
M  V30 3012 H 281.29 -4.50406 -6.27976 0
M  V30 3013 H 279.635 -4.04498 -5.65161 0
M  V30 3014 H 282.826 -2.48331 -3.96799 0
M  V30 3015 H 282.999 -3.64925 -5.35475 0
M  V30 3016 N 276.405 1.4127 -0.698611 0
M  V30 3017 C 277.816 1.84187 -0.305289 0
M  V30 3018 C 278.167 1.58449 1.15708 0
M  V30 3019 O 277.292 1.05651 1.88856 0
M  V30 3020 C 277.887 3.3435 -0.547314 0
M  V30 3021 C 276.446 3.75826 -0.207878 0
M  V30 3022 C 275.593 2.64647 -0.828099 0
M  V30 3023 H 278.544 1.30778 -0.89904 0
M  V30 3024 H 278.565 3.8001 0.192998 0
M  V30 3025 H 278.077 3.53051 -1.61172 0
M  V30 3026 H 276.178 3.62725 0.852143 0
M  V30 3027 H 276.291 4.74462 -0.665021 0
M  V30 3028 H 274.655 2.53395 -0.257458 0
M  V30 3029 H 275.438 2.86165 -1.89643 0
M  V30 3030 N 277.883 0.443576 1.51229 0
M  V30 3031 C 279.299 0.0962001 1.5931 0
M  V30 3032 C 279.499 -1.39501 1.45402 0
M  V30 3033 O 278.555 -2.16557 1.29843 0
M  V30 3034 C 279.868 0.621875 2.94199 0
M  V30 3035 C 281.416 0.582865 3.07525 0
M  V30 3036 C 281.891 1.08562 4.44948 0
M  V30 3037 N 283.382 1.04387 4.51284 0
M  V30 3038 C 284.117 1.40368 5.55954 0
M  V30 3039 N 283.613 1.83664 6.68011 0
M  V30 3040 N 285.406 1.32145 5.46346 0
M  V30 3041 H 277.557 1.41376 1.58514 0
M  V30 3042 H 279.82 0.582965 0.747567 0
M  V30 3043 H 279.526 1.66546 3.09767 0
M  V30 3044 H 279.4 0.0502125 3.77167 0
M  V30 3045 H 281.787 -0.451749 2.91622 0
M  V30 3046 H 281.868 1.191 2.26382 0
M  V30 3047 H 281.512 2.11873 4.61598 0
M  V30 3048 H 281.442 0.453956 5.2464 0
M  V30 3049 H 283.933 0.725986 3.70861 0
M  V30 3050 H 284.246 2.0934 7.43906 0
M  V30 3051 H 282.591 1.87596 6.69203 0
M  V30 3052 H 285.782 0.981808 4.57688 0
M  V30 3053 H 285.955 1.60514 6.27805 0
M  V30 3054 N 279.361 -1.56624 0.175154 0
M  V30 3055 C 280.291 -2.21155 -0.749195 0
M  V30 3056 C 281.272 -1.16836 -1.23626 0
M  V30 3057 O 282.457 -1.45277 -1.28873 0
M  V30 3058 C 279.587 -2.8553 -1.97711 0
M  V30 3059 C 278.541 -3.95921 -1.62575 0
M  V30 3060 C 277.867 -4.47365 -2.92864 0
M  V30 3061 C 279.167 -5.15323 -0.850838 0
M  V30 3062 H 280.861 -2.98653 -0.211295 0
M  V30 3063 H 278.407 -1.43651 -0.100188 0
M  V30 3064 H 280.36 -3.2935 -2.62881 0
M  V30 3065 H 279.084 -2.05406 -2.53921 0
M  V30 3066 H 277.743 -3.52762 -0.997719 0
M  V30 3067 H 277.391 -3.64027 -3.47122 0
M  V30 3068 H 277.091 -5.21839 -2.70106 0
M  V30 3069 H 278.615 -4.93873 -3.59056 0
M  V30 3070 H 280.029 -5.55812 -1.40521 0
M  V30 3071 H 278.426 -5.95739 -0.722154 0
M  V30 3072 H 279.496 -4.84661 0.152082 0
M  V30 3073 N 280.839 0.0985539 -1.57292 0
M  V30 3074 C 281.802 1.10402 -2.00858 0
M  V30 3075 C 282.802 1.33146 -0.901593 0
M  V30 3076 O 283.992 1.29318 -1.16716 0
M  V30 3077 C 281.124 2.45394 -2.36632 0
M  V30 3078 H 282.317 0.729099 -2.90902 0
M  V30 3079 H 279.87 0.343495 -1.52479 0
M  V30 3080 H 280.605 2.87769 -1.49531 0
M  V30 3081 H 280.39 2.30235 -3.17387 0
M  V30 3082 H 281.88 3.17718 -2.71007 0
M  V30 3083 N 282.317 1.53212 0.369288 0
M  V30 3084 C 283.28 1.7872 1.43498 0
M  V30 3085 C 284.28 0.657554 1.46741 0
M  V30 3086 O 285.47 0.925736 1.47566 0
M  V30 3087 C 282.602 1.90591 2.82645 0
M  V30 3088 H 283.795 2.73894 1.22156 0
M  V30 3089 H 281.348 1.44233 0.602203 0
M  V30 3090 H 282.083 0.974709 3.09306 0
M  V30 3091 H 281.868 2.72751 2.8169 0
M  V30 3092 H 283.358 2.11931 3.59826 0
M  V30 3093 N 283.795 -0.628877 1.44509 0
M  V30 3094 C 285.041 -1.38863 1.48623 0
M  V30 3095 C 285.396 -1.92038 0.117933 0
M  V30 3096 O 284.689 -1.70853 -0.86716 0
M  V30 3097 C 284.883 -2.56995 2.48371 0
M  V30 3098 C 284.712 -2.15385 3.94765 0
M  V30 3099 C 283.482 -2.02558 4.62924 0
M  V30 3100 C 285.68 -1.74158 4.83915 0
M  V30 3101 N 283.662 -1.54534 5.94132 0
M  V30 3102 C 285.033 -1.37396 6.04584 0
M  V30 3103 C 287.088 -1.61559 4.7096 0
M  V30 3104 C 285.791 -0.892948 7.13736 0
M  V30 3105 C 287.817 -1.14862 5.80139 0
M  V30 3106 C 287.179 -0.790516 6.9995 0
M  V30 3107 H 283.278 -0.502858 0.59888 0
M  V30 3108 H 285.862 -0.72121 1.8085 0
M  V30 3109 H 284.033 -3.21362 2.1813 0
M  V30 3110 H 285.765 -3.23801 2.42766 0
M  V30 3111 H 282.52 -2.23082 4.1777 0
M  V30 3112 H 282.944 -1.32815 6.63844 0
M  V30 3113 H 287.586 -1.87876 3.78764 0
M  V30 3114 H 285.304 -0.617291 8.05739 0
M  V30 3115 H 288.89 -1.05569 5.72142 0
M  V30 3116 H 287.77 -0.434713 7.82994 0
M  V30 3117 N 285.273 -1.31445 -0.869486 0
M  V30 3118 C 286.689 -1.10113 -1.15531 0
M  V30 3119 C 286.889 0.128087 -2.01092 0
M  V30 3120 O 285.945 0.817276 -2.38908 0
M  V30 3121 C 287.258 -2.37291 -1.84698 0
M  V30 3122 C 288.806 -2.42906 -1.97397 0
M  V30 3123 C 289.281 -3.69967 -2.69979 0
M  V30 3124 N 290.772 -3.70864 -2.77514 0
M  V30 3125 C 291.507 -4.65875 -3.34287 0
M  V30 3126 N 291.003 -5.71242 -3.91988 0
M  V30 3127 N 292.796 -4.53394 -3.3225 0
M  V30 3128 H 284.947 -2.1028 -0.299347 0
M  V30 3129 H 287.21 -0.927683 -0.195214 0
M  V30 3130 H 286.916 -3.27078 -1.29278 0
M  V30 3131 H 286.79 -2.47125 -2.84972 0
M  V30 3132 H 289.177 -1.53588 -2.51982 0
M  V30 3133 H 289.258 -2.37036 -0.961643 0
M  V30 3134 H 288.902 -4.59652 -2.16062 0
M  V30 3135 H 288.832 -3.73103 -3.7162 0
M  V30 3136 H 291.323 -2.94697 -2.36563 0
M  V30 3137 H 291.636 -6.39817 -4.33421 0
M  V30 3138 H 289.981 -5.75015 -3.90362 0
M  V30 3139 H 293.172 -3.70252 -2.8641 0
M  V30 3140 H 293.345 -5.27617 -3.76197 0
M  V30 3141 N 286.751 1.08385 -1.14413 0
M  V30 3142 C 287.999 1.80419 -0.910679 0
M  V30 3143 C 288.32 1.86658 0.564243 0
M  V30 3144 O 287.59 1.35985 1.41014 0
M  V30 3145 H 286.17 0.668204 -0.333934 0
M  V30 3146 H 288.832 1.31037 -1.44275 0
M  V30 3147 H 287.928 2.83238 -1.31082 0
M  V30 3148 N 288.23 0.939286 1.26551 0
M  V30 3149 C 289.646 0.641304 1.46149 0
M  V30 3150 C 289.846 -0.805964 1.84679 0
M  V30 3151 O 288.902 -1.58278 1.96734 0
M  V30 3152 C 290.215 1.6011 2.54529 0
M  V30 3153 C 291.763 1.6106 2.68382 0
M  V30 3154 C 292.238 2.55765 3.79932 0
M  V30 3155 N 293.729 2.5404 3.87322 0
M  V30 3156 C 294.464 3.24004 4.73085 0
M  V30 3157 N 293.96 4.03388 5.63249 0
M  V30 3158 N 295.753 3.12965 4.66914 0
M  V30 3159 H 287.904 1.87478 0.998285 0
M  V30 3160 H 290.167 0.805559 0.499779 0
M  V30 3161 H 289.873 2.63412 2.33039 0
M  V30 3162 H 289.747 1.35171 3.52149 0
M  V30 3163 H 292.134 0.584835 2.89247 0
M  V30 3164 H 292.215 1.90053 1.71212 0
M  V30 3165 H 291.859 3.58458 3.5982 0
M  V30 3166 H 291.789 2.24063 4.76554 0
M  V30 3167 H 294.28 1.96396 3.22858 0
M  V30 3168 H 294.593 4.5373 6.25579 0
M  V30 3169 H 292.938 4.07489 5.63008 0
M  V30 3170 H 296.129 2.50432 3.95476 0
M  V30 3171 H 296.302 3.67759 5.33533 0
M  V30 3172 N 289.708 -1.40897 0.706093 0
M  V30 3173 C 290.954 -2.01352 0.241889 0
M  V30 3174 C 291.287 -1.55832 -1.15888 0
M  V30 3175 O 290.562 -0.774145 -1.7843 0
M  V30 3176 C 290.845 -3.58752 0.311311 0
M  V30 3177 C 290.698 -4.1437 1.74978 0
M  V30 3178 C 292.017 -4.38914 -0.322922 0
M  V30 3179 H 289.136 -0.731562 0.0893687 0
M  V30 3180 H 291.778 -1.67504 0.896802 0
M  V30 3181 H 289.928 -3.87718 -0.246302 0
M  V30 3182 H 291.6 -3.96239 2.36205 0
M  V30 3183 H 289.843 -3.69016 2.28057 0
M  V30 3184 H 290.514 -5.23532 1.74981 0
M  V30 3185 H 292.99 -4.15822 0.152089 0
M  V30 3186 H 291.866 -5.48358 -0.243855 0
M  V30 3187 H 292.127 -4.19176 -1.40513 0
M  V30 3188 N 291.186 -0.45159 -1.50991 0
M  V30 3189 C 292.096 0.358431 -2.31846 0
M  V30 3190 C 293.112 1.01438 -1.41373 0
M  V30 3191 O 294.288 1.00663 -1.74439 0
M  V30 3192 C 291.353 1.43704 -3.15515 0
M  V30 3193 C 290.414 0.799742 -4.21785 0
M  V30 3194 C 289.647 1.82696 -5.01456 0
M  V30 3195 O 289.87 3.05105 -4.81941 0
M  V30 3196 O 288.804 1.40958 -5.85162 0
M  V30 3197 H 292.63 -0.302032 -3.02194 0
M  V30 3198 H 290.215 -0.213825 -1.47862 0
M  V30 3199 H 292.097 2.06227 -3.67489 0
M  V30 3200 H 290.772 2.08133 -2.47916 0
M  V30 3201 H 289.679 0.136084 -3.73852 0
M  V30 3202 H 291.012 0.198718 -4.91799 0
M  V30 3203 N 292.664 1.56529 -0.183458 0
M  V30 3204 C 293.627 2.17324 0.728223 0
M  V30 3205 C 294.627 1.12453 1.14939 0
M  V30 3206 O 295.817 1.37902 1.06437 0
M  V30 3207 C 292.949 2.76591 1.99274 0
M  V30 3208 H 294.142 2.99241 0.198772 0
M  V30 3209 H 291.695 1.5616 0.0661391 0
M  V30 3210 H 292.43 1.98441 2.56499 0
M  V30 3211 H 292.215 3.5335 1.69959 0
M  V30 3212 H 293.705 3.23311 2.6431 0
M  V30 3213 N 294.142 -0.090211 1.57342 0
M  V30 3214 C 295.389 -0.792807 1.86335 0
M  V30 3215 C 295.717 -1.78494 0.772662 0
M  V30 3216 O 294.972 -1.94305 -0.233258 0
M  V30 3217 C 295.271 -1.55222 3.21933 0
M  V30 3218 C 294.937 -0.701765 4.45406 0
M  V30 3219 C 293.599 -0.467334 4.78925 0
M  V30 3220 C 295.951 -0.11086 5.21082 0
M  V30 3221 C 293.279 0.367785 5.85546 0
M  V30 3222 C 295.631 0.711609 6.28585 0
M  V30 3223 C 294.295 0.956086 6.60617 0
M  V30 3224 H 293.565 -0.290109 0.681849 0
M  V30 3225 H 296.212 -0.0541332 1.91423 0
M  V30 3226 H 294.517 -2.3626 3.12551 0
M  V30 3227 H 296.214 -2.10032 3.41595 0
M  V30 3228 H 292.804 -0.894598 4.1916 0
M  V30 3229 H 296.988 -0.279129 4.95514 0
M  V30 3230 H 292.244 0.566128 6.08773 0
M  V30 3231 H 296.418 1.17632 6.86393 0
M  V30 3232 H 294.045 1.60499 7.43064 0
M  V30 3233 N 295.62 -1.53406 -0.361157 0
M  V30 3234 C 296.55 -1.83136 -1.44857 0
M  V30 3235 C 297.531 -0.685174 -1.5569 0
M  V30 3236 O 298.716 -0.93544 -1.70186 0
M  V30 3237 C 295.846 -2.02522 -2.82138 0
M  V30 3238 C 294.8 -3.18302 -2.86126 0
M  V30 3239 C 294.126 -3.22989 -4.26125 0
M  V30 3240 C 295.426 -4.56796 -2.53248 0
M  V30 3241 H 297.12 -2.74201 -1.20226 0
M  V30 3242 H 294.666 -1.31938 -0.576922 0
M  V30 3243 H 296.619 -2.21904 -3.58241 0
M  V30 3244 H 295.343 -1.08172 -3.08166 0
M  V30 3245 H 294.002 -2.98747 -2.12475 0
M  V30 3246 H 293.65 -2.26267 -4.49235 0
M  V30 3247 H 293.35 -4.00781 -4.29708 0
M  V30 3248 H 294.874 -3.44559 -5.04094 0
M  V30 3249 H 296.288 -4.7631 -3.19064 0
M  V30 3250 H 294.685 -5.36862 -2.68141 0
M  V30 3251 H 295.755 -4.61606 -1.48484 0
M  V30 3252 N 297.098 0.621204 -1.44841 0
M  V30 3253 C 298.346 1.37783 -1.47852 0
M  V30 3254 C 298.667 1.94653 -0.116224 0
M  V30 3255 O 297.937 1.76367 0.852737 0
M  V30 3256 H 296.517 0.511453 -0.544449 0
M  V30 3257 H 299.179 0.730446 -1.80694 0
M  V30 3258 H 298.275 2.20414 -2.20961 0
M  V30 3259 N 298.576 1.31904 0.862503 0
M  V30 3260 C 299.539 1.20131 1.95195 0
M  V30 3261 C 300.539 0.126409 1.60302 0
M  V30 3262 O 301.729 0.376234 1.70089 0
M  V30 3263 C 298.861 0.845691 3.30244 0
M  V30 3264 H 300.054 2.16943 2.07064 0
M  V30 3265 H 297.607 1.15622 1.05172 0
M  V30 3266 H 298.342 -0.120957 3.24074 0
M  V30 3267 H 298.127 1.62276 3.56944 0
M  V30 3268 H 299.617 0.787418 4.10109 0
M  V30 3269 N 300.054 -1.07777 1.14986 0
M  V30 3270 C 300.964 -2.18404 0.856546 0
M  V30 3271 C 301.98 -1.73211 -0.165485 0
M  V30 3272 O 303.156 -2.01399 0.00755219 0
M  V30 3273 C 300.221 -3.44977 0.34526 0
M  V30 3274 C 299.282 -4.0476 1.43065 0
M  V30 3275 C 298.515 -5.25291 0.943663 0
M  V30 3276 O 298.738 -5.70004 -0.212426 0
M  V30 3277 O 297.672 -5.76638 1.72547 0
M  V30 3278 H 301.498 -2.45978 1.78125 0
M  V30 3279 H 299.083 -1.17033 0.928631 0
M  V30 3280 H 300.965 -4.21348 0.0663671 0
M  V30 3281 H 299.64 -3.18965 -0.551631 0
M  V30 3282 H 298.547 -3.29949 1.76309 0
M  V30 3283 H 299.88 -4.35035 2.30229 0
M  V30 3284 N 301.532 -0.945985 -1.26051 0
M  V30 3285 C 302.462 -0.477172 -2.28572 0
M  V30 3286 C 303.443 0.472032 -1.63419 0
M  V30 3287 O 304.628 0.372853 -1.90587 0
M  V30 3288 C 301.758 0.253975 -3.4637 0
M  V30 3289 C 300.712 -0.609135 -4.23643 0
M  V30 3290 C 300.038 0.252252 -5.34105 0
M  V30 3291 C 301.338 -1.8829 -4.8718 0
M  V30 3292 H 303.032 -1.33402 -2.68038 0
M  V30 3293 H 300.578 -0.642904 -1.28852 0
M  V30 3294 H 302.531 0.593016 -4.17207 0
M  V30 3295 H 301.255 1.145 -3.05871 0
M  V30 3296 H 299.914 -0.931138 -3.54578 0
M  V30 3297 H 299.562 1.14278 -4.89846 0
M  V30 3298 H 299.262 -0.32188 -5.86718 0
M  V30 3299 H 300.786 0.586454 -6.07777 0
M  V30 3300 H 302.2 -1.61081 -5.50205 0
M  V30 3301 H 300.597 -2.40199 -5.49931 0
M  V30 3302 H 301.667 -2.59134 -4.09851 0
M  V30 3303 N 303.011 1.40521 -0.713556 0
M  V30 3304 C 304.251 2.02783 -0.256584 0
M  V30 3305 C 304.615 1.55352 1.12827 0
M  V30 3306 O 305.816 2.09663 1.68211 0
M  V30 3307 C 304.087 3.5586 -0.331414 0
M  V30 3308 S 305.646 4.38773 0.0488703 0
M  V30 3309 H 302.464 0.703655 -0.101934 0
M  V30 3310 H 305.066 1.71674 -0.935325 0
M  V30 3311 H 303.77 3.87874 -1.34098 0
M  V30 3312 H 303.301 3.91695 0.365873 0
M  V30 3313 H 305.316 4.79633 1.2715 0
M  V30 3314 N 304.489 0.459591 1.5075 0
M  V30 3315 C 305.421 -0.37665 2.26084 0
M  V30 3316 C 306.434 -0.967109 1.30961 0
M  V30 3317 O 307.623 -0.857468 1.56556 0
M  V30 3318 C 304.723 -1.54112 3.01832 0
M  V30 3319 C 303.896 -1.06553 4.24223 0
M  V30 3320 C 302.955 -2.1027 4.82362 0
M  V30 3321 O 301.981 -1.68798 5.43595 0
M  V30 3322 N 303.183 -3.42974 4.68347 0
M  V30 3323 H 305.948 0.269124 2.98489 0
M  V30 3324 H 303.509 0.28972 1.59287 0
M  V30 3325 H 305.501 -2.23165 3.37608 0
M  V30 3326 H 304.071 -2.0918 2.32298 0
M  V30 3327 H 303.291 -0.201274 3.93686 0
M  V30 3328 H 304.579 -0.725516 5.03601 0
M  V30 3329 H 303.977 -3.79385 4.19623 0
M  V30 3330 H 302.534 -4.07858 5.08424 0
M  V30 3331 N 305.967 -1.56429 0.191757 0
M  V30 3332 C 306.877 -2.22541 -0.742481 0
M  V30 3333 C 307.893 -1.22342 -1.23727 0
M  V30 3334 O 309.069 -1.55069 -1.28513 0
M  V30 3335 C 306.134 -2.8692 -1.94623 0
M  V30 3336 C 305.195 -4.02378 -1.49633 0
M  V30 3337 C 304.428 -4.63678 -2.6427 0
M  V30 3338 O 304.651 -4.23895 -3.81666 0
M  V30 3339 O 303.585 -5.53202 -2.37174 0
M  V30 3340 H 307.411 -3.02977 -0.209462 0
M  V30 3341 H 304.996 -1.49353 -0.0373832 0
M  V30 3342 H 306.878 -3.27663 -2.64982 0
M  V30 3343 H 305.553 -2.09466 -2.46791 0
M  V30 3344 H 304.46 -3.66265 -0.761636 0
M  V30 3345 H 305.793 -4.81487 -1.02134 0
M  V30 3346 N 307.445 0.0818655 -1.57387 0
M  V30 3347 C 308.408 1.08265 -2.02018 0
M  V30 3348 C 309.408 1.32183 -0.915664 0
M  V30 3349 O 310.598 1.28073 -1.18081 0
M  V30 3350 C 307.73 2.42871 -2.39221 0
M  V30 3351 H 308.923 0.698204 -2.91659 0
M  V30 3352 H 306.476 0.327303 -1.52835 0
M  V30 3353 H 307.211 2.86167 -1.52575 0
M  V30 3354 H 306.996 2.26855 -3.19811 0
M  V30 3355 H 308.486 3.14826 -2.74362 0
M  V30 3356 N 308.923 1.53595 0.353017 0
M  V30 3357 C 309.873 1.77299 1.43349 0
M  V30 3358 C 310.857 0.627884 1.48143 0
M  V30 3359 O 312.049 0.88697 1.53173 0
M  V30 3360 C 309.178 1.97757 2.80619 0
M  V30 3361 C 308.264 3.18305 2.80254 0
M  V30 3362 N 308.655 4.39967 2.49526 0
M  V30 3363 C 306.953 3.19283 3.11407 0
M  V30 3364 C 307.654 5.21772 2.57156 0
M  V30 3365 N 306.63 4.58269 2.92388 0
M  V30 3366 H 310.432 2.68963 1.18474 0
M  V30 3367 H 307.946 1.52391 0.561306 0
M  V30 3368 H 309.943 2.1287 3.58458 0
M  V30 3369 H 308.603 1.07329 3.06448 0
M  V30 3370 H 309.614 4.67482 2.22893 0
M  V30 3371 H 306.291 2.3879 3.4247 0
M  V30 3372 H 307.681 6.2885 2.36638 0
M  V30 3373 N 310.401 -0.613514 1.45168 0
M  V30 3374 C 311.626 -1.40437 1.52618 0
M  V30 3375 C 312.051 -1.87438 0.157707 0
M  V30 3376 O 311.409 -1.59791 -0.856537 0
M  V30 3377 C 311.457 -2.58894 2.51011 0
M  V30 3378 O 310.561 -3.59326 2.02382 0
M  V30 3379 H 309.902 -0.419506 0.514695 0
M  V30 3380 H 312.432 -0.747215 1.90467 0
M  V30 3381 H 312.442 -3.06214 2.69624 0
M  V30 3382 H 311.117 -2.24032 3.50403 0
M  V30 3383 H 309.694 -3.18695 1.93618 0
M  V30 3384 N 311.879 -1.3236 -0.855495 0
M  V30 3385 C 313.128 -1.22226 -1.60448 0
M  V30 3386 C 313.441 0.214733 -1.94418 0
M  V30 3387 O 314.647 0.437917 -2.67945 0
M  V30 3388 C 313.103 -2.14063 -2.89318 0
M  V30 3389 C 312.711 -3.62839 -2.62777 0
M  V30 3390 C 314.455 -2.12764 -3.67331 0
M  V30 3391 C 312.362 -4.4664 -3.87643 0
M  V30 3392 H 311.292 -0.453904 -0.602069 0
M  V30 3393 H 313.943 -1.57314 -0.944698 0
M  V30 3394 H 312.325 -1.71889 -3.5675 0
M  V30 3395 H 313.499 -4.1335 -2.03662 0
M  V30 3396 H 311.814 -3.66261 -1.98096 0
M  V30 3397 H 314.411 -2.72611 -4.59987 0
M  V30 3398 H 314.754 -1.11841 -4.00995 0
M  V30 3399 H 315.287 -2.53214 -3.06802 0
M  V30 3400 H 312.026 -5.48373 -3.5912 0
M  V30 3401 H 311.546 -4.0088 -4.46156 0
M  V30 3402 H 313.225 -4.59597 -4.55389 0
M  V30 3403 N 313.357 1.07166 -1.15556 0
M  V30 3404 C 314.606 1.79181 -0.926132 0
M  V30 3405 C 314.919 1.87768 0.547967 0
M  V30 3406 O 316.125 2.56323 0.895036 0
M  V30 3407 C 314.581 3.22 -1.60761 0
M  V30 3408 C 314.189 3.21607 -3.11886 0
M  V30 3409 C 315.933 3.9861 -1.4598 0
M  V30 3410 C 313.84 4.59092 -3.72812 0
M  V30 3411 H 312.77 0.67154 -0.342856 0
M  V30 3412 H 315.421 1.2027 -1.3859 0
M  V30 3413 H 313.803 3.81115 -1.07553 0
M  V30 3414 H 314.977 2.72127 -3.71865 0
M  V30 3415 H 313.292 2.58495 -3.2645 0
M  V30 3416 H 315.889 5.00225 -1.88888 0
M  V30 3417 H 316.232 4.143 -0.407541 0
M  V30 3418 H 316.765 3.45996 -1.96295 0
M  V30 3419 H 313.504 4.48606 -4.77946 0
M  V30 3420 H 313.024 5.08803 -3.17616 0
M  V30 3421 H 314.703 5.28059 -3.73848 0
M  V30 3422 N 314.835 0.952656 1.25548 0
M  V30 3423 C 315.765 0.489287 2.28316 0
M  V30 3424 C 316.746 -0.463359 1.63667 0
M  V30 3425 O 317.931 -0.36274 1.90782 0
M  V30 3426 C 315.061 -0.235603 3.465 0
M  V30 3427 C 314.015 0.631593 4.23314 0
M  V30 3428 C 313.341 -0.223923 5.34231 0
M  V30 3429 C 314.641 1.90871 4.86174 0
M  V30 3430 H 316.335 1.34822 2.67326 0
M  V30 3431 H 313.881 0.649728 1.28509 0
M  V30 3432 H 315.834 -0.570882 4.17515 0
M  V30 3433 H 314.558 -1.12877 3.06474 0
M  V30 3434 H 313.217 0.949929 3.54079 0
M  V30 3435 H 312.865 -1.11678 4.90446 0
M  V30 3436 H 312.565 0.35299 5.86539 0
M  V30 3437 H 314.089 -0.554214 6.0808 0
M  V30 3438 H 315.503 1.63997 5.49343 0
M  V30 3439 H 313.9 2.43112 5.4865 0
M  V30 3440 H 314.97 2.61304 4.08471 0
M  V30 3441 N 316.313 -1.40141 0.720998 0
M  V30 3442 C 317.538 -2.05618 0.271258 0
M  V30 3443 C 317.963 -1.53978 -1.08039 0
M  V30 3444 O 317.321 -0.677463 -1.68167 0
M  V30 3445 C 317.369 -3.59609 0.267197 0
M  V30 3446 O 316.473 -4.05526 -0.749814 0
M  V30 3447 H 315.814 -0.651904 0.126162 0
M  V30 3448 H 318.344 -1.79439 0.982997 0
M  V30 3449 H 318.354 -4.0786 0.106744 0
M  V30 3450 H 317.029 -3.96559 1.25354 0
M  V30 3451 H 315.606 -3.68722 -0.556644 0
M  V30 3452 N 317.792 -0.46758 -1.50504 0
M  V30 3453 C 319.041 0.0902868 -2.01498 0
M  V30 3454 C 319.354 1.411 -1.35463 0
M  V30 3455 O 320.56 2.0536 -1.77594 0
M  V30 3456 C 319.016 0.21142 -3.59278 0
M  V30 3457 C 318.624 -1.10065 -4.34269 0
M  V30 3458 C 320.368 0.721433 -4.18325 0
M  V30 3459 C 318.275 -0.943505 -5.83825 0
M  V30 3460 H 317.205 0.037517 -0.753066 0
M  V30 3461 H 319.856 -0.601943 -1.73346 0
M  V30 3462 H 318.238 0.967352 -3.84003 0
M  V30 3463 H 319.412 -1.86726 -4.21272 0
M  V30 3464 H 317.727 -1.5415 -3.86816 0
M  V30 3465 H 320.324 0.85598 -5.27804 0
M  V30 3466 H 320.667 1.71186 -3.79475 0
M  V30 3467 H 321.2 0.0229843 -3.97793 0
M  V30 3468 H 317.939 -1.90719 -6.27141 0
M  V30 3469 H 317.459 -0.217213 -5.99407 0
M  V30 3470 H 319.138 -0.608715 -6.4413 0
M  V30 3471 N 319.27 1.56325 -0.20005 0
M  V30 3472 C 320.2 2.22318 0.713916 0
M  V30 3473 C 321.181 1.18788 1.21752 0
M  V30 3474 O 322.366 1.47309 1.26545 0
M  V30 3475 C 319.496 2.88639 1.93144 0
M  V30 3476 C 318.45 3.98457 1.56255 0
M  V30 3477 C 317.776 4.51967 2.85709 0
M  V30 3478 C 319.076 5.16612 0.768747 0
M  V30 3479 H 320.77 2.98952 0.163755 0
M  V30 3480 H 318.316 1.43792 0.0773219 0
M  V30 3481 H 320.269 3.33491 2.57608 0
M  V30 3482 H 318.993 2.09419 2.50621 0
M  V30 3483 H 317.652 3.54305 0.941471 0
M  V30 3484 H 317.3 3.69503 3.41287 0
M  V30 3485 H 317 5.26071 2.6177 0
M  V30 3486 H 318.524 4.99523 3.51154 0
M  V30 3487 H 319.938 5.57977 1.3166 0
M  V30 3488 H 318.335 5.96812 0.627286 0
M  V30 3489 H 319.405 4.84358 -0.229168 0
M  V30 3490 N 320.748 -0.0735177 1.57428 0
M  V30 3491 C 321.658 -1.10547 2.06922 0
M  V30 3492 C 322.674 -1.42506 0.998402 0
M  V30 3493 O 323.85 -1.52717 1.31299 0
M  V30 3494 C 320.915 -2.40019 2.50184 0
M  V30 3495 C 319.976 -2.15046 3.71556 0
M  V30 3496 C 319.209 -3.38345 4.12745 0
M  V30 3497 O 319.432 -4.47399 3.53822 0
M  V30 3498 O 318.366 -3.2666 5.05546 0
M  V30 3499 H 322.192 -0.715013 2.95163 0
M  V30 3500 H 319.777 -0.287531 1.46607 0
M  V30 3501 H 321.659 -3.16218 2.78539 0
M  V30 3502 H 320.334 -2.78447 1.65072 0
M  V30 3503 H 319.241 -1.36558 3.48285 0
M  V30 3504 H 320.574 -1.81499 4.57514 0
M  V30 3505 N 322.226 -1.5378 -0.344866 0
M  V30 3506 C 323.158 -1.77988 -1.44406 0
M  V30 3507 C 324.171 -0.661138 -1.48771 0
M  V30 3508 O 325.36 -0.937842 -1.51877 0
M  V30 3509 C 322.46 -1.86345 -2.8307 0
M  V30 3510 C 321.633 -3.16256 -3.0216 0
M  V30 3511 C 320.692 -3.15588 -4.21059 0
M  V30 3512 O 319.718 -3.89314 -4.15239 0
M  V30 3513 N 320.92 -2.37864 -5.29529 0
M  V30 3514 H 323.685 -2.72839 -1.24012 0
M  V30 3515 H 321.246 -1.52814 -0.534737 0
M  V30 3516 H 323.238 -1.83351 -3.60783 0
M  V30 3517 H 321.808 -0.986858 -2.96614 0
M  V30 3518 H 321.028 -3.32385 -2.11929 0
M  V30 3519 H 322.316 -4.0207 -3.11797 0
M  V30 3520 H 321.714 -1.77514 -5.37127 0
M  V30 3521 H 320.271 -2.40668 -6.05741 0
M  V30 3522 N 323.704 0.605807 -1.45491 0
M  V30 3523 C 324.667 1.69836 -1.5391 0
M  V30 3524 C 325.667 1.55261 -0.418424 0
M  V30 3525 O 326.857 1.60296 -0.681965 0
M  V30 3526 C 323.989 3.09117 -1.43734 0
M  V30 3527 H 325.182 1.63738 -2.51257 0
M  V30 3528 H 322.735 0.821689 -1.32959 0
M  V30 3529 H 323.47 3.20791 -0.475788 0
M  V30 3530 H 323.255 3.21104 -2.25021 0
M  V30 3531 H 324.745 3.88696 -1.52661 0
M  V30 3532 N 325.182 1.32811 0.848464 0
M  V30 3533 C 326.145 1.22194 1.9391 0
M  V30 3534 C 327.145 0.143404 1.60159 0
M  V30 3535 O 328.335 0.394253 1.6968 0
M  V30 3536 C 325.467 0.88067 3.29328 0
M  V30 3537 H 326.66 2.19127 2.04752 0
M  V30 3538 H 324.213 1.16731 1.0394 0
M  V30 3539 H 324.948 -0.0865776 3.24184 0
M  V30 3540 H 324.733 1.66052 3.55203 0
M  V30 3541 H 326.223 0.830871 4.09251 0
M  V30 3542 N 326.66 -1.06551 1.16123 0
M  V30 3543 C 327.607 -2.13961 0.865414 0
M  V30 3544 C 328.577 -1.65066 -0.185055 0
M  V30 3545 O 329.762 -1.90732 -0.05083 0
M  V30 3546 C 326.902 -3.43113 0.369776 0
M  V30 3547 C 326.015 -4.05756 1.48276 0
M  V30 3548 C 325.15 -5.22773 0.942414 0
M  V30 3549 C 324.189 -5.77395 2.03179 0
M  V30 3550 N 323.326 -6.85731 1.50721 0
M  V30 3551 H 328.166 -2.38605 1.78527 0
M  V30 3552 H 325.703 -1.17072 0.890646 0
M  V30 3553 H 327.661 -4.17151 0.0640643 0
M  V30 3554 H 326.291 -3.18695 -0.513143 0
M  V30 3555 H 325.343 -3.29292 1.9045 0
M  V30 3556 H 326.655 -4.42351 2.30493 0
M  V30 3557 H 325.809 -6.03827 0.589729 0
M  V30 3558 H 324.548 -4.87618 0.0895191 0
M  V30 3559 H 323.553 -4.94981 2.3932 0
M  V30 3560 H 324.778 -6.14603 2.8886 0
M  V30 3561 H 322.724 -6.52499 0.676811 0
M  V30 3562 H 322.641 -7.21254 2.26557 0
M  V30 3563 H 323.909 -7.7047 1.18303 0
M  V30 3564 N 328.138 -0.959301 -1.25041 0
M  V30 3565 C 329.085 -0.482057 -2.2571 0
M  V30 3566 C 330.055 0.467939 -1.59372 0
M  V30 3567 O 331.24 0.380159 -1.86974 0
M  V30 3568 C 328.38 0.229623 -3.44335 0
M  V30 3569 C 327.493 -0.758156 -4.25295 0
M  V30 3570 C 326.628 -0.0234403 -5.31195 0
M  V30 3571 C 325.667 -1.00184 -6.03846 0
M  V30 3572 N 324.804 -0.29769 -7.01469 0
M  V30 3573 H 329.644 -1.34538 -2.65901 0
M  V30 3574 H 327.181 -0.674592 -1.3072 0
M  V30 3575 H 329.139 0.658856 -4.11965 0
M  V30 3576 H 327.769 1.05696 -3.05005 0
M  V30 3577 H 326.821 -1.30586 -3.57284 0
M  V30 3578 H 328.133 -1.50458 -4.75567 0
M  V30 3579 H 327.287 0.464201 -6.04922 0
M  V30 3580 H 326.026 0.755741 -4.81809 0
M  V30 3581 H 325.031 -1.50044 -5.2893 0
M  V30 3582 H 326.256 -1.78133 -6.55321 0
M  V30 3583 H 324.202 0.462668 -6.54366 0
M  V30 3584 H 324.119 -0.983128 -7.4958 0
M  V30 3585 H 325.387 0.16826 -7.79318 0
M  V30 3586 N 329.616 1.39756 -0.72842 0
M  V30 3587 C 330.844 2.04948 -0.283528 0
M  V30 3588 C 331.259 1.54908 1.0793 0
M  V30 3589 O 330.616 0.711135 1.68075 0
M  V30 3590 C 330.667 3.60498 -0.268957 0
M  V30 3591 O 330.388 4.08695 -1.57798 0
M  V30 3592 C 331.889 4.4288 0.192912 0
M  V30 3593 H 329.109 0.659243 -0.125056 0
M  V30 3594 H 331.653 1.78927 -0.990226 0
M  V30 3595 H 329.808 3.85444 0.388801 0
M  V30 3596 H 330.222 5.02977 -1.48709 0
M  V30 3597 H 331.696 5.51791 0.151952 0
M  V30 3598 H 332.173 4.21418 1.23708 0
M  V30 3599 H 332.779 4.23069 -0.435039 0
M  V30 3600 N 331.094 0.475555 1.50254 0
M  V30 3601 C 332.024 -0.30611 2.31485 0
M  V30 3602 C 333.005 -0.986228 1.38591 0
M  V30 3603 O 334.19 -0.982541 1.67511 0
M  V30 3604 C 331.32 -1.38588 3.1845 0
M  V30 3605 C 330.274 -0.827115 4.19932 0
M  V30 3606 C 329.6 -2.00551 4.95665 0
M  V30 3607 C 330.9 0.16463 5.2204 0
M  V30 3608 H 332.594 0.371866 2.97082 0
M  V30 3609 H 330.14 0.180282 1.42867 0
M  V30 3610 H 332.093 -1.94023 3.74076 0
M  V30 3611 H 330.817 -2.09269 2.50747 0
M  V30 3612 H 329.476 -0.294702 3.65414 0
M  V30 3613 H 329.124 -2.6994 4.2443 0
M  V30 3614 H 328.824 -1.63784 5.64313 0
M  V30 3615 H 330.348 -2.56468 5.54127 0
M  V30 3616 H 331.762 -0.300699 5.72511 0
M  V30 3617 H 330.159 0.446813 5.98434 0
M  V30 3618 H 331.229 1.08905 4.72512 0
M  V30 3619 N 332.573 -1.56217 0.208337 0
M  V30 3620 C 333.984 -1.84243 -0.301904 0
M  V30 3621 C 334.335 -1.12939 -1.60434 0
M  V30 3622 O 333.46 -0.39461 -2.12772 0
M  V30 3623 C 334.055 -3.34231 -0.554543 0
M  V30 3624 C 332.614 -3.62621 -1.00912 0
M  V30 3625 C 331.761 -2.77224 -0.064933 0
M  V30 3626 H 334.712 -1.52712 0.431833 0
M  V30 3627 H 334.733 -3.5372 -1.40223 0
M  V30 3628 H 334.245 -3.86099 0.393561 0
M  V30 3629 H 332.346 -3.16197 -1.97104 0
M  V30 3630 H 332.459 -4.7071 -0.892674 0
M  V30 3631 H 330.823 -2.48256 -0.56929 0
M  V30 3632 H 331.606 -3.31887 0.877851 0
M  V30 3633 N 334.051 0.0651679 -1.57465 0
M  V30 3634 C 335.279 0.775808 -1.91804 0
M  V30 3635 C 335.694 1.70782 -0.804916 0
M  V30 3636 O 335.051 1.81153 0.221311 0
M  V30 3637 C 335.102 1.56381 -3.25925 0
M  V30 3638 O 334.823 0.669248 -4.32958 0
M  V30 3639 C 336.324 2.37485 -3.7432 0
M  V30 3640 H 333.544 0.2202 -0.63384 0
M  V30 3641 H 336.088 0.0334587 -2.04473 0
M  V30 3642 H 334.243 2.25837 -3.14764 0
M  V30 3643 H 334.657 1.21801 -5.10162 0
M  V30 3644 H 336.131 2.88223 -4.70778 0
M  V30 3645 H 336.608 3.17307 -3.03666 0
M  V30 3646 H 337.214 1.73173 -3.88447 0
M  V30 3647 N 335.529 1.53961 0.336706 0
M  V30 3648 C 336.94 1.62914 0.911925 0
M  V30 3649 C 337.291 0.514795 1.89326 0
M  V30 3650 O 336.416 -0.354395 2.13478 0
M  V30 3651 C 337.011 2.95304 1.66076 0
M  V30 3652 C 335.57 3.06496 2.18489 0
M  V30 3653 C 334.717 2.58403 1.00613 0
M  V30 3654 H 337.668 1.58285 0.114649 0
M  V30 3655 H 337.689 2.84727 2.5241 0
M  V30 3656 H 337.201 3.76387 0.946276 0
M  V30 3657 H 335.302 2.3006 2.93092 0
M  V30 3658 H 335.415 4.1208 2.44391 0
M  V30 3659 H 333.779 2.13977 1.38152 0
M  V30 3660 H 334.562 3.41932 0.306179 0
M  V30 3661 N 337.007 -0.598083 1.45811 0
M  V30 3662 C 338.232 -1.3881 1.54099 0
M  V30 3663 C 338.657 -1.8726 0.177578 0
M  V30 3664 O 338.015 -1.6069 -0.839541 0
M  V30 3665 C 338.063 -2.56217 2.53743 0
M  V30 3666 O 337.167 -3.5716 2.06182 0
M  V30 3667 H 336.508 -0.414024 0.519115 0
M  V30 3668 H 339.038 -0.726971 1.91249 0
M  V30 3669 H 339.048 -3.03337 2.72856 0
M  V30 3670 H 337.723 -2.20303 3.5276 0
M  V30 3671 H 336.3 -3.16624 1.96987 0
M  V30 3672 N 338.485 -1.33259 -0.841409 0
M  V30 3673 C 339.896 -1.22066 -1.41269 0
M  V30 3674 C 340.247 0.161479 -1.95534 0
M  V30 3675 O 339.372 1.06094 -1.88608 0
M  V30 3676 C 339.967 -2.20996 -2.568 0
M  V30 3677 C 338.526 -2.13649 -3.09888 0
M  V30 3678 C 337.673 -2.08623 -1.82679 0
M  V30 3679 H 340.624 -1.44895 -0.647395 0
M  V30 3680 H 340.645 -1.81621 -3.34356 0
M  V30 3681 H 340.157 -3.2158 -2.17274 0
M  V30 3682 H 338.258 -1.16359 -3.53965 0
M  V30 3683 H 338.371 -3.04079 -3.70234 0
M  V30 3684 H 336.735 -1.54061 -2.02824 0
M  V30 3685 H 337.518 -3.1101 -1.45353 0
M  V30 3686 N 339.963 1.05934 -1.16686 0
M  V30 3687 C 340.873 2.17014 -0.891183 0
M  V30 3688 C 341.889 1.73453 0.137907 0
M  V30 3689 O 343.065 2.01361 -0.039592 0
M  V30 3690 C 340.13 3.44384 -0.400099 0
M  V30 3691 C 339.191 4.02433 -1.49486 0
M  V30 3692 C 338.424 5.23723 -1.02711 0
M  V30 3693 O 338.647 5.7027 0.121716 0
M  V30 3694 O 337.581 5.7382 -1.81699 0
M  V30 3695 H 341.407 2.43113 -1.82015 0
M  V30 3696 H 338.992 1.15541 -0.947132 0
M  V30 3697 H 340.874 4.21189 -0.133392 0
M  V30 3698 H 339.549 3.19802 0.500817 0
M  V30 3699 H 338.456 3.27102 -1.81535 0
M  V30 3700 H 339.789 4.31317 -2.37121 0
M  V30 3701 N 341.441 0.965919 1.2453 0
M  V30 3702 C 342.404 0.499547 2.2369 0
M  V30 3703 C 343.404 -0.40294 1.5567 0
M  V30 3704 O 344.594 -0.19865 1.73064 0
M  V30 3705 C 341.726 -0.276792 3.39774 0
M  V30 3706 H 342.919 1.37613 2.66463 0
M  V30 3707 H 340.472 0.750324 1.37112 0
M  V30 3708 H 341.207 -1.17055 3.02438 0
M  V30 3709 H 340.992 0.370826 3.90343 0
M  V30 3710 H 342.482 -0.592175 4.1338 0
M  V30 3711 N 342.919 -1.39368 0.735821 0
M  V30 3712 C 344.149 -2.04498 0.293967 0
M  V30 3713 C 344.557 -1.55593 -1.07645 0
M  V30 3714 O 343.9 -0.716324 -1.69158 0
M  V30 3715 C 343.962 -3.58836 0.218342 0
M  V30 3716 C 343.626 -4.30721 1.52736 0
M  V30 3717 C 344.623 -4.57305 2.47322 0
M  V30 3718 C 342.308 -4.69251 1.79189 0
M  V30 3719 C 344.302 -5.21429 3.66593 0
M  V30 3720 C 341.989 -5.33104 2.98737 0
M  V30 3721 C 342.987 -5.59125 3.9226 0
M  V30 3722 O 342.675 -6.21653 5.09708 0
M  V30 3723 H 342.407 -0.664118 0.126189 0
M  V30 3724 H 344.961 -1.79385 1.00051 0
M  V30 3725 H 343.191 -3.8285 -0.544314 0
M  V30 3726 H 344.88 -4.05447 -0.191626 0
M  V30 3727 H 345.646 -4.27983 2.28156 0
M  V30 3728 H 341.525 -4.48354 1.07239 0
M  V30 3729 H 345.069 -5.41656 4.39607 0
M  V30 3730 H 340.966 -5.61846 3.17803 0
M  V30 3731 H 341.734 -6.40146 5.10054 0
M  V30 3732 N 344.397 -0.483516 -1.5 0
M  V30 3733 C 345.329 0.340634 -2.26655 0
M  V30 3734 C 346.342 0.946152 -1.32483 0
M  V30 3735 O 347.531 0.832453 -1.579 0
M  V30 3736 C 344.631 1.4929 -3.04246 0
M  V30 3737 C 343.804 0.997903 -4.25865 0
M  V30 3738 C 342.863 2.02569 -4.85646 0
M  V30 3739 O 341.889 1.60128 -5.46212 0
M  V30 3740 N 343.091 3.3548 -4.73744 0
M  V30 3741 H 345.856 -0.316577 -2.98023 0
M  V30 3742 H 343.417 -0.315024 -1.58806 0
M  V30 3743 H 345.409 2.17766 -3.41116 0
M  V30 3744 H 343.979 2.05458 -2.35597 0
M  V30 3745 H 343.199 0.138617 -3.93956 0
M  V30 3746 H 344.487 0.645305 -5.04691 0
M  V30 3747 H 343.885 3.72661 -4.25605 0
M  V30 3748 H 342.442 3.99718 -5.14848 0
M  V30 3749 N 345.875 1.56104 -0.216619 0
M  V30 3750 C 346.838 2.18819 0.681962 0
M  V30 3751 C 347.838 1.14866 1.12528 0
M  V30 3752 O 349.028 1.40128 1.03488 0
M  V30 3753 C 346.16 2.80756 1.93362 0
M  V30 3754 H 347.353 2.99595 0.135254 0
M  V30 3755 H 344.906 1.56265 0.0330003 0
M  V30 3756 H 345.641 2.03837 2.52232 0
M  V30 3757 H 345.426 3.56876 1.62426 0
M  V30 3758 H 346.916 3.28844 2.57393 0
M  V30 3759 N 347.353 -0.0568162 1.57498 0
M  V30 3760 C 348.286 -1.09817 2.00039 0
M  V30 3761 C 349.264 -1.3674 0.879819 0
M  V30 3762 O 350.448 -1.49863 1.14338 0
M  V30 3763 C 347.575 -2.43924 2.34986 0
M  V30 3764 C 346.621 -2.33039 3.57204 0
M  V30 3765 S 347.454 -1.7102 5.07457 0
M  V30 3766 C 348.61 -3.06674 5.45621 0
M  V30 3767 H 348.843 -0.735701 2.88053 0
M  V30 3768 H 346.376 -0.265871 1.52094 0
M  V30 3769 H 348.334 -3.2106 2.55795 0
M  V30 3770 H 346.995 -2.77327 1.47474 0
M  V30 3771 H 346.188 -3.31973 3.79223 0
M  V30 3772 H 345.79 -1.64043 3.36104 0
M  V30 3773 H 348.082 -4.03 5.44608 0
M  V30 3774 H 349.025 -2.8942 6.46252 0
M  V30 3775 H 349.433 -3.07969 4.73091 0
M  V30 3776 N 348.832 -1.54138 -0.328536 0
M  V30 3777 C 349.762 -1.86167 -1.40939 0
M  V30 3778 C 350.743 -0.718044 -1.54202 0
M  V30 3779 O 351.928 -0.971328 -1.68163 0
M  V30 3780 C 349.058 -2.08461 -2.77779 0
M  V30 3781 C 348.012 -3.24299 -2.7931 0
M  V30 3782 C 347.338 -3.31955 -4.19178 0
M  V30 3783 C 348.638 -4.62065 -2.43502 0
M  V30 3784 H 350.332 -2.76689 -1.14383 0
M  V30 3785 H 347.878 -1.33132 -0.548806 0
M  V30 3786 H 349.831 -2.29453 -3.53454 0
M  V30 3787 H 348.555 -1.14684 -3.05802 0
M  V30 3788 H 347.214 -3.03187 -2.0609 0
M  V30 3789 H 346.862 -2.35745 -4.44335 0
M  V30 3790 H 346.562 -4.09805 -4.2111 0
M  V30 3791 H 348.086 -3.55175 -4.96672 0
M  V30 3792 H 349.5 -4.8297 -3.08889 0
M  V30 3793 H 347.897 -5.42429 -2.56693 0
M  V30 3794 H 348.967 -4.64652 -1.38659 0
M  V30 3795 N 350.31 0.590341 -1.46126 0
M  V30 3796 C 351.24 1.71032 -1.58966 0
M  V30 3797 C 352.221 1.64302 -0.440335 0
M  V30 3798 O 353.406 1.82436 -0.665634 0
M  V30 3799 C 350.536 3.09665 -1.57241 0
M  V30 3800 C 349.49 3.31221 -2.71066 0
M  V30 3801 C 348.816 4.70303 -2.54399 0
M  V30 3802 C 350.116 3.19796 -4.1295 0
M  V30 3803 H 351.81 1.60543 -2.52718 0
M  V30 3804 H 349.356 0.770933 -1.21625 0
M  V30 3805 H 351.309 3.87831 -1.64819 0
M  V30 3806 H 350.033 3.21036 -0.600289 0
M  V30 3807 H 348.692 2.55452 -2.62944 0
M  V30 3808 H 348.34 4.78429 -1.55288 0
M  V30 3809 H 348.04 4.85679 -3.30741 0
M  V30 3810 H 349.564 5.50647 -2.63857 0
M  V30 3811 H 350.978 3.87815 -4.22223 0
M  V30 3812 H 349.375 3.46696 -4.89818 0
M  V30 3813 H 350.445 2.16983 -4.33643 0
M  V30 3814 N 351.788 1.33704 0.83433 0
M  V30 3815 C 353.204 1.13137 1.12571 0
M  V30 3816 C 353.404 -0.0747261 2.01361 0
M  V30 3817 O 352.46 -0.753647 2.4099 0
M  V30 3818 C 353.773 2.42105 1.78342 0
M  V30 3819 C 355.321 2.48054 1.90888 0
M  V30 3820 C 355.796 3.76995 2.60075 0
M  V30 3821 N 357.287 3.78092 2.67584 0
M  V30 3822 C 358.022 4.74574 3.21818 0
M  V30 3823 N 357.518 5.81434 3.76705 0
M  V30 3824 N 359.311 4.62044 3.20112 0
M  V30 3825 H 351.462 2.11 0.243489 0
M  V30 3826 H 353.725 0.932532 0.17055 0
M  V30 3827 H 353.431 3.30391 1.20561 0
M  V30 3828 H 353.305 2.54594 2.7832 0
M  V30 3829 H 355.692 1.60215 2.47821 0
M  V30 3830 H 355.773 2.39502 0.898459 0
M  V30 3831 H 355.417 4.65219 2.03799 0
M  V30 3832 H 355.347 3.82825 3.61597 0
M  V30 3833 H 357.838 3.00865 2.28667 0
M  V30 3834 H 358.151 6.51084 4.16305 0
M  V30 3835 H 356.496 5.85163 3.7498 0
M  V30 3836 H 359.687 3.77716 2.76493 0
M  V30 3837 H 359.86 5.37406 3.62076 0
M  V30 3838 N 353.266 -1.05314 1.17247 0
M  V30 3839 C 354.515 -1.77685 0.954521 0
M  V30 3840 C 354.828 -1.88616 -0.518025 0
M  V30 3841 O 356.034 -2.57714 -0.854144 0
M  V30 3842 C 354.49 -3.19402 1.65863 0
M  V30 3843 C 354.098 -3.16605 3.16963 0
M  V30 3844 C 355.842 -3.96237 1.52303 0
M  V30 3845 C 353.749 -4.53103 3.80068 0
M  V30 3846 H 352.679 -0.666 0.353496 0
M  V30 3847 H 355.33 -1.1805 1.40486 0
M  V30 3848 H 353.712 -3.79355 1.13602 0
M  V30 3849 H 354.886 -2.66176 3.76148 0
M  V30 3850 H 353.201 -2.53268 3.30521 0
M  V30 3851 H 355.798 -4.97157 1.96822 0
M  V30 3852 H 356.141 -4.136 0.473401 0
M  V30 3853 H 356.674 -3.42829 2.01775 0
M  V30 3854 H 353.413 -4.40946 4.85023 0
M  V30 3855 H 352.933 -5.03686 3.2567 0
M  V30 3856 H 354.612 -5.22045 3.82202 0
M  V30 3857 N 354.744 -0.972509 -1.24016 0
M  V30 3858 C 355.707 -0.511403 -2.23422 0
M  V30 3859 C 356.707 0.394679 -1.55881 0
M  V30 3860 O 357.897 0.189469 -1.73167 0
M  V30 3861 C 355.029 0.258769 -3.39916 0
M  V30 3862 H 356.222 -1.39024 -2.6573 0
M  V30 3863 H 353.775 -0.757585 -1.36713 0
M  V30 3864 H 354.51 1.1545 -3.03054 0
M  V30 3865 H 354.295 -0.391522 -3.9014 0
M  V30 3866 H 355.785 0.570244 -4.13688 0
M  V30 3867 N 356.222 1.38976 -0.743202 0
M  V30 3868 C 357.638 1.53984 -0.419664 0
M  V30 3869 C 357.838 1.70837 1.0685 0
M  V30 3870 O 356.894 1.7135 1.8546 0
M  V30 3871 C 358.207 2.75287 -1.20985 0
M  V30 3872 C 359.755 2.89129 -1.19889 0
M  V30 3873 C 360.23 4.13381 -1.97181 0
M  V30 3874 N 361.721 4.20437 -1.94389 0
M  V30 3875 C 362.456 5.15547 -2.50996 0
M  V30 3876 N 361.952 6.16395 -3.16274 0
M  V30 3877 N 363.745 5.07822 -2.40984 0
M  V30 3878 H 355.896 1.26285 -1.7078 0
M  V30 3879 H 358.159 0.612689 -0.723406 0
M  V30 3880 H 357.865 2.69204 -2.26323 0
M  V30 3881 H 357.739 3.68184 -0.819759 0
M  V30 3882 H 360.126 2.947 -0.153606 0
M  V30 3883 H 360.207 1.97272 -1.62841 0
M  V30 3884 H 359.851 4.08572 -3.01714 0
M  V30 3885 H 359.781 5.04298 -1.51629 0
M  V30 3886 H 362.272 3.48205 -1.46839 0
M  V30 3887 H 362.585 6.85443 -3.56915 0
M  V30 3888 H 360.93 6.16758 -3.20367 0
M  V30 3889 H 364.121 4.27973 -1.89622 0
M  V30 3890 H 364.294 5.81767 -2.85397 0
M  V30 3891 N 357.7 0.491464 1.49741 0
M  V30 3892 C 358.949 -0.0582189 2.01616 0
M  V30 3893 C 359.262 -1.38927 1.3769 0
M  V30 3894 O 360.468 -2.02509 1.80838 0
M  V30 3895 C 358.924 -0.154235 3.59569 0
M  V30 3896 C 358.532 1.1696 4.32463 0
M  V30 3897 C 360.276 -0.65479 4.1942 0
M  V30 3898 C 358.183 1.03627 5.8225 0
M  V30 3899 H 357.113 -0.0255317 0.753568 0
M  V30 3900 H 359.764 0.629445 1.72367 0
M  V30 3901 H 358.146 -0.906138 3.85493 0
M  V30 3902 H 359.32 1.93405 4.18248 0
M  V30 3903 H 357.635 1.60285 3.84315 0
M  V30 3904 H 360.232 -0.771903 5.29099 0
M  V30 3905 H 360.575 -1.65127 3.8215 0
M  V30 3906 H 361.108 0.040304 3.9778 0
M  V30 3907 H 357.847 2.00672 6.24028 0
M  V30 3908 H 357.367 0.312546 5.98985 0
M  V30 3909 H 359.046 0.711114 6.4308 0
M  V30 3910 N 359.178 -1.55987 0.224894 0
M  V30 3911 C 360.589 -1.84553 -0.282345 0
M  V30 3912 C 360.94 -1.14634 -1.59227 0
M  V30 3913 O 360.065 -0.417155 -2.12341 0
M  V30 3914 C 360.66 -3.348 -0.519062 0
M  V30 3915 C 359.219 -3.63671 -0.970604 0
M  V30 3916 C 358.366 -2.77277 -0.0355261 0
M  V30 3917 H 361.317 -1.52245 0.448006 0
M  V30 3918 H 361.338 -3.55187 -1.36463 0
M  V30 3919 H 360.85 -3.8566 0.43449 0
M  V30 3920 H 358.951 -3.1827 -1.9374 0
M  V30 3921 H 359.064 -4.71631 -0.842698 0
M  V30 3922 H 357.428 -2.48846 -0.542927 0
M  V30 3923 H 358.211 -3.30937 0.913003 0
M  V30 3924 O 360.695 -0.0887553 -1.61256 0
M  V30 3925 H 361.386 0.514821 -1.86733 0
M  V30 END ATOM
M  V30 BEGIN BOND
M  V30 END BOND
M  V30 END CTAB
M  END
$$$$
