drugbank_target|P0DJD9 Pepsin A-5 (DB00364)
 OpenBabel12092121203D

  0  0  0     0  0            999 V3000
M  V30 BEGIN CTAB
M  V30 COUNTS 5817 5888 0 0 0
M  V30 BEGIN ATOM
M  V30 1 H -0.908 1.98254 -0.117106 0
M  V30 2 N 0 1.576 0 0
M  V30 3 C 0.933 2.03868 1.02534 0
M  V30 4 C 1.911 0.928543 1.3348 0
M  V30 5 O 3.095 1.19667 1.45644 0
M  V30 6 C 0.222 2.43627 2.35294 0
M  V30 7 C -0.732 3.65373 2.2001 0
M  V30 8 S 0.101 5.13292 1.52614 0
M  V30 9 C 1.257 5.56322 2.86805 0
M  V30 10 H 1.49 2.90518 0.631377 0
M  V30 11 H -0.977 1.52953 0.210867 0
M  V30 12 H 0.981 2.67203 3.11629 0
M  V30 13 H -0.358 1.57376 2.7183 0
M  V30 14 H -1.165 3.90944 3.18086 0
M  V30 15 H -1.563 3.418 1.51819 0
M  V30 16 H 0.729 5.58782 3.83104 0
M  V30 17 H 1.672 6.56266 2.65933 0
M  V30 18 H 2.08 4.83886 2.90714 0
M  V30 19 N 1.4781 -0.272755 1.55222 0
M  V30 20 C 2.4251 -1.33716 1.88119 0
M  V30 21 C 3.3951 -1.49066 0.73271 0
M  V30 22 O 4.5801 -1.63469 0.984002 0
M  V30 23 C 1.7201 -2.69238 2.15882 0
M  V30 24 C 0.8331 -2.62108 3.43399 0
M  V30 25 C -0.0319 -3.89811 3.60861 0
M  V30 26 C -0.9929 -3.77193 4.8207 0
M  V30 27 N -1.8559 -4.9673 4.96189 0
M  V30 28 H 2.9841 -1.04962 2.78903 0
M  V30 29 H 0.5211 -0.507088 1.38083 0
M  V30 30 H 2.4791 -3.48089 2.29978 0
M  V30 31 H 1.1091 -2.96194 1.28331 0
M  V30 32 H 0.1611 -1.74967 3.37773 0
M  V30 33 H 1.4731 -2.48685 4.32386 0
M  V30 34 H 0.6271 -4.77103 3.74777 0
M  V30 35 H -0.6339 -4.06102 2.7006 0
M  V30 36 H -1.6289 -2.88284 4.68159 0
M  V30 37 H -0.4039 -3.62421 5.74307 0
M  V30 38 H -2.4579 -5.13431 4.08319 0
M  V30 39 H -2.5409 -4.85839 5.79221 0
M  V30 40 H -1.2729 -5.85594 5.1449 0
M  V30 41 N 2.9562 -1.48159 -0.537278 0
M  V30 42 C 4.2022 -1.57015 -1.29297 0
M  V30 43 C 4.5572 -0.237791 -1.90925 0
M  V30 44 O 3.8502 0.758621 -1.75942 0
M  V30 45 C 4.0442 -2.63956 -2.40961 0
M  V30 46 C 3.8732 -4.07461 -1.90278 0
M  V30 47 C 2.6432 -4.74685 -1.73213 0
M  V30 48 C 4.8412 -4.93858 -1.43556 0
M  V30 49 N 2.8232 -6.02633 -1.17078 0
M  V30 50 C 4.1942 -6.11993 -0.993204 0
M  V30 51 C 6.2492 -4.80141 -1.31792 0
M  V30 52 C 4.9522 -7.17923 -0.444872 0
M  V30 53 C 6.9782 -5.86186 -0.783585 0
M  V30 54 C 6.3402 -7.03524 -0.351261 0
M  V30 55 H 2.4392 -0.629154 -0.464423 0
M  V30 56 H 5.0232 -1.85006 -0.606705 0
M  V30 57 H 3.1942 -2.378 -3.07093 0
M  V30 58 H 4.9262 -2.62539 -3.07986 0
M  V30 59 H 1.6812 -4.30902 -1.9652 0
M  V30 60 H 2.1052 -6.7085 -0.910421 0
M  V30 61 H 6.7472 -3.89772 -1.63823 0
M  V30 62 H 4.4652 -8.08022 -0.11222 0
M  V30 63 H 8.0512 -5.77624 -0.695835 0
M  V30 64 H 6.9312 -7.8418 0.055777 0
M  V30 65 N 4.4343 0.785586 -1.36625 0
M  V30 66 C 5.3643 1.91259 -1.33949 0
M  V30 67 C 6.3453 1.68795 -0.210325 0
M  V30 68 O 7.5303 1.89854 -0.408561 0
M  V30 69 C 4.6603 3.28339 -1.13186 0
M  V30 70 C 3.6143 3.65335 -2.22967 0
M  V30 71 C 2.9403 5.00806 -1.87342 0
M  V30 72 C 4.2403 3.7352 -3.65075 0
M  V30 73 H 5.9343 1.93755 -2.28253 0
M  V30 74 H 3.4803 0.930788 -1.09874 0
M  V30 75 H 5.4333 4.06804 -1.09948 0
M  V30 76 H 4.1573 3.2624 -0.153332 0
M  V30 77 H 2.8163 2.89169 -2.25337 0
M  V30 78 H 2.4643 4.95233 -0.880545 0
M  V30 79 H 2.1643 5.26529 -2.60846 0
M  V30 80 H 3.6883 5.81687 -1.85667 0
M  V30 81 H 5.1023 4.42168 -3.64911 0
M  V30 82 H 3.4993 4.10731 -4.37516 0
M  V30 83 H 4.5693 2.74527 -3.99703 0
M  V30 84 N 5.9124 1.20967 1.01018 0
M  V30 85 C 6.8424 0.988272 2.11555 0
M  V30 86 C 7.8234 -0.0849778 1.69888 0
M  V30 87 O 9.0084 0.0738202 1.9406 0
M  V30 88 C 6.1384 0.546528 3.42973 0
M  V30 89 C 5.0924 1.56375 3.9841 0
M  V30 90 C 4.4184 0.97842 5.25672 0
M  V30 91 C 5.7184 2.94922 4.31066 0
M  V30 92 H 7.4124 1.91276 2.30334 0
M  V30 93 H 4.9584 0.921073 1.1069 0
M  V30 94 H 6.9114 0.378839 4.19694 0
M  V30 95 H 5.6354 -0.413598 3.23971 0
M  V30 96 H 4.2944 1.71891 3.23804 0
M  V30 97 H 3.9424 0.0101688 5.02999 0
M  V30 98 H 3.6424 1.65784 5.63728 0
M  V30 99 H 5.1664 0.821939 6.05043 0
M  V30 100 H 6.5804 2.8288 4.9865 0
M  V30 101 H 4.9774 3.5983 4.80253 0
M  V30 102 H 6.0474 3.4616 3.39561 0
M  V30 103 N 7.3905 -1.2043 1.01659 0
M  V30 104 C 8.3205 -2.25466 0.607226 0
M  V30 105 C 9.3015 -1.65853 -0.377716 0
M  V30 106 O 10.4865 -1.92409 -0.263149 0
M  V30 107 C 7.6165 -3.47256 -0.0552949 0
M  V30 108 C 6.5705 -4.19462 0.850632 0
M  V30 109 C 5.8965 -5.34673 0.0538859 0
M  V30 110 C 7.1965 -4.75603 2.15868 0
M  V30 111 H 8.8905 -2.59962 1.48526 0
M  V30 112 H 6.4365 -1.2496 0.715605 0
M  V30 113 H 8.3895 -4.19917 -0.353233 0
M  V30 114 H 7.1135 -3.11924 -0.968045 0
M  V30 115 H 5.7725 -3.48667 1.13257 0
M  V30 116 H 5.4205 -4.95585 -0.860514 0
M  V30 117 H 5.1205 -5.83913 0.657192 0
M  V30 118 H 6.6445 -6.10138 -0.237598 0
M  V30 119 H 8.0585 -5.40083 1.92311 0
M  V30 120 H 6.4555 -5.3528 2.71284 0
M  V30 121 H 7.5255 -3.94346 2.82169 0
M  V30 122 N 8.8686 -0.792821 -1.36206 0
M  V30 123 C 9.7986 -0.207853 -2.32573 0
M  V30 124 C 10.7796 0.659055 -1.56813 0
M  V30 125 O 11.9646 0.592176 -1.84951 0
M  V30 126 C 9.0946 0.655449 -3.41059 0
M  V30 127 C 8.0486 -0.111842 -4.27854 0
M  V30 128 C 7.3746 0.872274 -5.27537 0
M  V30 129 C 8.6746 -1.30299 -5.05786 0
M  V30 130 H 10.3686 -1.01294 -2.81744 0
M  V30 131 H 7.9146 -0.48854 -1.3546 0
M  V30 132 H 9.8676 1.07464 -4.07467 0
M  V30 133 H 8.5916 1.49328 -2.90463 0
M  V30 134 H 7.2506 -0.512053 -3.63006 0
M  V30 135 H 6.8986 1.70523 -4.73214 0
M  V30 136 H 6.5986 0.363291 -5.86476 0
M  V30 137 H 8.1226 1.28996 -5.96818 0
M  V30 138 H 9.5366 -0.959379 -5.65216 0
M  V30 139 H 7.9336 -1.7455 -5.74154 0
M  V30 140 H 9.0036 -2.09663 -4.37229 0
M  V30 141 N 10.3467 1.47872 -0.545128 0
M  V30 142 C 11.5947 2.02093 -0.016553 0
M  V30 143 C 11.9157 1.42305 1.3332 0
M  V30 144 O 11.1857 0.593853 1.86682 0
M  V30 145 H 9.7657 0.746993 -0.00313038 0
M  V30 146 H 12.4277 1.81414 -0.712397 0
M  V30 147 H 11.5237 3.11996 0.0805422 0
M  V30 148 N 11.8248 0.280983 1.55075 0
M  V30 149 C 12.7548 -0.597469 2.25727 0
M  V30 150 C 13.7358 -1.15417 1.24952 0
M  V30 151 O 14.9208 -1.18722 1.53684 0
M  V30 152 C 12.0508 -1.7789 2.98283 0
M  V30 153 C 11.0048 -1.35347 4.06036 0
M  V30 154 C 10.3308 -2.61846 4.66198 0
M  V30 155 C 11.6308 -0.499354 5.19907 0
M  V30 156 H 13.3248 -0.00824265 2.99399 0
M  V30 157 H 10.8708 -0.0025244 1.44 0
M  V30 158 H 12.8238 -2.39937 3.46422 0
M  V30 159 H 11.5478 -2.39405 2.22155 0
M  V30 160 H 10.2068 -0.756156 3.58717 0
M  V30 161 H 9.8548 -3.21632 3.86732 0
M  V30 162 H 9.5548 -2.3409 5.38958 0
M  V30 163 H 11.0788 -3.24732 5.1709 0
M  V30 164 H 12.4928 -1.02498 5.64063 0
M  V30 165 H 10.8898 -0.316424 5.99265 0
M  V30 166 H 11.9598 0.480459 4.82514 0
M  V30 167 N 13.3029 -1.57598 0.00835791 0
M  V30 168 C 14.5489 -1.91211 -0.675732 0
M  V30 169 C 14.8819 -0.883139 -1.72958 0
M  V30 170 O 14.1569 0.097016 -1.94258 0
M  V30 171 C 14.4399 -3.35379 -1.31123 0
M  V30 172 C 14.2929 -4.48999 -0.268356 0
M  V30 173 C 15.6119 -3.7912 -2.23508 0
M  V30 174 H 12.7309 -0.695374 -0.244179 0
M  V30 175 H 15.3729 -1.89901 0.0613655 0
M  V30 176 H 13.5229 -3.36626 -1.93946 0
M  V30 177 H 15.1949 -4.59887 0.360844 0
M  V30 178 H 13.4379 -4.31873 0.408482 0
M  V30 179 H 14.1089 -5.46851 -0.752218 0
M  V30 180 H 16.5849 -3.79477 -1.70693 0
M  V30 181 H 15.4609 -4.80729 -2.64936 0
M  V30 182 H 15.7219 -3.13455 -3.11766 0
M  V30 183 N 14.781 0.264519 -1.55364 0
M  V30 184 C 15.744 1.31046 -1.88042 0
M  V30 185 C 16.744 1.41943 -0.755569 0
M  V30 186 O 17.934 1.40947 -1.02369 0
M  V30 187 C 15.066 2.69067 -2.09323 0
M  V30 188 H 16.259 1.03297 -2.81549 0
M  V30 189 H 13.812 0.502989 -1.47986 0
M  V30 190 H 14.547 3.01982 -1.18226 0
M  V30 191 H 14.332 2.62542 -2.91229 0
M  V30 192 H 15.822 3.44623 -2.35848 0
M  V30 193 N 16.2591 1.48442 0.529413 0
M  V30 194 C 17.1891 1.65902 1.64313 0
M  V30 195 C 18.1701 0.507897 1.6234 0
M  V30 196 O 19.3551 0.740503 1.79528 0
M  V30 197 C 16.4851 1.69911 3.02898 0
M  V30 198 C 15.4391 2.8453 3.19729 0
M  V30 199 C 14.7651 2.73629 4.59381 0
M  V30 200 C 16.0651 4.25821 3.02447 0
M  V30 201 H 17.7591 2.5914 1.49955 0
M  V30 202 H 15.3051 1.24709 0.719982 0
M  V30 203 H 17.2581 1.80715 3.80684 0
M  V30 204 H 15.9821 0.732524 3.18279 0
M  V30 205 H 14.6411 2.73283 2.44361 0
M  V30 206 H 14.2891 1.74938 4.71599 0
M  V30 207 H 13.9891 3.50541 4.71588 0
M  V30 208 H 15.5131 2.86401 5.39265 0
M  V30 209 H 16.9271 4.37898 3.70024 0
M  V30 210 H 15.3241 5.03735 3.26146 0
M  V30 211 H 16.3941 4.42244 1.98867 0
M  V30 212 N 17.7372 -0.778329 1.37039 0
M  V30 213 C 18.9622 -1.57248 1.35233 0
M  V30 214 C 19.3872 -1.87999 -0.0615568 0
M  V30 215 O 18.7452 -1.48734 -1.03672 0
M  V30 216 C 18.7932 -2.86353 2.19167 0
M  V30 217 O 17.8972 -3.80442 1.59178 0
M  V30 218 H 17.2382 -0.476569 0.462362 0
M  V30 219 H 19.7682 -0.963853 1.80474 0
M  V30 220 H 19.7782 -3.35519 2.32145 0
M  V30 221 H 18.4532 -2.63299 3.21942 0
M  V30 222 H 17.0302 -3.39067 1.55203 0
M  V30 223 N 19.2153 -1.21501 -1.00376 0
M  V30 224 C 20.1253 -0.991447 -2.12621 0
M  V30 225 C 21.1413 0.0568446 -1.73907 0
M  V30 226 O 22.3173 -0.13348 -2.00957 0
M  V30 227 C 19.3823 -0.560312 -3.42142 0
M  V30 228 C 18.4433 -1.68096 -3.95022 0
M  V30 229 C 17.6763 -1.2703 -5.18362 0
M  V30 230 O 17.8993 -0.144438 -5.70217 0
M  V30 231 O 16.8333 -2.08269 -5.64719 0
M  V30 232 H 20.6593 -1.93158 -2.34358 0
M  V30 233 H 18.2443 -0.999999 -1.10997 0
M  V30 234 H 20.1263 -0.329724 -4.20108 0
M  V30 235 H 18.8013 0.351089 -3.2179 0
M  V30 236 H 17.7083 -1.96597 -3.18278 0
M  V30 237 H 19.0413 -2.56983 -4.19786 0
M  V30 238 N 20.6934 1.19889 -1.02296 0
M  V30 239 C 21.9334 1.91125 -0.724602 0
M  V30 240 C 22.2974 1.77464 0.732835 0
M  V30 241 O 23.4984 2.43241 1.144 0
M  V30 242 C 21.7694 3.38187 -1.15604 0
M  V30 243 S 23.3284 4.27702 -0.980621 0
M  V30 244 H 20.1464 0.66018 -0.263976 0
M  V30 245 H 22.7484 1.44978 -1.31155 0
M  V30 246 H 21.4524 3.45653 -2.21251 0
M  V30 247 H 20.9834 3.89363 -0.562131 0
M  V30 248 H 22.9984 4.96073 0.112225 0
M  V30 249 N 22.1715 0.800033 1.35784 0
M  V30 250 C 23.4205 0.37387 1.98205 0
M  V30 251 C 23.7335 -1.06302 1.64193 0
M  V30 252 O 24.9395 -1.59198 2.19928 0
M  V30 253 C 23.3955 0.617532 3.54562 0
M  V30 254 C 23.0035 2.06654 3.9749 0
M  V30 255 C 24.7475 0.256401 4.23725 0
M  V30 256 C 22.6545 2.2563 5.46667 0
M  V30 257 H 21.5845 0.136055 0.741623 0
M  V30 258 H 24.2355 0.983166 1.54939 0
M  V30 259 H 22.6175 -0.0616248 3.95952 0
M  V30 260 H 23.7915 2.78296 3.67271 0
M  V30 261 H 22.1065 2.38691 3.41197 0
M  V30 262 H 24.7035 0.376318 5.33374 0
M  V30 263 H 25.0465 -0.796692 4.08606 0
M  V30 264 H 25.5795 0.889214 3.87734 0
M  V30 265 H 22.3185 3.2936 5.66747 0
M  V30 266 H 21.8385 1.58504 5.78478 0
M  V30 267 H 23.5175 2.06861 6.1304 0
M  V30 268 N 23.6496 -1.47581 0.552962 0
M  V30 269 C 24.5826 -2.26883 -0.244857 0
M  V30 270 C 25.5606 -1.33784 -0.924147 0
M  V30 271 O 26.7446 -1.6316 -0.943981 0
M  V30 272 C 23.8716 -3.10695 -1.34856 0
M  V30 273 C 22.9176 -4.19339 -0.778268 0
M  V30 274 S 23.7506 -5.34207 0.37184 0
M  V30 275 C 24.9066 -6.21584 -0.733779 0
M  V30 276 H 25.1396 -2.94202 0.428087 0
M  V30 277 H 22.6726 -1.50628 0.339197 0
M  V30 278 H 24.6306 -3.59555 -1.98066 0
M  V30 279 H 23.2916 -2.42746 -1.99332 0
M  V30 280 H 22.4846 -4.77695 -1.60696 0
M  V30 281 H 22.0866 -3.73338 -0.222422 0
M  V30 282 H 24.3786 -6.57676 -1.62692 0
M  V30 283 H 25.3216 -7.07851 -0.187668 0
M  V30 284 H 25.7296 -5.55125 -1.02454 0
M  V30 285 N 25.1277 -0.289203 -1.54924 0
M  V30 286 C 26.3577 0.325989 -2.04012 0
M  V30 287 C 26.7657 1.48961 -1.1665 0
M  V30 288 O 26.1087 1.82794 -0.1822 0
M  V30 289 C 26.1707 0.856112 -3.49158 0
M  V30 290 C 25.8347 -0.180697 -4.56643 0
M  V30 291 C 26.8317 -1.0051 -5.10092 0
M  V30 292 C 24.5167 -0.318998 -5.01286 0
M  V30 293 C 26.5107 -1.95385 -6.06715 0
M  V30 294 C 24.1977 -1.27121 -5.97732 0
M  V30 295 C 25.1957 -2.08713 -6.50329 0
M  V30 296 O 24.8837 -3.02322 -7.44887 0
M  V30 297 H 24.6157 0.0765276 -0.671654 0
M  V30 298 H 27.1697 -0.423254 -2.00992 0
M  V30 299 H 25.3997 1.65567 -3.49463 0
M  V30 300 H 27.0887 1.38591 -3.81507 0
M  V30 301 H 27.8547 -0.90906 -4.76404 0
M  V30 302 H 23.7337 0.306108 -4.59983 0
M  V30 303 H 27.2777 -2.59111 -6.47694 0
M  V30 304 H 23.1747 -1.36801 -6.30837 0
M  V30 305 H 23.9427 -2.97165 -7.6265 0
M  V30 306 N 26.6058 1.57591 -0.0167156 0
M  V30 307 C 27.5528 2.09462 0.969251 0
M  V30 308 C 28.5228 0.99381 1.33089 0
M  V30 309 O 29.7078 1.26726 1.42636 0
M  V30 310 C 26.8478 2.61622 2.25051 0
M  V30 311 C 25.9608 3.85666 1.94642 0
M  V30 312 C 25.0958 4.26266 3.16972 0
M  V30 313 C 24.1348 5.43101 2.82326 0
M  V30 314 N 23.2718 5.78915 3.97243 0
M  V30 315 H 28.1118 2.93428 0.519997 0
M  V30 316 H 25.6488 1.45044 0.245087 0
M  V30 317 H 27.6068 2.89949 2.99976 0
M  V30 318 H 26.2368 1.80505 2.67615 0
M  V30 319 H 25.2888 3.64145 1.10013 0
M  V30 320 H 26.6008 4.70678 1.65117 0
M  V30 321 H 25.7548 4.55963 4.00228 0
M  V30 322 H 24.4938 3.39996 3.49648 0
M  V30 323 H 23.4988 5.1311 1.97479 0
M  V30 324 H 24.7238 6.3106 2.50879 0
M  V30 325 H 22.6698 4.95602 4.29785 0
M  V30 326 H 22.5868 6.58539 3.71299 0
M  V30 327 H 23.8548 6.13212 4.81239 0
M  V30 328 N 28.0839 -0.256276 1.55502 0
M  V30 329 C 29.3299 -0.987079 1.77157 0
M  V30 330 C 29.6629 -1.85327 0.580315 0
M  V30 331 O 28.9379 -1.89874 -0.421686 0
M  V30 332 C 29.2209 -1.85553 3.08613 0
M  V30 333 C 29.0739 -1.01816 4.38125 0
M  V30 334 C 30.3929 -2.8397 3.36228 0
M  V30 335 H 27.5119 -0.357428 0.644526 0
M  V30 336 H 30.1539 -0.258239 1.88237 0
M  V30 337 H 28.3039 -2.47695 2.99298 0
M  V30 338 H 29.9759 -0.416159 4.59419 0
M  V30 339 H 28.2189 -0.322178 4.32602 0
M  V30 340 H 28.8899 -1.65939 5.26468 0
M  V30 341 H 31.3659 -2.31964 3.45445 0
M  V30 342 H 30.2419 -3.41864 4.29442 0
M  V30 343 H 30.5029 -3.59955 2.56681 0
M  V30 344 N 29.562 -1.4872 -0.521534 0
M  V30 345 C 30.973 -1.50607 -1.10337 0
M  V30 346 C 31.324 -0.280612 -1.94183 0
M  V30 347 O 30.449 0.611507 -2.0758 0
M  V30 348 C 31.044 -2.72903 -2.00772 0
M  V30 349 C 29.603 -2.77634 -2.54158 0
M  V30 350 C 28.75 -2.44241 -1.31307 0
M  V30 351 H 31.701 -1.55714 -0.306388 0
M  V30 352 H 31.722 -2.519 -2.85178 0
M  V30 353 H 31.234 -3.62077 -1.39721 0
M  V30 354 H 29.335 -1.92689 -3.18907 0
M  V30 355 H 29.448 -3.79283 -2.92714 0
M  V30 356 H 27.812 -1.95577 -1.63161 0
M  V30 357 H 28.595 -3.35666 -0.719943 0
M  V30 358 N 31.0401 0.771051 -1.3745 0
M  V30 359 C 31.9701 1.89827 -1.3597 0
M  V30 360 C 32.9511 1.68562 -0.228216 0
M  V30 361 O 34.1361 1.8941 -0.428675 0
M  V30 362 C 31.2661 3.2712 -1.16662 0
M  V30 363 C 30.2201 3.6295 -2.2683 0
M  V30 364 C 29.5461 4.98791 -1.92644 0
M  V30 365 C 30.8461 3.69627 -3.69017 0
M  V30 366 H 32.5401 1.91323 -2.30295 0
M  V30 367 H 30.0861 0.919082 -1.10855 0
M  V30 368 H 32.0391 4.05615 -1.14256 0
M  V30 369 H 30.7631 3.26059 -0.187926 0
M  V30 370 H 29.4221 2.86763 -2.28392 0
M  V30 371 H 29.0701 4.94271 -0.933021 0
M  V30 372 H 28.7701 5.23733 -2.66416 0
M  V30 373 H 30.2941 5.79685 -1.91826 0
M  V30 374 H 31.7081 4.38273 -3.69581 0
M  V30 375 H 30.1051 4.06067 -4.41848 0
M  V30 376 H 31.1751 2.70273 -4.02592 0
M  V30 377 N 32.5182 1.22032 0.997298 0
M  V30 378 C 33.7672 1.03637 1.73038 0
M  V30 379 C 34.0802 -0.429475 1.90827 0
M  V30 380 O 35.2862 -0.732995 2.61418 0
M  V30 381 C 33.7422 1.80582 3.11317 0
M  V30 382 C 33.3502 3.31387 3.01474 0
M  V30 383 C 35.0942 1.70621 3.88701 0
M  V30 384 C 33.0012 4.00791 4.3488 0
M  V30 385 H 31.9312 0.384179 0.648785 0
M  V30 386 H 34.5822 1.4584 1.11368 0
M  V30 387 H 32.9642 1.31175 3.73643 0
M  V30 388 H 34.1382 3.88155 2.4834 0
M  V30 389 H 32.4532 3.41976 2.37575 0
M  V30 390 H 35.0502 2.19799 4.87434 0
M  V30 391 H 35.3932 0.665823 4.10941 0
M  V30 392 H 35.9262 2.17547 3.33044 0
M  V30 393 H 32.6652 5.05064 4.1784 0
M  V30 394 H 32.1852 3.48811 4.87945 0
M  V30 395 H 33.8642 4.06139 5.03647 0
M  V30 396 N 33.9963 -1.19345 1.0293 0
M  V30 397 C 35.4123 -1.41069 0.746446 0
M  V30 398 C 35.6123 -1.90078 -0.668776 0
M  V30 399 O 34.6683 -2.0778 -1.4347 0
M  V30 400 C 35.9813 -2.42141 1.78292 0
M  V30 401 C 37.5293 -2.55887 1.80252 0
M  V30 402 C 38.0043 -3.60214 2.8286 0
M  V30 403 N 39.4953 -3.67711 2.81679 0
M  V30 404 C 40.2303 -4.48128 3.57727 0
M  V30 405 N 39.7263 -5.32248 4.43491 0
M  V30 406 N 41.5193 -4.42782 3.46267 0
M  V30 407 H 33.6703 -0.858536 1.94275 0
M  V30 408 H 35.9333 -0.439541 0.839945 0
M  V30 409 H 35.6393 -2.13155 2.79746 0
M  V30 410 H 35.5133 -3.41323 1.60557 0
M  V30 411 H 37.9003 -2.84196 0.794757 0
M  V30 412 H 37.9813 -1.56858 2.02062 0
M  V30 413 H 37.6253 -3.32647 3.83807 0
M  V30 414 H 37.5553 -4.58895 2.58307 0
M  V30 415 H 40.0463 -3.07634 2.19476 0
M  V30 416 H 40.3593 -5.90729 4.98256 0
M  V30 417 H 38.7043 -5.31707 4.47564 0
M  V30 418 H 41.8953 -3.76107 2.78677 0
M  V30 419 H 42.0683 -5.05215 4.05785 0
M  V30 420 N 35.4744 -0.807222 -1.35358 0
M  V30 421 C 36.4214 -0.216037 -2.29787 0
M  V30 422 C 37.3914 0.650278 -1.52842 0
M  V30 423 O 38.5764 0.595227 -1.81278 0
M  V30 424 C 35.7164 0.628893 -3.39321 0
M  V30 425 C 34.8294 -0.257927 -4.31229 0
M  V30 426 C 33.9644 0.595069 -5.27856 0
M  V30 427 C 33.0034 -0.292111 -6.11403 0
M  V30 428 N 32.1404 0.520895 -7.00165 0
M  V30 429 H 36.9804 -1.02671 -2.79755 0
M  V30 430 H 34.5174 -0.517839 -1.37684 0
M  V30 431 H 36.4754 1.13393 -4.01494 0
M  V30 432 H 35.1054 1.40482 -2.90628 0
M  V30 433 H 34.1574 -0.881076 -3.70056 0
M  V30 434 H 35.4694 -0.940759 -4.89848 0
M  V30 435 H 34.6234 1.16522 -5.95405 0
M  V30 436 H 33.3624 1.31146 -4.69736 0
M  V30 437 H 32.3674 -0.874525 -5.428 0
M  V30 438 H 33.5924 -1.00638 -6.71602 0
M  V30 439 H 31.5384 1.22125 -6.44532 0
M  V30 440 H 31.4554 -0.103877 -7.55929 0
M  V30 441 H 32.7234 1.0743 -7.72062 0
M  V30 442 N 36.9525 1.47285 -0.560781 0
M  V30 443 C 37.8995 2.30058 0.18491 0
M  V30 444 C 38.8695 1.39281 0.904986 0
M  V30 445 O 40.0545 1.68241 0.899979 0
M  V30 446 C 37.1945 3.23317 1.20666 0
M  V30 447 C 36.3075 4.29186 0.492285 0
M  V30 448 C 35.4425 5.09592 1.49964 0
M  V30 449 C 34.4815 6.07232 0.770439 0
M  V30 450 N 33.6185 6.80584 1.72479 0
M  V30 451 H 38.4585 2.93302 -0.527048 0
M  V30 452 H 35.9955 1.44568 -0.271738 0
M  V30 453 H 37.9535 3.75811 1.81168 0
M  V30 454 H 36.5835 2.61929 1.88661 0
M  V30 455 H 35.6355 3.7972 -0.227333 0
M  V30 456 H 36.9475 4.98738 -0.0787929 0
M  V30 457 H 36.1015 5.66254 2.17809 0
M  V30 458 H 34.8405 4.3995 2.10464 0
M  V30 459 H 33.8455 5.49745 0.0780846 0
M  V30 460 H 35.0705 6.78884 0.171134 0
M  V30 461 H 33.0165 6.1367 2.3183 0
M  V30 462 H 32.9335 7.46319 1.20596 0
M  V30 463 H 34.2015 7.41818 2.39428 0
M  V30 464 N 38.4306 0.297415 1.54768 0
M  V30 465 C 39.6556 -0.318435 2.04941 0
M  V30 466 C 40.0806 -1.4701 1.17345 0
M  V30 467 O 39.4386 -1.80436 0.176758 0
M  V30 468 C 39.4866 -0.755749 3.52592 0
M  V30 469 O 38.5906 -1.86088 3.68028 0
M  V30 470 H 37.9316 -0.062421 0.661059 0
M  V30 471 H 40.4616 0.438215 1.99852 0
M  V30 472 H 40.4716 -1.04552 3.94376 0
M  V30 473 H 39.1466 0.0867233 4.1581 0
M  V30 474 H 37.7236 -1.57193 3.38149 0
M  V30 475 N 39.9087 -1.5758 0.0250728 0
M  V30 476 C 40.8387 -2.13007 -0.956575 0
M  V30 477 C 41.8197 -1.0452 -1.342 0
M  V30 478 O 43.0047 -1.32332 -1.42133 0
M  V30 479 C 40.1347 -2.65386 -2.24026 0
M  V30 480 C 39.0887 -3.78623 -1.99571 0
M  V30 481 C 38.4147 -4.17414 -3.3417 0
M  V30 482 C 39.7147 -5.04867 -1.33814 0
M  V30 483 H 41.4087 -2.9528 -0.494991 0
M  V30 484 H 38.9547 -1.42042 -0.236651 0
M  V30 485 H 40.9077 -3.02794 -2.93076 0
M  V30 486 H 39.6317 -1.80268 -2.72343 0
M  V30 487 H 38.2907 -3.41646 -1.32941 0
M  V30 488 H 37.9387 -3.29284 -3.80238 0
M  V30 489 H 37.6387 -4.93719 -3.18615 0
M  V30 490 H 39.1627 -4.57402 -4.04495 0
M  V30 491 H 40.5767 -5.39888 -1.92857 0
M  V30 492 H 38.9737 -5.86144 -1.28669 0
M  V30 493 H 40.0437 -4.83904 -0.310561 0
M  V30 494 N 41.3868 0.248026 -1.55636 0
M  V30 495 C 42.8028 0.596483 -1.48035 0
M  V30 496 C 43.0028 1.88386 -0.715039 0
M  V30 497 O 42.0588 2.51319 -0.243944 0
M  V30 498 C 43.3718 0.700258 -2.92433 0
M  V30 499 C 44.9198 0.792659 -3.02797 0
M  V30 500 C 45.3948 0.928005 -4.485 0
M  V30 501 N 46.8858 0.992903 -4.52433 0
M  V30 502 C 47.6208 1.11687 -5.62418 0
M  V30 503 N 47.1168 1.20645 -6.82214 0
M  V30 504 N 48.9098 1.14994 -5.50212 0
M  V30 505 H 41.0608 -0.597109 -2.03834 0
M  V30 506 H 43.3238 -0.205925 -0.925364 0
M  V30 507 H 43.0298 -0.175658 -3.51261 0
M  V30 508 H 42.9038 1.57255 -3.42857 0
M  V30 509 H 45.2908 1.65903 -2.4405 0
M  V30 510 H 45.3718 -0.104762 -2.55585 0
M  V30 511 H 45.0158 0.0661971 -5.07857 0
M  V30 512 H 44.9458 1.84045 -4.93391 0
M  V30 513 H 47.4368 0.935064 -3.66149 0
M  V30 514 H 47.7498 1.30008 -7.61786 0
M  V30 515 H 46.0948 1.17605 -6.84977 0
M  V30 516 H 49.2858 1.07643 -4.55555 0
M  V30 517 H 49.4588 1.24311 -6.35965 0
M  V30 518 N 42.8649 1.48995 0.513639 0
M  V30 519 C 44.2809 1.35478 0.843682 0
M  V30 520 C 44.4809 0.378213 1.97919 0
M  V30 521 O 43.5369 -0.194689 2.51748 0
M  V30 522 C 44.8499 2.75901 1.1958 0
M  V30 523 C 46.3979 2.84509 1.30474 0
M  V30 524 C 46.8729 4.25671 1.69021 0
M  V30 525 N 48.3639 4.28422 1.76094 0
M  V30 526 C 49.0989 5.34601 2.07338 0
M  V30 527 N 48.5949 6.5104 2.36894 0
M  V30 528 N 50.3879 5.22007 2.08483 0
M  V30 529 H 42.5389 2.11092 -0.235328 0
M  V30 530 H 44.8019 0.947039 -0.0426669 0
M  V30 531 H 44.5079 3.49001 0.434913 0
M  V30 532 H 44.3819 3.10467 2.1422 0
M  V30 533 H 46.7689 2.11655 2.05637 0
M  V30 534 H 46.8499 2.53542 0.339155 0
M  V30 535 H 46.4939 4.99048 0.944135 0
M  V30 536 H 46.4239 4.54094 2.66658 0
M  V30 537 H 48.9149 3.44441 1.55464 0
M  V30 538 H 49.2279 7.2779 2.59887 0
M  V30 539 H 47.5729 6.54287 2.34378 0
M  V30 540 H 50.7639 4.30051 1.84861 0
M  V30 541 H 50.9369 6.04854 2.325 0
M  V30 542 N 44.343 -0.763751 1.37857 0
M  V30 543 C 45.571 -1.55293 1.36718 0
M  V30 544 C 45.986 -1.88745 -0.0455434 0
M  V30 545 O 45.343 -1.52039 -1.00947 0
M  V30 546 C 45.394 -2.85831 2.2132 0
M  V30 547 O 45.115 -2.5381 3.57089 0
M  V30 548 C 46.616 -3.80023 2.28249 0
M  V30 549 H 43.836 -0.480841 0.468009 0
M  V30 550 H 46.38 -0.946009 1.81303 0
M  V30 551 H 44.535 -3.42926 1.80223 0
M  V30 552 H 44.949 -3.37459 4.01524 0
M  V30 553 H 46.423 -4.68599 2.91752 0
M  V30 554 H 46.9 -4.1973 1.2932 0
M  V30 555 H 47.506 -3.28855 2.69693 0
M  V30 556 N 45.8211 -1.22559 -0.990812 0
M  V30 557 C 46.7511 -1.0218 -2.09956 0
M  V30 558 C 47.7321 0.0579394 -1.70001 0
M  V30 559 O 48.9171 -0.104684 -1.93918 0
M  V30 560 C 46.0471 -0.601023 -3.4206 0
M  V30 561 C 45.0011 -1.62694 -3.95872 0
M  V30 562 C 44.3271 -1.06193 -5.24049 0
M  V30 563 C 45.6271 -3.01743 -4.2632 0
M  V30 564 H 47.3211 -1.94916 -2.27262 0
M  V30 565 H 44.8671 -0.938566 -1.09211 0
M  V30 566 H 46.8201 -0.445561 -4.19038 0
M  V30 567 H 45.5441 0.362005 -3.24588 0
M  V30 568 H 44.2031 -1.77021 -3.21028 0
M  V30 569 H 43.8511 -0.0901903 -5.02919 0
M  V30 570 H 43.5511 -1.74732 -5.61019 0
M  V30 571 H 45.0751 -0.918092 -6.03658 0
M  V30 572 H 46.4891 -2.90777 -4.94087 0
M  V30 573 H 44.8861 -3.67425 -4.74467 0
M  V30 574 H 45.9561 -3.51518 -3.34011 0
M  V30 575 N 47.2992 1.18797 -1.03562 0
M  V30 576 C 48.5242 1.9314 -0.755764 0
M  V30 577 C 48.9492 1.7537 0.68022 0
M  V30 578 O 48.3072 1.06046 1.47051 0
M  V30 579 C 48.3552 3.42747 -1.12058 0
M  V30 580 O 47.4592 4.11683 -0.243124 0
M  V30 581 H 46.8002 0.602724 -0.278604 0
M  V30 582 H 49.3302 1.50678 -1.3841 0
M  V30 583 H 49.3402 3.93437 -1.08035 0
M  V30 584 H 48.0152 3.55002 -2.16672 0
M  V30 585 H 46.5922 3.71323 -0.342539 0
M  V30 586 N 48.7773 0.814389 1.34928 0
M  V30 587 C 49.6873 0.231978 2.3345 0
M  V30 588 C 50.7033 -0.629139 1.62228 0
M  V30 589 O 51.8793 -0.539052 1.94052 0
M  V30 590 C 48.9443 -0.603482 3.41407 0
M  V30 591 C 48.0053 0.279037 4.28392 0
M  V30 592 C 47.2383 -0.516643 5.31193 0
M  V30 593 O 47.4613 -1.75068 5.4287 0
M  V30 594 O 46.3953 0.0965652 6.01823 0
M  V30 595 H 50.2213 1.04721 2.85074 0
M  V30 596 H 47.8063 0.576343 1.37836 0
M  V30 597 H 49.6883 -1.07908 4.0735 0
M  V30 598 H 48.3633 -1.39618 2.92042 0
M  V30 599 H 47.2703 0.801948 3.65403 0
M  V30 600 H 48.6033 1.03588 4.81176 0
M  V30 601 N 50.2554 -1.46986 0.568584 0
M  V30 602 C 51.6714 -1.57946 0.229189 0
M  V30 603 C 51.8714 -1.56567 -1.26843 0
M  V30 604 O 50.9274 -1.47511 -2.04931 0
M  V30 605 C 52.2404 -2.87963 0.865909 0
M  V30 606 C 53.7884 -3.01568 0.838188 0
M  V30 607 C 54.2634 -4.34301 1.45419 0
M  V30 608 N 55.7544 -4.40965 1.41788 0
M  V30 609 C 56.4894 -5.42256 1.86403 0
M  V30 610 N 55.9854 -6.50297 2.38926 0
M  V30 611 N 57.7784 -5.3337 1.77405 0
M  V30 612 H 49.9294 -1.46126 1.54146 0
M  V30 613 H 52.1924 -0.696156 0.643484 0
M  V30 614 H 51.8984 -2.94742 1.91886 0
M  V30 615 H 51.7724 -3.75423 0.365687 0
M  V30 616 H 54.1594 -2.94379 -0.206106 0
M  V30 617 H 54.2404 -2.1562 1.37629 0
M  V30 618 H 53.8844 -4.42247 2.49761 0
M  V30 619 H 53.8144 -5.19 0.891435 0
M  V30 620 H 56.3054 -3.63484 1.03381 0
M  V30 621 H 56.6184 -7.23777 2.70863 0
M  V30 622 H 54.9634 -6.51155 2.42944 0
M  V30 623 H 58.1544 -4.47865 1.3614 0
M  V30 624 H 58.3274 -6.12169 2.12492 0
M  V30 625 N 51.7335 -0.305618 -1.54608 0
M  V30 626 C 52.9815 0.301701 -1.99835 0
M  V30 627 C 53.3025 1.54054 -1.19551 0
M  V30 628 O 52.5725 1.93702 -0.292658 0
M  V30 629 H 51.1525 0.114468 -0.738178 0
M  V30 630 H 53.8145 -0.418016 -1.90364 0
M  V30 631 H 52.9105 0.570548 -3.06841 0
M  V30 632 N 53.2116 1.57565 -0.0334293 0
M  V30 633 C 54.1416 2.13511 0.945265 0
M  V30 634 C 55.1226 1.05231 1.33643 0
M  V30 635 O 56.3076 1.33084 1.41429 0
M  V30 636 C 53.4376 2.6657 2.22616 0
M  V30 637 C 52.3916 3.79676 1.97561 0
M  V30 638 C 51.7176 4.1918 3.31952 0
M  V30 639 C 53.0176 5.0557 1.31135 0
M  V30 640 H 54.7116 2.95538 0.479325 0
M  V30 641 H 52.2576 1.42166 0.229115 0
M  V30 642 H 54.2106 3.04344 2.91466 0
M  V30 643 H 52.9346 1.8171 2.71384 0
M  V30 644 H 51.5936 3.42347 1.31127 0
M  V30 645 H 51.2416 3.31296 3.78487 0
M  V30 646 H 50.9416 4.95402 3.15992 0
M  V30 647 H 52.4656 4.59541 4.02063 0
M  V30 648 H 53.8796 5.40903 1.89992 0
M  V30 649 H 52.2766 5.86818 1.25559 0
M  V30 650 H 53.3466 4.84062 0.284894 0
M  V30 651 N 54.6897 -0.239769 1.55765 0
M  V30 652 C 55.6197 -1.30052 1.9393 0
M  V30 653 C 56.6007 -1.49839 0.805132 0
M  V30 654 O 57.7857 -1.62328 1.06599 0
M  V30 655 C 54.9157 -2.65391 2.2402 0
M  V30 656 C 53.8697 -2.60289 3.39755 0
M  V30 657 C 53.1957 -3.99489 3.55405 0
M  V30 658 C 54.4957 -2.16654 4.75246 0
M  V30 659 H 56.1897 -0.983573 2.82783 0
M  V30 660 H 53.7357 -0.471701 1.36055 0
M  V30 661 H 55.6887 -3.3974 2.49308 0
M  V30 662 H 54.4127 -2.98736 1.32 0
M  V30 663 H 53.0717 -1.88398 3.14487 0
M  V30 664 H 52.7197 -4.30112 2.60793 0
M  V30 665 H 52.4197 -3.96962 4.33238 0
M  V30 666 H 53.9437 -4.75528 3.83022 0
M  V30 667 H 55.3577 -2.80737 4.99859 0
M  V30 668 H 53.7547 -2.25223 5.56232 0
M  V30 669 H 54.8247 -1.11835 4.71827 0
M  V30 670 N 56.1678 -1.49265 -0.50573 0
M  V30 671 C 57.1148 -1.65585 -1.6078 0
M  V30 672 C 58.0848 -0.497396 -1.58478 0
M  V30 673 O 59.2698 -0.72385 -1.76536 0
M  V30 674 C 56.4098 -1.72408 -2.98948 0
M  V30 675 C 55.5228 -2.99525 -3.11301 0
M  V30 676 C 54.6578 -2.97356 -4.40174 0
M  V30 677 C 53.6968 -4.19074 -4.46143 0
M  V30 678 N 52.8338 -4.14841 -5.66437 0
M  V30 679 H 57.6738 -2.59688 -1.46172 0
M  V30 680 H 55.2108 -1.28761 -0.711261 0
M  V30 681 H 57.1688 -1.74344 -3.79025 0
M  V30 682 H 55.7988 -0.817753 -3.1227 0
M  V30 683 H 54.8508 -3.07222 -2.24318 0
M  V30 684 H 56.1628 -3.89518 -3.11572 0
M  V30 685 H 55.3168 -2.97829 -5.28567 0
M  V30 686 H 54.0558 -2.05133 -4.42461 0
M  V30 687 H 53.0608 -4.1885 -3.56153 0
M  V30 688 H 54.2858 -5.12483 -4.45575 0
M  V30 689 H 52.2318 -3.25453 -5.69575 0
M  V30 690 H 52.1488 -4.98564 -5.68304 0
M  V30 691 H 53.4168 -4.1941 -6.57051 0
M  V30 692 N 57.6459 0.756429 -1.3826 0
M  V30 693 C 58.9229 1.50584 -1.24835 0
M  V30 694 C 59.3029 2.10556 0.151485 0
M  V30 695 O 58.6509 1.96825 1.1607 0
M  V30 696 C 58.8609 2.57448 -2.3563 0
M  V30 697 C 60.2089 3.24429 -2.73917 0
M  V30 698 O 61.2329 2.67751 -2.34921 0
M  V30 699 O 60.0919 4.26937 -3.41156 0
M  V30 700 H 57.1859 0.667664 -0.48801 0
M  V30 701 H 59.7319 0.792083 -1.5008 0
M  V30 702 H 58.5039 2.11362 -3.29305 0
M  V30 703 H 58.1269 3.36408 -2.11933 0
M  V30 704 N 59.124 1.23083 0.984299 0
M  V30 705 C 60.371 1.06057 1.72505 0
M  V30 706 C 60.699 -0.403105 1.90277 0
M  V30 707 O 59.954 -1.3149 1.44944 0
M  V30 708 C 60.253 1.72673 3.1292 0
M  V30 709 C 59.919 3.22586 3.15038 0
M  V30 710 C 58.581 3.63489 3.15324 0
M  V30 711 C 60.933 4.185 3.10657 0
M  V30 712 C 58.261 4.98772 3.08939 0
M  V30 713 C 60.613 5.53769 3.05814 0
M  V30 714 C 59.277 5.94041 3.04419 0
M  V30 715 H 58.547 0.388091 0.631242 0
M  V30 716 H 61.194 1.52963 1.15215 0
M  V30 717 H 59.499 1.18116 3.73572 0
M  V30 718 H 61.196 1.56982 3.68996 0
M  V30 719 H 57.786 2.90022 3.15571 0
M  V30 720 H 61.97 3.87911 3.09579 0
M  V30 721 H 57.226 5.29193 3.0621 0
M  V30 722 H 61.4 6.27808 3.0138 0
M  V30 723 H 59.027 6.98833 2.99227 0
M  V30 724 N 60.6021 -1.18246 1.0419 0
M  V30 725 C 61.5321 -2.24127 0.654914 0
M  V30 726 C 62.5131 -1.66617 -0.342451 0
M  V30 727 O 63.6981 -1.92924 -0.222277 0
M  V30 728 C 60.8281 -3.47295 0.0183757 0
M  V30 729 C 59.7821 -4.17563 0.939414 0
M  V30 730 C 59.1081 -5.34438 0.167286 0
M  V30 731 C 60.4081 -4.70917 2.25908 0
M  V30 732 H 62.1021 -2.56753 1.54007 0
M  V30 733 H 59.6481 -1.23414 0.74195 0
M  V30 734 H 61.6011 -4.20572 -0.264082 0
M  V30 735 H 60.3251 -3.13907 -0.901664 0
M  V30 736 H 58.9841 -3.46186 1.20628 0
M  V30 737 H 58.6321 -4.97298 -0.7552 0
M  V30 738 H 58.3321 -5.82388 0.780901 0
M  V30 739 H 59.8561 -6.10504 -0.108125 0
M  V30 740 H 61.2701 -5.35882 2.03724 0
M  V30 741 H 59.6671 -5.29406 2.82577 0
M  V30 742 H 60.7371 -3.88272 2.9047 0
M  V30 743 N 62.0802 -0.821533 -1.34494 0
M  V30 744 C 63.0272 -0.240397 -2.29545 0
M  V30 745 C 63.9972 0.634031 -1.53523 0
M  V30 746 O 65.1822 0.575966 -1.81899 0
M  V30 747 C 62.3222 0.592869 -3.39969 0
M  V30 748 C 61.4352 -0.30365 -4.30932 0
M  V30 749 C 60.5702 0.539049 -5.28458 0
M  V30 750 C 59.6092 -0.356942 -6.11058 0
M  V30 751 N 58.7462 0.446603 -7.00678 0
M  V30 752 H 63.5862 -1.05632 -2.7865 0
M  V30 753 H 61.1232 -0.532413 -1.37127 0
M  V30 754 H 63.0812 1.09129 -4.02675 0
M  V30 755 H 61.7112 1.37392 -2.92102 0
M  V30 756 H 60.7632 -0.920276 -3.691 0
M  V30 757 H 62.0752 -0.992661 -4.88823 0
M  V30 758 H 61.2292 1.102 -5.96608 0
M  V30 759 H 59.9682 1.26157 -4.71101 0
M  V30 760 H 58.9732 -0.932047 -5.41842 0
M  V30 761 H 60.1982 -1.07755 -6.70497 0
M  V30 762 H 58.1442 1.15282 -6.45791 0
M  V30 763 H 58.0612 -0.184048 -7.55776 0
M  V30 764 H 59.3292 0.992352 -7.73158 0
M  V30 765 N 63.5583 1.46682 -0.576371 0
M  V30 766 C 64.5053 2.30241 0.160499 0
M  V30 767 C 65.4753 1.40233 0.890162 0
M  V30 768 O 66.6603 1.69186 0.882084 0
M  V30 769 C 63.8003 3.24578 1.1723 0
M  V30 770 C 62.9133 4.29684 0.446736 0
M  V30 771 C 62.0483 5.11154 1.44551 0
M  V30 772 C 61.0873 6.08015 0.70599 0
M  V30 773 N 60.2243 6.82376 1.65251 0
M  V30 774 H 65.0643 2.92727 -0.558127 0
M  V30 775 H 62.6013 1.44272 -0.287056 0
M  V30 776 H 64.5593 3.77711 1.77172 0
M  V30 777 H 63.1893 2.63916 1.85872 0
M  V30 778 H 62.2413 3.79458 -0.267594 0
M  V30 779 H 63.5533 4.98626 -0.131686 0
M  V30 780 H 62.7073 5.68533 2.11791 0
M  V30 781 H 61.4463 4.42158 2.05786 0
M  V30 782 H 60.4513 5.49796 0.0197725 0
M  V30 783 H 61.6763 6.79028 0.09912 0
M  V30 784 H 59.6223 6.16094 2.25308 0
M  V30 785 H 59.5393 7.47556 1.12673 0
M  V30 786 H 60.8073 7.44316 2.31546 0
M  V30 787 N 65.0364 0.313813 1.54444 0
M  V30 788 C 65.9864 -0.571898 2.20711 0
M  V30 789 C 66.9704 -1.08913 1.18435 0
M  V30 790 O 68.1624 -1.02777 1.44104 0
M  V30 791 C 65.2914 -1.7371 2.96108 0
M  V30 792 C 64.3774 -1.23522 4.05713 0
M  V30 793 N 64.7684 -0.452288 5.03774 0
M  V30 794 C 63.0664 -1.51482 4.19487 0
M  V30 795 C 63.7674 -0.183438 5.81411 0
M  V30 796 N 62.7434 -0.766845 5.38164 0
M  V30 797 H 66.5454 0.0336802 2.93881 0
M  V30 798 H 64.0594 0.119192 1.61962 0
M  V30 799 H 66.0564 -2.38329 3.4206 0
M  V30 800 H 64.7164 -2.34625 2.24458 0
M  V30 801 H 65.7274 -0.0960131 5.17811 0
M  V30 802 H 62.4044 -2.13053 3.59047 0
M  V30 803 H 63.7944 0.446216 6.70417 0
M  V30 804 N 66.5145 -1.57545 0.0417849 0
M  V30 805 C 67.4625 -2.12148 -0.953723 0
M  V30 806 C 68.4565 -1.05104 -1.32852 0
M  V30 807 O 69.6625 -1.23524 -1.30927 0
M  V30 808 H 66.0375 -0.677957 -0.325389 0
M  V30 809 H 68.0085 -2.94707 -0.467991 0
M  V30 810 C 66.7575 -2.6739 -2.22257 0
M  V30 811 H 66.0805 -3.49413 -1.94295 0
M  V30 812 H 67.5205 -3.09227 -2.90094 0
M  V30 813 C 65.9795 -1.60723 -2.96091 0
M  V30 814 O 66.5095 -1.01449 -3.88679 0
M  V30 815 N 64.7155 -1.32466 -2.58652 0
M  V30 816 H 64.2625 -1.80856 -1.83437 0
M  V30 817 H 64.2205 -0.61325 -3.08361 0
M  V30 818 N 67.9926 0.231505 -1.5589 0
M  V30 819 C 68.9226 1.29022 -1.94617 0
M  V30 820 C 69.9036 1.4941 -0.813067 0
M  V30 821 O 71.0886 1.6176 -1.07459 0
M  V30 822 C 68.2186 2.64199 -2.25424 0
M  V30 823 C 67.1726 2.58484 -3.41131 0
M  V30 824 C 66.4986 3.97599 -3.57518 0
M  V30 825 C 67.7986 2.1413 -4.76388 0
M  V30 826 H 69.4926 0.968563 -2.83301 0
M  V30 827 H 67.0386 0.464479 -1.36303 0
M  V30 828 H 68.9916 3.38413 -2.51107 0
M  V30 829 H 67.7156 2.98032 -1.33583 0
M  V30 830 H 66.3746 1.86727 -3.15481 0
M  V30 831 H 66.0226 4.28723 -2.6307 0
M  V30 832 H 65.7226 3.94659 -4.35337 0
M  V30 833 H 67.2466 4.7349 -3.85538 0
M  V30 834 H 68.6606 2.78083 -5.01341 0
M  V30 835 H 67.0576 2.2227 -5.57419 0
M  V30 836 H 68.1276 1.09331 -4.72414 0
M  V30 837 N 69.4707 1.49531 0.497807 0
M  V30 838 C 70.4187 1.66926 1.61983 0
M  V30 839 C 71.4127 0.535167 1.60724 0
M  V30 840 O 72.6187 0.714896 1.65195 0
M  V30 841 H 68.9937 0.526415 0.537021 0
M  V30 842 H 70.9647 2.61098 1.44465 0
M  V30 843 C 69.7137 1.75602 3.00099 0
M  V30 844 H 69.0367 2.62244 3.01775 0
M  V30 845 H 70.4767 1.91807 3.78135 0
M  V30 846 C 68.9357 0.501543 3.33146 0
M  V30 847 O 69.4657 -0.371342 3.9998 0
M  V30 848 N 67.6717 0.363531 2.88317 0
M  V30 849 H 67.2187 1.07485 2.34104 0
M  V30 850 H 67.1767 -0.474728 3.10795 0
M  V30 851 N 70.9488 -0.749086 1.3866 0
M  V30 852 C 72.3598 -1.32664 1.31366 0
M  V30 853 C 72.7108 -1.96179 -0.028484 0
M  V30 854 O 71.8358 -1.9537 -0.93057 0
M  V30 855 C 72.4308 -2.41219 2.37905 0
M  V30 856 C 70.9898 -2.94684 2.34176 0
M  V30 857 C 70.1368 -1.68108 2.20533 0
M  V30 858 H 73.0878 -0.547628 1.48952 0
M  V30 859 H 73.1088 -3.21268 2.0388 0
M  V30 860 H 72.6208 -1.94962 3.35576 0
M  V30 861 H 70.7218 -3.45258 1.401 0
M  V30 862 H 70.8348 -3.48757 3.2849 0
M  V30 863 H 69.1988 -1.91907 1.67463 0
M  V30 864 H 69.9818 -1.23923 3.20153 0
M  V30 865 N 72.4269 -1.23603 -0.977757 0
M  V30 866 C 73.3899 -1.02069 -2.05218 0
M  V30 867 C 74.3899 0.0184305 -1.60789 0
M  V30 868 O 75.5799 -0.221569 -1.72785 0
M  V30 869 C 72.7119 -0.544926 -3.36517 0
M  V30 870 H 73.9049 -1.9742 -2.25755 0
M  V30 871 H 71.4579 -1.05684 -1.15155 0
M  V30 872 H 72.1929 0.412241 -3.21669 0
M  V30 873 H 71.9779 -1.2948 -3.70105 0
M  V30 874 H 73.4679 -0.414985 -4.15533 0
M  V30 875 N 73.905 1.17692 -1.04816 0
M  V30 876 C 75.321 1.39863 -0.768794 0
M  V30 877 C 75.521 1.91118 0.638451 0
M  V30 878 O 74.577 2.10036 1.40146 0
M  V30 879 C 75.89 2.39274 -1.82122 0
M  V30 880 C 77.438 2.52987 -1.843 0
M  V30 881 C 77.913 3.55669 -2.88555 0
M  V30 882 N 79.404 3.63183 -2.87493 0
M  V30 883 C 80.139 4.42381 -3.64811 0
M  V30 884 N 79.635 5.25125 -4.51903 0
M  V30 885 N 81.428 4.37217 -3.53267 0
M  V30 886 H 73.579 0.82752 -1.95617 0
M  V30 887 H 75.842 0.426123 -0.846831 0
M  V30 888 H 75.548 2.08678 -2.83102 0
M  V30 889 H 75.422 3.38725 -1.65967 0
M  V30 890 H 77.809 2.82896 -0.839869 0
M  V30 891 H 77.89 1.53623 -2.04532 0
M  V30 892 H 77.534 3.26499 -3.89051 0
M  V30 893 H 77.464 4.54728 -2.65575 0
M  V30 894 H 79.955 3.04103 -2.24343 0
M  V30 895 H 80.268 5.82728 -5.07591 0
M  V30 896 H 78.613 5.24519 -4.55966 0
M  V30 897 H 81.804 3.71626 -2.84625 0
M  V30 898 H 81.977 4.98696 -4.13771 0
M  V30 899 N 75.3831 0.828654 1.34056 0
M  V30 900 C 76.3301 0.252567 2.29414 0
M  V30 901 C 77.3001 -0.62588 1.53857 0
M  V30 902 O 78.4851 -0.566312 1.82202 0
M  V30 903 C 75.6251 -0.574831 3.40279 0
M  V30 904 C 74.7381 0.326499 4.30764 0
M  V30 905 C 73.8731 -0.511016 5.28736 0
M  V30 906 C 72.9121 0.389342 6.1086 0
M  V30 907 N 72.0491 -0.409439 7.00905 0
M  V30 908 H 76.8891 1.07108 2.78086 0
M  V30 909 H 74.4261 0.539677 1.36843 0
M  V30 910 H 76.3841 -1.06992 4.03248 0
M  V30 911 H 75.0141 -1.35841 2.92826 0
M  V30 912 H 74.0661 0.939837 3.68607 0
M  V30 913 H 75.3781 1.01857 4.88289 0
M  V30 914 H 74.5321 -1.07035 5.97184 0
M  V30 915 H 73.2711 -1.23657 4.71763 0
M  V30 916 H 72.2761 0.960769 5.4134 0
M  V30 917 H 73.5011 1.1131 6.69916 0
M  V30 918 H 71.4471 -1.11856 6.46393 0
M  V30 919 H 71.3641 0.224126 7.55668 0
M  V30 920 H 72.6321 -0.951336 7.73673 0
M  V30 921 N 76.8612 -1.46375 0.584142 0
M  V30 922 C 78.0912 -2.06461 0.0758195 0
M  V30 923 C 78.4992 -1.43322 -1.23512 0
M  V30 924 O 77.8422 -0.533216 -1.75791 0
M  V30 925 C 77.9042 -3.59131 -0.162773 0
M  V30 926 C 77.5682 -4.4447 1.06279 0
M  V30 927 C 78.5652 -4.80918 1.97519 0
M  V30 928 C 76.2502 -4.85584 1.28504 0
M  V30 929 C 78.2442 -5.57309 3.09331 0
M  V30 930 C 75.9312 -5.61734 2.4062 0
M  V30 931 C 76.9292 -5.9751 3.30863 0
M  V30 932 O 76.6172 -6.72121 4.41032 0
M  V30 933 H 76.3492 -0.673745 0.0551725 0
M  V30 934 H 78.9032 -1.88969 0.804984 0
M  V30 935 H 77.1332 -3.74936 -0.946565 0
M  V30 936 H 78.8222 -4.0114 -0.619782 0
M  V30 937 H 79.5882 -4.49732 1.81565 0
M  V30 938 H 75.4672 -4.57187 0.591702 0
M  V30 939 H 79.0112 -5.85152 3.79793 0
M  V30 940 H 74.9082 -5.92334 2.56537 0
M  V30 941 H 75.6762 -6.90547 4.39417 0
M  V30 942 N 78.3393 -0.321999 -1.54275 0
M  V30 943 C 79.5863 0.281044 -2.0054 0
M  V30 944 C 79.9143 1.52265 -1.21019 0
M  V30 945 O 79.1693 1.93687 -0.279982 0
M  V30 946 C 79.4683 0.661769 -3.5122 0
M  V30 947 C 79.1343 -0.480482 -4.48333 0
M  V30 948 C 77.7963 -0.794005 -4.74604 0
M  V30 949 C 80.1483 -1.24783 -5.06042 0
M  V30 950 C 77.4763 -1.87763 -5.55844 0
M  V30 951 C 79.8283 -2.32153 -5.88462 0
M  V30 952 C 78.4923 -2.64089 -6.13036 0
M  V30 953 H 77.7623 0.102841 -0.733829 0
M  V30 954 H 80.4093 -0.445453 -1.86247 0
M  V30 955 H 78.7143 1.46867 -3.63232 0
M  V30 956 H 80.4113 1.13989 -3.84457 0
M  V30 957 H 77.0013 -0.226039 -4.28004 0
M  V30 958 H 81.1853 -1.01887 -4.85729 0
M  V30 959 H 76.4413 -2.12954 -5.73115 0
M  V30 960 H 80.6153 -2.92057 -6.32199 0
M  V30 961 H 78.2423 -3.48185 -6.75775 0
M  V30 962 N 79.8174 1.5752 -0.0501392 0
M  V30 963 C 81.2284 1.80271 0.485705 0
M  V30 964 C 81.5794 0.96228 1.70981 0
M  V30 965 O 80.7044 0.178578 2.15662 0
M  V30 966 C 81.2994 3.26957 0.887938 0
M  V30 967 C 79.8584 3.5063 1.36877 0
M  V30 968 C 79.0054 2.75165 0.343468 0
M  V30 969 H 81.9564 1.56281 -0.276028 0
M  V30 970 H 81.9774 3.37821 1.75093 0
M  V30 971 H 81.4894 3.881 -0.0031809 0
M  V30 972 H 79.5904 2.94766 2.27911 0
M  V30 973 H 79.7034 4.59343 1.36164 0
M  V30 974 H 78.0674 2.4127 0.816128 0
M  V30 975 H 78.8504 3.39034 -0.539548 0
M  V30 976 N 81.2955 -0.223234 1.56011 0
M  V30 977 C 82.2275 -1.30006 1.88762 0
M  V30 978 C 83.2405 -1.43129 0.775746 0
M  V30 979 O 84.4295 -1.44057 1.05403 0
M  V30 980 C 81.5295 -2.67589 2.07965 0
M  V30 981 C 80.7025 -2.76434 3.38973 0
M  V30 982 C 79.7615 -3.95019 3.47629 0
M  V30 983 O 78.7875 -3.83436 4.20672 0
M  V30 984 N 79.9895 -5.09249 2.78649 0
M  V30 985 H 82.7545 -1.02238 2.81722 0
M  V30 986 H 80.3155 -0.413278 1.56536 0
M  V30 987 H 82.3075 -3.45297 2.11073 0
M  V30 988 H 80.8775 -2.87964 1.21638 0
M  V30 989 H 80.0975 -1.85216 3.47978 0
M  V30 990 H 81.3855 -2.79313 4.25278 0
M  V30 991 H 80.7835 -5.21556 2.19081 0
M  V30 992 H 79.3405 -5.85007 2.8742 0
M  V30 993 N 82.7736 -1.49793 -0.48987 0
M  V30 994 C 84.0196 -1.61049 -1.24236 0
M  V30 995 C 84.3746 -0.298412 -1.90072 0
M  V30 996 O 83.6676 0.702262 -1.78266 0
M  V30 997 C 83.8616 -2.71488 -2.32441 0
M  V30 998 C 83.6906 -4.13308 -1.77218 0
M  V30 999 C 82.4606 -4.79955 -1.58023 0
M  V30 1000 C 84.6586 -4.98176 -1.27772 0
M  V30 1001 N 82.6406 -6.06052 -0.978465 0
M  V30 1002 C 84.0116 -6.14843 -0.798 0
M  V30 1003 C 86.0666 -4.84091 -1.16449 0
M  V30 1004 C 84.7696 -7.18975 -0.216245 0
M  V30 1005 C 86.7956 -5.88382 -0.596698 0
M  V30 1006 C 86.1576 -7.04285 -0.127262 0
M  V30 1007 H 82.2566 -0.643611 -0.444172 0
M  V30 1008 H 84.8406 -1.86842 -0.54754 0
M  V30 1009 H 83.0116 -2.47449 -2.99372 0
M  V30 1010 H 84.7436 -2.72205 -2.99477 0
M  V30 1011 H 81.4986 -4.36936 -1.82712 0
M  V30 1012 H 81.9226 -6.73407 -0.696534 0
M  V30 1013 H 86.5646 -3.94786 -1.5134 0
M  V30 1014 H 84.2826 -8.0797 0.144903 0
M  V30 1015 H 87.8686 -5.79545 -0.511716 0
M  V30 1016 H 86.7486 -7.83606 0.30523 0
M  V30 1017 N 84.2517 0.741722 -1.39055 0
M  V30 1018 C 85.1617 1.88621 -1.39496 0
M  V30 1019 C 86.1777 1.71557 -0.290578 0
M  V30 1020 O 87.3537 1.94275 -0.530954 0
M  V30 1021 C 84.4187 3.24134 -1.23037 0
M  V30 1022 C 83.4797 3.5364 -2.43387 0
M  V30 1023 C 82.7127 4.82687 -2.27703 0
M  V30 1024 O 82.9357 5.55922 -1.27696 0
M  V30 1025 O 81.8697 5.1194 -3.16545 0
M  V30 1026 H 85.6957 1.91203 -2.35956 0
M  V30 1027 H 83.2807 0.888625 -1.20099 0
M  V30 1028 H 85.1627 4.0513 -1.15964 0
M  V30 1029 H 83.8377 3.22337 -0.296691 0
M  V30 1030 H 82.7447 2.72758 -2.56035 0
M  V30 1031 H 84.0777 3.60209 -3.35425 0
M  V30 1032 N 85.7298 1.2412 0.971189 0
M  V30 1033 C 86.6928 1.03156 2.04674 0
M  V30 1034 C 87.6928 -0.00990322 1.60797 0
M  V30 1035 O 88.8828 0.230729 1.72665 0
M  V30 1036 C 86.0148 0.562765 3.36223 0
M  V30 1037 H 87.2078 1.98614 2.24705 0
M  V30 1038 H 84.7608 1.06293 1.14593 0
M  V30 1039 H 85.4958 -0.395176 3.21883 0
M  V30 1040 H 85.2808 1.31441 3.69413 0
M  V30 1041 H 86.7708 0.437015 4.15307 0
M  V30 1042 N 87.2079 -1.17134 1.05439 0
M  V30 1043 C 88.6189 -1.69084 0.791676 0
M  V30 1044 C 88.9699 -1.83822 -0.685839 0
M  V30 1045 O 88.0949 -1.52757 -1.53278 0
M  V30 1046 C 88.6899 -3.07119 1.4305 0
M  V30 1047 C 87.2489 -3.56225 1.21577 0
M  V30 1048 C 86.3959 -2.32421 1.51247 0
M  V30 1049 H 89.3469 -1.01617 1.219 0
M  V30 1050 H 89.3679 -3.71087 0.84112 0
M  V30 1051 H 88.8799 -2.9636 2.50584 0
M  V30 1052 H 86.9809 -3.72257 0.159787 0
M  V30 1053 H 87.0939 -4.38837 1.92246 0
M  V30 1054 H 85.4579 -2.3701 0.932653 0
M  V30 1055 H 86.2409 -2.24268 2.5992 0
M  V30 1056 N 88.686 -0.835752 -1.33615 0
M  V30 1057 C 89.914 -0.443344 -2.02094 0
M  V30 1058 C 90.329 0.954522 -1.62894 0
M  V30 1059 O 89.686 1.61982 -0.840723 0
M  V30 1060 C 89.737 -0.550775 -3.5728 0
M  V30 1061 O 89.458 -1.89356 -3.95065 0
M  V30 1062 C 90.959 -0.154919 -4.43029 0
M  V30 1063 H 88.179 -0.176359 -0.647409 0
M  V30 1064 H 90.723 -1.12746 -1.70612 0
M  V30 1065 H 88.878 0.0853997 -3.87306 0
M  V30 1066 H 89.292 -1.87687 -4.89769 0
M  V30 1067 H 90.766 -0.281144 -5.51284 0
M  V30 1068 H 91.243 0.902863 -4.2982 0
M  V30 1069 H 91.849 -0.765404 -4.18356 0
M  V30 1070 N 90.1641 1.46063 -0.591896 0
M  V30 1071 C 91.0941 2.33172 0.123673 0
M  V30 1072 C 92.0751 1.45897 0.87453 0
M  V30 1073 O 93.2601 1.74698 0.848181 0
M  V30 1074 C 90.3901 3.28336 1.13194 0
M  V30 1075 C 89.3441 4.25124 0.495324 0
M  V30 1076 C 88.6701 5.09863 1.61071 0
M  V30 1077 C 89.9701 5.19143 -0.573425 0
M  V30 1078 H 91.6641 2.93252 -0.603646 0
M  V30 1079 H 89.2101 1.41014 -0.291741 0
M  V30 1080 H 91.1631 3.88137 1.64097 0
M  V30 1081 H 89.8871 2.66383 1.88965 0
M  V30 1082 H 88.5461 3.66599 0.00729452 0
M  V30 1083 H 88.1941 4.44288 2.35832 0
M  V30 1084 H 87.8941 5.75417 1.19035 0
M  V30 1085 H 89.4181 5.72529 2.12233 0
M  V30 1086 H 90.8321 5.73106 -0.1491 0
M  V30 1087 H 89.2291 5.93089 -0.914636 0
M  V30 1088 H 90.2991 4.62519 -1.45617 0
M  V30 1089 N 91.6422 0.330177 1.54103 0
M  V30 1090 C 92.8882 -0.270806 2.00984 0
M  V30 1091 C 93.2212 -1.51265 1.21789 0
M  V30 1092 O 92.4962 -1.92142 0.301927 0
M  V30 1093 C 92.7792 -0.598339 3.55094 0
M  V30 1094 C 92.6322 0.654674 4.4501 0
M  V30 1095 C 93.9512 -1.41334 4.16789 0
M  V30 1096 H 91.0702 -0.0969531 0.730595 0
M  V30 1097 H 93.7122 0.448066 1.84641 0
M  V30 1098 H 91.8622 -1.21078 3.69151 0
M  V30 1099 H 93.5342 1.29285 4.42813 0
M  V30 1100 H 91.7772 1.28224 4.14416 0
M  V30 1101 H 92.4482 0.380944 5.50684 0
M  V30 1102 H 94.9242 -0.895597 4.06347 0
M  V30 1103 H 93.8002 -1.61127 5.24718 0
M  V30 1104 H 94.0612 -2.41146 3.70541 0
M  V30 1105 N 93.1203 -1.57491 0.0584922 0
M  V30 1106 C 94.3973 -1.84346 -0.653918 0
M  V30 1107 C 94.7773 -0.948355 -1.88599 0
M  V30 1108 O 94.1253 -0.0112403 -2.28497 0
M  V30 1109 C 94.3353 -3.34239 -1.00425 0
M  V30 1110 C 95.6833 -4.01431 -1.38342 0
M  V30 1111 O 96.7073 -3.38907 -1.09637 0
M  V30 1112 O 95.5663 -5.11683 -1.91943 0
M  V30 1113 H 92.6603 -0.761112 -0.323478 0
M  V30 1114 H 95.2063 -1.6947 0.0884125 0
M  V30 1115 H 93.9783 -3.91089 -0.128625 0
M  V30 1116 H 93.6013 -3.54329 -1.80378 0
M  V30 1117 N 94.5984 0.214957 -1.56127 0
M  V30 1118 C 95.5084 1.28727 -1.96129 0
M  V30 1119 C 96.5244 1.50916 -0.866044 0
M  V30 1120 O 97.7004 1.63918 -1.17016 0
M  V30 1121 C 94.7654 2.61569 -2.27558 0
M  V30 1122 C 93.8264 2.47625 -3.50685 0
M  V30 1123 C 93.0594 3.74132 -3.80606 0
M  V30 1124 O 93.2824 4.77438 -3.12104 0
M  V30 1125 O 92.2164 3.70849 -4.74083 0
M  V30 1126 H 96.0424 0.977855 -2.87527 0
M  V30 1127 H 93.6274 0.418358 -1.43423 0
M  V30 1128 H 95.5094 3.40012 -2.48938 0
M  V30 1129 H 94.1844 2.92178 -1.39332 0
M  V30 1130 H 93.0914 1.67361 -3.34576 0
M  V30 1131 H 94.4244 2.21954 -4.39315 0
M  V30 1132 N 96.0765 1.50051 0.48192 0
M  V30 1133 C 97.0085 1.64263 1.59844 0
M  V30 1134 C 98.0215 0.52451 1.54119 0
M  V30 1135 O 99.2105 0.797293 1.59704 0
M  V30 1136 C 96.3105 1.60102 2.98698 0
M  V30 1137 C 95.4835 2.87767 3.29407 0
M  V30 1138 C 94.5425 2.76397 4.47762 0
M  V30 1139 O 93.5685 3.50348 4.48603 0
M  V30 1140 N 94.7705 1.89222 5.48794 0
M  V30 1141 H 97.5355 2.60566 1.48073 0
M  V30 1142 H 95.0965 1.47379 0.670149 0
M  V30 1143 H 97.0885 1.50123 3.75826 0
M  V30 1144 H 95.6585 0.715798 3.04294 0
M  V30 1145 H 94.8785 3.11954 2.40994 0
M  V30 1146 H 96.1665 3.72365 3.4673 0
M  V30 1147 H 95.5645 1.28434 5.50928 0
M  V30 1148 H 94.1215 1.85154 6.24949 0
M  V30 1149 N 97.5546 -0.734337 1.39446 0
M  V30 1150 C 98.9656 -1.31264 1.32766 0
M  V30 1151 C 99.3166 -1.96198 -0.00767497 0
M  V30 1152 O 98.4416 -1.96346 -0.909796 0
M  V30 1153 C 99.0366 -2.38682 2.4045 0
M  V30 1154 C 97.5956 -2.92184 2.37288 0
M  V30 1155 C 96.7426 -1.6576 2.22304 0
M  V30 1156 H 99.6936 -0.531799 1.49525 0
M  V30 1157 H 99.7146 -3.19087 2.07276 0
M  V30 1158 H 99.2266 -1.91392 3.37625 0
M  V30 1159 H 97.3276 -3.43752 1.43754 0
M  V30 1160 H 97.4406 -3.45253 3.3217 0
M  V30 1161 H 95.8046 -1.9012 1.69489 0
M  V30 1162 H 96.5876 -1.20521 3.21449 0
M  V30 1163 N 99.0327 -1.24633 -0.964593 0
M  V30 1164 C 99.9627 -1.06611 -2.07741 0
M  V30 1165 C 100.944 0.0218666 -1.70086 0
M  V30 1166 O 102.129 -0.145793 -1.93652 0
M  V30 1167 C 99.2587 -0.673444 -3.40708 0
M  V30 1168 C 98.2127 -1.71054 -3.92332 0
M  V30 1169 C 97.5387 -1.17285 -5.21678 0
M  V30 1170 C 98.8387 -3.10718 -4.19824 0
M  V30 1171 H 100.533 -1.99693 -2.23076 0
M  V30 1172 H 98.0787 -0.96152 -1.07195 0
M  V30 1173 H 100.032 -0.534345 -4.17998 0
M  V30 1174 H 98.7557 0.293073 -3.25282 0
M  V30 1175 H 97.4147 -1.83791 -3.17201 0
M  V30 1176 H 97.0627 -0.196847 -5.02615 0
M  V30 1177 H 96.7627 -1.86592 -5.57187 0
M  V30 1178 H 98.2867 -1.04593 -6.01575 0
M  V30 1179 H 99.7007 -3.01192 -4.87808 0
M  V30 1180 H 98.0977 -3.77406 -4.66567 0
M  V30 1181 H 99.1677 -3.58524 -3.26479 0
M  V30 1182 N 100.511 1.16574 -1.06058 0
M  V30 1183 C 101.421 2.2452 -0.680282 0
M  V30 1184 C 102.437 1.71348 0.302604 0
M  V30 1185 O 103.613 2.00822 0.152513 0
M  V30 1186 C 100.678 3.46629 -0.0700315 0
M  V30 1187 C 99.7388 4.14849 -1.10448 0
M  V30 1188 C 98.9718 5.31129 -0.523256 0
M  V30 1189 O 99.1948 5.66514 0.664709 0
M  V30 1190 O 98.1288 5.88526 -1.26179 0
M  V30 1191 H 101.955 2.59355 -1.58015 0
M  V30 1192 H 99.5398 1.24043 -0.832694 0
M  V30 1193 H 101.422 4.20543 0.268667 0
M  V30 1194 H 100.097 3.13573 0.803353 0
M  V30 1195 H 99.0038 3.42916 -1.49532 0
M  V30 1196 H 100.337 4.51954 -1.94931 0
M  V30 1197 N 101.989 0.842826 1.3317 0
M  V30 1198 C 102.937 0.267495 2.31057 0
M  V30 1199 C 103.931 -0.602682 1.58316 0
M  V30 1200 O 105.137 -0.491803 1.73151 0
M  V30 1201 H 101.512 0.0677813 0.748939 0
M  V30 1202 H 103.483 1.10754 2.77085 0
M  V30 1203 C 102.232 -0.539331 3.43492 0
M  V30 1204 H 101.555 0.12095 3.99617 0
M  V30 1205 H 102.995 -0.90767 4.14171 0
M  V30 1206 C 101.454 -1.71981 2.89697 0
M  V30 1207 O 101.984 -2.81862 2.86211 0
M  V30 1208 N 100.19 -1.54299 2.46252 0
M  V30 1209 H 99.7369 -0.649143 2.49287 0
M  V30 1210 H 99.6949 -2.33431 2.10612 0
M  V30 1211 N 103.467 -1.45747 0.599634 0
M  V30 1212 C 104.697 -2.06369 0.0977132 0
M  V30 1213 C 105.105 -1.44624 -1.21985 0
M  V30 1214 O 104.448 -0.551831 -1.75216 0
M  V30 1215 C 104.51 -3.59284 -0.124673 0
M  V30 1216 C 104.174 -4.43318 1.10987 0
M  V30 1217 C 105.171 -4.78796 2.02609 0
M  V30 1218 C 102.856 -4.84194 1.33647 0
M  V30 1219 C 104.85 -5.53997 3.15224 0
M  V30 1220 C 102.537 -5.5915 2.46565 0
M  V30 1221 C 103.535 -5.93968 3.37182 0
M  V30 1222 O 103.223 -6.67405 4.48136 0
M  V30 1223 H 102.955 -0.673122 0.0623153 0
M  V30 1224 H 105.509 -1.88104 0.824981 0
M  V30 1225 H 103.739 -3.75919 -0.906745 0
M  V30 1226 H 105.428 -4.01775 -0.577201 0
M  V30 1227 H 106.194 -4.47781 1.86325 0
M  V30 1228 H 102.073 -4.56534 0.64016 0
M  V30 1229 H 105.617 -5.81091 3.85978 0
M  V30 1230 H 101.514 -5.89579 2.62805 0
M  V30 1231 H 102.282 -6.85847 4.46717 0
M  V30 1232 N 104.945 -0.338344 -1.53925 0
M  V30 1233 C 105.875 0.51328 -2.27789 0
M  V30 1234 C 106.856 1.107 -1.29149 0
M  V30 1235 O 108.041 1.12937 -1.57984 0
M  V30 1236 C 105.171 1.66697 -3.04679 0
M  V30 1237 C 104.125 1.20183 -4.1078 0
M  V30 1238 C 103.451 2.44363 -4.75595 0
M  V30 1239 C 104.751 0.30605 -5.21403 0
M  V30 1240 H 106.445 -0.102883 -2.99223 0
M  V30 1241 H 103.991 -0.0509219 -1.4391 0
M  V30 1242 H 105.944 2.26915 -3.55088 0
M  V30 1243 H 104.668 2.30995 -2.30887 0
M  V30 1244 H 103.327 0.622499 -3.61276 0
M  V30 1245 H 102.975 3.07057 -3.98403 0
M  V30 1246 H 102.675 2.13925 -5.47275 0
M  V30 1247 H 104.199 3.05317 -5.28786 0
M  V30 1248 H 105.613 0.814929 -5.67478 0
M  V30 1249 H 104.01 0.0937929 -6.00027 0
M  V30 1250 H 105.08 -0.65921 -4.80398 0
M  V30 1251 N 106.423 1.57458 -0.0668435 0
M  V30 1252 C 107.7 1.8469 0.644132 0
M  V30 1253 C 108.08 0.958343 1.88093 0
M  V30 1254 O 107.428 0.0233579 2.28488 0
M  V30 1255 C 107.638 3.34767 0.986509 0
M  V30 1256 C 108.986 4.02159 1.36212 0
M  V30 1257 O 110.01 3.39484 1.07839 0
M  V30 1258 O 108.869 5.12694 1.89227 0
M  V30 1259 H 105.963 0.762816 0.319437 0
M  V30 1260 H 108.509 1.6942 -0.0973986 0
M  V30 1261 H 107.281 3.91151 0.107883 0
M  V30 1262 H 106.904 3.55281 1.78497 0
M  V30 1263 N 107.901 -0.206675 1.56239 0
M  V30 1264 C 108.834 -1.28383 1.88661 0
M  V30 1265 C 109.812 -1.44504 0.745481 0
M  V30 1266 O 110.996 -1.60079 0.995336 0
M  V30 1267 C 108.123 -2.65211 2.10667 0
M  V30 1268 C 107.169 -2.66025 3.33366 0
M  V30 1269 S 108.002 -2.18609 4.88846 0
M  V30 1270 C 109.158 -3.57283 5.13906 0
M  V30 1271 H 109.391 -1.00691 2.7973 0
M  V30 1272 H 106.924 -0.409627 1.48867 0
M  V30 1273 H 108.882 -3.43979 2.24029 0
M  V30 1274 H 107.543 -2.90121 1.20369 0
M  V30 1275 H 106.736 -3.66607 3.45855 0
M  V30 1276 H 106.338 -1.95331 3.18938 0
M  V30 1277 H 108.63 -4.53074 5.03717 0
M  V30 1278 H 109.573 -3.49699 6.15724 0
M  V30 1279 H 109.981 -3.51659 4.41583 0
M  V30 1280 N 109.379 -1.50304 -0.473955 0
M  V30 1281 C 110.289 -1.7174 -1.5982 0
M  V30 1282 C 111.305 -0.600457 -1.63311 0
M  V30 1283 O 112.481 -0.878441 -1.81233 0
M  V30 1284 C 109.546 -1.80427 -2.96052 0
M  V30 1285 C 108.607 -3.04148 -3.02972 0
M  V30 1286 C 107.84 -3.12411 -4.32706 0
M  V30 1287 O 108.063 -2.27542 -5.23049 0
M  V30 1288 O 106.997 -4.05113 -4.45159 0
M  V30 1289 H 110.823 -2.67035 -1.44657 0
M  V30 1290 H 108.408 -1.34366 -0.653148 0
M  V30 1291 H 110.29 -1.88338 -3.7697 0
M  V30 1292 H 108.965 -0.883156 -3.11419 0
M  V30 1293 H 107.872 -3.0174 -2.21142 0
M  V30 1294 H 109.205 -3.95829 -2.92541 0
M  V30 1295 N 110.857 0.726932 -1.39834 0
M  V30 1296 C 112.087 1.51393 -1.40583 0
M  V30 1297 C 112.495 1.892 -0.000740625 0
M  V30 1298 O 111.838 1.55189 0.982951 0
M  V30 1299 C 111.9 2.82588 -2.22226 0
M  V30 1300 C 111.564 2.67169 -3.70769 0
M  V30 1301 C 112.561 2.3518 -4.63666 0
M  V30 1302 C 110.246 2.83788 -4.14451 0
M  V30 1303 C 112.24 2.20002 -5.98229 0
M  V30 1304 C 109.927 2.68229 -5.49087 0
M  V30 1305 C 110.925 2.36382 -6.4079 0
M  V30 1306 O 110.613 2.2093 -7.72946 0
M  V30 1307 H 110.345 0.474168 -0.48181 0
M  V30 1308 H 112.899 0.905247 -1.84376 0
M  V30 1309 H 111.129 3.45746 -1.73195 0
M  V30 1310 H 112.818 3.44247 -2.15055 0
M  V30 1311 H 113.584 2.21984 -4.31217 0
M  V30 1312 H 109.463 3.07566 -3.43401 0
M  V30 1313 H 113.007 1.95067 -6.69772 0
M  V30 1314 H 108.904 2.81006 -5.81125 0
M  V30 1315 H 109.672 2.35937 -7.83757 0
M  V30 1316 N 112.336 1.25143 0.95797 0
M  V30 1317 C 113.583 1.09692 1.70217 0
M  V30 1318 C 113.911 -0.362654 1.91089 0
M  V30 1319 O 113.166 -1.28386 1.47701 0
M  V30 1320 C 113.465 1.79272 3.09187 0
M  V30 1321 C 113.131 3.29196 3.08125 0
M  V30 1322 C 111.793 3.70096 3.07543 0
M  V30 1323 C 114.145 4.24995 3.0171 0
M  V30 1324 C 111.473 5.05213 2.9829 0
M  V30 1325 C 113.825 5.60132 2.93999 0
M  V30 1326 C 112.489 6.00365 2.9175 0
M  V30 1327 H 111.759 0.401393 0.622868 0
M  V30 1328 H 114.406 1.55372 1.11945 0
M  V30 1329 H 112.711 1.26014 3.70982 0
M  V30 1330 H 114.408 1.64773 3.65583 0
M  V30 1331 H 110.998 2.96651 3.09348 0
M  V30 1332 H 115.182 3.9439 3.01281 0
M  V30 1333 H 110.438 5.35569 2.94916 0
M  V30 1334 H 114.612 6.3406 2.87996 0
M  V30 1335 H 112.239 7.05023 2.84336 0
M  V30 1336 N 113.814 -1.1601 1.06675 0
M  V30 1337 C 115.062 -1.86264 0.784229 0
M  V30 1338 C 115.383 -1.82328 -0.691488 0
M  V30 1339 O 114.653 -1.25947 -1.50047 0
M  V30 1340 H 113.233 -0.689621 0.28711 0
M  V30 1341 H 115.895 -1.40664 1.34906 0
M  V30 1342 H 114.991 -2.91595 1.11259 0
M  V30 1343 N 115.292 -0.849877 -1.32721 0
M  V30 1344 C 116.52 -0.464754 -2.01613 0
M  V30 1345 C 116.935 0.937191 -1.63897 0
M  V30 1346 O 116.292 1.61081 -0.857856 0
M  V30 1347 C 116.343 -0.588638 -3.56675 0
M  V30 1348 O 116.064 -1.93535 -3.93034 0
M  V30 1349 C 117.565 -0.2019 -4.4284 0
M  V30 1350 H 114.785 -0.183215 -0.645502 0
M  V30 1351 H 117.329 -1.1455 -1.69407 0
M  V30 1352 H 115.484 0.0443159 -3.87375 0
M  V30 1353 H 115.898 -1.92871 -4.87751 0
M  V30 1354 H 117.372 -0.339599 -5.50954 0
M  V30 1355 H 117.849 0.857224 -4.30753 0
M  V30 1356 H 118.455 -0.809733 -4.17521 0
M  V30 1357 N 116.77 1.45427 -0.607355 0
M  V30 1358 C 118.019 2.01452 -0.100036 0
M  V30 1359 C 118.332 1.48159 1.27704 0
M  V30 1360 O 119.538 1.96159 1.87707 0
M  V30 1361 C 117.994 3.59672 -0.128158 0
M  V30 1362 C 117.602 4.21962 -1.50507 0
M  V30 1363 C 119.346 4.23262 0.323932 0
M  V30 1364 C 117.253 5.72333 -1.48959 0
M  V30 1365 H 116.183 0.75325 -0.0336299 0
M  V30 1366 H 118.834 1.66901 -0.76265 0
M  V30 1367 H 117.216 3.91411 0.601105 0
M  V30 1368 H 118.39 4.01796 -2.25602 0
M  V30 1369 H 116.705 3.70565 -1.89923 0
M  V30 1370 H 119.302 5.33522 0.354691 0
M  V30 1371 H 119.645 3.93921 1.34656 0
M  V30 1372 H 120.178 3.96239 -0.352056 0
M  V30 1373 H 116.917 6.06373 -2.48981 0
M  V30 1374 H 116.437 5.94691 -0.781214 0
M  V30 1375 H 118.116 6.35525 -1.21313 0
M  V30 1376 N 118.248 0.346503 1.53744 0
M  V30 1377 C 119.496 -0.248612 2.00565 0
M  V30 1378 C 119.817 -1.5083 1.23593 0
M  V30 1379 O 119.087 -1.92858 0.343912 0
M  V30 1380 H 117.667 -0.0948564 0.740953 0
M  V30 1381 H 120.329 0.468341 1.89189 0
M  V30 1382 H 119.425 -0.488994 3.08245 0
M  V30 1383 N 119.726 -1.57421 0.075193 0
M  V30 1384 C 120.975 -1.92794 -0.592731 0
M  V30 1385 C 121.288 -0.957478 -1.70563 0
M  V30 1386 O 122.494 -1.20417 -2.43335 0
M  V30 1387 C 120.95 -3.42495 -1.10569 0
M  V30 1388 C 120.558 -4.47994 -0.0236121 0
M  V30 1389 C 122.302 -3.86864 -1.74748 0
M  V30 1390 C 120.209 -5.88829 -0.550803 0
M  V30 1391 H 119.139 -0.719591 -0.225177 0
M  V30 1392 H 121.79 -1.82902 0.147978 0
M  V30 1393 H 120.172 -3.47471 -1.89947 0
M  V30 1394 H 121.346 -4.54637 0.751099 0
M  V30 1395 H 119.661 -4.13113 0.522159 0
M  V30 1396 H 122.258 -4.8947 -2.15229 0
M  V30 1397 H 122.601 -3.24417 -2.60882 0
M  V30 1398 H 123.134 -3.84504 -1.01986 0
M  V30 1399 H 119.873 -6.54929 0.273457 0
M  V30 1400 H 119.393 -5.85698 -1.29296 0
M  V30 1401 H 121.072 -6.38811 -1.02613 0
M  V30 1402 N 121.204 0.198386 -1.56346 0
M  V30 1403 C 122.452 0.91747 -1.80075 0
M  V30 1404 C 122.773 1.83929 -0.647692 0
M  V30 1405 O 122.043 1.93029 0.334166 0
M  V30 1406 H 120.623 0.341774 -0.664228 0
M  V30 1407 H 123.285 0.204684 -1.93822 0
M  V30 1408 H 122.381 1.51055 -2.7311 0
M  V30 1409 N 122.682 1.50554 0.465978 0
M  V30 1410 C 123.91 1.65563 1.24083 0
M  V30 1411 C 124.325 0.341051 1.85694 0
M  V30 1412 O 123.682 -0.677543 1.69457 0
M  V30 1413 C 123.733 2.75051 2.34583 0
M  V30 1414 O 123.454 4.01413 1.75497 0
M  V30 1415 C 124.955 3.01078 3.25372 0
M  V30 1416 H 122.175 0.55638 0.375077 0
M  V30 1417 H 124.719 1.96807 0.555624 0
M  V30 1418 H 122.874 2.46486 2.9887 0
M  V30 1419 H 123.288 4.62002 2.48303 0
M  V30 1420 H 124.762 3.81339 3.99105 0
M  V30 1421 H 125.239 2.12349 3.84453 0
M  V30 1422 H 125.845 3.31194 2.66816 0
M  V30 1423 N 124.16 -0.719506 1.40217 0
M  V30 1424 C 125.571 -1.29848 1.34151 0
M  V30 1425 C 125.922 -1.96196 0.0131349 0
M  V30 1426 O 125.047 -1.973 -0.88892 0
M  V30 1427 C 125.642 -2.36118 2.42968 0
M  V30 1428 C 124.201 -2.8965 2.40374 0
M  V30 1429 C 123.348 -1.63393 2.24049 0
M  V30 1430 H 126.299 -0.51591 1.5008 0
M  V30 1431 H 126.32 -3.16871 2.10649 0
M  V30 1432 H 125.832 -1.878 3.39636 0
M  V30 1433 H 123.933 -3.42208 1.47392 0
M  V30 1434 H 124.046 -3.4171 3.35814 0
M  V30 1435 H 122.41 -1.88312 1.71495 0
M  V30 1436 H 123.193 -1.17104 3.2271 0
M  V30 1437 N 125.638 -1.25649 -0.95132 0
M  V30 1438 C 126.601 -1.06399 -2.03007 0
M  V30 1439 C 127.601 -0.0156794 -1.60792 0
M  V30 1440 O 128.791 -0.25817 -1.72276 0
M  V30 1441 C 125.923 -0.616184 -3.35285 0
M  V30 1442 H 127.116 -2.02164 -2.21517 0
M  V30 1443 H 124.669 -1.08103 -1.12887 0
M  V30 1444 H 125.404 0.343917 -3.22471 0
M  V30 1445 H 125.189 -1.37301 -3.67275 0
M  V30 1446 H 126.679 -0.503032 -4.14559 0
M  V30 1447 N 127.117 1.15442 -1.07289 0
M  V30 1448 C 128.049 2.19773 -0.650585 0
M  V30 1449 C 129.062 1.60076 0.296572 0
M  V30 1450 O 130.251 1.78293 0.0859905 0
M  V30 1451 C 127.351 3.38838 0.0650398 0
M  V30 1452 C 126.524 4.2808 -0.898141 0
M  V30 1453 C 125.583 5.2574 -0.219926 0
M  V30 1454 O 124.609 5.62654 -0.860773 0
M  V30 1455 N 125.811 5.71205 1.03466 0
M  V30 1456 H 128.576 2.56622 -1.54808 0
M  V30 1457 H 126.137 1.30551 -0.957494 0
M  V30 1458 H 128.129 4.01222 0.529415 0
M  V30 1459 H 126.699 3.00409 0.864466 0
M  V30 1460 H 125.919 3.62804 -1.54165 0
M  V30 1461 H 127.207 4.84577 -1.5512 0
M  V30 1462 H 126.605 5.43325 1.57526 0
M  V30 1463 H 125.162 6.35633 1.44272 0
M  V30 1464 N 128.595 0.856903 1.32268 0
M  V30 1465 C 129.872 0.382583 1.91822 0
M  V30 1466 C 130.252 -1.13407 1.78051 0
M  V30 1467 O 129.6 -1.95673 1.18001 0
M  V30 1468 C 129.81 0.849446 3.38505 0
M  V30 1469 C 131.158 0.867936 4.15634 0
M  V30 1470 O 132.182 0.794232 3.47232 0
M  V30 1471 O 131.041 0.972286 5.37781 0
M  V30 1472 H 128.135 0.112014 0.819379 0
M  V30 1473 H 130.681 0.943952 1.41024 0
M  V30 1474 H 129.453 1.89267 3.42482 0
M  V30 1475 H 129.076 0.265652 3.96712 0
M  V30 1476 N 130.073 -1.45103 0.615059 0
M  V30 1477 C 131.32 -2.02183 0.113179 0
M  V30 1478 C 131.648 -1.48249 -1.25906 0
M  V30 1479 O 130.903 -0.650265 -1.84581 0
M  V30 1480 C 131.202 -3.57386 0.0318797 0
M  V30 1481 C 130.868 -4.30505 1.34077 0
M  V30 1482 C 129.53 -4.50197 1.69929 0
M  V30 1483 C 131.882 -4.72238 2.20546 0
M  V30 1484 C 129.21 -5.08881 2.91988 0
M  V30 1485 C 131.562 -5.32272 3.41861 0
M  V30 1486 C 130.226 -5.50187 3.77956 0
M  V30 1487 H 129.496 -0.739842 0.0414151 0
M  V30 1488 H 132.143 -1.74073 0.798168 0
M  V30 1489 H 130.448 -3.84817 -0.736409 0
M  V30 1490 H 132.145 -3.99264 -0.372712 0
M  V30 1491 H 128.735 -4.15496 1.05173 0
M  V30 1492 H 132.919 -4.56751 1.94146 0
M  V30 1493 H 128.175 -5.20939 3.2005 0
M  V30 1494 H 132.349 -5.63563 4.09109 0
M  V30 1495 H 129.976 -5.95427 4.72622 0
M  V30 1496 N 131.551 -0.354651 -1.53558 0
M  V30 1497 C 132.779 0.239515 -2.05509 0
M  V30 1498 C 133.194 1.4333 -1.2289 0
M  V30 1499 O 132.551 1.80538 -0.266899 0
M  V30 1500 C 132.602 0.643719 -3.55723 0
M  V30 1501 O 132.323 -0.502602 -4.35207 0
M  V30 1502 C 133.824 1.29743 -4.23889 0
M  V30 1503 H 131.044 0.0442697 -0.669538 0
M  V30 1504 H 133.588 -0.509856 -1.98042 0
M  V30 1505 H 131.743 1.34302 -3.63376 0
M  V30 1506 H 132.157 -0.178172 -5.24197 0
M  V30 1507 H 133.631 1.53091 -5.30346 0
M  V30 1508 H 134.108 2.25441 -3.76926 0
M  V30 1509 H 134.714 0.639865 -4.20459 0
M  V30 1510 N 133.029 1.57378 -0.0835403 0
M  V30 1511 C 134.275 1.94217 0.583733 0
M  V30 1512 C 134.608 0.964653 1.68547 0
M  V30 1513 O 133.883 -0.00422258 1.945 0
M  V30 1514 C 134.166 3.41253 1.14972 0
M  V30 1515 C 134.019 4.49768 0.0538277 0
M  V30 1516 C 135.338 3.89352 2.05166 0
M  V30 1517 H 132.457 0.706233 0.210724 0
M  V30 1518 H 135.099 1.89392 -0.1519 0
M  V30 1519 H 133.249 3.45496 1.77665 0
M  V30 1520 H 134.921 4.57641 -0.579851 0
M  V30 1521 H 133.164 4.29432 -0.614068 0
M  V30 1522 H 133.835 5.49817 0.490452 0
M  V30 1523 H 136.311 3.87189 1.52393 0
M  V30 1524 H 135.187 4.92822 2.41698 0
M  V30 1525 H 135.448 3.27973 2.96456 0
M  V30 1526 N 134.507 -0.190092 1.56449 0
M  V30 1527 C 135.753 -0.911052 1.81184 0
M  V30 1528 C 136.086 -1.82699 0.658396 0
M  V30 1529 O 135.361 -1.91491 -0.340775 0
M  V30 1530 C 135.644 -1.72297 3.16205 0
M  V30 1531 C 135.497 -0.831419 4.42049 0
M  V30 1532 C 136.816 -2.69454 3.47969 0
M  V30 1533 H 133.935 -0.32977 0.659106 0
M  V30 1534 H 136.577 -0.178169 1.89163 0
M  V30 1535 H 134.727 -2.34778 3.09534 0
M  V30 1536 H 136.399 -0.220929 4.60771 0
M  V30 1537 H 134.642 -0.138406 4.33579 0
M  V30 1538 H 135.313 -1.43461 5.33032 0
M  V30 1539 H 137.789 -2.17104 3.54972 0
M  V30 1540 H 136.665 -3.23342 4.43555 0
M  V30 1541 H 136.926 -3.48744 2.71717 0
M  V30 1542 N 135.985 -1.50799 -0.457987 0
M  V30 1543 C 137.232 -1.62442 -1.20908 0
M  V30 1544 C 137.56 -0.330865 -1.91665 0
M  V30 1545 O 136.815 0.68401 -1.83357 0
M  V30 1546 C 137.114 -2.76358 -2.2663 0
M  V30 1547 C 136.78 -4.16378 -1.73033 0
M  V30 1548 C 135.442 -4.54473 -1.58138 0
M  V30 1549 C 137.794 -5.03836 -1.33413 0
M  V30 1550 C 135.122 -5.77754 -1.02065 0
M  V30 1551 C 137.474 -6.27676 -0.78778 0
M  V30 1552 C 136.138 -6.64562 -0.625561 0
M  V30 1553 H 135.408 -0.594417 -0.442435 0
M  V30 1554 H 138.055 -1.84772 -0.503136 0
M  V30 1555 H 136.36 -2.48167 -3.03184 0
M  V30 1556 H 138.057 -2.82568 -2.84528 0
M  V30 1557 H 134.647 -3.86331 -1.85598 0
M  V30 1558 H 138.831 -4.75026 -1.4375 0
M  V30 1559 H 134.087 -6.04997 -0.882547 0
M  V30 1560 H 138.261 -6.94797 -0.472177 0
M  V30 1561 H 135.888 -7.59965 -0.188926 0
M  V30 1562 N 137.463 0.71206 -1.40597 0
M  V30 1563 C 138.74 1.46536 -1.29563 0
M  V30 1564 C 139.12 2.10931 0.0844217 0
M  V30 1565 O 138.468 2.00418 1.0975 0
M  V30 1566 C 138.678 2.49821 -2.43701 0
M  V30 1567 C 140.026 3.15551 -2.841 0
M  V30 1568 O 141.05 2.60142 -2.4332 0
M  V30 1569 O 139.909 4.15867 -3.54566 0
M  V30 1570 H 137.003 0.651801 -0.509004 0
M  V30 1571 H 139.549 0.743935 -1.52524 0
M  V30 1572 H 138.321 2.00778 -3.35863 0
M  V30 1573 H 137.944 3.29495 -2.22528 0
M  V30 1574 N 138.941 1.26152 0.944643 0
M  V30 1575 C 140.169 1.14259 1.72489 0
M  V30 1576 C 140.584 -0.302555 1.8636 0
M  V30 1577 O 139.941 -1.20741 1.36849 0
M  V30 1578 C 139.992 1.80266 3.13347 0
M  V30 1579 O 139.713 3.19133 3.00143 0
M  V30 1580 C 141.214 1.74283 4.07603 0
M  V30 1581 H 138.434 0.398051 0.540181 0
M  V30 1582 H 140.978 1.66706 1.18446 0
M  V30 1583 H 139.133 1.31766 3.64303 0
M  V30 1584 H 139.547 3.51744 3.89071 0
M  V30 1585 H 141.021 2.25111 5.04013 0
M  V30 1586 H 141.498 0.708631 4.33446 0
M  V30 1587 H 142.104 2.22319 3.62567 0
M  V30 1588 N 140.419 -1.14872 1.07899 0
M  V30 1589 C 141.667 -1.85422 0.803941 0
M  V30 1590 C 141.988 -1.83051 -0.67211 0
M  V30 1591 O 141.258 -1.27532 -1.48703 0
M  V30 1592 H 139.838 -0.686537 0.294408 0
M  V30 1593 H 142.5 -1.39226 1.3639 0
M  V30 1594 H 141.596 -2.90399 1.14346 0
M  V30 1595 N 141.898 -0.863906 -1.31812 0
M  V30 1596 C 143.123 -0.48527 -2.01643 0
M  V30 1597 C 143.548 0.913058 -1.64453 0
M  V30 1598 O 142.906 1.6014 -0.849985 0
M  V30 1599 C 142.954 -0.642625 -3.54828 0
M  V30 1600 O 142.058 0.320659 -4.11151 0
M  V30 1601 H 141.399 -0.193793 -0.635091 0
M  V30 1602 H 143.929 -1.16565 -1.68148 0
M  V30 1603 H 143.939 -0.533628 -4.04495 0
M  V30 1604 H 142.614 -1.66227 -3.81237 0
M  V30 1605 H 141.191 0.167126 -3.72525 0
M  V30 1606 N 143.376 1.44774 -0.622745 0
M  V30 1607 C 144.601 2.06999 -0.128968 0
M  V30 1608 C 145.026 1.4617 1.1839 0
M  V30 1609 O 144.384 0.560007 1.72434 0
M  V30 1610 C 144.432 3.60595 -0.0188351 0
M  V30 1611 O 143.536 3.99398 1.02739 0
M  V30 1612 H 142.877 0.659047 -0.0809544 0
M  V30 1613 H 145.407 1.85784 -0.85705 0
M  V30 1614 H 145.417 4.07627 0.174476 0
M  V30 1615 H 144.092 4.04252 -0.977384 0
M  V30 1616 H 142.669 3.64011 0.809326 0
M  V30 1617 N 144.854 0.36279 1.53368 0
M  V30 1618 C 145.802 -0.500155 2.27159 0
M  V30 1619 C 146.796 -1.08575 1.3003 0
M  V30 1620 O 148.002 -1.02927 1.47668 0
M  V30 1621 H 144.377 -0.180009 0.730138 0
M  V30 1622 H 146.348 0.14401 2.98052 0
M  V30 1623 C 145.097 -1.62937 3.07159 0
M  V30 1624 H 144.42 -1.18806 3.8174 0
M  V30 1625 H 145.86 -2.20795 3.61975 0
M  V30 1626 C 144.319 -2.57007 2.17829 0
M  V30 1627 O 144.849 -3.59752 1.78721 0
M  V30 1628 N 143.055 -2.26131 1.82518 0
M  V30 1629 H 142.602 -1.42616 2.14519 0
M  V30 1630 H 142.56 -2.89327 1.23034 0
M  V30 1631 N 146.332 -1.57332 0.0918853 0
M  V30 1632 C 147.262 -2.16872 -0.865371 0
M  V30 1633 C 148.243 -1.10118 -1.29646 0
M  V30 1634 O 149.428 -1.38242 -1.36392 0
M  V30 1635 C 146.558 -2.74649 -2.12569 0
M  V30 1636 C 145.512 -3.86747 -1.83333 0
M  V30 1637 C 144.838 -4.31212 -3.16166 0
M  V30 1638 C 146.138 -5.10089 -1.1228 0
M  V30 1639 H 147.832 -2.97114 -0.369307 0
M  V30 1640 H 145.378 -1.42918 -0.176194 0
M  V30 1641 H 147.331 -3.14952 -2.7997 0
M  V30 1642 H 146.055 -1.91657 -2.64452 0
M  V30 1643 H 144.714 -3.46978 -1.18331 0
M  V30 1644 H 144.362 -3.45115 -3.6593 0
M  V30 1645 H 144.062 -5.06788 -2.97388 0
M  V30 1646 H 145.586 -4.74146 -3.84731 0
M  V30 1647 H 147 -5.47582 -1.69785 0
M  V30 1648 H 145.397 -5.91073 -1.03693 0
M  V30 1649 H 146.467 -4.84786 -0.105041 0
M  V30 1650 N 147.81 0.181792 -1.56548 0
M  V30 1651 C 149.056 0.896803 -1.82562 0
M  V30 1652 C 149.411 1.80324 -0.670908 0
M  V30 1653 O 148.704 1.8868 0.333235 0
M  V30 1654 C 148.898 1.73728 -3.12335 0
M  V30 1655 C 148.727 0.913714 -4.4032 0
M  V30 1656 C 147.497 0.592903 -5.01809 0
M  V30 1657 C 149.695 0.260164 -5.13642 0
M  V30 1658 N 147.677 -0.247901 -6.13399 0
M  V30 1659 C 149.048 -0.442256 -6.18421 0
M  V30 1660 C 151.103 0.177253 -4.97584 0
M  V30 1661 C 149.806 -1.21971 -7.08883 0
M  V30 1662 C 151.832 -0.586839 -5.88481 0
M  V30 1663 C 151.194 -1.27766 -6.92716 0
M  V30 1664 H 147.293 0.307122 -0.719166 0
M  V30 1665 H 149.877 0.164535 -1.94004 0
M  V30 1666 H 148.048 2.44105 -3.02105 0
M  V30 1667 H 149.78 2.39279 -3.26386 0
M  V30 1668 H 146.535 0.920502 -4.64568 0
M  V30 1669 H 146.959 -0.658304 -6.73792 0
M  V30 1670 H 151.601 0.696993 -4.17015 0
M  V30 1671 H 149.319 -1.75083 -7.88905 0
M  V30 1672 H 152.905 -0.652522 -5.78129 0
M  V30 1673 H 151.785 -1.85943 -7.61836 0
M  V30 1674 N 149.288 1.51039 0.449983 0
M  V30 1675 C 150.534 1.63322 1.20223 0
M  V30 1676 C 150.867 0.34241 1.91158 0
M  V30 1677 O 150.142 -0.657344 1.83055 0
M  V30 1678 C 150.425 2.82801 2.22925 0
M  V30 1679 C 150.278 4.21823 1.56157 0
M  V30 1680 C 151.597 2.97807 3.24035 0
M  V30 1681 H 148.716 0.594407 0.435718 0
M  V30 1682 H 151.358 1.83489 0.493136 0
M  V30 1683 H 149.508 2.65738 2.834 0
M  V30 1684 H 151.18 4.50526 0.991162 0
M  V30 1685 H 149.423 4.25105 0.864172 0
M  V30 1686 H 150.094 5.01391 2.30891 0
M  V30 1687 H 152.57 3.13497 2.73603 0
M  V30 1688 H 151.446 3.82992 3.93202 0
M  V30 1689 H 151.707 2.09328 3.89402 0
M  V30 1690 N 150.766 -0.704594 1.40972 0
M  V30 1691 C 152.177 -1.28418 1.3552 0
M  V30 1692 C 152.528 -1.96171 0.0339434 0
M  V30 1693 O 151.653 -1.98231 -0.867944 0
M  V30 1694 C 152.248 -2.33528 2.45459 0
M  V30 1695 C 150.807 -2.87085 2.43433 0
M  V30 1696 C 149.954 -1.61007 2.2577 0
M  V30 1697 H 152.905 -0.499963 1.50619 0
M  V30 1698 H 152.926 -3.14619 2.13998 0
M  V30 1699 H 152.438 -1.84187 3.41609 0
M  V30 1700 H 150.539 -3.40626 1.51013 0
M  V30 1701 H 150.652 -3.3813 3.39419 0
M  V30 1702 H 149.016 -1.86482 1.73483 0
M  V30 1703 H 149.799 -1.13675 3.23933 0
M  V30 1704 N 152.244 -1.26651 -0.937939 0
M  V30 1705 C 153.469 -1.15279 -1.72411 0
M  V30 1706 C 153.894 0.287866 -1.85884 0
M  V30 1707 O 153.252 1.20855 -1.35143 0
M  V30 1708 C 153.3 -1.83028 -3.10698 0
M  V30 1709 O 152.404 -1.12128 -3.96864 0
M  V30 1710 H 151.745 -0.401504 -0.528858 0
M  V30 1711 H 154.275 -1.67531 -1.1745 0
M  V30 1712 H 154.285 -1.89981 -3.6107 0
M  V30 1713 H 152.96 -2.87833 -3.00208 0
M  V30 1714 H 151.537 -1.13173 -3.55312 0
M  V30 1715 N 153.722 1.14298 -1.08507 0
M  V30 1716 C 154.968 1.85633 -0.816581 0
M  V30 1717 C 155.301 1.82784 0.656021 0
M  V30 1718 O 154.576 1.25926 1.48233 0
M  V30 1719 C 154.859 3.34223 -1.34041 0
M  V30 1720 C 154.712 3.45639 -2.87843 0
M  V30 1721 C 156.031 4.29356 -0.9665 0
M  V30 1722 H 153.15 0.67402 -0.298104 0
M  V30 1723 H 155.792 1.34214 -1.34487 0
M  V30 1724 H 153.942 3.78144 -0.89104 0
M  V30 1725 H 155.614 3.10498 -3.41158 0
M  V30 1726 H 153.857 2.86817 -3.25451 0
M  V30 1727 H 154.528 4.50089 -3.19569 0
M  V30 1728 H 157.004 3.93457 -1.35391 0
M  V30 1729 H 155.88 5.3178 -1.3602 0
M  V30 1730 H 156.141 4.41919 0.126362 0
M  V30 1731 N 155.201 0.870884 1.31352 0
M  V30 1732 C 156.431 0.496049 2.00557 0
M  V30 1733 C 156.839 -0.916241 1.65534 0
M  V30 1734 O 156.182 -1.61188 0.881134 0
M  V30 1735 C 156.244 0.574418 3.54881 0
M  V30 1736 C 155.908 1.94849 4.1338 0
M  V30 1737 C 156.905 2.91611 4.30417 0
M  V30 1738 C 154.59 2.25005 4.49086 0
M  V30 1739 C 156.584 4.16672 4.82352 0
M  V30 1740 C 154.271 3.50315 5.00722 0
M  V30 1741 C 155.269 4.45964 5.17306 0
M  V30 1742 O 154.957 5.69052 5.67833 0
M  V30 1743 H 154.689 0.191664 0.64826 0
M  V30 1744 H 157.243 1.17409 1.68536 0
M  V30 1745 H 155.473 -0.160549 3.86367 0
M  V30 1746 H 157.162 0.212879 4.05341 0
M  V30 1747 H 157.928 2.69622 4.03149 0
M  V30 1748 H 153.807 1.51332 4.35453 0
M  V30 1749 H 157.351 4.91336 4.95211 0
M  V30 1750 H 153.248 3.72147 5.27424 0
M  V30 1751 H 154.016 5.71236 5.86201 0
M  V30 1752 N 156.679 -1.44442 0.630414 0
M  V30 1753 C 157.919 -2.03934 0.137919 0
M  V30 1754 C 158.283 -1.48509 -1.21692 0
M  V30 1755 O 159.484 -1.99499 -1.80149 0
M  V30 1756 C 157.755 -3.57187 0.123373 0
M  V30 1757 S 159.314 -4.37741 -0.304604 0
M  V30 1758 H 156.132 -0.708401 0.0607353 0
M  V30 1759 H 158.734 -1.76835 0.833643 0
M  V30 1760 H 157.438 -3.95032 1.11256 0
M  V30 1761 H 156.969 -3.88895 -0.59362 0
M  V30 1762 H 158.984 -4.71403 -1.54897 0
M  V30 1763 N 158.157 -0.370918 -1.53173 0
M  V30 1764 C 159.382 0.220293 -2.06227 0
M  V30 1765 C 159.807 1.41243 -1.24225 0
M  V30 1766 O 159.165 1.79387 -0.262645 0
M  V30 1767 C 159.213 0.586663 -3.55796 0
M  V30 1768 O 158.317 1.68317 -3.76488 0
M  V30 1769 H 157.658 0.0308099 -0.663285 0
M  V30 1770 H 160.188 -0.533068 -1.97534 0
M  V30 1771 H 160.198 0.85617 -3.98916 0
M  V30 1772 H 158.873 -0.285013 -4.14922 0
M  V30 1773 H 157.45 1.40881 -3.45264 0
M  V30 1774 N 159.635 1.57281 -0.100228 0
M  V30 1775 C 160.86 1.99302 0.573881 0
M  V30 1776 C 161.285 0.979059 1.60611 0
M  V30 1777 O 160.643 -0.0517803 1.81226 0
M  V30 1778 C 160.691 3.40274 1.19358 0
M  V30 1779 O 159.795 3.41676 2.30935 0
M  V30 1780 H 159.136 0.647944 0.145138 0
M  V30 1781 H 161.666 2.03779 -0.183156 0
M  V30 1782 H 161.676 3.78078 1.53365 0
M  V30 1783 H 160.351 4.13594 0.437385 0
M  V30 1784 H 158.928 3.15672 1.98509 0
M  V30 1785 N 161.113 -0.173488 1.56642 0
M  V30 1786 C 162.043 -1.2171 1.99271 0
M  V30 1787 C 163.024 -1.46289 0.867959 0
M  V30 1788 O 164.209 -1.5766 1.13388 0
M  V30 1789 C 161.339 -2.55651 2.35074 0
M  V30 1790 C 160.293 -2.45645 3.50489 0
M  V30 1791 C 159.619 -3.84056 3.72028 0
M  V30 1792 C 160.919 -1.96302 4.84007 0
M  V30 1793 H 162.613 -0.86275 2.867 0
M  V30 1794 H 160.159 -0.413571 1.37933 0
M  V30 1795 H 162.112 -3.2886 2.63494 0
M  V30 1796 H 160.836 -2.92869 1.44552 0
M  V30 1797 H 159.495 -1.7489 3.22194 0
M  V30 1798 H 159.143 -4.18664 2.788 0
M  V30 1799 H 158.843 -3.7823 4.49684 0
M  V30 1800 H 160.367 -4.58854 4.02846 0
M  V30 1801 H 161.781 -2.59284 5.11317 0
M  V30 1802 H 160.178 -2.01429 5.65284 0
M  V30 1803 H 161.248 -0.917226 4.76146 0
M  V30 1804 N 162.591 -1.51276 -0.441967 0
M  V30 1805 C 163.554 -1.7167 -1.51862 0
M  V30 1806 C 164.554 -0.586793 -1.49711 0
M  V30 1807 O 165.744 -0.854276 -1.51815 0
M  V30 1808 C 162.876 -1.76889 -2.91416 0
M  V30 1809 H 164.069 -2.67754 -1.35084 0
M  V30 1810 H 161.622 -1.41196 -0.670333 0
M  V30 1811 H 162.357 -0.826026 -3.13604 0
M  V30 1812 H 162.142 -2.59001 -2.94382 0
M  V30 1813 H 163.632 -1.94522 -3.69528 0
M  V30 1814 N 164.069 0.697108 -1.41344 0
M  V30 1815 C 165.309 1.46939 -1.42085 0
M  V30 1816 C 165.673 1.9198 -0.0280397 0
M  V30 1817 O 166.874 2.6865 0.0897504 0
M  V30 1818 C 165.145 2.64985 -2.39828 0
M  V30 1819 S 166.704 3.54147 -2.59085 0
M  V30 1820 H 163.522 0.502146 -0.503359 0
M  V30 1821 H 166.124 0.813546 -1.77769 0
M  V30 1822 H 164.828 2.30098 -3.39828 0
M  V30 1823 H 164.359 3.35464 -2.05493 0
M  V30 1824 H 166.374 4.60137 -1.85711 0
M  V30 1825 N 165.547 1.27147 0.931209 0
M  V30 1826 C 166.775 1.16082 1.71267 0
M  V30 1827 C 167.19 -0.282772 1.8667 0
M  V30 1828 O 166.547 -1.19283 1.38122 0
M  V30 1829 C 166.598 1.8358 3.11417 0
M  V30 1830 O 166.319 3.22299 2.96741 0
M  V30 1831 C 167.82 1.78597 4.05732 0
M  V30 1832 H 165.04 0.403758 0.535929 0
M  V30 1833 H 167.584 1.67953 1.16671 0
M  V30 1834 H 165.739 1.35623 3.62885 0
M  V30 1835 H 166.153 3.55851 3.85319 0
M  V30 1836 H 167.627 2.30444 5.01597 0
M  V30 1837 H 168.104 0.754564 4.3267 0
M  V30 1838 H 168.71 2.26152 3.60188 0
M  V30 1839 N 167.025 -1.13721 1.09112 0
M  V30 1840 C 167.973 -2.21103 0.722219 0
M  V30 1841 C 168.967 -1.67147 -0.275374 0
M  V30 1842 O 170.173 -1.79477 -0.137176 0
M  V30 1843 H 166.548 -0.720445 0.215553 0
M  V30 1844 H 168.519 -2.49483 1.63709 0
M  V30 1845 C 167.268 -3.47352 0.15543 0
M  V30 1846 H 166.591 -3.89206 0.914246 0
M  V30 1847 H 168.031 -4.2395 -0.0647967 0
M  V30 1848 C 166.49 -3.1814 -1.10852 0
M  V30 1849 O 167.02 -3.36604 -2.19227 0
M  V30 1850 N 165.226 -2.72045 -1.02176 0
M  V30 1851 H 164.773 -2.57221 -0.139764 0
M  V30 1852 H 164.731 -2.52875 -1.8682 0
M  V30 1853 N 168.503 -0.877838 -1.30888 0
M  V30 1854 C 169.453 -0.310872 -2.25871 0
M  V30 1855 C 170.437 0.556596 -1.50966 0
M  V30 1856 O 171.629 0.402187 -1.7237 0
M  V30 1857 C 168.758 0.479821 -3.3993 0
M  V30 1858 C 167.844 -0.401333 -4.22197 0
M  V30 1859 N 168.235 -1.49848 -4.83093 0
M  V30 1860 C 166.533 -0.195167 -4.45573 0
M  V30 1861 C 167.234 -2.0425 -5.44662 0
M  V30 1862 N 166.21 -1.33843 -5.26865 0
M  V30 1863 H 170.012 -1.1493 -2.70496 0
M  V30 1864 H 167.526 -0.726458 -1.45246 0
M  V30 1865 H 169.523 0.902582 -4.07012 0
M  V30 1866 H 168.183 1.31577 -2.96846 0
M  V30 1867 H 169.194 -1.88137 -4.82519 0
M  V30 1868 H 165.871 0.604192 -4.13105 0
M  V30 1869 H 167.261 -2.96345 -6.03017 0
M  V30 1870 N 169.982 1.44106 -0.638065 0
M  V30 1871 C 170.93 2.3248 0.0748149 0
M  V30 1872 C 171.924 1.47746 0.828702 0
M  V30 1873 O 173.13 1.64049 0.740816 0
M  V30 1874 H 169.505 0.750771 0.0429686 0
M  V30 1875 H 171.476 2.90348 -0.688504 0
M  V30 1876 C 170.225 3.31843 1.03805 0
M  V30 1877 H 169.548 3.97059 0.467375 0
M  V30 1878 H 170.988 3.96345 1.50622 0
M  V30 1879 C 169.447 2.61291 2.1267 0
M  V30 1880 O 169.977 2.41702 3.20847 0
M  V30 1881 N 168.183 2.20915 1.88798 0
M  V30 1882 H 167.73 2.37047 1.00829 0
M  V30 1883 H 167.688 1.74038 2.61836 0
M  V30 1884 N 171.46 0.379036 1.52974 0
M  V30 1885 C 172.876 0.0285448 1.59574 0
M  V30 1886 C 173.076 -1.45542 1.39355 0
M  V30 1887 O 172.132 -2.2187 1.20541 0
M  V30 1888 C 173.445 0.496535 2.96572 0
M  V30 1889 C 174.993 0.451909 3.0972 0
M  V30 1890 C 175.468 0.895924 4.49152 0
M  V30 1891 N 176.959 0.851522 4.55306 0
M  V30 1892 C 177.694 1.16661 5.61407 0
M  V30 1893 N 177.19 1.55166 6.752 0
M  V30 1894 N 178.983 1.08853 5.51459 0
M  V30 1895 H 171.134 1.34525 1.64367 0
M  V30 1896 H 173.397 0.550733 0.771619 0
M  V30 1897 H 173.103 1.53258 3.16552 0
M  V30 1898 H 172.977 -0.109802 3.7704 0
M  V30 1899 H 175.364 -0.575029 2.89443 0
M  V30 1900 H 175.445 1.09392 2.3123 0
M  V30 1901 H 175.089 1.92104 4.70168 0
M  V30 1902 H 175.019 0.23103 5.26093 0
M  V30 1903 H 177.51 0.568038 3.73606 0
M  V30 1904 H 177.823 1.776 7.52116 0
M  V30 1905 H 176.168 1.59044 6.76557 0
M  V30 1906 H 179.359 0.786803 4.6144 0
M  V30 1907 H 179.532 1.33742 6.34048 0
M  V30 1908 N 172.938 -1.57226 0.108567 0
M  V30 1909 C 174.185 -1.94833 -0.551943 0
M  V30 1910 C 174.513 -0.991204 -1.67348 0
M  V30 1911 O 173.768 -0.0131878 -1.95696 0
M  V30 1912 C 174.067 -3.38911 -1.13463 0
M  V30 1913 C 173.733 -4.50696 -0.135509 0
M  V30 1914 C 172.395 -4.80998 0.139252 0
M  V30 1915 C 174.747 -5.18333 0.545957 0
M  V30 1916 C 172.075 -5.76259 1.10194 0
M  V30 1917 C 174.427 -6.14627 1.49721 0
M  V30 1918 C 173.091 -6.43327 1.78006 0
M  V30 1919 H 172.361 -0.712944 -0.20197 0
M  V30 1920 H 175.008 -1.90582 0.18726 0
M  V30 1921 H 173.313 -3.39805 -1.95037 0
M  V30 1922 H 175.01 -3.65317 -1.65362 0
M  V30 1923 H 171.6 -4.27087 -0.359846 0
M  V30 1924 H 175.784 -4.95087 0.346842 0
M  V30 1925 H 171.04 -5.96804 1.32795 0
M  V30 1926 H 175.214 -6.66126 2.03099 0
M  V30 1927 H 172.841 -7.1695 2.52759 0
M  V30 1928 N 174.416 0.165178 -1.56732 0
M  V30 1929 C 175.364 1.22369 -1.97809 0
M  V30 1930 C 176.358 1.45488 -0.867741 0
M  V30 1931 O 177.564 1.45995 -1.05288 0
M  V30 1932 H 173.939 0.411486 -0.629431 0
M  V30 1933 H 175.91 0.850425 -2.86025 0
M  V30 1934 C 174.659 2.55403 -2.35934 0
M  V30 1935 H 173.982 2.38438 -3.20916 0
M  V30 1936 H 175.422 3.2814 -2.68514 0
M  V30 1937 C 173.881 3.14611 -1.20506 0
M  V30 1938 O 174.411 3.98626 -0.496016 0
M  V30 1939 N 172.617 2.7379 -0.97403 0
M  V30 1940 H 172.164 2.0557 -1.55238 0
M  V30 1941 H 172.122 3.1374 -0.203573 0
M  V30 1942 N 175.894 1.51508 0.433938 0
M  V30 1943 C 177.305 1.56784 1.01369 0
M  V30 1944 C 177.656 0.393349 1.92217 0
M  V30 1945 O 176.781 -0.489441 2.10792 0
M  V30 1946 C 177.376 2.84144 1.8452 0
M  V30 1947 C 175.935 2.9198 2.37539 0
M  V30 1948 C 175.082 2.51482 1.16843 0
M  V30 1949 H 178.033 1.57236 0.215081 0
M  V30 1950 H 178.054 2.68098 2.70007 0
M  V30 1951 H 177.566 3.69607 1.18373 0
M  V30 1952 H 175.667 2.10955 3.0713 0
M  V30 1953 H 175.78 3.95704 2.70103 0
M  V30 1954 H 174.144 2.04758 1.51481 0
M  V30 1955 H 174.927 3.39293 0.523015 0
M  V30 1956 N 177.372 -0.689602 1.41712 0
M  V30 1957 C 178.282 -1.83314 1.46401 0
M  V30 1958 C 179.298 -1.7036 0.35405 0
M  V30 1959 O 180.474 -1.92171 0.602692 0
M  V30 1960 C 177.539 -3.19344 1.34982 0
M  V30 1961 C 176.6 -3.44363 2.56344 0
M  V30 1962 C 175.833 -4.73904 2.45461 0
M  V30 1963 O 176.056 -5.508 1.48241 0
M  V30 1964 O 174.99 -4.99839 3.35328 0
M  V30 1965 H 178.816 -1.82314 2.42889 0
M  V30 1966 H 176.401 -0.843438 1.23315 0
M  V30 1967 H 178.283 -4.00547 1.3092 0
M  V30 1968 H 176.958 -3.21014 0.41612 0
M  V30 1969 H 175.865 -2.63067 2.65982 0
M  V30 1970 H 177.198 -3.47512 3.48563 0
M  V30 1971 N 178.85 -1.27639 -0.924453 0
M  V30 1972 C 180.127 -1.04887 -1.651 0
M  V30 1973 C 180.507 0.415327 -2.06974 0
M  V30 1974 O 179.855 1.39923 -1.80648 0
M  V30 1975 C 180.065 -2.01348 -2.85061 0
M  V30 1976 C 181.413 -2.30899 -3.56329 0
M  V30 1977 O 182.437 -1.99348 -2.95193 0
M  V30 1978 O 181.296 -2.84699 -4.66485 0
M  V30 1979 H 178.39 -0.400083 -0.723784 0
M  V30 1980 H 180.936 -1.38916 -0.974703 0
M  V30 1981 H 179.708 -3.0008 -2.51133 0
M  V30 1982 H 179.331 -1.679 -3.6041 0
M  V30 1983 N 180.328 1.1314 -1.09713 0
M  V30 1984 C 181.553 1.88862 -0.857081 0
M  V30 1985 C 181.978 1.78729 0.586304 0
M  V30 1986 O 181.336 1.13692 1.41222 0
M  V30 1987 C 181.384 3.36325 -1.30069 0
M  V30 1988 O 180.488 4.09815 -0.461007 0
M  V30 1989 H 179.829 0.587108 -0.310162 0
M  V30 1990 H 182.359 1.43129 -1.46203 0
M  V30 1991 H 182.369 3.87157 -1.28738 0
M  V30 1992 H 181.044 3.43017 -2.35185 0
M  V30 1993 H 179.621 3.68986 -0.538888 0
M  V30 1994 N 181.806 0.884767 1.30421 0
M  V30 1995 C 183.031 0.517288 2.00845 0
M  V30 1996 C 183.456 -0.886779 1.65885 0
M  V30 1997 O 182.814 -1.58768 0.875354 0
M  V30 1998 C 182.862 0.698994 3.5376 0
M  V30 1999 O 181.966 -0.255208 4.1161 0
M  V30 2000 H 181.307 0.203872 0.631927 0
M  V30 2001 H 183.837 1.19225 1.66272 0
M  V30 2002 H 183.847 0.597912 4.03595 0
M  V30 2003 H 182.522 1.72271 3.78544 0
M  V30 2004 H 181.099 -0.10784 3.72744 0
M  V30 2005 N 183.284 -1.43765 0.645699 0
M  V30 2006 C 184.512 -2.06253 0.163556 0
M  V30 2007 C 184.927 -1.48352 -1.16778 0
M  V30 2008 O 184.284 -0.611932 -1.71935 0
M  V30 2009 C 184.335 -3.61453 0.0583186 0
M  V30 2010 O 184.056 -4.172 1.33702 0
M  V30 2011 C 185.557 -4.41002 -0.450795 0
M  V30 2012 H 182.777 -0.665413 0.0864077 0
M  V30 2013 H 185.321 -1.84396 0.884222 0
M  V30 2014 H 183.476 -3.82522 -0.612865 0
M  V30 2015 H 183.89 -5.10791 1.19131 0
M  V30 2016 H 185.364 -5.49966 -0.473403 0
M  V30 2017 H 185.841 -4.13488 -1.48068 0
M  V30 2018 H 186.447 -4.24886 0.187637 0
M  V30 2019 N 184.763 -0.387143 -1.52771 0
M  V30 2020 C 185.993 0.195585 -2.05672 0
M  V30 2021 C 186.401 1.41241 -1.25887 0
M  V30 2022 O 185.744 1.81265 -0.298081 0
M  V30 2023 C 185.806 0.632327 -3.53895 0
M  V30 2024 C 185.47 -0.470739 -4.54569 0
M  V30 2025 C 186.467 -1.32746 -5.02667 0
M  V30 2026 C 184.152 -0.637151 -4.98243 0
M  V30 2027 C 186.146 -2.33574 -5.93061 0
M  V30 2028 C 183.833 -1.64877 -5.88438 0
M  V30 2029 C 184.831 -2.49649 -6.35739 0
M  V30 2030 O 184.519 -3.49082 -7.24153 0
M  V30 2031 H 184.251 0.033658 -0.675162 0
M  V30 2032 H 186.805 -0.550221 -1.97893 0
M  V30 2033 H 185.035 1.43008 -3.59285 0
M  V30 2034 H 186.724 1.14048 -3.89548 0
M  V30 2035 H 187.49 -1.21019 -4.69659 0
M  V30 2036 H 183.369 0.0129567 -4.60998 0
M  V30 2037 H 186.913 -2.99777 -6.29904 0
M  V30 2038 H 182.81 -1.76643 -6.2086 0
M  V30 2039 H 183.578 -3.45065 -7.42208 0
M  V30 2040 N 186.241 1.57166 -0.116904 0
M  V30 2041 C 187.173 2.12271 0.864507 0
M  V30 2042 C 188.186 1.06494 1.23138 0
M  V30 2043 O 189.375 1.33873 1.18069 0
M  V30 2044 C 186.475 2.60564 2.16702 0
M  V30 2045 C 185.648 3.90416 1.97216 0
M  V30 2046 C 184.707 4.24329 3.11178 0
M  V30 2047 O 183.733 4.93182 2.84184 0
M  V30 2048 N 184.935 3.8148 4.37554 0
M  V30 2049 H 187.7 2.97102 0.393726 0
M  V30 2050 H 185.261 1.61759 0.0675805 0
M  V30 2051 H 187.253 2.80282 2.91932 0
M  V30 2052 H 185.823 1.80623 2.55135 0
M  V30 2053 H 185.043 3.79627 1.06192 0
M  V30 2054 H 186.331 4.75327 1.81499 0
M  V30 2055 H 185.729 3.25943 4.62361 0
M  V30 2056 H 184.286 4.06311 5.09661 0
M  V30 2057 N 187.719 -0.156864 1.56817 0
M  V30 2058 C 188.944 -0.890331 1.87318 0
M  V30 2059 C 189.369 -1.74394 0.704855 0
M  V30 2060 O 188.727 -1.77972 -0.345786 0
M  V30 2061 C 188.775 -1.73102 3.16336 0
M  V30 2062 O 187.879 -2.83422 2.99576 0
M  V30 2063 H 187.22 -0.24857 0.615718 0
M  V30 2064 H 189.75 -0.150649 2.04045 0
M  V30 2065 H 189.76 -2.12803 3.48107 0
M  V30 2066 H 188.435 -1.10412 4.00976 0
M  V30 2067 H 187.012 -2.47199 2.7919 0
M  V30 2068 N 189.197 -1.51736 -0.425897 0
M  V30 2069 C 190.425 -1.68794 -1.1965 0
M  V30 2070 C 190.84 -0.390164 -1.84725 0
M  V30 2071 O 190.197 0.632376 -1.71194 0
M  V30 2072 C 190.248 -2.81174 -2.27208 0
M  V30 2073 O 189.969 -4.05925 -1.64793 0
M  V30 2074 C 191.47 -3.09599 -3.17275 0
M  V30 2075 H 188.69 -0.566128 -0.360194 0
M  V30 2076 H 191.234 -1.98211 -0.503249 0
M  V30 2077 H 189.389 -2.54324 -2.9223 0
M  V30 2078 H 189.803 -4.68423 -2.35967 0
M  V30 2079 H 191.277 -3.91786 -3.88854 0
M  V30 2080 H 191.754 -2.22468 -3.78688 0
M  V30 2081 H 192.36 -3.38151 -2.57941 0
M  V30 2082 N 190.675 0.682077 -1.42076 0
M  V30 2083 C 191.9 1.47558 -1.45744 0
M  V30 2084 C 192.325 1.87977 -0.0680981 0
M  V30 2085 O 191.683 1.55522 0.9318 0
M  V30 2086 C 191.731 2.70575 -2.38373 0
M  V30 2087 O 190.835 3.68573 -1.85007 0
M  V30 2088 H 190.176 0.443585 -0.494093 0
M  V30 2089 H 192.706 0.837238 -1.86686 0
M  V30 2090 H 192.716 3.18729 -2.54707 0
M  V30 2091 H 191.391 2.40495 -3.39315 0
M  V30 2092 H 189.968 3.2757 -1.78192 0
M  V30 2093 N 192.153 1.28127 0.917671 0
M  V30 2094 C 193.063 1.13556 2.05286 0
M  V30 2095 C 194.079 0.0630914 1.73886 0
M  V30 2096 O 195.255 0.271598 1.9956 0
M  V30 2097 C 192.32 0.794676 3.3747 0
M  V30 2098 C 191.381 1.94909 3.82504 0
M  V30 2099 C 190.614 1.62437 5.0838 0
M  V30 2100 O 190.837 0.536905 5.67867 0
M  V30 2101 O 189.771 2.46677 5.4903 0
M  V30 2102 H 193.597 2.08844 2.20495 0
M  V30 2103 H 191.182 1.07409 1.03845 0
M  V30 2104 H 193.064 0.618344 4.16839 0
M  V30 2105 H 191.739 -0.128581 3.23445 0
M  V30 2106 H 190.646 2.18055 3.03978 0
M  V30 2107 H 191.979 2.85291 4.01086 0
M  V30 2108 N 193.631 -1.12557 1.10312 0
M  V30 2109 C 194.859 -1.87864 0.866873 0
M  V30 2110 C 195.274 -1.79588 -0.582557 0
M  V30 2111 O 194.631 -1.16887 -1.40156 0
M  V30 2112 C 194.682 -3.37125 1.30496 0
M  V30 2113 O 194.403 -3.45201 2.69755 0
M  V30 2114 C 195.904 -4.29373 1.10243 0
M  V30 2115 H 193.124 -0.594452 0.311236 0
M  V30 2116 H 195.668 -1.42429 1.46745 0
M  V30 2117 H 193.823 -3.80109 0.748081 0
M  V30 2118 H 194.237 -4.38056 2.88457 0
M  V30 2119 H 195.711 -5.32394 1.45811 0
M  V30 2120 H 196.188 -4.39181 0.0409492 0
M  V30 2121 H 196.794 -3.92169 1.64571 0
M  V30 2122 N 195.109 -0.891671 -1.2995 0
M  V30 2123 C 196.355 -0.514261 -1.96171 0
M  V30 2124 C 196.688 0.935506 -1.70182 0
M  V30 2125 O 195.963 1.66204 -1.01028 0
M  V30 2126 C 196.246 -0.797719 -3.51153 0
M  V30 2127 C 196.099 -2.2986 -3.86632 0
M  V30 2128 C 197.418 -0.278749 -4.39216 0
M  V30 2129 H 194.537 -0.188314 -0.712535 0
M  V30 2130 H 197.179 -1.11689 -1.53706 0
M  V30 2131 H 195.329 -0.284826 -3.87455 0
M  V30 2132 H 197.001 -2.88042 -3.60319 0
M  V30 2133 H 195.244 -2.76257 -3.34462 0
M  V30 2134 H 195.915 -2.44753 -4.94773 0
M  V30 2135 H 198.391 -0.717825 -4.09862 0
M  V30 2136 H 197.267 -0.506353 -5.46559 0
M  V30 2137 H 197.528 0.820266 -4.34424 0
M  V30 2138 N 196.587 1.43421 -0.653314 0
M  V30 2139 C 197.812 2.06678 -0.172846 0
M  V30 2140 C 198.237 1.48648 1.15262 0
M  V30 2141 O 197.595 0.596457 1.71208 0
M  V30 2142 C 197.643 3.60474 -0.0953184 0
M  V30 2143 O 196.747 4.01487 0.942442 0
M  V30 2144 H 196.088 0.657181 -0.0949155 0
M  V30 2145 H 198.618 1.83925 -0.896265 0
M  V30 2146 H 198.628 4.07905 0.0879728 0
M  V30 2147 H 197.303 4.02088 -1.06291 0
M  V30 2148 H 195.88 3.65646 0.731932 0
M  V30 2149 N 198.065 0.39524 1.52563 0
M  V30 2150 C 199.314 -0.186321 2.00838 0
M  V30 2151 C 199.627 -1.47402 1.28577 0
M  V30 2152 O 200.833 -2.13599 1.67593 0
M  V30 2153 C 199.289 -0.382595 3.57861 0
M  V30 2154 C 198.897 0.892202 4.39026 0
M  V30 2155 C 200.641 -0.9202 4.14406 0
M  V30 2156 C 198.548 0.66388 5.87662 0
M  V30 2157 H 197.478 -0.0734041 0.750418 0
M  V30 2158 H 200.129 0.518552 1.76021 0
M  V30 2159 H 198.511 -1.14946 3.7895 0
M  V30 2160 H 199.685 1.66414 4.29701 0
M  V30 2161 H 198 1.35519 3.9373 0
M  V30 2162 H 200.597 -1.10683 5.23119 0
M  V30 2163 H 200.94 -1.89096 3.70875 0
M  V30 2164 H 201.473 -0.212751 3.97231 0
M  V30 2165 H 198.212 1.6058 6.35527 0
M  V30 2166 H 197.732 -0.0690193 5.9976 0
M  V30 2167 H 199.411 0.300699 6.46301 0
M  V30 2168 N 199.544 -1.57102 0.125237 0
M  V30 2169 C 200.772 -1.99761 -0.538797 0
M  V30 2170 C 201.187 -1.00503 -1.59827 0
M  V30 2171 O 200.544 0.00119474 -1.825 0
M  V30 2172 C 200.595 -3.42408 -1.15927 0
M  V30 2173 O 200.316 -4.37869 -0.142143 0
M  V30 2174 C 201.817 -4.00232 -1.90602 0
M  V30 2175 H 199.037 -0.655772 -0.14214 0
M  V30 2176 H 201.581 -2.03383 0.213413 0
M  V30 2177 H 199.736 -3.39706 -1.86223 0
M  V30 2178 H 200.15 -5.21128 -0.593775 0
M  V30 2179 H 201.624 -5.02105 -2.29335 0
M  V30 2180 H 202.101 -3.39721 -2.78363 0
M  V30 2181 H 202.707 -4.06499 -1.25055 0
M  V30 2182 N 201.022 0.148545 -1.56898 0
M  V30 2183 C 202.252 0.875118 -1.8715 0
M  V30 2184 C 202.66 1.75322 -0.711262 0
M  V30 2185 O 202.003 1.80745 0.328151 0
M  V30 2186 C 202.065 1.7844 -3.12089 0
M  V30 2187 C 201.729 1.08361 -4.43967 0
M  V30 2188 C 202.726 0.438247 -5.1805 0
M  V30 2189 C 200.411 1.07358 -4.90693 0
M  V30 2190 C 202.405 -0.20779 -6.37061 0
M  V30 2191 C 200.092 0.42373 -6.09629 0
M  V30 2192 C 201.09 -0.215829 -6.82659 0
M  V30 2193 O 200.778 -0.855378 -7.99336 0
M  V30 2194 H 200.51 0.258504 -0.624621 0
M  V30 2195 H 203.064 0.14652 -2.04877 0
M  V30 2196 H 201.294 2.55389 -2.90367 0
M  V30 2197 H 202.983 2.38279 -3.286 0
M  V30 2198 H 203.749 0.437817 -4.8302 0
M  V30 2199 H 199.628 1.5608 -4.33774 0
M  V30 2200 H 203.172 -0.70758 -6.94002 0
M  V30 2201 H 199.069 0.421822 -6.4412 0
M  V30 2202 H 199.837 -0.756892 -8.14993 0
M  V30 2203 N 202.5 1.5196 0.417844 0
M  V30 2204 C 203.748 1.65263 1.16329 0
M  V30 2205 C 204.069 0.380634 1.91249 0
M  V30 2206 O 203.339 -0.604214 1.86349 0
M  V30 2207 H 201.919 0.60912 0.432414 0
M  V30 2208 H 204.581 1.88969 0.477162 0
M  V30 2209 H 203.677 2.4896 1.88217 0
M  V30 2210 N 203.978 -0.674533 1.42435 0
M  V30 2211 C 205.206 -1.46283 1.46317 0
M  V30 2212 C 205.621 -1.88653 0.0745836 0
M  V30 2213 O 204.978 -1.58151 -0.91074 0
M  V30 2214 C 205.029 -2.71178 2.3905 0
M  V30 2215 O 204.75 -2.30586 3.72507 0
M  V30 2216 C 206.251 -3.64738 2.51955 0
M  V30 2217 H 203.471 -0.450104 0.497642 0
M  V30 2218 H 206.015 -0.828792 1.86953 0
M  V30 2219 H 204.17 -3.3077 2.01667 0
M  V30 2220 H 204.584 -3.11241 4.22172 0
M  V30 2221 H 206.058 -4.49096 3.20962 0
M  V30 2222 H 206.535 -4.10656 1.55752 0
M  V30 2223 H 207.141 -3.11038 2.90061 0
M  V30 2224 N 205.456 -1.28612 -0.910864 0
M  V30 2225 C 206.704 -1.15705 -1.65701 0
M  V30 2226 C 207.025 0.29416 -1.92769 0
M  V30 2227 O 206.295 1.20331 -1.54588 0
M  V30 2228 H 204.875 -0.425216 -0.614167 0
M  V30 2229 H 207.537 -1.61381 -1.0928 0
M  V30 2230 H 206.633 -1.6988 -2.61815 0
M  V30 2231 N 206.934 1.1197 -1.10907 0
M  V30 2232 C 208.159 1.87942 -0.877064 0
M  V30 2233 C 208.584 1.79341 0.567314 0
M  V30 2234 O 207.942 1.15184 1.40009 0
M  V30 2235 C 207.99 3.34926 -1.33629 0
M  V30 2236 O 207.094 4.09303 -0.504447 0
M  V30 2237 H 206.435 0.583785 -0.316371 0
M  V30 2238 H 208.965 1.4157 -1.47712 0
M  V30 2239 H 208.975 3.8577 -1.32837 0
M  V30 2240 H 207.65 3.40504 -2.3881 0
M  V30 2241 H 206.227 3.68393 -0.577993 0
M  V30 2242 N 208.412 0.89855 1.29475 0
M  V30 2243 C 209.345 0.319981 2.25945 0
M  V30 2244 C 210.323 -0.567189 1.52387 0
M  V30 2245 O 211.507 -0.514254 1.8135 0
M  V30 2246 C 208.634 -0.544013 3.34303 0
M  V30 2247 C 207.68 0.275682 4.25608 0
M  V30 2248 S 208.513 1.67272 5.08704 0
M  V30 2249 C 209.669 0.815621 6.20563 0
M  V30 2250 H 209.902 1.13767 2.74671 0
M  V30 2251 H 207.435 0.69882 1.3768 0
M  V30 2252 H 209.393 -1.03673 3.97193 0
M  V30 2253 H 208.054 -1.33593 2.84274 0
M  V30 2254 H 207.247 -0.384263 5.02533 0
M  V30 2255 H 206.849 0.701496 3.67362 0
M  V30 2256 H 209.141 0.0385042 6.77489 0
M  V30 2257 H 210.084 1.55691 6.90772 0
M  V30 2258 H 210.492 0.370516 5.63283 0
M  V30 2259 N 209.89 -1.43072 0.660911 0
M  V30 2260 C 211.118 -2.06067 0.185422 0
M  V30 2261 C 211.533 -1.49582 -1.15198 0
M  V30 2262 O 210.89 -0.630134 -1.71276 0
M  V30 2263 C 210.941 -3.61371 0.0966523 0
M  V30 2264 O 210.662 -4.15758 1.38119 0
M  V30 2265 C 212.163 -4.41455 -0.403996 0
M  V30 2266 H 209.383 -0.664459 0.0934604 0
M  V30 2267 H 211.927 -1.83447 0.90373 0
M  V30 2268 H 210.082 -3.8315 -0.572259 0
M  V30 2269 H 210.496 -5.09499 1.24542 0
M  V30 2270 H 211.97 -5.50437 -0.415045 0
M  V30 2271 H 212.447 -4.15036 -1.43674 0
M  V30 2272 H 213.053 -4.24663 0.232691 0
M  V30 2273 N 211.368 -0.403325 -1.52352 0
M  V30 2274 C 212.616 0.174003 -2.0135 0
M  V30 2275 C 212.937 1.46139 -1.29106 0
M  V30 2276 O 212.207 1.91448 -0.415253 0
M  V30 2277 H 210.787 0.0672911 -0.743963 0
M  V30 2278 H 213.449 -0.538235 -1.87321 0
M  V30 2279 H 212.545 0.374254 -3.09848 0
M  V30 2280 N 212.846 1.57033 -0.133567 0
M  V30 2281 C 214.095 1.94861 0.520768 0
M  V30 2282 C 214.408 1.02012 1.66892 0
M  V30 2283 O 215.614 1.29365 2.38699 0
M  V30 2284 C 214.07 3.46362 0.977809 0
M  V30 2285 C 213.678 4.47773 -0.142674 0
M  V30 2286 C 215.422 3.93083 1.60269 0
M  V30 2287 C 213.329 5.90468 0.331883 0
M  V30 2288 H 212.259 0.727453 0.198315 0
M  V30 2289 H 214.91 1.82227 -0.215759 0
M  V30 2290 H 213.292 3.54282 1.7692 0
M  V30 2291 H 214.466 4.51536 -0.919317 0
M  V30 2292 H 212.781 4.10891 -0.675124 0
M  V30 2293 H 215.378 4.97121 1.96914 0
M  V30 2294 H 215.721 3.33876 2.48662 0
M  V30 2295 H 216.254 3.88025 0.876453 0
M  V30 2296 H 212.993 6.53463 -0.516341 0
M  V30 2297 H 212.513 5.90094 1.07469 0
M  V30 2298 H 214.192 6.42179 0.788332 0
M  V30 2299 N 214.325 -0.140222 1.56975 0
M  V30 2300 C 215.255 -1.17456 2.01808 0
M  V30 2301 C 216.236 -1.44415 0.898794 0
M  V30 2302 O 217.421 -1.5522 1.16707 0
M  V30 2303 C 214.551 -2.50607 2.40444 0
M  V30 2304 C 213.505 -2.38155 3.55621 0
M  V30 2305 C 212.831 -3.76078 3.80091 0
M  V30 2306 C 214.131 -1.85991 4.88062 0
M  V30 2307 H 215.825 -0.801743 2.88466 0
M  V30 2308 H 213.371 -0.38422 1.38779 0
M  V30 2309 H 215.324 -3.23197 2.7041 0
M  V30 2310 H 214.048 -2.89737 1.50732 0
M  V30 2311 H 212.707 -1.68016 3.25832 0
M  V30 2312 H 212.355 -4.12656 2.87618 0
M  V30 2313 H 212.055 -3.68606 4.57606 0
M  V30 2314 H 213.579 -4.50206 4.12488 0
M  V30 2315 H 214.993 -2.4838 5.16701 0
M  V30 2316 H 213.39 -1.89393 5.6943 0
M  V30 2317 H 214.46 -0.816023 4.77984 0
M  V30 2318 N 215.803 -1.52179 -0.40978 0
M  V30 2319 C 217.051 -1.65878 -1.15451 0
M  V30 2320 C 217.372 -0.390771 -1.91044 0
M  V30 2321 O 216.642 0.594323 -1.86667 0
M  V30 2322 H 215.222 -0.611405 -0.429177 0
M  V30 2323 H 217.884 -1.89219 -0.467134 0
M  V30 2324 H 216.98 -2.49954 -1.86894 0
M  V30 2325 N 217.281 0.66697 -1.42791 0
M  V30 2326 C 218.511 1.45294 -1.46878 0
M  V30 2327 C 218.919 1.89027 -0.0809861 0
M  V30 2328 O 218.262 1.59219 0.916246 0
M  V30 2329 C 218.324 2.72908 -2.34012 0
M  V30 2330 C 217.988 2.51203 -3.81767 0
M  V30 2331 C 218.985 2.15302 -4.73224 0
M  V30 2332 C 216.67 2.65954 -4.26115 0
M  V30 2333 C 218.664 1.94431 -6.07022 0
M  V30 2334 C 216.351 2.44699 -5.59969 0
M  V30 2335 C 217.349 2.08992 -6.5024 0
M  V30 2336 O 217.037 1.87948 -7.81621 0
M  V30 2337 H 216.769 0.453306 -0.501487 0
M  V30 2338 H 219.323 0.826232 -1.88049 0
M  V30 2339 H 217.553 3.38089 -1.87703 0
M  V30 2340 H 219.242 3.34816 -2.29462 0
M  V30 2341 H 220.008 2.03495 -4.40244 0
M  V30 2342 H 215.887 2.92724 -3.56137 0
M  V30 2343 H 219.431 1.66484 -6.77443 0
M  V30 2344 H 215.328 2.56105 -5.9252 0
M  V30 2345 H 216.096 2.02483 -7.93059 0
M  V30 2346 N 218.759 1.29093 0.90403 0
M  V30 2347 C 220.036 1.075 1.63411 0
M  V30 2348 C 220.416 -0.382346 2.07609 0
M  V30 2349 O 219.764 -1.37031 1.82851 0
M  V30 2350 C 219.974 2.05858 2.81822 0
M  V30 2351 C 221.322 2.36539 3.52611 0
M  V30 2352 O 222.346 2.04019 2.91984 0
M  V30 2353 O 221.205 2.92085 4.61897 0
M  V30 2354 H 218.299 0.411547 0.717327 0
M  V30 2355 H 220.845 1.40449 0.952479 0
M  V30 2356 H 219.617 3.04037 2.46327 0
M  V30 2357 H 219.24 1.73613 3.57693 0
M  V30 2358 N 220.237 -1.11381 1.11499 0
M  V30 2359 C 221.465 -1.86934 0.88675 0
M  V30 2360 C 221.88 -1.80195 -0.563476 0
M  V30 2361 O 221.237 -1.18367 -1.38908 0
M  V30 2362 C 221.288 -3.35722 1.34064 0
M  V30 2363 O 221.009 -3.4232 2.73401 0
M  V30 2364 C 222.51 -4.2818 1.14791 0
M  V30 2365 H 219.73 -0.591117 0.317523 0
M  V30 2366 H 222.274 -1.40865 1.48248 0
M  V30 2367 H 220.429 -3.79294 0.788355 0
M  V30 2368 H 220.843 -4.34971 2.93087 0
M  V30 2369 H 222.317 -5.30817 1.5145 0
M  V30 2370 H 222.794 -4.39113 0.0875279 0
M  V30 2371 H 223.4 -3.90402 1.68721 0
M  V30 2372 N 221.715 -0.905404 -1.28997 0
M  V30 2373 C 222.961 -0.535039 -1.95615 0
M  V30 2374 C 223.294 0.917404 -1.71165 0
M  V30 2375 O 222.569 1.65123 -1.02785 0
M  V30 2376 C 222.852 -0.834918 -3.50287 0
M  V30 2377 C 222.705 -2.33948 -3.84172 0
M  V30 2378 C 224.024 -0.325318 -4.38896 0
M  V30 2379 H 221.143 -0.195861 -0.710498 0
M  V30 2380 H 223.785 -1.13313 -1.52513 0
M  V30 2381 H 221.935 -0.325904 -3.87131 0
M  V30 2382 H 223.607 -2.91847 -3.57243 0
M  V30 2383 H 221.85 -2.79789 -3.31513 0
M  V30 2384 H 222.521 -2.49987 -4.92149 0
M  V30 2385 H 224.997 -0.761256 -4.09077 0
M  V30 2386 H 223.873 -0.564295 -5.45992 0
M  V30 2387 H 224.134 0.774144 -4.35269 0
M  V30 2388 N 223.193 1.4272 -0.668489 0
M  V30 2389 C 224.125 2.2914 0.052613 0
M  V30 2390 C 225.138 1.43339 0.771857 0
M  V30 2391 O 226.327 1.67123 0.627067 0
M  V30 2392 C 223.427 3.20618 1.09804 0
M  V30 2393 C 222.6 4.35039 0.45389 0
M  V30 2394 C 221.659 5.07282 1.39825 0
M  V30 2395 O 220.685 5.62024 0.900978 0
M  V30 2396 N 221.887 5.12206 2.73176 0
M  V30 2397 H 224.652 2.91668 -0.689209 0
M  V30 2398 H 222.213 1.53577 -0.512422 0
M  V30 2399 H 224.205 3.65815 1.73094 0
M  V30 2400 H 222.775 2.59585 1.74167 0
M  V30 2401 H 221.995 3.92567 -0.358396 0
M  V30 2402 H 223.283 5.088 0.00486972 0
M  V30 2403 H 222.681 4.6913 3.16122 0
M  V30 2404 H 221.238 5.61069 3.31729 0
M  V30 2405 N 224.671 0.411399 1.52136 0
M  V30 2406 C 225.917 -0.163888 2.02137 0
M  V30 2407 C 226.25 -1.44597 1.29636 0
M  V30 2408 O 225.525 -1.90272 0.403353 0
M  V30 2409 C 225.808 -0.40927 3.57767 0
M  V30 2410 C 225.661 0.889643 4.40914 0
M  V30 2411 C 226.98 -1.19042 4.23694 0
M  V30 2412 H 224.099 -0.0580896 0.734707 0
M  V30 2413 H 226.741 0.54531 1.82007 0
M  V30 2414 H 224.891 -1.0134 3.7505 0
M  V30 2415 H 226.563 1.52575 4.35337 0
M  V30 2416 H 224.806 1.50011 4.07037 0
M  V30 2417 H 225.477 0.672314 5.4789 0
M  V30 2418 H 227.953 -0.678942 4.10524 0
M  V30 2419 H 226.829 -1.33086 5.32522 0
M  V30 2420 H 227.09 -2.21166 3.82803 0
M  V30 2421 N 226.149 -1.5696 0.141893 0
M  V30 2422 C 227.397 -1.95573 -0.509484 0
M  V30 2423 C 227.718 -1.02746 -1.65736 0
M  V30 2424 O 226.988 -0.0880311 -1.95702 0
M  V30 2425 H 225.568 -0.722115 -0.191205 0
M  V30 2426 H 228.23 -1.93697 0.216196 0
M  V30 2427 H 227.326 -2.99171 -0.889 0
M  V30 2428 N 227.627 0.131896 -1.57047 0
M  V30 2429 C 228.875 0.840269 -1.83804 0
M  V30 2430 C 229.196 1.81017 -0.72512 0
M  V30 2431 O 228.466 1.94272 0.251995 0
M  V30 2432 H 227.046 0.313294 -0.678127 0
M  V30 2433 H 229.708 0.122294 -1.94516 0
M  V30 2434 H 228.804 1.39335 -2.79271 0
M  V30 2435 N 229.106 1.52395 0.401703 0
M  V30 2436 C 230.355 1.66044 1.14509 0
M  V30 2437 C 230.668 0.400216 1.91462 0
M  V30 2438 O 231.874 0.416632 2.68284 0
M  V30 2439 C 230.33 2.93388 2.0845 0
M  V30 2440 C 229.938 4.26545 1.36978 0
M  V30 2441 C 231.682 3.16402 2.83001 0
M  V30 2442 C 229.589 5.45007 2.29611 0
M  V30 2443 H 228.519 0.618562 0.431158 0
M  V30 2444 H 231.17 1.78886 0.40892 0
M  V30 2445 H 229.552 2.74263 2.8565 0
M  V30 2446 H 230.726 4.56179 0.650916 0
M  V30 2447 H 229.041 4.09692 0.74438 0
M  V30 2448 H 231.638 4.02085 3.52465 0
M  V30 2449 H 231.981 2.30943 3.46368 0
M  V30 2450 H 232.514 3.36034 2.12898 0
M  V30 2451 H 229.253 6.32835 1.70879 0
M  V30 2452 H 228.773 5.19702 2.9945 0
M  V30 2453 H 230.452 5.7838 2.89974 0
M  V30 2454 N 230.584 -0.659388 1.43143 0
M  V30 2455 C 231.809 -1.45221 1.48073 0
M  V30 2456 C 232.234 -1.87845 0.097995 0
M  V30 2457 O 231.592 -1.56985 -0.90694 0
M  V30 2458 C 231.64 -2.66748 2.42647 0
M  V30 2459 O 230.744 -3.65583 1.90848 0
M  V30 2460 H 230.085 -0.435669 0.501088 0
M  V30 2461 H 232.615 -0.807432 1.87994 0
M  V30 2462 H 232.625 -3.14637 2.59745 0
M  V30 2463 H 231.3 -2.35067 3.43098 0
M  V30 2464 H 229.877 -3.24693 1.83381 0
M  V30 2465 N 232.062 -1.29571 -0.897171 0
M  V30 2466 C 233.339 -1.08365 -1.62839 0
M  V30 2467 C 233.719 0.371331 -2.07808 0
M  V30 2468 O 233.067 1.3606 -1.83576 0
M  V30 2469 C 233.277 -2.0735 -2.80726 0
M  V30 2470 C 234.625 -2.38406 -3.51351 0
M  V30 2471 O 235.649 -2.05564 -2.90898 0
M  V30 2472 O 234.508 -2.9453 -4.60341 0
M  V30 2473 H 231.602 -0.415345 -0.715134 0
M  V30 2474 H 234.148 -1.40952 -0.945018 0
M  V30 2475 H 232.92 -3.05339 -2.44711 0
M  V30 2476 H 232.543 -1.75507 -3.56767 0
M  V30 2477 N 233.54 1.10788 -1.12088 0
M  V30 2478 C 234.768 1.86461 -0.896651 0
M  V30 2479 C 235.183 1.80492 0.553912 0
M  V30 2480 O 234.54 1.19102 1.38278 0
M  V30 2481 C 234.591 3.35006 -1.35843 0
M  V30 2482 O 234.312 3.40866 -2.75213 0
M  V30 2483 C 235.813 4.27565 -1.1706 0
M  V30 2484 H 233.033 0.589425 -0.320654 0
M  V30 2485 H 235.577 1.40076 -1.48993 0
M  V30 2486 H 233.732 3.7887 -0.808458 0
M  V30 2487 H 234.146 4.33411 -2.9539 0
M  V30 2488 H 235.62 5.30007 -1.54263 0
M  V30 2489 H 236.097 4.3906 -0.110814 0
M  V30 2490 H 236.703 3.89501 -1.70789 0
M  V30 2491 N 235.018 0.912232 1.28515 0
M  V30 2492 C 235.966 0.389597 2.29314 0
M  V30 2493 C 236.96 -0.517915 1.61289 0
M  V30 2494 O 238.166 -0.399328 1.75515 0
M  V30 2495 H 234.541 0.107386 0.744293 0
M  V30 2496 H 236.512 1.25286 2.70825 0
M  V30 2497 C 235.261 -0.356496 3.45868 0
M  V30 2498 H 234.584 0.332608 3.98414 0
M  V30 2499 H 236.024 -0.686851 4.184 0
M  V30 2500 C 234.483 -1.56383 2.98406 0
M  V30 2501 O 235.013 -2.66294 3.00749 0
M  V30 2502 N 233.219 -1.41029 2.54085 0
M  V30 2503 H 232.766 -0.516089 2.52377 0
M  V30 2504 H 232.724 -2.21939 2.22689 0
M  V30 2505 N 236.496 -1.42363 0.676048 0
M  V30 2506 C 237.428 -2.29164 -0.0404605 0
M  V30 2507 C 238.441 -1.43747 -0.764245 0
M  V30 2508 O 239.63 -1.67453 -0.618195 0
M  V30 2509 C 236.73 -3.21196 -1.08103 0
M  V30 2510 C 235.903 -4.35273 -0.430812 0
M  V30 2511 C 234.962 -5.08017 -1.37133 0
M  V30 2512 O 233.988 -5.62494 -0.87116 0
M  V30 2513 N 235.19 -5.13647 -2.70456 0
M  V30 2514 H 237.955 -2.91298 0.704667 0
M  V30 2515 H 235.516 -1.53303 0.520559 0
M  V30 2516 H 237.508 -3.66728 -1.71152 0
M  V30 2517 H 236.078 -2.60505 -1.72788 0
M  V30 2518 H 235.298 -3.92372 0.379209 0
M  V30 2519 H 236.586 -5.08795 0.0221132 0
M  V30 2520 H 235.984 -4.708 -3.1363 0
M  V30 2521 H 234.541 -5.62821 -3.28749 0
M  V30 2522 N 237.974 -0.419461 -1.51915 0
M  V30 2523 C 239.223 0.154346 -2.01109 0
M  V30 2524 C 239.536 1.45338 -1.30905 0
M  V30 2525 O 240.742 2.10906 -1.7097 0
M  V30 2526 C 239.198 0.325615 -3.58424 0
M  V30 2527 C 238.806 -0.961934 -4.37551 0
M  V30 2528 C 240.55 0.854155 -4.15818 0
M  V30 2529 C 238.457 -0.757287 -5.86531 0
M  V30 2530 H 237.387 0.0614563 -0.751491 0
M  V30 2531 H 240.038 -0.54649 -1.75173 0
M  V30 2532 H 238.42 1.08903 -3.80731 0
M  V30 2533 H 239.594 -1.7323 -4.26999 0
M  V30 2534 H 237.909 -1.41766 -3.91524 0
M  V30 2535 H 240.506 1.02346 -5.24814 0
M  V30 2536 H 240.849 1.83172 -3.73837 0
M  V30 2537 H 241.382 0.149528 -3.97519 0
M  V30 2538 H 238.121 -1.70671 -6.32892 0
M  V30 2539 H 237.641 -0.0264061 -5.99794 0
M  V30 2540 H 239.32 -0.403482 -6.45741 0
M  V30 2541 N 239.452 1.56882 -0.150215 0
M  V30 2542 C 240.699 1.96228 0.500093 0
M  V30 2543 C 241.027 1.03522 1.64661 0
M  V30 2544 O 240.282 0.0650683 1.95592 0
M  V30 2545 C 240.581 3.41801 1.04437 0
M  V30 2546 C 240.247 4.50897 0.0159671 0
M  V30 2547 C 238.909 4.8046 -0.266731 0
M  V30 2548 C 241.261 5.16703 -0.683192 0
M  V30 2549 C 238.589 5.73135 -1.25434 0
M  V30 2550 C 240.941 6.10441 -1.65964 0
M  V30 2551 C 239.605 6.38382 -1.95 0
M  V30 2552 H 238.875 0.718048 0.182997 0
M  V30 2553 H 241.522 1.90019 -0.237724 0
M  V30 2554 H 239.827 3.44857 1.85959 0
M  V30 2555 H 241.524 3.69573 1.55618 0
M  V30 2556 H 238.114 4.27891 0.246485 0
M  V30 2557 H 242.298 4.93993 -0.477983 0
M  V30 2558 H 237.554 5.93074 -1.48571 0
M  V30 2559 H 241.728 6.60507 -2.20689 0
M  V30 2560 H 239.355 7.09996 -2.71679 0
M  V30 2561 N 240.93 -0.123565 1.57115 0
M  V30 2562 C 242.178 -0.83051 1.84247 0
M  V30 2563 C 242.499 -1.80629 0.73471 0
M  V30 2564 O 241.769 -1.94403 -0.241688 0
M  V30 2565 H 240.349 -0.309694 0.679778 0
M  V30 2566 H 243.011 -0.111976 1.94578 0
M  V30 2567 H 242.107 -1.37852 2.80006 0
M  V30 2568 N 242.408 -1.52605 -0.393616 0
M  V30 2569 C 243.338 -1.80022 -1.48709 0
M  V30 2570 C 244.319 -0.651995 -1.57108 0
M  V30 2571 O 245.504 -0.89913 -1.72132 0
M  V30 2572 C 242.634 -1.96492 -2.86371 0
M  V30 2573 C 241.588 -3.12161 -2.92813 0
M  V30 2574 C 240.914 -3.13877 -4.3288 0
M  V30 2575 C 242.214 -4.51322 -2.6288 0
M  V30 2576 H 243.908 -2.71589 -1.26015 0
M  V30 2577 H 241.454 -1.30684 -0.604778 0
M  V30 2578 H 243.407 -2.14255 -3.62867 0
M  V30 2579 H 242.131 -1.01611 -3.10391 0
M  V30 2580 H 240.79 -2.94173 -2.18764 0
M  V30 2581 H 240.438 -2.16687 -4.53933 0
M  V30 2582 H 240.138 -3.91576 -4.38112 0
M  V30 2583 H 241.662 -3.33789 -5.1129 0
M  V30 2584 H 243.076 -4.69435 -3.29096 0
M  V30 2585 H 241.473 -5.31053 -2.79468 0
M  V30 2586 H 242.543 -4.58353 -1.58242 0
M  V30 2587 N 243.887 0.651787 -1.4349 0
M  V30 2588 C 245.112 1.44434 -1.48841 0
M  V30 2589 C 245.537 1.8779 -0.107955 0
M  V30 2590 O 244.895 1.57464 0.898602 0
M  V30 2591 C 244.943 2.65458 -2.44059 0
M  V30 2592 O 244.047 3.64566 -1.92784 0
M  V30 2593 H 243.388 0.433005 -0.503391 0
M  V30 2594 H 245.918 0.797451 -1.88419 0
M  V30 2595 H 245.928 3.13255 -2.6141 0
M  V30 2596 H 244.603 2.33244 -3.4434 0
M  V30 2597 H 243.18 3.23716 -1.851 0
M  V30 2598 N 245.365 1.30045 0.890287 0
M  V30 2599 C 246.275 1.17885 2.02831 0
M  V30 2600 C 247.291 0.0999609 1.73713 0
M  V30 2601 O 248.467 0.313867 1.98939 0
M  V30 2602 C 245.532 0.866079 3.35708 0
M  V30 2603 C 244.593 2.02979 3.78283 0
M  V30 2604 C 243.826 1.73184 5.0482 0
M  V30 2605 O 244.049 0.657237 5.66601 0
M  V30 2606 O 242.983 2.58267 5.43674 0
M  V30 2607 H 246.809 2.13474 2.16015 0
M  V30 2608 H 244.394 1.09587 1.01543 0
M  V30 2609 H 246.276 0.706623 4.15433 0
M  V30 2610 H 244.951 -0.0599443 3.23644 0
M  V30 2611 H 243.858 2.24454 2.99285 0
M  V30 2612 H 245.191 2.93734 3.94944 0
M  V30 2613 N 246.843 -1.10192 1.12674 0
M  V30 2614 C 248.071 -1.85983 0.906527 0
M  V30 2615 C 248.486 -1.80783 -0.544333 0
M  V30 2616 O 247.843 -1.19834 -1.37645 0
M  V30 2617 C 247.894 -3.34281 1.37618 0
M  V30 2618 O 247.615 -3.39401 2.77017 0
M  V30 2619 C 249.116 -4.26938 1.19325 0
M  V30 2620 H 246.336 -0.587716 0.323775 0
M  V30 2621 H 248.88 -1.39284 1.49734 0
M  V30 2622 H 247.035 -3.78436 0.828539 0
M  V30 2623 H 247.449 -4.31838 2.97684 0
M  V30 2624 H 248.923 -5.29181 1.57071 0
M  V30 2625 H 249.4 -4.38995 0.134097 0
M  V30 2626 H 250.006 -3.8859 1.72852 0
M  V30 2627 N 248.321 -0.919034 -1.28029 0
M  V30 2628 C 249.231 -0.416756 -2.30869 0
M  V30 2629 C 250.247 0.498235 -1.66714 0
M  V30 2630 O 251.423 0.383144 -1.97722 0
M  V30 2631 C 248.488 0.330274 -3.45123 0
M  V30 2632 C 247.549 -0.618578 -4.2482 0
M  V30 2633 C 246.782 0.0928959 -5.33619 0
M  V30 2634 O 247.005 1.31375 -5.55065 0
M  V30 2635 O 245.939 -0.574499 -5.99152 0
M  V30 2636 H 249.765 -1.27043 -2.75851 0
M  V30 2637 H 247.35 -0.684052 -1.3282 0
M  V30 2638 H 249.232 0.751972 -4.14636 0
M  V30 2639 H 247.907 1.1597 -3.02213 0
M  V30 2640 H 246.814 -1.08978 -3.57875 0
M  V30 2641 H 248.147 -1.41497 -4.71423 0
M  V30 2642 N 249.799 1.42003 -0.683588 0
M  V30 2643 C 251.21 1.84501 -0.285736 0
M  V30 2644 C 251.561 1.57213 1.17382 0
M  V30 2645 O 250.686 1.03642 1.89966 0
M  V30 2646 C 251.281 3.34912 -0.511821 0
M  V30 2647 C 249.84 3.76025 -0.168005 0
M  V30 2648 C 248.987 2.6551 -0.799983 0
M  V30 2649 H 251.938 1.31724 -0.885119 0
M  V30 2650 H 251.959 3.79784 0.233292 0
M  V30 2651 H 251.471 3.54741 -1.57418 0
M  V30 2652 H 249.572 3.61801 0.890567 0
M  V30 2653 H 249.685 4.75141 -0.614661 0
M  V30 2654 H 248.049 2.53654 -0.230568 0
M  V30 2655 H 248.832 2.8816 -1.86597 0
M  V30 2656 N 251.277 0.427512 1.51691 0
M  V30 2657 C 252.525 -0.141948 2.01601 0
M  V30 2658 C 252.846 -1.44067 1.31414 0
M  V30 2659 O 252.116 -1.90763 0.445658 0
M  V30 2660 H 250.696 -0.0554468 0.744939 0
M  V30 2661 H 253.358 0.567968 1.86441 0
M  V30 2662 H 252.454 -0.324913 3.10404 0
M  V30 2663 N 252.755 -1.56801 0.158532 0
M  V30 2664 C 253.98 -2.01295 -0.499516 0
M  V30 2665 C 254.405 -1.03799 -1.56867 0
M  V30 2666 O 253.763 -0.0155162 -1.81293 0
M  V30 2667 C 253.811 -3.44469 -1.06647 0
M  V30 2668 O 252.915 -3.50012 -2.18095 0
M  V30 2669 H 252.256 -0.652884 -0.12099 0
M  V30 2670 H 254.786 -2.02958 0.258661 0
M  V30 2671 H 254.796 -3.8351 -1.39227 0
M  V30 2672 H 253.471 -4.14932 -0.283581 0
M  V30 2673 H 252.048 -3.22822 -1.86656 0
M  V30 2674 N 254.233 0.115231 -1.57178 0
M  V30 2675 C 255.48 0.822351 -1.8505 0
M  V30 2676 C 255.808 1.79701 -0.744168 0
M  V30 2677 O 255.063 1.93909 0.26414 0
M  V30 2678 C 255.362 1.60324 -3.19423 0
M  V30 2679 C 255.028 0.772536 -4.44233 0
M  V30 2680 C 253.69 0.543468 -4.78121 0
M  V30 2681 C 256.042 0.193746 -5.2084 0
M  V30 2682 C 253.37 -0.274583 -5.86057 0
M  V30 2683 C 255.722 -0.611517 -6.29637 0
M  V30 2684 C 254.386 -0.850867 -6.62055 0
M  V30 2685 H 253.656 0.30092 -0.677147 0
M  V30 2686 H 256.303 0.0845802 -1.91313 0
M  V30 2687 H 254.608 2.41203 -3.08753 0
M  V30 2688 H 256.305 2.1544 -3.38211 0
M  V30 2689 H 252.895 0.96117 -4.17683 0
M  V30 2690 H 257.079 0.357926 -4.95008 0
M  V30 2691 H 252.335 -0.469206 -6.09597 0
M  V30 2692 H 256.509 -1.06697 -6.88178 0
M  V30 2693 H 254.136 -1.48657 -7.45523 0
M  V30 2694 N 255.711 1.52812 0.385517 0
M  V30 2695 C 256.641 1.80808 1.47752 0
M  V30 2696 C 257.622 0.660318 1.5676 0
M  V30 2697 O 258.807 0.908246 1.71652 0
M  V30 2698 C 255.937 1.98008 2.85324 0
M  V30 2699 C 254.891 3.13709 2.91154 0
M  V30 2700 C 254.217 3.16169 4.31209 0
M  V30 2701 C 255.517 4.52709 2.60483 0
M  V30 2702 H 257.211 2.72253 1.24573 0
M  V30 2703 H 254.757 1.31003 0.597839 0
M  V30 2704 H 256.71 2.16176 3.61726 0
M  V30 2705 H 255.434 1.03255 3.09848 0
M  V30 2706 H 254.093 2.95329 2.17201 0
M  V30 2707 H 253.741 2.19092 4.52778 0
M  V30 2708 H 253.441 3.93894 4.36029 0
M  V30 2709 H 254.965 3.36496 5.09512 0
M  V30 2710 H 256.379 4.71173 3.26602 0
M  V30 2711 H 254.776 5.32528 2.76648 0
M  V30 2712 H 255.846 4.59186 1.55809 0
M  V30 2713 N 257.189 -0.644168 1.43834 0
M  V30 2714 C 258.419 -1.42939 1.49171 0
M  V30 2715 C 258.827 -1.88874 0.111048 0
M  V30 2716 O 258.17 -1.60656 -0.8908 0
M  V30 2717 C 258.232 -2.69151 2.38324 0
M  V30 2718 C 257.896 -2.45097 3.85715 0
M  V30 2719 C 258.893 -2.07747 4.76589 0
M  V30 2720 C 256.578 -2.59141 4.30292 0
M  V30 2721 C 258.572 -1.8475 6.10038 0
M  V30 2722 C 256.259 -2.35759 5.63792 0
M  V30 2723 C 257.257 -1.9862 6.53482 0
M  V30 2724 O 256.945 -1.75489 7.84512 0
M  V30 2725 H 256.677 -0.445271 0.508635 0
M  V30 2726 H 259.231 -0.79621 1.8934 0
M  V30 2727 H 257.461 -3.3506 1.93058 0
M  V30 2728 H 259.15 -3.31123 2.3476 0
M  V30 2729 H 259.916 -1.96465 4.43426 0
M  V30 2730 H 255.795 -2.87022 3.60749 0
M  V30 2731 H 259.339 -1.55686 6.80006 0
M  V30 2732 H 255.236 -2.46646 5.9652 0
M  V30 2733 H 256.004 -1.89841 7.9618 0
M  V30 2734 N 258.668 -1.30515 -0.883378 0
M  V30 2735 C 259.898 -1.22182 -1.66599 0
M  V30 2736 C 260.306 0.217507 -1.87946 0
M  V30 2737 O 259.649 1.1554 -1.42815 0
M  V30 2738 C 259.711 -1.88146 -3.06335 0
M  V30 2739 C 259.375 -3.37476 -3.08154 0
M  V30 2740 C 260.372 -4.33443 -2.87094 0
M  V30 2741 C 258.057 -3.7895 -3.29701 0
M  V30 2742 C 260.051 -5.68858 -2.8754 0
M  V30 2743 C 257.738 -5.14482 -3.29776 0
M  V30 2744 C 258.736 -6.09246 -3.0872 0
M  V30 2745 O 258.424 -7.42302 -3.08615 0
M  V30 2746 H 258.156 -0.423898 -0.52658 0
M  V30 2747 H 260.71 -1.72703 -1.11188 0
M  V30 2748 H 258.94 -1.32157 -3.63416 0
M  V30 2749 H 260.629 -1.7391 -3.66756 0
M  V30 2750 H 261.395 -4.02733 -2.70243 0
M  V30 2751 H 257.274 -3.05631 -3.45124 0
M  V30 2752 H 260.818 -6.428 -2.71024 0
M  V30 2753 H 256.715 -5.44832 -3.46163 0
M  V30 2754 H 257.483 -7.5131 -3.24769 0
M  V30 2755 N 260.146 1.09593 -1.13257 0
M  V30 2756 C 261.109 2.14359 -0.811358 0
M  V30 2757 C 262.109 1.59808 0.178377 0
M  V30 2758 O 263.299 1.74132 -0.0484911 0
M  V30 2759 C 260.431 3.40269 -0.207276 0
M  V30 2760 H 261.624 2.44284 -1.73969 0
M  V30 2761 H 259.177 1.25102 -0.936973 0
M  V30 2762 H 259.912 3.15969 0.73036 0
M  V30 2763 H 259.697 3.81154 -0.919992 0
M  V30 2764 H 261.187 4.176 0.000667944 0
M  V30 2765 N 261.624 0.925811 1.2754 0
M  V30 2766 C 263.035 0.610102 1.7645 0
M  V30 2767 C 263.386 -0.874723 1.75622 0
M  V30 2768 O 262.511 -1.68444 1.35851 0
M  V30 2769 C 263.106 1.10073 3.20421 0
M  V30 2770 C 261.665 0.835723 3.67005 0
M  V30 2771 C 260.812 1.26054 2.46993 0
M  V30 2772 H 263.763 1.10579 1.13833 0
M  V30 2773 H 263.784 0.447557 3.77859 0
M  V30 2774 H 263.296 2.18143 3.20991 0
M  V30 2775 H 261.397 -0.231249 3.71882 0
M  V30 2776 H 261.51 1.45193 4.56569 0
M  V30 2777 H 259.874 0.679111 2.45479 0
M  V30 2778 H 260.657 2.34984 2.50275 0
M  V30 2779 N 263.102 -1.41638 0.69111 0
M  V30 2780 C 264.349 -2.01299 0.220193 0
M  V30 2781 C 264.677 -1.54715 -1.17871 0
M  V30 2782 O 263.932 -0.747193 -1.80874 0
M  V30 2783 C 264.231 -3.56714 0.221277 0
M  V30 2784 C 263.897 -4.22792 1.56709 0
M  V30 2785 C 262.559 -4.40557 1.93554 0
M  V30 2786 C 264.911 -4.59883 2.45268 0
M  V30 2787 C 262.239 -4.92688 3.18552 0
M  V30 2788 C 264.591 -5.13403 3.69595 0
M  V30 2789 C 263.255 -5.29379 4.06589 0
M  V30 2790 H 262.525 -0.736606 0.0805743 0
M  V30 2791 H 265.172 -1.69598 0.889319 0
M  V30 2792 H 263.477 -3.8818 -0.531391 0
M  V30 2793 H 265.174 -4.00678 -0.160547 0
M  V30 2794 H 261.764 -4.09336 1.2705 0
M  V30 2795 H 265.948 -4.45817 2.18084 0
M  V30 2796 H 261.204 -5.03242 3.47214 0
M  V30 2797 H 265.378 -5.41084 4.38407 0
M  V30 2798 H 263.005 -5.69537 5.03519 0
M  V30 2799 N 264.58 -0.43555 -1.51462 0
M  V30 2800 C 265.857 0.191364 -1.94662 0
M  V30 2801 C 266.237 1.60254 -1.37411 0
M  V30 2802 O 265.585 2.2152 -0.560458 0
M  V30 2803 C 265.795 0.17091 -3.48581 0
M  V30 2804 C 267.143 0.377357 -4.2292 0
M  V30 2805 O 268.167 0.249104 -3.55328 0
M  V30 2806 O 267.026 0.63247 -5.42828 0
M  V30 2807 H 264.12 0.130932 -0.816569 0
M  V30 2808 H 266.666 -0.4934 -1.62369 0
M  V30 2809 H 265.438 -0.815738 -3.82703 0
M  V30 2810 H 265.061 0.898659 -3.87311 0
M  V30 2811 N 266.058 1.56714 -0.166846 0
M  V30 2812 C 267.306 1.96358 0.478305 0
M  V30 2813 C 267.627 1.0537 1.6408 0
M  V30 2814 O 266.897 0.119154 1.95537 0
M  V30 2815 H 265.477 0.725065 0.179692 0
M  V30 2816 H 268.139 1.93329 -0.246985 0
M  V30 2817 H 267.235 3.00547 0.841292 0
M  V30 2818 N 267.536 -0.106894 1.57237 0
M  V30 2819 C 268.785 -0.811163 1.8467 0
M  V30 2820 C 269.098 -1.80469 0.754342 0
M  V30 2821 O 270.304 -2.55601 0.915439 0
M  V30 2822 C 268.76 -1.49337 3.27454 0
M  V30 2823 C 268.368 -0.540217 4.44731 0
M  V30 2824 C 270.112 -2.18206 3.64124 0
M  V30 2825 C 268.019 -1.22634 5.78545 0
M  V30 2826 H 266.949 -0.306679 0.688813 0
M  V30 2827 H 269.6 -0.0639887 1.83388 0
M  V30 2828 H 267.982 -2.2876 3.23241 0
M  V30 2829 H 269.156 0.221659 4.60267 0
M  V30 2830 H 267.471 0.042146 4.16379 0
M  V30 2831 H 270.068 -2.70253 4.61376 0
M  V30 2832 H 270.411 -2.96562 2.92158 0
M  V30 2833 H 270.944 -1.45658 3.70174 0
M  V30 2834 H 267.683 -0.483832 6.53712 0
M  V30 2835 H 267.203 -1.95993 5.66874 0
M  V30 2836 H 268.882 -1.75615 6.2271 0
M  V30 2837 N 269.014 -1.53014 -0.377408 0
M  V30 2838 C 269.944 -1.81589 -1.46791 0
M  V30 2839 C 270.925 -0.668622 -1.56408 0
M  V30 2840 O 272.11 -0.917337 -1.71168 0
M  V30 2841 C 269.24 -1.99519 -2.8427 0
M  V30 2842 C 268.194 -3.15249 -2.89486 0
M  V30 2843 C 267.52 -3.18451 -4.29527 0
M  V30 2844 C 268.82 -4.54084 -2.58079 0
M  V30 2845 H 270.514 -2.7291 -1.23127 0
M  V30 2846 H 268.06 -1.31319 -0.590883 0
M  V30 2847 H 270.013 -2.18092 -3.60575 0
M  V30 2848 H 268.737 -1.04897 -3.09296 0
M  V30 2849 H 267.396 -2.96477 -2.15631 0
M  V30 2850 H 267.044 -2.2149 -4.5161 0
M  V30 2851 H 266.744 -3.962 -4.33934 0
M  V30 2852 H 268.268 -3.39193 -5.07721 0
M  V30 2853 H 269.682 -4.72899 -3.24098 0
M  V30 2854 H 268.079 -5.33987 -2.7382 0
M  V30 2855 H 269.149 -4.60006 -1.53372 0
M  V30 2856 N 270.492 0.636531 -1.44174 0
M  V30 2857 C 271.74 1.39343 -1.46383 0
M  V30 2858 C 272.061 1.94766 -0.0955715 0
M  V30 2859 O 271.331 1.75452 0.871395 0
M  V30 2860 H 269.911 0.517199 -0.538994 0
M  V30 2861 H 272.573 0.74957 -1.7991 0
M  V30 2862 H 271.669 2.22746 -2.18611 0
M  V30 2863 N 271.97 1.30982 0.876444 0
M  V30 2864 C 272.9 1.20668 1.99903 0
M  V30 2865 C 273.881 0.095354 1.69833 0
M  V30 2866 O 275.066 0.27885 1.92188 0
M  V30 2867 C 272.196 0.90655 3.3526 0
M  V30 2868 C 271.15 1.97675 3.79617 0
M  V30 2869 C 270.476 1.52943 5.1236 0
M  V30 2870 C 271.776 3.389 3.97422 0
M  V30 2871 H 273.47 2.14586 2.0879 0
M  V30 2872 H 271.016 1.03308 1.00317 0
M  V30 2873 H 272.969 0.821025 4.13324 0
M  V30 2874 H 271.693 -0.0682969 3.26529 0
M  V30 2875 H 270.352 2.05205 3.03787 0
M  V30 2876 H 270 0.54262 5.00065 0
M  V30 2877 H 269.7 2.24532 5.43009 0
M  V30 2878 H 271.224 1.45786 5.92941 0
M  V30 2879 H 272.638 3.34081 4.659 0
M  V30 2880 H 271.035 4.0865 4.3946 0
M  V30 2881 H 272.105 3.80163 3.01006 0
M  V30 2882 N 273.449 -1.08991 1.13837 0
M  V30 2883 C 274.412 -2.13925 0.822715 0
M  V30 2884 C 275.412 -1.599 -0.1699 0
M  V30 2885 O 276.602 -1.74104 0.0577251 0
M  V30 2886 C 273.734 -3.40155 0.225318 0
M  V30 2887 H 274.927 -2.43358 1.75262 0
M  V30 2888 H 272.48 -1.24603 0.943594 0
M  V30 2889 H 273.215 -3.16352 -0.713594 0
M  V30 2890 H 273 -3.80661 0.940193 0
M  V30 2891 H 274.49 -4.17594 0.0214784 0
M  V30 2892 N 274.927 -0.932562 -1.27047 0
M  V30 2893 C 276.157 -0.591173 -1.97961 0
M  V30 2894 C 276.565 0.836219 -1.69717 0
M  V30 2895 O 275.908 1.56801 -0.957036 0
M  V30 2896 C 275.97 -0.743082 -3.51736 0
M  V30 2897 C 275.634 -2.1435 -4.03613 0
M  V30 2898 C 276.631 -3.11815 -4.16014 0
M  V30 2899 C 274.316 -2.46175 -4.37839 0
M  V30 2900 C 276.31 -4.39211 -4.61923 0
M  V30 2901 C 273.997 -3.73806 -4.83438 0
M  V30 2902 C 274.995 -4.70137 -4.95439 0
M  V30 2903 O 274.683 -5.95496 -5.40037 0
M  V30 2904 H 274.415 -0.222375 -0.638377 0
M  V30 2905 H 276.969 -1.25317 -1.62742 0
M  V30 2906 H 275.199 -0.0239739 -3.86693 0
M  V30 2907 H 276.888 -0.40603 -4.03864 0
M  V30 2908 H 277.654 -2.88549 -3.89826 0
M  V30 2909 H 273.533 -1.71936 -4.27737 0
M  V30 2910 H 277.077 -5.14404 -4.71205 0
M  V30 2911 H 272.974 -3.96888 -5.09068 0
M  V30 2912 H 273.742 -5.98554 -5.58279 0
M  V30 2913 N 276.405 1.4127 -0.698611 0
M  V30 2914 C 277.816 1.84187 -0.305289 0
M  V30 2915 C 278.167 1.58449 1.15708 0
M  V30 2916 O 277.292 1.05651 1.88856 0
M  V30 2917 C 277.887 3.3435 -0.547314 0
M  V30 2918 C 276.446 3.75826 -0.207878 0
M  V30 2919 C 275.593 2.64647 -0.828099 0
M  V30 2920 H 278.544 1.30778 -0.89904 0
M  V30 2921 H 278.565 3.8001 0.192998 0
M  V30 2922 H 278.077 3.53051 -1.61172 0
M  V30 2923 H 276.178 3.62725 0.852143 0
M  V30 2924 H 276.291 4.74462 -0.665021 0
M  V30 2925 H 274.655 2.53395 -0.257458 0
M  V30 2926 H 275.438 2.86165 -1.89643 0
M  V30 2927 N 277.883 0.443576 1.51229 0
M  V30 2928 C 279.108 -0.121648 2.07043 0
M  V30 2929 C 279.533 -1.35156 1.30823 0
M  V30 2930 O 278.891 -1.7793 0.347934 0
M  V30 2931 C 278.939 -0.41624 3.5819 0
M  V30 2932 O 278.043 -1.50163 3.8409 0
M  V30 2933 H 277.384 0.000871367 0.663999 0
M  V30 2934 H 279.914 0.626706 1.94765 0
M  V30 2935 H 279.924 -0.664867 4.02546 0
M  V30 2936 H 278.599 0.482653 4.1309 0
M  V30 2937 H 277.176 -1.24248 3.51592 0
M  V30 2938 N 279.361 -1.56624 0.175154 0
M  V30 2939 C 280.61 -1.96173 -0.468921 0
M  V30 2940 C 280.923 -1.06401 -1.64128 0
M  V30 2941 O 282.129 -1.35648 -2.35185 0
M  V30 2942 C 280.585 -3.48833 -0.885633 0
M  V30 2943 C 280.193 -4.47237 0.261343 0
M  V30 2944 C 281.937 -3.97194 -1.49791 0
M  V30 2945 C 279.844 -5.9114 -0.175214 0
M  V30 2946 H 278.774 -0.732455 -0.178958 0
M  V30 2947 H 281.425 -1.81591 0.263997 0
M  V30 2948 H 279.807 -3.58848 -1.67464 0
M  V30 2949 H 280.981 -4.4894 1.03871 0
M  V30 2950 H 279.296 -4.08956 0.783827 0
M  V30 2951 H 281.893 -5.02167 -1.83665 0
M  V30 2952 H 282.236 -3.40351 -2.39722 0
M  V30 2953 H 282.769 -3.90212 -0.773267 0
M  V30 2954 H 279.508 -6.51865 0.689414 0
M  V30 2955 H 279.028 -5.92735 -0.91786 0
M  V30 2956 H 280.707 -6.44044 -0.617792 0
M  V30 2957 N 280.839 0.0985539 -1.57292 0
M  V30 2958 C 282.064 0.820196 -1.90493 0
M  V30 2959 C 282.489 1.71658 -0.769094 0
M  V30 2960 O 281.847 1.79133 0.279495 0
M  V30 2961 C 281.895 1.61242 -3.22542 0
M  V30 2962 O 280.999 2.72108 -3.09888 0
M  V30 2963 H 280.34 0.225547 -0.62452 0
M  V30 2964 H 282.87 0.0748159 -2.04463 0
M  V30 2965 H 282.88 1.99737 -3.55766 0
M  V30 2966 H 281.555 0.954535 -4.04798 0
M  V30 2967 H 280.132 2.36667 -2.88172 0
M  V30 2968 N 282.317 1.53212 0.369288 0
M  V30 2969 C 283.542 1.73423 1.1375 0
M  V30 2970 C 283.967 0.460404 1.82378 0
M  V30 2971 O 283.325 -0.585298 1.71592 0
M  V30 2972 C 283.373 2.89769 2.1463 0
M  V30 2973 O 282.477 2.58119 3.21634 0
M  V30 2974 H 281.818 0.576061 0.330227 0
M  V30 2975 H 284.348 2.00083 0.427547 0
M  V30 2976 H 284.358 3.15829 2.58294 0
M  V30 2977 H 283.033 3.8217 1.64071 0
M  V30 2978 H 281.61 2.42864 2.82969 0
M  V30 2979 N 283.795 -0.628877 1.44509 0
M  V30 2980 C 285.02 -1.42048 1.5112 0
M  V30 2981 C 285.445 -1.87594 0.137818 0
M  V30 2982 O 284.803 -1.58873 -0.873437 0
M  V30 2983 C 284.851 -2.61541 2.48251 0
M  V30 2984 O 283.955 -3.61453 1.98559 0
M  V30 2985 H 283.296 -0.424942 0.510216 0
M  V30 2986 H 285.826 -0.767374 1.89664 0
M  V30 2987 H 285.836 -3.09057 2.66361 0
M  V30 2988 H 284.511 -2.27736 3.48007 0
M  V30 2989 H 283.088 -3.20731 1.90227 0
M  V30 2990 N 285.273 -1.31445 -0.869486 0
M  V30 2991 C 286.521 -1.20918 -1.61936 0
M  V30 2992 C 286.842 0.232683 -1.93607 0
M  V30 2993 O 286.112 1.15352 -1.58338 0
M  V30 2994 H 284.692 -0.44454 -0.600328 0
M  V30 2995 H 287.354 -1.64776 -1.0409 0
M  V30 2996 H 286.45 -1.78124 -2.56278 0
M  V30 2997 N 286.751 1.08385 -1.14413 0
M  V30 2998 C 287.714 2.13486 -0.834048 0
M  V30 2999 C 288.714 1.59988 0.161418 0
M  V30 3000 O 289.904 1.74071 -0.0669575 0
M  V30 3001 C 287.036 3.4003 -0.243354 0
M  V30 3002 H 288.229 2.42425 -1.7655 0
M  V30 3003 H 285.782 1.24101 -0.950189 0
M  V30 3004 H 286.517 3.16726 0.696807 0
M  V30 3005 H 286.302 3.80157 -0.960367 0
M  V30 3006 H 287.792 4.17577 -0.0436242 0
M  V30 3007 N 288.23 0.939286 1.26551 0
M  V30 3008 C 289.458 0.602536 1.97932 0
M  V30 3009 C 289.873 -0.82206 1.69964 0
M  V30 3010 O 289.23 -1.54789 0.966784 0
M  V30 3011 C 289.281 0.832946 3.51773 0
M  V30 3012 O 289.002 2.20151 3.78768 0
M  V30 3013 C 290.503 0.506483 4.40397 0
M  V30 3014 H 287.723 0.227248 0.631347 0
M  V30 3015 H 290.267 1.25948 1.61113 0
M  V30 3016 H 288.422 0.222644 3.8676 0
M  V30 3017 H 288.836 2.26013 4.73306 0
M  V30 3018 H 290.31 0.718333 5.47306 0
M  V30 3019 H 290.787 -0.558451 4.35635 0
M  V30 3020 H 291.393 1.09543 4.10951 0
M  V30 3021 N 289.708 -1.40897 0.706093 0
M  V30 3022 C 291.119 -1.84023 0.315052 0
M  V30 3023 C 291.47 -1.5906 -1.14866 0
M  V30 3024 O 290.595 -1.06651 -1.88293 0
M  V30 3025 C 291.19 -3.34055 0.565038 0
M  V30 3026 C 289.749 -3.7571 0.227806 0
M  V30 3027 C 288.896 -2.64204 0.842122 0
M  V30 3028 H 291.847 -1.303 0.905963 0
M  V30 3029 H 291.868 -3.80107 -0.172843 0
M  V30 3030 H 291.38 -3.52192 1.63042 0
M  V30 3031 H 289.481 -3.63172 -0.832895 0
M  V30 3032 H 289.594 -4.74103 0.690174 0
M  V30 3033 H 287.958 -2.53255 0.270893 0
M  V30 3034 H 288.741 -2.85155 1.91158 0
M  V30 3035 N 291.186 -0.45159 -1.50991 0
M  V30 3036 C 292.432 0.110237 -2.025 0
M  V30 3037 C 292.765 1.41109 -1.33424 0
M  V30 3038 O 292.04 1.89135 -0.453659 0
M  V30 3039 C 292.323 0.314271 -3.58726 0
M  V30 3040 C 292.176 -1.00623 -4.38401 0
M  V30 3041 C 293.495 1.07767 -4.26702 0
M  V30 3042 H 290.614 0.0385897 -0.735989 0
M  V30 3043 H 293.256 -0.593374 -1.80497 0
M  V30 3044 H 291.406 0.913601 -3.77605 0
M  V30 3045 H 293.078 -1.64064 -4.31139 0
M  V30 3046 H 291.321 -1.6075 -4.02917 0
M  V30 3047 H 291.992 -0.817341 -5.45915 0
M  V30 3048 H 294.468 0.56986 -4.12179 0
M  V30 3049 H 293.344 1.18921 -5.35863 0
M  V30 3050 H 293.605 2.10939 -3.88532 0
M  V30 3051 N 292.664 1.56529 -0.183458 0
M  V30 3052 C 293.911 1.97244 0.458357 0
M  V30 3053 C 294.239 1.06992 1.62428 0
M  V30 3054 O 293.494 0.106542 1.9541 0
M  V30 3055 C 293.793 3.43939 0.971637 0
M  V30 3056 C 293.459 4.5083 -0.0796784 0
M  V30 3057 C 292.121 4.79786 -0.368584 0
M  V30 3058 C 294.473 5.15138 -0.792638 0
M  V30 3059 C 291.801 5.70345 -1.37563 0
M  V30 3060 C 294.153 6.06784 -1.78875 0
M  V30 3061 C 292.817 6.34102 -2.08497 0
M  V30 3062 H 292.087 0.721768 0.167725 0
M  V30 3063 H 294.734 1.89472 -0.277976 0
M  V30 3064 H 293.039 3.48724 1.78602 0
M  V30 3065 H 294.736 3.72791 1.47744 0
M  V30 3066 H 291.326 4.28317 0.155668 0
M  V30 3067 H 295.51 4.92868 -0.582659 0
M  V30 3068 H 290.766 5.89789 -1.61118 0
M  V30 3069 H 294.94 6.55677 -2.3465 0
M  V30 3070 H 292.567 7.04074 -2.86678 0
M  V30 3071 N 294.142 -0.090211 1.57342 0
M  V30 3072 C 295.419 -0.824761 1.77361 0
M  V30 3073 C 295.799 -1.96698 0.76637 0
M  V30 3074 O 295.147 -2.27586 -0.204179 0
M  V30 3075 C 295.357 -1.31481 3.23286 0
M  V30 3076 C 296.705 -1.75563 3.86604 0
M  V30 3077 O 297.729 -1.41093 3.27065 0
M  V30 3078 O 296.588 -2.39317 4.91314 0
M  V30 3079 H 293.682 -0.393776 0.727234 0
M  V30 3080 H 296.228 -0.0717138 1.69548 0
M  V30 3081 H 295 -0.496671 3.88135 0
M  V30 3082 H 294.623 -2.12973 3.35751 0
M  V30 3083 N 295.62 -1.53406 -0.361157 0
M  V30 3084 C 296.568 -1.80832 -1.46296 0
M  V30 3085 C 297.562 -0.677699 -1.55253 0
M  V30 3086 O 298.768 -0.860723 -1.58087 0
M  V30 3087 H 295.143 -0.572627 -0.487445 0
M  V30 3088 H 297.114 -2.73045 -1.20371 0
M  V30 3089 C 295.863 -2.01907 -2.8307 0
M  V30 3090 H 295.186 -2.88349 -2.76938 0
M  V30 3091 H 296.626 -2.25072 -3.59331 0
M  V30 3092 C 295.085 -0.799449 -3.27277 0
M  V30 3093 O 295.615 0.00971761 -4.01699 0
M  V30 3094 N 293.821 -0.621637 -2.83873 0
M  V30 3095 H 293.368 -1.28126 -2.23476 0
M  V30 3096 H 293.326 0.19298 -3.13807 0
M  V30 3097 N 297.098 0.621204 -1.44841 0
M  V30 3098 C 298.347 1.37658 -1.47422 0
M  V30 3099 C 298.66 1.95264 -0.114629 0
M  V30 3100 O 299.866 2.71494 -0.0180199 0
M  V30 3101 C 298.322 2.49285 -2.59586 0
M  V30 3102 C 297.93 1.98149 -4.01797 0
M  V30 3103 C 299.674 3.26409 -2.71399 0
M  V30 3104 C 297.581 3.07178 -5.05367 0
M  V30 3105 H 296.511 0.517344 -0.548517 0
M  V30 3106 H 299.162 0.667257 -1.70938 0
M  V30 3107 H 297.544 3.22839 -2.29328 0
M  V30 3108 H 298.718 1.31395 -4.41669 0
M  V30 3109 H 297.033 1.33812 -3.94314 0
M  V30 3110 H 299.63 4.07706 -3.45948 0
M  V30 3111 H 299.973 3.76535 -1.77559 0
M  V30 3112 H 300.506 2.5995 -3.01116 0
M  V30 3113 H 297.245 2.61985 -6.00869 0
M  V30 3114 H 296.765 3.72542 -4.70077 0
M  V30 3115 H 298.444 3.71789 -5.29511 0
M  V30 3116 N 298.576 1.31904 0.862503 0
M  V30 3117 C 299.822 1.23207 1.61838 0
M  V30 3118 C 300.177 -0.206062 1.91293 0
M  V30 3119 O 299.47 -1.14162 1.53875 0
M  V30 3120 C 299.664 2.01713 2.95037 0
M  V30 3121 C 299.493 3.53014 2.78588 0
M  V30 3122 C 298.263 4.22359 2.77382 0
M  V30 3123 C 300.461 4.47819 2.52909 0
M  V30 3124 N 298.443 5.59766 2.52062 0
M  V30 3125 C 299.814 5.72947 2.36922 0
M  V30 3126 C 301.869 4.37162 2.38314 0
M  V30 3127 C 300.572 6.88623 2.07823 0
M  V30 3128 C 302.598 5.5263 2.10604 0
M  V30 3129 C 301.96 6.76752 1.95411 0
M  V30 3130 H 298.059 0.505984 0.596242 0
M  V30 3131 H 300.643 1.66179 1.01452 0
M  V30 3132 H 298.814 1.61098 3.53415 0
M  V30 3133 H 300.546 1.84975 3.59953 0
M  V30 3134 H 297.301 3.74401 2.90036 0
M  V30 3135 H 297.725 6.32135 2.42352 0
M  V30 3136 H 302.367 3.41857 2.48784 0
M  V30 3137 H 300.085 7.83948 1.9609 0
M  V30 3138 H 303.671 5.46307 2.00101 0
M  V30 3139 H 302.551 7.6459 1.74274 0
M  V30 3140 N 300.054 -1.07777 1.14986 0
M  V30 3141 C 301.002 -2.16964 0.838406 0
M  V30 3142 C 301.996 -1.68372 -0.186386 0
M  V30 3143 O 303.202 -1.79951 -0.0418465 0
M  V30 3144 H 299.577 -0.708006 0.253439 0
M  V30 3145 H 301.548 -2.40454 1.76704 0
M  V30 3146 C 300.297 -3.4604 0.339335 0
M  V30 3147 H 299.62 -3.83813 1.11927 0
M  V30 3148 H 301.06 -4.23698 0.160021 0
M  V30 3149 C 299.519 -3.23569 -0.938325 0
M  V30 3150 O 300.049 -3.47752 -2.01077 0
M  V30 3151 N 298.255 -2.77079 -0.876117 0
M  V30 3152 H 297.802 -2.576 -0.00322037 0
M  V30 3153 H 297.76 -2.62422 -1.73153 0
M  V30 3154 N 301.532 -0.945985 -1.26051 0
M  V30 3155 C 302.464 -0.416662 -2.25381 0
M  V30 3156 C 303.477 0.462712 -1.56086 0
M  V30 3157 O 304.666 0.272383 -1.7641 0
M  V30 3158 C 301.766 0.419812 -3.3629 0
M  V30 3159 C 300.939 -0.444531 -4.35135 0
M  V30 3160 C 299.998 0.332305 -5.2515 0
M  V30 3161 O 299.024 -0.266324 -5.68577 0
M  V30 3162 N 300.226 1.62763 -5.57215 0
M  V30 3163 H 302.991 -1.27059 -2.71433 0
M  V30 3164 H 300.552 -0.815392 -1.39868 0
M  V30 3165 H 302.544 0.947013 -3.93464 0
M  V30 3166 H 301.114 1.17456 -2.89694 0
M  V30 3167 H 300.334 -1.15291 -3.76964 0
M  V30 3168 H 301.622 -1.03478 -4.98166 0
M  V30 3169 H 301.02 2.13603 -5.23823 0
M  V30 3170 H 299.577 2.10097 -6.17011 0
M  V30 3171 N 303.011 1.40521 -0.713556 0
M  V30 3172 C 304.259 2.00527 -0.251692 0
M  V30 3173 C 304.58 1.56857 1.15848 0
M  V30 3174 O 303.85 0.807127 1.785 0
M  V30 3175 H 302.43 0.741551 -0.0900646 0
M  V30 3176 H 305.092 1.71887 -0.918733 0
M  V30 3177 H 304.188 3.10813 -0.283192 0
M  V30 3178 N 304.489 0.459591 1.5075 0
M  V30 3179 C 305.419 -0.330644 2.31147 0
M  V30 3180 C 306.4 -1.00087 1.37538 0
M  V30 3181 O 307.585 -1.00025 1.66459 0
M  V30 3182 C 304.715 -1.41958 3.16962 0
M  V30 3183 C 303.669 -0.871608 4.19031 0
M  V30 3184 C 302.995 -2.05797 4.9351 0
M  V30 3185 C 304.295 0.109251 5.22186 0
M  V30 3186 H 305.989 0.340336 2.97459 0
M  V30 3187 H 303.535 0.165119 1.4305 0
M  V30 3188 H 305.488 -1.9798 3.71997 0
M  V30 3189 H 304.212 -2.11917 2.48513 0
M  V30 3190 H 302.871 -0.333442 3.6508 0
M  V30 3191 H 302.519 -2.74427 4.21544 0
M  V30 3192 H 302.219 -1.6976 5.62544 0
M  V30 3193 H 303.743 -2.62331 5.51375 0
M  V30 3194 H 305.157 -0.361405 5.7216 0
M  V30 3195 H 303.554 0.383316 5.98875 0
M  V30 3196 H 304.624 1.03887 4.73641 0
M  V30 3197 N 305.967 -1.56429 0.191757 0
M  V30 3198 C 307.213 -1.97777 -0.448554 0
M  V30 3199 C 307.546 -1.07847 -1.61501 0
M  V30 3200 O 306.821 -0.129774 -1.94067 0
M  V30 3201 C 307.104 -3.48362 -0.911906 0
M  V30 3202 C 306.957 -4.4907 0.256136 0
M  V30 3203 C 308.276 -4.02561 -1.77857 0
M  V30 3204 H 305.395 -0.719071 -0.161572 0
M  V30 3205 H 308.037 -1.87896 0.282007 0
M  V30 3206 H 306.187 -3.56914 -1.53442 0
M  V30 3207 H 307.859 -4.5256 0.893733 0
M  V30 3208 H 306.102 -4.24181 0.908436 0
M  V30 3209 H 306.773 -5.51889 -0.11053 0
M  V30 3210 H 309.249 -3.96767 -1.25359 0
M  V30 3211 H 308.125 -5.08301 -2.07174 0
M  V30 3212 H 308.386 -3.47616 -2.73158 0
M  V30 3213 N 307.445 0.0818655 -1.57387 0
M  V30 3214 C 308.67 0.799946 -1.91352 0
M  V30 3215 C 309.095 1.70833 -0.787258 0
M  V30 3216 O 308.453 1.79419 0.26048 0
M  V30 3217 C 308.501 1.57812 -3.24234 0
M  V30 3218 O 307.605 2.68806 -3.12757 0
M  V30 3219 H 306.946 0.21891 -0.626877 0
M  V30 3220 H 309.476 0.0531256 -2.04531 0
M  V30 3221 H 309.486 1.95952 -3.57864 0
M  V30 3222 H 308.161 0.911548 -4.05788 0
M  V30 3223 H 306.738 2.33597 -2.90666 0
M  V30 3224 N 308.923 1.53595 0.353017 0
M  V30 3225 C 309.855 1.77219 1.45348 0
M  V30 3226 C 310.868 0.65324 1.49119 0
M  V30 3227 O 312.057 0.929775 1.52373 0
M  V30 3228 C 309.157 1.84841 2.84055 0
M  V30 3229 C 308.33 3.14649 3.03833 0
M  V30 3230 C 307.389 3.13351 4.22727 0
M  V30 3231 O 306.415 3.87107 4.17297 0
M  V30 3232 N 307.617 2.35052 5.30783 0
M  V30 3233 H 310.382 2.72178 1.25457 0
M  V30 3234 H 307.943 1.52528 0.542833 0
M  V30 3235 H 309.935 1.81435 3.61751 0
M  V30 3236 H 308.505 0.971114 2.97133 0
M  V30 3237 H 307.725 3.31256 2.13689 0
M  V30 3238 H 309.013 4.00411 3.13925 0
M  V30 3239 H 308.411 1.74663 5.38061 0
M  V30 3240 H 306.968 2.37453 6.07009 0
M  V30 3241 N 310.401 -0.613514 1.45168 0
M  V30 3242 C 311.678 -1.37263 1.39349 0
M  V30 3243 C 312.058 -2.11012 0.0610848 0
M  V30 3244 O 311.406 -2.07502 -0.956825 0
M  V30 3245 C 311.616 -2.3244 2.60332 0
M  V30 3246 C 312.964 -2.9523 3.05163 0
M  V30 3247 O 313.988 -2.42762 2.60663 0
M  V30 3248 O 312.847 -3.90454 3.82372 0
M  V30 3249 H 309.941 -0.615188 0.552696 0
M  V30 3250 H 312.487 -0.637097 1.57287 0
M  V30 3251 H 311.259 -1.77164 3.48896 0
M  V30 3252 H 310.882 -3.13383 2.44698 0
M  V30 3253 N 311.879 -1.3236 -0.855495 0
M  V30 3254 C 312.809 -1.23833 -1.97958 0
M  V30 3255 C 313.79 -0.122361 -1.69659 0
M  V30 3256 O 314.975 -0.30939 -1.9172 0
M  V30 3257 C 312.105 -0.959772 -3.33775 0
M  V30 3258 C 311.059 -2.03689 -3.76424 0
M  V30 3259 C 310.385 -1.61075 -5.09862 0
M  V30 3260 C 311.685 -3.4518 -3.9198 0
M  V30 3261 H 313.379 -2.1788 -2.0535 0
M  V30 3262 H 310.925 -1.04891 -0.986605 0
M  V30 3263 H 312.878 -0.886678 -4.11966 0
M  V30 3264 H 311.602 0.0163404 -3.26596 0
M  V30 3265 H 310.261 -2.10012 -3.00484 0
M  V30 3266 H 309.909 -0.622107 -4.99138 0
M  V30 3267 H 309.609 -2.33143 -5.39368 0
M  V30 3268 H 311.133 -1.55201 -5.90546 0
M  V30 3269 H 312.547 -3.4145 -4.60526 0
M  V30 3270 H 310.944 -4.1559 -4.32903 0
M  V30 3271 H 312.014 -3.84903 -2.94919 0
M  V30 3272 N 313.357 1.07166 -1.15556 0
M  V30 3273 C 314.604 1.79798 -0.931604 0
M  V30 3274 C 314.932 1.8682 0.54115 0
M  V30 3275 O 314.187 1.34942 1.41736 0
M  V30 3276 C 314.486 3.24707 -1.49332 0
M  V30 3277 C 314.152 3.37781 -2.98688 0
M  V30 3278 C 312.814 3.41057 -3.39461 0
M  V30 3279 C 315.166 3.40424 -3.94665 0
M  V30 3280 C 312.494 3.4458 -4.74849 0
M  V30 3281 C 314.846 3.45485 -5.29927 0
M  V30 3282 C 313.51 3.47039 -5.70193 0
M  V30 3283 H 312.78 0.657928 -0.340898 0
M  V30 3284 H 315.427 1.26091 -1.44129 0
M  V30 3285 H 313.732 3.81208 -0.904859 0
M  V30 3286 H 315.429 3.79486 -1.29582 0
M  V30 3287 H 312.019 3.35932 -2.66172 0
M  V30 3288 H 316.203 3.37113 -3.64237 0
M  V30 3289 H 311.459 3.44083 -5.05388 0
M  V30 3290 H 315.633 3.46476 -6.04092 0
M  V30 3291 H 313.26 3.49522 -6.75084 0
M  V30 3292 N 314.835 0.952656 1.25548 0
M  V30 3293 C 316.06 0.623025 1.97821 0
M  V30 3294 C 316.485 -0.7976 1.70352 0
M  V30 3295 O 315.843 -1.53905 0.958283 0
M  V30 3296 C 315.891 0.885532 3.49558 0
M  V30 3297 O 314.995 -0.0366641 4.12384 0
M  V30 3298 H 314.336 0.237082 0.620232 0
M  V30 3299 H 316.866 1.27871 1.59719 0
M  V30 3300 H 316.876 0.811009 3.99858 0
M  V30 3301 H 315.551 1.92094 3.6888 0
M  V30 3302 H 314.128 0.0898954 3.72792 0
M  V30 3303 N 316.313 -1.40141 0.720998 0
M  V30 3304 C 317.559 -2.01084 0.263231 0
M  V30 3305 C 317.892 -1.57052 -1.14229 0
M  V30 3306 O 317.167 -0.793027 -1.77599 0
M  V30 3307 C 317.45 -3.58401 0.349344 0
M  V30 3308 C 317.303 -4.12491 1.79363 0
M  V30 3309 C 318.622 -4.39231 -0.276351 0
M  V30 3310 H 315.741 -0.730572 0.0971228 0
M  V30 3311 H 318.383 -1.66543 0.914518 0
M  V30 3312 H 316.533 -3.87958 -0.205165 0
M  V30 3313 H 318.205 -3.93711 2.40394 0
M  V30 3314 H 316.448 -3.66576 2.31958 0
M  V30 3315 H 317.119 -5.21646 1.80524 0
M  V30 3316 H 319.595 -4.15637 0.196184 0
M  V30 3317 H 318.471 -5.48586 -0.185681 0
M  V30 3318 H 318.732 -4.20643 -1.36059 0
M  V30 3319 N 317.792 -0.46758 -1.50504 0
M  V30 3320 C 319.022 0.086288 -2.0642 0
M  V30 3321 C 319.43 1.34369 -1.33197 0
M  V30 3322 O 318.773 1.79431 -0.393747 0
M  V30 3323 C 318.835 0.443846 -3.5675 0
M  V30 3324 C 318.499 -0.711035 -4.51435 0
M  V30 3325 C 319.496 -1.59205 -4.94924 0
M  V30 3326 C 317.181 -0.900363 -4.94165 0
M  V30 3327 C 319.175 -2.64683 -5.79846 0
M  V30 3328 C 316.862 -1.95837 -5.7887 0
M  V30 3329 C 317.86 -2.82997 -6.21612 0
M  V30 3330 O 317.548 -3.86977 -7.0463 0
M  V30 3331 H 317.28 -0.00217814 -0.675996 0
M  V30 3332 H 319.834 -0.654346 -1.94698 0
M  V30 3333 H 318.064 1.23762 -3.6636 0
M  V30 3334 H 319.753 0.932386 -3.95046 0
M  V30 3335 H 320.519 -1.45745 -4.62583 0
M  V30 3336 H 316.398 -0.231427 -4.60419 0
M  V30 3337 H 319.942 -3.32745 -6.13128 0
M  V30 3338 H 315.839 -2.09305 -6.10624 0
M  V30 3339 H 316.607 -3.83923 -7.22873 0
M  V30 3340 N 319.27 1.56325 -0.20005 0
M  V30 3341 C 320.2 2.22318 0.713916 0
M  V30 3342 C 321.181 1.18788 1.21752 0
M  V30 3343 O 322.366 1.47309 1.26545 0
M  V30 3344 C 319.496 2.88639 1.93144 0
M  V30 3345 C 318.45 3.98457 1.56255 0
M  V30 3346 C 317.776 4.51967 2.85709 0
M  V30 3347 C 319.076 5.16612 0.768747 0
M  V30 3348 H 320.77 2.98952 0.163755 0
M  V30 3349 H 318.316 1.43792 0.0773219 0
M  V30 3350 H 320.269 3.33491 2.57608 0
M  V30 3351 H 318.993 2.09419 2.50621 0
M  V30 3352 H 317.652 3.54305 0.941471 0
M  V30 3353 H 317.3 3.69503 3.41287 0
M  V30 3354 H 317 5.26071 2.6177 0
M  V30 3355 H 318.524 4.99523 3.51154 0
M  V30 3356 H 319.938 5.57977 1.3166 0
M  V30 3357 H 318.335 5.96812 0.627286 0
M  V30 3358 H 319.405 4.84358 -0.229168 0
M  V30 3359 N 320.748 -0.0735177 1.57428 0
M  V30 3360 C 321.973 -0.789787 1.91774 0
M  V30 3361 C 322.398 -1.70413 0.796306 0
M  V30 3362 O 321.756 -1.79555 -0.250961 0
M  V30 3363 C 321.804 -1.5609 3.25067 0
M  V30 3364 O 320.908 -2.67144 3.14178 0
M  V30 3365 H 320.249 -0.215582 0.628029 0
M  V30 3366 H 322.779 -0.0422781 2.04556 0
M  V30 3367 H 322.789 -1.94052 3.58898 0
M  V30 3368 H 321.464 -0.890015 4.06265 0
M  V30 3369 H 320.041 -2.32052 2.91901 0
M  V30 3370 N 322.226 -1.5378 -0.344866 0
M  V30 3371 C 323.189 -1.80981 -1.40637 0
M  V30 3372 C 324.189 -0.680816 -1.45676 0
M  V30 3373 O 325.379 -0.949095 -1.46075 0
M  V30 3374 C 322.511 -1.95063 -2.79577 0
M  V30 3375 H 323.704 -2.75803 -1.17783 0
M  V30 3376 H 321.257 -1.45173 -0.579181 0
M  V30 3377 H 321.992 -1.02379 -3.07716 0
M  V30 3378 H 321.777 -2.77198 -2.77315 0
M  V30 3379 H 323.267 -2.17629 -3.56409 0
M  V30 3380 N 323.704 0.605807 -1.45491 0
M  V30 3381 C 324.981 1.36522 -1.40075 0
M  V30 3382 C 325.361 2.10976 -0.0722744 0
M  V30 3383 O 324.709 2.08007 0.945808 0
M  V30 3384 C 324.919 2.31056 -2.61561 0
M  V30 3385 C 326.267 2.93608 -3.06724 0
M  V30 3386 O 327.291 2.41376 -2.61946 0
M  V30 3387 O 326.15 3.88421 -3.84437 0
M  V30 3388 H 323.244 0.612248 -0.555951 0
M  V30 3389 H 325.79 0.628747 -1.57623 0
M  V30 3390 H 324.562 1.75311 -3.49831 0
M  V30 3391 H 324.185 3.12081 -2.46356 0
M  V30 3392 N 325.182 1.32811 0.848464 0
M  V30 3393 C 326.459 1.14334 1.58704 0
M  V30 3394 C 326.839 -0.293948 2.09043 0
M  V30 3395 O 326.187 -1.29153 1.88499 0
M  V30 3396 C 326.397 2.17626 2.72837 0
M  V30 3397 C 327.745 2.51282 3.42261 0
M  V30 3398 O 328.769 2.16219 2.83068 0
M  V30 3399 O 327.628 3.11413 4.49093 0
M  V30 3400 H 324.722 0.441601 0.699226 0
M  V30 3401 H 327.268 1.44362 0.892053 0
M  V30 3402 H 326.04 3.14211 2.3321 0
M  V30 3403 H 325.663 1.88628 3.50008 0
M  V30 3404 N 326.66 -1.06551 1.16123 0
M  V30 3405 C 327.607 -2.13961 0.865414 0
M  V30 3406 C 328.577 -1.65066 -0.185055 0
M  V30 3407 O 329.762 -1.90732 -0.05083 0
M  V30 3408 C 326.902 -3.43113 0.369776 0
M  V30 3409 C 326.015 -4.05756 1.48276 0
M  V30 3410 C 325.15 -5.22773 0.942414 0
M  V30 3411 C 324.189 -5.77395 2.03179 0
M  V30 3412 N 323.326 -6.85731 1.50721 0
M  V30 3413 H 328.166 -2.38605 1.78527 0
M  V30 3414 H 325.703 -1.17072 0.890646 0
M  V30 3415 H 327.661 -4.17151 0.0640643 0
M  V30 3416 H 326.291 -3.18695 -0.513143 0
M  V30 3417 H 325.343 -3.29292 1.9045 0
M  V30 3418 H 326.655 -4.42351 2.30493 0
M  V30 3419 H 325.809 -6.03827 0.589729 0
M  V30 3420 H 324.548 -4.87618 0.0895191 0
M  V30 3421 H 323.553 -4.94981 2.3932 0
M  V30 3422 H 324.778 -6.14603 2.8886 0
M  V30 3423 H 322.724 -6.52499 0.676811 0
M  V30 3424 H 322.641 -7.21254 2.26557 0
M  V30 3425 H 323.909 -7.7047 1.18303 0
M  V30 3426 N 328.138 -0.959301 -1.25041 0
M  V30 3427 C 329.363 -0.633507 -1.97488 0
M  V30 3428 C 329.788 0.788555 -1.70773 0
M  V30 3429 O 329.146 1.53394 -0.966431 0
M  V30 3430 C 329.194 -0.904057 -3.49083 0
M  V30 3431 O 328.298 0.0147939 -4.12397 0
M  V30 3432 H 327.639 -0.240368 -0.618966 0
M  V30 3433 H 330.169 -1.28717 -1.59038 0
M  V30 3434 H 330.179 -0.832203 -3.99423 0
M  V30 3435 H 328.854 -1.94048 -3.67856 0
M  V30 3436 H 327.431 -0.109664 -3.72739 0
M  V30 3437 N 329.616 1.39756 -0.72842 0
M  V30 3438 C 330.864 2.00248 -0.272946 0
M  V30 3439 C 331.185 1.58077 1.14178 0
M  V30 3440 O 330.455 0.826014 1.77634 0
M  V30 3441 H 329.035 0.740554 -0.0979247 0
M  V30 3442 H 331.697 1.70903 -0.936912 0
M  V30 3443 H 330.793 3.10495 -0.316142 0
M  V30 3444 N 331.094 0.475555 1.50254 0
M  V30 3445 C 332.319 -0.0777042 2.07254 0
M  V30 3446 C 332.744 -1.3235 1.3366 0
M  V30 3447 O 332.102 -1.77152 0.385597 0
M  V30 3448 C 332.15 -0.340169 3.58992 0
M  V30 3449 O 331.254 -1.41982 3.87188 0
M  V30 3450 H 330.595 0.0149556 0.663832 0
M  V30 3451 H 333.125 0.667878 1.93392 0
M  V30 3452 H 333.135 -0.579332 4.03866 0
M  V30 3453 H 331.81 0.570167 4.11973 0
M  V30 3454 H 330.387 -1.16762 3.54148 0
M  V30 3455 N 332.573 -1.56217 0.208337 0
M  V30 3456 C 333.819 -1.98242 -0.427552 0
M  V30 3457 C 334.152 -1.09554 -1.60348 0
M  V30 3458 O 333.427 -0.15035 -1.93918 0
M  V30 3459 C 333.71 -3.4931 -0.874907 0
M  V30 3460 C 333.563 -4.48773 0.303751 0
M  V30 3461 C 334.882 -4.04424 -1.73577 0
M  V30 3462 H 332.001 -0.720744 -0.153936 0
M  V30 3463 H 334.643 -1.87586 0.30192 0
M  V30 3464 H 332.793 -3.58522 -1.49648 0
M  V30 3465 H 334.465 -4.51586 0.941682 0
M  V30 3466 H 332.708 -4.23194 0.953375 0
M  V30 3467 H 333.379 -5.51976 -0.0519883 0
M  V30 3468 H 335.855 -3.98075 -1.21143 0
M  V30 3469 H 334.731 -5.1047 -2.01771 0
M  V30 3470 H 334.992 -3.50494 -2.69456 0
M  V30 3471 N 334.051 0.0651679 -1.57465 0
M  V30 3472 C 335.297 0.764193 -1.87851 0
M  V30 3473 C 335.63 1.76889 -0.801495 0
M  V30 3474 O 334.905 1.93594 0.187528 0
M  V30 3475 C 335.188 1.46625 -3.28897 0
M  V30 3476 C 335.041 0.477515 -4.47258 0
M  V30 3477 C 336.36 2.4095 -3.68281 0
M  V30 3478 H 333.479 0.276351 -0.683227 0
M  V30 3479 H 336.121 0.0272868 -1.8998 0
M  V30 3480 H 334.271 2.09438 -3.27212 0
M  V30 3481 H 335.943 -0.145922 -4.61069 0
M  V30 3482 H 334.186 -0.206576 -4.33308 0
M  V30 3483 H 334.857 1.0065 -5.42746 0
M  V30 3484 H 337.333 1.88209 -3.71102 0
M  V30 3485 H 336.209 2.87072 -4.67847 0
M  V30 3486 H 336.47 3.26049 -2.98571 0
M  V30 3487 N 335.529 1.53961 0.336706 0
M  V30 3488 C 336.778 1.70751 1.07363 0
M  V30 3489 C 337.091 0.481061 1.89592 0
M  V30 3490 O 338.297 0.530046 2.66276 0
M  V30 3491 C 336.753 3.01965 1.95818 0
M  V30 3492 C 336.361 4.31971 1.18764 0
M  V30 3493 C 338.105 3.28121 2.69327 0
M  V30 3494 C 336.012 5.54255 2.06289 0
M  V30 3495 H 334.942 0.636292 0.404535 0
M  V30 3496 H 337.593 1.80459 0.332681 0
M  V30 3497 H 335.975 2.86132 2.7376 0
M  V30 3498 H 337.149 4.5853 0.456849 0
M  V30 3499 H 335.464 4.12481 0.569946 0
M  V30 3500 H 338.061 4.16673 3.35094 0
M  V30 3501 H 338.404 2.45426 3.36261 0
M  V30 3502 H 338.937 3.44762 1.98454 0
M  V30 3503 H 335.676 6.39513 1.43885 0
M  V30 3504 H 335.196 5.31935 2.77138 0
M  V30 3505 H 336.875 5.90159 2.65182 0
M  V30 3506 N 337.007 -0.598083 1.45811 0
M  V30 3507 C 338.254 -1.35681 1.50323 0
M  V30 3508 C 338.582 -1.9393 0.148739 0
M  V30 3509 O 337.837 -1.76094 -0.853787 0
M  V30 3510 C 338.136 -2.51669 2.53766 0
M  V30 3511 C 337.802 -2.11508 3.98215 0
M  V30 3512 C 336.464 -2.0027 4.37545 0
M  V30 3513 C 338.816 -1.80308 4.89018 0
M  V30 3514 C 336.144 -1.56067 5.65562 0
M  V30 3515 C 338.496 -1.37589 6.17456 0
M  V30 3516 C 337.16 -1.24916 6.55708 0
M  V30 3517 H 336.43 -0.496492 0.550069 0
M  V30 3518 H 339.077 -0.675052 1.79207 0
M  V30 3519 H 337.382 -3.25225 2.18486 0
M  V30 3520 H 339.079 -3.09895 2.54492 0
M  V30 3521 H 335.669 -2.21185 3.67117 0
M  V30 3522 H 339.853 -1.87884 4.59362 0
M  V30 3523 H 335.109 -1.44886 5.93985 0
M  V30 3524 H 339.283 -1.12495 6.87254 0
M  V30 3525 H 336.91 -0.904386 7.54801 0
M  V30 3526 N 338.485 -1.33259 -0.841409 0
M  V30 3527 C 339.733 -1.24326 -1.59334 0
M  V30 3528 C 340.054 0.191564 -1.94057 0
M  V30 3529 O 339.324 1.11967 -1.60749 0
M  V30 3530 H 337.904 -0.457174 -0.590763 0
M  V30 3531 H 340.566 -1.66947 -1.00571 0
M  V30 3532 H 339.662 -1.8352 -2.52442 0
M  V30 3533 N 339.963 1.05934 -1.16686 0
M  V30 3534 C 341.211 1.78447 -0.948744 0
M  V30 3535 C 341.532 1.87813 0.524523 0
M  V30 3536 O 340.802 1.38945 1.38098 0
M  V30 3537 H 339.382 0.660971 -0.348033 0
M  V30 3538 H 342.044 1.27947 -1.47022 0
M  V30 3539 H 341.14 2.80394 -1.37061 0
M  V30 3540 N 341.441 0.965919 1.2453 0
M  V30 3541 C 342.69 0.622437 1.91856 0
M  V30 3542 C 343.003 -0.846006 1.76358 0
M  V30 3543 O 344.209 -1.29993 2.38357 0
M  V30 3544 C 342.665 1.0626 3.43856 0
M  V30 3545 C 342.273 2.55437 3.68043 0
M  V30 3546 C 344.017 0.792183 4.17043 0
M  V30 3547 C 341.924 2.93196 5.13605 0
M  V30 3548 H 340.854 0.229092 0.718354 0
M  V30 3549 H 343.505 1.17189 1.41206 0
M  V30 3550 H 341.887 0.441476 3.93531 0
M  V30 3551 H 343.061 3.22665 3.28974 0
M  V30 3552 H 341.376 2.8007 3.08139 0
M  V30 3553 H 343.973 1.05031 5.24283 0
M  V30 3554 H 344.316 -0.271584 4.15413 0
M  V30 3555 H 344.849 1.37419 3.73311 0
M  V30 3556 H 341.588 3.98636 5.20355 0
M  V30 3557 H 341.108 2.30651 5.53679 0
M  V30 3558 H 342.787 2.83004 5.81823 0
M  V30 3559 N 342.919 -1.39368 0.735821 0
M  V30 3560 C 344.196 -1.94465 0.210395 0
M  V30 3561 C 344.576 -1.67254 -1.28799 0
M  V30 3562 O 343.924 -1.00123 -2.05396 0
M  V30 3563 C 344.134 -3.4472 0.544897 0
M  V30 3564 C 345.482 -4.21708 0.494689 0
M  V30 3565 O 346.506 -3.52922 0.482136 0
M  V30 3566 O 345.365 -5.44299 0.489947 0
M  V30 3567 H 342.459 -0.826096 0.0386666 0
M  V30 3568 H 345.005 -1.48863 0.814735 0
M  V30 3569 H 343.777 -3.57963 1.58045 0
M  V30 3570 H 343.4 -3.97502 -0.08837 0
M  V30 3571 N 344.397 -0.483516 -1.5 0
M  V30 3572 C 345.622 0.0667119 -2.07293 0
M  V30 3573 C 346.047 1.3164 -1.3436 0
M  V30 3574 O 345.405 1.76945 -0.394987 0
M  V30 3575 C 345.453 0.321126 -3.59167 0
M  V30 3576 O 344.557 1.39927 -3.87936 0
M  V30 3577 H 343.898 -0.0184758 -0.663743 0
M  V30 3578 H 346.428 -0.678125 -1.93035 0
M  V30 3579 H 346.438 0.557906 -4.04168 0
M  V30 3580 H 345.113 -0.592007 -4.11665 0
M  V30 3581 H 343.69 1.14882 -3.54763 0
M  V30 3582 N 345.875 1.56104 -0.216619 0
M  V30 3583 C 347.1 2.0301 0.424462 0
M  V30 3584 C 347.525 1.0955 1.52907 0
M  V30 3585 O 346.883 0.0827914 1.81111 0
M  V30 3586 C 346.931 3.4819 0.937883 0
M  V30 3587 O 346.035 3.57865 2.04955 0
M  V30 3588 H 345.376 0.656925 0.0966755 0
M  V30 3589 H 347.906 2.01859 -0.33381 0
M  V30 3590 H 347.916 3.88413 1.24897 0
M  V30 3591 H 346.591 4.15699 0.129387 0
M  V30 3592 H 345.168 3.29527 1.74546 0
M  V30 3593 N 347.353 -0.0568162 1.57498 0
M  V30 3594 C 348.583 -0.764515 1.91934 0
M  V30 3595 C 348.991 -1.70877 0.81227 0
M  V30 3596 O 348.334 -1.82351 -0.222213 0
M  V30 3597 C 348.396 -1.5994 3.21962 0
M  V30 3598 C 348.06 -0.822925 4.4953 0
M  V30 3599 C 349.057 -0.135464 5.19723 0
M  V30 3600 C 346.742 -0.785666 4.96117 0
M  V30 3601 C 348.736 0.578861 6.34766 0
M  V30 3602 C 346.423 -0.0675784 6.11063 0
M  V30 3603 C 347.421 0.613471 6.80239 0
M  V30 3604 O 347.109 1.31996 7.92989 0
M  V30 3605 H 346.841 -0.221647 0.63863 0
M  V30 3606 H 349.395 -0.0268218 2.05382 0
M  V30 3607 H 347.625 -2.38026 3.04763 0
M  V30 3608 H 349.314 -2.18715 3.41934 0
M  V30 3609 H 350.08 -0.155458 4.84751 0
M  V30 3610 H 345.959 -1.30524 4.42136 0
M  V30 3611 H 349.503 1.111 6.88696 0
M  V30 3612 H 345.4 -0.0455636 6.45484 0
M  V30 3613 H 346.168 1.23077 8.09194 0
M  V30 3614 N 348.832 -1.54138 -0.328536 0
M  V30 3615 C 350.062 -1.75807 -1.08516 0
M  V30 3616 C 350.47 -0.50428 -1.82356 0
M  V30 3617 O 349.813 0.534451 -1.75754 0
M  V30 3618 C 349.875 -2.89423 -2.13248 0
M  V30 3619 C 349.539 -4.28504 -1.5885 0
M  V30 3620 C 350.536 -5.09536 -1.03289 0
M  V30 3621 C 348.221 -4.75034 -1.63243 0
M  V30 3622 C 350.215 -6.35206 -0.52845 0
M  V30 3623 C 347.902 -6.00672 -1.12411 0
M  V30 3624 C 348.9 -6.80592 -0.573062 0
M  V30 3625 O 348.588 -8.03867 -0.0723692 0
M  V30 3626 H 348.32 -0.590633 -0.328829 0
M  V30 3627 H 350.874 -2.01819 -0.381868 0
M  V30 3628 H 349.104 -2.5897 -2.87178 0
M  V30 3629 H 350.793 -2.98921 -2.74592 0
M  V30 3630 H 351.559 -4.74745 -0.99206 0
M  V30 3631 H 347.438 -4.12875 -2.05074 0
M  V30 3632 H 350.982 -6.97532 -0.0976774 0
M  V30 3633 H 346.879 -6.34955 -1.162 0
M  V30 3634 H 347.647 -8.18283 -0.188258 0
M  V30 3635 N 350.31 0.590341 -1.46126 0
M  V30 3636 C 351.538 1.37504 -1.54597 0
M  V30 3637 C 351.953 1.87897 -0.184447 0
M  V30 3638 O 351.31 1.63192 0.816984 0
M  V30 3639 C 351.361 2.56779 -2.54454 0
M  V30 3640 O 351.082 2.08476 -3.85317 0
M  V30 3641 C 352.583 3.49427 -2.72792 0
M  V30 3642 H 349.803 0.420325 -0.523037 0
M  V30 3643 H 352.347 0.718383 -1.91467 0
M  V30 3644 H 350.502 3.1845 -2.20609 0
M  V30 3645 H 350.916 2.86097 -4.396 0
M  V30 3646 H 352.39 4.29619 -3.466 0
M  V30 3647 H 352.867 4.00876 -1.79429 0
M  V30 3648 H 353.473 2.93598 -3.07702 0
M  V30 3649 N 351.788 1.33704 0.83433 0
M  V30 3650 C 353.036 1.25169 1.58673 0
M  V30 3651 C 353.357 -0.18127 1.94156 0
M  V30 3652 O 352.627 -1.11113 1.6134 0
M  V30 3653 H 351.207 0.4603 0.58833 0
M  V30 3654 H 353.869 1.67478 0.996847 0
M  V30 3655 H 352.965 1.84856 2.51465 0
M  V30 3656 N 353.266 -1.05314 1.17247 0
M  V30 3657 C 354.491 -1.82509 0.985148 0
M  V30 3658 C 354.916 -1.82343 -0.461788 0
M  V30 3659 O 354.274 -1.23151 -1.33055 0
M  V30 3660 C 354.322 -3.26566 1.52929 0
M  V30 3661 O 353.426 -4.05666 0.742225 0
M  V30 3662 H 352.767 -0.564347 0.349869 0
M  V30 3663 H 355.297 -1.32718 1.55715 0
M  V30 3664 H 355.307 -3.77369 1.55103 0
M  V30 3665 H 353.982 -3.26001 2.58256 0
M  V30 3666 H 352.559 -3.64397 0.791794 0
M  V30 3667 N 354.744 -0.972509 -1.24016 0
M  V30 3668 C 355.674 -0.525548 -2.27509 0
M  V30 3669 C 356.655 0.437262 -1.64384 0
M  V30 3670 O 357.84 0.332343 -1.91335 0
M  V30 3671 C 354.97 0.180448 -3.46831 0
M  V30 3672 C 353.924 -0.698859 -4.22256 0
M  V30 3673 C 353.25 0.138903 -5.3452 0
M  V30 3674 C 354.55 -1.98582 -4.83076 0
M  V30 3675 H 356.244 -1.39058 -2.65148 0
M  V30 3676 H 353.79 -0.67009 -1.27459 0
M  V30 3677 H 355.743 0.504387 -4.18371 0
M  V30 3678 H 354.467 1.07987 -3.08231 0
M  V30 3679 H 353.126 -1.00614 -3.52523 0
M  V30 3680 H 352.774 1.03862 -4.9216 0
M  V30 3681 H 352.474 -0.446259 -5.85903 0
M  V30 3682 H 353.998 0.457404 -6.08884 0
M  V30 3683 H 355.412 -1.72715 -5.46665 0
M  V30 3684 H 353.809 -2.5181 -5.44713 0
M  V30 3685 H 354.879 -2.67769 -4.04262 0
M  V30 3686 N 356.222 1.38976 -0.743202 0
M  V30 3687 C 357.17 2.32394 -0.0978389 0
M  V30 3688 C 358.164 1.53486 0.716824 0
M  V30 3689 O 359.37 1.69092 0.617088 0
M  V30 3690 H 355.745 0.75189 -0.0128402 0
M  V30 3691 H 357.716 2.84441 -0.901981 0
M  V30 3692 C 356.465 3.38629 0.789036 0
M  V30 3693 H 355.788 3.99432 0.171559 0
M  V30 3694 H 357.228 4.06426 1.20807 0
M  V30 3695 C 355.687 2.76347 1.92702 0
M  V30 3696 O 356.217 2.64836 3.02034 0
M  V30 3697 N 354.423 2.34311 1.71891 0
M  V30 3698 H 353.97 2.43873 0.829675 0
M  V30 3699 H 353.928 1.9298 2.48205 0
M  V30 3700 N 357.7 0.491464 1.49741 0
M  V30 3701 C 358.946 -0.0485431 2.03342 0
M  V30 3702 C 359.301 -1.35566 1.36527 0
M  V30 3703 O 358.594 -1.85262 0.488729 0
M  V30 3704 C 358.788 -0.267329 3.56399 0
M  V30 3705 C 358.617 1.01703 4.38049 0
M  V30 3706 C 357.387 1.56614 4.80417 0
M  V30 3707 C 359.585 1.91782 4.77204 0
M  V30 3708 N 357.567 2.7974 5.4646 0
M  V30 3709 C 358.938 2.99489 5.42868 0
M  V30 3710 C 360.993 1.92575 4.5915 0
M  V30 3711 C 359.696 4.08005 5.92389 0
M  V30 3712 C 361.722 3.0006 5.09626 0
M  V30 3713 C 361.084 4.06485 5.75282 0
M  V30 3714 H 357.183 0.0227779 0.781668 0
M  V30 3715 H 359.767 0.664204 1.8302 0
M  V30 3716 H 357.938 -0.949126 3.76625 0
M  V30 3717 H 359.67 -0.803492 3.96644 0
M  V30 3718 H 356.425 1.11256 4.60347 0
M  V30 3719 H 356.849 3.42323 5.84075 0
M  V30 3720 H 361.491 1.11605 4.07804 0
M  V30 3721 H 359.209 4.89779 6.42761 0
M  V30 3722 H 362.795 3.01681 4.97473 0
M  V30 3723 H 361.675 4.88287 6.13633 0
M  V30 3724 N 359.178 -1.55987 0.224894 0
M  V30 3725 C 360.424 -1.98684 -0.406502 0
M  V30 3726 C 360.757 -1.11248 -1.59177 0
M  V30 3727 O 360.032 -0.170909 -1.93748 0
M  V30 3728 C 360.315 -3.50218 -0.837808 0
M  V30 3729 C 360.168 -4.48426 0.351332 0
M  V30 3730 C 361.487 -4.06243 -1.69278 0
M  V30 3731 H 358.606 -0.722337 -0.146283 0
M  V30 3732 H 361.248 -1.87255 0.321799 0
M  V30 3733 H 359.398 -3.60089 -1.45837 0
M  V30 3734 H 361.07 -4.50562 0.989526 0
M  V30 3735 H 359.313 -4.22159 0.998207 0
M  V30 3736 H 359.984 -5.52 0.00655905 0
M  V30 3737 H 362.46 -3.99337 -1.16914 0
M  V30 3738 H 361.336 -5.12581 -1.96346 0
M  V30 3739 H 361.597 -3.53332 -2.65723 0
M  V30 3740 N 360.656 0.0484629 -1.57525 0
M  V30 3741 C 362.067 0.597486 -1.76881 0
M  V30 3742 C 362.418 1.76664 -0.853475 0
M  V30 3743 O 361.543 2.16357 -0.0433656 0
M  V30 3744 C 362.138 1.09066 -3.20765 0
M  V30 3745 C 360.697 1.58535 -3.41385 0
M  V30 3746 C 359.844 0.514868 -2.72478 0
M  V30 3747 H 362.795 -0.177758 -1.57701 0
M  V30 3748 H 362.816 1.95875 -3.2621 0
M  V30 3749 H 362.328 0.239521 -3.8736 0
M  V30 3750 H 360.429 2.45898 -2.79937 0
M  V30 3751 H 360.542 1.64622 -4.49929 0
M  V30 3752 H 358.906 0.965407 -2.35695 0
M  V30 3753 H 359.689 -0.32648 -3.41744 0
M  V30 3754 N 362.134 1.5431 0.320358 0
M  V30 3755 C 363.38 1.72924 1.05949 0
M  V30 3756 C 363.713 0.503185 1.87568 0
M  V30 3757 O 362.988 -0.499839 1.87968 0
M  V30 3758 C 363.271 3.00676 1.98156 0
M  V30 3759 C 363.124 4.3354 1.19845 0
M  V30 3760 C 364.443 3.24198 2.9763 0
M  V30 3761 H 361.562 0.629195 0.383774 0
M  V30 3762 H 364.204 1.87008 0.335854 0
M  V30 3763 H 362.354 2.888 2.59859 0
M  V30 3764 H 364.026 4.57305 0.605773 0
M  V30 3765 H 362.269 4.309 0.500784 0
M  V30 3766 H 362.94 5.19156 1.87567 0
M  V30 3767 H 365.416 3.35557 2.4605 0
M  V30 3768 H 364.292 4.14938 3.59329 0
M  V30 3769 H 364.553 2.41577 3.7026 0
M  V30 3770 N 363.613 -0.582584 1.46437 0
M  V30 3771 C 364.841 -1.36682 1.55324 0
M  V30 3772 C 365.256 -1.87796 0.194409 0
M  V30 3773 O 364.613 -1.63623 -0.808318 0
M  V30 3774 C 364.664 -2.55426 2.55812 0
M  V30 3775 O 364.385 -2.0643 3.86417 0
M  V30 3776 C 365.886 -3.47976 2.74641 0
M  V30 3777 H 363.106 -0.417545 0.525259 0
M  V30 3778 H 365.65 -0.708219 1.91845 0
M  V30 3779 H 363.805 -3.17275 2.22295 0
M  V30 3780 H 364.219 -2.83762 4.41111 0
M  V30 3781 H 365.693 -4.27775 3.48874 0
M  V30 3782 H 366.17 -3.99919 1.81553 0
M  V30 3783 H 366.776 -2.91962 3.09255 0
M  V30 3784 N 365.091 -1.34144 -0.827227 0
M  V30 3785 C 366.337 -1.26446 -1.58554 0
M  V30 3786 C 366.67 0.1664 -1.93486 0
M  V30 3787 O 365.945 1.1107 -1.59667 0
M  V30 3788 C 366.228 -2.15111 -2.8879 0
M  V30 3789 C 366.081 -3.66712 -2.60465 0
M  V30 3790 C 367.4 -2.03311 -3.90324 0
M  V30 3791 H 364.519 -0.46067 -0.575284 0
M  V30 3792 H 367.161 -1.64356 -0.953269 0
M  V30 3793 H 365.311 -1.8291 -3.42748 0
M  V30 3794 H 366.983 -4.09259 -2.1285 0
M  V30 3795 H 365.226 -3.88014 -1.93978 0
M  V30 3796 H 365.897 -4.24112 -3.53317 0
M  V30 3797 H 368.373 -2.31574 -3.45706 0
M  V30 3798 H 367.249 -2.67582 -4.79261 0
M  V30 3799 H 367.51 -1.00879 -4.30437 0
M  V30 3800 N 366.569 1.04691 -1.17803 0
M  V30 3801 C 367.479 2.16057 -0.914151 0
M  V30 3802 C 368.495 1.73589 0.119503 0
M  V30 3803 O 369.671 2.01308 -0.0609468 0
M  V30 3804 C 366.736 3.4394 -0.436603 0
M  V30 3805 C 365.797 4.00825 -1.53746 0
M  V30 3806 C 365.03 5.22604 -1.0826 0
M  V30 3807 O 365.253 5.70367 0.0612244 0
M  V30 3808 O 364.187 5.7186 -1.87775 0
M  V30 3809 H 368.013 2.41169 -1.84584 0
M  V30 3810 H 365.598 1.1453 -0.959334 0
M  V30 3811 H 367.48 4.21024 -0.178057 0
M  V30 3812 H 366.155 3.20316 0.466869 0
M  V30 3813 H 365.062 3.25158 -1.84995 0
M  V30 3814 H 366.395 4.28778 -2.41683 0
M  V30 3815 N 368.047 0.979072 1.23499 0
M  V30 3816 C 369.295 0.645941 1.91499 0
M  V30 3817 C 369.616 -0.822948 1.76784 0
M  V30 3818 O 368.886 -1.58854 1.14639 0
M  V30 3819 H 367.466 0.235919 0.708767 0
M  V30 3820 H 370.128 1.2426 1.50152 0
M  V30 3821 H 369.224 0.896411 2.9895 0
M  V30 3822 N 369.525 -1.3858 0.750561 0
M  V30 3823 C 370.755 -2.04175 0.31564 0
M  V30 3824 C 371.163 -1.56726 -1.05989 0
M  V30 3825 O 370.506 -0.734225 -1.68389 0
M  V30 3826 C 370.568 -3.58585 0.256389 0
M  V30 3827 C 370.232 -4.29077 1.57296 0
M  V30 3828 C 371.229 -4.54656 2.52159 0
M  V30 3829 C 368.914 -4.67324 1.84156 0
M  V30 3830 C 370.908 -5.17512 3.72103 0
M  V30 3831 C 368.595 -5.29905 3.04374 0
M  V30 3832 C 369.593 -5.54933 3.98168 0
M  V30 3833 O 369.281 -6.16212 5.16273 0
M  V30 3834 H 369.013 -0.662742 0.133226 0
M  V30 3835 H 371.567 -1.78313 1.01948 0
M  V30 3836 H 369.797 -3.83406 -0.503677 0
M  V30 3837 H 371.486 -4.05628 -0.148612 0
M  V30 3838 H 372.252 -4.25539 2.32683 0
M  V30 3839 H 368.131 -4.47191 1.11988 0
M  V30 3840 H 371.675 -5.36963 4.45327 0
M  V30 3841 H 367.572 -5.58444 3.23745 0
M  V30 3842 H 368.34 -6.34701 5.16815 0
M  V30 3843 N 371.003 -0.499398 -1.49478 0
M  V30 3844 C 372.249 0.0377587 -2.03365 0
M  V30 3845 C 372.604 1.3484 -1.37244 0
M  V30 3846 O 371.897 1.85 -0.498547 0
M  V30 3847 C 372.091 0.248424 -3.56536 0
M  V30 3848 C 371.92 -1.04025 -4.37503 0
M  V30 3849 C 370.69 -1.59159 -4.79579 0
M  V30 3850 C 372.888 -1.9431 -4.76181 0
M  V30 3851 N 370.87 -2.82634 -5.44969 0
M  V30 3852 C 372.241 -3.02364 -5.41272 0
M  V30 3853 C 374.296 -1.95008 -4.58123 0
M  V30 3854 C 372.999 -4.1114 -5.90217 0
M  V30 3855 C 375.025 -3.02758 -5.08027 0
M  V30 3856 C 374.387 -4.09531 -5.73118 0
M  V30 3857 H 370.486 -0.026923 -0.781536 0
M  V30 3858 H 373.07 -0.673901 -1.82665 0
M  V30 3859 H 371.241 0.929139 -3.77123 0
M  V30 3860 H 372.973 0.782445 -3.97064 0
M  V30 3861 H 369.728 -1.13696 -4.5975 0
M  V30 3862 H 370.152 -3.45416 -5.82252 0
M  V30 3863 H 374.794 -1.13766 -4.07207 0
M  V30 3864 H 372.512 -4.93181 -6.40155 0
M  V30 3865 H 376.098 -3.04315 -4.95866 0
M  V30 3866 H 374.978 -4.91534 -6.11035 0
M  V30 3867 N 372.481 1.55866 -0.233164 0
M  V30 3868 C 373.413 2.18099 0.704668 0
M  V30 3869 C 374.426 1.15334 1.14899 0
M  V30 3870 O 375.615 1.42262 1.07814 0
M  V30 3871 C 372.715 2.7592 1.96777 0
M  V30 3872 C 371.888 4.03969 1.67713 0
M  V30 3873 C 370.947 4.46242 2.78845 0
M  V30 3874 O 369.973 5.12903 2.46818 0
M  V30 3875 N 371.175 4.12886 4.08051 0
M  V30 3876 H 373.94 2.99205 0.172258 0
M  V30 3877 H 371.501 1.61815 -0.0525945 0
M  V30 3878 H 373.493 3.01165 2.70337 0
M  V30 3879 H 372.063 1.99051 2.41034 0
M  V30 3880 H 371.283 3.86459 0.777391 0
M  V30 3881 H 372.571 4.8748 1.4574 0
M  V30 3882 H 371.969 3.59342 4.3691 0
M  V30 3883 H 370.526 4.42997 4.78118 0
M  V30 3884 N 373.959 -0.0401083 1.57549 0
M  V30 3885 C 375.208 -0.732108 1.87944 0
M  V30 3886 C 375.521 -1.77107 0.830206 0
M  V30 3887 O 376.727 -2.51488 1.02302 0
M  V30 3888 C 375.183 -1.35315 3.33494 0
M  V30 3889 C 374.791 -0.351105 4.46622 0
M  V30 3890 C 376.535 -2.02566 3.73051 0
M  V30 3891 C 374.442 -0.979859 5.83226 0
M  V30 3892 H 373.372 -0.277188 0.701201 0
M  V30 3893 H 376.023 0.0138501 1.83495 0
M  V30 3894 H 374.405 -2.14844 3.32653 0
M  V30 3895 H 375.579 0.416674 4.58912 0
M  V30 3896 H 373.894 0.218708 4.15825 0
M  V30 3897 H 376.491 -2.50441 4.72423 0
M  V30 3898 H 376.834 -2.83904 3.04474 0
M  V30 3899 H 377.367 -1.29827 3.76018 0
M  V30 3900 H 374.106 -0.206135 6.55176 0
M  V30 3901 H 373.626 -1.71774 5.74677 0
M  V30 3902 H 375.305 -1.49046 6.29599 0
M  V30 3903 N 375.437 -1.54477 -0.31217 0
M  V30 3904 C 376.665 -1.77205 -1.068 0
M  V30 3905 C 377.08 -0.526114 -1.81321 0
M  V30 3906 O 376.437 0.503647 -1.75413 0
M  V30 3907 C 376.488 -2.97253 -2.05725 0
M  V30 3908 O 376.209 -4.1703 -1.34228 0
M  V30 3909 C 377.71 -3.32281 -2.93435 0
M  V30 3910 H 374.93 -0.591287 -0.317208 0
M  V30 3911 H 377.474 -2.01398 -0.354834 0
M  V30 3912 H 375.629 -2.753 -2.72559 0
M  V30 3913 H 376.043 -4.84636 -2.00571 0
M  V30 3914 H 377.517 -4.19551 -3.58721 0
M  V30 3915 H 377.994 -2.49945 -3.61143 0
M  V30 3916 H 378.6 -3.56353 -2.32147 0
M  V30 3917 N 376.915 0.57481 -1.46744 0
M  V30 3918 C 378.161 1.3347 -1.52688 0
M  V30 3919 C 378.494 1.93353 -0.181229 0
M  V30 3920 O 377.769 1.76912 0.808237 0
M  V30 3921 C 378.052 2.45811 -2.63152 0
M  V30 3922 C 377.905 1.90912 -4.07275 0
M  V30 3923 C 379.224 3.47822 -2.69644 0
M  V30 3924 H 376.343 0.483935 -0.555856 0
M  V30 3925 H 378.985 0.644968 -1.78718 0
M  V30 3926 H 377.135 3.04646 -2.41088 0
M  V30 3927 H 378.807 1.36473 -4.4065 0
M  V30 3928 H 377.05 1.21691 -4.16382 0
M  V30 3929 H 377.721 2.72042 -4.80309 0
M  V30 3930 H 380.197 2.9888 -2.895 0
M  V30 3931 H 379.073 4.23876 -3.48742 0
M  V30 3932 H 379.334 4.05555 -1.76005 0
M  V30 3933 N 378.394 1.34581 0.820102 0
M  V30 3934 C 379.671 1.17675 1.56244 0
M  V30 3935 C 380.051 -0.249541 2.0962 0
M  V30 3936 O 379.399 -1.25125 1.91196 0
M  V30 3937 C 379.609 2.23364 2.6816 0
M  V30 3938 C 380.957 2.58485 3.36854 0
M  V30 3939 O 381.981 2.22175 2.78418 0
M  V30 3940 O 380.84 3.20868 4.42386 0
M  V30 3941 H 377.934 0.456333 0.689702 0
M  V30 3942 H 380.48 1.46222 0.861231 0
M  V30 3943 H 379.252 3.19087 2.26493 0
M  V30 3944 H 378.875 1.96009 3.45928 0
M  V30 3945 N 379.872 -1.04064 1.18357 0
M  V30 3946 C 381.097 -1.81454 1.00445 0
M  V30 3947 C 381.522 -1.82823 -0.442423 0
M  V30 3948 O 380.88 -1.24555 -1.31741 0
M  V30 3949 C 380.928 -3.24925 1.56384 0
M  V30 3950 O 380.032 -4.04856 0.785209 0
M  V30 3951 H 379.373 -0.560604 0.355835 0
M  V30 3952 H 381.903 -1.31059 1.57114 0
M  V30 3953 H 381.913 -3.75702 1.59097 0
M  V30 3954 H 380.588 -3.23244 2.61699 0
M  V30 3955 H 379.165 -3.63537 0.830399 0
M  V30 3956 N 381.35 -0.985608 -1.22978 0
M  V30 3957 C 382.599 -0.652881 -1.90841 0
M  V30 3958 C 382.912 0.817842 -1.77681 0
M  V30 3959 O 384.118 1.26185 -2.40395 0
M  V30 3960 C 382.574 -1.11717 -3.42122 0
M  V30 3961 C 382.182 -2.6126 -3.63933 0
M  V30 3962 C 383.926 -0.85843 -4.1573 0
M  V30 3963 C 381.833 -3.0133 -5.08876 0
M  V30 3964 H 380.763 -0.240491 -0.714619 0
M  V30 3965 H 383.414 -1.1942 -1.39324 0
M  V30 3966 H 381.796 -0.504027 -3.92779 0
M  V30 3967 H 382.97 -3.27858 -3.23799 0
M  V30 3968 H 381.285 -2.84937 -3.03644 0
M  V30 3969 H 383.882 -1.13359 -5.22546 0
M  V30 3970 H 384.225 0.205461 -4.15793 0
M  V30 3971 H 384.758 -1.43341 -3.71077 0
M  V30 3972 H 381.497 -4.06864 -5.13947 0
M  V30 3973 H 381.017 -2.3943 -5.49939 0
M  V30 3974 H 382.696 -2.92224 -5.77247 0
M  V30 3975 N 382.828 1.3818 -0.7579 0
M  V30 3976 C 384.056 2.04301 -0.326937 0
M  V30 3977 C 384.471 1.57163 1.0462 0
M  V30 3978 O 383.828 0.746626 1.66529 0
M  V30 3979 C 383.879 3.59846 -0.345363 0
M  V30 3980 O 383.6 4.05256 -1.66432 0
M  V30 3981 C 385.101 4.4319 0.098927 0
M  V30 3982 H 382.321 0.656443 -0.139012 0
M  V30 3983 H 384.865 1.76786 -1.02796 0
M  V30 3984 H 383.02 3.86182 0.306955 0
M  V30 3985 H 383.434 4.99709 -1.59345 0
M  V30 3986 H 384.908 5.51989 0.0348745 0
M  V30 3987 H 385.385 4.23947 1.14741 0
M  V30 3988 H 385.991 4.22051 -0.52468 0
M  V30 3989 N 384.306 0.507319 1.49211 0
M  V30 3990 C 385.239 -0.314509 2.26022 0
M  V30 3991 C 386.217 -0.964849 1.30879 0
M  V30 3992 O 387.401 -0.993707 1.6018 0
M  V30 3993 C 384.528 -1.44346 3.06402 0
M  V30 3994 C 383.574 -0.90685 4.16748 0
M  V30 3995 S 384.407 0.207392 5.35098 0
M  V30 3996 C 385.563 -0.924573 6.19033 0
M  V30 3997 H 385.796 0.337416 2.95379 0
M  V30 3998 H 383.329 0.292718 1.516 0
M  V30 3999 H 385.287 -2.09029 3.53295 0
M  V30 4000 H 383.948 -2.06702 2.36502 0
M  V30 4001 H 383.141 -1.75309 4.72528 0
M  V30 4002 H 382.743 -0.33712 3.72478 0
M  V30 4003 H 385.035 -1.82839 6.52362 0
M  V30 4004 H 385.978 -0.405248 7.06939 0
M  V30 4005 H 386.386 -1.19476 5.51712 0
M  V30 4006 N 385.784 -1.5574 0.241426 0
M  V30 4007 C 386.732 -2.22538 -0.676718 0
M  V30 4008 C 387.726 -1.21117 -1.18436 0
M  V30 4009 O 388.932 -1.39144 -1.14188 0
M  V30 4010 H 385.307 -0.713776 -0.236701 0
M  V30 4011 H 387.278 -2.98264 -0.0901187 0
M  V30 4012 C 386.027 -2.93439 -1.86518 0
M  V30 4013 H 385.35 -3.7125 -1.4837 0
M  V30 4014 H 386.79 -3.43549 -2.48495 0
M  V30 4015 C 385.249 -1.97008 -2.73294 0
M  V30 4016 O 385.779 -1.49965 -3.72657 0
M  V30 4017 N 383.985 -1.64227 -2.39745 0
M  V30 4018 H 383.532 -2.02677 -1.58996 0
M  V30 4019 H 383.49 -0.999708 -2.98083 0
M  V30 4020 N 387.262 0.0317525 -1.57568 0
M  V30 4021 C 388.51 0.721676 -1.88776 0
M  V30 4022 C 388.831 1.76039 -0.838772 0
M  V30 4023 O 388.101 1.95482 0.127935 0
M  V30 4024 H 386.681 0.269534 -0.696678 0
M  V30 4025 H 389.343 -0.00165879 -1.949 0
M  V30 4026 H 388.439 1.21293 -2.87566 0
M  V30 4027 N 388.74 1.54641 0.303973 0
M  V30 4028 C 389.65 1.88439 1.39743 0
M  V30 4029 C 390.666 0.778239 1.55626 0
M  V30 4030 O 391.842 1.07442 1.70347 0
M  V30 4031 C 388.907 2.12212 2.74166 0
M  V30 4032 C 387.968 3.35936 2.67293 0
M  V30 4033 C 387.201 3.58566 3.95305 0
M  V30 4034 O 387.424 2.84263 4.9452 0
M  V30 4035 O 386.358 4.52078 3.97378 0
M  V30 4036 H 390.184 2.81458 1.14083 0
M  V30 4037 H 387.769 1.40793 0.499768 0
M  V30 4038 H 389.651 2.29067 3.53704 0
M  V30 4039 H 388.326 1.22379 2.99675 0
M  V30 4040 H 387.233 3.24448 1.86237 0
M  V30 4041 H 388.566 4.2589 2.46736 0
M  V30 4042 N 390.218 -0.567019 1.47046 0
M  V30 4043 C 391.446 -1.35027 1.56765 0
M  V30 4044 C 391.861 -1.8758 0.214316 0
M  V30 4045 O 391.218 -1.64471 -0.790919 0
M  V30 4046 C 391.269 -2.52698 2.58507 0
M  V30 4047 O 390.99 -2.0232 3.88585 0
M  V30 4048 C 392.491 -3.45043 2.78316 0
M  V30 4049 H 389.711 -0.41195 0.529658 0
M  V30 4050 H 392.255 -0.687832 1.92585 0
M  V30 4051 H 390.41 -3.149 2.25648 0
M  V30 4052 H 390.824 -2.79068 4.44096 0
M  V30 4053 H 392.298 -4.2405 3.53391 0
M  V30 4054 H 392.775 -3.97971 1.85784 0
M  V30 4055 H 393.381 -2.88665 3.12334 0
M  V30 4056 N 391.696 -1.35014 -0.812953 0
M  V30 4057 C 392.945 -1.27269 -1.56479 0
M  V30 4058 C 393.258 0.152771 -1.95002 0
M  V30 4059 O 394.464 0.352451 -2.69203 0
M  V30 4060 C 392.92 -2.23159 -2.82362 0
M  V30 4061 C 392.528 -3.71016 -2.511 0
M  V30 4062 C 394.272 -2.24342 -3.60376 0
M  V30 4063 C 392.179 -4.58746 -3.73237 0
M  V30 4064 H 391.109 -0.472829 -0.587324 0
M  V30 4065 H 393.76 -1.6024 -0.894171 0
M  V30 4066 H 392.142 -1.83151 -3.51101 0
M  V30 4067 H 393.316 -4.1962 -1.90409 0
M  V30 4068 H 391.631 -3.72378 -1.86343 0
M  V30 4069 H 394.228 -2.87107 -4.51081 0
M  V30 4070 H 394.571 -1.24542 -3.97234 0
M  V30 4071 H 395.104 -2.62846 -2.98591 0
M  V30 4072 H 391.843 -5.59521 -3.41492 0
M  V30 4073 H 391.363 -4.14871 -4.33176 0
M  V30 4074 H 393.042 -4.73852 -4.40537 0
M  V30 4075 N 393.175 1.03435 -1.18907 0
M  V30 4076 C 394.138 2.09756 -0.923844 0
M  V30 4077 C 395.138 1.60528 0.093416 0
M  V30 4078 O 396.328 1.73631 -0.140727 0
M  V30 4079 C 393.46 3.38692 -0.387354 0
M  V30 4080 H 394.653 2.34719 -1.86674 0
M  V30 4081 H 392.206 1.19959 -1.00197 0
M  V30 4082 H 392.941 3.19396 0.561845 0
M  V30 4083 H 392.726 3.75742 -1.12074 0
M  V30 4084 H 394.216 4.17016 -0.220694 0
M  V30 4085 N 394.653 0.992116 1.22453 0
M  V30 4086 C 395.893 0.675727 1.92907 0
M  V30 4087 C 396.257 -0.777762 1.75542 0
M  V30 4088 O 397.458 -1.20553 2.40251 0
M  V30 4089 C 395.729 1.0696 3.4102 0
M  V30 4090 S 397.288 0.871456 4.30059 0
M  V30 4091 H 394.106 0.247089 0.666684 0
M  V30 4092 H 396.708 1.27423 1.48269 0
M  V30 4093 H 395.412 2.12383 3.51172 0
M  V30 4094 H 394.943 0.462858 3.90668 0
M  V30 4095 H 396.958 -0.238436 4.95627 0
M  V30 4096 N 396.131 -1.37776 0.765217 0
M  V30 4097 C 397.094 -2.28686 0.153416 0
M  V30 4098 C 398.094 -1.47727 -0.635081 0
M  V30 4099 O 399.284 -1.68027 -0.459632 0
M  V30 4100 C 396.416 -3.31608 -0.790495 0
M  V30 4101 H 397.609 -2.84297 0.954723 0
M  V30 4102 H 395.162 -1.46932 0.53299 0
M  V30 4103 H 395.897 -2.81109 -1.61705 0
M  V30 4104 H 395.682 -3.9144 -0.227348 0
M  V30 4105 H 397.172 -3.99559 -1.21419 0
M  V30 4106 N 397.609 -0.515225 -1.4894 0
M  V30 4107 C 398.519 0.259774 -2.33157 0
M  V30 4108 C 399.535 0.953501 -1.45548 0
M  V30 4109 O 400.711 0.931735 -1.78552 0
M  V30 4110 C 397.776 1.30193 -3.21326 0
M  V30 4111 C 396.837 0.620129 -4.24797 0
M  V30 4112 C 396.07 1.61263 -5.08753 0
M  V30 4113 O 396.293 2.84389 -4.94448 0
M  V30 4114 O 395.227 1.16013 -5.90614 0
M  V30 4115 H 399.053 -0.429932 -3.00641 0
M  V30 4116 H 396.638 -0.276346 -1.46822 0
M  V30 4117 H 398.52 1.90455 -3.75905 0
M  V30 4118 H 397.195 1.97431 -2.56521 0
M  V30 4119 H 396.102 -0.0226019 -3.74093 0
M  V30 4120 H 397.435 -0.0100493 -4.92199 0
M  V30 4121 N 399.087 1.5561 -0.249682 0
M  V30 4122 C 400.335 1.98618 0.373548 0
M  V30 4123 C 400.656 1.13919 1.58264 0
M  V30 4124 O 399.926 0.222637 1.94631 0
M  V30 4125 H 398.506 0.733571 0.141006 0
M  V30 4126 H 401.168 1.91748 -0.349117 0
M  V30 4127 H 400.264 3.04584 0.680796 0
M  V30 4128 N 400.565 -0.0233959 1.57583 0
M  V30 4129 C 401.805 -0.71784 1.9138 0
M  V30 4130 C 402.169 -1.72216 0.848853 0
M  V30 4131 O 403.37 -2.46527 1.07134 0
M  V30 4132 C 401.641 -1.36489 3.30311 0
M  V30 4133 S 403.2 -2.0877 3.85954 0
M  V30 4134 H 400.018 -0.237676 0.670098 0
M  V30 4135 H 402.62 0.0276709 1.9548 0
M  V30 4136 H 401.324 -0.620782 4.05678 0
M  V30 4137 H 400.855 -2.14883 3.29528 0
M  V30 4138 H 402.87 -3.35988 3.65139 0
M  V30 4139 N 402.043 -1.548 -0.295768 0
M  V30 4140 C 402.975 -1.82492 -1.3867 0
M  V30 4141 C 403.988 -0.708134 -1.46592 0
M  V30 4142 O 405.177 -0.985686 -1.48817 0
M  V30 4143 C 402.277 -1.95256 -2.76999 0
M  V30 4144 C 401.45 -3.25709 -2.91946 0
M  V30 4145 C 400.509 -3.28824 -4.10806 0
M  V30 4146 O 399.535 -4.02328 -4.02643 0
M  V30 4147 N 400.737 -2.5459 -5.21694 0
M  V30 4148 H 403.502 -2.76646 -1.15269 0
M  V30 4149 H 401.063 -1.54438 -0.485849 0
M  V30 4150 H 403.055 -1.94736 -3.54768 0
M  V30 4151 H 401.625 -1.08072 -2.93324 0
M  V30 4152 H 400.845 -3.38959 -2.01247 0
M  V30 4153 H 402.133 -4.11786 -2.98847 0
M  V30 4154 H 401.531 -1.94512 -5.31208 0
M  V30 4155 H 400.088 -2.59818 -5.97778 0
M  V30 4156 N 403.521 0.559213 -1.47345 0
M  V30 4157 C 404.484 1.64854 -1.59235 0
M  V30 4158 C 405.484 1.53851 -0.467607 0
M  V30 4159 O 406.674 1.58045 -0.732617 0
M  V30 4160 C 403.806 3.04388 -1.53496 0
M  V30 4161 H 404.999 1.55662 -2.56339 0
M  V30 4162 H 402.552 0.778973 -1.35505 0
M  V30 4163 H 403.287 3.19115 -0.577604 0
M  V30 4164 H 403.072 3.13783 -2.35123 0
M  V30 4165 H 404.562 3.83642 -1.6495 0
M  V30 4166 N 404.999 1.35443 0.805782 0
M  V30 4167 C 406.248 1.28097 1.55801 0
M  V30 4168 C 406.561 -0.142428 1.95081 0
M  V30 4169 O 407.767 -0.33817 2.69386 0
M  V30 4170 C 406.223 2.24653 2.81174 0
M  V30 4171 C 405.831 3.72342 2.49129 0
M  V30 4172 C 407.575 2.2625 3.59181 0
M  V30 4173 C 405.482 4.60719 3.70799 0
M  V30 4174 H 404.412 0.475937 0.584808 0
M  V30 4175 H 407.063 1.60712 0.885661 0
M  V30 4176 H 405.445 1.85011 3.50124 0
M  V30 4177 H 406.619 4.20624 1.88181 0
M  V30 4178 H 404.934 3.73361 1.84366 0
M  V30 4179 H 407.531 2.89495 4.49552 0
M  V30 4180 H 407.874 1.26647 3.96568 0
M  V30 4181 H 408.407 2.64426 2.97193 0
M  V30 4182 H 405.146 5.61324 3.3852 0
M  V30 4183 H 404.666 4.17163 4.3097 0
M  V30 4184 H 406.345 4.76182 4.38018 0
M  V30 4185 N 406.477 -1.02803 1.19454 0
M  V30 4186 C 407.723 -1.76478 0.999171 0
M  V30 4187 C 408.056 -1.88456 -0.468828 0
M  V30 4188 O 407.331 -1.40198 -1.34814 0
M  V30 4189 C 407.614 -3.19044 1.66981 0
M  V30 4190 C 407.467 -3.14932 3.21151 0
M  V30 4191 C 408.786 -4.17456 1.39349 0
M  V30 4192 H 405.905 -0.640614 0.364393 0
M  V30 4193 H 408.547 -1.20005 1.47305 0
M  V30 4194 H 406.697 -3.67263 1.2669 0
M  V30 4195 H 408.369 -2.74605 3.70661 0
M  V30 4196 H 406.612 -2.52625 3.52652 0
M  V30 4197 H 407.283 -4.1566 3.63223 0
M  V30 4198 H 409.759 -3.77842 1.74283 0
M  V30 4199 H 408.635 -5.154 1.88823 0
M  V30 4200 H 408.896 -4.40949 0.318813 0
M  V30 4201 N 407.956 -0.998596 -1.21925 0
M  V30 4202 C 409.233 -0.593401 -1.86382 0
M  V30 4203 C 409.613 0.92916 -1.89552 0
M  V30 4204 O 408.961 1.81347 -1.39017 0
M  V30 4205 C 409.171 -1.22039 -3.26967 0
M  V30 4206 C 410.519 -1.32449 -4.03413 0
M  V30 4207 O 411.543 -1.17522 -3.36254 0
M  V30 4208 O 410.402 -1.56395 -5.23644 0
M  V30 4209 H 407.496 -0.202385 -0.801854 0
M  V30 4210 H 410.042 -1.09484 -1.29659 0
M  V30 4211 H 408.814 -2.26158 -3.19325 0
M  V30 4212 H 408.437 -0.704906 -3.91301 0
M  V30 4213 N 409.434 1.37368 -0.772513 0
M  V30 4214 C 410.662 2.03942 -0.348588 0
M  V30 4215 C 411.077 1.58264 1.02947 0
M  V30 4216 O 410.434 0.764246 1.65727 0
M  V30 4217 C 410.485 3.5946 -0.38351 0
M  V30 4218 O 410.206 4.03468 -1.70721 0
M  V30 4219 C 411.707 4.4327 0.0519152 0
M  V30 4220 H 408.927 0.654931 -0.145966 0
M  V30 4221 H 411.471 1.75686 -1.04665 0
M  V30 4222 H 409.626 3.86486 0.265978 0
M  V30 4223 H 410.04 4.97991 -1.64636 0
M  V30 4224 H 411.514 5.51995 -0.0236733 0
M  V30 4225 H 411.991 4.2514 1.10238 0
M  V30 4226 H 412.597 4.21471 -0.569415 0
M  V30 4227 N 410.912 0.523116 1.48665 0
M  V30 4228 C 412.16 -0.0134497 2.02096 0
M  V30 4229 C 412.481 -1.35418 1.40311 0
M  V30 4230 O 411.751 -1.87543 0.566074 0
M  V30 4231 H 410.331 -0.00795915 0.746958 0
M  V30 4232 H 412.993 0.685388 1.82451 0
M  V30 4233 H 412.089 -0.126849 3.11842 0
M  V30 4234 N 412.39 -1.55475 0.257931 0
M  V30 4235 C 413.618 -2.03609 -0.367559 0
M  V30 4236 C 414.033 -1.13687 -1.50734 0
M  V30 4237 O 413.39 -0.153479 -1.81853 0
M  V30 4238 C 413.441 -3.51001 -0.864908 0
M  V30 4239 O 413.162 -4.37499 0.229465 0
M  V30 4240 C 414.663 -4.14946 -1.55997 0
M  V30 4241 H 411.883 -0.665459 -0.0860521 0
M  V30 4242 H 414.427 -2.00843 0.385014 0
M  V30 4243 H 412.582 -3.54266 -1.56762 0
M  V30 4244 H 412.996 -5.24286 -0.14998 0
M  V30 4245 H 414.47 -5.19735 -1.85956 0
M  V30 4246 H 414.947 -3.6209 -2.4857 0
M  V30 4247 H 415.553 -4.15635 -0.901543 0
M  V30 4248 N 413.868 0.0150385 -1.57593 0
M  V30 4249 C 415.093 0.718067 -1.94573 0
M  V30 4250 C 415.518 1.6734 -0.859005 0
M  V30 4251 O 414.876 1.80362 0.184147 0
M  V30 4252 C 414.924 1.43918 -3.30636 0
M  V30 4253 O 414.028 2.55299 -3.23876 0
M  V30 4254 H 413.369 0.192125 -0.635597 0
M  V30 4255 H 415.899 -0.0336708 -2.04572 0
M  V30 4256 H 415.909 1.80598 -3.65853 0
M  V30 4257 H 414.584 0.738619 -4.09289 0
M  V30 4258 H 413.161 2.21058 -3.00312 0
M  V30 4259 N 415.346 1.54954 0.287554 0
M  V30 4260 C 416.276 1.89839 1.35954 0
M  V30 4261 C 417.257 0.758675 1.52244 0
M  V30 4262 O 418.442 1.01557 1.65529 0
M  V30 4263 C 415.572 2.15753 2.72154 0
M  V30 4264 C 414.526 3.3159 2.70614 0
M  V30 4265 C 413.852 3.42952 4.10229 0
M  V30 4266 C 415.152 4.68359 2.31165 0
M  V30 4267 H 416.846 2.79625 1.07007 0
M  V30 4268 H 414.392 1.3454 0.513316 0
M  V30 4269 H 416.345 2.38743 3.47246 0
M  V30 4270 H 415.069 1.22752 3.02654 0
M  V30 4271 H 413.728 3.08545 1.97979 0
M  V30 4272 H 413.376 2.47443 4.37928 0
M  V30 4273 H 413.076 4.20826 4.10097 0
M  V30 4274 H 414.6 3.68218 4.87081 0
M  V30 4275 H 416.014 4.9099 2.95976 0
M  V30 4276 H 414.411 5.49044 2.42221 0
M  V30 4277 H 415.481 4.68165 1.26291 0
M  V30 4278 N 416.824 -0.551391 1.4764 0
M  V30 4279 C 417.754 -1.66757 1.63445 0
M  V30 4280 C 418.735 -1.63077 0.483742 0
M  V30 4281 O 419.92 -1.80607 0.71377 0
M  V30 4282 C 417.05 -3.05387 1.65396 0
M  V30 4283 C 416.004 -3.23918 2.79752 0
M  V30 4284 C 415.33 -4.63393 2.66779 0
M  V30 4285 C 416.63 -3.08735 4.21284 0
M  V30 4286 H 418.324 -1.53786 2.56886 0
M  V30 4287 H 415.87 -0.738415 1.23626 0
M  V30 4288 H 417.823 -3.83325 1.75043 0
M  V30 4289 H 416.547 -3.19332 0.685195 0
M  V30 4290 H 415.206 -2.48391 2.69625 0
M  V30 4291 H 414.854 -4.74144 1.67918 0
M  V30 4292 H 414.554 -4.7674 3.43501 0
M  V30 4293 H 416.078 -5.43458 2.78364 0
M  V30 4294 H 417.492 -3.76484 4.32357 0
M  V30 4295 H 415.889 -3.33588 4.98838 0
M  V30 4296 H 416.959 -2.0541 4.39243 0
M  V30 4297 N 418.302 -1.35869 -0.798587 0
M  V30 4298 C 419.53 -1.32722 -1.58722 0
M  V30 4299 C 419.945 0.0935631 -1.88568 0
M  V30 4300 O 419.302 1.04784 -1.49421 0
M  V30 4301 C 419.353 -2.13974 -2.91371 0
M  V30 4302 O 419.074 -3.50514 -2.62815 0
M  V30 4303 C 420.575 -2.18504 -3.85708 0
M  V30 4304 H 417.795 -0.45562 -0.492596 0
M  V30 4305 H 420.339 -1.78837 -0.991843 0
M  V30 4306 H 418.494 -1.71438 -3.47402 0
M  V30 4307 H 418.908 -3.92806 -3.47568 0
M  V30 4308 H 420.382 -2.79732 -4.75872 0
M  V30 4309 H 420.859 -1.18597 -4.22885 0
M  V30 4310 H 421.465 -2.61236 -3.35612 0
M  V30 4311 N 419.78 1.02168 -1.19998 0
M  V30 4312 C 421.028 1.75338 -1.00504 0
M  V30 4313 C 421.349 1.89387 0.464506 0
M  V30 4314 O 420.619 1.43268 1.33608 0
M  V30 4315 H 419.199 0.649564 -0.368885 0
M  V30 4316 H 421.861 1.23205 -1.51018 0
M  V30 4317 H 420.957 2.75892 -1.45912 0
M  V30 4318 N 421.258 1.00505 1.21394 0
M  V30 4319 C 422.669 0.721082 1.72213 0
M  V30 4320 C 423.02 -0.761263 1.80829 0
M  V30 4321 O 422.145 -1.59464 1.46288 0
M  V30 4322 C 422.74 1.30228 3.12772 0
M  V30 4323 C 421.299 1.06743 3.60947 0
M  V30 4324 C 420.446 1.41507 2.38477 0
M  V30 4325 H 423.397 1.17594 1.06571 0
M  V30 4326 H 423.418 0.686955 3.74247 0
M  V30 4327 H 422.93 2.38115 3.06468 0
M  V30 4328 H 421.031 0.00572162 3.726 0
M  V30 4329 H 421.144 1.73936 4.46411 0
M  V30 4330 H 419.508 0.833852 2.40664 0
M  V30 4331 H 420.291 2.50424 2.34824 0
M  V30 4332 N 422.737 -1.36956 0.779787 0
M  V30 4333 C 423.965 -2.03755 0.359398 0
M  V30 4334 C 424.38 -1.58807 -1.02106 0
M  V30 4335 O 423.737 -0.773024 -1.6532 0
M  V30 4336 C 423.788 -3.59251 0.402568 0
M  V30 4337 O 423.509 -4.02557 1.72858 0
M  V30 4338 C 425.01 -4.43291 -0.0284068 0
M  V30 4339 H 422.23 -0.654148 0.149437 0
M  V30 4340 H 424.774 -1.75128 1.05595 0
M  V30 4341 H 422.929 -3.86621 -0.245478 0
M  V30 4342 H 423.343 -4.97111 1.67275 0
M  V30 4343 H 424.817 -5.51975 0.0529466 0
M  V30 4344 H 425.294 -4.25719 -1.07982 0
M  V30 4345 H 425.9 -4.21163 0.591758 0
M  V30 4346 N 424.215 -0.530993 -1.48385 0
M  V30 4347 C 425.44 0.000729535 -2.074 0
M  V30 4348 C 425.865 1.27298 -1.3848 0
M  V30 4349 O 425.223 1.75599 -0.451081 0
M  V30 4350 C 425.271 0.206697 -3.60007 0
M  V30 4351 O 424.375 1.27514 -3.92191 0
M  V30 4352 H 423.716 -0.039583 -0.662819 0
M  V30 4353 H 426.246 -0.739194 -1.9078 0
M  V30 4354 H 426.256 0.42904 -4.05738 0
M  V30 4355 H 424.931 -0.722675 -4.09573 0
M  V30 4356 H 423.508 1.03537 -3.58238 0
M  V30 4357 N 425.693 1.55336 -0.266172 0
M  V30 4358 C 427.104 1.85236 0.233315 0
M  V30 4359 C 427.455 1.18816 1.56132 0
M  V30 4360 O 426.58 0.473307 2.11161 0
M  V30 4361 C 427.175 3.36059 0.430113 0
M  V30 4362 C 425.734 3.66116 0.873842 0
M  V30 4363 C 424.881 2.77274 -0.0380016 0
M  V30 4364 H 427.832 1.51004 -0.488214 0
M  V30 4365 H 427.853 3.58681 1.26998 0
M  V30 4366 H 427.365 3.84373 -0.536588 0
M  V30 4367 H 425.466 3.23295 1.85233 0
M  V30 4368 H 425.579 4.73699 0.717358 0
M  V30 4369 H 423.943 2.50198 0.476759 0
M  V30 4370 H 424.726 3.284 -1.00042 0
M  V30 4371 N 427.171 -0.0066808 1.57599 0
M  V30 4372 C 428.42 -0.692078 1.89455 0
M  V30 4373 C 428.733 -1.75306 0.867586 0
M  V30 4374 O 429.939 -2.49262 1.07614 0
M  V30 4375 C 428.395 -1.2821 3.36289 0
M  V30 4376 C 428.003 -0.256291 4.47266 0
M  V30 4377 C 429.747 -1.94608 3.77264 0
M  V30 4378 C 427.654 -0.855927 5.85173 0
M  V30 4379 H 426.584 -0.262252 0.706923 0
M  V30 4380 H 429.235 0.052769 1.83424 0
M  V30 4381 H 427.617 -2.0774 3.37135 0
M  V30 4382 H 428.791 0.513923 4.57925 0
M  V30 4383 H 427.106 0.306862 4.15268 0
M  V30 4384 H 429.703 -2.40364 4.77629 0
M  V30 4385 H 430.046 -2.77382 3.10427 0
M  V30 4386 H 430.579 -1.21822 3.78688 0
M  V30 4387 H 427.318 -0.0671161 6.55466 0
M  V30 4388 H 426.838 -1.59546 5.78191 0
M  V30 4389 H 428.517 -1.35658 6.32618 0
M  V30 4390 N 428.649 -1.55105 -0.279332 0
M  V30 4391 C 429.612 -1.86783 -1.32834 0
M  V30 4392 C 430.612 -0.74199 -1.42657 0
M  V30 4393 O 431.802 -1.0102 -1.41918 0
M  V30 4394 C 428.934 -2.06746 -2.71052 0
M  V30 4395 H 430.127 -2.8055 -1.05979 0
M  V30 4396 H 427.68 -1.47499 -0.517087 0
M  V30 4397 H 428.415 -1.15339 -3.03097 0
M  V30 4398 H 428.2 -2.88711 -2.65309 0
M  V30 4399 H 429.69 -2.32549 -3.46858 0
M  V30 4400 N 430.127 0.543554 -1.4793 0
M  V30 4401 C 431.075 1.67039 -1.61866 0
M  V30 4402 C 432.069 1.62294 -0.48549 0
M  V30 4403 O 433.275 1.67315 -0.66376 0
M  V30 4404 H 429.65 0.552954 -0.509652 0
M  V30 4405 H 431.621 1.52426 -2.56533 0
M  V30 4406 C 430.37 3.05357 -1.6629 0
M  V30 4407 H 429.693 3.09696 -2.5284 0
M  V30 4408 H 431.133 3.83855 -1.80088 0
M  V30 4409 C 429.592 3.34531 -0.398861 0
M  V30 4410 O 430.122 3.98649 0.494162 0
M  V30 4411 N 428.328 2.89299 -0.2747 0
M  V30 4412 H 427.875 2.37298 -1.00236 0
M  V30 4413 H 427.833 3.09188 0.570075 0
M  V30 4414 N 431.605 1.3629 0.791371 0
M  V30 4415 C 432.854 1.29742 1.54434 0
M  V30 4416 C 433.167 -0.121729 1.95221 0
M  V30 4417 O 434.373 -0.309579 2.69729 0
M  V30 4418 C 432.829 2.27623 2.78776 0
M  V30 4419 C 432.437 3.74963 2.45166 0
M  V30 4420 C 434.181 2.30047 3.56761 0
M  V30 4421 C 432.088 4.64626 3.65891 0
M  V30 4422 H 431.018 0.482113 0.579727 0
M  V30 4423 H 433.669 1.61642 0.868565 0
M  V30 4424 H 432.051 1.88714 3.48142 0
M  V30 4425 H 433.225 4.22596 1.83709 0
M  V30 4426 H 431.54 3.75295 1.80396 0
M  V30 4427 H 434.137 2.94247 4.46456 0
M  V30 4428 H 434.48 1.30846 3.95203 0
M  V30 4429 H 435.013 2.67563 2.94372 0
M  V30 4430 H 431.752 5.64883 3.32547 0
M  V30 4431 H 431.272 4.2171 4.26521 0
M  V30 4432 H 432.951 4.80801 4.32943 0
M  V30 4433 N 433.083 -1.0153 1.20538 0
M  V30 4434 C 434.015 -2.10224 0.913155 0
M  V30 4435 C 435.028 -1.62495 -0.0995998 0
M  V30 4436 O 436.217 -1.78014 0.131582 0
M  V30 4437 C 433.317 -3.37111 0.347717 0
M  V30 4438 C 432.49 -4.13971 1.41233 0
M  V30 4439 C 431.549 -5.19158 0.857976 0
M  V30 4440 O 430.575 -5.48 1.53897 0
M  V30 4441 N 431.777 -5.7955 -0.331966 0
M  V30 4442 H 434.542 -2.35879 1.84881 0
M  V30 4443 H 432.103 -1.17931 1.10923 0
M  V30 4444 H 434.095 -4.04683 -0.0373026 0
M  V30 4445 H 432.665 -3.08696 -0.492527 0
M  V30 4446 H 431.885 -3.41351 1.97163 0
M  V30 4447 H 433.173 -4.62103 2.12928 0
M  V30 4448 H 432.571 -5.58455 -0.902478 0
M  V30 4449 H 431.128 -6.48464 -0.65861 0
M  V30 4450 N 434.561 -1.01147 -1.20859 0
M  V30 4451 C 435.786 -0.716698 -1.94623 0
M  V30 4452 C 436.211 0.715415 -1.73964 0
M  V30 4453 O 435.569 1.49157 -1.03062 0
M  V30 4454 C 435.617 -1.0513 -3.44935 0
M  V30 4455 O 434.721 -0.160131 -4.12089 0
M  V30 4456 H 434.062 -0.266404 -0.608214 0
M  V30 4457 H 436.592 -1.35346 -1.53436 0
M  V30 4458 H 436.602 -1.00086 -3.95533 0
M  V30 4459 H 435.277 -2.09475 -3.59295 0
M  V30 4460 H 433.854 -0.267657 -3.71938 0
M  V30 4461 N 436.039 1.36541 -0.78704 0
M  V30 4462 C 437.316 1.9355 -0.282424 0
M  V30 4463 C 437.696 1.71919 1.22503 0
M  V30 4464 O 437.044 1.07677 2.01539 0
M  V30 4465 C 437.254 3.4246 -0.672462 0
M  V30 4466 C 438.602 4.19582 -0.650863 0
M  V30 4467 O 439.626 3.50889 -0.612789 0
M  V30 4468 O 438.485 5.42106 -0.691623 0
M  V30 4469 H 435.579 0.824091 -0.0693 0
M  V30 4470 H 438.125 1.45736 -0.869423 0
M  V30 4471 H 436.897 3.51851 -1.71221 0
M  V30 4472 H 436.52 3.97556 -0.0592211 0
M  V30 4473 N 437.518 0.538854 1.48102 0
M  V30 4474 C 438.767 0.0059532 2.01699 0
M  V30 4475 C 439.08 -1.34476 1.42041 0
M  V30 4476 O 440.286 -1.96653 1.87189 0
M  V30 4477 C 438.742 -0.0397627 3.59878 0
M  V30 4478 C 438.35 1.30659 4.28523 0
M  V30 4479 C 440.094 -0.521024 4.2129 0
M  V30 4480 C 438.001 1.22098 5.78659 0
M  V30 4481 H 436.931 -0.00154456 0.753998 0
M  V30 4482 H 439.582 0.683963 1.70277 0
M  V30 4483 H 437.964 -0.783037 3.88181 0
M  V30 4484 H 439.138 2.06613 4.11883 0
M  V30 4485 H 437.453 1.7243 3.79021 0
M  V30 4486 H 440.05 -0.603184 5.31287 0
M  V30 4487 H 440.393 -1.52885 3.8721 0
M  V30 4488 H 440.926 0.166834 3.9745 0
M  V30 4489 H 437.665 2.20424 6.17328 0
M  V30 4490 H 437.185 0.50295 5.97688 0
M  V30 4491 H 438.864 0.915345 6.40492 0
M  V30 4492 N 438.996 -1.55193 0.274407 0
M  V30 4493 C 440.244 -1.99187 -0.341902 0
M  V30 4494 C 440.565 -1.16422 -1.56431 0
M  V30 4495 O 439.835 -0.253573 -1.94252 0
M  V30 4496 H 438.415 -0.735721 -0.129317 0
M  V30 4497 H 441.077 -1.91168 0.379578 0
M  V30 4498 H 440.173 -3.05629 -0.632253 0
M  V30 4499 N 440.474 -0.00167713 -1.576 0
M  V30 4500 C 441.437 0.974046 -2.07473 0
M  V30 4501 C 442.437 1.27143 -0.984444 0
M  V30 4502 O 443.627 1.21633 -1.24703 0
M  V30 4503 C 440.759 2.29849 -2.51759 0
M  V30 4504 H 441.952 0.54262 -2.9495 0
M  V30 4505 H 439.505 0.245829 -1.54355 0
M  V30 4506 H 440.24 2.77677 -1.67529 0
M  V30 4507 H 440.025 2.09584 -3.31386 0
M  V30 4508 H 441.515 2.9984 -2.90664 0
M  V30 4509 N 441.952 1.55251 0.271103 0
M  V30 4510 C 443.177 1.80306 1.02491 0
M  V30 4511 C 443.602 0.575457 1.79081 0
M  V30 4512 O 442.96 -0.474987 1.74967 0
M  V30 4513 C 443.008 3.02832 1.95768 0
M  V30 4514 O 442.112 2.78051 3.04568 0
M  V30 4515 H 441.453 0.595896 0.292923 0
M  V30 4516 H 443.983 2.02397 0.299436 0
M  V30 4517 H 443.993 3.31616 2.37686 0
M  V30 4518 H 442.668 3.9183 1.39434 0
M  V30 4519 H 441.245 2.60369 2.66951 0
M  V30 4520 N 443.43 -0.535701 1.48216 0
M  V30 4521 C 444.34 -1.66785 1.64985 0
M  V30 4522 C 445.356 -1.65654 0.532414 0
M  V30 4523 O 446.532 -1.8471 0.80275 0
M  V30 4524 C 443.597 -3.0326 1.68031 0
M  V30 4525 C 442.658 -3.1529 2.9136 0
M  V30 4526 C 441.891 -4.45255 2.94252 0
M  V30 4527 O 442.114 -5.32011 2.05719 0
M  V30 4528 O 441.048 -4.6153 3.86359 0
M  V30 4529 H 444.874 -1.55576 2.60825 0
M  V30 4530 H 442.459 -0.70815 1.31551 0
M  V30 4531 H 444.341 -3.84436 1.72589 0
M  V30 4532 H 443.016 -3.14805 0.753628 0
M  V30 4533 H 441.923 -2.3343 2.92337 0
M  V30 4534 H 443.256 -3.08658 3.83394 0
M  V30 4535 N 444.908 -1.36708 -0.784132 0
M  V30 4536 C 445.856 -1.31533 -1.91838 0
M  V30 4537 C 446.85 -0.206205 -1.6814 0
M  V30 4538 O 448.056 -0.373519 -1.76082 0
M  V30 4539 H 444.431 -0.409613 -0.630651 0
M  V30 4540 H 446.402 -2.2731 -1.9332 0
M  V30 4541 C 445.151 -1.12679 -3.28936 0
M  V30 4542 H 444.474 -1.97274 -3.4774 0
M  V30 4543 H 445.914 -1.13106 -4.08636 0
M  V30 4544 C 444.373 0.168281 -3.36479 0
M  V30 4545 O 444.903 1.15625 -3.84699 0
M  V30 4546 N 443.109 0.214762 -2.89805 0
M  V30 4547 H 442.656 -0.589852 -2.50756 0
M  V30 4548 H 442.614 1.08094 -2.95234 0
M  V30 4549 N 446.386 1.0089 -1.21074 0
M  V30 4550 C 447.611 1.78727 -1.05221 0
M  V30 4551 C 448.036 1.83932 0.393795 0
M  V30 4552 O 447.394 1.28004 1.28393 0
M  V30 4553 C 447.442 3.20665 -1.64944 0
M  V30 4554 O 446.546 4.02632 -0.892273 0
M  V30 4555 H 445.887 0.550973 -0.370574 0
M  V30 4556 H 448.417 1.26847 -1.60534 0
M  V30 4557 H 448.427 3.71352 -1.69002 0
M  V30 4558 H 447.102 3.16191 -2.70177 0
M  V30 4559 H 445.679 3.61207 -0.926492 0
M  V30 4560 N 447.864 1.01787 1.20321 0
M  V30 4561 C 449.141 0.622978 1.85414 0
M  V30 4562 C 449.521 -0.898887 1.91006 0
M  V30 4563 O 448.869 -1.79112 1.41884 0
M  V30 4564 C 449.079 1.27226 3.24984 0
M  V30 4565 C 450.427 1.3885 4.01255 0
M  V30 4566 O 451.451 1.22857 3.34342 0
M  V30 4567 O 450.31 1.64705 5.2109 0
M  V30 4568 H 447.404 0.215116 0.798533 0
M  V30 4569 H 449.95 1.11533 1.27901 0
M  V30 4570 H 448.722 2.31209 3.15687 0
M  V30 4571 H 448.345 0.767069 3.90131 0
M  V30 4572 N 449.342 -1.36122 0.79427 0
M  V30 4573 C 450.59 -1.98718 0.368177 0
M  V30 4574 C 450.911 -1.63345 -1.06506 0
M  V30 4575 O 450.181 -0.909825 -1.73491 0
M  V30 4576 H 448.761 -0.735038 0.133146 0
M  V30 4577 H 451.423 -1.66239 1.01739 0
M  V30 4578 H 450.519 -3.08633 0.463923 0
M  V30 4579 N 450.82 -0.546701 -1.47814 0
M  V30 4580 C 452.097 0.0464413 -1.95545 0
M  V30 4581 C 452.477 1.4962 -1.48919 0
M  V30 4582 O 451.825 2.16752 -0.723232 0
M  V30 4583 C 452.035 -0.0881298 -3.48889 0
M  V30 4584 C 453.383 0.0626059 -4.24554 0
M  V30 4585 O 454.407 -0.0151555 -3.56197 0
M  V30 4586 O 453.266 0.228071 -5.46024 0
M  V30 4587 H 450.36 0.0700004 -0.824032 0
M  V30 4588 H 452.906 -0.612482 -1.58262 0
M  V30 4589 H 451.678 -1.09737 -3.75597 0
M  V30 4590 H 451.301 0.608886 -3.9291 0
M  V30 4591 N 452.299 1.55045 -0.282633 0
M  V30 4592 C 453.232 2.18951 0.64311 0
M  V30 4593 C 454.21 1.15287 1.14664 0
M  V30 4594 O 455.394 1.43846 1.21822 0
M  V30 4595 C 452.521 2.81874 1.87789 0
M  V30 4596 C 451.567 3.98906 1.50919 0
M  V30 4597 S 452.4 5.3234 0.580884 0
M  V30 4598 C 453.556 5.98737 1.82387 0
M  V30 4599 H 453.789 2.97131 0.100138 0
M  V30 4600 H 451.322 1.54255 -0.0668514 0
M  V30 4601 H 453.28 3.18757 2.58658 0
M  V30 4602 H 451.941 2.03573 2.392 0
M  V30 4603 H 451.134 4.4165 2.42819 0
M  V30 4604 H 450.736 3.63485 0.88061 0
M  V30 4605 H 453.028 6.18427 2.76684 0
M  V30 4606 H 453.971 6.93318 1.4393 0
M  V30 4607 H 454.379 5.28177 1.99223 0
M  V30 4608 N 453.777 0.010035 1.57597 0
M  V30 4609 C 455.023 -0.673697 1.91283 0
M  V30 4610 C 455.356 -1.72863 0.884979 0
M  V30 4611 O 454.631 -1.94268 -0.0949487 0
M  V30 4612 C 454.914 -1.30766 3.35518 0
M  V30 4613 C 454.767 -0.263578 4.49027 0
M  V30 4614 C 456.086 -2.23105 3.79358 0
M  V30 4615 H 453.205 -0.243439 0.695634 0
M  V30 4616 H 455.847 0.0633864 1.89894 0
M  V30 4617 H 453.997 -1.93588 3.36832 0
M  V30 4618 H 455.669 0.365738 4.59848 0
M  V30 4619 H 453.912 0.413077 4.31829 0
M  V30 4620 H 454.583 -0.746398 5.4693 0
M  V30 4621 H 457.059 -1.70289 3.79659 0
M  V30 4622 H 455.935 -2.64424 4.81011 0
M  V30 4623 H 456.196 -3.11433 3.13787 0
M  V30 4624 N 455.255 -1.55392 -0.262866 0
M  V30 4625 C 456.501 -1.76737 -0.99458 0
M  V30 4626 C 456.834 -0.572453 -1.85571 0
M  V30 4627 O 456.109 0.429732 -1.89693 0
M  V30 4628 C 456.392 -3.07824 -1.8686 0
M  V30 4629 C 456.245 -4.3769 -1.03672 0
M  V30 4630 C 457.564 -3.35021 -2.85393 0
M  V30 4631 H 454.683 -0.643005 -0.360157 0
M  V30 4632 H 457.325 -1.88126 -0.266216 0
M  V30 4633 H 455.475 -2.98245 -2.48962 0
M  V30 4634 H 457.147 -4.59238 -0.43563 0
M  V30 4635 H 455.39 -4.32461 -0.340513 0
M  V30 4636 H 456.061 -5.25759 -1.6817 0
M  V30 4637 H 458.537 -3.44458 -2.33426 0
M  V30 4638 H 457.413 -4.27989 -3.43681 0
M  V30 4639 H 457.674 -2.55153 -3.61039 0
M  V30 4640 N 456.733 0.527833 -1.48498 0
M  V30 4641 C 457.958 1.313 -1.60546 0
M  V30 4642 C 458.383 1.86199 -0.26672 0
M  V30 4643 O 457.741 1.64513 0.761918 0
M  V30 4644 C 457.789 2.43818 -2.65678 0
M  V30 4645 O 456.893 3.46916 -2.22987 0
M  V30 4646 H 456.234 0.388784 -0.538277 0
M  V30 4647 H 458.764 0.634896 -1.945 0
M  V30 4648 H 458.774 2.89973 -2.87018 0
M  V30 4649 H 457.449 2.03222 -3.62869 0
M  V30 4650 H 456.026 3.06864 -2.11869 0
M  V30 4651 N 458.211 1.37122 0.776871 0
M  V30 4652 C 459.451 1.33441 1.54831 0
M  V30 4653 C 459.815 -0.0818963 1.91825 0
M  V30 4654 O 461.016 -0.24338 2.67696 0
M  V30 4655 C 459.287 2.24267 2.78279 0
M  V30 4656 S 460.846 2.38389 3.68397 0
M  V30 4657 H 457.664 0.473791 0.530135 0
M  V30 4658 H 460.266 1.7282 0.913968 0
M  V30 4659 H 458.97 3.261 2.49173 0
M  V30 4660 H 458.501 1.85953 3.46677 0
M  V30 4661 H 460.516 1.59068 4.70013 0
M  V30 4662 N 459.689 -1.00246 1.21608 0
M  V30 4663 C 460.914 -1.78167 1.06167 0
M  V30 4664 C 461.339 -1.84138 -0.384035 0
M  V30 4665 O 460.697 -1.28683 -1.27712 0
M  V30 4666 C 460.745 -3.19786 1.66642 0
M  V30 4667 O 459.849 -4.02153 0.913613 0
M  V30 4668 H 459.19 -0.549 0.37349 0
M  V30 4669 H 461.72 -1.25994 1.61204 0
M  V30 4670 H 461.73 -3.70451 1.70969 0
M  V30 4671 H 460.405 -3.14754 2.7185 0
M  V30 4672 H 458.982 -3.60711 0.945635 0
M  V30 4673 N 461.167 -1.02423 -1.1978 0
M  V30 4674 C 462.13 -0.605703 -2.21052 0
M  V30 4675 C 463.13 0.328209 -1.57415 0
M  V30 4676 O 464.32 0.115853 -1.73814 0
M  V30 4677 C 461.452 0.114366 -3.40708 0
M  V30 4678 H 462.645 -1.5017 -2.59594 0
M  V30 4679 H 460.198 -0.814888 -1.33376 0
M  V30 4680 H 460.933 1.02492 -3.07678 0
M  V30 4681 H 460.718 -0.556641 -3.88129 0
M  V30 4682 H 462.208 0.394272 -4.15735 0
M  V30 4683 N 462.645 1.35699 -0.801477 0
M  V30 4684 C 463.894 1.98165 -0.375979 0
M  V30 4685 C 464.207 1.64306 1.06127 0
M  V30 4686 O 465.413 2.20097 1.58964 0
M  V30 4687 C 463.869 3.54497 -0.621305 0
M  V30 4688 C 463.477 3.9727 -2.07076 0
M  V30 4689 C 465.221 4.23697 -0.26091 0
M  V30 4690 C 463.128 5.46427 -2.26211 0
M  V30 4691 H 462.058 0.741478 -0.136844 0
M  V30 4692 H 464.709 1.54834 -0.984814 0
M  V30 4693 H 463.091 3.95958 0.0574112 0
M  V30 4694 H 464.265 3.66974 -2.78687 0
M  V30 4695 H 462.58 3.40943 -2.39054 0
M  V30 4696 H 465.177 5.33334 -0.381994 0
M  V30 4697 H 465.52 4.0869 0.792344 0
M  V30 4698 H 466.053 3.87639 -0.893339 0
M  V30 4699 H 462.792 5.66396 -3.29963 0
M  V30 4700 H 462.312 5.78309 -1.59119 0
M  V30 4701 H 463.991 6.12819 -2.07513 0
M  V30 4702 N 464.123 0.554532 1.47522 0
M  V30 4703 C 465.348 0.0322661 2.07375 0
M  V30 4704 C 465.773 -1.25079 1.40488 0
M  V30 4705 O 465.131 -1.74859 0.47896 0
M  V30 4706 C 465.179 -0.149397 3.6029 0
M  V30 4707 O 464.283 -1.21259 3.9417 0
M  V30 4708 H 463.624 0.0501228 0.662106 0
M  V30 4709 H 466.154 0.769452 1.8958 0
M  V30 4710 H 466.164 -0.364437 4.06369 0
M  V30 4711 H 464.839 0.787743 4.08372 0
M  V30 4712 H 463.416 -0.97825 3.5984 0
M  V30 4713 N 465.601 -1.54893 0.290851 0
M  V30 4714 C 466.826 -2.04804 -0.32712 0
M  V30 4715 C 467.251 -1.16721 -1.47506 0
M  V30 4716 O 466.609 -0.169107 -1.8051 0
M  V30 4717 C 466.657 -3.52268 -0.770689 0
M  V30 4718 O 465.761 -3.67236 -1.87647 0
M  V30 4719 H 465.102 -0.660789 -0.0652227 0
M  V30 4720 H 467.632 -2.00036 0.429739 0
M  V30 4721 H 467.642 -3.9393 -1.06223 0
M  V30 4722 H 466.317 -4.15843 0.069096 0
M  V30 4723 H 464.894 -3.37479 -1.58626 0
M  V30 4724 N 467.08 -0.0183926 -1.57589 0
M  V30 4725 C 468.01 0.965596 -2.12599 0
M  V30 4726 C 468.991 1.34641 -1.0395 0
M  V30 4727 O 470.176 1.42693 -1.31729 0
M  V30 4728 C 467.306 2.25149 -2.64434 0
M  V30 4729 C 466.26 2.01175 -3.77773 0
M  V30 4730 C 465.586 3.35937 -4.15994 0
M  V30 4731 C 466.886 1.35953 -5.04296 0
M  V30 4732 H 468.58 0.507504 -2.95067 0
M  V30 4733 H 466.126 0.242671 -1.41941 0
M  V30 4734 H 468.079 2.94357 -3.01549 0
M  V30 4735 H 466.803 2.73105 -1.79112 0
M  V30 4736 H 465.462 1.34388 -3.4108 0
M  V30 4737 H 465.11 3.81631 -3.27669 0
M  V30 4738 H 464.81 3.20705 -4.92364 0
M  V30 4739 H 466.334 4.0643 -4.55683 0
M  V30 4740 H 467.748 1.95144 -5.39065 0
M  V30 4741 H 466.145 1.31152 -5.85593 0
M  V30 4742 H 467.215 0.331071 -4.83768 0
M  V30 4743 N 468.558 1.5553 0.254621 0
M  V30 4744 C 469.969 1.67518 0.824286 0
M  V30 4745 C 470.32 0.614429 1.86331 0
M  V30 4746 O 469.445 -0.240736 2.15057 0
M  V30 4747 C 470.04 3.03692 1.50189 0
M  V30 4748 C 468.599 3.17646 2.01935 0
M  V30 4749 C 467.746 2.63373 0.867746 0
M  V30 4750 H 470.697 1.58671 0.0305843 0
M  V30 4751 H 470.718 2.97706 2.36962 0
M  V30 4752 H 470.23 3.80874 0.745431 0
M  V30 4753 H 468.331 2.45273 2.80485 0
M  V30 4754 H 468.444 4.24455 2.22204 0
M  V30 4755 H 466.808 2.20999 1.26616 0
M  V30 4756 H 467.591 3.43074 0.124498 0
M  V30 4757 N 470.036 -0.519951 1.48776 0
M  V30 4758 C 471.313 -1.28123 1.47797 0
M  V30 4759 C 471.693 -2.10196 0.195157 0
M  V30 4760 O 471.041 -2.13167 -0.822925 0
M  V30 4761 C 471.251 -2.15413 2.74587 0
M  V30 4762 C 472.599 -2.75225 3.23321 0
M  V30 4763 O 473.623 -2.25694 2.75574 0
M  V30 4764 O 472.482 -3.65346 4.06429 0
M  V30 4765 H 469.576 -0.578793 0.590701 0
M  V30 4766 H 472.122 -0.535779 1.6102 0
M  V30 4767 H 470.894 -1.54617 3.59457 0
M  V30 4768 H 470.517 -2.97186 2.64132 0
M  V30 4769 N 471.514 -1.37532 -0.769588 0
M  V30 4770 C 472.763 -1.32183 -1.5235 0
M  V30 4771 C 473.076 0.0906555 -1.9539 0
M  V30 4772 O 474.282 0.266628 -2.70188 0
M  V30 4773 C 472.738 -2.32029 -2.75119 0
M  V30 4774 C 472.346 -3.78816 -2.3917 0
M  V30 4775 C 474.09 -2.35694 -3.53056 0
M  V30 4776 C 471.997 -4.70388 -3.58453 0
M  V30 4777 H 470.927 -0.491275 -0.571984 0
M  V30 4778 H 473.578 -1.63004 -0.842739 0
M  V30 4779 H 471.96 -1.94229 -3.45096 0
M  V30 4780 H 473.134 -4.25466 -1.76962 0
M  V30 4781 H 471.449 -3.78117 -1.74402 0
M  V30 4782 H 474.046 -3.01312 -4.41718 0
M  V30 4783 H 474.389 -1.37117 -3.93071 0
M  V30 4784 H 474.922 -2.72212 -2.90078 0
M  V30 4785 H 471.661 -5.70102 -3.23518 0
M  V30 4786 H 471.181 -4.28442 -4.19758 0
M  V30 4787 H 472.86 -4.87628 -4.25239 0
M  V30 4788 N 472.992 0.995999 -1.22138 0
M  V30 4789 C 474.238 1.73767 -1.04561 0
M  V30 4790 C 474.571 1.89633 0.418698 0
M  V30 4791 O 473.846 1.43723 1.3105 0
M  V30 4792 C 474.129 3.14505 -1.75382 0
M  V30 4793 C 473.982 3.06306 -3.29388 0
M  V30 4794 C 475.301 4.13615 -1.50369 0
M  V30 4795 H 472.42 0.630728 -0.38125 0
M  V30 4796 H 475.062 1.16057 -1.50435 0
M  V30 4797 H 473.212 3.63775 -1.36383 0
M  V30 4798 H 474.884 2.64681 -3.77812 0
M  V30 4799 H 473.127 2.43186 -3.59226 0
M  V30 4800 H 473.798 4.05884 -3.74116 0
M  V30 4801 H 476.274 3.73089 -1.84239 0
M  V30 4802 H 475.15 5.10212 -2.02421 0
M  V30 4803 H 475.411 4.39949 -0.435611 0
M  V30 4804 N 474.47 1.03057 1.19235 0
M  V30 4805 C 475.717 0.728019 1.88961 0
M  V30 4806 C 476.045 -0.743515 1.79728 0
M  V30 4807 O 475.3 -1.55729 1.1852 0
M  V30 4808 C 475.599 1.1268 3.39172 0
M  V30 4809 C 475.265 2.5969 3.68608 0
M  V30 4810 C 473.927 2.99854 3.76352 0
M  V30 4811 C 476.279 3.54793 3.81801 0
M  V30 4812 C 473.607 4.34031 3.94758 0
M  V30 4813 C 475.959 4.88675 4.0172 0
M  V30 4814 C 474.623 5.28526 4.07697 0
M  V30 4815 H 473.893 0.266401 0.691456 0
M  V30 4816 H 476.54 1.29373 1.41191 0
M  V30 4817 H 474.845 0.479722 3.88852 0
M  V30 4818 H 476.542 0.870203 3.91444 0
M  V30 4819 H 473.132 2.27575 3.63191 0
M  V30 4820 H 477.316 3.24914 3.7516 0
M  V30 4821 H 472.572 4.6444 3.97625 0
M  V30 4822 H 476.746 5.6228 4.1087 0
M  V30 4823 H 474.373 6.32506 4.21712 0
M  V30 4824 N 475.948 -1.35272 0.808662 0
M  V30 4825 C 477.176 -2.02946 0.402537 0
M  V30 4826 C 477.591 -1.60937 -0.987147 0
M  V30 4827 O 476.948 -0.807917 -1.63643 0
M  V30 4828 C 476.999 -3.58317 0.47868 0
M  V30 4829 O 476.72 -3.98799 1.81358 0
M  V30 4830 C 478.221 -4.43251 0.0656281 0
M  V30 4831 H 475.441 -0.650831 0.163279 0
M  V30 4832 H 477.985 -1.72849 1.09286 0
M  V30 4833 H 476.14 -3.87055 -0.163415 0
M  V30 4834 H 476.554 -4.93451 1.77781 0
M  V30 4835 H 478.028 -5.51738 0.170017 0
M  V30 4836 H 478.505 -4.27913 -0.989278 0
M  V30 4837 H 479.111 -4.19813 0.68096 0
M  V30 4838 N 477.426 -0.562348 -1.47226 0
M  V30 4839 C 478.675 -0.038041 -2.01664 0
M  V30 4840 C 478.988 1.32199 -1.44162 0
M  V30 4841 O 480.194 1.9365 -1.90294 0
M  V30 4842 C 478.65 -0.0174958 -3.59896 0
M  V30 4843 C 478.258 -1.3746 -4.2639 0
M  V30 4844 C 480.002 0.453934 -4.22066 0
M  V30 4845 C 477.909 -1.31289 -5.76643 0
M  V30 4846 H 476.839 -0.0104511 -0.753928 0
M  V30 4847 H 479.49 -0.710966 -1.69167 0
M  V30 4848 H 477.872 0.721182 -3.89378 0
M  V30 4849 H 479.046 -2.1314 -4.08544 0
M  V30 4850 H 477.361 -1.78438 -3.7623 0
M  V30 4851 H 479.958 0.518584 -5.32179 0
M  V30 4852 H 480.301 1.46706 -3.89594 0
M  V30 4853 H 480.834 -0.230044 -3.97134 0
M  V30 4854 H 477.573 -2.30217 -6.13743 0
M  V30 4855 H 477.093 -0.597973 -5.96812 0
M  V30 4856 H 478.772 -1.01713 -6.38955 0
M  V30 4857 N 478.904 1.54736 -0.299062 0
M  V30 4858 C 479.852 2.24897 0.593658 0
M  V30 4859 C 480.846 1.25429 1.13859 0
M  V30 4860 O 482.052 1.43286 1.08945 0
M  V30 4861 H 478.427 0.72207 0.210046 0
M  V30 4862 H 480.398 2.98393 -0.0206421 0
M  V30 4863 C 479.147 3.00159 1.75499 0
M  V30 4864 H 478.47 3.76501 1.34489 0
M  V30 4865 H 479.91 3.52535 2.35574 0
M  V30 4866 C 478.369 2.07015 2.65794 0
M  V30 4867 O 478.899 1.63692 3.66835 0
M  V30 4868 N 477.105 1.73012 2.33485 0
M  V30 4869 H 476.652 2.08439 1.51364 0
M  V30 4870 H 476.61 1.10965 2.94167 0
M  V30 4871 N 480.382 0.0267497 1.57577 0
M  V30 4872 C 481.63 -0.651116 1.91324 0
M  V30 4873 C 481.951 -1.72804 0.90353 0
M  V30 4874 O 481.221 -1.95822 -0.0552946 0
M  V30 4875 H 479.801 -0.243491 0.706202 0
M  V30 4876 H 482.463 0.0739935 1.94759 0
M  V30 4877 H 481.559 -1.10536 2.9187 0
M  V30 4878 N 481.861 -1.55662 -0.24637 0
M  V30 4879 C 483.107 -1.77782 -0.975779 0
M  V30 4880 C 483.44 -0.592103 -1.84953 0
M  V30 4881 O 482.715 0.409588 -1.90138 0
M  V30 4882 C 482.998 -3.09788 -1.83584 0
M  V30 4883 C 482.851 -4.38764 -0.990241 0
M  V30 4884 C 484.17 -3.38029 -2.81823 0
M  V30 4885 H 481.289 -0.646789 -0.353317 0
M  V30 4886 H 483.931 -1.88398 -0.246248 0
M  V30 4887 H 482.081 -3.00869 -2.45784 0
M  V30 4888 H 483.753 -4.59675 -0.386897 0
M  V30 4889 H 481.996 -4.32798 -0.294626 0
M  V30 4890 H 482.667 -5.27514 -1.62584 0
M  V30 4891 H 485.143 -3.46915 -2.2976 0
M  V30 4892 H 484.019 -4.3161 -3.39122 0
M  V30 4893 H 484.28 -2.58968 -3.58313 0
M  V30 4894 N 483.339 0.512053 -1.4905 0
M  V30 4895 C 484.271 1.63121 -1.6101 0
M  V30 4896 C 485.284 1.55145 -0.493352 0
M  V30 4897 O 486.473 1.61278 -0.764955 0
M  V30 4898 C 483.573 3.01863 -1.54052 0
M  V30 4899 C 482.746 3.35138 -2.81072 0
M  V30 4900 C 481.805 4.5324 -2.67319 0
M  V30 4901 O 480.831 4.55571 -3.41238 0
M  V30 4902 N 482.033 5.52495 -1.78127 0
M  V30 4903 H 484.798 1.53292 -2.5753 0
M  V30 4904 H 482.359 0.699706 -1.45999 0
M  V30 4905 H 484.351 3.78774 -1.42521 0
M  V30 4906 H 482.921 3.05675 -0.654345 0
M  V30 4907 H 482.141 2.4723 -3.07036 0
M  V30 4908 H 483.429 3.54162 -3.65304 0
M  V30 4909 H 482.827 5.53403 -1.17308 0
M  V30 4910 H 481.384 6.28553 -1.72525 0
M  V30 4911 N 484.817 1.37938 0.762283 0
M  V30 4912 C 486.047 1.36685 1.54922 0
M  V30 4913 C 486.455 -0.0474099 1.89141 0
M  V30 4914 O 485.798 -1.02213 1.52638 0
M  V30 4915 C 485.86 2.14963 2.88152 0
M  V30 4916 C 485.524 3.6385 2.76518 0
M  V30 4917 C 486.521 4.57531 2.46904 0
M  V30 4918 C 484.206 4.07095 2.94243 0
M  V30 4919 C 486.2 5.92436 2.35156 0
M  V30 4920 C 483.887 5.42083 2.82116 0
M  V30 4921 C 484.885 6.34567 2.52614 0
M  V30 4922 O 484.573 7.67073 2.40529 0
M  V30 4923 H 484.305 0.469586 0.486276 0
M  V30 4924 H 486.859 1.82012 0.951876 0
M  V30 4925 H 485.089 1.6434 3.50042 0
M  V30 4926 H 486.778 2.06224 3.49609 0
M  V30 4927 H 487.544 4.25428 2.32886 0
M  V30 4928 H 483.423 3.35462 3.16206 0
M  V30 4929 H 486.967 6.64591 2.12049 0
M  V30 4930 H 482.864 5.73785 2.95704 0
M  V30 4931 H 483.632 7.77499 2.55807 0
M  V30 4932 N 486.295 -0.989507 1.22664 0
M  V30 4933 C 487.706 -1.54406 1.04955 0
M  V30 4934 C 488.057 -1.92366 -0.385951 0
M  V30 4935 O 487.182 -1.75111 -1.27142 0
M  V30 4936 C 487.777 -2.80578 1.89899 0
M  V30 4937 C 486.336 -3.32464 1.76478 0
M  V30 4938 C 485.483 -2.05524 1.86159 0
M  V30 4939 H 488.434 -0.810211 1.3646 0
M  V30 4940 H 488.455 -3.53075 1.4184 0
M  V30 4941 H 487.967 -2.52918 2.94371 0
M  V30 4942 H 486.068 -3.65024 0.747528 0
M  V30 4943 H 486.181 -4.02838 2.59342 0
M  V30 4944 H 484.545 -2.19241 1.29636 0
M  V30 4945 H 485.328 -1.80258 2.92168 0
M  V30 4946 N 487.773 -1.03688 -1.18687 0
M  V30 4947 C 489.019 -0.739123 -1.88851 0
M  V30 4948 C 489.352 0.731042 -1.79915 0
M  V30 4949 O 488.627 1.53313 -1.19688 0
M  V30 4950 C 488.91 -1.20106 -3.3948 0
M  V30 4951 C 488.763 -2.73304 -3.57246 0
M  V30 4952 C 490.082 -0.788134 -4.32986 0
M  V30 4953 H 487.201 -0.269978 -0.68577 0
M  V30 4954 H 489.843 -1.28822 -1.3966 0
M  V30 4955 H 487.993 -0.733915 -3.81505 0
M  V30 4956 H 489.665 -3.28027 -3.24339 0
M  V30 4957 H 487.908 -3.13313 -3.00029 0
M  V30 4958 H 488.579 -3.00684 -4.62918 0
M  V30 4959 H 491.055 -1.19005 -3.98719 0
M  V30 4960 H 489.931 -1.13915 -5.36949 0
M  V30 4961 H 490.192 0.308988 -4.41019 0
M  V30 4962 N 489.251 1.34841 -0.815825 0
M  V30 4963 C 490.662 1.80937 -0.46029 0
M  V30 4964 C 491.013 1.67685 1.01863 0
M  V30 4965 O 490.138 1.21277 1.79223 0
M  V30 4966 C 490.733 3.28509 -0.828708 0
M  V30 4967 C 489.292 3.72712 -0.525644 0
M  V30 4968 C 488.439 2.56676 -1.04941 0
M  V30 4969 H 491.39 1.22688 -1.00664 0
M  V30 4970 H 491.411 3.80279 -0.129757 0
M  V30 4971 H 490.923 3.38122 -1.90513 0
M  V30 4972 H 489.024 3.68642 0.541666 0
M  V30 4973 H 489.137 4.67119 -1.06474 0
M  V30 4974 H 487.501 2.50302 -0.471286 0
M  V30 4975 H 488.284 2.69063 -2.13214 0
M  V30 4976 N 490.729 0.570148 1.46925 0
M  V30 4977 C 492.14 0.1402 1.86173 0
M  V30 4978 C 492.491 -1.29347 1.47526 0
M  V30 4979 O 491.616 -1.97508 0.884292 0
M  V30 4980 C 492.211 0.247661 3.37894 0
M  V30 4981 C 490.77 -0.127332 3.76185 0
M  V30 4982 C 489.917 0.589349 2.70965 0
M  V30 4983 H 492.868 0.779117 1.38259 0
M  V30 4984 H 492.889 -0.530341 3.76786 0
M  V30 4985 H 492.401 1.29121 3.65991 0
M  V30 4986 H 490.502 -1.17149 3.53704 0
M  V30 4987 H 490.615 0.240238 4.78497 0
M  V30 4988 H 488.979 0.0309824 2.54681 0
M  V30 4989 H 489.762 1.6343 3.01903 0
M  V30 4990 N 492.207 -1.54576 0.307264 0
M  V30 4991 C 493.432 -2.05139 -0.305379 0
M  V30 4992 C 493.857 -1.18278 -1.46259 0
M  V30 4993 O 493.215 -0.188243 -1.8032 0
M  V30 4994 C 493.263 -3.53066 -0.733283 0
M  V30 4995 O 492.367 -3.69206 -1.83741 0
M  V30 4996 H 491.708 -0.661444 -0.0582105 0
M  V30 4997 H 494.238 -1.99569 0.450931 0
M  V30 4998 H 494.248 -3.95034 -1.02039 0
M  V30 4999 H 492.923 -4.15746 0.113198 0
M  V30 5000 H 491.5 -3.39143 -1.55037 0
M  V30 5001 N 493.685 -0.035106 -1.57561 0
M  V30 5002 C 494.648 0.929819 -2.09492 0
M  V30 5003 C 495.648 1.25026 -1.01119 0
M  V30 5004 O 496.838 1.18961 -1.27255 0
M  V30 5005 C 493.97 2.24457 -2.56577 0
M  V30 5006 H 495.163 0.479935 -2.96035 0
M  V30 5007 H 492.716 0.213033 -1.54841 0
M  V30 5008 H 493.451 2.74061 -1.73382 0
M  V30 5009 H 493.236 2.02508 -3.35757 0
M  V30 5010 H 494.726 2.93607 -2.96959 0
M  V30 5011 N 495.163 1.55791 0.238111 0
M  V30 5012 C 496.393 1.81834 0.980809 0
M  V30 5013 C 496.801 0.609741 1.79106 0
M  V30 5014 O 496.144 -0.431073 1.78571 0
M  V30 5015 C 496.206 3.01363 1.96011 0
M  V30 5016 C 495.87 4.37037 1.33597 0
M  V30 5017 C 496.867 5.14692 0.734063 0
M  V30 5018 C 494.552 4.83743 1.3527 0
M  V30 5019 C 496.546 6.37206 0.157208 0
M  V30 5020 C 494.233 6.06204 0.77199 0
M  V30 5021 C 495.231 6.82775 0.175282 0
M  V30 5022 O 494.919 8.02922 -0.396432 0
M  V30 5023 H 494.651 0.6088 0.293834 0
M  V30 5024 H 497.205 2.03702 0.263552 0
M  V30 5025 H 495.435 2.75273 2.71591 0
M  V30 5026 H 497.124 3.14422 2.56697 0
M  V30 5027 H 497.89 4.79722 0.713582 0
M  V30 5028 H 493.769 4.24129 1.80653 0
M  V30 5029 H 497.313 6.96915 -0.30917 0
M  V30 5030 H 493.21 6.4065 0.789828 0
M  V30 5031 H 493.978 8.17989 -0.289145 0
M  V30 5032 N 496.642 -0.504142 1.49319 0
M  V30 5033 C 497.891 -1.25507 1.57895 0
M  V30 5034 C 498.204 -1.93735 0.269433 0
M  V30 5035 O 499.41 -2.70492 0.233706 0
M  V30 5036 C 497.866 -2.27869 2.78574 0
M  V30 5037 C 497.474 -1.65594 4.16272 0
M  V30 5038 C 499.218 -3.0381 2.96479 0
M  V30 5039 C 497.125 -2.66048 5.28178 0
M  V30 5040 H 496.055 -0.47212 0.587894 0
M  V30 5041 H 498.706 -0.52931 1.757 0
M  V30 5042 H 497.088 -3.03594 2.54257 0
M  V30 5043 H 498.262 -0.958826 4.50714 0
M  V30 5044 H 496.577 -1.02055 4.037 0
M  V30 5045 H 499.174 -3.78925 3.77253 0
M  V30 5046 H 499.517 -3.61235 2.06918 0
M  V30 5047 H 500.05 -2.352 3.20821 0
M  V30 5048 H 496.789 -2.13408 6.19788 0
M  V30 5049 H 496.309 -3.34009 4.98195 0
M  V30 5050 H 497.988 -3.28536 5.57381 0
M  V30 5051 N 498.12 -1.38341 -0.754957 0
M  V30 5052 C 499.05 -1.38176 -1.88227 0
M  V30 5053 C 500.031 -0.247873 -1.68284 0
M  V30 5054 O 501.216 -0.45075 -1.88896 0
M  V30 5055 C 498.346 -1.20471 -3.25736 0
M  V30 5056 C 497.3 -2.3105 -3.60278 0
M  V30 5057 C 496.626 -1.98452 -4.96509 0
M  V30 5058 C 497.926 -3.73305 -3.65295 0
M  V30 5059 H 499.62 -2.32512 -1.88622 0
M  V30 5060 H 497.166 -1.1192 -0.906082 0
M  V30 5061 H 499.119 -1.18982 -4.04254 0
M  V30 5062 H 497.843 -0.225965 -3.25817 0
M  V30 5063 H 496.502 -2.31723 -2.84078 0
M  V30 5064 H 496.15 -0.990641 -4.93148 0
M  V30 5065 H 495.85 -2.7251 -5.20588 0
M  V30 5066 H 497.374 -1.98578 -5.77407 0
M  V30 5067 H 498.788 -3.7467 -4.3393 0
M  V30 5068 H 497.185 -4.46557 -4.00883 0
M  V30 5069 H 498.255 -4.05719 -2.65556 0
M  V30 5070 N 499.598 0.982988 -1.23187 0
M  V30 5071 C 500.53 2.07729 -0.968572 0
M  V30 5072 C 501.543 1.62702 0.0564821 0
M  V30 5073 O 502.732 1.77603 -0.178733 0
M  V30 5074 C 499.832 3.36071 -0.436974 0
M  V30 5075 C 499.005 4.10081 -1.52159 0
M  V30 5076 C 498.064 5.16701 -0.99532 0
M  V30 5077 O 497.09 5.43727 -1.68373 0
M  V30 5078 N 498.292 5.80226 0.178192 0
M  V30 5079 H 501.057 2.30894 -1.9107 0
M  V30 5080 H 498.618 1.14949 -1.1401 0
M  V30 5081 H 500.61 4.04639 -0.0700051 0
M  V30 5082 H 499.18 3.09893 0.410509 0
M  V30 5083 H 498.4 3.36004 -2.06144 0
M  V30 5084 H 499.688 4.56295 -2.25105 0
M  V30 5085 H 499.086 5.60651 0.754096 0
M  V30 5086 H 497.643 6.49982 0.486449 0
M  V30 5087 N 501.076 1.04316 1.18135 0
M  V30 5088 C 502.301 0.768047 1.92655 0
M  V30 5089 C 502.726 -0.66904 1.758 0
M  V30 5090 O 502.084 -1.46372 1.06981 0
M  V30 5091 C 502.132 1.14239 3.42026 0
M  V30 5092 O 501.236 0.269333 4.1152 0
M  V30 5093 H 500.577 0.282436 0.600937 0
M  V30 5094 H 503.107 1.39367 1.49793 0
M  V30 5095 H 503.117 1.10538 3.92741 0
M  V30 5096 H 501.792 2.18928 3.53615 0
M  V30 5097 H 500.369 0.366175 3.71098 0
M  V30 5098 N 502.554 -1.34406 0.822964 0
M  V30 5099 C 503.464 -2.33298 0.246838 0
M  V30 5100 C 504.48 -1.62625 -0.618797 0
M  V30 5101 O 505.656 -1.94391 -0.526685 0
M  V30 5102 C 502.721 -3.41785 -0.581731 0
M  V30 5103 C 501.782 -4.28206 0.306309 0
M  V30 5104 C 501.015 -5.31512 -0.48281 0
M  V30 5105 O 501.238 -5.43973 -1.71607 0
M  V30 5106 O 500.172 -6.01749 0.134884 0
M  V30 5107 H 503.998 -2.84401 1.06534 0
M  V30 5108 H 501.583 -1.37466 0.585108 0
M  V30 5109 H 503.465 -4.08028 -1.05313 0
M  V30 5110 H 502.14 -2.92925 -1.37756 0
M  V30 5111 H 501.047 -3.64885 0.825199 0
M  V30 5112 H 502.38 -4.80507 1.06649 0
M  V30 5113 N 504.032 -0.577932 -1.46621 0
M  V30 5114 C 505.28 -0.061566 -2.02006 0
M  V30 5115 C 505.601 1.30117 -1.4524 0
M  V30 5116 O 504.871 1.85313 -0.63529 0
M  V30 5117 H 503.451 -0.0197692 -0.746738 0
M  V30 5118 H 506.113 -0.752631 -1.79782 0
M  V30 5119 H 505.209 0.0110238 -3.12098 0
M  V30 5120 N 505.51 1.54411 -0.315457 0
M  V30 5121 C 506.735 2.05299 0.294496 0
M  V30 5122 C 507.16 1.19052 1.4563 0
M  V30 5123 O 506.518 0.197804 1.80218 0
M  V30 5124 C 506.566 3.5345 0.714549 0
M  V30 5125 O 505.67 3.70175 1.81781 0
M  V30 5126 H 505.011 0.661743 0.0547019 0
M  V30 5127 H 507.541 1.99327 -0.461508 0
M  V30 5128 H 507.551 3.9557 0.999426 0
M  V30 5129 H 506.226 4.1568 -0.135244 0
M  V30 5130 H 504.803 3.3996 1.53236 0
M  V30 5131 N 506.988 0.0434614 1.5754 0
M  V30 5132 C 508.228 -0.636023 1.94253 0
M  V30 5133 C 508.592 -1.68461 0.921132 0
M  V30 5134 O 509.793 -2.41762 1.17494 0
M  V30 5135 C 508.064 -1.22357 3.35803 0
M  V30 5136 S 509.623 -1.92213 3.94461 0
M  V30 5137 H 506.441 -0.209041 0.679575 0
M  V30 5138 H 509.043 0.110556 1.95187 0
M  V30 5139 H 507.747 -0.448162 4.07946 0
M  V30 5140 H 507.278 -2.00713 3.38346 0
M  V30 5141 H 509.293 -3.20199 3.79061 0
M  V30 5142 N 508.466 -1.55915 -0.229846 0
M  V30 5143 C 509.715 -1.77742 -0.953455 0
M  V30 5144 C 510.028 -0.610524 -1.85828 0
M  V30 5145 O 511.234 -0.712219 -2.61992 0
M  V30 5146 C 509.69 -3.14738 -1.74551 0
M  V30 5147 C 509.298 -4.39126 -0.887242 0
M  V30 5148 C 511.042 -3.45895 -2.46084 0
M  V30 5149 C 508.949 -5.67149 -1.67617 0
M  V30 5150 H 507.879 -0.662648 -0.359741 0
M  V30 5151 H 510.53 -1.82322 -0.207576 0
M  V30 5152 H 508.912 -3.04311 -2.53399 0
M  V30 5153 H 510.086 -4.60588 -0.139892 0
M  V30 5154 H 508.401 -4.15427 -0.284443 0
M  V30 5155 H 510.998 -4.38767 -3.05594 0
M  V30 5156 H 511.341 -2.68007 -3.18556 0
M  V30 5157 H 511.874 -3.57614 -1.74233 0
M  V30 5158 H 508.613 -6.47906 -0.994881 0
M  V30 5159 H 508.133 -5.49763 -2.39836 0
M  V30 5160 H 509.812 -6.07025 -2.23898 0
M  V30 5161 N 509.944 0.496216 -1.49584 0
M  V30 5162 C 511.169 1.27865 -1.63295 0
M  V30 5163 C 511.594 1.85592 -0.306156 0
M  V30 5164 O 510.952 1.66092 0.726851 0
M  V30 5165 C 511 2.38128 -2.7079 0
M  V30 5166 O 510.104 3.42108 -2.30296 0
M  V30 5167 H 509.445 0.377279 -0.546403 0
M  V30 5168 H 511.975 0.593497 -1.95803 0
M  V30 5169 H 511.985 2.8382 -2.93104 0
M  V30 5170 H 510.66 1.95479 -3.67098 0
M  V30 5171 H 509.237 3.02301 -2.18331 0
M  V30 5172 N 511.423 1.38739 0.74761 0
M  V30 5173 C 512.671 1.35007 1.50391 0
M  V30 5174 C 512.992 -0.0574274 1.94915 0
M  V30 5175 O 512.262 -1.00628 1.6808 0
M  V30 5176 H 510.842 0.496784 0.557866 0
M  V30 5177 H 513.504 1.73479 0.888319 0
M  V30 5178 H 512.6 2.00474 2.392 0
M  V30 5179 N 512.901 -0.976442 1.23707 0
M  V30 5180 C 514.148 -1.71827 1.07153 0
M  V30 5181 C 514.476 -1.9053 -0.390982 0
M  V30 5182 O 513.731 -1.45779 -1.30564 0
M  V30 5183 C 514.03 -3.11814 1.74662 0
M  V30 5184 C 513.696 -3.12978 3.24585 0
M  V30 5185 C 512.358 -3.13003 3.6549 0
M  V30 5186 C 514.71 -3.07986 4.20469 0
M  V30 5187 C 512.038 -3.05757 5.00729 0
M  V30 5188 C 514.39 -3.02282 5.55705 0
M  V30 5189 C 513.054 -3.00631 5.95968 0
M  V30 5190 H 512.324 -0.628758 0.392102 0
M  V30 5191 H 514.971 -1.14239 1.53693 0
M  V30 5192 H 513.276 -3.72812 1.20492 0
M  V30 5193 H 514.973 -3.67989 1.59328 0
M  V30 5194 H 511.563 -3.13718 2.92026 0
M  V30 5195 H 515.747 -3.07103 3.89874 0
M  V30 5196 H 511.003 -3.02834 5.31132 0
M  V30 5197 H 515.177 -2.97376 6.29714 0
M  V30 5198 H 512.804 -2.94771 7.00724 0
M  V30 5199 N 514.379 -1.04941 -1.1758 0
M  V30 5200 C 515.311 -0.606174 -2.21039 0
M  V30 5201 C 516.324 0.328763 -1.59446 0
M  V30 5202 O 517.513 0.121895 -1.78083 0
M  V30 5203 C 514.613 0.133294 -3.38638 0
M  V30 5204 C 513.786 -0.811711 -4.29802 0
M  V30 5205 C 512.845 -0.113958 -5.26077 0
M  V30 5206 O 511.871 -0.747237 -5.64274 0
M  V30 5207 N 513.073 1.14953 -5.69004 0
M  V30 5208 H 515.838 -1.49606 -2.59689 0
M  V30 5209 H 513.399 -0.930997 -1.32454 0
M  V30 5210 H 515.391 0.610144 -4.00074 0
M  V30 5211 H 513.961 0.924816 -2.98607 0
M  V30 5212 H 513.181 -1.46824 -3.65837 0
M  V30 5213 H 514.469 -1.45326 -4.87604 0
M  V30 5214 H 513.867 1.68441 -5.40041 0
M  V30 5215 H 512.424 1.57049 -6.32597 0
M  V30 5216 N 515.857 1.33968 -0.830081 0
M  V30 5217 C 517.105 1.97672 -0.420734 0
M  V30 5218 C 517.426 1.66111 1.02138 0
M  V30 5219 O 516.696 0.955503 1.71017 0
M  V30 5220 H 515.276 0.73125 -0.152587 0
M  V30 5221 H 517.938 1.63483 -1.0611 0
M  V30 5222 H 517.034 3.07294 -0.545588 0
M  V30 5223 N 517.335 0.585699 1.46312 0
M  V30 5224 C 518.268 -0.194257 2.27372 0
M  V30 5225 C 519.246 -0.894116 1.3581 0
M  V30 5226 O 520.43 -0.907402 1.65222 0
M  V30 5227 C 517.557 -1.27901 3.13622 0
M  V30 5228 C 516.603 -0.684666 4.20969 0
M  V30 5229 S 517.436 0.490745 5.33247 0
M  V30 5230 C 518.592 -0.595137 6.23064 0
M  V30 5231 H 518.825 0.493515 2.93175 0
M  V30 5232 H 516.358 0.372666 1.49835 0
M  V30 5233 H 518.316 -1.90008 3.63878 0
M  V30 5234 H 516.977 -1.93875 2.47126 0
M  V30 5235 H 516.17 -1.50015 4.81156 0
M  V30 5236 H 515.772 -0.139204 3.73741 0
M  V30 5237 H 518.064 -1.48002 6.61137 0
M  V30 5238 H 519.007 -0.0299446 7.08094 0
M  V30 5239 H 519.415 -0.900627 5.57269 0
M  V30 5240 N 518.813 -1.54241 0.323641 0
M  V30 5241 C 519.761 -2.25813 -0.557804 0
M  V30 5242 C 520.755 -1.27225 -1.11849 0
M  V30 5243 O 521.961 -1.45001 -1.06652 0
M  V30 5244 H 518.336 -0.72532 -0.198532 0
M  V30 5245 H 520.307 -2.98322 0.0681112 0
M  V30 5246 C 519.056 -3.02913 -1.70701 0
M  V30 5247 H 518.379 -3.78593 -1.28482 0
M  V30 5248 H 519.819 -3.56238 -2.29935 0
M  V30 5249 C 518.278 -2.11217 -2.62467 0
M  V30 5250 O 518.808 -1.69508 -3.64184 0
M  V30 5251 N 517.014 -1.76704 -2.30703 0
M  V30 5252 H 516.561 -2.1082 -1.48029 0
M  V30 5253 H 516.519 -1.15631 -2.92364 0
M  V30 5254 N 520.291 -0.0518155 -1.57515 0
M  V30 5255 C 521.537 0.622745 -1.93002 0
M  V30 5256 C 521.87 1.70456 -0.930499 0
M  V30 5257 O 521.145 1.94452 0.0434086 0
M  V30 5258 C 521.428 1.21824 -3.38867 0
M  V30 5259 C 521.281 0.144434 -4.49568 0
M  V30 5260 C 522.6 2.12968 -3.8514 0
M  V30 5261 H 519.719 0.22491 -0.701844 0
M  V30 5262 H 522.361 -0.113711 -1.89659 0
M  V30 5263 H 520.511 1.8459 -3.41846 0
M  V30 5264 H 522.183 -0.48753 -4.58717 0
M  V30 5265 H 520.426 -0.527424 -4.30582 0
M  V30 5266 H 521.097 0.601127 -5.48717 0
M  V30 5267 H 523.573 1.60163 -3.8404 0
M  V30 5268 H 522.449 2.51578 -4.87852 0
M  V30 5269 H 522.71 3.03004 -3.21934 0
M  V30 5270 N 521.769 1.56035 0.221574 0
M  V30 5271 C 523.18 1.69229 0.788567 0
M  V30 5272 C 523.531 0.653814 1.84986 0
M  V30 5273 O 522.656 -0.195065 2.15519 0
M  V30 5274 C 523.251 3.06809 1.43713 0
M  V30 5275 C 521.81 3.21858 1.95152 0
M  V30 5276 C 520.957 2.65155 0.811685 0
M  V30 5277 H 523.908 1.587 -0.00307894 0
M  V30 5278 H 523.929 3.02666 2.30594 0
M  V30 5279 H 523.441 3.82369 0.664475 0
M  V30 5280 H 521.542 2.51167 2.7522 0
M  V30 5281 H 521.655 4.29073 2.1315 0
M  V30 5282 H 520.019 2.23635 1.21899 0
M  V30 5283 H 520.802 3.43261 0.0516987 0
M  V30 5284 N 523.247 -0.488276 1.49845 0
M  V30 5285 C 524.475 -1.26527 1.63702 0
M  V30 5286 C 524.89 -1.8618 0.313447 0
M  V30 5287 O 524.247 -1.68432 -0.702624 0
M  V30 5288 C 524.298 -2.3864 2.71538 0
M  V30 5289 O 524.019 -1.81437 3.98763 0
M  V30 5290 C 525.52 -3.29805 2.96215 0
M  V30 5291 H 522.74 -0.383295 0.55075 0
M  V30 5292 H 525.284 -0.584779 1.95961 0
M  V30 5293 H 523.439 -3.02496 2.42023 0
M  V30 5294 H 523.853 -2.55135 4.58265 0
M  V30 5295 H 525.327 -4.04722 3.75372 0
M  V30 5296 H 525.804 -3.87563 2.06619 0
M  V30 5297 H 526.41 -2.71703 3.27196 0
M  V30 5298 N 524.725 -1.39134 -0.740242 0
M  V30 5299 C 525.635 -1.39697 -1.88473 0
M  V30 5300 C 526.651 -0.292403 -1.71526 0
M  V30 5301 O 527.827 -0.533021 -1.94219 0
M  V30 5302 C 524.892 -1.23382 -3.24003 0
M  V30 5303 C 523.953 -2.43763 -3.53381 0
M  V30 5304 C 523.186 -2.28216 -4.82445 0
M  V30 5305 O 523.409 -1.28288 -5.55786 0
M  V30 5306 O 522.343 -3.1709 -5.11603 0
M  V30 5307 H 526.169 -2.36159 -1.90952 0
M  V30 5308 H 523.754 -1.20194 -0.887346 0
M  V30 5309 H 525.636 -1.16395 -4.05006 0
M  V30 5310 H 524.311 -0.300121 -3.22306 0
M  V30 5311 H 523.218 -2.56325 -2.72485 0
M  V30 5312 H 524.551 -3.35808 -3.59852 0
M  V30 5313 N 526.204 0.969867 -1.24223 0
M  V30 5314 C 527.429 1.75289 -1.10853 0
M  V30 5315 C 527.854 1.85091 0.335079 0
M  V30 5316 O 527.212 1.32024 1.24255 0
M  V30 5317 C 527.26 3.15255 -1.75062 0
M  V30 5318 O 526.364 3.99589 -1.01992 0
M  V30 5319 H 525.705 0.538904 -0.387915 0
M  V30 5320 H 528.235 1.21675 -1.64488 0
M  V30 5321 H 528.245 3.65787 -1.80731 0
M  V30 5322 H 526.92 3.07436 -2.801 0
M  V30 5323 H 525.497 3.58077 -1.04094 0
M  V30 5324 N 527.682 1.05563 1.17022 0
M  V30 5325 C 528.93 0.76642 1.87004 0
M  V30 5326 C 529.251 -0.708854 1.8166 0
M  V30 5327 O 528.521 -1.51242 1.2451 0
M  V30 5328 H 527.101 0.280516 0.692329 0
M  V30 5329 H 529.763 1.33557 1.41945 0
M  V30 5330 H 528.859 1.08472 2.92644 0
M  V30 5331 N 529.16 -1.33526 0.837174 0
M  V30 5332 C 530.07 -2.33023 0.271568 0
M  V30 5333 C 531.086 -1.63272 -0.601514 0
M  V30 5334 O 532.262 -1.94939 -0.506038 0
M  V30 5335 C 529.327 -3.42382 -0.545448 0
M  V30 5336 C 528.388 -4.27857 0.351709 0
M  V30 5337 C 527.621 -5.31994 -0.426409 0
M  V30 5338 O 527.844 -5.45763 -1.65828 0
M  V30 5339 O 526.778 -6.01572 0.1987 0
M  V30 5340 H 530.604 -2.83256 1.09545 0
M  V30 5341 H 528.189 -1.36837 0.599655 0
M  V30 5342 H 530.071 -4.09122 -1.00979 0
M  V30 5343 H 528.746 -2.94369 -1.34641 0
M  V30 5344 H 527.653 -3.6399 0.863853 0
M  V30 5345 H 528.986 -4.79349 1.1174 0
M  V30 5346 N 530.638 -0.59345 -1.46 0
M  V30 5347 C 531.568 0.121192 -2.33185 0
M  V30 5348 C 532.549 0.872977 -1.4599 0
M  V30 5349 O 533.734 0.846321 -1.74789 0
M  V30 5350 C 530.864 1.12844 -3.28456 0
M  V30 5351 C 529.818 0.4908 -4.25177 0
M  V30 5352 C 529.144 1.60529 -5.10034 0
M  V30 5353 C 530.444 -0.578949 -5.19081 0
M  V30 5354 H 532.138 -0.606767 -2.93187 0
M  V30 5355 H 529.684 -0.293242 -1.40983 0
M  V30 5356 H 531.637 1.63684 -3.88311 0
M  V30 5357 H 530.361 1.88681 -2.66584 0
M  V30 5358 H 529.02 0.00339328 -3.666 0
M  V30 5359 H 528.668 2.35359 -4.44539 0
M  V30 5360 H 528.368 1.18422 -5.75543 0
M  V30 5361 H 529.892 2.11623 -5.72755 0
M  V30 5362 H 531.306 -0.155199 -5.7309 0
M  V30 5363 H 529.703 -0.920947 -5.92991 0
M  V30 5364 H 530.773 -1.46109 -4.62364 0
M  V30 5365 N 532.116 1.54067 -0.331816 0
M  V30 5366 C 533.362 2.01713 0.261395 0
M  V30 5367 C 533.717 1.21566 1.49129 0
M  V30 5368 O 533.01 0.291867 1.89364 0
M  V30 5369 C 533.204 3.51634 0.639392 0
M  V30 5370 C 533.033 4.46295 -0.552321 0
M  V30 5371 C 531.803 4.94185 -1.05399 0
M  V30 5372 C 534.001 4.94677 -1.40711 0
M  V30 5373 N 531.983 5.7277 -2.20925 0
M  V30 5374 C 533.354 5.71267 -2.40943 0
M  V30 5375 C 535.409 4.76805 -1.43392 0
M  V30 5376 C 534.112 6.31889 -3.4367 0
M  V30 5377 C 536.138 5.38268 -2.44994 0
M  V30 5378 C 535.5 6.14716 -3.43952 0
M  V30 5379 H 531.599 0.77975 0.0592729 0
M  V30 5380 H 534.183 1.88974 -0.468726 0
M  V30 5381 H 532.354 3.64603 1.33863 0
M  V30 5382 H 534.086 3.86038 1.21478 0
M  V30 5383 H 530.841 4.69472 -0.623952 0
M  V30 5384 H 531.265 6.16737 -2.79222 0
M  V30 5385 H 535.907 4.17255 -0.682489 0
M  V30 5386 H 533.625 6.90554 -4.19715 0
M  V30 5387 H 537.211 5.26352 -2.4788 0
M  V30 5388 H 536.091 6.6143 -4.21283 0
M  V30 5389 N 533.594 0.0601682 1.57485 0
M  V30 5390 C 534.843 -0.611101 1.9222 0
M  V30 5391 C 535.156 -1.71469 0.941159 0
M  V30 5392 O 536.362 -2.44473 1.18089 0
M  V30 5393 C 534.818 -1.13832 3.41424 0
M  V30 5394 C 534.426 -0.0663596 4.47951 0
M  V30 5395 C 536.17 -1.78432 3.85178 0
M  V30 5396 C 534.077 -0.606965 5.88277 0
M  V30 5397 H 533.007 -0.232033 0.71741 0
M  V30 5398 H 535.658 0.130518 1.83035 0
M  V30 5399 H 534.04 -1.93254 3.45643 0
M  V30 5400 H 535.214 0.707682 4.55333 0
M  V30 5401 H 533.529 0.482715 4.13593 0
M  V30 5402 H 536.126 -2.1989 4.87394 0
M  V30 5403 H 536.469 -2.63966 3.21913 0
M  V30 5404 H 537.002 -1.05651 3.83514 0
M  V30 5405 H 533.741 0.21095 6.5516 0
M  V30 5406 H 533.261 -1.34879 5.84438 0
M  V30 5407 H 534.94 -1.08704 6.37803 0
M  V30 5408 N 535.072 -1.5615 -0.213296 0
M  V30 5409 C 536.002 -1.96109 -1.26742 0
M  V30 5410 C 536.983 -0.830448 -1.48451 0
M  V30 5411 O 538.168 -1.09339 -1.60495 0
M  V30 5412 C 535.298 -2.28492 -2.61551 0
M  V30 5413 C 534.252 -3.44124 -2.54485 0
M  V30 5414 C 533.578 -3.62134 -3.93399 0
M  V30 5415 C 534.878 -4.78855 -2.08556 0
M  V30 5416 H 536.572 -2.84412 -0.935434 0
M  V30 5417 H 534.118 -1.36836 -0.44854 0
M  V30 5418 H 536.071 -2.55039 -3.3546 0
M  V30 5419 H 534.795 -1.37052 -2.96453 0
M  V30 5420 H 533.454 -3.17639 -1.83033 0
M  V30 5421 H 533.102 -2.68055 -4.25623 0
M  V30 5422 H 532.802 -4.39913 -3.89551 0
M  V30 5423 H 534.326 -3.91038 -4.68958 0
M  V30 5424 H 535.74 -5.04552 -2.72213 0
M  V30 5425 H 534.137 -5.59975 -2.1575 0
M  V30 5426 H 535.207 -4.73657 -1.03811 0
M  V30 5427 N 536.55 0.480323 -1.50102 0
M  V30 5428 C 537.798 1.23063 -1.60312 0
M  V30 5429 C 538.119 1.92659 -0.301226 0
M  V30 5430 O 537.389 1.83691 0.680753 0
M  V30 5431 H 535.969 0.457231 -0.590719 0
M  V30 5432 H 538.631 0.554893 -1.86834 0
M  V30 5433 H 537.727 1.9835 -2.40964 0
M  V30 5434 N 538.028 1.39524 0.732853 0
M  V30 5435 C 539.305 1.27373 1.48444 0
M  V30 5436 C 539.685 -0.115725 2.10783 0
M  V30 5437 O 539.033 -1.12713 1.98766 0
M  V30 5438 C 539.243 2.39966 2.53412 0
M  V30 5439 C 540.591 2.79384 3.19733 0
M  V30 5440 O 541.615 2.39431 2.63725 0
M  V30 5441 O 540.474 3.48353 4.21085 0
M  V30 5442 H 537.568 0.499272 0.659285 0
M  V30 5443 H 540.114 1.51403 0.766496 0
M  V30 5444 H 538.886 3.32845 2.05742 0
M  V30 5445 H 538.509 2.17612 3.32762 0
M  V30 5446 N 539.506 -0.963266 1.24736 0
M  V30 5447 C 540.752 -1.70933 1.09131 0
M  V30 5448 C 541.085 -1.90676 -0.368273 0
M  V30 5449 O 540.36 -1.47147 -1.27193 0
M  V30 5450 C 540.643 -3.09744 1.83658 0
M  V30 5451 C 540.496 -2.97465 3.37394 0
M  V30 5452 C 541.815 -4.09483 1.61282 0
M  V30 5453 H 538.934 -0.620398 0.397838 0
M  V30 5454 H 541.576 -1.12028 1.53459 0
M  V30 5455 H 539.726 -3.60031 1.4598 0
M  V30 5456 H 541.398 -2.54571 3.84696 0
M  V30 5457 H 539.641 -2.33576 3.65547 0
M  V30 5458 H 540.312 -3.95822 3.84745 0
M  V30 5459 H 542.788 -3.68073 1.94066 0
M  V30 5460 H 541.664 -5.04666 2.15878 0
M  V30 5461 H 541.925 -4.38639 0.552102 0
M  V30 5462 N 540.985 -1.06182 -1.16461 0
M  V30 5463 C 542.232 -0.777863 -1.86964 0
M  V30 5464 C 542.56 0.695602 -1.81636 0
M  V30 5465 O 541.815 1.52532 -1.22607 0
M  V30 5466 C 542.114 -1.21633 -3.36066 0
M  V30 5467 C 541.78 -2.69371 -3.61594 0
M  V30 5468 C 540.442 -3.09727 -3.6827 0
M  V30 5469 C 542.794 -3.64791 -3.7226 0
M  V30 5470 C 540.122 -4.44345 -3.83112 0
M  V30 5471 C 542.474 -4.99155 -3.88623 0
M  V30 5472 C 541.138 -5.39149 -3.93541 0
M  V30 5473 H 540.408 -0.28464 -0.68415 0
M  V30 5474 H 543.055 -1.33071 -1.37711 0
M  V30 5475 H 541.36 -0.582651 -3.87443 0
M  V30 5476 H 543.057 -0.973682 -3.88999 0
M  V30 5477 H 539.647 -2.37124 -3.57029 0
M  V30 5478 H 543.831 -3.34746 -3.66413 0
M  V30 5479 H 539.087 -4.74819 -3.85172 0
M  V30 5480 H 543.261 -5.72976 -3.95817 0
M  V30 5481 H 540.888 -6.43464 -4.04794 0
M  V30 5482 N 542.463 1.3308 -0.844243 0
M  V30 5483 C 543.712 1.96868 -0.438833 0
M  V30 5484 C 544.025 1.67599 1.00846 0
M  V30 5485 O 545.231 2.25043 1.51881 0
M  V30 5486 C 543.687 3.5234 -0.73377 0
M  V30 5487 C 543.295 3.90481 -2.1961 0
M  V30 5488 C 545.039 4.22653 -0.395574 0
M  V30 5489 C 542.946 5.38954 -2.43481 0
M  V30 5490 H 541.876 0.736749 -0.160364 0
M  V30 5491 H 544.527 1.51623 -1.03358 0
M  V30 5492 H 542.909 3.95941 -0.068589 0
M  V30 5493 H 544.083 3.57922 -2.90221 0
M  V30 5494 H 542.398 3.33165 -2.4978 0
M  V30 5495 H 544.995 5.31848 -0.551477 0
M  V30 5496 H 545.338 4.11004 0.661921 0
M  V30 5497 H 545.871 3.84601 -1.01621 0
M  V30 5498 H 542.61 5.55612 -3.47816 0
M  V30 5499 H 542.13 5.72954 -1.77437 0
M  V30 5500 H 543.809 6.05907 -2.26905 0
M  V30 5501 N 543.941 0.601185 1.45683 0
M  V30 5502 C 545.357 0.264315 1.57396 0
M  V30 5503 C 545.557 -1.23324 1.59353 0
M  V30 5504 O 544.613 -2.01594 1.52039 0
M  V30 5505 C 545.926 0.929839 2.85962 0
M  V30 5506 C 547.474 0.905156 2.99626 0
M  V30 5507 C 547.949 1.55057 4.30954 0
M  V30 5508 N 549.44 1.51576 4.37697 0
M  V30 5509 C 550.175 1.98436 5.37969 0
M  V30 5510 N 549.671 2.53352 6.44813 0
M  V30 5511 N 551.464 1.89242 5.29286 0
M  V30 5512 H 543.615 1.57363 1.42656 0
M  V30 5513 H 545.878 0.658831 0.681649 0
M  V30 5514 H 545.584 1.98404 2.90394 0
M  V30 5515 H 545.458 0.449224 3.74515 0
M  V30 5516 H 547.845 -0.14048 2.94765 0
M  V30 5517 H 547.926 1.42397 2.12501 0
M  V30 5518 H 547.57 2.5955 4.36573 0
M  V30 5519 H 547.5 1.00682 5.16886 0
M  V30 5520 H 549.991 1.11452 3.61091 0
M  V30 5521 H 550.304 2.86918 7.17564 0
M  V30 5522 H 548.649 2.57388 6.45582 0
M  V30 5523 H 551.84 1.46083 4.44722 0
M  V30 5524 H 552.013 2.26075 6.07284 0
M  V30 5525 N 545.419 -1.53889 0.339982 0
M  V30 5526 C 546.351 -2.22435 -0.55275 0
M  V30 5527 C 547.364 -1.22975 -1.06681 0
M  V30 5528 O 548.553 -1.49351 -0.977575 0
M  V30 5529 C 545.653 -2.8882 -1.77302 0
M  V30 5530 C 544.826 -4.14563 -1.39486 0
M  V30 5531 C 543.885 -4.64391 -2.47442 0
M  V30 5532 O 542.911 -5.28687 -2.10899 0
M  V30 5533 N 544.113 -4.40015 -3.78639 0
M  V30 5534 H 546.878 -2.9968 0.0342669 0
M  V30 5535 H 544.439 -1.61068 0.16394 0
M  V30 5536 H 546.431 -3.19072 -2.48948 0
M  V30 5537 H 545.001 -2.15182 -2.26749 0
M  V30 5538 H 544.221 -3.90896 -0.509321 0
M  V30 5539 H 545.509 -4.96362 -1.11813 0
M  V30 5540 H 544.907 -3.88586 -4.11118 0
M  V30 5541 H 543.464 -4.74881 -4.46465 0
M  V30 5542 N 546.897 -0.0685191 -1.57451 0
M  V30 5543 C 548.127 0.609577 -1.97402 0
M  V30 5544 C 548.535 1.63882 -0.945489 0
M  V30 5545 O 547.878 1.8354 0.0766052 0
M  V30 5546 C 547.94 1.3385 -3.33653 0
M  V30 5547 C 547.604 0.463103 -4.54648 0
M  V30 5548 C 548.601 -0.277964 -5.19156 0
M  V30 5549 C 546.286 0.388941 -5.00792 0
M  V30 5550 C 548.28 -1.08145 -6.28159 0
M  V30 5551 C 545.967 -0.418217 -6.09667 0
M  V30 5552 C 546.965 -1.15208 -6.73213 0
M  V30 5553 O 546.653 -1.94594 -7.79993 0
M  V30 5554 H 546.385 0.170197 -0.654224 0
M  V30 5555 H 548.939 -0.13647 -2.04946 0
M  V30 5556 H 547.169 2.13055 -3.22714 0
M  V30 5557 H 548.858 1.90851 -3.58233 0
M  V30 5558 H 549.624 -0.230241 -4.84453 0
M  V30 5559 H 545.503 0.949769 -4.5111 0
M  V30 5560 H 549.047 -1.65476 -6.7769 0
M  V30 5561 H 544.944 -0.467515 -6.43805 0
M  V30 5562 H 545.712 -1.8699 -7.96854 0
M  V30 5563 N 548.375 1.56261 0.205012 0
M  V30 5564 C 549.622 1.8004 0.926927 0
M  V30 5565 C 549.95 0.640086 1.83666 0
M  V30 5566 O 549.205 -0.374702 1.92079 0
M  V30 5567 C 549.504 3.09722 1.78345 0
M  V30 5568 C 549.17 4.39082 1.02555 0
M  V30 5569 C 547.832 4.74226 0.816256 0
M  V30 5570 C 550.184 5.18877 0.491559 0
M  V30 5571 C 547.512 5.86668 0.0613287 0
M  V30 5572 C 549.864 6.32105 -0.250107 0
M  V30 5573 C 548.528 6.6584 -0.470508 0
M  V30 5574 H 547.798 0.658812 0.339187 0
M  V30 5575 H 550.445 1.90515 0.19395 0
M  V30 5576 H 548.75 2.9444 2.5848 0
M  V30 5577 H 550.447 3.25324 2.34446 0
M  V30 5578 H 547.037 4.11497 1.19868 0
M  V30 5579 H 551.221 4.92147 0.640684 0
M  V30 5580 H 546.477 6.11283 -0.119501 0
M  V30 5581 H 550.651 6.93157 -0.671307 0
M  V30 5582 H 548.278 7.5281 -1.05739 0
M  V30 5583 N 549.853 -0.472356 1.50355 0
M  V30 5584 C 551.081 -1.24784 1.65035 0
M  V30 5585 C 551.496 -1.85837 0.333176 0
M  V30 5586 O 550.853 -1.69168 -0.68472 0
M  V30 5587 C 550.904 -2.35747 2.74054 0
M  V30 5588 O 550.625 -1.77197 4.00665 0
M  V30 5589 C 552.126 -3.26645 2.99696 0
M  V30 5590 H 549.346 -0.377432 0.554785 0
M  V30 5591 H 551.89 -0.563962 1.9657 0
M  V30 5592 H 550.045 -2.99912 2.45217 0
M  V30 5593 H 550.459 -2.5026 4.60945 0
M  V30 5594 H 551.933 -4.00718 3.79644 0
M  V30 5595 H 552.41 -3.8535 2.10718 0
M  V30 5596 H 553.016 -2.68218 3.3006 0
M  V30 5597 N 551.331 -1.39911 -0.725443 0
M  V30 5598 C 552.577 -1.37858 -1.48738 0
M  V30 5599 C 552.91 0.0224187 -1.94187 0
M  V30 5600 O 552.185 0.989204 -1.67466 0
M  V30 5601 C 552.468 -2.3594 -2.72038 0
M  V30 5602 C 552.321 -3.85023 -2.32546 0
M  V30 5603 C 553.64 -2.31704 -3.74167 0
M  V30 5604 H 550.759 -0.502074 -0.539528 0
M  V30 5605 H 553.401 -1.70974 -0.828728 0
M  V30 5606 H 551.551 -2.0783 -3.28236 0
M  V30 5607 H 553.223 -4.2392 -1.81905 0
M  V30 5608 H 551.466 -4.01334 -1.64661 0
M  V30 5609 H 552.137 -4.49152 -3.20884 0
M  V30 5610 H 554.613 -2.5658 -3.27576 0
M  V30 5611 H 553.489 -3.02395 -4.58092 0
M  V30 5612 H 553.75 -1.3253 -4.21768 0
M  V30 5613 N 552.809 0.956637 -1.25245 0
M  V30 5614 C 554.056 1.701 -1.09874 0
M  V30 5615 C 554.384 1.91128 0.36062 0
M  V30 5616 O 553.639 1.47837 1.28229 0
M  V30 5617 C 553.938 3.08996 -1.79601 0
M  V30 5618 C 553.604 3.07774 -3.29523 0
M  V30 5619 C 552.266 3.07149 -3.70423 0
M  V30 5620 C 554.618 3.01257 -4.25316 0
M  V30 5621 C 551.946 2.97752 -5.0553 0
M  V30 5622 C 554.298 2.93403 -5.60444 0
M  V30 5623 C 552.962 2.91111 -6.00675 0
M  V30 5624 H 552.232 0.62244 -0.402056 0
M  V30 5625 H 554.879 1.1178 -1.55491 0
M  V30 5626 H 553.184 3.70848 -1.26408 0
M  V30 5627 H 554.881 3.65407 -1.65162 0
M  V30 5628 H 551.471 3.09032 -2.9698 0
M  V30 5629 H 555.655 3.00861 -3.9471 0
M  V30 5630 H 550.911 2.94346 -5.35883 0
M  V30 5631 H 555.085 2.87321 -6.34366 0
M  V30 5632 H 552.712 2.83586 -7.05325 0
M  V30 5633 N 554.287 1.06798 1.15896 0
M  V30 5634 C 555.564 0.701057 1.82605 0
M  V30 5635 C 555.944 -0.817066 1.94646 0
M  V30 5636 O 555.292 -1.72933 1.49353 0
M  V30 5637 C 555.502 1.40895 3.19296 0
M  V30 5638 C 556.85 1.55744 3.95005 0
M  V30 5639 O 557.874 1.36927 3.28831 0
M  V30 5640 O 556.733 1.86658 5.13635 0
M  V30 5641 H 553.827 0.248791 0.78869 0
M  V30 5642 H 556.373 1.16857 1.23055 0
M  V30 5643 H 555.145 2.4439 3.05596 0
M  V30 5644 H 554.768 0.931847 3.86526 0
M  V30 5645 N 555.766 -1.3263 0.851289 0
M  V30 5646 C 557.182 -1.50162 0.5407 0
M  V30 5647 C 557.382 -1.78788 -0.929369 0
M  V30 5648 O 556.438 -1.85545 -1.71258 0
M  V30 5649 C 557.751 -2.64803 1.42478 0
M  V30 5650 C 559.299 -2.78688 1.42485 0
M  V30 5651 C 559.774 -3.96405 2.29407 0
M  V30 5652 N 561.265 -4.0366 2.27184 0
M  V30 5653 C 562 -4.93971 2.9117 0
M  V30 5654 N 561.496 -5.89313 3.64256 0
M  V30 5655 N 563.289 -4.87066 2.80576 0
M  V30 5656 H 555.44 -1.12315 1.80275 0
M  V30 5657 H 557.703 -0.553266 0.769806 0
M  V30 5658 H 557.409 -2.50368 2.46999 0
M  V30 5659 H 557.283 -3.60506 1.10974 0
M  V30 5660 H 559.67 -2.92547 0.387304 0
M  V30 5661 H 559.751 -1.83708 1.78002 0
M  V30 5662 H 559.395 -3.83304 3.33228 0
M  V30 5663 H 559.325 -4.90654 1.91224 0
M  V30 5664 H 561.816 -3.35435 1.74045 0
M  V30 5665 H 562.129 -6.54913 4.10255 0
M  V30 5666 H 560.474 -5.8935 3.68364 0
M  V30 5667 H 563.665 -4.11552 2.23031 0
M  V30 5668 H 563.838 -5.57248 3.30725 0
M  V30 5669 N 557.244 -0.608902 -1.45362 0
M  V30 5670 C 558.207 0.0992563 -2.28985 0
M  V30 5671 C 559.207 0.793841 -1.39838 0
M  V30 5672 O 560.397 0.641804 -1.61946 0
M  V30 5673 C 557.529 1.15073 -3.20891 0
M  V30 5674 H 558.722 -0.635964 -2.93079 0
M  V30 5675 H 556.275 -0.368007 -1.51906 0
M  V30 5676 H 557.01 1.91667 -2.616 0
M  V30 5677 H 556.795 0.656867 -3.86559 0
M  V30 5678 H 558.285 1.64665 -3.83765 0
M  V30 5679 N 558.722 1.53707 -0.348139 0
M  V30 5680 C 559.67 2.26671 0.521808 0
M  V30 5681 C 560.664 1.28988 1.09811 0
M  V30 5682 O 561.87 1.4668 1.04332 0
M  V30 5683 H 558.245 0.728387 0.186968 0
M  V30 5684 H 560.216 2.98176 -0.115563 0
M  V30 5685 C 558.965 3.05591 1.6586 0
M  V30 5686 H 558.288 3.80589 1.22443 0
M  V30 5687 H 559.728 3.59851 2.24239 0
M  V30 5688 C 558.187 2.15366 2.59073 0
M  V30 5689 O 558.717 1.7528 3.61441 0
M  V30 5690 N 556.923 1.80352 2.27863 0
M  V30 5691 H 556.47 2.13149 1.44656 0
M  V30 5692 H 556.428 1.20268 2.90488 0
M  V30 5693 N 560.2 0.0768682 1.57412 0
M  V30 5694 C 561.148 -0.906229 2.1422 0
M  V30 5695 C 562.142 -1.30477 1.08037 0
M  V30 5696 O 563.348 -1.28143 1.2641 0
M  V30 5697 H 559.723 -0.310207 0.685037 0
M  V30 5698 H 561.694 -0.402228 2.95677 0
M  V30 5699 C 560.443 -2.16245 2.72274 0
M  V30 5700 H 559.766 -1.86463 3.53655 0
M  V30 5701 H 561.206 -2.83134 3.15613 0
M  V30 5702 C 559.665 -2.92437 1.67279 0
M  V30 5703 O 560.195 -3.86322 1.10081 0
M  V30 5704 N 558.401 -2.55637 1.38195 0
M  V30 5705 H 557.948 -1.79363 1.84897 0
M  V30 5706 H 557.906 -3.06919 0.681787 0
M  V30 5707 N 561.678 -1.56367 -0.196722 0
M  V30 5708 C 562.61 -1.90941 -1.26784 0
M  V30 5709 C 563.623 -0.799928 -1.41792 0
M  V30 5710 O 564.812 -1.07833 -1.42247 0
M  V30 5711 C 561.912 -2.12477 -2.6402 0
M  V30 5712 C 561.085 -3.43616 -2.70641 0
M  V30 5713 C 560.144 -3.54284 -3.89062 0
M  V30 5714 O 559.17 -4.2712 -3.76241 0
M  V30 5715 N 560.372 -2.87252 -5.04447 0
M  V30 5716 H 563.137 -2.83417 -0.974417 0
M  V30 5717 H 560.698 -1.57215 -0.386649 0
M  V30 5718 H 562.69 -2.16904 -3.41665 0
M  V30 5719 H 561.26 -1.26508 -2.85857 0
M  V30 5720 H 560.48 -3.51072 -1.79283 0
M  V30 5721 H 561.768 -4.29958 -2.72054 0
M  V30 5722 H 561.166 -2.27901 -5.17762 0
M  V30 5723 H 559.723 -2.97308 -5.80044 0
M  V30 5724 N 563.156 0.464375 -1.50603 0
M  V30 5725 C 564.402 1.21776 -1.62168 0
M  V30 5726 C 564.735 1.91476 -0.324154 0
M  V30 5727 O 564.01 1.8242 0.674782 0
M  V30 5728 C 564.293 2.25614 -2.80661 0
M  V30 5729 C 564.146 1.60175 -4.20314 0
M  V30 5730 C 565.465 3.26862 -2.94702 0
M  V30 5731 H 562.584 0.44137 -0.590222 0
M  V30 5732 H 565.226 0.510623 -1.8301 0
M  V30 5733 H 563.376 2.85923 -2.63021 0
M  V30 5734 H 565.048 1.03411 -4.4956 0
M  V30 5735 H 563.291 0.904697 -4.24261 0
M  V30 5736 H 563.962 2.35665 -4.99165 0
M  V30 5737 H 566.438 2.76582 -3.10872 0
M  V30 5738 H 565.314 3.96839 -3.79223 0
M  V30 5739 H 565.575 3.91382 -2.05603 0
M  V30 5740 N 564.634 1.40294 0.718013 0
M  V30 5741 C 565.882 1.38167 1.47494 0
M  V30 5742 C 566.203 -0.01607 1.94993 0
M  V30 5743 O 565.473 -0.970396 1.70177 0
M  V30 5744 H 564.053 0.508505 0.547203 0
M  V30 5745 H 566.715 1.75324 0.851322 0
M  V30 5746 H 565.811 2.05503 2.34894 0
M  V30 5747 N 566.112 -0.949982 1.2575 0
M  V30 5748 C 567.042 -2.06483 1.09028 0
M  V30 5749 C 568.023 -1.701 -0.00201532 0
M  V30 5750 O 569.208 -1.93469 0.168383 0
M  V30 5751 C 566.338 -3.39899 0.71316 0
M  V30 5752 C 565.292 -3.90309 1.75621 0
M  V30 5753 C 564.618 -5.20274 1.23365 0
M  V30 5754 C 565.918 -4.16169 3.15596 0
M  V30 5755 H 567.612 -2.20731 2.02283 0
M  V30 5756 H 565.158 -1.06066 0.973964 0
M  V30 5757 H 567.111 -4.17346 0.58309 0
M  V30 5758 H 565.835 -3.25602 -0.255091 0
M  V30 5759 H 564.494 -3.15035 1.8748 0
M  V30 5760 H 564.142 -5.02351 0.255491 0
M  V30 5761 H 563.842 -5.54971 1.93082 0
M  V30 5762 H 565.366 -6.00314 1.11607 0
M  V30 5763 H 566.78 -4.84259 3.06864 0
M  V30 5764 H 565.177 -4.62131 3.82825 0
M  V30 5765 H 566.247 -3.22273 3.6231 0
M  V30 5766 N 567.59 -1.07411 -1.15328 0
M  V30 5767 C 568.553 -0.698914 -2.18284 0
M  V30 5768 C 569.553 0.261149 -1.58665 0
M  V30 5769 O 570.743 0.0420277 -1.74149 0
M  V30 5770 C 567.875 -0.0302427 -3.40887 0
M  V30 5771 H 569.068 -1.61045 -2.52991 0
M  V30 5772 H 566.621 -0.870724 -1.298 0
M  V30 5773 H 567.356 0.893505 -3.11748 0
M  V30 5774 H 567.141 -0.720759 -3.85419 0
M  V30 5775 H 568.631 0.21759 -4.17033 0
M  V30 5776 N 569.068 1.32177 -0.85831 0
M  V30 5777 C 570.479 1.79381 -0.517621 0
M  V30 5778 C 570.83 1.70841 0.964769 0
M  V30 5779 O 569.955 1.26917 1.75274 0
M  V30 5780 C 570.55 3.25706 -0.932801 0
M  V30 5781 C 569.109 3.70851 -0.643953 0
M  V30 5782 C 568.256 2.53208 -1.13054 0
M  V30 5783 H 571.207 1.19424 -1.04516 0
M  V30 5784 H 571.228 3.79673 -0.250674 0
M  V30 5785 H 570.74 3.31889 -2.01174 0
M  V30 5786 H 568.841 3.70178 0.424112 0
M  V30 5787 H 568.954 4.63495 -1.21281 0
M  V30 5788 H 567.318 2.48676 -0.550679 0
M  V30 5789 H 568.101 2.62143 -2.21666 0
M  V30 5790 N 570.547 0.616602 1.45037 0
M  V30 5791 C 571.793 0.115501 2.02471 0
M  V30 5792 C 572.126 -1.25406 1.4828 0
M  V30 5793 O 571.401 -1.82922 0.661051 0
M  V30 5794 C 571.684 0.0863588 3.59996 0
M  V30 5795 C 571.537 1.48723 4.24501 0
M  V30 5796 C 572.856 -0.596762 4.36035 0
M  V30 5797 H 569.975 0.0434461 0.735718 0
M  V30 5798 H 572.617 0.7903 1.72784 0
M  V30 5799 H 570.767 -0.488277 3.85419 0
M  V30 5800 H 572.439 2.10964 4.10234 0
M  V30 5801 H 570.682 2.04534 3.82555 0
M  V30 5802 H 571.353 1.419 5.3345 0
M  V30 5803 H 573.829 -0.10824 4.15959 0
M  V30 5804 H 572.705 -0.586289 5.4576 0
M  V30 5805 H 572.966 -1.66451 4.09569 0
M  V30 5806 N 572.025 -1.5352 0.356285 0
M  V30 5807 C 572.988 -2.24071 -0.482182 0
M  V30 5808 C 573.988 -1.24531 -1.01729 0
M  V30 5809 O 575.178 -1.48876 -0.904513 0
M  V30 5810 C 572.31 -2.97025 -1.67299 0
M  V30 5811 H 573.503 -2.99596 0.135031 0
M  V30 5812 H 571.056 -1.55928 0.107825 0
M  V30 5813 H 571.791 -2.25719 -2.32855 0
M  V30 5814 H 571.576 -3.7005 -1.29636 0
M  V30 5815 H 573.066 -3.50683 -2.26741 0
M  V30 5816 O 573.542 -0.225101 -1.59924 0
M  V30 5817 H 574.233 0.354711 -1.90425 0
M  V30 END ATOM
M  V30 BEGIN BOND
M  V30 END BOND
M  V30 END CTAB
M  END
$$$$
