drugbank_target|P0DOY6 30S ribosomal protein S14 type Z (DB08185)
 OpenBabel12092120483D

  0  0  0     0  0            999 V3000
M  V30 BEGIN CTAB
M  V30 COUNTS 1045 1054 0 0 0
M  V30 BEGIN ATOM
M  V30 1 H -0.908 1.98254 -0.117106 0
M  V30 2 N 0 1.576 0 0
M  V30 3 C 0.933 2.03868 1.02534 0
M  V30 4 C 1.911 0.928543 1.3348 0
M  V30 5 O 3.095 1.19667 1.45644 0
M  V30 6 C 0.222 2.43627 2.35294 0
M  V30 7 C -0.732 3.65373 2.2001 0
M  V30 8 S 0.101 5.13292 1.52614 0
M  V30 9 C 1.257 5.56322 2.86805 0
M  V30 10 H 1.49 2.90518 0.631377 0
M  V30 11 H -0.977 1.52953 0.210867 0
M  V30 12 H 0.981 2.67203 3.11629 0
M  V30 13 H -0.358 1.57376 2.7183 0
M  V30 14 H -1.165 3.90944 3.18086 0
M  V30 15 H -1.563 3.418 1.51819 0
M  V30 16 H 0.729 5.58782 3.83104 0
M  V30 17 H 1.672 6.56266 2.65933 0
M  V30 18 H 2.08 4.83886 2.90714 0
M  V30 19 N 1.4781 -0.272755 1.55222 0
M  V30 20 C 2.4411 -1.32041 1.87344 0
M  V30 21 C 3.4411 -1.42342 0.74803 0
M  V30 22 O 4.6311 -1.41488 1.0162 0
M  V30 23 C 1.7631 -2.70173 2.07893 0
M  V30 24 H 2.9561 -1.04789 2.80997 0
M  V30 25 H 0.5091 -0.51083 1.47717 0
M  V30 26 H 1.2441 -3.02605 1.16622 0
M  V30 27 H 1.0291 -2.64082 2.89833 0
M  V30 28 H 2.5191 -3.45869 2.34017 0
M  V30 29 N 2.9562 -1.48159 -0.537278 0
M  V30 30 C 4.3722 -1.34118 -0.865129 0
M  V30 31 C 4.5722 -0.346678 -1.98495 0
M  V30 32 O 3.6282 0.234715 -2.51407 0
M  V30 33 C 4.9412 -2.73963 -1.23954 0
M  V30 34 C 6.4892 -2.82397 -1.34984 0
M  V30 35 C 6.9642 -4.22928 -1.75772 0
M  V30 36 N 8.4552 -4.25566 -1.82887 0
M  V30 37 C 9.1902 -5.31235 -2.15817 0
M  V30 38 N 8.6862 -6.47189 -2.47222 0
M  V30 39 N 10.4792 -5.18624 -2.16761 0
M  V30 40 H 2.6302 -2.1144 0.201715 0
M  V30 41 H 4.8932 -0.947598 0.0275949 0
M  V30 42 H 4.5992 -3.48264 -0.490381 0
M  V30 43 H 4.4732 -3.0702 -2.19132 0
M  V30 44 H 6.8602 -2.08356 -2.08978 0
M  V30 45 H 6.9412 -2.5297 -0.379448 0
M  V30 46 H 6.5852 -4.97482 -1.02341 0
M  V30 47 H 6.5152 -4.49794 -2.73848 0
M  V30 48 H 9.0062 -3.41924 -1.60924 0
M  V30 49 H 9.3192 -7.23564 -2.71433 0
M  V30 50 H 7.6642 -6.50476 -2.44757 0
M  V30 51 H 10.8552 -4.27056 -1.91679 0
M  V30 52 H 11.0282 -6.01078 -2.42093 0
M  V30 53 N 4.4343 0.785586 -1.36625 0
M  V30 54 C 5.3813 1.89838 -1.31264 0
M  V30 55 C 6.3513 1.65115 -0.180633 0
M  V30 56 O 7.5363 1.87222 -0.36777 0
M  V30 57 C 4.6763 3.26706 -1.11163 0
M  V30 58 C 3.7893 3.63476 -2.33472 0
M  V30 59 C 2.9243 4.89481 -2.06353 0
M  V30 60 C 1.9633 5.18941 -3.24602 0
M  V30 61 N 1.1003 6.36131 -2.97123 0
M  V30 62 H 5.9403 1.93756 -2.26413 0
M  V30 63 H 3.4773 0.947454 -1.12524 0
M  V30 64 H 5.4353 4.05639 -0.975337 0
M  V30 65 H 4.0653 3.222 -0.196674 0
M  V30 66 H 3.1173 2.79636 -2.57891 0
M  V30 67 H 4.4293 3.81193 -3.21704 0
M  V30 68 H 3.5833 5.76288 -1.89675 0
M  V30 69 H 2.3223 4.73841 -1.15437 0
M  V30 70 H 1.3273 4.30615 -3.41834 0
M  V30 71 H 2.5523 5.36498 -4.16349 0
M  V30 72 H 0.4983 6.21875 -2.08823 0
M  V30 73 H 0.4153 6.54198 -3.78894 0
M  V30 74 H 1.6833 7.2591 -2.84033 0
M  V30 75 N 5.9124 1.20967 1.01018 0
M  V30 76 C 6.8754 0.965918 2.07853 0
M  V30 77 C 7.8754 -0.0610545 1.60684 0
M  V30 78 O 9.0654 0.175681 1.73312 0
M  V30 79 C 6.1974 0.455513 3.37843 0
M  V30 80 H 7.3904 1.91365 2.3091 0
M  V30 81 H 4.9434 1.02594 1.17916 0
M  V30 82 H 5.6784 -0.497381 3.20463 0
M  V30 83 H 5.4634 1.19622 3.73407 0
M  V30 84 H 6.9534 0.304667 4.16487 0
M  V30 85 N 7.3905 -1.2043 1.01659 0
M  V30 86 C 8.3205 -2.25466 0.607226 0
M  V30 87 C 9.3015 -1.65853 -0.377716 0
M  V30 88 O 10.4865 -1.92409 -0.263149 0
M  V30 89 C 7.6165 -3.47256 -0.0552949 0
M  V30 90 C 6.5705 -4.19462 0.850632 0
M  V30 91 C 5.8965 -5.34673 0.0538859 0
M  V30 92 C 7.1965 -4.75603 2.15868 0
M  V30 93 H 8.8905 -2.59962 1.48526 0
M  V30 94 H 6.4365 -1.2496 0.715605 0
M  V30 95 H 8.3895 -4.19917 -0.353233 0
M  V30 96 H 7.1135 -3.11924 -0.968045 0
M  V30 97 H 5.7725 -3.48667 1.13257 0
M  V30 98 H 5.4205 -4.95585 -0.860514 0
M  V30 99 H 5.1205 -5.83913 0.657192 0
M  V30 100 H 6.6445 -6.10138 -0.237598 0
M  V30 101 H 8.0585 -5.40083 1.92311 0
M  V30 102 H 6.4555 -5.3528 2.71284 0
M  V30 103 H 7.5255 -3.94346 2.82169 0
M  V30 104 N 8.8686 -0.792821 -1.36206 0
M  V30 105 C 10.1176 -0.363353 -1.984 0
M  V30 106 C 10.4306 1.07172 -1.63626 0
M  V30 107 O 11.6366 1.60362 -2.19081 0
M  V30 108 C 10.0926 -0.59872 -3.54885 0
M  V30 109 C 9.7006 -2.04543 -3.9858 0
M  V30 110 C 11.4446 -0.233926 -4.23855 0
M  V30 111 C 9.3516 -2.22727 -5.47856 0
M  V30 112 H 8.2816 -0.13212 -0.742334 0
M  V30 113 H 10.9326 -0.974935 -1.55458 0
M  V30 114 H 9.3146 0.0826222 -3.95914 0
M  V30 115 H 10.4886 -2.76345 -3.68741 0
M  V30 116 H 8.8036 -2.36879 -3.42458 0
M  V30 117 H 11.4006 -0.348027 -5.33566 0
M  V30 118 H 11.7436 0.818351 -4.08177 0
M  V30 119 H 12.2766 -0.868639 -3.882 0
M  V30 120 H 9.0156 -3.2635 -5.68486 0
M  V30 121 H 8.5356 -1.55434 -5.7931 0
M  V30 122 H 10.2146 -2.03607 -6.14128 0
M  V30 123 N 10.3467 1.47872 -0.545128 0
M  V30 124 C 11.2567 2.33633 0.212746 0
M  V30 125 C 12.2727 1.4744 0.923983 0
M  V30 126 O 13.4487 1.80393 0.895572 0
M  V30 127 C 10.5137 3.23884 1.23693 0
M  V30 128 C 9.5747 4.25961 0.534417 0
M  V30 129 C 8.8077 5.11899 1.5098 0
M  V30 130 O 9.0307 5.00077 2.7437 0
M  V30 131 O 7.9647 5.92831 1.0409 0
M  V30 132 H 11.7907 2.99714 -0.490416 0
M  V30 133 H 9.3757 1.46235 -0.305871 0
M  V30 134 H 11.2577 3.79666 1.82843 0
M  V30 135 H 9.9327 2.60446 1.92222 0
M  V30 136 H 8.8397 3.73972 -0.0979679 0
M  V30 137 H 10.1727 4.92079 -0.109213 0
M  V30 138 N 11.8248 0.280983 1.55075 0
M  V30 139 C 12.7718 -0.603937 2.22758 0
M  V30 140 C 13.7418 -1.1452 1.20309 0
M  V30 141 O 14.9268 -1.19343 1.48869 0
M  V30 142 C 12.0668 -1.77947 2.95684 0
M  V30 143 C 11.1798 -1.2715 4.12864 0
M  V30 144 C 10.3148 -2.4093 4.7342 0
M  V30 145 C 9.3538 -1.87165 5.82783 0
M  V30 146 N 8.4908 -2.94441 6.37377 0
M  V30 147 H 13.3308 -0.020124 2.97993 0
M  V30 148 H 10.8678 0.00183425 1.471 0
M  V30 149 H 12.8258 -2.47055 3.36184 0
M  V30 150 H 11.4558 -2.33522 2.22861 0
M  V30 151 H 10.5078 -0.473331 3.77444 0
M  V30 152 H 11.8198 -0.837751 4.91715 0
M  V30 153 H 10.9738 -3.18021 5.1667 0
M  V30 154 H 9.7128 -2.87623 3.93859 0
M  V30 155 H 8.7178 -1.08556 5.38976 0
M  V30 156 H 9.9428 -1.41401 6.64216 0
M  V30 157 H 7.8888 -3.40505 5.60707 0
M  V30 158 H 7.8058 -2.55501 7.11516 0
M  V30 159 H 9.0738 -3.71489 6.85285 0
M  V30 160 N 13.3029 -1.57598 0.00835791 0
M  V30 161 C 14.2659 -2.07884 -0.965242 0
M  V30 162 C 15.2659 -0.989825 -1.26725 0
M  V30 163 O 16.4559 -1.25218 -1.21104 0
M  V30 164 C 13.5879 -2.52731 -2.28779 0
M  V30 165 H 14.7809 -2.95178 -0.530112 0
M  V30 166 H 12.3339 -1.54458 -0.239283 0
M  V30 167 H 13.0689 -1.68705 -2.76964 0
M  V30 168 H 12.8539 -3.32272 -2.08177 0
M  V30 169 H 14.3439 -2.91933 -2.98605 0
M  V30 170 N 14.781 0.264519 -1.55364 0
M  V30 171 C 15.728 1.32717 -1.88825 0
M  V30 172 C 16.698 1.48675 -0.740605 0
M  V30 173 O 17.883 1.62945 -0.992657 0
M  V30 174 C 15.023 2.68089 -2.17307 0
M  V30 175 C 14.136 2.60284 -3.44785 0
M  V30 176 C 13.271 3.87892 -3.62924 0
M  V30 177 C 12.31 3.74631 -4.84064 0
M  V30 178 N 11.447 4.94092 -4.98816 0
M  V30 179 H 16.287 1.03481 -2.79456 0
M  V30 180 H 13.824 0.499757 -1.3835 0
M  V30 181 H 15.782 3.46864 -2.31821 0
M  V30 182 H 14.412 2.95509 -1.299 0
M  V30 183 H 13.464 1.73173 -3.38697 0
M  V30 184 H 14.776 2.46388 -4.33698 0
M  V30 185 H 13.93 4.75109 -3.77302 0
M  V30 186 H 12.669 4.04664 -2.7221 0
M  V30 187 H 11.674 2.85797 -4.69681 0
M  V30 188 H 12.899 3.5937 -5.76221 0
M  V30 189 H 10.845 5.11259 -4.11036 0
M  V30 190 H 10.762 4.8276 -5.81789 0
M  V30 191 H 12.03 5.82857 -5.17588 0
M  V30 192 N 16.2591 1.48442 0.529413 0
M  V30 193 C 17.6751 1.34575 0.858004 0
M  V30 194 C 17.8751 0.3572 1.98309 0
M  V30 195 O 16.9311 -0.221379 2.51528 0
M  V30 196 C 18.2441 2.74617 1.22499 0
M  V30 197 C 19.7921 2.83109 1.33484 0
M  V30 198 C 20.2671 4.23854 1.73526 0
M  V30 199 N 21.7581 4.2653 1.80628 0
M  V30 200 C 22.4931 5.32372 2.12997 0
M  V30 201 N 21.9891 6.48491 2.43786 0
M  V30 202 N 23.7821 5.19766 2.14008 0
M  V30 203 H 15.9331 2.1133 -0.212925 0
M  V30 204 H 18.1961 0.947439 -0.0326199 0
M  V30 205 H 17.9021 3.4852 0.471905 0
M  V30 206 H 17.7761 3.08177 2.17501 0
M  V30 207 H 20.1631 2.09462 2.0787 0
M  V30 208 H 20.2441 2.53168 0.366027 0
M  V30 209 H 19.8881 4.98018 0.997013 0
M  V30 210 H 19.8181 4.5124 2.71459 0
M  V30 211 H 22.3091 3.42772 1.59108 0
M  V30 212 H 22.6221 7.24993 2.67592 0
M  V30 213 H 20.9671 6.51765 2.41304 0
M  V30 214 H 24.1581 4.28066 1.89412 0
M  V30 215 H 24.3311 6.02354 2.38902 0
M  V30 216 N 17.7372 -0.778329 1.37039 0
M  V30 217 C 18.9652 -1.56734 1.35063 0
M  V30 218 C 19.3802 -1.88686 -0.0655597 0
M  V30 219 O 18.7372 -1.5096 -1.02554 0
M  V30 220 C 18.7882 -2.88163 2.18276 0
M  V30 221 O 18.5092 -2.57583 3.54376 0
M  V30 222 C 20.0102 -3.82422 2.24206 0
M  V30 223 H 17.2302 -0.485778 0.462883 0
M  V30 224 H 19.7742 -0.965185 1.8029 0
M  V30 225 H 17.9292 -3.44818 1.76576 0
M  V30 226 H 18.3432 -3.41699 3.97922 0
M  V30 227 H 19.8172 -4.71667 2.86765 0
M  V30 228 H 20.2942 -4.21078 1.24861 0
M  V30 229 H 20.9002 -3.31697 2.6619 0
M  V30 230 N 19.2153 -1.21501 -1.00376 0
M  V30 231 C 20.6263 -1.03146 -1.55621 0
M  V30 232 C 20.9773 0.408375 -1.91903 0
M  V30 233 O 20.1023 1.29177 -1.73616 0
M  V30 234 C 20.6973 -1.86612 -2.82775 0
M  V30 235 C 19.2563 -1.72586 -3.34501 0
M  V30 236 C 18.4033 -1.83747 -2.07683 0
M  V30 237 H 21.3543 -1.35505 -0.826081 0
M  V30 238 H 21.3753 -1.3771 -3.54706 0
M  V30 239 H 20.8873 -2.91399 -2.56336 0
M  V30 240 H 18.9883 -0.704877 -3.65872 0
M  V30 241 H 19.1013 -2.54623 -4.05837 0
M  V30 242 H 17.4653 -1.27069 -2.20739 0
M  V30 243 H 18.2483 -2.90044 -1.83655 0
M  V30 244 N 20.6934 1.19889 -1.02296 0
M  V30 245 C 21.6404 2.22901 -0.598651 0
M  V30 246 C 22.6104 1.61588 0.384521 0
M  V30 247 O 23.7954 1.88697 0.282522 0
M  V30 248 C 20.9354 3.45063 0.0504476 0
M  V30 249 C 20.0484 4.20783 -0.978053 0
M  V30 250 C 19.1834 5.30356 -0.299338 0
M  V30 251 C 18.2224 5.97826 -1.31416 0
M  V30 252 N 17.3594 6.98975 -0.661667 0
M  V30 253 H 22.1994 2.58554 -1.48169 0
M  V30 254 H 19.7364 1.27039 -0.741584 0
M  V30 255 H 21.6944 4.14831 0.443971 0
M  V30 256 H 20.3244 3.10084 0.897097 0
M  V30 257 H 19.3764 3.50018 -1.48969 0
M  V30 258 H 20.6884 4.67109 -1.74958 0
M  V30 259 H 19.8424 6.06516 0.149347 0
M  V30 260 H 18.5814 4.85084 0.504445 0
M  V30 261 H 17.5864 5.20422 -1.77317 0
M  V30 262 H 18.8114 6.45183 -2.11933 0
M  V30 263 H 16.7574 6.55886 0.122132 0
M  V30 264 H 16.6744 7.43461 -1.37117 0
M  V30 265 H 17.9424 7.7914 -0.236785 0
M  V30 266 N 22.1715 0.800033 1.35784 0
M  V30 267 C 23.4185 0.377342 1.98953 0
M  V30 268 C 23.7465 -1.05378 1.6348 0
M  V30 269 O 23.0015 -1.74459 0.886707 0
M  V30 270 C 23.3005 0.500276 3.53881 0
M  V30 271 C 22.9665 1.89375 4.09204 0
M  V30 272 C 21.6285 2.27499 4.24025 0
M  V30 273 C 23.9805 2.8057 4.39238 0
M  V30 274 C 21.3085 3.562 4.66195 0
M  V30 275 C 23.6605 4.0871 4.82844 0
M  V30 276 C 22.3245 4.46843 4.95871 0
M  V30 277 H 21.5945 0.138079 0.728021 0
M  V30 278 H 24.2415 1.01955 1.62103 0
M  V30 279 H 22.5465 -0.225405 3.91151 0
M  V30 280 H 24.2435 0.154097 4.00704 0
M  V30 281 H 20.8335 1.58753 3.98115 0
M  V30 282 H 25.0175 2.52367 4.27346 0
M  V30 283 H 20.2735 3.85602 4.74469 0
M  V30 284 H 24.4475 4.79481 5.05046 0
M  V30 285 H 22.0745 5.46623 5.28306 0
M  V30 286 N 23.6496 -1.47581 0.552962 0
M  V30 287 C 24.5966 -2.29957 -0.197108 0
M  V30 288 C 25.5666 -1.38799 -0.912359 0
M  V30 289 O 26.7516 -1.67761 -0.908888 0
M  V30 290 C 23.8916 -3.22672 -1.22379 0
M  V30 291 C 23.0046 -4.28919 -0.515038 0
M  V30 292 C 22.1396 -5.0879 -1.52664 0
M  V30 293 C 21.1786 -6.06815 -0.802631 0
M  V30 294 N 20.3156 -6.7966 -1.76086 0
M  V30 295 H 25.1556 -2.93578 0.511486 0
M  V30 296 H 22.6926 -1.4471 0.264067 0
M  V30 297 H 24.6506 -3.74845 -1.83159 0
M  V30 298 H 23.2806 -2.60925 -1.90047 0
M  V30 299 H 22.3326 -3.79835 0.207192 0
M  V30 300 H 23.6446 -4.98773 0.0523425 0
M  V30 301 H 22.7986 -5.65091 -2.20809 0
M  V30 302 H 21.5376 -4.38828 -2.12794 0
M  V30 303 H 20.5426 -5.49695 -0.107238 0
M  V30 304 H 21.7676 -6.78784 -0.207135 0
M  V30 305 H 19.7136 -6.12432 -2.35081 0
M  V30 306 H 19.6306 -7.45669 -1.24552 0
M  V30 307 H 20.8986 -7.40538 -2.43359 0
M  V30 308 N 25.1277 -0.289203 -1.54924 0
M  V30 309 C 26.3737 0.323998 -2.00195 0
M  V30 310 C 26.7067 1.54441 -1.17735 0
M  V30 311 O 25.9817 1.92875 -0.250878 0
M  V30 312 C 26.2647 0.692276 -3.53383 0
M  V30 313 C 26.1177 -0.536457 -4.46589 0
M  V30 314 C 27.4367 1.52335 -4.12895 0
M  V30 315 H 24.5557 0.116289 -0.727768 0
M  V30 316 H 27.1977 -0.398954 -1.85764 0
M  V30 317 H 25.3477 1.30822 -3.65811 0
M  V30 318 H 27.0197 -1.17499 -4.46085 0
M  V30 319 H 25.2627 -1.17192 -4.1767 0
M  V30 320 H 25.9337 -0.234806 -5.515 0
M  V30 321 H 28.4097 1.00302 -4.0383 0
M  V30 322 H 27.2857 1.74982 -5.20262 0
M  V30 323 H 27.5467 2.50886 -3.64018 0
M  V30 324 N 26.6058 1.57591 -0.0167156 0
M  V30 325 C 28.0218 1.55946 0.339557 0
M  V30 326 C 28.2218 1.02109 1.73713 0
M  V30 327 O 27.2778 0.662303 2.43659 0
M  V30 328 C 28.5908 3.00037 0.199499 0
M  V30 329 C 30.1388 3.11805 0.273193 0
M  V30 330 C 30.6138 4.57713 0.162068 0
M  V30 331 N 32.1048 4.6268 0.219444 0
M  V30 332 C 32.8398 5.73185 0.157054 0
M  V30 333 N 32.3358 6.92786 0.0442936 0
M  V30 334 N 34.1288 5.61707 0.21014 0
M  V30 335 H 26.2798 1.90921 -0.930758 0
M  V30 336 H 28.5428 0.877674 -0.358319 0
M  V30 337 H 28.2488 3.4333 -0.76273 0
M  V30 338 H 28.1228 3.64387 0.974786 0
M  V30 339 H 30.5098 2.68433 1.22587 0
M  V30 340 H 30.5908 2.50201 -0.532256 0
M  V30 341 H 30.2348 5.01763 -0.78714 0
M  V30 342 H 30.1648 5.17283 0.986222 0
M  V30 343 H 32.6558 3.76649 0.307246 0
M  V30 344 H 32.9688 7.728 0.00304069 0
M  V30 345 H 31.3138 6.94999 0.00968457 0
M  V30 346 H 34.5048 4.6716 0.296546 0
M  V30 347 H 34.6778 6.47807 0.158054 0
M  V30 348 N 28.0839 -0.256276 1.55502 0
M  V30 349 C 29.0469 -1.30047 1.88734 0
M  V30 350 C 30.0469 -1.4154 0.763086 0
M  V30 351 O 31.2369 -1.40403 1.03115 0
M  V30 352 C 28.3689 -2.67953 2.10747 0
M  V30 353 H 29.5619 -1.01802 2.82093 0
M  V30 354 H 27.1149 -0.495134 1.4825 0
M  V30 355 H 27.8499 -3.01351 1.19825 0
M  V30 356 H 27.6349 -2.60993 2.92617 0
M  V30 357 H 29.1249 -3.43368 2.37673 0
M  V30 358 N 29.562 -1.4872 -0.521534 0
M  V30 359 C 30.792 -1.6061 -1.29954 0
M  V30 360 C 31.2 -0.268728 -1.87282 0
M  V30 361 O 30.543 0.753221 -1.67548 0
M  V30 362 C 30.605 -2.60013 -2.48261 0
M  V30 363 C 30.269 -4.04874 -2.11957 0
M  V30 364 C 31.266 -4.92304 -1.67132 0
M  V30 365 C 28.951 -4.5047 -2.22221 0
M  V30 366 C 30.945 -6.2336 -1.33047 0
M  V30 367 C 28.632 -5.81544 -1.87748 0
M  V30 368 C 29.63 -6.67812 -1.43234 0
M  V30 369 O 29.318 -7.96446 -1.09217 0
M  V30 370 H 29.05 -0.544116 -0.401141 0
M  V30 371 H 31.604 -1.95339 -0.634958 0
M  V30 372 H 29.834 -2.20422 -3.17728 0
M  V30 373 H 31.523 -2.61648 -3.10315 0
M  V30 374 H 32.289 -4.58312 -1.58665 0
M  V30 375 H 28.168 -3.83504 -2.55823 0
M  V30 376 H 31.712 -6.90649 -0.982299 0
M  V30 377 H 27.609 -6.15069 -1.95858 0
M  V30 378 H 28.377 -8.09275 -1.22542 0
M  V30 379 N 31.0401 0.771051 -1.3745 0
M  V30 380 C 32.2681 1.56015 -1.35893 0
M  V30 381 C 32.6831 1.88718 0.0555523 0
M  V30 382 O 32.0401 1.51502 1.01752 0
M  V30 383 C 32.0911 2.87001 -2.19801 0
M  V30 384 O 31.8121 2.557 -3.55738 0
M  V30 385 C 33.3131 3.81228 -2.26231 0
M  V30 386 H 30.5331 0.483317 -0.465453 0
M  V30 387 H 33.0771 0.955611 -1.80799 0
M  V30 388 H 31.2321 3.43877 -1.78402 0
M  V30 389 H 31.6461 3.39584 -3.99729 0
M  V30 390 H 33.1201 4.70139 -2.89263 0
M  V30 391 H 33.5971 4.20409 -1.27093 0
M  V30 392 H 34.2031 3.30281 -2.67945 0
M  V30 393 N 32.5182 1.22032 0.997298 0
M  V30 394 C 33.9342 0.979326 1.26021 0
M  V30 395 C 34.1342 -0.32972 1.98784 0
M  V30 396 O 33.1902 -1.05345 2.29475 0
M  V30 397 C 34.5032 2.17509 2.07631 0
M  V30 398 C 36.0512 2.21817 2.2083 0
M  V30 399 C 36.5262 3.40933 3.05825 0
M  V30 400 N 38.0172 3.41067 3.13412 0
M  V30 401 C 38.7522 4.29885 3.79455 0
M  V30 402 N 38.2482 5.28914 4.47462 0
M  V30 403 N 40.0412 4.17673 3.76173 0
M  V30 404 H 32.1922 2.06202 0.509352 0
M  V30 405 H 34.4552 0.90334 0.287541 0
M  V30 406 H 34.1612 3.12415 1.61524 0
M  V30 407 H 34.0352 2.17206 3.08385 0
M  V30 408 H 36.4222 1.27462 2.66153 0
M  V30 409 H 36.5032 2.2616 1.1952 0
M  V30 410 H 36.1472 4.35586 2.61203 0
M  V30 411 H 36.0772 3.33829 4.07266 0
M  V30 412 H 38.5682 2.69406 2.65007 0
M  V30 413 H 38.8812 5.92973 4.95583 0
M  V30 414 H 37.2262 5.32831 4.46224 0
M  V30 415 H 40.4172 3.39564 3.22202 0
M  V30 416 H 40.5902 4.87098 4.27363 0
M  V30 417 N 33.9963 -1.19345 1.0293 0
M  V30 418 C 35.2363 -1.90738 0.734727 0
M  V30 419 C 35.6003 -1.7785 -0.723414 0
M  V30 420 O 36.8013 -2.43844 -1.13108 0
M  V30 421 C 35.0723 -3.37569 1.17396 0
M  V30 422 S 36.6313 -4.27176 1.00329 0
M  V30 423 H 33.4493 -0.658771 0.267474 0
M  V30 424 H 36.0513 -1.4428 1.31922 0
M  V30 425 H 34.7553 -3.44475 2.23081 0
M  V30 426 H 34.2863 -3.8906 0.582772 0
M  V30 427 H 36.3013 -4.96126 -0.0859152 0
M  V30 428 N 35.4744 -0.807222 -1.35358 0
M  V30 429 C 36.7204 -0.388463 -1.99045 0
M  V30 430 C 37.0534 1.04184 -1.63888 0
M  V30 431 O 36.3284 1.72292 -0.902535 0
M  V30 432 C 36.6114 -0.572783 -3.55515 0
M  V30 433 C 36.4644 -2.04807 -4.00468 0
M  V30 434 C 37.7834 0.00114064 -4.401 0
M  V30 435 H 34.9024 -0.142619 -0.723069 0
M  V30 436 H 37.5444 -1.01687 -1.60498 0
M  V30 437 H 35.6944 -0.0378425 -3.88482 0
M  V30 438 H 37.3664 -2.64544 -3.77908 0
M  V30 439 H 35.6094 -2.54427 -3.51353 0
M  V30 440 H 36.2804 -2.12792 -5.09337 0
M  V30 441 H 38.7564 -0.455716 -4.13597 0
M  V30 442 H 37.6324 -0.157737 -5.48673 0
M  V30 443 H 37.8934 1.09488 -4.28328 0
M  V30 444 N 36.9525 1.47285 -0.560781 0
M  V30 445 C 38.3685 1.58065 -0.22081 0
M  V30 446 C 38.5685 1.55892 1.27671 0
M  V30 447 O 37.6245 1.46422 2.0571 0
M  V30 448 C 38.9375 2.88418 -0.850625 0
M  V30 449 C 40.4855 3.02009 -0.822184 0
M  V30 450 C 40.9605 4.35066 -1.43113 0
M  V30 451 N 42.4515 4.41711 -1.39448 0
M  V30 452 C 43.1865 5.43237 -1.83525 0
M  V30 453 N 42.6825 6.51555 -2.35474 0
M  V30 454 N 44.4755 5.34304 -1.74574 0
M  V30 455 H 36.6265 1.46941 -1.53369 0
M  V30 456 H 38.8895 0.699558 -0.639783 0
M  V30 457 H 38.5955 2.95755 -1.9032 0
M  V30 458 H 38.4695 3.75612 -0.345773 0
M  V30 459 H 40.8565 2.94266 0.221714 0
M  V30 460 H 40.9375 2.16347 -1.36483 0
M  V30 461 H 40.5815 4.43565 -2.47412 0
M  V30 462 H 40.5115 5.19465 -0.863899 0
M  V30 463 H 43.0025 3.64027 -1.01452 0
M  V30 464 H 43.3155 7.25203 -2.67021 0
M  V30 465 H 41.6605 6.52435 -2.39487 0
M  V30 466 H 44.8515 4.48581 -1.33763 0
M  V30 467 H 45.0245 6.13288 -2.09242 0
M  V30 468 N 38.4306 0.297415 1.54768 0
M  V30 469 C 39.6706 -0.313829 2.01976 0
M  V30 470 C 40.0346 -1.51366 1.1812 0
M  V30 471 O 41.2356 -2.19603 1.5501 0
M  V30 472 C 39.5066 -0.664964 3.51159 0
M  V30 473 S 41.0656 -1.25958 4.20333 0
M  V30 474 H 37.8836 -0.0965014 0.704421 0
M  V30 475 H 40.4856 0.424451 1.90837 0
M  V30 476 H 39.1896 0.21681 4.09827 0
M  V30 477 H 38.7206 -1.43413 3.66328 0
M  V30 478 H 40.7356 -2.54751 4.25813 0
M  V30 479 N 39.9087 -1.5758 0.0250728 0
M  V30 480 C 41.1567 -1.91255 -0.653151 0
M  V30 481 C 41.4777 -0.901691 -1.729 0
M  V30 482 O 40.7477 0.0573785 -1.95816 0
M  V30 483 H 39.3277 -0.705942 -0.244243 0
M  V30 484 H 41.9897 -1.94767 0.0719209 0
M  V30 485 H 41.0857 -2.91752 -1.10847 0
M  V30 486 N 41.3868 0.248026 -1.55636 0
M  V30 487 C 42.8028 0.596483 -1.48035 0
M  V30 488 C 43.0028 1.88386 -0.715039 0
M  V30 489 O 42.0588 2.51319 -0.243944 0
M  V30 490 C 43.3718 0.700258 -2.92433 0
M  V30 491 C 44.9198 0.792659 -3.02797 0
M  V30 492 C 45.3948 0.928005 -4.485 0
M  V30 493 N 46.8858 0.992903 -4.52433 0
M  V30 494 C 47.6208 1.11687 -5.62418 0
M  V30 495 N 47.1168 1.20645 -6.82214 0
M  V30 496 N 48.9098 1.14994 -5.50212 0
M  V30 497 H 41.0608 -0.597109 -2.03834 0
M  V30 498 H 43.3238 -0.205925 -0.925364 0
M  V30 499 H 43.0298 -0.175658 -3.51261 0
M  V30 500 H 42.9038 1.57255 -3.42857 0
M  V30 501 H 45.2908 1.65903 -2.4405 0
M  V30 502 H 45.3718 -0.104762 -2.55585 0
M  V30 503 H 45.0158 0.0661971 -5.07857 0
M  V30 504 H 44.9458 1.84045 -4.93391 0
M  V30 505 H 47.4368 0.935064 -3.66149 0
M  V30 506 H 47.7498 1.30008 -7.61786 0
M  V30 507 H 46.0948 1.17605 -6.84977 0
M  V30 508 H 49.2858 1.07643 -4.55555 0
M  V30 509 H 49.4588 1.24311 -6.35965 0
M  V30 510 N 42.8649 1.48995 0.513639 0
M  V30 511 C 43.8279 1.64229 1.59879 0
M  V30 512 C 44.8279 0.514696 1.5234 0
M  V30 513 O 46.0179 0.78087 1.55718 0
M  V30 514 C 43.1499 1.62783 2.99524 0
M  V30 515 H 44.3429 2.61004 1.47705 0
M  V30 516 H 41.8959 1.37837 0.736936 0
M  V30 517 H 42.6309 0.675461 3.17188 0
M  V30 518 H 42.4159 2.4466 3.06404 0
M  V30 519 H 43.9059 1.76669 3.78388 0
M  V30 520 N 44.343 -0.763751 1.37857 0
M  V30 521 C 45.759 -1.06542 1.18832 0
M  V30 522 C 45.959 -2.01478 0.0299722 0
M  V30 523 O 45.015 -2.4458 -0.627447 0
M  V30 524 C 46.328 -1.65525 2.51042 0
M  V30 525 C 47.876 -1.77745 2.57635 0
M  V30 526 C 48.351 -2.4014 3.89996 0
M  V30 527 N 49.842 -2.47582 3.91481 0
M  V30 528 C 50.577 -2.96732 4.9065 0
M  V30 529 N 50.073 -3.45993 6.00217 0
M  V30 530 N 51.866 -2.95679 4.78048 0
M  V30 531 H 44.017 -0.133556 2.1198 0
M  V30 532 H 46.28 -0.121879 0.940133 0
M  V30 533 H 45.986 -1.03236 3.36207 0
M  V30 534 H 45.86 -2.64719 2.68707 0
M  V30 535 H 48.247 -2.39164 1.72872 0
M  V30 536 H 48.328 -0.772836 2.43846 0
M  V30 537 H 47.972 -1.79358 4.75177 0
M  V30 538 H 47.902 -3.41223 4.01092 0
M  V30 539 H 50.393 -2.1273 3.12337 0
M  V30 540 H 50.706 -3.81922 6.7183 0
M  V30 541 H 49.051 -3.44077 6.03851 0
M  V30 542 H 52.242 -2.56499 3.91568 0
M  V30 543 H 52.415 -3.33672 5.55488 0
M  V30 544 N 45.8211 -1.22559 -0.990812 0
M  V30 545 C 47.0461 -1.07862 -1.77145 0
M  V30 546 C 47.4711 0.366447 -1.84496 0
M  V30 547 O 46.8291 1.26478 -1.29896 0
M  V30 548 C 46.8771 -1.69686 -3.18181 0
M  V30 549 O 45.9811 -0.951946 -4.01263 0
M  V30 550 H 45.3221 -0.378712 -0.545411 0
M  V30 551 H 47.8521 -1.62399 -1.2445 0
M  V30 552 H 47.8621 -1.74496 -3.68802 0
M  V30 553 H 46.5371 -2.74841 -3.12146 0
M  V30 554 H 45.1141 -0.980011 -3.59792 0
M  V30 555 N 47.2992 1.18797 -1.03562 0
M  V30 556 C 48.5452 1.8893 -0.737113 0
M  V30 557 C 48.8782 1.79837 0.732956 0
M  V30 558 O 48.1532 1.19525 1.5344 0
M  V30 559 C 48.4362 3.39607 -1.19745 0
M  V30 560 C 48.2892 3.57537 -2.72924 0
M  V30 561 C 49.6082 4.33069 -0.783526 0
M  V30 562 H 46.7272 0.686057 -0.269249 0
M  V30 563 H 49.3692 1.39797 -1.28673 0
M  V30 564 H 47.5192 3.81583 -0.729855 0
M  V30 565 H 49.1912 3.24688 -3.27682 0
M  V30 566 H 47.4342 3.00363 -3.12993 0
M  V30 567 H 48.1052 4.63238 -3.00191 0
M  V30 568 H 50.5812 3.98846 -1.18581 0
M  V30 569 H 49.4572 5.3707 -1.13343 0
M  V30 570 H 49.7182 4.40986 0.313681 0
M  V30 571 N 48.7773 0.814389 1.34928 0
M  V30 572 C 50.0073 0.41054 2.0248 0
M  V30 573 C 50.4153 -0.985625 1.61499 0
M  V30 574 O 49.7583 -1.64781 0.811976 0
M  V30 575 C 49.8203 0.423384 3.56998 0
M  V30 576 C 49.4843 1.77141 4.21272 0
M  V30 577 C 50.4813 2.73093 4.42398 0
M  V30 578 C 48.1663 2.05755 4.58225 0
M  V30 579 C 50.1603 3.95838 4.9959 0
M  V30 580 C 47.8473 3.28762 5.1513 0
M  V30 581 C 48.8453 4.23621 5.35755 0
M  V30 582 O 48.5333 5.44456 5.91458 0
M  V30 583 H 48.2653 0.163997 0.655806 0
M  V30 584 H 50.8193 1.10155 1.73364 0
M  V30 585 H 49.0493 -0.324276 3.85338 0
M  V30 586 H 50.7383 0.0407683 4.0588 0
M  V30 587 H 51.5043 2.5228 4.14222 0
M  V30 588 H 47.3833 1.32727 4.4148 0
M  V30 589 H 50.9273 4.69891 5.15605 0
M  V30 590 H 46.8243 3.49443 5.42734 0
M  V30 591 H 47.5923 5.4586 6.09901 0
M  V30 592 N 50.2554 -1.46986 0.568584 0
M  V30 593 C 51.6714 -1.57946 0.229189 0
M  V30 594 C 51.8714 -1.56567 -1.26843 0
M  V30 595 O 50.9274 -1.47511 -2.04931 0
M  V30 596 C 52.2404 -2.87963 0.865909 0
M  V30 597 C 53.7884 -3.01568 0.838188 0
M  V30 598 C 54.2634 -4.34301 1.45419 0
M  V30 599 N 55.7544 -4.40965 1.41788 0
M  V30 600 C 56.4894 -5.42256 1.86403 0
M  V30 601 N 55.9854 -6.50297 2.38926 0
M  V30 602 N 57.7784 -5.3337 1.77405 0
M  V30 603 H 49.9294 -1.46126 1.54146 0
M  V30 604 H 52.1924 -0.696156 0.643484 0
M  V30 605 H 51.8984 -2.94742 1.91886 0
M  V30 606 H 51.7724 -3.75423 0.365687 0
M  V30 607 H 54.1594 -2.94379 -0.206106 0
M  V30 608 H 54.2404 -2.1562 1.37629 0
M  V30 609 H 53.8844 -4.42247 2.49761 0
M  V30 610 H 53.8144 -5.19 0.891435 0
M  V30 611 H 56.3054 -3.63484 1.03381 0
M  V30 612 H 56.6184 -7.23777 2.70863 0
M  V30 613 H 54.9634 -6.51155 2.42944 0
M  V30 614 H 58.1544 -4.47865 1.3614 0
M  V30 615 H 58.3274 -6.12169 2.12492 0
M  V30 616 N 51.7335 -0.305618 -1.54608 0
M  V30 617 C 52.9805 0.302298 -2.00231 0
M  V30 618 C 53.3085 1.5354 -1.19398 0
M  V30 619 O 52.5635 1.93973 -0.259423 0
M  V30 620 C 52.8625 0.698983 -3.50498 0
M  V30 621 C 52.5285 -0.432903 -4.48817 0
M  V30 622 C 51.1905 -0.743622 -4.75419 0
M  V30 623 C 53.5425 -1.19409 -5.07337 0
M  V30 624 C 50.8705 -1.81857 -5.57804 0
M  V30 625 C 53.2225 -2.25899 -5.90891 0
M  V30 626 C 51.8865 -2.57572 -6.15803 0
M  V30 627 H 51.1565 0.110619 -0.732697 0
M  V30 628 H 53.8035 -0.425674 -1.86709 0
M  V30 629 H 52.1085 1.50711 -3.61654 0
M  V30 630 H 53.8055 1.1806 -3.83227 0
M  V30 631 H 50.3955 -0.18063 -4.28219 0
M  V30 632 H 54.5795 -0.967295 -4.86782 0
M  V30 633 H 49.8355 -2.06864 -5.75341 0
M  V30 634 H 54.0095 -2.85335 -6.35261 0
M  V30 635 H 51.6365 -3.40998 -6.7943 0
M  V30 636 N 53.2116 1.57565 -0.0334293 0
M  V30 637 C 54.4586 1.91978 0.644272 0
M  V30 638 C 54.7866 0.910231 1.71887 0
M  V30 639 O 54.0416 -0.0801961 1.95536 0
M  V30 640 C 54.3406 3.33112 1.29504 0
M  V30 641 C 54.0066 4.49537 0.350388 0
M  V30 642 C 52.6686 4.81115 0.0903974 0
M  V30 643 C 55.0206 5.20347 -0.298032 0
M  V30 644 C 52.3486 5.8086 -0.825746 0
M  V30 645 C 54.7006 6.2107 -1.20226 0
M  V30 646 C 53.3646 6.51088 -1.4711 0
M  V30 647 H 52.6346 0.702496 0.235756 0
M  V30 648 H 55.2816 1.91259 -0.0961176 0
M  V30 649 H 53.5866 3.30113 2.11028 0
M  V30 650 H 55.2836 3.57011 1.82603 0
M  V30 651 H 51.8736 4.24883 0.563205 0
M  V30 652 H 56.0576 4.96178 -0.110234 0
M  V30 653 H 51.3136 6.02461 -1.04169 0
M  V30 654 H 55.4876 6.75057 -1.71086 0
M  V30 655 H 53.1146 7.28193 -2.18264 0
M  V30 656 N 54.6897 -0.239769 1.55765 0
M  V30 657 C 55.9377 -0.964892 1.77579 0
M  V30 658 C 56.2587 -1.85582 0.598699 0
M  V30 659 O 55.5287 -1.92075 -0.385226 0
M  V30 660 H 54.1087 -0.359265 0.654933 0
M  V30 661 H 56.7707 -0.256001 1.93211 0
M  V30 662 H 55.8667 -1.58243 2.69009 0
M  V30 663 N 56.1678 -1.49265 -0.50573 0
M  V30 664 C 57.0978 -1.68495 -1.61653 0
M  V30 665 C 58.0788 -0.53366 -1.61512 0
M  V30 666 O 59.2638 -0.76897 -1.78327 0
M  V30 667 C 56.3938 -1.74709 -3.00157 0
M  V30 668 C 55.3478 -2.89581 -3.15162 0
M  V30 669 C 54.6738 -2.80903 -4.5497 0
M  V30 670 C 55.9738 -4.30578 -2.95634 0
M  V30 671 H 57.6678 -2.61493 -1.45814 0
M  V30 672 H 55.2138 -1.25838 -0.70005 0
M  V30 673 H 57.1668 -1.86748 -3.77761 0
M  V30 674 H 55.8908 -0.783067 -3.17074 0
M  V30 675 H 54.5498 -2.77136 -2.39982 0
M  V30 676 H 54.1978 -1.82419 -4.68756 0
M  V30 677 H 53.8978 -3.57999 -4.65951 0
M  V30 678 H 55.4218 -2.94944 -5.34641 0
M  V30 679 H 56.8358 -4.4373 -3.63011 0
M  V30 680 H 55.2328 -5.0886 -3.18091 0
M  V30 681 H 56.3028 -4.45352 -1.91806 0
M  V30 682 N 57.6459 0.756429 -1.3826 0
M  V30 683 C 58.8859 1.52833 -1.35725 0
M  V30 684 C 59.2499 1.91926 0.0534106 0
M  V30 685 O 60.4509 2.68028 0.203613 0
M  V30 686 C 58.7219 2.74919 -2.28373 0
M  V30 687 S 60.2809 3.64817 -2.43832 0
M  V30 688 H 57.0989 0.523043 -0.481608 0
M  V30 689 H 59.7009 0.888212 -1.74158 0
M  V30 690 H 58.4049 2.44304 -3.29763 0
M  V30 691 H 57.9359 3.43878 -1.91079 0
M  V30 692 H 59.9509 4.676 -1.66027 0
M  V30 693 N 59.124 1.23083 0.984299 0
M  V30 694 C 60.54 0.992637 1.24975 0
M  V30 695 C 60.74 -0.308618 1.99123 0
M  V30 696 O 59.796 -1.02905 2.30579 0
M  V30 697 C 61.109 2.19698 2.05312 0
M  V30 698 C 62.657 2.24147 2.18465 0
M  V30 699 C 63.132 3.44157 3.02192 0
M  V30 700 N 64.623 3.44372 3.09777 0
M  V30 701 C 65.358 4.33886 3.74874 0
M  V30 702 N 64.854 5.3363 4.41827 0
M  V30 703 N 66.647 4.21639 3.71721 0
M  V30 704 H 58.798 2.06731 0.487453 0
M  V30 705 H 61.061 0.906339 0.277944 0
M  V30 706 H 60.767 3.1411 1.58201 0
M  V30 707 H 60.641 2.20465 3.06064 0
M  V30 708 H 63.028 1.30277 2.64786 0
M  V30 709 H 63.109 2.27415 1.17115 0
M  V30 710 H 62.753 4.38332 2.56568 0
M  V30 711 H 62.683 3.3813 4.03702 0
M  V30 712 H 65.174 2.72201 2.62135 0
M  V30 713 H 65.487 5.98196 4.89266 0
M  V30 714 H 63.832 5.37534 4.40548 0
M  V30 715 H 67.023 3.42962 3.18582 0
M  V30 716 H 67.196 4.91604 4.22173 0
M  V30 717 N 60.6021 -1.18246 1.0419 0
M  V30 718 C 61.8511 -1.87588 0.741194 0
M  V30 719 C 62.1641 -1.81303 -0.734066 0
M  V30 720 O 63.3701 -2.46019 -1.14834 0
M  V30 721 C 61.8261 -3.36538 1.27555 0
M  V30 722 C 61.4341 -3.51349 2.77953 0
M  V30 723 C 63.1781 -4.11273 1.05143 0
M  V30 724 C 61.0851 -4.94265 3.2474 0
M  V30 725 H 60.0151 -0.702622 0.273565 0
M  V30 726 H 62.6661 -1.33601 1.25789 0
M  V30 727 H 61.0481 -3.9 0.686703 0
M  V30 728 H 62.2221 -3.08153 3.42605 0
M  V30 729 H 60.5371 -2.90022 2.98791 0
M  V30 730 H 63.1341 -5.16689 1.37611 0
M  V30 731 H 63.4771 -4.16298 -0.0112774 0
M  V30 732 H 64.0101 -3.63987 1.60495 0
M  V30 733 H 60.7491 -4.94408 4.30396 0
M  V30 734 H 60.2691 -5.38172 2.64823 0
M  V30 735 H 61.9481 -5.62987 3.18834 0
M  V30 736 N 62.0802 -0.821533 -1.34494 0
M  V30 737 C 63.3202 -0.414785 -2.00147 0
M  V30 738 C 63.6842 1.00299 -1.6372 0
M  V30 739 O 64.8852 1.51255 -2.22206 0
M  V30 740 C 63.1562 -0.609403 -3.52166 0
M  V30 741 S 64.7152 -0.295297 -4.37805 0
M  V30 742 H 61.5332 -0.15679 -0.693497 0
M  V30 743 H 64.1352 -1.06705 -1.63812 0
M  V30 744 H 62.8392 -1.64096 -3.76166 0
M  V30 745 H 62.3702 0.0576414 -3.93358 0
M  V30 746 H 64.3852 0.891531 -4.88125 0
M  V30 747 N 63.5583 1.46682 -0.576371 0
M  V30 748 C 64.4883 2.33028 0.148397 0
M  V30 749 C 65.4693 1.44961 0.889956 0
M  V30 750 O 66.6543 1.73789 0.866662 0
M  V30 751 C 63.7843 3.27117 1.1667 0
M  V30 752 C 62.7383 4.24575 0.540386 0
M  V30 753 C 62.0643 5.08126 1.6647 0
M  V30 754 C 63.3643 5.19722 -0.518331 0
M  V30 755 H 65.0583 2.93875 -0.572509 0
M  V30 756 H 62.6043 1.41315 -0.276768 0
M  V30 757 H 64.5573 3.86374 1.68204 0
M  V30 758 H 63.2813 2.64364 1.9178 0
M  V30 759 H 61.9403 3.66571 0.0461769 0
M  V30 760 H 61.5883 4.41762 2.40531 0
M  V30 761 H 61.2883 5.74122 1.25131 0
M  V30 762 H 62.8123 5.70246 2.18293 0
M  V30 763 H 64.2263 5.73232 -0.0883058 0
M  V30 764 H 62.6233 5.94026 -0.851679 0
M  V30 765 H 63.6933 4.64037 -1.40703 0
M  V30 766 N 65.0364 0.313813 1.54444 0
M  V30 767 C 66.4524 -0.0391619 1.59552 0
M  V30 768 C 66.6524 -1.51322 1.33056 0
M  V30 769 O 65.7084 -2.26782 1.11022 0
M  V30 770 C 67.0214 0.370302 2.98411 0
M  V30 771 C 68.5694 0.320139 3.11358 0
M  V30 772 C 69.0444 0.704617 4.52547 0
M  V30 773 N 70.5354 0.657645 4.58508 0
M  V30 774 C 71.2704 0.927453 5.6585 0
M  V30 775 N 70.7664 1.26389 6.81174 0
M  V30 776 N 72.5594 0.853662 5.5558 0
M  V30 777 H 64.7104 1.27433 1.69925 0
M  V30 778 H 66.9734 0.517511 0.794284 0
M  V30 779 H 66.6794 1.39694 3.22767 0
M  V30 780 H 66.5534 -0.269619 3.76235 0
M  V30 781 H 68.9404 -0.697275 2.86744 0
M  V30 782 H 69.0214 0.99486 2.35661 0
M  V30 783 H 68.6654 1.7199 4.77893 0
M  V30 784 H 68.5954 0.00768843 5.26599 0
M  V30 785 H 71.0864 0.409067 3.75679 0
M  V30 786 H 71.3994 1.4554 7.58972 0
M  V30 787 H 69.7444 1.30206 6.82694 0
M  V30 788 H 72.9354 0.590383 4.64362 0
M  V30 789 H 73.1084 1.0673 6.3915 0
M  V30 790 N 66.5145 -1.57545 0.0417849 0
M  V30 791 C 67.4245 -2.14451 -0.951213 0
M  V30 792 C 68.4405 -1.09992 -1.34825 0
M  V30 793 O 69.6165 -1.42114 -1.42708 0
M  V30 794 C 66.6815 -2.67063 -2.21084 0
M  V30 795 C 65.7425 -3.86284 -1.87304 0
M  V30 796 C 64.9755 -4.36378 -3.07261 0
M  V30 797 O 65.1985 -3.85587 -4.20332 0
M  V30 798 O 64.1325 -5.28077 -2.88822 0
M  V30 799 H 67.9585 -2.99601 -0.497287 0
M  V30 800 H 65.5435 -1.48317 -0.179567 0
M  V30 801 H 67.4255 -3.00914 -2.95006 0
M  V30 802 H 66.1005 -1.84989 -2.65633 0
M  V30 803 H 65.0075 -3.57338 -1.10727 0
M  V30 804 H 66.3405 -4.6956 -1.47562 0
M  V30 805 N 67.9926 0.231505 -1.5589 0
M  V30 806 C 68.9226 1.29022 -1.94617 0
M  V30 807 C 69.9036 1.4941 -0.813067 0
M  V30 808 O 71.0886 1.6176 -1.07459 0
M  V30 809 C 68.2186 2.64199 -2.25424 0
M  V30 810 C 67.1726 2.58484 -3.41131 0
M  V30 811 C 66.4986 3.97599 -3.57518 0
M  V30 812 C 67.7986 2.1413 -4.76388 0
M  V30 813 H 69.4926 0.968563 -2.83301 0
M  V30 814 H 67.0386 0.464479 -1.36303 0
M  V30 815 H 68.9916 3.38413 -2.51107 0
M  V30 816 H 67.7156 2.98032 -1.33583 0
M  V30 817 H 66.3746 1.86727 -3.15481 0
M  V30 818 H 66.0226 4.28723 -2.6307 0
M  V30 819 H 65.7226 3.94659 -4.35337 0
M  V30 820 H 67.2466 4.7349 -3.85538 0
M  V30 821 H 68.6606 2.78083 -5.01341 0
M  V30 822 H 67.0576 2.2227 -5.57419 0
M  V30 823 H 68.1276 1.09331 -4.72414 0
M  V30 824 N 69.4707 1.49531 0.497807 0
M  V30 825 C 70.4337 1.65916 1.58128 0
M  V30 826 C 71.4337 0.530825 1.51786 0
M  V30 827 O 72.6237 0.797342 1.54881 0
M  V30 828 C 69.7557 1.65951 2.9778 0
M  V30 829 H 70.9487 2.62556 1.44929 0
M  V30 830 H 68.5017 1.38611 0.722275 0
M  V30 831 H 69.2367 0.709065 3.16453 0
M  V30 832 H 69.0217 2.47897 3.03792 0
M  V30 833 H 70.5117 1.80673 3.76493 0
M  V30 834 N 70.9488 -0.749086 1.3866 0
M  V30 835 C 71.8988 -1.85368 1.32751 0
M  V30 836 C 72.8828 -1.59511 0.210945 0
M  V30 837 O 74.0748 -1.71255 0.447299 0
M  V30 838 C 71.2038 -3.23131 1.15935 0
M  V30 839 C 70.2898 -3.54864 2.32233 0
M  V30 840 N 70.6808 -3.57625 3.57684 0
M  V30 841 C 68.9788 -3.85154 2.24883 0
M  V30 842 C 69.6798 -3.86753 4.34508 0
M  V30 843 N 68.6558 -4.03812 3.63918 0
M  V30 844 H 72.4578 -1.85787 2.27729 0
M  V30 845 H 69.9718 -0.946658 1.31955 0
M  V30 846 H 71.9688 -4.02185 1.09786 0
M  V30 847 H 70.6288 -3.23961 0.218947 0
M  V30 848 H 71.6398 -3.39276 3.91295 0
M  V30 849 H 68.3168 -3.93672 1.39027 0
M  V30 850 H 69.7068 -3.95474 5.43185 0
M  V30 851 N 72.4269 -1.23603 -0.977757 0
M  V30 852 C 73.3739 -1.01954 -2.07061 0
M  V30 853 C 74.3439 0.0638697 -1.65977 0
M  V30 854 O 75.5289 -0.0887624 -1.90593 0
M  V30 855 C 72.6689 -0.619658 -3.39491 0
M  V30 856 C 71.7819 -1.77547 -3.93829 0
M  V30 857 C 70.9169 -1.32212 -5.14484 0
M  V30 858 C 69.9559 -2.44852 -5.60994 0
M  V30 859 N 69.0929 -2.00456 -6.72876 0
M  V30 860 H 73.9329 -1.95495 -2.24913 0
M  V30 861 H 71.4699 -0.973861 -1.10247 0
M  V30 862 H 73.4279 -0.368898 -4.15566 0
M  V30 863 H 72.0579 0.278752 -3.21594 0
M  V30 864 H 71.1099 -2.14016 -3.14486 0
M  V30 865 H 72.4219 -2.62219 -4.24314 0
M  V30 866 H 71.5759 -1.02965 -5.97899 0
M  V30 867 H 70.3149 -0.445808 -4.85658 0
M  V30 868 H 69.3199 -2.74871 -4.76157 0
M  V30 869 H 70.5449 -3.33024 -5.91837 0
M  V30 870 H 68.4909 -1.15208 -6.45804 0
M  V30 871 H 68.4079 -2.78687 -7.02759 0
M  V30 872 H 69.6759 -1.7432 -7.59758 0
M  V30 873 N 73.905 1.17692 -1.04816 0
M  V30 874 C 75.153 1.87488 -0.754497 0
M  V30 875 C 75.474 1.81205 0.720407 0
M  V30 876 O 74.744 1.23544 1.52032 0
M  V30 877 H 73.324 0.694101 -0.276102 0
M  V30 878 H 75.986 1.42793 -1.32651 0
M  V30 879 H 75.082 2.93328 -1.06606 0
M  V30 880 N 75.3831 0.828654 1.34056 0
M  V30 881 C 76.3151 0.212052 2.28217 0
M  V30 882 C 77.3281 -0.601362 1.51286 0
M  V30 883 O 78.5171 -0.430104 1.73241 0
M  V30 884 C 75.6171 -0.72088 3.31144 0
M  V30 885 C 74.7901 0.0509587 4.3737 0
M  V30 886 C 73.8491 -0.803766 5.20025 0
M  V30 887 O 72.8751 -0.246667 5.68665 0
M  V30 888 N 74.0771 -2.1227 5.40298 0
M  V30 889 H 76.8421 1.02105 2.81771 0
M  V30 890 H 74.4031 0.686153 1.46641 0
M  V30 891 H 76.3951 -1.29742 3.8334 0
M  V30 892 H 74.9651 -1.43061 2.77943 0
M  V30 893 H 74.1851 0.808831 3.85813 0
M  V30 894 H 75.4731 0.582065 5.0546 0
M  V30 895 H 74.8711 -2.59898 5.02464 0
M  V30 896 H 73.4281 -2.64796 5.95589 0
M  V30 897 N 76.8612 -1.46375 0.584142 0
M  V30 898 C 77.7912 -2.33103 -0.136037 0
M  V30 899 C 78.7722 -1.45431 -0.882255 0
M  V30 900 O 79.9572 -1.74246 -0.857434 0
M  V30 901 C 77.0872 -3.27731 -1.14933 0
M  V30 902 C 76.0412 -4.24855 -0.517862 0
M  V30 903 C 75.3672 -5.09001 -1.63773 0
M  V30 904 C 76.6672 -5.19439 0.545886 0
M  V30 905 H 78.3612 -2.93568 0.588086 0
M  V30 906 H 75.9072 -1.41166 0.284259 0
M  V30 907 H 77.8602 -3.87261 -1.66153 0
M  V30 908 H 76.5842 -2.65377 -1.90375 0
M  V30 909 H 75.2432 -3.6659 -0.0267361 0
M  V30 910 H 74.8912 -4.43031 -2.38185 0
M  V30 911 H 74.5912 -5.74777 -1.22085 0
M  V30 912 H 76.1152 -5.71396 -2.15266 0
M  V30 913 H 77.5292 -5.73177 0.118704 0
M  V30 914 H 75.9262 -5.93566 0.88317 0
M  V30 915 H 76.9962 -4.63285 1.43162 0
M  V30 916 N 78.3393 -0.321999 -1.54275 0
M  V30 917 C 79.7503 0.166384 -1.85957 0
M  V30 918 C 80.1013 1.51747 -1.24367 0
M  V30 919 O 79.2263 2.09317 -0.549124 0
M  V30 920 C 79.8213 0.308681 -3.37391 0
M  V30 921 C 78.3803 0.741286 -3.69028 0
M  V30 922 C 77.5273 -0.137937 -2.76957 0
M  V30 923 H 80.4783 -0.542335 -1.49146 0
M  V30 924 H 80.4993 1.13984 -3.63026 0
M  V30 925 H 80.0113 -0.674809 -3.82188 0
M  V30 926 H 78.1123 1.73458 -3.29762 0
M  V30 927 H 78.2253 0.546118 -4.75977 0
M  V30 928 H 76.5893 0.386251 -2.51754 0
M  V30 929 H 77.3723 -1.11816 -3.2458 0
M  V30 930 N 79.8174 1.5752 -0.0501392 0
M  V30 931 C 81.0654 1.9227 0.622642 0
M  V30 932 C 81.3864 0.929083 1.71444 0
M  V30 933 O 80.6564 -0.0262186 1.95882 0
M  V30 934 H 79.2364 0.709739 0.232981 0
M  V30 935 H 81.8984 1.94628 -0.102898 0
M  V30 936 H 80.9944 2.93479 1.06191 0
M  V30 937 N 81.2955 -0.223234 1.56011 0
M  V30 938 C 82.5415 -0.949279 1.79211 0
M  V30 939 C 82.8745 -1.84054 0.619494 0
M  V30 940 O 82.1495 -1.90726 -0.381317 0
M  V30 941 C 82.4325 -1.78965 3.12479 0
M  V30 942 C 82.2855 -0.924997 4.40186 0
M  V30 943 C 83.6045 -2.76774 3.42175 0
M  V30 944 H 80.7235 -0.343676 0.651963 0
M  V30 945 H 83.3655 -0.218253 1.88742 0
M  V30 946 H 81.5155 -2.41291 3.04485 0
M  V30 947 H 83.1875 -0.318615 4.60198 0
M  V30 948 H 81.4305 -0.230344 4.33188 0
M  V30 949 H 82.1015 -1.54735 5.29869 0
M  V30 950 H 84.5775 -2.24584 3.50287 0
M  V30 951 H 83.4535 -3.32678 4.36597 0
M  V30 952 H 83.7145 -3.54429 2.64258 0
M  V30 953 N 82.7736 -1.49793 -0.48987 0
M  V30 954 C 84.1896 -1.36803 -0.822022 0
M  V30 955 C 84.3896 -0.409652 -1.97292 0
M  V30 956 O 83.4456 0.154614 -2.52026 0
M  V30 957 C 84.7586 -2.77768 -1.15175 0
M  V30 958 C 86.3066 -2.86549 -1.25931 0
M  V30 959 C 86.7816 -4.28306 -1.62228 0
M  V30 960 N 88.2726 -4.31169 -1.69256 0
M  V30 961 C 89.0076 -5.37832 -1.98807 0
M  V30 962 N 88.5036 -6.54726 -2.26507 0
M  V30 963 N 90.2966 -5.25258 -2.00152 0
M  V30 964 H 82.4476 -2.10691 0.268881 0
M  V30 965 H 84.7106 -0.946241 0.057728 0
M  V30 966 H 84.4166 -3.49648 -0.379335 0
M  V30 967 H 84.2906 -3.13836 -2.09253 0
M  V30 968 H 86.6776 -2.14899 -2.02243 0
M  V30 969 H 86.7586 -2.54049 -0.298776 0
M  V30 970 H 86.4026 -5.00486 -0.864622 0
M  V30 971 H 86.3326 -4.58279 -2.594 0
M  V30 972 H 88.8236 -3.4687 -1.49965 0
M  V30 973 H 89.1366 -7.31833 -2.48276 0
M  V30 974 H 87.4816 -6.57933 -2.23939 0
M  V30 975 H 90.6726 -4.32938 -1.77996 0
M  V30 976 H 90.8456 -6.08476 -2.22848 0
M  V30 977 N 84.2517 0.741722 -1.39055 0
M  V30 978 C 85.1987 1.85566 -1.37237 0
M  V30 979 C 86.1687 1.64457 -0.233072 0
M  V30 980 O 87.3537 1.85957 -0.427147 0
M  V30 981 C 84.4937 3.23004 -1.215 0
M  V30 982 C 83.6067 3.55864 -2.44918 0
M  V30 983 C 82.7417 4.82669 -2.21821 0
M  V30 984 C 81.7807 5.08351 -3.40948 0
M  V30 985 N 80.9177 6.26356 -3.17211 0
M  V30 986 H 85.7577 1.86455 -2.32462 0
M  V30 987 H 83.2947 0.911176 -1.15482 0
M  V30 988 H 85.2527 4.02331 -1.10389 0
M  V30 989 H 83.8827 3.21411 -0.29908 0
M  V30 990 H 82.9347 2.7129 -2.66657 0
M  V30 991 H 84.2467 3.70765 -3.33668 0
M  V30 992 H 83.4007 5.69962 -2.07914 0
M  V30 993 H 82.1397 4.69929 -1.30454 0
M  V30 994 H 81.1447 4.19522 -3.55361 0
M  V30 995 H 82.3697 5.22981 -4.33207 0
M  V30 996 H 80.3157 6.14917 -2.28502 0
M  V30 997 H 80.2327 6.41813 -3.99515 0
M  V30 998 H 81.5007 7.16506 -3.06984 0
M  V30 999 N 85.7298 1.2412 0.971189 0
M  V30 1000 C 86.6928 1.03156 2.04674 0
M  V30 1001 C 87.6928 -0.00990322 1.60797 0
M  V30 1002 O 88.8828 0.230729 1.72665 0
M  V30 1003 C 86.0148 0.562765 3.36223 0
M  V30 1004 H 87.2078 1.98614 2.24705 0
M  V30 1005 H 84.7608 1.06293 1.14593 0
M  V30 1006 H 85.4958 -0.395176 3.21883 0
M  V30 1007 H 85.2808 1.31441 3.69413 0
M  V30 1008 H 86.7708 0.437015 4.15307 0
M  V30 1009 N 87.2079 -1.17134 1.05439 0
M  V30 1010 C 88.4329 -1.91913 0.786396 0
M  V30 1011 C 88.8579 -1.7643 -0.652234 0
M  V30 1012 O 88.2159 -1.08372 -1.45345 0
M  V30 1013 C 88.2639 -3.40921 1.17497 0
M  V30 1014 O 87.3679 -4.11244 0.308589 0
M  V30 1015 H 86.7089 -0.598215 0.288158 0
M  V30 1016 H 89.2389 -1.48457 1.4079 0
M  V30 1017 H 89.2489 -3.91668 1.14281 0
M  V30 1018 H 87.9239 -3.5151 2.22292 0
M  V30 1019 H 86.5009 -3.70731 0.40157 0
M  V30 1020 N 88.686 -0.835752 -1.33615 0
M  V30 1021 C 89.932 -0.439817 -1.98588 0
M  V30 1022 C 90.287 0.989274 -1.65019 0
M  V30 1023 O 89.58 1.68168 -0.918159 0
M  V30 1024 C 89.774 -0.593925 -3.52431 0
M  V30 1025 C 89.603 -2.03644 -4.00948 0
M  V30 1026 C 88.373 -2.67103 -4.28934 0
M  V30 1027 C 90.571 -3.00479 -4.17393 0
M  V30 1028 N 88.553 -4.02462 -4.6357 0
M  V30 1029 C 89.924 -4.20777 -4.55353 0
M  V30 1030 C 91.979 -2.96926 -3.99674 0
M  V30 1031 C 90.682 -5.37994 -4.77447 0
M  V30 1032 C 92.708 -4.1337 -4.22941 0
M  V30 1033 C 92.07 -5.32422 -4.61201 0
M  V30 1034 H 88.169 -0.209303 -0.75347 0
M  V30 1035 H 90.753 -1.08316 -1.61789 0
M  V30 1036 H 88.924 0.019599 -3.88395 0
M  V30 1037 H 90.656 -0.169738 -4.04344 0
M  V30 1038 H 87.411 -2.18259 -4.20309 0
M  V30 1039 H 87.835 -4.72232 -4.85104 0
M  V30 1040 H 92.477 -2.06015 -3.69212 0
M  V30 1041 H 90.195 -6.29451 -5.06771 0
M  V30 1042 H 93.781 -4.12034 -4.10754 0
M  V30 1043 H 92.661 -6.21027 -4.78848 0
M  V30 1044 O 90.203 1.43933 -0.732491 0
M  V30 1045 H 90.894 1.91618 -0.283236 0
M  V30 END ATOM
M  V30 BEGIN BOND
M  V30 END BOND
M  V30 END CTAB
M  END
$$$$
