drugbank_target|P0DP24 Calmodulin-2 (DB11093; DB11348; DB14481)
 OpenBabel12092121053D

  0  0  0     0  0            999 V3000
M  V30 BEGIN CTAB
M  V30 COUNTS 2279 2291 0 0 0
M  V30 BEGIN ATOM
M  V30 1 H -0.908 1.98254 -0.117106 0
M  V30 2 N 0 1.576 0 0
M  V30 3 C 0.933 2.03868 1.02534 0
M  V30 4 C 1.911 0.928543 1.3348 0
M  V30 5 O 3.095 1.19667 1.45644 0
M  V30 6 C 0.222 2.43627 2.35294 0
M  V30 7 C -0.732 3.65373 2.2001 0
M  V30 8 S 0.101 5.13292 1.52614 0
M  V30 9 C 1.257 5.56322 2.86805 0
M  V30 10 H 1.49 2.90518 0.631377 0
M  V30 11 H -0.977 1.52953 0.210867 0
M  V30 12 H 0.981 2.67203 3.11629 0
M  V30 13 H -0.358 1.57376 2.7183 0
M  V30 14 H -1.165 3.90944 3.18086 0
M  V30 15 H -1.563 3.418 1.51819 0
M  V30 16 H 0.729 5.58782 3.83104 0
M  V30 17 H 1.672 6.56266 2.65933 0
M  V30 18 H 2.08 4.83886 2.90714 0
M  V30 19 N 1.4781 -0.272755 1.55222 0
M  V30 20 C 2.4411 -1.32041 1.87344 0
M  V30 21 C 3.4411 -1.42342 0.74803 0
M  V30 22 O 4.6311 -1.41488 1.0162 0
M  V30 23 C 1.7631 -2.70173 2.07893 0
M  V30 24 H 2.9561 -1.04789 2.80997 0
M  V30 25 H 0.5091 -0.51083 1.47717 0
M  V30 26 H 1.2441 -3.02605 1.16622 0
M  V30 27 H 1.0291 -2.64082 2.89833 0
M  V30 28 H 2.5191 -3.45869 2.34017 0
M  V30 29 N 2.9562 -1.48159 -0.537278 0
M  V30 30 C 4.2332 -1.46291 -1.29839 0
M  V30 31 C 4.6132 -0.170613 -2.10409 0
M  V30 32 O 3.9612 0.847746 -2.12192 0
M  V30 33 C 4.1712 -2.72055 -2.18603 0
M  V30 34 C 5.5192 -3.20087 -2.7898 0
M  V30 35 O 6.5432 -2.72921 -2.28894 0
M  V30 36 O 5.4022 -4.02138 -3.70064 0
M  V30 37 H 2.4962 -0.583906 -0.585647 0
M  V30 38 H 5.0422 -1.60384 -0.554534 0
M  V30 39 H 3.8142 -3.57628 -1.58801 0
M  V30 40 H 3.4372 -2.60646 -3.00249 0
M  V30 41 N 4.4343 0.785586 -1.36625 0
M  V30 42 C 5.3663 1.90711 -1.2713 0
M  V30 43 C 6.3793 1.61688 -0.189986 0
M  V30 44 O 7.5683 1.72864 -0.445014 0
M  V30 45 C 4.6683 3.25611 -0.939713 0
M  V30 46 C 3.8413 3.82385 -2.12369 0
M  V30 47 C 2.9003 4.95732 -1.76456 0
M  V30 48 O 1.9263 5.12047 -2.48589 0
M  V30 49 N 3.1283 5.76258 -0.700492 0
M  V30 50 H 5.8933 1.99376 -2.23762 0
M  V30 51 H 3.4543 0.964041 -1.30069 0
M  V30 52 H 5.4463 3.98937 -0.680554 0
M  V30 53 H 4.0163 3.12538 -0.0624074 0
M  V30 54 H 3.2363 3.01001 -2.54543 0
M  V30 55 H 4.5243 4.17047 -2.9146 0
M  V30 56 H 3.9223 5.65609 -0.101624 0
M  V30 57 H 2.4793 6.4987 -0.501165 0
M  V30 58 N 5.9124 1.20967 1.01018 0
M  V30 59 C 6.8424 0.988272 2.11555 0
M  V30 60 C 7.8234 -0.0849778 1.69888 0
M  V30 61 O 9.0084 0.0738202 1.9406 0
M  V30 62 C 6.1384 0.546528 3.42973 0
M  V30 63 C 5.0924 1.56375 3.9841 0
M  V30 64 C 4.4184 0.97842 5.25672 0
M  V30 65 C 5.7184 2.94922 4.31066 0
M  V30 66 H 7.4124 1.91276 2.30334 0
M  V30 67 H 4.9584 0.921073 1.1069 0
M  V30 68 H 6.9114 0.378839 4.19694 0
M  V30 69 H 5.6354 -0.413598 3.23971 0
M  V30 70 H 4.2944 1.71891 3.23804 0
M  V30 71 H 3.9424 0.0101688 5.02999 0
M  V30 72 H 3.6424 1.65784 5.63728 0
M  V30 73 H 5.1664 0.821939 6.05043 0
M  V30 74 H 6.5804 2.8288 4.9865 0
M  V30 75 H 4.9774 3.5983 4.80253 0
M  V30 76 H 6.0474 3.4616 3.39561 0
M  V30 77 N 7.3905 -1.2043 1.01659 0
M  V30 78 C 8.6185 -1.93777 0.725132 0
M  V30 79 C 9.0335 -1.74772 -0.714166 0
M  V30 80 O 8.3905 -1.06169 -1.4844 0
M  V30 81 C 8.4415 -3.45876 1.05129 0
M  V30 82 O 8.1625 -3.6426 2.43406 0
M  V30 83 C 9.6635 -4.36368 0.780891 0
M  V30 84 H 6.8835 -0.615901 0.266284 0
M  V30 85 H 9.4275 -1.52922 1.35776 0
M  V30 86 H 7.5825 -3.8461 0.464065 0
M  V30 87 H 7.9965 -4.58246 2.55169 0
M  V30 88 H 9.4705 -5.41743 1.05918 0
M  V30 89 H 9.9475 -4.38275 -0.284937 0
M  V30 90 H 10.5535 -4.03296 1.35027 0
M  V30 91 N 8.8686 -0.792821 -1.36206 0
M  V30 92 C 9.7786 -0.194808 -2.3379 0
M  V30 93 C 10.7946 0.654869 -1.61206 0
M  V30 94 O 11.9706 0.569856 -1.9317 0
M  V30 95 C 9.0356 0.657721 -3.40404 0
M  V30 96 C 8.0966 -0.210849 -4.28782 0
M  V30 97 C 7.3296 0.601086 -5.30304 0
M  V30 98 O 7.5526 1.83682 -5.40016 0
M  V30 99 O 6.4866 -0.000808277 -6.019 0
M  V30 100 H 10.3126 -1.00172 -2.86704 0
M  V30 101 H 7.8976 -0.554341 -1.38735 0
M  V30 102 H 9.7796 1.14375 -4.05581 0
M  V30 103 H 8.4546 1.44247 -2.89784 0
M  V30 104 H 7.3616 -0.743714 -3.66633 0
M  V30 105 H 8.6946 -0.959195 -4.82763 0
M  V30 106 N 10.3467 1.47872 -0.545128 0
M  V30 107 C 11.2567 2.33633 0.212746 0
M  V30 108 C 12.2727 1.4744 0.923983 0
M  V30 109 O 13.4487 1.80393 0.895572 0
M  V30 110 C 10.5137 3.23884 1.23693 0
M  V30 111 C 9.5747 4.25961 0.534417 0
M  V30 112 C 8.8077 5.11899 1.5098 0
M  V30 113 O 9.0307 5.00077 2.7437 0
M  V30 114 O 7.9647 5.92831 1.0409 0
M  V30 115 H 11.7907 2.99714 -0.490416 0
M  V30 116 H 9.3757 1.46235 -0.305871 0
M  V30 117 H 11.2577 3.79666 1.82843 0
M  V30 118 H 9.9327 2.60446 1.92222 0
M  V30 119 H 8.8397 3.73972 -0.0979679 0
M  V30 120 H 10.1727 4.92079 -0.109213 0
M  V30 121 N 11.8248 0.280983 1.55075 0
M  V30 122 C 12.7568 -0.637268 2.20163 0
M  V30 123 C 13.7698 -1.11298 1.18813 0
M  V30 124 O 14.9588 -1.03388 1.4551 0
M  V30 125 C 12.0588 -1.88199 2.81841 0
M  V30 126 C 11.2318 -1.55211 4.08936 0
M  V30 127 C 10.2908 -2.64991 4.54606 0
M  V30 128 O 9.3168 -2.30929 5.2025 0
M  V30 129 N 10.5188 -3.95161 4.25238 0
M  V30 130 H 13.2838 -0.0801694 2.99593 0
M  V30 131 H 10.8448 0.102329 1.61576 0
M  V30 132 H 12.8368 -2.60948 3.09335 0
M  V30 133 H 11.4068 -2.34799 2.06369 0
M  V30 134 H 10.6268 -0.658185 3.88666 0
M  V30 135 H 11.9148 -1.30681 4.91732 0
M  V30 136 H 11.3128 -4.25653 3.72607 0
M  V30 137 H 9.8698 -4.6427 4.5749 0
M  V30 138 N 13.3029 -1.57598 0.00835791 0
M  V30 139 C 14.5519 -1.90107 -0.673968 0
M  V30 140 C 14.8649 -0.884275 -1.7447 0
M  V30 141 O 16.0709 -1.09987 -2.48224 0
M  V30 142 C 14.5269 -3.37497 -1.24995 0
M  V30 143 C 14.1349 -4.47491 -0.2136 0
M  V30 144 C 15.8789 -3.79104 -1.90999 0
M  V30 145 C 13.7859 -5.85963 -0.80005 0
M  V30 146 H 12.7159 -0.709393 -0.255495 0
M  V30 147 H 15.3669 -1.83365 0.0702693 0
M  V30 148 H 13.7489 -3.39102 -2.04513 0
M  V30 149 H 14.9229 -4.57414 0.557596 0
M  V30 150 H 13.2379 -4.14956 0.346474 0
M  V30 151 H 15.8349 -4.79901 -2.35795 0
M  V30 152 H 16.1779 -3.1306 -2.74407 0
M  V30 153 H 16.7109 -3.79833 -1.18203 0
M  V30 154 H 13.4499 -6.555 -0.00456708 0
M  V30 155 H 12.9699 -5.79687 -1.54021 0
M  V30 156 H 14.6489 -6.33884 -1.29615 0
M  V30 157 N 14.781 0.264519 -1.55364 0
M  V30 158 C 15.744 1.31046 -1.88042 0
M  V30 159 C 16.744 1.41943 -0.755569 0
M  V30 160 O 17.934 1.40947 -1.02369 0
M  V30 161 C 15.066 2.69067 -2.09323 0
M  V30 162 H 16.259 1.03297 -2.81549 0
M  V30 163 H 13.812 0.502989 -1.47986 0
M  V30 164 H 14.547 3.01982 -1.18226 0
M  V30 165 H 14.332 2.62542 -2.91229 0
M  V30 166 H 15.822 3.44623 -2.35848 0
M  V30 167 N 16.2591 1.48442 0.529413 0
M  V30 168 C 17.1691 1.6569 1.66084 0
M  V30 169 C 18.1851 0.539432 1.65427 0
M  V30 170 O 19.3611 0.810572 1.84368 0
M  V30 171 C 16.4261 1.69315 3.02545 0
M  V30 172 C 15.4871 2.92694 3.14052 0
M  V30 173 C 14.7201 2.96137 4.44003 0
M  V30 174 O 14.9431 2.07973 5.31134 0
M  V30 175 O 13.8771 3.88312 4.59888 0
M  V30 176 H 17.7031 2.61483 1.54469 0
M  V30 177 H 15.2881 1.3185 0.702567 0
M  V30 178 H 17.1701 1.74217 3.83701 0
M  V30 179 H 15.8451 0.766966 3.14483 0
M  V30 180 H 14.7521 2.93324 2.32189 0
M  V30 181 H 16.0851 3.84699 3.0703 0
M  V30 182 N 17.7372 -0.778329 1.37039 0
M  V30 183 C 18.9842 -1.53665 1.31884 0
M  V30 184 C 19.3122 -1.9425 -0.0986303 0
M  V30 185 O 18.5672 -1.63832 -1.07041 0
M  V30 186 C 18.8662 -2.81845 2.19768 0
M  V30 187 C 18.5322 -2.60345 3.68146 0
M  V30 188 C 17.1942 -2.5419 4.08584 0
M  V30 189 C 19.5462 -2.40923 4.62175 0
M  V30 190 C 16.8742 -2.26594 5.41177 0
M  V30 191 C 19.2262 -2.14852 5.94997 0
M  V30 192 C 17.8902 -2.07137 6.34547 0
M  V30 193 H 17.1602 -0.562299 0.482598 0
M  V30 194 H 19.8072 -0.897069 1.69189 0
M  V30 195 H 18.1122 -3.50328 1.75436 0
M  V30 196 H 19.8092 -3.39692 2.13097 0
M  V30 197 H 16.3992 -2.65996 3.36072 0
M  V30 198 H 20.5832 -2.44673 4.31797 0
M  V30 199 H 15.8392 -2.19111 5.70789 0
M  V30 200 H 20.0132 -1.98822 6.67415 0
M  V30 201 H 17.6402 -1.85518 7.37216 0
M  V30 202 N 19.2153 -1.21501 -1.00376 0
M  V30 203 C 20.1623 -0.975387 -2.09177 0
M  V30 204 C 21.1323 0.0990615 -1.65804 0
M  V30 205 O 22.3173 -0.0483147 -1.90739 0
M  V30 206 C 19.4573 -0.547507 -3.40729 0
M  V30 207 C 18.5703 -1.69153 -3.97506 0
M  V30 208 C 17.7053 -1.2127 -5.17172 0
M  V30 209 C 16.7443 -2.32897 -5.66061 0
M  V30 210 N 15.8813 -1.86138 -6.76976 0
M  V30 211 H 20.7213 -1.9068 -2.29009 0
M  V30 212 H 18.2583 -0.950257 -1.12288 0
M  V30 213 H 20.2163 -0.280667 -4.16255 0
M  V30 214 H 18.8463 0.346904 -3.20931 0
M  V30 215 H 17.8983 -2.07298 -3.18954 0
M  V30 216 H 19.2103 -2.5316 -4.29781 0
M  V30 217 H 18.3643 -0.902591 -5.99948 0
M  V30 218 H 17.1033 -0.342692 -4.86495 0
M  V30 219 H 16.1083 -2.64709 -4.81881 0
M  V30 220 H 17.3333 -3.20396 -5.98768 0
M  V30 221 H 15.2793 -1.01484 -6.48103 0
M  V30 222 H 15.1963 -2.63717 -7.08512 0
M  V30 223 H 16.4643 -1.58165 -7.63285 0
M  V30 224 N 20.6934 1.19889 -1.02296 0
M  V30 225 C 21.6034 2.26571 -0.608508 0
M  V30 226 C 22.6194 1.70299 0.356964 0
M  V30 227 O 23.7954 2.00235 0.216326 0
M  V30 228 C 20.8604 3.46677 0.0402814 0
M  V30 229 C 19.9214 4.18153 -0.97194 0
M  V30 230 C 19.1544 5.32525 -0.354016 0
M  V30 231 O 19.3774 5.64112 0.844604 0
M  V30 232 O 18.3114 5.92242 -1.07391 0
M  V30 233 H 22.1374 2.64251 -1.49684 0
M  V30 234 H 19.7224 1.26629 -0.792809 0
M  V30 235 H 21.6044 4.19475 0.402324 0
M  V30 236 H 20.2794 3.10858 0.902707 0
M  V30 237 H 19.1864 3.47499 -1.38546 0
M  V30 238 H 20.5194 4.57927 -1.80454 0
M  V30 239 N 22.1715 0.800033 1.35784 0
M  V30 240 C 23.1345 0.211565 2.28221 0
M  V30 241 C 24.1345 -0.59728 1.49296 0
M  V30 242 O 25.3245 -0.416721 1.69142 0
M  V30 243 C 22.4565 -0.705846 3.33513 0
M  V30 244 H 23.6495 1.02677 2.81776 0
M  V30 245 H 21.2025 0.570211 1.45528 0
M  V30 246 H 21.9375 -1.54498 2.85133 0
M  V30 247 H 21.7225 -0.127655 3.91892 0
M  V30 248 H 23.2125 -1.11211 4.02519 0
M  V30 249 N 23.6496 -1.47581 0.552962 0
M  V30 250 C 24.8966 -2.02482 0.0273243 0
M  V30 251 C 25.2246 -1.42776 -1.32081 0
M  V30 252 O 24.4796 -0.571393 -1.87173 0
M  V30 253 C 24.7786 -3.57199 -0.119728 0
M  V30 254 C 24.4446 -4.35804 1.15697 0
M  V30 255 C 23.1066 -4.57 1.50681 0
M  V30 256 C 25.4586 -4.81167 2.00319 0
M  V30 257 C 22.7866 -5.20807 2.70142 0
M  V30 258 C 25.1386 -5.46293 3.18978 0
M  V30 259 C 23.8026 -5.65722 3.54281 0
M  V30 260 H 23.0726 -0.740933 0.00999866 0
M  V30 261 H 25.7196 -1.77302 0.72362 0
M  V30 262 H 24.0246 -3.81348 -0.89896 0
M  V30 263 H 25.7216 -3.97324 -0.541718 0
M  V30 264 H 22.3116 -4.19582 0.874561 0
M  V30 265 H 26.4956 -4.64574 1.74599 0
M  V30 266 H 21.7516 -5.34045 2.97668 0
M  V30 267 H 25.9256 -5.80407 3.84838 0
M  V30 268 H 23.5526 -6.14936 4.46942 0
M  V30 269 N 25.1277 -0.289203 -1.54924 0
M  V30 270 C 26.3527 0.329299 -2.04769 0
M  V30 271 C 26.7777 1.4763 -1.16564 0
M  V30 272 O 26.1357 1.80527 -0.167186 0
M  V30 273 C 26.1837 0.774438 -3.52186 0
M  V30 274 O 25.2877 1.88038 -3.67036 0
M  V30 275 H 24.6287 0.0659259 -0.660719 0
M  V30 276 H 27.1587 -0.42761 -2.00082 0
M  V30 277 H 27.1687 1.06642 -3.93816 0
M  V30 278 H 25.8437 -0.0646707 -4.1585 0
M  V30 279 H 24.4207 1.58985 -3.3731 0
M  V30 280 N 26.6058 1.57591 -0.0167156 0
M  V30 281 C 27.5358 2.12496 0.967858 0
M  V30 282 C 28.5168 1.03807 1.34752 0
M  V30 283 O 29.7018 1.31577 1.42833 0
M  V30 284 C 26.8318 2.64194 2.25431 0
M  V30 285 C 25.7858 3.77559 2.01576 0
M  V30 286 C 25.1118 4.15636 3.36379 0
M  V30 287 C 26.4118 5.04151 1.36489 0
M  V30 288 H 28.1058 2.95013 0.510643 0
M  V30 289 H 25.6518 1.41915 0.244181 0
M  V30 290 H 27.6048 3.01236 2.94678 0
M  V30 291 H 26.3288 1.78821 2.73296 0
M  V30 292 H 24.9878 3.40937 1.34751 0
M  V30 293 H 24.6358 3.27263 3.81979 0
M  V30 294 H 24.3358 4.92022 3.21229 0
M  V30 295 H 25.8598 4.5525 4.06915 0
M  V30 296 H 27.2738 5.38857 1.95718 0
M  V30 297 H 25.6708 5.85453 1.31776 0
M  V30 298 H 26.7408 4.83733 0.336219 0
M  V30 299 N 28.0839 -0.256276 1.55502 0
M  V30 300 C 29.3309 -0.985619 1.76895 0
M  V30 301 C 29.6589 -1.85671 0.579355 0
M  V30 302 O 28.9139 -1.90744 -0.437651 0
M  V30 303 C 29.2129 -1.88432 3.03691 0
M  V30 304 C 28.8789 -1.16936 4.35473 0
M  V30 305 C 27.5409 -0.97173 4.71286 0
M  V30 306 C 29.8929 -0.661889 5.1698 0
M  V30 307 C 27.2209 -0.254179 5.86149 0
M  V30 308 C 29.5729 0.042149 6.32586 0
M  V30 309 C 28.2369 0.25134 6.67027 0
M  V30 310 H 27.5069 -0.360663 0.647304 0
M  V30 311 H 30.1539 -0.256483 1.89775 0
M  V30 312 H 28.4589 -2.68021 2.85783 0
M  V30 313 H 30.1559 -2.45015 3.1744 0
M  V30 314 H 26.7459 -1.33332 4.07333 0
M  V30 315 H 30.9299 -0.802145 4.89775 0
M  V30 316 H 26.1859 -0.0815408 6.11346 0
M  V30 317 H 30.3599 0.443049 6.94989 0
M  V30 318 H 27.9869 0.809314 7.5588 0
M  V30 319 N 29.562 -1.4872 -0.521534 0
M  V30 320 C 30.839 -1.4766 -1.2828 0
M  V30 321 C 31.219 -0.19292 -2.10217 0
M  V30 322 O 30.567 0.825193 -2.13079 0
M  V30 323 C 30.777 -2.74358 -2.15705 0
M  V30 324 C 32.125 -3.23028 -2.75569 0
M  V30 325 O 33.149 -2.75333 -2.25987 0
M  V30 326 O 32.008 -4.0604 -3.65778 0
M  V30 327 H 29.102 -0.590085 -0.579421 0
M  V30 328 H 31.648 -1.60963 -0.537492 0
M  V30 329 H 30.42 -3.59292 -1.54999 0
M  V30 330 H 30.043 -2.63816 -2.97467 0
M  V30 331 N 31.0401 0.771051 -1.3745 0
M  V30 332 C 31.9871 1.88435 -1.3327 0
M  V30 333 C 32.9571 1.64914 -0.198136 0
M  V30 334 O 34.1421 1.86821 -0.387606 0
M  V30 335 C 31.2821 3.25509 -1.14622 0
M  V30 336 C 30.3951 3.60979 -2.37314 0
M  V30 337 C 29.5301 4.87265 -2.11533 0
M  V30 338 C 28.5691 5.15469 -3.30088 0
M  V30 339 N 27.7061 6.32944 -3.03853 0
M  V30 340 H 32.5461 1.91344 -2.28455 0
M  V30 341 H 30.0831 0.935466 -1.13523 0
M  V30 342 H 32.0411 4.04582 -1.01831 0
M  V30 343 H 30.6711 3.21974 -0.230837 0
M  V30 344 H 29.7231 2.76885 -2.60842 0
M  V30 345 H 31.0351 3.77759 -3.25729 0
M  V30 346 H 30.1891 5.74244 -1.95777 0
M  V30 347 H 28.9281 4.7259 -1.20457 0
M  V30 348 H 27.9331 4.26966 -3.46382 0
M  V30 349 H 29.1581 5.32052 -4.22016 0
M  V30 350 H 27.1041 6.19625 -2.15407 0
M  V30 351 H 27.0211 6.50143 -3.85812 0
M  V30 352 H 28.2891 7.22857 -2.91716 0
M  V30 353 N 32.5182 1.22032 0.997298 0
M  V30 354 C 33.7952 0.950823 1.70935 0
M  V30 355 C 34.1752 -0.535292 2.042 0
M  V30 356 O 33.5232 -1.50217 1.72183 0
M  V30 357 C 33.7332 1.84386 2.96315 0
M  V30 358 C 35.0812 2.09732 3.69185 0
M  V30 359 O 36.1052 1.81798 3.06314 0
M  V30 360 O 34.9642 2.57018 4.82291 0
M  V30 361 H 32.0582 0.357204 0.745878 0
M  V30 362 H 34.6042 1.32997 1.05404 0
M  V30 363 H 33.3762 2.84928 2.68201 0
M  V30 364 H 32.9992 1.46602 3.69586 0
M  V30 365 N 33.9963 -1.19345 1.0293 0
M  V30 366 C 35.2443 -1.88665 0.724574 0
M  V30 367 C 35.5653 -1.80036 -0.749144 0
M  V30 368 O 34.8353 -1.2111 -1.53978 0
M  V30 369 H 33.4153 -0.698406 0.265025 0
M  V30 370 H 36.0773 -1.44885 1.30362 0
M  V30 371 H 35.1733 -2.94987 1.01926 0
M  V30 372 N 35.4744 -0.807222 -1.35358 0
M  V30 373 C 36.7514 -0.311126 -1.9311 0
M  V30 374 C 37.1314 1.19937 -1.73719 0
M  V30 375 O 36.4794 1.99918 -1.10657 0
M  V30 376 C 36.6894 -0.723226 -3.41424 0
M  V30 377 C 38.0374 -0.713078 -4.18569 0
M  V30 378 O 39.0614 -0.664811 -3.49941 0
M  V30 379 O 37.9204 -0.772022 -5.41019 0
M  V30 380 H 35.0144 -0.081526 -0.822972 0
M  V30 381 H 37.5604 -0.890962 -1.4443 0
M  V30 382 H 36.3324 -1.76426 -3.4927 0
M  V30 383 H 35.9554 -0.118232 -3.97424 0
M  V30 384 N 36.9525 1.47285 -0.560781 0
M  V30 385 C 38.2005 2.02064 -0.0379868 0
M  V30 386 C 38.5215 1.43711 1.31803 0
M  V30 387 O 37.7915 0.61362 1.86042 0
M  V30 388 H 36.3715 0.746918 -0.0110531 0
M  V30 389 H 39.0335 1.80648 -0.731598 0
M  V30 390 H 38.1295 3.12064 0.0474463 0
M  V30 391 N 38.4306 0.297415 1.54768 0
M  V30 392 C 39.6586 -0.315623 2.04478 0
M  V30 393 C 40.0736 -1.47792 1.17486 0
M  V30 394 O 39.4306 -1.81404 0.19971 0
M  V30 395 C 39.4816 -0.7753 3.53088 0
M  V30 396 O 39.2026 0.340732 4.36773 0
M  V30 397 C 40.7036 -1.45386 4.18781 0
M  V30 398 H 37.9236 -0.0690887 0.667434 0
M  V30 399 H 40.4676 0.436003 1.99798 0
M  V30 400 H 38.6226 -1.47696 3.58141 0
M  V30 401 H 39.0366 -0.0165035 5.24497 0
M  V30 402 H 40.5106 -1.72669 5.24299 0
M  V30 403 H 40.9876 -2.39275 3.68299 0
M  V30 404 H 41.5936 -0.795475 4.17795 0
M  V30 405 N 39.9087 -1.5758 0.0250728 0
M  V30 406 C 41.1577 -1.90811 -0.653767 0
M  V30 407 C 41.4707 -0.90273 -1.73523 0
M  V30 408 O 42.6767 -1.12614 -2.47043 0
M  V30 409 C 41.1327 -3.38804 -1.21409 0
M  V30 410 C 40.7407 -4.47692 -0.166126 0
M  V30 411 C 42.4847 -3.81108 -1.86967 0
M  V30 412 C 40.3917 -5.86779 -0.737856 0
M  V30 413 H 39.3217 -0.712063 -0.247956 0
M  V30 414 H 41.9727 -1.83281 0.0897137 0
M  V30 415 H 40.3547 -3.41252 -2.00905 0
M  V30 416 H 41.5287 -4.56797 0.606079 0
M  V30 417 H 39.8437 -4.14565 0.390466 0
M  V30 418 H 42.4407 -4.82375 -2.30692 0
M  V30 419 H 42.7837 -3.15953 -2.71071 0
M  V30 420 H 43.3167 -3.81065 -1.14167 0
M  V30 421 H 40.0557 -6.55468 0.0649577 0
M  V30 422 H 39.5757 -5.81288 -1.47864 0
M  V30 423 H 41.2547 -6.35223 -1.22884 0
M  V30 424 N 41.3868 0.248026 -1.55636 0
M  V30 425 C 42.6148 0.993808 -1.81469 0
M  V30 426 C 43.0298 1.78991 -0.60064 0
M  V30 427 O 42.3868 1.77345 0.430682 0
M  V30 428 C 42.4378 1.93258 -3.05506 0
M  V30 429 O 42.1588 1.16869 -4.22224 0
M  V30 430 C 43.6598 2.79444 -3.4413 0
M  V30 431 H 40.8798 0.292486 -0.603898 0
M  V30 432 H 43.4238 0.271253 -2.02693 0
M  V30 433 H 41.5788 2.60943 -2.86335 0
M  V30 434 H 41.9928 1.80359 -4.92515 0
M  V30 435 H 43.4668 3.41066 -4.34026 0
M  V30 436 H 43.9438 3.50499 -2.64665 0
M  V30 437 H 44.5498 2.17214 -3.65648 0
M  V30 438 N 42.8649 1.48995 0.513639 0
M  V30 439 C 44.0929 1.61531 1.29288 0
M  V30 440 C 44.5079 0.281801 1.86685 0
M  V30 441 O 43.8649 -0.731111 1.67215 0
M  V30 442 C 43.9159 2.67449 2.43215 0
M  V30 443 O 43.6369 3.95626 1.88179 0
M  V30 444 C 45.1379 2.90575 3.34785 0
M  V30 445 H 42.3579 0.544165 0.392588 0
M  V30 446 H 44.9019 1.9494 0.617956 0
M  V30 447 H 43.0569 2.36853 3.0656 0
M  V30 448 H 43.4709 4.53868 2.62876 0
M  V30 449 H 44.9449 3.68449 4.11035 0
M  V30 450 H 45.4219 2.00011 3.91015 0
M  V30 451 H 46.0279 3.22538 2.77218 0
M  V30 452 N 44.343 -0.763751 1.37857 0
M  V30 453 C 45.29 -1.87726 1.34267 0
M  V30 454 C 46.26 -1.64807 0.206879 0
M  V30 455 O 47.445 -1.86613 0.397508 0
M  V30 456 C 44.585 -3.24896 1.16346 0
M  V30 457 C 43.698 -3.59716 2.39225 0
M  V30 458 C 42.833 -4.86137 2.14114 0
M  V30 459 C 41.872 -5.13711 3.32817 0
M  V30 460 N 41.009 -6.31323 3.07206 0
M  V30 461 H 45.849 -1.90129 2.29466 0
M  V30 462 H 43.386 -0.929433 1.14017 0
M  V30 463 H 45.344 -4.04036 1.03975 0
M  V30 464 H 43.974 -3.21847 0.247909 0
M  V30 465 H 43.026 -2.75498 2.62307 0
M  V30 466 H 44.338 -3.76027 3.27728 0
M  V30 467 H 43.492 -5.73198 1.9882 0
M  V30 468 H 42.231 -4.71945 1.22961 0
M  V30 469 H 41.236 -4.25123 3.48641 0
M  V30 470 H 42.461 -5.29807 4.24832 0
M  V30 471 H 40.407 -6.18474 2.1869 0
M  V30 472 H 40.324 -6.48087 3.89254 0
M  V30 473 H 41.592 -7.213 2.95546 0
M  V30 474 N 45.8211 -1.22559 -0.990812 0
M  V30 475 C 46.7311 -1.01394 -2.11557 0
M  V30 476 C 47.7471 0.0383962 -1.73958 0
M  V30 477 O 48.9231 -0.154787 -2.00804 0
M  V30 478 C 45.9881 -0.596569 -3.41529 0
M  V30 479 C 45.0491 -1.72276 -3.93217 0
M  V30 480 C 44.2821 -1.32521 -5.16985 0
M  V30 481 O 44.5051 -0.204909 -5.70032 0
M  V30 482 O 43.4391 -2.14247 -5.62478 0
M  V30 483 H 47.2651 -1.95633 -2.32296 0
M  V30 484 H 44.8501 -1.01172 -1.0993 0
M  V30 485 H 46.7321 -0.374263 -4.19735 0
M  V30 486 H 45.4071 0.316939 -3.22145 0
M  V30 487 H 44.3141 -1.99961 -3.16174 0
M  V30 488 H 45.6471 -2.61421 -4.17037 0
M  V30 489 N 47.2992 1.18797 -1.03562 0
M  V30 490 C 48.2292 2.24472 -0.643019 0
M  V30 491 C 49.2102 1.66433 0.351283 0
M  V30 492 O 50.3952 1.92803 0.232505 0
M  V30 493 C 47.5252 3.473 4.24935e-05 0
M  V30 494 C 46.4792 4.18055 -0.917257 0
M  V30 495 C 45.8052 5.34519 -0.138941 0
M  V30 496 C 47.1052 4.72109 -2.23407 0
M  V30 497 H 48.7992 2.57566 -1.52643 0
M  V30 498 H 46.3452 1.23806 -0.735394 0
M  V30 499 H 48.2982 4.20426 0.286383 0
M  V30 500 H 47.0222 3.13424 0.918299 0
M  V30 501 H 45.6812 3.46821 -1.1879 0
M  V30 502 H 45.3292 4.96891 0.781562 0
M  V30 503 H 45.0292 5.82794 -0.750005 0
M  V30 504 H 46.5532 6.10438 0.1405 0
M  V30 505 H 47.9672 5.36955 -2.00879 0
M  V30 506 H 46.3642 5.30897 -2.79765 0
M  V30 507 H 47.4342 3.89807 -2.88407 0
M  V30 508 N 48.7773 0.814389 1.34928 0
M  V30 509 C 50.0253 0.397636 1.9815 0
M  V30 510 C 50.3463 -1.04069 1.64908 0
M  V30 511 O 49.6163 -1.72121 0.93548 0
M  V30 512 H 48.1963 0.144043 0.732981 0
M  V30 513 H 50.8583 1.04195 1.6471 0
M  V30 514 H 49.9543 0.509688 3.0791 0
M  V30 515 N 50.2554 -1.46986 0.568584 0
M  V30 516 C 51.4834 -2.0683 0.0539956 0
M  V30 517 C 51.8984 -1.41953 -1.24478 0
M  V30 518 O 51.2554 -0.519933 -1.74937 0
M  V30 519 C 51.3064 -3.61254 -0.133362 0
M  V30 520 O 51.0274 -4.237 1.11399 0
M  V30 521 C 52.5284 -4.37992 -0.683927 0
M  V30 522 H 49.7484 -0.669058 0.0510141 0
M  V30 523 H 52.2924 -1.88824 0.785234 0
M  V30 524 H 50.4474 -3.78735 -0.81477 0
M  V30 525 H 50.8614 -5.16388 0.91888 0
M  V30 526 H 52.3354 -5.46684 -0.764263 0
M  V30 527 H 52.8124 -4.05058 -1.69778 0
M  V30 528 H 53.4184 -4.25283 -0.0378494 0
M  V30 529 N 51.7335 -0.305618 -1.54608 0
M  V30 530 C 52.9795 0.302746 -2.00528 0
M  V30 531 C 53.3125 1.53184 -1.19367 0
M  V30 532 O 52.5875 1.92598 -0.271321 0
M  V30 533 C 52.8705 0.654756 -3.54097 0
M  V30 534 C 52.7235 -0.583793 -4.45995 0
M  V30 535 C 54.0425 1.47947 -4.14487 0
M  V30 536 H 51.1615 0.108564 -0.72896 0
M  V30 537 H 53.8035 -0.418634 -1.85331 0
M  V30 538 H 51.9535 1.26935 -3.67178 0
M  V30 539 H 53.6255 -1.22224 -4.44814 0
M  V30 540 H 51.8685 -1.21615 -4.16404 0
M  V30 541 H 52.5395 -0.293287 -5.5122 0
M  V30 542 H 55.0155 0.96013 -4.04871 0
M  V30 543 H 53.8915 1.69454 -5.22088 0
M  V30 544 H 54.1525 2.47011 -3.66658 0
M  V30 545 N 53.2116 1.57565 -0.0334293 0
M  V30 546 C 54.1446 2.05997 0.981866 0
M  V30 547 C 55.1226 0.956647 1.3148 0
M  V30 548 O 56.3066 1.22729 1.43073 0
M  V30 549 C 53.4336 2.48564 2.30074 0
M  V30 550 C 52.4796 3.69958 2.12211 0
M  V30 551 S 53.3126 5.16414 1.41692 0
M  V30 552 C 54.4686 5.6228 2.7494 0
M  V30 553 H 54.7016 2.91792 0.569612 0
M  V30 554 H 52.2346 1.53366 0.178376 0
M  V30 555 H 54.1926 2.73753 3.05892 0
M  V30 556 H 52.8536 1.63106 2.68431 0
M  V30 557 H 52.0466 3.97603 3.09722 0
M  V30 558 H 51.6486 3.44943 1.44535 0
M  V30 559 H 53.9406 5.66783 3.71165 0
M  V30 560 H 54.8836 6.61759 2.51953 0
M  V30 561 H 55.2916 4.89944 2.80384 0
M  V30 562 N 54.6897 -0.239769 1.55765 0
M  V30 563 C 56.1057 -0.588624 1.48349 0
M  V30 564 C 56.3057 -1.88005 0.72502 0
M  V30 565 O 55.3617 -2.51186 0.257269 0
M  V30 566 C 56.6747 -0.68474 2.928 0
M  V30 567 C 58.2227 -0.77659 3.03213 0
M  V30 568 C 58.6977 -0.904207 4.48986 0
M  V30 569 N 60.1887 -0.968896 4.52953 0
M  V30 570 C 60.9237 -1.08703 5.63002 0
M  V30 571 N 60.4197 -1.17026 6.82845 0
M  V30 572 N 62.2127 -1.12074 5.50814 0
M  V30 573 H 54.3637 0.607911 2.03515 0
M  V30 574 H 56.6267 0.21083 0.924259 0
M  V30 575 H 56.3327 0.194284 3.51163 0
M  V30 576 H 56.2067 -1.55435 3.43686 0
M  V30 577 H 58.5937 -1.64606 2.44926 0
M  V30 578 H 58.6747 0.118315 2.55526 0
M  V30 579 H 58.3187 -0.0392633 5.07885 0
M  V30 580 H 58.2487 -1.81426 4.9436 0
M  V30 581 H 60.7397 -0.915633 3.6664 0
M  V30 582 H 61.0527 -1.25966 7.62465 0
M  V30 583 H 59.3977 -1.13971 6.85591 0
M  V30 584 H 62.5887 -1.05226 4.5612 0
M  V30 585 H 62.7617 -1.20936 6.36615 0
M  V30 586 N 56.1678 -1.49265 -0.50573 0
M  V30 587 C 57.3928 -1.62478 -1.28902 0
M  V30 588 C 57.8178 -0.294332 -1.85783 0
M  V30 589 O 57.1758 0.737412 -1.65626 0
M  V30 590 C 57.2238 -2.69268 -2.39848 0
M  V30 591 O 56.3278 -2.28113 -3.43567 0
M  V30 592 H 55.6688 -0.54399 -0.380751 0
M  V30 593 H 58.1988 -1.95421 -0.605952 0
M  V30 594 H 58.2088 -2.91291 -2.85681 0
M  V30 595 H 56.8838 -3.65846 -1.97812 0
M  V30 596 H 55.4608 -2.16401 -3.03685 0
M  V30 597 N 57.6459 0.756429 -1.3826 0
M  V30 598 C 58.5759 1.88374 -1.37976 0
M  V30 599 C 59.5569 1.68311 -0.246082 0
M  V30 600 O 60.7419 1.88944 -0.44874 0
M  V30 601 C 57.8719 3.25864 -1.20125 0
M  V30 602 C 56.8259 3.60523 -2.30666 0
M  V30 603 C 56.1519 4.9672 -1.97923 0
M  V30 604 C 57.4519 3.65692 -3.72916 0
M  V30 605 H 59.1459 1.88869 -2.32312 0
M  V30 606 H 56.6919 0.907272 -1.11824 0
M  V30 607 H 58.6449 4.0438 -1.18552 0
M  V30 608 H 57.3689 3.25841 -0.222498 0
M  V30 609 H 56.0279 2.84324 -2.3142 0
M  V30 610 H 55.6759 4.93253 -0.985393 0
M  V30 611 H 55.3759 5.20878 -2.71955 0
M  V30 612 H 56.8999 5.77618 -1.97964 0
M  V30 613 H 58.3139 4.34328 -3.74208 0
M  V30 614 H 56.7109 4.01358 -4.4613 0
M  V30 615 H 57.7809 2.65987 -4.05436 0
M  V30 616 N 59.124 1.23083 0.984299 0
M  V30 617 C 60.372 1.05848 1.72165 0
M  V30 618 C 60.693 -0.406049 1.90726 0
M  V30 619 O 59.963 -1.29139 1.47309 0
M  V30 620 H 58.543 0.388685 0.637913 0
M  V30 621 H 61.205 1.54736 1.18503 0
M  V30 622 H 60.301 1.54327 2.71274 0
M  V30 623 N 60.6021 -1.18246 1.0419 0
M  V30 624 C 61.5341 -2.2142 0.592088 0
M  V30 625 C 62.5471 -1.59233 -0.338909 0
M  V30 626 O 63.7361 -1.78002 -0.133231 0
M  V30 627 C 60.8361 -3.38546 -0.154854 0
M  V30 628 C 60.0091 -4.3031 0.784328 0
M  V30 629 C 59.0681 -5.26138 0.0804583 0
M  V30 630 O 58.0941 -5.64738 0.711292 0
M  V30 631 N 59.2961 -5.68261 -1.18574 0
M  V30 632 H 62.0611 -2.60636 1.47949 0
M  V30 633 H 59.6221 -1.33044 0.922544 0
M  V30 634 H 61.6141 -3.99678 -0.635606 0
M  V30 635 H 60.1841 -2.98012 -0.943811 0
M  V30 636 H 59.4041 -3.66764 1.44491 0
M  V30 637 H 60.6921 -4.8852 1.42218 0
M  V30 638 H 60.0901 -5.38957 -1.71876 0
M  V30 639 H 58.6471 -6.31584 -1.61074 0
M  V30 640 N 62.0802 -0.821533 -1.34494 0
M  V30 641 C 63.0282 -0.230702 -2.31453 0
M  V30 642 C 64.0222 0.627793 -1.57338 0
M  V30 643 O 65.2282 0.519288 -1.72347 0
M  V30 644 H 61.6032 -0.0558577 -0.749923 0
M  V30 645 H 63.5742 -1.06332 -2.78812 0
M  V30 646 C 62.3232 0.59391 -3.4259 0
M  V30 647 H 61.6462 -0.0573588 -3.99759 0
M  V30 648 H 63.0862 0.973446 -4.12674 0
M  V30 649 C 61.5452 1.76568 -2.86924 0
M  V30 650 O 62.0752 2.8638 -2.81691 0
M  V30 651 N 60.2812 1.58198 -2.43766 0
M  V30 652 H 59.8282 0.68872 -2.48222 0
M  V30 653 H 59.7862 2.36752 -2.06871 0
M  V30 654 N 63.5583 1.46682 -0.576371 0
M  V30 655 C 64.9693 1.86112 -0.148091 0
M  V30 656 C 65.3203 1.48073 1.2872 0
M  V30 657 O 64.4453 0.892656 1.97131 0
M  V30 658 C 65.0403 3.37786 -0.261982 0
M  V30 659 C 63.5993 3.76235 0.111384 0
M  V30 660 C 62.7463 2.70713 -0.60083 0
M  V30 661 H 65.6973 1.37927 -0.78497 0
M  V30 662 H 65.7183 3.77007 0.514364 0
M  V30 663 H 65.2303 3.6544 -1.30671 0
M  V30 664 H 63.3313 3.54198 1.15649 0
M  V30 665 H 63.4443 4.78391 -0.26052 0
M  V30 666 H 61.8083 2.54666 -0.0417783 0
M  V30 667 H 62.5913 3.01208 -1.64708 0
M  V30 668 N 65.0364 0.313813 1.54444 0
M  V30 669 C 66.2644 -0.293918 2.04802 0
M  V30 670 C 66.6794 -1.46537 1.19047 0
M  V30 671 O 66.0364 -1.81182 0.218939 0
M  V30 672 C 66.0874 -0.737806 3.53891 0
M  V30 673 O 65.8084 0.387038 4.36387 0
M  V30 674 C 67.3094 -1.40936 4.203 0
M  V30 675 H 64.5294 -0.0620057 0.668129 0
M  V30 676 H 67.0734 0.457169 1.99324 0
M  V30 677 H 65.2284 -1.43889 3.59687 0
M  V30 678 H 65.6424 0.0391274 5.24485 0
M  V30 679 H 67.1164 -1.67099 5.26101 0
M  V30 680 H 67.5934 -2.35355 3.70816 0
M  V30 681 H 68.1994 -0.751117 4.18615 0
M  V30 682 N 66.5145 -1.57545 0.0417849 0
M  V30 683 C 67.4245 -2.14451 -0.951213 0
M  V30 684 C 68.4405 -1.09992 -1.34825 0
M  V30 685 O 69.6165 -1.42114 -1.42708 0
M  V30 686 C 66.6815 -2.67063 -2.21084 0
M  V30 687 C 65.7425 -3.86284 -1.87304 0
M  V30 688 C 64.9755 -4.36378 -3.07261 0
M  V30 689 O 65.1985 -3.85587 -4.20332 0
M  V30 690 O 64.1325 -5.28077 -2.88822 0
M  V30 691 H 67.9585 -2.99601 -0.497287 0
M  V30 692 H 65.5435 -1.48317 -0.179567 0
M  V30 693 H 67.4255 -3.00914 -2.95006 0
M  V30 694 H 66.1005 -1.84989 -2.65633 0
M  V30 695 H 65.0075 -3.57338 -1.10727 0
M  V30 696 H 66.3405 -4.6956 -1.47562 0
M  V30 697 N 67.9926 0.231505 -1.5589 0
M  V30 698 C 68.9556 1.27028 -1.90779 0
M  V30 699 C 69.9556 1.40308 -0.785507 0
M  V30 700 O 71.1456 1.38744 -1.05336 0
M  V30 701 C 68.2776 2.64566 -2.14983 0
M  V30 702 H 69.4706 0.973017 -2.83677 0
M  V30 703 H 67.0236 0.471486 -1.49019 0
M  V30 704 H 67.7586 2.99406 -1.24604 0
M  V30 705 H 67.5436 2.56305 -2.96732 0
M  V30 706 H 69.0336 3.39543 -2.43105 0
M  V30 707 N 69.4707 1.49531 0.497807 0
M  V30 708 C 70.3807 1.69176 1.62532 0
M  V30 709 C 71.3967 0.5744 1.64246 0
M  V30 710 O 72.5727 0.849497 1.82608 0
M  V30 711 C 69.6377 1.75695 2.98885 0
M  V30 712 C 68.6987 2.9929 3.07773 0
M  V30 713 C 67.9317 3.05488 4.37622 0
M  V30 714 O 68.1547 2.19192 5.26603 0
M  V30 715 O 67.0887 3.9798 4.51548 0
M  V30 716 H 70.9147 2.647 1.48887 0
M  V30 717 H 68.4997 1.3331 0.674441 0
M  V30 718 H 70.3817 1.82317 3.79919 0
M  V30 719 H 69.0567 0.8335 3.12785 0
M  V30 720 H 67.9637 2.98183 2.25915 0
M  V30 721 H 69.2967 3.91125 2.98801 0
M  V30 722 N 70.9488 -0.749086 1.3866 0
M  V30 723 C 71.8788 -1.8764 1.38973 0
M  V30 724 C 72.8598 -1.68178 0.255004 0
M  V30 725 O 74.0448 -1.88704 0.458754 0
M  V30 726 C 71.1748 -3.25222 1.21851 0
M  V30 727 C 70.1288 -3.59295 2.32575 0
M  V30 728 C 69.4548 -4.95663 2.00555 0
M  V30 729 C 70.7548 -3.63709 3.7485 0
M  V30 730 H 72.4488 -1.87635 2.3331 0
M  V30 731 H 69.9948 -0.901329 1.12303 0
M  V30 732 H 71.9478 -4.03746 1.20695 0
M  V30 733 H 70.6718 -3.25719 0.239775 0
M  V30 734 H 69.3308 -2.83093 2.32925 0
M  V30 735 H 68.9788 -4.92724 1.01154 0
M  V30 736 H 68.6788 -5.19429 2.74714 0
M  V30 737 H 70.2028 -5.7656 2.01024 0
M  V30 738 H 71.6168 -4.32338 3.76506 0
M  V30 739 H 70.0138 -3.98986 4.48252 0
M  V30 740 H 71.0838 -2.63834 4.06841 0
M  V30 741 N 72.4269 -1.23603 -0.977757 0
M  V30 742 C 73.3589 -0.977369 -2.07317 0
M  V30 743 C 74.3719 0.0495845 -1.62724 0
M  V30 744 O 75.5609 -0.186261 -1.77526 0
M  V30 745 C 72.6609 -0.451216 -3.35883 0
M  V30 746 C 71.8339 -1.53896 -4.09432 0
M  V30 747 C 70.8929 -1.01721 -5.16274 0
M  V30 748 O 69.9189 -1.70676 -5.43009 0
M  V30 749 N 71.1209 0.153594 -5.80297 0
M  V30 750 H 73.8859 -1.92047 -2.30082 0
M  V30 751 H 71.4469 -1.14497 -1.14465 0
M  V30 752 H 73.4389 -0.0871574 -4.04606 0
M  V30 753 H 72.0089 0.397368 -3.10064 0
M  V30 754 H 71.2289 -2.07566 -3.35127 0
M  V30 755 H 72.5169 -2.27037 -4.55337 0
M  V30 756 H 71.9149 0.730323 -5.60966 0
M  V30 757 H 70.4719 0.458892 -6.50183 0
M  V30 758 N 73.905 1.17692 -1.04816 0
M  V30 759 C 75.182 1.83768 -0.669963 0
M  V30 760 C 75.562 1.93232 0.849986 0
M  V30 761 O 74.91 1.46397 1.75443 0
M  V30 762 C 75.12 3.21641 -1.35455 0
M  V30 763 C 76.468 3.97592 -1.49017 0
M  V30 764 O 77.492 3.31107 -1.31326 0
M  V30 765 O 76.351 5.16729 -1.77914 0
M  V30 766 H 73.445 0.792799 -0.235368 0
M  V30 767 H 75.991 1.25021 -1.14751 0
M  V30 768 H 74.763 3.097 -2.39168 0
M  V30 769 H 74.386 3.88052 -0.866107 0
M  V30 770 N 75.3831 0.828654 1.34056 0
M  V30 771 C 76.3161 0.199763 2.27324 0
M  V30 772 C 77.2941 -0.647168 1.49166 0
M  V30 773 O 78.4781 -0.609661 1.78369 0
M  V30 774 C 75.6051 -0.720455 3.30949 0
M  V30 775 C 74.6511 0.0496888 4.26471 0
M  V30 776 S 75.4841 1.40072 5.16856 0
M  V30 777 C 76.6401 0.485527 6.24014 0
M  V30 778 H 76.8731 0.990478 2.80316 0
M  V30 779 H 74.4061 0.624857 1.41191 0
M  V30 780 H 76.3641 -1.24581 3.91139 0
M  V30 781 H 75.0251 -1.48474 2.76793 0
M  V30 782 H 74.2181 -0.650104 4.9979 0
M  V30 783 H 73.8201 0.505779 3.70564 0
M  V30 784 H 76.1121 -0.320672 6.76741 0
M  V30 785 H 77.0551 1.18856 6.98054 0
M  V30 786 H 77.4631 0.0714109 5.64455 0
M  V30 787 N 76.8612 -1.46375 0.584142 0
M  V30 788 C 78.1102 -2.01585 0.0679741 0
M  V30 789 C 78.4232 -1.46109 -1.30045 0
M  V30 790 O 79.6292 -1.93148 -1.90804 0
M  V30 791 C 78.0852 -3.5983 0.0709207 0
M  V30 792 C 77.6932 -4.24303 1.43775 0
M  V30 793 C 79.4372 -4.22693 -0.391228 0
M  V30 794 C 77.3442 -5.74631 1.39834 0
M  V30 795 H 76.2742 -0.753689 0.0216421 0
M  V30 796 H 78.9252 -1.68093 0.736001 0
M  V30 797 H 77.3072 -3.90405 -0.663299 0
M  V30 798 H 78.4812 -4.05335 2.19181 0
M  V30 799 H 76.7962 -3.73539 1.84004 0
M  V30 800 H 79.3932 -5.3289 -0.439524 0
M  V30 801 H 79.7362 -3.91728 -1.40906 0
M  V30 802 H 80.2692 -3.96749 0.288974 0
M  V30 803 H 77.0082 -6.10258 2.39303 0
M  V30 804 H 76.5282 -5.95858 0.686505 0
M  V30 805 H 78.2072 -6.37375 1.11187 0
M  V30 806 N 78.3393 -0.321999 -1.54275 0
M  V30 807 C 79.2873 0.560206 -2.25753 0
M  V30 808 C 80.2813 1.11984 -1.27106 0
M  V30 809 O 81.4873 1.06806 -1.44888 0
M  V30 810 H 77.8623 0.199304 -0.725108 0
M  V30 811 H 79.8333 -0.0649365 -2.98329 0
M  V30 812 C 78.5823 1.71023 -3.02731 0
M  V30 813 H 77.9053 1.28885 -3.78456 0
M  V30 814 H 79.3453 2.30314 -3.55993 0
M  V30 815 C 77.8043 2.62692 -2.10938 0
M  V30 816 O 78.3343 3.64364 -1.6912 0
M  V30 817 N 76.5403 2.30891 -1.76459 0
M  V30 818 H 76.0873 1.48253 -2.10663 0
M  V30 819 H 76.0453 2.92487 -1.1532 0
M  V30 820 N 79.8174 1.5752 -0.0501392 0
M  V30 821 C 80.7274 2.14952 0.939827 0
M  V30 822 C 81.7434 1.10706 1.34239 0
M  V30 823 O 82.9194 1.42869 1.41952 0
M  V30 824 C 79.9844 2.68232 2.19665 0
M  V30 825 C 79.0454 3.87272 1.85253 0
M  V30 826 C 78.2784 4.38002 3.04943 0
M  V30 827 O 78.5014 3.87811 4.18281 0
M  V30 828 O 77.4354 5.29602 2.86017 0
M  V30 829 H 81.2614 2.9986 0.481392 0
M  V30 830 H 78.8464 1.4841 0.171699 0
M  V30 831 H 80.7284 3.02475 2.93406 0
M  V30 832 H 79.4034 1.86395 2.64648 0
M  V30 833 H 78.3104 3.5792 1.0883 0
M  V30 834 H 79.6434 4.70336 1.4507 0
M  V30 835 N 81.2955 -0.223234 1.56011 0
M  V30 836 C 82.5415 -0.949279 1.79211 0
M  V30 837 C 82.8745 -1.84054 0.619494 0
M  V30 838 O 82.1495 -1.90726 -0.381317 0
M  V30 839 C 82.4325 -1.78965 3.12479 0
M  V30 840 C 82.2855 -0.924997 4.40186 0
M  V30 841 C 83.6045 -2.76774 3.42175 0
M  V30 842 H 80.7235 -0.343676 0.651963 0
M  V30 843 H 83.3655 -0.218253 1.88742 0
M  V30 844 H 81.5155 -2.41291 3.04485 0
M  V30 845 H 83.1875 -0.318615 4.60198 0
M  V30 846 H 81.4305 -0.230344 4.33188 0
M  V30 847 H 82.1015 -1.54735 5.29869 0
M  V30 848 H 84.5775 -2.24584 3.50287 0
M  V30 849 H 83.4535 -3.32678 4.36597 0
M  V30 850 H 83.7145 -3.54429 2.64258 0
M  V30 851 N 82.7736 -1.49793 -0.48987 0
M  V30 852 C 84.0506 -1.50348 -1.25119 0
M  V30 853 C 84.4306 -0.237466 -2.0976 0
M  V30 854 O 83.7786 0.77981 -2.14782 0
M  V30 855 C 83.9886 -2.78872 -2.09837 0
M  V30 856 C 85.3366 -3.288 -2.68655 0
M  V30 857 O 86.3606 -2.80065 -2.20096 0
M  V30 858 O 85.2196 -4.13707 -3.57083 0
M  V30 859 H 82.3136 -0.602242 -0.566775 0
M  V30 860 H 84.8596 -1.62067 -0.503229 0
M  V30 861 H 83.6316 -3.62499 -1.47343 0
M  V30 862 H 83.2546 -2.70066 -2.91805 0
M  V30 863 N 84.2517 0.741722 -1.39055 0
M  V30 864 C 85.2147 1.83733 -1.37021 0
M  V30 865 C 86.2147 1.58542 -0.268534 0
M  V30 866 O 87.4047 1.66067 -0.526076 0
M  V30 867 C 84.5367 3.2141 -1.13617 0
M  V30 868 H 85.7297 1.86941 -2.34506 0
M  V30 869 H 83.2827 0.944676 -1.24521 0
M  V30 870 H 84.0177 3.23865 -0.167863 0
M  V30 871 H 83.8027 3.4109 -1.93391 0
M  V30 872 H 85.2927 4.01477 -1.14918 0
M  V30 873 N 85.7298 1.2412 0.971189 0
M  V30 874 C 87.0068 0.986867 1.6888 0
M  V30 875 C 87.3868 -0.491857 2.0529 0
M  V30 876 O 86.7348 -1.46531 1.75331 0
M  V30 877 C 86.9448 1.9063 2.92338 0
M  V30 878 C 88.2928 2.17515 3.64654 0
M  V30 879 O 89.3168 1.88254 3.02388 0
M  V30 880 O 88.1758 2.6719 4.7673 0
M  V30 881 H 85.2698 0.372944 0.738134 0
M  V30 882 H 87.8158 1.35203 1.02559 0
M  V30 883 H 86.5878 2.90552 2.62097 0
M  V30 884 H 86.2108 1.54408 3.66393 0
M  V30 885 N 87.2079 -1.17134 1.05439 0
M  V30 886 C 88.4559 -1.87085 0.764429 0
M  V30 887 C 88.7769 -1.81584 -0.710787 0
M  V30 888 O 88.0469 -1.24349 -1.51374 0
M  V30 889 H 86.6269 -0.692627 0.279779 0
M  V30 890 H 89.2889 -1.42087 1.33406 0
M  V30 891 H 88.3849 -2.92759 1.0816 0
M  V30 892 N 88.686 -0.835752 -1.33615 0
M  V30 893 C 89.634 -0.255238 -2.31195 0
M  V30 894 C 90.628 0.61107 -1.57995 0
M  V30 895 O 91.834 0.500979 -1.72888 0
M  V30 896 H 88.209 -0.0638085 -0.749288 0
M  V30 897 H 90.18 -1.09283 -2.77669 0
M  V30 898 C 88.929 0.55754 -3.43201 0
M  V30 899 H 88.252 -0.0997553 -3.99676 0
M  V30 900 H 89.692 0.929622 -4.13683 0
M  V30 901 C 88.151 1.73515 -2.88781 0
M  V30 902 O 88.681 2.83376 -2.84712 0
M  V30 903 N 86.887 1.55603 -2.4543 0
M  V30 904 H 86.434 0.662354 -2.48939 0
M  V30 905 H 86.392 2.34545 -2.09371 0
M  V30 906 N 90.1641 1.46063 -0.591896 0
M  V30 907 C 91.4121 2.01938 -0.0808391 0
M  V30 908 C 91.7331 1.46475 1.28725 0
M  V30 909 O 91.0031 0.652944 1.84698 0
M  V30 910 H 89.5831 0.746516 -0.0268938 0
M  V30 911 H 92.2451 1.79055 -0.769752 0
M  V30 912 H 91.3411 3.12094 -0.0187578 0
M  V30 913 N 91.6422 0.330177 1.54103 0
M  V30 914 C 92.8702 -0.272179 2.05102 0
M  V30 915 C 93.2852 -1.45267 1.20595 0
M  V30 916 O 92.6422 -1.8094 0.238144 0
M  V30 917 C 92.6932 -0.70023 3.54653 0
M  V30 918 O 92.4142 0.433301 4.35952 0
M  V30 919 C 93.9152 -1.3647 4.21771 0
M  V30 920 H 91.1352 -0.0549159 0.668749 0
M  V30 921 H 93.6792 0.478285 1.98828 0
M  V30 922 H 91.8342 -1.40066 3.61193 0
M  V30 923 H 92.2482 0.0947539 5.24414 0
M  V30 924 H 93.7222 -1.61509 5.27843 0
M  V30 925 H 94.1992 -2.31409 3.73292 0
M  V30 926 H 94.8052 -0.706675 4.19388 0
M  V30 927 N 93.1203 -1.57491 0.0584922 0
M  V30 928 C 94.3693 -1.92155 -0.613146 0
M  V30 929 C 94.6823 -0.939334 -1.71569 0
M  V30 930 O 95.8883 -1.17829 -2.44599 0
M  V30 931 C 94.3443 -3.41303 -1.14195 0
M  V30 932 C 93.9523 -4.47944 -0.0711265 0
M  V30 933 C 95.6963 -3.84988 -1.78841 0
M  V30 934 C 93.6033 -5.88212 -0.613225 0
M  V30 935 H 92.5333 -0.717162 -0.232796 0
M  V30 936 H 95.1843 -1.83049 0.12857 0
M  V30 937 H 93.5663 -3.45437 -1.93621 0
M  V30 938 H 94.7403 -4.55408 0.702836 0
M  V30 939 H 93.0553 -4.13644 0.478313 0
M  V30 940 H 95.6523 -4.87159 -2.20408 0
M  V30 941 H 95.9953 -3.21632 -2.64308 0
M  V30 942 H 96.5283 -3.83401 -1.06059 0
M  V30 943 H 93.2673 -6.55183 0.203978 0
M  V30 944 H 92.7873 -5.84294 -1.35501 0
M  V30 945 H 94.4663 -6.37687 -1.09383 0
M  V30 946 N 94.5984 0.214957 -1.56127 0
M  V30 947 C 95.8754 0.963093 -1.70247 0
M  V30 948 C 96.2554 2.02166 -0.60764 0
M  V30 949 O 95.6034 2.25244 0.384385 0
M  V30 950 C 95.8134 1.56756 -3.11815 0
M  V30 951 C 97.1614 2.0573 -3.7143 0
M  V30 952 O 98.1854 1.66637 -3.14818 0
M  V30 953 O 97.0444 2.77603 -4.70743 0
M  V30 954 H 94.1384 0.450321 -0.693643 0
M  V30 955 H 96.6844 0.206219 -1.68442 0
M  V30 956 H 95.4564 0.803533 -3.82961 0
M  V30 957 H 95.0794 2.3898 -3.17765 0
M  V30 958 N 96.0765 1.50051 0.48192 0
M  V30 959 C 97.3235 1.60498 1.23477 0
M  V30 960 C 97.6515 0.300331 1.92167 0
M  V30 961 O 96.9065 -0.713094 1.82246 0
M  V30 962 C 97.2055 2.72717 2.30998 0
M  V30 963 C 96.8715 4.13572 1.79636 0
M  V30 964 C 95.5335 4.519 1.65348 0
M  V30 965 C 97.8855 5.01649 1.41412 0
M  V30 966 C 95.2135 5.76057 1.11244 0
M  V30 967 C 97.5655 6.26343 0.887538 0
M  V30 968 C 96.2295 6.63483 0.731207 0
M  V30 969 H 95.4995 0.587303 0.451836 0
M  V30 970 H 98.1465 1.83948 0.532468 0
M  V30 971 H 96.4515 2.43312 3.07094 0
M  V30 972 H 98.1485 2.78006 2.88988 0
M  V30 973 H 94.7385 3.83329 1.91721 0
M  V30 974 H 98.9225 4.72679 1.51289 0
M  V30 975 H 94.1785 6.03516 0.978686 0
M  V30 976 H 98.3525 6.93958 0.582654 0
M  V30 977 H 95.9795 7.59568 0.309806 0
M  V30 978 N 97.5546 -0.734337 1.39446 0
M  V30 979 C 98.9656 -1.31264 1.32766 0
M  V30 980 C 99.3166 -1.96198 -0.00767497 0
M  V30 981 O 98.4416 -1.96346 -0.909796 0
M  V30 982 C 99.0366 -2.38682 2.4045 0
M  V30 983 C 97.5956 -2.92184 2.37288 0
M  V30 984 C 96.7426 -1.6576 2.22304 0
M  V30 985 H 99.6936 -0.531799 1.49525 0
M  V30 986 H 99.7146 -3.19087 2.07276 0
M  V30 987 H 99.2266 -1.91392 3.37625 0
M  V30 988 H 97.3276 -3.43752 1.43754 0
M  V30 989 H 97.4406 -3.45253 3.3217 0
M  V30 990 H 95.8046 -1.9012 1.69489 0
M  V30 991 H 96.5876 -1.20521 3.21449 0
M  V30 992 N 99.0327 -1.24633 -0.964593 0
M  V30 993 C 99.9427 -1.05859 -2.09359 0
M  V30 994 C 100.959 0.00148855 -1.74 0
M  V30 995 O 102.135 -0.197346 -2.00431 0
M  V30 996 C 99.1997 -0.668879 -3.40187 0
M  V30 997 C 98.2607 -1.80578 -3.89474 0
M  V30 998 C 97.4937 -1.43457 -5.14058 0
M  V30 999 O 97.7167 -0.325775 -5.69469 0
M  V30 1000 O 96.6507 -2.2613 -5.57807 0
M  V30 1001 H 100.477 -2.00516 -2.28094 0
M  V30 1002 H 98.0617 -1.03481 -1.0776 0
M  V30 1003 H 99.9437 -0.463211 -4.18846 0
M  V30 1004 H 98.6187 0.248536 -3.22744 0
M  V30 1005 H 97.5257 -2.06623 -3.11862 0
M  V30 1006 H 98.8587 -2.70208 -4.11398 0
M  V30 1007 N 100.511 1.16574 -1.06058 0
M  V30 1008 C 101.758 1.87047 -0.775873 0
M  V30 1009 C 102.086 1.81562 0.697534 0
M  V30 1010 O 101.341 1.22445 1.52662 0
M  V30 1011 C 101.64 3.36195 -1.21275 0
M  V30 1012 C 101.306 3.6188 -2.68986 0
M  V30 1013 C 99.9678 3.68599 -3.09335 0
M  V30 1014 C 102.32 3.72648 -3.64394 0
M  V30 1015 C 99.6478 3.83584 -4.43937 0
M  V30 1016 C 102 3.89154 -4.98741 0
M  V30 1017 C 100.664 3.94114 -5.3873 0
M  V30 1018 H 99.9338 0.684452 -0.283912 0
M  V30 1019 H 102.581 1.37853 -1.32925 0
M  V30 1020 H 100.886 3.87505 -0.578528 0
M  V30 1021 H 102.583 3.89103 -0.969542 0
M  V30 1022 H 99.1728 3.57281 -2.36744 0
M  V30 1023 H 103.357 3.66769 -3.34356 0
M  V30 1024 H 98.6128 3.85677 -4.74409 0
M  V30 1025 H 102.787 3.96427 -5.72554 0
M  V30 1026 H 100.414 4.05478 -6.43033 0
M  V30 1027 N 101.989 0.842826 1.3317 0
M  V30 1028 C 102.919 0.294028 2.31641 0
M  V30 1029 C 103.9 -0.600401 1.59151 0
M  V30 1030 O 105.085 -0.523124 1.87022 0
M  V30 1031 C 102.215 -0.528416 3.43257 0
M  V30 1032 C 101.169 0.27056 4.27144 0
M  V30 1033 C 100.495 -0.675881 5.30411 0
M  V30 1034 C 101.795 1.48981 5.00602 0
M  V30 1035 H 103.489 1.11681 2.77791 0
M  V30 1036 H 101.035 0.538478 1.33553 0
M  V30 1037 H 102.988 -0.922674 4.11175 0
M  V30 1038 H 101.712 -1.38445 2.95805 0
M  V30 1039 H 100.371 0.646427 3.60856 0
M  V30 1040 H 100.019 -1.52842 4.79216 0
M  V30 1041 H 99.7189 -0.145374 5.8742 0
M  V30 1042 H 101.243 -1.06757 6.01195 0
M  V30 1043 H 102.657 1.16849 5.61266 0
M  V30 1044 H 101.054 1.95739 5.6728 0
M  V30 1045 H 102.124 2.25746 4.29147 0
M  V30 1046 N 103.467 -1.45747 0.599634 0
M  V30 1047 C 104.695 -2.06668 0.0978551 0
M  V30 1048 C 105.11 -1.44562 -1.21439 0
M  V30 1049 O 104.467 -0.556923 -1.73795 0
M  V30 1050 C 104.518 -3.61456 -0.0567044 0
M  V30 1051 O 104.239 -4.21242 1.20361 0
M  V30 1052 C 105.74 -4.39345 -0.590869 0
M  V30 1053 H 102.96 -0.667825 0.0651943 0
M  V30 1054 H 105.504 -1.87115 0.82511 0
M  V30 1055 H 103.659 -3.80378 -0.734251 0
M  V30 1056 H 104.073 -5.14323 1.02821 0
M  V30 1057 H 105.547 -5.48182 -0.648131 0
M  V30 1058 H 106.024 -4.08568 -1.61147 0
M  V30 1059 H 106.63 -4.25268 0.0523679 0
M  V30 1060 N 104.945 -0.338344 -1.53925 0
M  V30 1061 C 105.878 0.563758 -2.21127 0
M  V30 1062 C 106.856 1.10433 -1.19345 0
M  V30 1063 O 108.04 1.16557 -1.48144 0
M  V30 1064 C 105.167 1.77505 -2.88461 0
M  V30 1065 C 104.213 1.3644 -4.04087 0
M  V30 1066 S 105.046 0.388593 -5.34088 0
M  V30 1067 C 106.202 1.60683 -6.04923 0
M  V30 1068 H 106.435 -0.00704546 -2.97299 0
M  V30 1069 H 103.968 -0.122418 -1.53914 0
M  V30 1070 H 105.926 2.46999 -3.27875 0
M  V30 1071 H 104.587 2.31706 -2.12064 0
M  V30 1072 H 103.78 2.26739 -4.50117 0
M  V30 1073 H 103.382 0.748998 -3.66423 0
M  V30 1074 H 105.674 2.54209 -6.28 0
M  V30 1075 H 106.617 1.18842 -6.98056 0
M  V30 1076 H 107.025 1.80052 -5.35015 0
M  V30 1077 N 106.423 1.57458 -0.0668435 0
M  V30 1078 C 107.356 2.08033 0.93795 0
M  V30 1079 C 108.334 0.984321 1.29421 0
M  V30 1080 O 109.518 1.25736 1.40437 0
M  V30 1081 C 106.645 2.53388 2.24749 0
M  V30 1082 C 105.691 3.74376 2.04315 0
M  V30 1083 S 106.524 5.19303 1.30706 0
M  V30 1084 C 107.68 5.67986 2.62951 0
M  V30 1085 H 107.913 2.92935 0.50759 0
M  V30 1086 H 105.446 1.5371 0.145804 0
M  V30 1087 H 107.404 2.8018 3.00016 0
M  V30 1088 H 106.065 1.68763 2.64911 0
M  V30 1089 H 105.258 4.04083 3.01218 0
M  V30 1090 H 104.86 3.47931 1.37186 0
M  V30 1091 H 107.152 5.74528 3.5906 0
M  V30 1092 H 108.095 6.66955 2.3786 0
M  V30 1093 H 108.503 4.95781 2.69929 0
M  V30 1094 N 107.901 -0.206675 1.56239 0
M  V30 1095 C 108.864 -1.23976 1.92776 0
M  V30 1096 C 109.864 -1.39041 0.807729 0
M  V30 1097 O 111.054 -1.37051 1.0753 0
M  V30 1098 C 108.186 -2.61112 2.19165 0
M  V30 1099 H 109.379 -0.927764 2.85189 0
M  V30 1100 H 106.932 -0.447718 1.4975 0
M  V30 1101 H 107.667 -2.97386 1.29352 0
M  V30 1102 H 107.452 -2.51552 3.00772 0
M  V30 1103 H 108.942 -3.35633 2.48476 0
M  V30 1104 N 109.379 -1.50304 -0.473955 0
M  V30 1105 C 110.795 -1.37667 -0.807466 0
M  V30 1106 C 110.995 -0.430555 -1.96846 0
M  V30 1107 O 110.051 0.127874 -2.52176 0
M  V30 1108 C 111.364 -2.78974 -1.12223 0
M  V30 1109 C 112.912 -2.87868 -1.22885 0
M  V30 1110 C 113.387 -4.30003 -1.57676 0
M  V30 1111 N 114.878 -4.3294 -1.64673 0
M  V30 1112 C 115.613 -5.3991 -1.93091 0
M  V30 1113 N 115.109 -6.57092 -2.1955 0
M  V30 1114 N 116.902 -5.27351 -1.94569 0
M  V30 1115 H 109.053 -2.10394 0.291212 0
M  V30 1116 H 111.316 -0.945575 0.0677609 0
M  V30 1117 H 111.022 -3.50031 -0.342229 0
M  V30 1118 H 110.896 -3.16038 -2.05913 0
M  V30 1119 H 113.283 -2.17032 -1.99953 0
M  V30 1120 H 113.364 -2.54352 -0.271814 0
M  V30 1121 H 113.008 -5.01375 -0.81149 0
M  V30 1122 H 112.938 -4.61004 -2.54525 0
M  V30 1123 H 115.429 -3.48441 -1.46277 0
M  V30 1124 H 115.742 -7.34425 -2.405 0
M  V30 1125 H 114.087 -6.60272 -2.16948 0
M  V30 1126 H 117.278 -4.34801 -1.73394 0
M  V30 1127 H 117.451 -6.10805 -2.16381 0
M  V30 1128 N 110.857 0.726932 -1.39834 0
M  V30 1129 C 111.804 1.841 -1.39197 0
M  V30 1130 C 112.774 1.642 -0.250502 0
M  V30 1131 O 113.959 1.85494 -0.446846 0
M  V30 1132 C 111.099 3.21697 -1.24919 0
M  V30 1133 C 110.212 3.53247 -2.48678 0
M  V30 1134 C 109.347 4.80289 -2.26928 0
M  V30 1135 C 108.386 5.04707 -3.4632 0
M  V30 1136 N 107.523 6.22956 -3.23836 0
M  V30 1137 H 112.363 1.83979 -2.34427 0
M  V30 1138 H 109.9 0.898876 -1.16442 0
M  V30 1139 H 111.858 4.01137 -1.1465 0
M  V30 1140 H 110.488 3.21076 -0.333153 0
M  V30 1141 H 109.54 2.68447 -2.69519 0
M  V30 1142 H 110.852 3.67205 -3.37582 0
M  V30 1143 H 110.006 5.67725 -2.13947 0
M  V30 1144 H 108.745 4.68519 -1.35431 0
M  V30 1145 H 107.75 4.1573 -3.5979 0
M  V30 1146 H 108.975 5.18357 -4.38729 0
M  V30 1147 H 106.921 6.12459 -2.35011 0
M  V30 1148 H 106.838 6.37539 -4.063 0
M  V30 1149 H 108.106 7.1321 -3.14566 0
M  V30 1150 N 112.336 1.25143 0.95797 0
M  V30 1151 C 113.269 0.995565 2.05338 0
M  V30 1152 C 114.247 -0.0740423 1.62431 0
M  V30 1153 O 115.431 0.0649212 1.88388 0
M  V30 1154 C 112.558 0.504298 3.34925 0
M  V30 1155 C 111.604 1.56393 3.96792 0
M  V30 1156 S 112.437 3.14815 4.33188 0
M  V30 1157 C 113.593 2.67415 5.65898 0
M  V30 1158 H 113.826 1.92309 2.26726 0
M  V30 1159 H 111.359 1.08635 1.09716 0
M  V30 1160 H 113.317 0.227497 4.09869 0
M  V30 1161 H 111.978 -0.402671 3.11508 0
M  V30 1162 H 111.171 1.17082 4.90212 0
M  V30 1163 H 110.773 1.79124 3.28315 0
M  V30 1164 H 113.065 2.10833 6.4386 0
M  V30 1165 H 114.008 3.59463 6.10076 0
M  V30 1166 H 114.416 2.07521 5.24972 0
M  V30 1167 N 113.814 -1.1601 1.06675 0
M  V30 1168 C 114.761 -2.20525 0.680967 0
M  V30 1169 C 115.731 -1.62904 -0.324283 0
M  V30 1170 O 116.916 -1.89615 -0.212294 0
M  V30 1171 C 114.056 -3.45013 0.0776551 0
M  V30 1172 C 113.169 -4.16863 1.13355 0
M  V30 1173 C 112.304 -5.2888 0.49597 0
M  V30 1174 C 111.343 -5.92537 1.53513 0
M  V30 1175 N 110.48 -6.96038 0.920631 0
M  V30 1176 H 115.32 -2.52876 1.57663 0
M  V30 1177 H 112.857 -1.24199 0.788223 0
M  V30 1178 H 114.815 -4.16193 -0.289704 0
M  V30 1179 H 113.445 -3.132 -0.781393 0
M  V30 1180 H 112.497 -3.44248 1.61857 0
M  V30 1181 H 113.809 -4.60294 1.92174 0
M  V30 1182 H 112.963 -6.06653 0.0758604 0
M  V30 1183 H 111.702 -4.86622 -0.324062 0
M  V30 1184 H 110.707 -5.13482 1.9651 0
M  V30 1185 H 111.932 -6.36873 2.35733 0
M  V30 1186 H 109.878 -6.55888 0.12138 0
M  V30 1187 H 109.795 -7.3786 1.64616 0
M  V30 1188 H 111.063 -7.77725 0.525795 0
M  V30 1189 N 115.292 -0.849877 -1.32721 0
M  V30 1190 C 116.569 -0.372405 -1.92022 0
M  V30 1191 C 116.949 1.1435 -1.77447 0
M  V30 1192 O 116.297 1.96296 -1.16962 0
M  V30 1193 C 116.507 -0.831482 -3.3895 0
M  V30 1194 C 117.855 -0.845882 -4.16089 0
M  V30 1195 O 118.879 -0.775806 -3.47649 0
M  V30 1196 O 117.738 -0.943753 -5.38289 0
M  V30 1197 H 114.832 -0.107667 -0.819961 0
M  V30 1198 H 117.378 -0.93646 -1.41522 0
M  V30 1199 H 116.15 -1.87448 -3.4348 0
M  V30 1200 H 115.773 -0.24461 -3.96847 0
M  V30 1201 N 116.77 1.45427 -0.607355 0
M  V30 1202 C 117.998 2.06614 -0.108814 0
M  V30 1203 C 118.413 1.45204 1.2067 0
M  V30 1204 O 117.77 0.566132 1.73497 0
M  V30 1205 C 117.821 3.61481 0.0375347 0
M  V30 1206 O 117.542 4.20598 -1.22593 0
M  V30 1207 C 119.043 4.39652 0.567561 0
M  V30 1208 H 116.263 0.66747 -0.0687351 0
M  V30 1209 H 118.807 1.86675 -0.835022 0
M  V30 1210 H 116.962 3.80762 0.714068 0
M  V30 1211 H 117.376 5.1377 -1.05547 0
M  V30 1212 H 118.85 5.48518 0.61905 0
M  V30 1213 H 119.327 4.09417 1.58978 0
M  V30 1214 H 119.933 4.25234 -0.0749202 0
M  V30 1215 N 118.248 0.346503 1.53744 0
M  V30 1216 C 119.525 -0.304532 1.93215 0
M  V30 1217 C 119.905 -1.67993 1.27834 0
M  V30 1218 O 119.253 -2.24411 0.430352 0
M  V30 1219 C 119.463 -0.373852 3.46992 0
M  V30 1220 C 120.811 -0.62329 4.2 0
M  V30 1221 O 121.835 -0.455847 3.53271 0
M  V30 1222 O 120.694 -0.947879 5.38217 0
M  V30 1223 H 117.788 -0.178318 0.807547 0
M  V30 1224 H 120.334 0.397895 1.64969 0
M  V30 1225 H 119.106 0.591224 3.86808 0
M  V30 1226 H 118.729 -1.12294 3.81413 0
M  V30 1227 N 119.726 -1.57421 0.075193 0
M  V30 1228 C 120.951 -1.98364 -0.605515 0
M  V30 1229 C 121.376 -0.953383 -1.62149 0
M  V30 1230 O 120.734 0.0806053 -1.81121 0
M  V30 1231 C 120.782 -3.38332 -1.24756 0
M  V30 1232 O 119.886 -3.37959 -2.36342 0
M  V30 1233 H 119.227 -0.645553 -0.155428 0
M  V30 1234 H 121.757 -2.04044 0.150714 0
M  V30 1235 H 121.767 -3.75591 -1.5936 0
M  V30 1236 H 120.442 -4.12846 -0.503129 0
M  V30 1237 H 119.019 -3.12474 -2.03506 0
M  V30 1238 N 121.204 0.198386 -1.56346 0
M  V30 1239 C 122.114 1.2664 -1.97483 0
M  V30 1240 C 123.13 1.49989 -0.882002 0
M  V30 1241 O 124.306 1.62668 -1.18748 0
M  V30 1242 C 121.371 2.59141 -2.30319 0
M  V30 1243 C 120.432 2.43892 -3.53292 0
M  V30 1244 C 119.665 3.70074 -3.84553 0
M  V30 1245 O 119.888 4.74101 -3.1715 0
M  V30 1246 O 118.822 3.658 -4.7799 0
M  V30 1247 H 122.648 0.947304 -2.88548 0
M  V30 1248 H 120.233 0.403123 -1.43859 0
M  V30 1249 H 122.115 3.37352 -2.5253 0
M  V30 1250 H 120.79 2.90684 -1.42423 0
M  V30 1251 H 119.697 1.63803 -3.36332 0
M  V30 1252 H 121.03 2.17282 -4.41644 0
M  V30 1253 N 122.682 1.50554 0.465978 0
M  V30 1254 C 123.592 1.72585 1.58907 0
M  V30 1255 C 124.608 0.60911 1.6299 0
M  V30 1256 O 125.784 0.88804 1.80765 0
M  V30 1257 C 122.849 1.81995 2.95091 0
M  V30 1258 C 121.91 3.05751 3.01355 0
M  V30 1259 C 121.143 3.14702 4.31043 0
M  V30 1260 O 121.366 2.30313 5.21835 0
M  V30 1261 O 120.3 4.07468 4.43005 0
M  V30 1262 H 124.126 2.67799 1.43239 0
M  V30 1263 H 121.711 1.34711 0.646013 0
M  V30 1264 H 123.593 1.90335 3.75966 0
M  V30 1265 H 122.268 0.899659 3.10947 0
M  V30 1266 H 121.175 3.02908 2.19539 0
M  V30 1267 H 122.508 3.97375 2.90437 0
M  V30 1268 N 124.16 -0.719506 1.40217 0
M  V30 1269 C 125.07 -1.86378 1.42479 0
M  V30 1270 C 126.086 -1.71073 0.317834 0
M  V30 1271 O 127.262 -1.93406 0.561794 0
M  V30 1272 C 124.327 -3.22136 1.28178 0
M  V30 1273 C 123.388 -3.49723 2.48982 0
M  V30 1274 C 122.621 -4.79004 2.35353 0
M  V30 1275 O 122.844 -5.53821 1.36524 0
M  V30 1276 O 121.778 -5.06839 3.2465 0
M  V30 1277 H 125.604 -1.87425 2.38968 0
M  V30 1278 H 123.189 -0.869405 1.21498 0
M  V30 1279 H 125.071 -4.03234 1.22395 0
M  V30 1280 H 123.746 -3.21825 0.347934 0
M  V30 1281 H 122.653 -2.6865 2.60342 0
M  V30 1282 H 123.986 -3.54828 3.41113 0
M  V30 1283 N 125.638 -1.25649 -0.95132 0
M  V30 1284 C 126.887 -1.09988 -1.69073 0
M  V30 1285 C 127.2 0.358355 -1.92289 0
M  V30 1286 O 128.406 0.635466 -2.63958 0
M  V30 1287 C 126.862 -1.92012 -3.044 0
M  V30 1288 C 126.47 -3.42347 -2.88968 0
M  V30 1289 C 128.214 -1.8493 -3.82101 0
M  V30 1290 C 126.121 -4.16655 -4.19705 0
M  V30 1291 H 125.051 -0.407993 -0.63408 0
M  V30 1292 H 127.702 -1.49873 -1.05879 0
M  V30 1293 H 126.084 -1.44952 -3.68517 0
M  V30 1294 H 127.258 -3.97104 -2.33762 0
M  V30 1295 H 125.573 -3.50557 -2.24719 0
M  V30 1296 H 128.17 -2.37739 -4.78941 0
M  V30 1297 H 128.513 -0.817883 -4.08187 0
M  V30 1298 H 129.046 -2.29758 -3.2474 0
M  V30 1299 H 125.785 -5.20224 -3.98807 0
M  V30 1300 H 125.305 -3.66681 -4.74663 0
M  V30 1301 H 126.984 -4.24551 -4.88227 0
M  V30 1302 N 127.117 1.15442 -1.07289 0
M  V30 1303 C 128.533 1.38201 -0.798288 0
M  V30 1304 C 128.733 1.92429 0.597769 0
M  V30 1305 O 127.789 2.12962 1.3566 0
M  V30 1306 C 129.102 2.35357 -1.87156 0
M  V30 1307 C 130.65 2.49021 -1.89624 0
M  V30 1308 C 131.125 3.49468 -2.96034 0
M  V30 1309 N 132.616 3.57003 -2.95132 0
M  V30 1310 C 133.351 4.34543 -3.74112 0
M  V30 1311 N 132.847 5.15421 -4.6294 0
M  V30 1312 N 134.64 4.29625 -3.62462 0
M  V30 1313 H 126.791 0.78584 -1.97328 0
M  V30 1314 H 129.054 0.408065 -0.855679 0
M  V30 1315 H 128.76 2.02626 -2.87464 0
M  V30 1316 H 128.634 3.35129 -1.73114 0
M  V30 1317 H 131.021 2.81051 -0.899687 0
M  V30 1318 H 131.102 1.4925 -2.07745 0
M  V30 1319 H 130.746 3.18173 -3.95889 0
M  V30 1320 H 130.676 4.48992 -2.75161 0
M  V30 1321 H 133.167 2.99276 -2.30743 0
M  V30 1322 H 133.48 5.7183 -5.19837 0
M  V30 1323 H 131.825 5.14729 -4.66989 0
M  V30 1324 H 135.016 3.65505 -2.92444 0
M  V30 1325 H 135.189 4.89807 -4.24256 0
M  V30 1326 N 128.595 0.856903 1.32268 0
M  V30 1327 C 129.505 0.306131 2.32594 0
M  V30 1328 C 130.521 -0.577209 1.64147 0
M  V30 1329 O 131.697 -0.477043 1.95669 0
M  V30 1330 C 128.762 -0.494561 3.43154 0
M  V30 1331 C 127.823 0.415186 4.27288 0
M  V30 1332 C 127.056 -0.347387 5.32568 0
M  V30 1333 O 127.279 -1.57708 5.48165 0
M  V30 1334 O 126.213 0.287982 6.01211 0
M  V30 1335 H 130.039 1.13737 2.81598 0
M  V30 1336 H 127.624 0.619902 1.35932 0
M  V30 1337 H 129.506 -0.948944 4.10576 0
M  V30 1338 H 128.181 -1.30257 2.96336 0
M  V30 1339 H 127.088 0.917793 3.62667 0
M  V30 1340 H 128.421 1.18844 4.77637 0
M  V30 1341 N 130.073 -1.45103 0.615059 0
M  V30 1342 C 131.036 -2.29025 -0.0895485 0
M  V30 1343 C 132.036 -1.40174 -0.787906 0
M  V30 1344 O 133.226 -1.62217 -0.634933 0
M  V30 1345 C 130.358 -3.21376 -1.13711 0
M  V30 1346 H 131.551 -2.92807 0.648382 0
M  V30 1347 H 129.104 -1.51749 0.374444 0
M  V30 1348 H 129.839 -2.6241 -1.90556 0
M  V30 1349 H 129.624 -3.86834 -0.640475 0
M  V30 1350 H 131.114 -3.84459 -1.63036 0
M  V30 1351 N 131.551 -0.354651 -1.53558 0
M  V30 1352 C 132.798 0.238443 -2.01091 0
M  V30 1353 C 133.126 1.49663 -1.24222 0
M  V30 1354 O 132.381 1.93049 -0.321003 0
M  V30 1355 C 132.68 0.587121 -3.52545 0
M  V30 1356 C 132.346 -0.575472 -4.47213 0
M  V30 1357 C 131.008 -0.894497 -4.72813 0
M  V30 1358 C 133.36 -1.35489 -5.03281 0
M  V30 1359 C 130.688 -1.99511 -5.51736 0
M  V30 1360 C 133.04 -2.44583 -5.83405 0
M  V30 1361 C 131.704 -2.77033 -6.07296 0
M  V30 1362 H 130.974 0.0872526 -0.735845 0
M  V30 1363 H 133.621 -0.484859 -1.8526 0
M  V30 1364 H 131.926 1.39129 -3.66265 0
M  V30 1365 H 133.623 1.05809 -3.86789 0
M  V30 1366 H 130.213 -0.316774 -4.27428 0
M  V30 1367 H 134.397 -1.12167 -4.83459 0
M  V30 1368 H 129.653 -2.25063 -5.68469 0
M  V30 1369 H 133.827 -3.05401 -6.25862 0
M  V30 1370 H 131.454 -3.6244 -6.68237 0
M  V30 1371 N 133.029 1.57378 -0.0835403 0
M  V30 1372 C 134.445 1.57246 0.273109 0
M  V30 1373 C 134.645 1.09385 1.69225 0
M  V30 1374 O 133.701 0.765051 2.40631 0
M  V30 1375 C 135.014 3.00614 0.0720628 0
M  V30 1376 C 136.562 3.12684 0.1407 0
M  V30 1377 C 137.037 4.57989 -0.0322094 0
M  V30 1378 N 138.528 4.63194 0.0230085 0
M  V30 1379 C 139.263 5.73335 -0.0861941 0
M  V30 1380 N 138.759 6.9235 -0.24958 0
M  V30 1381 N 140.552 5.62093 -0.0282886 0
M  V30 1382 H 132.703 1.86801 -1.0109 0
M  V30 1383 H 134.966 0.861687 -0.395222 0
M  V30 1384 H 134.672 3.39786 -0.907662 0
M  V30 1385 H 134.546 3.68193 0.81936 0
M  V30 1386 H 136.933 2.73391 1.11092 0
M  V30 1387 H 137.014 2.47719 -0.637896 0
M  V30 1388 H 136.658 4.97973 -0.999247 0
M  V30 1389 H 136.588 5.21 0.765937 0
M  V30 1390 H 139.079 3.77613 0.14722 0
M  V30 1391 H 139.392 7.72117 -0.324733 0
M  V30 1392 H 137.737 6.94415 -0.285097 0
M  V30 1393 H 140.928 4.67997 0.0981408 0
M  V30 1394 H 141.101 6.47895 -0.116845 0
M  V30 1395 N 134.507 -0.190092 1.56449 0
M  V30 1396 C 135.753 -0.911052 1.81184 0
M  V30 1397 C 136.086 -1.82699 0.658396 0
M  V30 1398 O 135.361 -1.91491 -0.340775 0
M  V30 1399 C 135.644 -1.72297 3.16205 0
M  V30 1400 C 135.497 -0.831419 4.42049 0
M  V30 1401 C 136.816 -2.69454 3.47969 0
M  V30 1402 H 133.935 -0.32977 0.659106 0
M  V30 1403 H 136.577 -0.178169 1.89163 0
M  V30 1404 H 134.727 -2.34778 3.09534 0
M  V30 1405 H 136.399 -0.220929 4.60771 0
M  V30 1406 H 134.642 -0.138406 4.33579 0
M  V30 1407 H 135.313 -1.43461 5.33032 0
M  V30 1408 H 137.789 -2.17104 3.54972 0
M  V30 1409 H 136.665 -3.23342 4.43555 0
M  V30 1410 H 136.926 -3.48744 2.71717 0
M  V30 1411 N 135.985 -1.50799 -0.457987 0
M  V30 1412 C 137.232 -1.62442 -1.20908 0
M  V30 1413 C 137.56 -0.330865 -1.91665 0
M  V30 1414 O 136.815 0.68401 -1.83357 0
M  V30 1415 C 137.114 -2.76358 -2.2663 0
M  V30 1416 C 136.78 -4.16378 -1.73033 0
M  V30 1417 C 135.442 -4.54473 -1.58138 0
M  V30 1418 C 137.794 -5.03836 -1.33413 0
M  V30 1419 C 135.122 -5.77754 -1.02065 0
M  V30 1420 C 137.474 -6.27676 -0.78778 0
M  V30 1421 C 136.138 -6.64562 -0.625561 0
M  V30 1422 H 135.408 -0.594417 -0.442435 0
M  V30 1423 H 138.055 -1.84772 -0.503136 0
M  V30 1424 H 136.36 -2.48167 -3.03184 0
M  V30 1425 H 138.057 -2.82568 -2.84528 0
M  V30 1426 H 134.647 -3.86331 -1.85598 0
M  V30 1427 H 138.831 -4.75026 -1.4375 0
M  V30 1428 H 134.087 -6.04997 -0.882547 0
M  V30 1429 H 138.261 -6.94797 -0.472177 0
M  V30 1430 H 135.888 -7.59965 -0.188926 0
M  V30 1431 N 137.463 0.71206 -1.40597 0
M  V30 1432 C 138.74 1.46536 -1.29563 0
M  V30 1433 C 139.12 2.10931 0.0844217 0
M  V30 1434 O 138.468 2.00418 1.0975 0
M  V30 1435 C 138.678 2.49821 -2.43701 0
M  V30 1436 C 140.026 3.15551 -2.841 0
M  V30 1437 O 141.05 2.60142 -2.4332 0
M  V30 1438 O 139.909 4.15867 -3.54566 0
M  V30 1439 H 137.003 0.651801 -0.509004 0
M  V30 1440 H 139.549 0.743935 -1.52524 0
M  V30 1441 H 138.321 2.00778 -3.35863 0
M  V30 1442 H 137.944 3.29495 -2.22528 0
M  V30 1443 N 138.941 1.26152 0.944643 0
M  V30 1444 C 139.888 1.07408 2.04285 0
M  V30 1445 C 140.858 -0.0198413 1.66088 0
M  V30 1446 O 142.043 0.139264 1.90291 0
M  V30 1447 C 139.183 0.70945 3.37729 0
M  V30 1448 C 138.296 1.87926 3.88983 0
M  V30 1449 C 137.431 1.45807 5.10797 0
M  V30 1450 C 136.47 2.5964 5.54305 0
M  V30 1451 N 135.607 2.18226 6.67324 0
M  V30 1452 H 140.447 2.01389 2.1965 0
M  V30 1453 H 137.984 1.00275 1.07626 0
M  V30 1454 H 139.942 0.478948 4.14442 0
M  V30 1455 H 138.572 -0.193389 3.2222 0
M  V30 1456 H 137.624 2.22279 3.08701 0
M  V30 1457 H 138.936 2.73377 4.17213 0
M  V30 1458 H 138.09 1.18781 5.94959 0
M  V30 1459 H 136.829 0.574414 4.84305 0
M  V30 1460 H 135.834 2.87399 4.68702 0
M  V30 1461 H 137.059 3.48599 5.828 0
M  V30 1462 H 135.005 1.3229 6.42523 0
M  V30 1463 H 134.922 2.97221 6.95123 0
M  V30 1464 H 136.19 1.94403 7.54869 0
M  V30 1465 N 140.419 -1.14872 1.07899 0
M  V30 1466 C 141.696 -1.81928 0.71845 0
M  V30 1467 C 142.076 -1.95417 -0.798455 0
M  V30 1468 O 141.424 -1.50997 -1.715 0
M  V30 1469 C 141.634 -3.17937 1.43935 0
M  V30 1470 C 142.982 -3.93501 1.59506 0
M  V30 1471 O 144.006 -3.27509 1.40058 0
M  V30 1472 O 142.865 -5.1183 1.91551 0
M  V30 1473 H 139.959 -0.78628 0.256305 0
M  V30 1474 H 142.505 -1.21934 1.18026 0
M  V30 1475 H 141.277 -3.0325 2.47295 0
M  V30 1476 H 140.9 -3.85619 0.968687 0
M  V30 1477 N 141.898 -0.863906 -1.31812 0
M  V30 1478 C 143.146 -0.470904 -1.96537 0
M  V30 1479 C 143.467 0.978771 -1.68657 0
M  V30 1480 O 142.737 1.6853 -0.998717 0
M  V30 1481 H 141.317 -0.171148 -0.72713 0
M  V30 1482 H 143.979 -1.10236 -1.60729 0
M  V30 1483 H 143.075 -0.623616 -3.05806 0
M  V30 1484 N 143.376 1.44774 -0.622745 0
M  V30 1485 C 144.324 2.32387 0.0994683 0
M  V30 1486 C 145.318 1.46859 0.844326 0
M  V30 1487 O 146.524 1.63254 0.758174 0
M  V30 1488 H 142.899 0.750273 0.0509291 0
M  V30 1489 H 144.87 2.91062 -0.65767 0
M  V30 1490 C 143.619 3.30723 1.07319 0
M  V30 1491 H 142.942 3.96541 0.509462 0
M  V30 1492 H 144.382 3.94725 1.54817 0
M  V30 1493 C 142.841 2.59021 2.15429 0
M  V30 1494 O 143.371 2.38286 3.23393 0
M  V30 1495 N 141.577 2.189 1.91131 0
M  V30 1496 H 141.124 2.35964 1.03337 0
M  V30 1497 H 141.082 1.71251 2.63668 0
M  V30 1498 N 144.854 0.36279 1.53368 0
M  V30 1499 C 146.102 -0.227326 2.00817 0
M  V30 1500 C 146.423 -1.49511 1.25186 0
M  V30 1501 O 145.693 -1.92482 0.364348 0
M  V30 1502 H 144.273 -0.0869923 0.741917 0
M  V30 1503 H 146.935 0.488381 1.88682 0
M  V30 1504 H 146.031 -0.456273 3.08747 0
M  V30 1505 N 146.332 -1.57332 0.0918853 0
M  V30 1506 C 147.562 -1.98286 -0.580205 0
M  V30 1507 C 147.97 -0.969713 -1.6246 0
M  V30 1508 O 147.313 0.0493501 -1.83634 0
M  V30 1509 C 147.375 -3.35603 -1.28882 0
M  V30 1510 C 147.039 -4.55285 -0.395559 0
M  V30 1511 C 148.036 -5.18687 0.355002 0
M  V30 1512 C 145.721 -5.01314 -0.314556 0
M  V30 1513 C 147.715 -6.26484 1.17458 0
M  V30 1514 C 145.402 -6.08979 0.508677 0
M  V30 1515 C 146.4 -6.71429 1.2519 0
M  V30 1516 O 146.088 -7.77018 2.06151 0
M  V30 1517 H 145.82 -0.656678 -0.160466 0
M  V30 1518 H 148.374 -2.04721 0.16688 0
M  V30 1519 H 146.604 -3.25842 -2.08241 0
M  V30 1520 H 148.293 -3.61026 -1.85512 0
M  V30 1521 H 149.059 -4.84058 0.302134 0
M  V30 1522 H 144.938 -4.5247 -0.882697 0
M  V30 1523 H 148.482 -6.75159 1.75518 0
M  V30 1524 H 144.379 -6.4304 0.563037 0
M  V30 1525 H 145.147 -7.93991 1.98799 0
M  V30 1526 N 147.81 0.181792 -1.56548 0
M  V30 1527 C 149.059 0.898348 -1.8059 0
M  V30 1528 C 149.372 1.83862 -0.667379 0
M  V30 1529 O 150.578 2.59678 -0.792446 0
M  V30 1530 C 149.034 1.64791 -3.19956 0
M  V30 1531 C 148.642 0.751789 -4.41647 0
M  V30 1532 C 150.386 2.35331 -3.53298 0
M  V30 1533 C 148.293 1.50098 -5.72035 0
M  V30 1534 H 147.223 0.339194 -0.673397 0
M  V30 1535 H 149.874 0.151413 -1.82874 0
M  V30 1536 H 148.256 2.43921 -3.11959 0
M  V30 1537 H 149.43 -0.0018076 -4.608 0
M  V30 1538 H 147.745 0.156562 -4.16106 0
M  V30 1539 H 150.342 2.91958 -4.47956 0
M  V30 1540 H 150.685 3.10164 -2.77676 0
M  V30 1541 H 151.218 1.63154 -3.62803 0
M  V30 1542 H 147.957 0.795175 -6.50659 0
M  V30 1543 H 147.477 2.22817 -5.56878 0
M  V30 1544 H 149.156 2.05125 -6.13622 0
M  V30 1545 N 149.288 1.51039 0.449983 0
M  V30 1546 C 150.513 1.6715 1.22783 0
M  V30 1547 C 150.938 0.363081 1.84563 0
M  V30 1548 O 150.296 -0.675433 1.68249 0
M  V30 1549 C 150.344 2.77985 2.29689 0
M  V30 1550 O 149.448 2.40707 3.34864 0
M  V30 1551 H 148.789 0.557746 0.360299 0
M  V30 1552 H 151.319 1.97535 0.533005 0
M  V30 1553 H 151.329 3.01693 2.74673 0
M  V30 1554 H 150.004 3.72935 1.84098 0
M  V30 1555 H 148.581 2.27523 2.95445 0
M  V30 1556 N 150.766 -0.704594 1.40972 0
M  V30 1557 C 151.729 -1.80035 1.41845 0
M  V30 1558 C 152.729 -1.57774 0.310474 0
M  V30 1559 O 153.919 -1.64613 0.56992 0
M  V30 1560 C 151.051 -3.18284 1.22098 0
M  V30 1561 H 152.244 -1.80658 2.3938 0
M  V30 1562 H 149.797 -0.911329 1.26982 0
M  V30 1563 H 150.532 -3.23306 0.253672 0
M  V30 1564 H 150.317 -3.35843 2.02366 0
M  V30 1565 H 151.807 -3.98289 1.25522 0
M  V30 1566 N 152.244 -1.26651 -0.937939 0
M  V30 1567 C 153.207 -1.08546 -2.01867 0
M  V30 1568 C 154.207 -0.0327327 -1.60767 0
M  V30 1569 O 155.397 -0.276427 -1.71993 0
M  V30 1570 C 152.529 -0.651711 -3.34613 0
M  V30 1571 H 153.722 -2.04502 -2.1936 0
M  V30 1572 H 151.275 -1.09294 -1.11734 0
M  V30 1573 H 152.01 0.309696 -3.22818 0
M  V30 1574 H 151.795 -1.41189 -3.65798 0
M  V30 1575 H 153.285 -0.546973 -4.14002 0
M  V30 1576 N 153.722 1.14298 -1.08507 0
M  V30 1577 C 154.632 2.23027 -0.727753 0
M  V30 1578 C 155.648 1.71952 0.26619 0
M  V30 1579 O 156.824 2.011 0.109882 0
M  V30 1580 C 153.889 3.46403 -0.143541 0
M  V30 1581 C 152.95 4.12413 -1.19223 0
M  V30 1582 C 152.183 5.29899 -0.635798 0
M  V30 1583 O 152.406 5.67796 0.544393 0
M  V30 1584 O 151.34 5.85717 -1.38634 0
M  V30 1585 H 155.166 2.55945 -1.63481 0
M  V30 1586 H 152.751 1.22248 -0.858817 0
M  V30 1587 H 154.633 4.21018 0.179404 0
M  V30 1588 H 153.308 3.15206 0.736659 0
M  V30 1589 H 152.215 3.39667 -1.56772 0
M  V30 1590 H 153.548 4.47718 -2.04474 0
M  V30 1591 N 155.201 0.870884 1.31352 0
M  V30 1592 C 156.131 0.343096 2.30966 0
M  V30 1593 C 157.112 -0.566507 1.60389 0
M  V30 1594 O 158.297 -0.483336 1.88089 0
M  V30 1595 C 155.427 -0.455487 3.443 0
M  V30 1596 C 154.381 0.361103 4.26474 0
M  V30 1597 C 153.707 -0.563221 5.31725 0
M  V30 1598 C 155.007 1.59566 4.97329 0
M  V30 1599 H 156.701 1.17548 2.75359 0
M  V30 1600 H 154.247 0.566686 1.32381 0
M  V30 1601 H 156.2 -0.83525 4.13039 0
M  V30 1602 H 154.924 -1.32139 2.98675 0
M  V30 1603 H 153.583 0.722825 3.59403 0
M  V30 1604 H 153.231 -1.42643 4.82351 0
M  V30 1605 H 152.931 -0.0207409 5.87596 0
M  V30 1606 H 154.455 -0.939808 6.03324 0
M  V30 1607 H 155.869 1.28728 5.58661 0
M  V30 1608 H 154.266 2.07728 5.63 0
M  V30 1609 H 155.336 2.34798 4.24262 0
M  V30 1610 N 156.679 -1.44442 0.630414 0
M  V30 1611 C 158.095 -1.56832 0.295973 0
M  V30 1612 C 158.295 -1.61806 -1.20088 0
M  V30 1613 O 157.351 -1.5607 -1.9849 0
M  V30 1614 C 158.664 -2.84031 0.987264 0
M  V30 1615 C 160.212 -2.97742 0.96534 0
M  V30 1616 C 160.687 -4.27743 1.63708 0
M  V30 1617 N 162.178 -4.34555 1.60364 0
M  V30 1618 C 162.913 -5.33862 2.09234 0
M  V30 1619 N 162.409 -6.39578 2.66292 0
M  V30 1620 N 164.202 -5.25366 1.99867 0
M  V30 1621 H 156.353 -1.39457 1.60205 0
M  V30 1622 H 158.616 -0.668237 0.672431 0
M  V30 1623 H 158.322 -2.86338 2.04215 0
M  V30 1624 H 158.196 -3.73534 0.524588 0
M  V30 1625 H 160.583 -2.94989 -0.0810639 0
M  V30 1626 H 160.664 -2.09589 1.4665 0
M  V30 1627 H 160.308 -4.31255 2.68293 0
M  V30 1628 H 160.238 -5.14752 1.11076 0
M  V30 1629 H 162.729 -3.58772 1.18705 0
M  V30 1630 H 163.042 -7.11637 3.01317 0
M  V30 1631 H 161.387 -6.40265 2.70343 0
M  V30 1632 H 164.578 -4.41688 1.55013 0
M  V30 1633 H 164.751 -6.02606 2.38265 0
M  V30 1634 N 158.157 -0.370918 -1.53173 0
M  V30 1635 C 159.107 0.489588 -2.22681 0
M  V30 1636 C 160.091 1.04442 -1.22395 0
M  V30 1637 O 161.283 0.973578 -1.47819 0
M  V30 1638 C 158.412 1.626 -3.02351 0
M  V30 1639 C 157.498 1.08379 -4.10018 0
M  V30 1640 N 157.889 0.265004 -5.05105 0
M  V30 1641 C 156.187 1.35809 -4.2482 0
M  V30 1642 C 156.888 -0.0324755 -5.81691 0
M  V30 1643 N 155.864 0.566581 -5.40639 0
M  V30 1644 H 159.666 -0.142729 -2.93553 0
M  V30 1645 H 157.18 -0.179221 -1.61408 0
M  V30 1646 H 159.177 2.2547 -3.50669 0
M  V30 1647 H 157.837 2.26132 -2.33011 0
M  V30 1648 H 158.848 -0.0962352 -5.17811 0
M  V30 1649 H 155.525 1.9958 -3.66707 0
M  V30 1650 H 156.915 -0.69473 -6.68299 0
M  V30 1651 N 159.635 1.57281 -0.100228 0
M  V30 1652 C 160.881 1.94826 0.563101 0
M  V30 1653 C 161.214 0.982475 1.67514 0
M  V30 1654 O 160.489 0.0164069 1.94493 0
M  V30 1655 C 160.772 3.42453 1.11346 0
M  V30 1656 C 160.625 4.498 0.00612081 0
M  V30 1657 C 161.944 3.91506 2.01024 0
M  V30 1658 H 159.063 0.708428 0.203221 0
M  V30 1659 H 161.705 1.8922 -0.171979 0
M  V30 1660 H 159.855 3.47361 1.7399 0
M  V30 1661 H 161.527 4.57 -0.628357 0
M  V30 1662 H 159.77 4.28756 -0.659581 0
M  V30 1663 H 160.441 5.50306 0.432109 0
M  V30 1664 H 162.917 3.88784 1.48278 0
M  V30 1665 H 161.793 4.95358 2.36457 0
M  V30 1666 H 162.054 3.31099 2.92961 0
M  V30 1667 N 161.113 -0.173488 1.56642 0
M  V30 1668 C 162.046 -1.24353 1.91342 0
M  V30 1669 C 163.024 -1.4289 0.775965 0
M  V30 1670 O 164.208 -1.57932 1.02907 0
M  V30 1671 C 161.335 -2.60683 2.16245 0
M  V30 1672 C 160.381 -2.58894 3.38934 0
M  V30 1673 S 161.214 -2.0819 4.93373 0
M  V30 1674 C 162.37 -3.46302 5.21369 0
M  V30 1675 H 162.603 -0.947345 2.81803 0
M  V30 1676 H 160.136 -0.377958 1.49703 0
M  V30 1677 H 162.094 -3.39149 2.31275 0
M  V30 1678 H 160.755 -2.87502 1.26496 0
M  V30 1679 H 159.948 -3.59188 3.53553 0
M  V30 1680 H 159.55 -1.88522 3.2301 0
M  V30 1681 H 161.842 -4.42287 5.13214 0
M  V30 1682 H 162.785 -3.3656 6.23003 0
M  V30 1683 H 163.193 -3.42214 4.48943 0
M  V30 1684 N 162.591 -1.51276 -0.441967 0
M  V30 1685 C 163.819 -1.67516 -1.21434 0
M  V30 1686 C 164.234 -0.37055 -1.85128 0
M  V30 1687 O 163.591 0.650498 -1.70513 0
M  V30 1688 C 163.642 -2.78748 -2.30177 0
M  V30 1689 O 163.363 -4.04154 -1.69089 0
M  V30 1690 C 164.864 -3.06217 -3.20541 0
M  V30 1691 H 162.084 -0.562276 -0.366178 0
M  V30 1692 H 164.628 -1.97666 -0.524244 0
M  V30 1693 H 162.783 -2.5121 -2.94911 0
M  V30 1694 H 163.197 -4.65894 -2.40922 0
M  V30 1695 H 164.671 -3.8764 -3.92987 0
M  V30 1696 H 165.148 -2.18439 -3.81026 0
M  V30 1697 H 165.754 -3.35397 -2.61513 0
M  V30 1698 N 164.069 0.697108 -1.41344 0
M  V30 1699 C 165.017 1.83237 -1.43272 0
M  V30 1700 C 166.011 1.66522 -0.310947 0
M  V30 1701 O 167.217 1.73402 -0.482899 0
M  V30 1702 H 163.592 0.603802 -0.448249 0
M  V30 1703 H 165.563 1.78727 -2.38954 0
M  V30 1704 C 164.312 3.21245 -1.33029 0
M  V30 1705 H 163.635 3.34723 -2.18633 0
M  V30 1706 H 165.075 4.00763 -1.38439 0
M  V30 1707 C 163.534 3.36873 -0.0424635 0
M  V30 1708 O 164.064 3.91177 0.913421 0
M  V30 1709 N 162.27 2.90581 0.0331145 0
M  V30 1710 H 161.817 2.46577 -0.745506 0
M  V30 1711 H 161.775 3.01416 0.894199 0
M  V30 1712 N 165.547 1.27147 0.931209 0
M  V30 1713 C 166.477 1.12081 2.04842 0
M  V30 1714 C 167.458 0.0232364 1.70084 0
M  V30 1715 O 168.643 0.197085 1.93197 0
M  V30 1716 C 165.773 0.76354 3.38803 0
M  V30 1717 C 164.727 1.81396 3.87659 0
M  V30 1718 C 164.053 1.31075 5.18385 0
M  V30 1719 C 165.353 3.21739 4.11438 0
M  V30 1720 H 167.047 2.05537 2.17703 0
M  V30 1721 H 164.593 0.989603 1.04608 0
M  V30 1722 H 166.546 0.644982 4.16435 0
M  V30 1723 H 165.27 -0.206727 3.25945 0
M  V30 1724 H 163.929 1.92136 3.12217 0
M  V30 1725 H 163.577 0.330037 5.01916 0
M  V30 1726 H 163.277 2.013 5.52044 0
M  V30 1727 H 164.801 1.20506 5.98591 0
M  V30 1728 H 166.215 3.14019 4.79651 0
M  V30 1729 H 164.612 3.89644 4.56397 0
M  V30 1730 H 165.682 3.67054 3.16859 0
M  V30 1731 N 167.025 -1.13721 1.09112 0
M  V30 1732 C 168.273 -1.84559 0.823562 0
M  V30 1733 C 168.594 -1.83754 -0.652658 0
M  V30 1734 O 167.864 -1.29102 -1.47342 0
M  V30 1735 H 166.444 -0.683376 0.301673 0
M  V30 1736 H 169.106 -1.37771 1.37859 0
M  V30 1737 H 168.202 -2.8917 1.17419 0
M  V30 1738 N 168.503 -0.877838 -1.30888 0
M  V30 1739 C 169.413 -0.343096 -2.32078 0
M  V30 1740 C 170.429 0.551022 -1.65045 0
M  V30 1741 O 171.605 0.445854 -1.96403 0
M  V30 1742 C 168.67 0.439905 -3.43898 0
M  V30 1743 C 167.731 -0.483111 -4.26573 0
M  V30 1744 C 166.964 0.262616 -5.33053 0
M  V30 1745 O 167.187 1.48967 -5.50604 0
M  V30 1746 O 166.121 -0.383593 -6.00676 0
M  V30 1747 H 169.947 -1.18203 -2.79753 0
M  V30 1748 H 167.532 -0.64145 -1.34929 0
M  V30 1749 H 169.414 0.883504 -4.12034 0
M  V30 1750 H 168.089 1.25526 -2.98371 0
M  V30 1751 H 166.996 -0.975374 -3.61161 0
M  V30 1752 H 168.329 -1.26427 -4.75686 0
M  V30 1753 N 169.982 1.44106 -0.638065 0
M  V30 1754 C 170.929 2.30715 0.062701 0
M  V30 1755 C 171.899 1.43882 0.829883 0
M  V30 1756 O 173.084 1.72775 0.809532 0
M  V30 1757 C 170.224 3.29258 1.03358 0
M  V30 1758 C 169.337 4.31192 0.26409 0
M  V30 1759 C 168.472 5.16825 1.22741 0
M  V30 1760 C 167.511 6.10462 0.447475 0
M  V30 1761 N 166.648 6.8877 1.36161 0
M  V30 1762 H 171.488 2.90096 -0.681781 0
M  V30 1763 H 169.025 1.42925 -0.347988 0
M  V30 1764 H 170.983 3.84886 1.60992 0
M  V30 1765 H 169.613 2.71562 1.74511 0
M  V30 1766 H 168.665 3.77981 -0.428295 0
M  V30 1767 H 169.977 4.97619 -0.343052 0
M  V30 1768 H 169.131 5.77004 1.87487 0
M  V30 1769 H 167.87 4.50488 1.86847 0
M  V30 1770 H 166.875 5.49386 -0.213433 0
M  V30 1771 H 168.1 6.78837 -0.188968 0
M  V30 1772 H 166.046 6.25096 1.98975 0
M  V30 1773 H 165.963 7.51663 0.808656 0
M  V30 1774 H 167.231 7.53467 1.99769 0
M  V30 1775 N 171.46 0.379036 1.52974 0
M  V30 1776 C 172.39 -0.452706 2.29069 0
M  V30 1777 C 173.371 -1.07237 1.32039 0
M  V30 1778 O 174.556 -1.08708 1.60923 0
M  V30 1779 C 171.686 -1.5856 3.08992 0
M  V30 1780 C 170.64 -1.0925 4.13822 0
M  V30 1781 C 169.966 -2.31668 4.81907 0
M  V30 1782 C 171.266 -0.167702 5.22031 0
M  V30 1783 H 172.96 0.182181 2.98845 0
M  V30 1784 H 170.506 0.0890592 1.43724 0
M  V30 1785 H 172.459 -2.1742 3.6098 0
M  V30 1786 H 171.183 -2.24792 2.36931 0
M  V30 1787 H 169.842 -0.526494 3.628 0
M  V30 1788 H 169.49 -2.96386 4.06404 0
M  V30 1789 H 169.19 -1.9934 5.52754 0
M  V30 1790 H 170.714 -2.91189 5.36695 0
M  V30 1791 H 172.128 -0.664186 5.6944 0
M  V30 1792 H 170.525 0.0653265 6.00064 0
M  V30 1793 H 171.595 0.786347 4.78482 0
M  V30 1794 N 172.938 -1.57226 0.108567 0
M  V30 1795 C 174.166 -1.99179 -0.559954 0
M  V30 1796 C 174.581 -0.988022 -1.60884 0
M  V30 1797 O 173.938 0.0205512 -1.82488 0
M  V30 1798 C 173.989 -3.41159 -1.19552 0
M  V30 1799 O 173.71 -4.37694 -0.188577 0
M  V30 1800 C 175.211 -3.98188 -1.94837 0
M  V30 1801 H 172.431 -0.654228 -0.149088 0
M  V30 1802 H 174.975 -2.03598 0.19183 0
M  V30 1803 H 173.13 -3.37711 -1.89815 0
M  V30 1804 H 173.544 -5.20469 -0.649014 0
M  V30 1805 H 175.018 -4.99644 -2.34648 0
M  V30 1806 H 175.495 -3.3675 -2.81951 0
M  V30 1807 H 176.101 -4.0515 -1.2936 0
M  V30 1808 N 174.416 0.165178 -1.56732 0
M  V30 1809 C 175.693 0.908443 -1.73224 0
M  V30 1810 C 176.073 2.0013 -0.67165 0
M  V30 1811 O 175.421 2.26353 0.31253 0
M  V30 1812 C 175.631 1.46756 -3.16644 0
M  V30 1813 C 176.979 1.93809 -3.77787 0
M  V30 1814 O 178.003 1.56537 -3.1996 0
M  V30 1815 O 176.862 2.62486 -4.79336 0
M  V30 1816 H 173.956 0.428025 -0.707618 0
M  V30 1817 H 176.502 0.152526 -1.69013 0
M  V30 1818 H 175.274 0.68129 -3.85323 0
M  V30 1819 H 174.897 2.28749 -3.25207 0
M  V30 1820 N 175.894 1.51508 0.433938 0
M  V30 1821 C 176.804 1.75917 1.5521 0
M  V30 1822 C 177.82 0.643545 1.61662 0
M  V30 1823 O 178.996 0.926183 1.7884 0
M  V30 1824 C 176.061 1.88213 2.91164 0
M  V30 1825 C 175.122 3.12074 2.94802 0
M  V30 1826 C 174.355 3.23774 4.24271 0
M  V30 1827 O 174.578 2.4133 5.16833 0
M  V30 1828 O 173.512 4.16774 4.34262 0
M  V30 1829 H 177.338 2.70777 1.37527 0
M  V30 1830 H 174.923 1.36051 0.617293 0
M  V30 1831 H 176.805 1.98267 3.71845 0
M  V30 1832 H 175.48 0.965413 3.08968 0
M  V30 1833 H 174.387 3.07497 2.13065 0
M  V30 1834 H 175.72 4.03446 2.81943 0
M  V30 1835 N 177.372 -0.689602 1.41712 0
M  V30 1836 C 178.282 -1.83314 1.46401 0
M  V30 1837 C 179.298 -1.7036 0.35405 0
M  V30 1838 O 180.474 -1.92171 0.602692 0
M  V30 1839 C 177.539 -3.19344 1.34982 0
M  V30 1840 C 176.6 -3.44363 2.56344 0
M  V30 1841 C 175.833 -4.73904 2.45461 0
M  V30 1842 O 176.056 -5.508 1.48241 0
M  V30 1843 O 174.99 -4.99839 3.35328 0
M  V30 1844 H 178.816 -1.82314 2.42889 0
M  V30 1845 H 176.401 -0.843438 1.23315 0
M  V30 1846 H 178.283 -4.00547 1.3092 0
M  V30 1847 H 176.958 -3.21014 0.41612 0
M  V30 1848 H 175.865 -2.63067 2.65982 0
M  V30 1849 H 177.198 -3.47512 3.48563 0
M  V30 1850 N 178.85 -1.27639 -0.924453 0
M  V30 1851 C 180.096 -1.14336 -1.67497 0
M  V30 1852 C 180.429 0.309465 -1.91718 0
M  V30 1853 O 179.704 1.22608 -1.50989 0
M  V30 1854 C 179.987 -1.93096 -3.0395 0
M  V30 1855 C 179.84 -3.46381 -2.8695 0
M  V30 1856 C 181.159 -1.73798 -4.0433 0
M  V30 1857 H 178.278 -0.416728 -0.607871 0
M  V30 1858 H 180.92 -1.56832 -1.07256 0
M  V30 1859 H 179.07 -1.56982 -3.55372 0
M  V30 1860 H 180.742 -3.92343 -2.42621 0
M  V30 1861 H 178.985 -3.72557 -2.22225 0
M  V30 1862 H 179.656 -3.96735 -3.83804 0
M  V30 1863 H 182.132 -2.05293 -3.61931 0
M  V30 1864 H 181.008 -2.31294 -4.97789 0
M  V30 1865 H 181.269 -0.686725 -4.36734 0
M  V30 1866 N 180.328 1.1314 -1.09713 0
M  V30 1867 C 181.605 1.80762 -0.747302 0
M  V30 1868 C 181.985 1.96663 0.767265 0
M  V30 1869 O 181.333 1.53706 1.69076 0
M  V30 1870 C 181.543 3.15606 -1.48975 0
M  V30 1871 C 182.891 3.90914 -1.65746 0
M  V30 1872 O 183.915 3.25239 -1.45251 0
M  V30 1873 O 182.774 5.08718 -1.9967 0
M  V30 1874 H 179.868 0.782103 -0.268782 0
M  V30 1875 H 182.414 1.20041 -1.19951 0
M  V30 1876 H 181.186 2.99278 -2.52088 0
M  V30 1877 H 180.809 3.84029 -1.02991 0
M  V30 1878 N 181.806 0.884767 1.30421 0
M  V30 1879 C 182.716 0.355398 2.31892 0
M  V30 1880 C 183.732 -0.542261 1.65335 0
M  V30 1881 O 184.908 -0.435432 1.96637 0
M  V30 1882 C 181.973 -0.421661 3.44126 0
M  V30 1883 C 181.034 0.505727 4.26311 0
M  V30 1884 C 180.267 -0.234343 5.33185 0
M  V30 1885 O 180.49 -1.46045 5.51386 0
M  V30 1886 O 179.424 0.415443 6.00465 0
M  V30 1887 H 183.25 1.19685 2.79122 0
M  V30 1888 H 180.835 0.648596 1.34587 0
M  V30 1889 H 182.717 -0.861641 4.12497 0
M  V30 1890 H 181.392 -1.23942 2.99032 0
M  V30 1891 H 180.299 0.994513 3.60639 0
M  V30 1892 H 181.632 1.28948 4.75009 0
M  V30 1893 N 183.284 -1.43765 0.645699 0
M  V30 1894 C 184.217 -2.2798 -0.100072 0
M  V30 1895 C 185.195 -1.39391 -0.837194 0
M  V30 1896 O 186.379 -1.68833 -0.838306 0
M  V30 1897 C 183.506 -3.18643 -1.14823 0
M  V30 1898 C 182.552 -4.2344 -0.510009 0
M  V30 1899 S 183.385 -5.30761 0.710824 0
M  V30 1900 C 184.541 -6.24992 -0.33699 0
M  V30 1901 H 184.774 -2.90884 0.614322 0
M  V30 1902 H 182.307 -1.48166 0.434304 0
M  V30 1903 H 184.265 -3.71424 -1.74799 0
M  V30 1904 H 182.926 -2.54932 -1.8349 0
M  V30 1905 H 182.119 -4.86948 -1.29991 0
M  V30 1906 H 181.721 -3.73997 0.0154577 0
M  V30 1907 H 184.013 -6.66691 -1.20537 0
M  V30 1908 H 184.956 -7.07612 0.262879 0
M  V30 1909 H 185.364 -5.60517 -0.669425 0
M  V30 1910 N 184.763 -0.387143 -1.52771 0
M  V30 1911 C 186.012 0.19697 -2.00736 0
M  V30 1912 C 186.325 1.48082 -1.27793 0
M  V30 1913 O 187.531 2.14485 -1.66458 0
M  V30 1914 C 185.987 0.401568 -3.57653 0
M  V30 1915 C 185.595 -0.868907 -4.39493 0
M  V30 1916 C 187.339 0.942164 -4.13912 0
M  V30 1917 C 185.246 -0.632705 -5.88006 0
M  V30 1918 H 184.176 0.0773827 -0.750019 0
M  V30 1919 H 186.827 -0.50921 -1.76293 0
M  V30 1920 H 185.209 1.16954 -3.78335 0
M  V30 1921 H 186.383 -1.64133 -4.30577 0
M  V30 1922 H 184.698 -1.33429 -3.94443 0
M  V30 1923 H 187.295 1.13455 -5.22525 0
M  V30 1924 H 187.638 1.9106 -3.69867 0
M  V30 1925 H 188.171 0.233814 -3.97112 0
M  V30 1926 H 184.91 -1.57208 -6.36369 0
M  V30 1927 H 184.43 0.100825 -5.99715 0
M  V30 1928 H 186.109 -0.26642 -6.46451 0
M  V30 1929 N 186.241 1.57166 -0.116904 0
M  V30 1930 C 187.657 1.5779 0.239693 0
M  V30 1931 C 187.857 1.1295 1.66867 0
M  V30 1932 O 186.913 0.81592 2.38954 0
M  V30 1933 C 188.226 3.00699 0.00828202 0
M  V30 1934 C 189.774 3.12912 0.0743438 0
M  V30 1935 C 190.249 4.57817 -0.129348 0
M  V30 1936 N 191.74 4.63139 -0.075247 0
M  V30 1937 C 192.475 5.73023 -0.207788 0
M  V30 1938 N 191.971 6.91665 -0.396382 0
M  V30 1939 N 193.764 5.61906 -0.14751 0
M  V30 1940 H 185.915 1.84615 -1.05029 0
M  V30 1941 H 188.178 0.85311 -0.41341 0
M  V30 1942 H 187.884 3.37784 -0.979531 0
M  V30 1943 H 187.758 3.69848 0.741077 0
M  V30 1944 H 190.145 2.75686 1.05268 0
M  V30 1945 H 190.226 2.4631 -0.690297 0
M  V30 1946 H 189.87 4.95742 -1.10465 0
M  V30 1947 H 189.8 5.22507 0.655253 0
M  V30 1948 H 192.291 3.7784 0.0670898 0
M  V30 1949 H 192.604 7.71255 -0.488437 0
M  V30 1950 H 190.949 6.93654 -0.432329 0
M  V30 1951 H 194.14 4.681 -0.00115036 0
M  V30 1952 H 194.313 6.47501 -0.254247 0
M  V30 1953 N 187.719 -0.156864 1.56817 0
M  V30 1954 C 188.629 -1.2136 2.00771 0
M  V30 1955 C 189.645 -1.47598 0.921459 0
M  V30 1956 O 190.821 -1.59462 1.2302 0
M  V30 1957 C 187.886 -2.52943 2.37109 0
M  V30 1958 C 186.947 -2.34439 3.59634 0
M  V30 1959 C 186.18 -3.59748 3.94229 0
M  V30 1960 O 186.403 -4.65526 3.29609 0
M  V30 1961 O 185.337 -3.52998 4.8752 0
M  V30 1962 H 189.163 -0.870468 2.90958 0
M  V30 1963 H 186.748 -0.36484 1.44877 0
M  V30 1964 H 188.63 -3.30538 2.61386 0
M  V30 1965 H 187.305 -2.86806 1.5008 0
M  V30 1966 H 186.212 -1.54828 3.40557 0
M  V30 1967 H 187.545 -2.05496 4.4725 0
M  V30 1968 N 189.197 -1.51736 -0.425897 0
M  V30 1969 C 190.16 -1.73271 -1.50032 0
M  V30 1970 C 191.16 -0.602639 -1.4908 0
M  V30 1971 O 192.35 -0.87033 -1.509 0
M  V30 1972 C 189.482 -1.79969 -2.89523 0
M  V30 1973 H 190.675 -2.69172 -1.32237 0
M  V30 1974 H 188.228 -1.41899 -0.65532 0
M  V30 1975 H 188.963 -0.859241 -3.1271 0
M  V30 1976 H 188.748 -2.62109 -2.91619 0
M  V30 1977 H 190.238 -1.9843 -3.67444 0
M  V30 1978 N 190.675 0.682077 -1.42076 0
M  V30 1979 C 191.952 1.43755 -1.32642 0
M  V30 1980 C 192.332 2.11063 0.0396611 0
M  V30 1981 O 191.68 2.02701 1.05474 0
M  V30 1982 C 191.89 2.44596 -2.48946 0
M  V30 1983 C 193.238 3.09454 -2.9073 0
M  V30 1984 O 194.262 2.54922 -2.48783 0
M  V30 1985 O 193.121 4.08253 -3.63307 0
M  V30 1986 H 190.215 0.640857 -0.522715 0
M  V30 1987 H 192.761 0.711415 -1.54068 0
M  V30 1988 H 191.533 1.93609 -3.40046 0
M  V30 1989 H 191.156 3.24701 -2.29467 0
M  V30 1990 N 192.153 1.28127 0.917671 0
M  V30 1991 C 193.402 1.14432 1.66097 0
M  V30 1992 C 193.715 -0.307247 1.93172 0
M  V30 1993 O 194.921 -0.565259 2.65551 0
M  V30 1994 C 193.377 2.00015 2.99202 0
M  V30 1995 C 192.985 3.49889 2.79789 0
M  V30 1996 C 194.729 1.94996 3.77064 0
M  V30 1997 C 192.636 4.27636 4.08511 0
M  V30 1998 H 191.566 0.424662 0.62304 0
M  V30 1999 H 194.217 1.52628 1.01868 0
M  V30 2000 H 192.599 1.54672 3.64544 0
M  V30 2001 H 193.773 4.03162 2.23152 0
M  V30 2002 H 192.088 3.56392 2.15345 0
M  V30 2003 H 194.685 2.50354 4.72469 0
M  V30 2004 H 195.028 0.925819 4.05875 0
M  V30 2005 H 195.561 2.38287 3.18534 0
M  V30 2006 H 192.3 5.30615 3.84874 0
M  V30 2007 H 191.82 3.79137 4.64774 0
M  V30 2008 H 193.499 4.37346 4.76799 0
M  V30 2009 N 193.631 -1.12557 1.10312 0
M  V30 2010 C 194.908 -1.80363 0.756878 0
M  V30 2011 C 195.288 -1.97067 -0.756824 0
M  V30 2012 O 194.636 -1.54601 -1.68259 0
M  V30 2013 C 194.846 -3.14812 1.50647 0
M  V30 2014 C 196.194 -3.90029 1.67817 0
M  V30 2015 O 197.218 -3.24464 1.46974 0
M  V30 2016 O 196.077 -5.07652 2.02365 0
M  V30 2017 H 193.171 -0.780667 0.272926 0
M  V30 2018 H 195.717 -1.19404 1.20586 0
M  V30 2019 H 194.489 -2.97936 2.53672 0
M  V30 2020 H 194.112 -3.83478 1.05026 0
M  V30 2021 N 195.109 -0.891671 -1.2995 0
M  V30 2022 C 196.357 -0.512486 -1.95494 0
M  V30 2023 C 196.678 0.942776 -1.70695 0
M  V30 2024 O 195.948 1.66374 -1.03424 0
M  V30 2025 H 194.528 -0.186533 -0.723336 0
M  V30 2026 H 197.19 -1.13621 -1.58355 0
M  V30 2027 H 196.286 -0.688342 -3.04415 0
M  V30 2028 N 196.587 1.43421 -0.653314 0
M  V30 2029 C 197.864 1.95361 -0.0966581 0
M  V30 2030 C 198.244 1.59461 1.38331 0
M  V30 2031 O 197.592 0.879777 2.10884 0
M  V30 2032 C 197.802 3.47311 -0.342988 0
M  V30 2033 C 199.15 4.23875 -0.24798 0
M  V30 2034 O 200.174 3.55133 -0.275553 0
M  V30 2035 O 199.033 5.4623 -0.171771 0
M  V30 2036 H 196.127 0.826945 0.00956291 0
M  V30 2037 H 198.673 1.5336 -0.726558 0
M  V30 2038 H 197.445 3.66569 -1.36906 0
M  V30 2039 H 197.068 3.9631 0.319975 0
M  V30 2040 N 198.065 0.39524 1.52563 0
M  V30 2041 C 199.313 -0.184678 2.01254 0
M  V30 2042 C 199.634 -1.46822 1.28329 0
M  V30 2043 O 198.904 -1.91666 0.405094 0
M  V30 2044 H 197.484 -0.0712355 0.743596 0
M  V30 2045 H 200.146 0.528293 1.87603 0
M  V30 2046 H 199.242 -0.390681 3.09645 0
M  V30 2047 N 199.544 -1.57102 0.125237 0
M  V30 2048 C 200.476 -2.12726 -0.853237 0
M  V30 2049 C 201.489 -1.07145 -1.22571 0
M  V30 2050 O 202.678 -1.34497 -1.17358 0
M  V30 2051 C 199.778 -2.61709 -2.15317 0
M  V30 2052 C 198.951 -3.91456 -1.95143 0
M  V30 2053 C 198.01 -4.25973 -3.08923 0
M  V30 2054 O 197.036 -4.94682 -2.81564 0
M  V30 2055 N 198.238 -3.83795 -4.35524 0
M  V30 2056 H 201.003 -2.97307 -0.377964 0
M  V30 2057 H 198.564 -1.61792 -0.0590011 0
M  V30 2058 H 200.556 -2.81826 -2.90441 0
M  V30 2059 H 199.126 -1.81974 -2.54174 0
M  V30 2060 H 198.346 -3.80185 -1.04177 0
M  V30 2061 H 199.634 -4.76283 -1.78976 0
M  V30 2062 H 199.032 -3.2839 -4.60626 0
M  V30 2063 H 197.589 -4.09008 -5.07499 0
M  V30 2064 N 201.022 0.148545 -1.56898 0
M  V30 2065 C 202.268 0.862694 -1.83536 0
M  V30 2066 C 202.601 1.80889 -0.706604 0
M  V30 2067 O 201.876 1.92328 0.289885 0
M  V30 2068 C 202.159 1.63853 -3.20662 0
M  V30 2069 C 202.012 0.713925 -4.44098 0
M  V30 2070 C 203.331 2.60133 -3.54991 0
M  V30 2071 H 200.45 0.312179 -0.667618 0
M  V30 2072 H 203.092 0.127953 -1.89569 0
M  V30 2073 H 201.242 2.26489 -3.1565 0
M  V30 2074 H 202.914 0.098686 -4.61194 0
M  V30 2075 H 201.157 0.0234019 -4.33794 0
M  V30 2076 H 201.828 1.29278 -5.36648 0
M  V30 2077 H 204.304 2.07616 -3.60603 0
M  V30 2078 H 203.18 3.11468 -4.51972 0
M  V30 2079 H 203.441 3.41417 -2.80868 0
M  V30 2080 N 202.5 1.5196 0.417844 0
M  V30 2081 C 203.448 1.75278 1.52907 0
M  V30 2082 C 204.442 0.619611 1.57662 0
M  V30 2083 O 205.648 0.801457 1.61173 0
M  V30 2084 H 202.023 0.554141 0.508362 0
M  V30 2085 H 203.994 2.68389 1.30422 0
M  V30 2086 C 202.743 1.91262 2.90369 0
M  V30 2087 H 202.066 2.77872 2.8745 0
M  V30 2088 H 203.506 2.11581 3.67436 0
M  V30 2089 C 201.965 0.677431 3.30019 0
M  V30 2090 O 202.495 -0.158799 4.01386 0
M  V30 2091 N 200.701 0.515851 2.85985 0
M  V30 2092 H 200.248 1.19744 2.28077 0
M  V30 2093 H 200.206 -0.309315 3.12875 0
M  V30 2094 N 203.978 -0.674533 1.42435 0
M  V30 2095 C 205.208 -1.46071 1.46105 0
M  V30 2096 C 205.616 -1.89067 0.0709605 0
M  V30 2097 O 204.959 -1.58731 -0.924677 0
M  V30 2098 C 205.021 -2.74145 2.32561 0
M  V30 2099 C 204.685 -2.53224 3.8043 0
M  V30 2100 C 205.682 -2.17809 4.72075 0
M  V30 2101 C 203.367 -2.6821 4.24698 0
M  V30 2102 C 205.361 -1.97648 6.05982 0
M  V30 2103 C 203.048 -2.47665 5.58664 0
M  V30 2104 C 204.046 -2.12437 6.49122 0
M  V30 2105 O 203.734 -1.9209 7.80613 0
M  V30 2106 H 203.466 -0.455959 0.499076 0
M  V30 2107 H 206.02 -0.836193 1.87609 0
M  V30 2108 H 204.25 -3.3908 1.85908 0
M  V30 2109 H 205.939 -3.36028 2.27683 0
M  V30 2110 H 206.705 -2.05826 4.39159 0
M  V30 2111 H 202.584 -2.94609 3.54579 0
M  V30 2112 H 206.128 -1.70075 6.7655 0
M  V30 2113 H 202.025 -2.59244 5.91154 0
M  V30 2114 H 202.793 -2.06686 7.91974 0
M  V30 2115 N 205.456 -1.28612 -0.910864 0
M  V30 2116 C 206.366 -1.14643 -2.0468 0
M  V30 2117 C 207.382 -0.0723121 -1.7385 0
M  V30 2118 O 208.558 -0.282178 -1.99413 0
M  V30 2119 C 205.623 -0.812561 -3.37044 0
M  V30 2120 C 204.684 -1.96935 -3.81465 0
M  V30 2121 C 203.917 -1.65131 -5.07511 0
M  V30 2122 O 204.14 -0.567013 -5.67575 0
M  V30 2123 O 203.074 -2.49585 -5.47714 0
M  V30 2124 H 206.9 -2.1001 -2.19384 0
M  V30 2125 H 204.485 -1.07958 -1.03274 0
M  V30 2126 H 206.367 -0.640441 -4.16505 0
M  V30 2127 H 205.042 0.111426 -3.23508 0
M  V30 2128 H 203.949 -2.19664 -3.02818 0
M  V30 2129 H 205.282 -2.87414 -3.99567 0
M  V30 2130 N 206.934 1.1197 -1.10907 0
M  V30 2131 C 207.844 2.21433 -0.774896 0
M  V30 2132 C 208.86 1.72478 0.229657 0
M  V30 2133 O 210.036 2.01288 0.0672008 0
M  V30 2134 C 207.101 3.4602 -0.216986 0
M  V30 2135 C 206.162 4.09791 -1.27944 0
M  V30 2136 C 205.395 5.28431 -0.748055 0
M  V30 2137 O 205.618 5.68823 0.423833 0
M  V30 2138 O 204.552 5.82644 -1.51027 0
M  V30 2139 H 208.378 2.5242 -1.68873 0
M  V30 2140 H 205.963 1.20399 -0.884555 0
M  V30 2141 H 207.845 4.21304 0.090059 0
M  V30 2142 H 206.52 3.16698 0.669633 0
M  V30 2143 H 205.427 3.36265 -1.63941 0
M  V30 2144 H 206.76 4.4328 -2.13925 0
M  V30 2145 N 208.412 0.89855 1.29475 0
M  V30 2146 C 209.659 0.523882 1.95606 0
M  V30 2147 C 209.987 -0.929608 1.70847 0
M  V30 2148 O 209.242 -1.67401 1.01367 0
M  V30 2149 C 209.541 0.761398 3.49195 0
M  V30 2150 C 209.207 2.19207 3.94029 0
M  V30 2151 C 207.869 2.58326 4.05982 0
M  V30 2152 C 210.221 3.12379 4.17216 0
M  V30 2153 C 207.549 3.898 4.38489 0
M  V30 2154 C 209.901 4.43401 4.51197 0
M  V30 2155 C 208.565 4.82394 4.61359 0
M  V30 2156 H 207.835 0.191702 0.715773 0
M  V30 2157 H 210.482 1.13699 1.54094 0
M  V30 2158 H 208.787 0.0653622 3.91745 0
M  V30 2159 H 210.484 0.450904 3.98457 0
M  V30 2160 H 207.074 1.87846 3.85242 0
M  V30 2161 H 211.258 2.83371 4.07449 0
M  V30 2162 H 206.514 4.19734 4.44559 0
M  V30 2163 H 210.688 5.15623 4.68087 0
M  V30 2164 H 208.315 5.84306 4.86303 0
M  V30 2165 N 209.89 -1.43072 0.660911 0
M  V30 2166 C 211.136 -2.0202 0.177708 0
M  V30 2167 C 211.469 -1.52066 -1.20787 0
M  V30 2168 O 210.744 -0.716987 -1.80802 0
M  V30 2169 C 211.027 -3.59561 0.197019 0
M  V30 2170 C 210.88 -4.19727 1.61706 0
M  V30 2171 C 212.199 -4.37664 -0.462396 0
M  V30 2172 H 209.318 -0.734034 0.0660494 0
M  V30 2173 H 211.96 -1.70272 0.843058 0
M  V30 2174 H 210.11 -3.86739 -0.369527 0
M  V30 2175 H 211.782 -4.03553 2.23479 0
M  V30 2176 H 210.025 -3.76084 2.16201 0
M  V30 2177 H 210.696 -5.28834 1.58237 0
M  V30 2178 H 213.172 -4.16095 0.0197215 0
M  V30 2179 H 212.048 -5.47305 -0.418188 0
M  V30 2180 H 212.309 -4.14493 -1.53778 0
M  V30 2181 N 211.368 -0.403325 -1.52352 0
M  V30 2182 C 212.3 0.4603 -2.2453 0
M  V30 2183 C 213.313 1.01505 -1.27282 0
M  V30 2184 O 214.502 0.914982 -1.53266 0
M  V30 2185 C 211.602 1.65208 -2.95905 0
M  V30 2186 C 210.775 1.22224 -4.19976 0
M  V30 2187 C 209.834 2.28028 -4.74226 0
M  V30 2188 O 208.86 1.88857 -5.36956 0
M  V30 2189 N 210.062 3.6012 -4.55295 0
M  V30 2190 H 212.827 -0.158156 -2.99282 0
M  V30 2191 H 210.388 -0.230402 -1.60252 0
M  V30 2192 H 212.38 2.35541 -3.29093 0
M  V30 2193 H 210.95 2.17658 -2.24374 0
M  V30 2194 H 210.17 0.34725 -3.92668 0
M  V30 2195 H 211.458 0.911924 -5.00561 0
M  V30 2196 H 210.856 3.94698 -4.05253 0
M  V30 2197 H 209.413 4.26447 -4.92936 0
M  V30 2198 N 212.846 1.57033 -0.133567 0
M  V30 2199 C 213.779 2.11824 0.848872 0
M  V30 2200 C 214.757 1.03833 1.2513 0
M  V30 2201 O 215.941 1.31579 1.34978 0
M  V30 2202 C 213.068 2.62692 2.138 0
M  V30 2203 C 212.114 3.82705 1.88253 0
M  V30 2204 S 212.947 5.2438 1.08563 0
M  V30 2205 C 214.103 5.78627 2.38624 0
M  V30 2206 H 214.336 2.94824 0.38289 0
M  V30 2207 H 211.869 1.5419 0.0804796 0
M  V30 2208 H 213.827 2.92652 2.87863 0
M  V30 2209 H 212.488 1.79847 2.57515 0
M  V30 2210 H 211.681 4.16496 2.83809 0
M  V30 2211 H 211.283 3.53437 1.22305 0
M  V30 2212 H 213.575 5.8924 3.34369 0
M  V30 2213 H 214.518 6.76443 2.09358 0
M  V30 2214 H 214.926 5.06783 2.48658 0
M  V30 2215 N 214.325 -0.140222 1.56975 0
M  V30 2216 C 215.258 -1.20266 1.93936 0
M  V30 2217 C 216.236 -1.41212 0.806099 0
M  V30 2218 O 217.42 -1.55713 1.06234 0
M  V30 2219 C 214.547 -2.56037 2.21726 0
M  V30 2220 C 213.593 -2.51646 3.44349 0
M  V30 2221 S 214.426 -1.97678 4.97678 0
M  V30 2222 C 215.582 -3.35165 5.28597 0
M  V30 2223 H 215.815 -0.887358 2.83749 0
M  V30 2224 H 213.348 -0.346119 1.50471 0
M  V30 2225 H 215.306 -3.34167 2.38416 0
M  V30 2226 H 213.967 -2.84755 1.32566 0
M  V30 2227 H 213.16 -3.51608 3.61092 0
M  V30 2228 H 212.762 -1.81628 3.26936 0
M  V30 2229 H 215.054 -4.31302 5.2248 0
M  V30 2230 H 215.997 -3.23269 6.30002 0
M  V30 2231 H 216.405 -3.32614 4.56101 0
M  V30 2232 N 215.803 -1.52179 -0.40978 0
M  V30 2233 C 217.031 -1.70054 -1.17853 0
M  V30 2234 C 217.446 -0.409735 -1.843 0
M  V30 2235 O 216.803 0.614183 -1.71855 0
M  V30 2236 C 216.854 -2.83568 -2.24213 0
M  V30 2237 O 216.575 -4.0765 -1.60478 0
M  V30 2238 C 218.076 -3.12947 -3.13973 0
M  V30 2239 H 215.296 -0.569917 -0.354169 0
M  V30 2240 H 217.84 -1.98734 -0.482198 0
M  V30 2241 H 215.995 -2.57409 -2.89516 0
M  V30 2242 H 216.409 -4.70899 -2.30986 0
M  V30 2243 H 217.883 -3.95889 -3.84677 0
M  V30 2244 H 218.36 -2.26472 -3.76307 0
M  V30 2245 H 218.966 -3.40868 -2.5434 0
M  V30 2246 N 217.281 0.66697 -1.42791 0
M  V30 2247 C 218.244 1.76211 -1.46568 0
M  V30 2248 C 219.244 1.56896 -0.352196 0
M  V30 2249 O 220.434 1.63044 -0.613364 0
M  V30 2250 C 217.566 3.14935 -1.30494 0
M  V30 2251 H 218.759 1.74247 -2.44086 0
M  V30 2252 H 216.312 0.877342 -1.29354 0
M  V30 2253 H 217.047 3.2252 -0.339301 0
M  V30 2254 H 216.832 3.30359 -2.11199 0
M  V30 2255 H 218.322 3.94821 -1.36038 0
M  V30 2256 N 218.759 1.29093 0.90403 0
M  V30 2257 C 219.706 1.13853 2.00764 0
M  V30 2258 C 220.676 0.0330084 1.66067 0
M  V30 2259 O 221.861 0.199733 1.89752 0
M  V30 2260 C 219.001 0.816537 3.35301 0
M  V30 2261 C 218.114 2.00206 3.82807 0
M  V30 2262 C 217.249 1.61983 5.059 0
M  V30 2263 C 216.288 2.77143 5.45764 0
M  V30 2264 N 215.425 2.39346 6.60044 0
M  V30 2265 H 220.265 2.08276 2.13132 0
M  V30 2266 H 217.802 1.03648 1.04381 0
M  V30 2267 H 219.76 0.610557 4.12708 0
M  V30 2268 H 218.39 -0.090779 3.22672 0
M  V30 2269 H 217.442 2.31988 3.01473 0
M  V30 2270 H 218.754 2.86512 4.08304 0
M  V30 2271 H 217.908 1.37649 5.90879 0
M  V30 2272 H 216.647 0.728202 4.82233 0
M  V30 2273 H 215.652 3.02165 4.59322 0
M  V30 2274 H 216.877 3.66964 5.71414 0
M  V30 2275 H 214.823 1.52665 6.37989 0
M  V30 2276 H 214.74 3.19185 6.85315 0
M  V30 2277 H 216.008 2.1832 7.48303 0
M  V30 2278 O 220.276 -1.03933 1.23613 0
M  V30 2279 H 220.967 -1.65369 1.0086 0
M  V30 END ATOM
M  V30 BEGIN BOND
M  V30 END BOND
M  V30 END CTAB
M  END
$$$$
